data_PCOD9528387
_publ_section_title
;
Structure prediction by ZEFSAII (Michael W. Deem and Ramdas Pophale) SiO2 
 PCOD9528387
Probable space group: I B A M
;
_chemical_formula_sum "Si O2"
_cell_formula_units_Z 88
_cell_length_a 14.018680
_cell_length_b 11.540780
_cell_length_c 23.091658
_cell_angle_alpha 90.000000
_cell_angle_beta 90.000000
_cell_angle_gamma 90.000000
_cell_volume 3735.918568
_symmetry_space_group_name_H-M "I B A M"
_symmetry_group_IT_number 72
_symmetry_cell_setting 'orthorhombic'
loop_
_space_group_symop_operation_xyz
x,y,z
-x,-y,z
x,-y,1/2-z
-x,y,1/2-z
-x,-y,-z
x,y,-z
-x,y,1/2+z
x,-y,1/2+z
1/2+x,1/2+y,1/2+z
1/2-x,1/2-y,1/2+z
1/2+x,1/2-y,-z
1/2-x,1/2+y,-z
1/2-x,1/2-y,1/2-z
1/2+x,1/2+y,1/2-z
1/2-x,1/2+y,z
1/2+x,1/2-y,z
loop_
_atom_site_type_symbol
_atom_site_label
_atom_site_fract_x
_atom_site_fract_y
_atom_site_fract_z
Si Si1 0.817525 0.247597 0.175812
Si Si2 0.889413 0.537898 0.500000
Si Si3 0.356891 0.383100 0.712519
Si Si4 0.750441 0.713658 0.500000
Si Si5 0.015998 0.233302 0.876969
Si Si6 0.945941 0.879995 0.000000
Si Si7 0.187275 0.614744 0.398836
O O1 0.741450 0.352508 0.178134
O O2 0.855502 0.219698 0.239859
O O3 0.764869 0.130770 0.151718
O O4 0.909760 0.268851 0.137706
O O5 0.857879 0.670274 0.500000
O O6 0.839551 0.488963 0.441562
O O7 0.000000 0.500000 0.500000
O O8 0.361797 0.500000 0.750000
O O9 0.443042 0.363108 0.667758
O O10 0.669615 0.612747 0.500000
O O11 0.726631 0.789445 0.555813
O O12 0.088307 0.340394 0.872322
O O13 0.026215 0.186451 0.941745
O O14 0.000000 0.000000 0.000000
#
# Coordination Sequence:
#
# PCOD9528387 Si02
#       7
#    16   8  16   8  16   8  16
#     4  10  22  39  68  93 131 175 222 283 344 395
#     4  11  24  39  63  95 129 188 235 270 344 428
#     4  10  23  43  66  97 130 173 232 277 335 414
#     4   9  21  40  57  86 135 171 220 272 333 395
#     4  10  22  40  64  93 135 177 219 284 344 403
#     4  10  23  35  59 101 130 165 225 277 336 405
#     4   9  22  41  58  92 132 173 224 280 340 397
#
# _framework density 23.555119000000001
#
# number of rings (size 3 to 8) (size 9 to 14) (size 15 to 20)
#    0.000    2.182    0.000    1.091    7.636    4.364 
#    0.000    0.909    0.000    9.818    0.000    0.000 
#    0.000    0.000    0.000    0.000    0.000    0.000 
#
# Total GULP energy -245871.307766 kJ/mol
# GULP energy per Si atom -5587.984267 kJ/mol
# Density = 2.350151 g / cm^3
# Si number density = 23.555119 Si / 1000 Ang^3
#
#
#
# Elastic Constant Matrix: (Units=GPa)
#
#
# Indices 1 2 3 4 5 6 
#
# 1 133.2667 19.9370 40.5712 0.0000 0.0000 0.0000
# 2 19.9370 45.7073 12.2392 0.0000 0.0000 0.0000
# 3 40.5712 12.2392 125.7789 0.0000 0.0000 0.0000
# 4 0.0000 0.0000 0.0000 36.6986 0.0000 0.0000
# 5 0.0000 0.0000 0.0000 0.0000 38.4138 0.0000
# 6 0.0000 0.0000 0.0000 0.0000 0.0000 16.4409
#
#
#
# Elastic Compliance Matrix: (Units=1/GPa)
#
#
# Indices 1 2 3 4 5 6 
#
# 1 0.008738 -0.003139 -0.002513 0.000000 0.000000 0.000000
# 2 -0.003139 0.023591 -0.001283 0.000000 0.000000 0.000000
# 3 -0.002513 -0.001283 0.008886 0.000000 0.000000 0.000000
# 4 0.000000 0.000000 0.000000 0.027249 0.000000 0.000000
# 5 0.000000 0.000000 0.000000 0.000000 0.026032 0.000000
# 6 0.000000 0.000000 0.000000 0.000000 0.000000 0.060824
#
#
# Mechanical properties :
#
#
# Convention : Reuss Voigt Hill
#
# Bulk Modulus (GPa) = 36.56936 50.02750 43.29843
# Shear Modulus (GPa) = 28.04170 33.77770 30.90970
#
# Velocity S-wave (km/s) = 3.45406 3.79091 3.62640
# Velocity P-wave (km/s) = 5.60947 6.35971 5.99633
#
# Compressibility (1/GPa) = 0.02734530
#
# Stress axis : x y z
#
# Youngs Moduli (GPa) = 114.43725 42.38911 112.53668
#
# Poissons Ratio (x) = 0.13304 0.28283
# Poissons Ratio (y) = 0.35917 0.14440
# Poissons Ratio (z) = 0.28761 0.05439
#
# Static dielectric constant tensor:
#      x y z
#    x 1.909700 0.000000 0.000000 
#    y 0.000000 1.961920 0.000000 
#    z 0.000000 0.000000 1.897200 
# 
# From -- ./inp_files/44272.got.cif
#   From: 2010.05.17/outbox.cif.g08.bks.cpg/sg72_23_cif.got.tgz:44272.got - 2010.06.03 17:03:01.
