data_PCOD9528229
_publ_section_title
;
Structure prediction by ZEFSAII (Michael W. Deem and Ramdas Pophale) SiO2 
 PCOD9528229
Probable space group: I B A M
;
_chemical_formula_sum "Si O2"
_cell_formula_units_Z 116
_cell_length_a 16.665109
_cell_length_b 14.078278
_cell_length_c 24.527776
_cell_angle_alpha 90.000000
_cell_angle_beta 90.000000
_cell_angle_gamma 90.000000
_cell_volume 5754.609611
_symmetry_space_group_name_H-M "I B A M"
_symmetry_group_IT_number 72
_symmetry_cell_setting 'orthorhombic'
loop_
_space_group_symop_operation_xyz
x,y,z
-x,-y,z
x,-y,1/2-z
-x,y,1/2-z
-x,-y,-z
x,y,-z
-x,y,1/2+z
x,-y,1/2+z
1/2+x,1/2+y,1/2+z
1/2-x,1/2-y,1/2+z
1/2+x,1/2-y,-z
1/2-x,1/2+y,-z
1/2-x,1/2-y,1/2-z
1/2+x,1/2+y,1/2-z
1/2-x,1/2+y,z
1/2+x,1/2-y,z
loop_
_atom_site_type_symbol
_atom_site_label
_atom_site_fract_x
_atom_site_fract_y
_atom_site_fract_z
Si Si1 0.909568 0.960344 0.650487
Si Si2 0.413239 0.285305 0.229425
Si Si3 0.207268 0.894693 0.936909
Si Si4 0.623752 0.076323 0.297103
Si Si5 0.500000 0.000000 0.000000
Si Si6 0.245191 0.679051 0.061404
Si Si7 0.693666 0.364602 0.820397
Si Si8 0.364320 0.999586 0.587435
O O1 0.895930 0.860901 0.681841
O O2 0.866763 0.944675 0.592466
O O3 0.859880 0.041245 0.681275
O O4 0.000000 0.000000 0.646802
O O5 0.500000 0.316420 0.250000
O O6 0.419360 0.176987 0.210070
O O7 0.348364 0.293025 0.278242
O O8 0.203088 0.781230 0.934000
O O9 0.290652 0.926719 0.909229
O O10 0.212255 0.923150 0.000000
O O11 0.717425 0.107197 0.301649
O O12 0.603197 0.025737 0.353491
O O13 0.611000 0.000000 0.250000
O O14 0.433932 0.971016 0.047136
O O15 0.299595 0.667345 0.115870
O O16 0.179073 0.596213 0.065237
O O17 0.282416 0.674969 0.000000
#
# Coordination Sequence:
#
# PCOD9528229 Si02
#       8
#    16  16  16  16   4  16  16  16
#     4  12  23  41  70 101 136 179 227 280 344 411
#     4  12  26  43  65 100 143 178 229 280 345 404
#     4  11  23  43  72  99 136 179 222 282 345 406
#     4  11  25  44  70 100 133 185 225 287 336 407
#     4  12  24  44  74  96 130 182 232 270 344 416
#     4  10  21  42  70  99 136 177 223 282 336 402
#     4  11  23  40  71  99 131 182 231 279 334 416
#     4  11  23  44  70 100 134 177 229 281 340 412
#
# _framework density 20.157753
#
# number of rings (size 3 to 8) (size 9 to 14) (size 15 to 20)
#    0.000    0.828    5.517    3.310    1.931    1.655 
#    0.000    0.000    0.000    0.000    0.000    0.000 
#    0.000    0.000    0.000    0.000    0.000    0.000 
#
# Total GULP energy -323429.401386 kJ/mol
# GULP energy per Si atom -5576.368989 kJ/mol
# Density = 2.011187 g / cm^3
# Si number density = 20.157753 Si / 1000 Ang^3
#
#
#
# Elastic Constant Matrix: (Units=GPa)
#
#
# Indices 1 2 3 4 5 6 
#
# 1 49.7898 -15.1601 3.4585 0.0000 0.0000 0.0000
# 2 -15.1601 61.2189 20.9297 0.0000 0.0000 0.0000
# 3 3.4585 20.9297 141.4469 0.0000 0.0000 0.0000
# 4 0.0000 0.0000 0.0000 -721.4631 0.0000 0.0000
# 5 0.0000 0.0000 0.0000 0.0000 25.8497 0.0000
# 6 0.0000 0.0000 0.0000 0.0000 0.0000 18.2287
#
#
#
# Elastic Compliance Matrix: (Units=1/GPa)
#
#
# Indices 1 2 3 4 5 6 
#
# 1 0.021988 0.005929 -0.001415 0.000000 0.000000 0.000000
# 2 0.005929 0.018804 -0.002927 0.000000 0.000000 0.000000
# 3 -0.001415 -0.002927 0.007538 0.000000 0.000000 0.000000
# 4 0.000000 0.000000 0.000000 -0.001386 0.000000 0.000000
# 5 0.000000 0.000000 0.000000 0.000000 0.038685 0.000000
# 6 0.000000 0.000000 0.000000 0.000000 0.000000 0.054858
#
#
# Mechanical properties :
#
#
# Convention : Reuss Voigt Hill
#
# Bulk Modulus (GPa) = 19.41661 30.10131 24.75896
# Shear Modulus (GPa) = 32.36642 -119.26176 -43.44767
#
# Velocity S-wave (km/s) = 4.01141 -7.70017 -4.64765
# Velocity P-wave (km/s) = 5.57750 8.00572 4.06098
#
# Compressibility (1/GPa) = 0.05150229
#
# Stress axis : x y z
#
# Youngs Moduli (GPa) = 45.47956 53.18073 132.66927
#
# Poissons Ratio (x) = -0.31529 0.18771
# Poissons Ratio (y) = -0.26964 0.38837
# Poissons Ratio (z) = 0.06435 0.15568
#
# Static dielectric constant tensor:
#      x y z
#    x 1.810490 0.000000 0.000000 
#    y 0.000000 1.706620 0.000000 
#    z 0.000000 0.000000 1.739960 
# 
# From -- ./inp_files/44982.got.cif
#   From: 2010.05.17/outbox.cif.g08.bks.cpg/sg72_23_cif.got.tgz:44982.got - 2010.06.03 17:03:01.
