data_PCOD9528442
_publ_section_title
;
Structure prediction by ZEFSAII (Michael W. Deem and Ramdas Pophale) SiO2 
 PCOD9528442
Probable space group: I B A M
;
_chemical_formula_sum "Si O2"
_cell_formula_units_Z 64
_cell_length_a 13.076159
_cell_length_b 8.332597
_cell_length_c 25.381131
_cell_angle_alpha 90.000000
_cell_angle_beta 90.000000
_cell_angle_gamma 90.000000
_cell_volume 2765.486491
_symmetry_space_group_name_H-M "I B A M"
_symmetry_group_IT_number 72
_symmetry_cell_setting 'orthorhombic'
loop_
_space_group_symop_operation_xyz
x,y,z
-x,-y,z
x,-y,1/2-z
-x,y,1/2-z
-x,-y,-z
x,y,-z
-x,y,1/2+z
x,-y,1/2+z
1/2+x,1/2+y,1/2+z
1/2-x,1/2-y,1/2+z
1/2+x,1/2-y,-z
1/2-x,1/2+y,-z
1/2-x,1/2-y,1/2-z
1/2+x,1/2+y,1/2-z
1/2-x,1/2+y,z
1/2+x,1/2-y,z
loop_
_atom_site_type_symbol
_atom_site_label
_atom_site_fract_x
_atom_site_fract_y
_atom_site_fract_z
Si Si1 0.322171 0.621733 0.942757
Si Si2 0.827028 0.402511 0.698387
Si Si3 0.616356 0.538631 0.327600
Si Si4 0.383523 0.018553 0.582801
O O1 0.369569 0.538190 0.891222
O O2 0.199751 0.604200 0.938630
O O3 0.348299 0.807444 0.936402
O O4 0.355999 0.561169 0.000000
O O5 0.859493 0.500000 0.750000
O O6 0.703720 0.419622 0.693544
O O7 0.857019 0.216604 0.693661
O O8 0.872917 0.485190 0.646183
O O9 0.500000 0.500000 0.314334
O O10 0.500000 0.000000 0.567197
#
# Coordination Sequence:
#
# PCOD9528442 Si02
#       4
#    16  16  16  16
#     4  10  22  40  64  94 129 170 217 266 317 380
#     4  10  22  43  68  95 130 168 216 274 329 386
#     4  10  23  42  66 100 136 170 217 270 323 388
#     4  10  23  42  63  92 129 167 213 267 321 382
#
# _framework density 23.142401
#
# number of rings (size 3 to 8) (size 9 to 14) (size 15 to 20)
#    0.000    2.000    0.000    1.500    0.000   19.500 
#    0.000    7.500    0.000    0.000    0.000    0.000 
#    0.000    0.000    0.000    0.000    0.000    0.000 
#
# Total GULP energy -179124.379501 kJ/mol
# GULP energy per Si atom -5597.636859 kJ/mol
# Density = 2.308973 g / cm^3
# Si number density = 23.142401 Si / 1000 Ang^3
#
#
#
# Elastic Constant Matrix: (Units=GPa)
#
#
# Indices 1 2 3 4 5 6 
#
# 1 169.6234 59.5040 1.7117 0.0000 0.0000 0.0000
# 2 59.5040 71.4688 24.0328 0.0000 0.0000 0.0000
# 3 1.7117 24.0328 177.5589 0.0000 0.0000 0.0000
# 4 0.0000 0.0000 0.0000 15.3737 0.0000 0.0000
# 5 0.0000 0.0000 0.0000 0.0000 28.9011 0.0000
# 6 0.0000 0.0000 0.0000 0.0000 0.0000 6.6847
#
#
#
# Elastic Compliance Matrix: (Units=1/GPa)
#
#
# Indices 1 2 3 4 5 6 
#
# 1 0.008467 -0.007357 0.000914 0.000000 0.000000 0.000000
# 2 -0.007357 0.021052 -0.002778 0.000000 0.000000 0.000000
# 3 0.000914 -0.002778 0.005999 0.000000 0.000000 0.000000
# 4 0.000000 0.000000 0.000000 0.065046 0.000000 0.000000
# 5 0.000000 0.000000 0.000000 0.000000 0.034601 0.000000
# 6 0.000000 0.000000 0.000000 0.000000 0.000000 0.149595
#
#
# Mechanical properties :
#
#
# Convention : Reuss Voigt Hill
#
# Bulk Modulus (GPa) = 58.56361 65.46089 62.01225
# Shear Modulus (GPa) = 16.18681 32.41875 24.30278
#
# Velocity S-wave (km/s) = 2.64757 3.74684 3.24410
# Velocity P-wave (km/s) = 5.89125 6.86046 6.39425
#
# Compressibility (1/GPa) = 0.01707545
#
# Stress axis : x y z
#
# Youngs Moduli (GPa) = 118.10568 47.50214 166.68925
#
# Poissons Ratio (x) = 0.34947 -0.15238
# Poissons Ratio (y) = 0.86889 0.46314
# Poissons Ratio (z) = -0.10797 0.13198
#
# Static dielectric constant tensor:
#      x y z
#    x 1.827560 0.000000 0.000000 
#    y 0.000000 1.841920 0.000000 
#    z 0.000000 0.000000 1.931650 
# 
# From -- ./inp_files/51131.got.cif
#   From: 2010.05.17/outbox.cif.g08.bks.cpg/sg72_26_cif.got.tgz:51131.got - 2010.06.03 17:03:01.
