data_PCOD9528968
_publ_section_title
;
Structure prediction by ZEFSAII (Michael W. Deem and Ramdas Pophale) SiO2 
 PCOD9528968
Probable space group: I B A M
;
_chemical_formula_sum "Si O2"
_cell_formula_units_Z 52
_cell_length_a 9.396091
_cell_length_b 12.788966
_cell_length_c 14.858724
_cell_angle_alpha 90.000000
_cell_angle_beta 90.000000
_cell_angle_gamma 90.000000
_cell_volume 1785.517712
_symmetry_space_group_name_H-M "I B A M"
_symmetry_group_IT_number 72
_symmetry_cell_setting 'orthorhombic'
loop_
_space_group_symop_operation_xyz
x,y,z
-x,-y,z
x,-y,1/2-z
-x,y,1/2-z
-x,-y,-z
x,y,-z
-x,y,1/2+z
x,-y,1/2+z
1/2+x,1/2+y,1/2+z
1/2-x,1/2-y,1/2+z
1/2+x,1/2-y,-z
1/2-x,1/2+y,-z
1/2-x,1/2-y,1/2-z
1/2+x,1/2+y,1/2-z
1/2-x,1/2+y,z
1/2+x,1/2-y,z
loop_
_atom_site_type_symbol
_atom_site_label
_atom_site_fract_x
_atom_site_fract_y
_atom_site_fract_z
Si Si1 0.270595 0.745612 0.606865
Si Si2 0.711814 0.018770 0.852924
Si Si3 0.972716 0.106986 0.610577
Si Si4 0.500000 0.000000 0.000000
O O1 0.281908 0.758157 0.500000
O O2 0.180032 0.639022 0.620137
O O3 0.422702 0.704855 0.641421
O O4 0.180058 0.840882 0.646509
O O5 0.886428 0.016110 0.871451
O O6 0.682429 0.000000 0.750000
O O7 0.611994 0.960533 0.922077
O O8 0.969955 0.112829 0.500000
#
# Coordination Sequence:
#
# PCOD9528968 Si02
#       4
#    16  16  16   4
#     4  11  24  43  77 116 159 224 280 340 425 500
#     4  11  27  49  77 116 167 218 279 356 426 500
#     4  10  26  47  78 117 172 219 279 352 417 506
#     4  12  26  48  82 118 162 222 280 360 410 522
#
# _framework density 29.123204999999999
#
# number of rings (size 3 to 8) (size 9 to 14) (size 15 to 20)
#    0.000    1.231    1.538    1.385    8.615   10.462 
#    0.000    0.000    0.000    0.000    0.000    0.000 
#    0.000    0.000    0.000    0.000    0.000    0.000 
#
# Total GULP energy -144850.263748 kJ/mol
# GULP energy per Si atom -5571.163990 kJ/mol
# Density = 2.905692 g / cm^3
# Si number density = 29.123205 Si / 1000 Ang^3
#
#
#
# Elastic Constant Matrix: (Units=GPa)
#
#
# Indices 1 2 3 4 5 6 
#
# 1 267.0963 96.9220 61.8316 0.0000 0.0000 0.0000
# 2 96.9220 158.4635 22.8344 0.0000 0.0000 0.0000
# 3 61.8316 22.8344 204.9898 0.0000 0.0000 0.0000
# 4 0.0000 0.0000 0.0000 86.4205 0.0000 0.0000
# 5 0.0000 0.0000 0.0000 0.0000 17.7793 0.0000
# 6 0.0000 0.0000 0.0000 0.0000 0.0000 82.8000
#
#
#
# Elastic Compliance Matrix: (Units=1/GPa)
#
#
# Indices 1 2 3 4 5 6 
#
# 1 0.005090 -0.002939 -0.001208 0.000000 0.000000 0.000000
# 2 -0.002939 0.008111 -0.000017 0.000000 0.000000 0.000000
# 3 -0.001208 -0.000017 0.005245 0.000000 0.000000 0.000000
# 4 0.000000 0.000000 0.000000 0.011571 0.000000 0.000000
# 5 0.000000 0.000000 0.000000 0.000000 0.056245 0.000000
# 6 0.000000 0.000000 0.000000 0.000000 0.000000 0.012077
#
#
# Mechanical properties :
#
#
# Convention : Reuss Voigt Hill
#
# Bulk Modulus (GPa) = 98.84099 110.41395 104.62747
# Shear Modulus (GPa) = 45.43796 67.33073 56.38434
#
# Velocity S-wave (km/s) = 3.95422 4.81347 4.40484
# Velocity P-wave (km/s) = 7.40678 8.29986 7.86600
#
# Compressibility (1/GPa) = 0.01011726
#
# Stress axis : x y z
#
# Youngs Moduli (GPa) = 196.45635 123.29225 190.67482
#
# Poissons Ratio (x) = 0.36239 0.23033
# Poissons Ratio (y) = 0.57744 0.00322
# Poissons Ratio (z) = 0.23731 0.00208
#
# Static dielectric constant tensor:
#      x y z
#    x 2.517980 0.000000 0.000000 
#    y 0.000000 3.193180 0.000000 
#    z 0.000000 0.000000 1.955120 
# 
# From -- ./inp_files/27440.got.cif
#   From: 2010.05.17/outbox.cif.g08.bks.cpg/sg72_14_cif.got.tgz:27440.got - 2010.06.03 17:03:01.
