data_PCOD9528304
_publ_section_title
;
Structure prediction by ZEFSAII (Michael W. Deem and Ramdas Pophale) SiO2 
 PCOD9528304
Probable space group: I B A M
;
_chemical_formula_sum "Si O2"
_cell_formula_units_Z 96
_cell_length_a 22.975592
_cell_length_b 14.331109
_cell_length_c 13.884753
_cell_angle_alpha 90.000000
_cell_angle_beta 90.000000
_cell_angle_gamma 90.000000
_cell_volume 4571.773100
_symmetry_space_group_name_H-M "I B A M"
_symmetry_group_IT_number 72
_symmetry_cell_setting 'orthorhombic'
loop_
_space_group_symop_operation_xyz
x,y,z
-x,-y,z
x,-y,1/2-z
-x,y,1/2-z
-x,-y,-z
x,y,-z
-x,y,1/2+z
x,-y,1/2+z
1/2+x,1/2+y,1/2+z
1/2-x,1/2-y,1/2+z
1/2+x,1/2-y,-z
1/2-x,1/2+y,-z
1/2-x,1/2-y,1/2-z
1/2+x,1/2+y,1/2-z
1/2-x,1/2+y,z
1/2+x,1/2-y,z
loop_
_atom_site_type_symbol
_atom_site_label
_atom_site_fract_x
_atom_site_fract_y
_atom_site_fract_z
Si Si1 0.727639 0.721333 0.110735
Si Si2 0.747210 0.992142 0.382848
Si Si3 0.837353 0.861683 0.889833
Si Si4 0.590616 0.801370 0.615620
Si Si5 0.473023 0.099447 0.885588
Si Si6 0.151514 0.371611 0.709708
O O1 0.743928 0.616583 0.140816
O O2 0.785151 0.785325 0.109635
O O3 0.682173 0.774474 0.178453
O O4 0.705897 0.718368 0.000000
O O5 0.740261 0.999694 0.500000
O O6 0.806140 0.046390 0.352114
O O7 0.694880 0.050284 0.333912
O O8 0.892013 0.803243 0.852408
O O9 0.852480 0.884500 0.000000
O O10 0.601118 0.812476 0.500000
O O11 0.523995 0.826650 0.635010
O O12 0.632368 0.868449 0.678169
O O13 0.411090 0.118203 0.839878
O O14 0.500000 0.000000 0.856782
O O15 0.464566 0.096466 0.000000
#
# Coordination Sequence:
#
# PCOD9528304 Si02
#       6
#    16  16  16  16  16  16
#     4   9  18  33  56  86 118 151 191 245 305 358
#     4   9  18  33  57  88 120 155 195 246 303 360
#     4   8  16  33  52  75 112 155 194 237 297 353
#     4  10  22  38  55  78 119 163 199 249 296 343
#     4  10  22  39  61  89 119 154 194 241 303 362
#     4  11  21  36  59  88 122 156 203 244 292 363
#
# _framework density 20.998418000000001
#
# number of rings (size 3 to 8) (size 9 to 14) (size 15 to 20)
#    0.000    2.500    0.000    3.000    2.333    4.000 
#    0.000    2.500    0.000    4.000    0.000    8.167 
#    0.000    0.000    0.000    0.000    0.000    0.000 
#
# Total GULP energy -268080.470382 kJ/mol
# GULP energy per Si atom -5585.009800 kJ/mol
# Density = 2.095062 g / cm^3
# Si number density = 20.998418 Si / 1000 Ang^3
#
#
#
# Elastic Constant Matrix: (Units=GPa)
#
#
# Indices 1 2 3 4 5 6 
#
# 1 125.6713 51.6984 33.5967 0.0000 0.0000 0.0000
# 2 51.6984 131.9857 25.9349 0.0000 0.0000 0.0000
# 3 33.5967 25.9349 112.6401 0.0000 0.0000 0.0000
# 4 0.0000 0.0000 0.0000 21.9045 0.0000 0.0000
# 5 0.0000 0.0000 0.0000 0.0000 24.5370 0.0000
# 6 0.0000 0.0000 0.0000 0.0000 0.0000 24.4924
#
#
#
# Elastic Compliance Matrix: (Units=1/GPa)
#
#
# Indices 1 2 3 4 5 6 
#
# 1 0.009969 -0.003478 -0.002173 0.000000 0.000000 0.000000
# 2 -0.003478 0.009149 -0.001069 0.000000 0.000000 0.000000
# 3 -0.002173 -0.001069 0.009772 0.000000 0.000000 0.000000
# 4 0.000000 0.000000 0.000000 0.045653 0.000000 0.000000
# 5 0.000000 0.000000 0.000000 0.000000 0.040755 0.000000
# 6 0.000000 0.000000 0.000000 0.000000 0.000000 0.040829
#
#
# Mechanical properties :
#
#
# Convention : Reuss Voigt Hill
#
# Bulk Modulus (GPa) = 64.72276 65.86190 65.29233
# Shear Modulus (GPa) = 28.61794 31.45792 30.03793
#
# Velocity S-wave (km/s) = 3.69570 3.87474 3.78628
# Velocity P-wave (km/s) = 7.00718 7.17296 7.09056
#
# Compressibility (1/GPa) = 0.01545052
#
# Stress axis : x y z
#
# Youngs Moduli (GPa) = 100.31317 109.30245 102.33297
#
# Poissons Ratio (x) = 0.38014 0.22233
# Poissons Ratio (y) = 0.34887 0.10941
# Poissons Ratio (z) = 0.21794 0.11686
#
# Static dielectric constant tensor:
#      x y z
#    x 1.750950 0.000000 0.000000 
#    y 0.000000 1.810190 0.000000 
#    z 0.000000 0.000000 1.837760 
# 
# From -- ./inp_files/24171.got.cif
#   From: 2010.05.17/outbox.cif.g08.bks.cpg/sg72_13_cif.got.tgz:24171.got - 2010.06.03 17:03:01.
