data_PCOD9528645
_publ_section_title
;
Structure prediction by ZEFSAII (Michael W. Deem and Ramdas Pophale) SiO2 
 PCOD9528645
Probable space group: I B A M
;
_chemical_formula_sum "Si O2"
_cell_formula_units_Z 88
_cell_length_a 14.868180
_cell_length_b 10.041788
_cell_length_c 25.622645
_cell_angle_alpha 90.000000
_cell_angle_beta 90.000000
_cell_angle_gamma 90.000000
_cell_volume 3825.540624
_symmetry_space_group_name_H-M "I B A M"
_symmetry_group_IT_number 72
_symmetry_cell_setting 'orthorhombic'
loop_
_space_group_symop_operation_xyz
x,y,z
-x,-y,z
x,-y,1/2-z
-x,y,1/2-z
-x,-y,-z
x,y,-z
-x,y,1/2+z
x,-y,1/2+z
1/2+x,1/2+y,1/2+z
1/2-x,1/2-y,1/2+z
1/2+x,1/2-y,-z
1/2-x,1/2+y,-z
1/2-x,1/2-y,1/2-z
1/2+x,1/2+y,1/2-z
1/2-x,1/2+y,z
1/2+x,1/2-y,z
loop_
_atom_site_type_symbol
_atom_site_label
_atom_site_fract_x
_atom_site_fract_y
_atom_site_fract_z
Si Si1 0.910603 0.641180 0.597424
Si Si2 0.337432 0.008368 0.500000
Si Si3 0.733176 0.267956 0.056052
Si Si4 0.945728 0.135030 0.393114
Si Si5 0.848211 0.616693 0.291106
Si Si6 0.134678 0.864247 0.279975
O O1 0.902157 0.547524 0.548061
O O2 0.818546 0.727886 0.592328
O O3 0.899116 0.583216 0.655327
O O4 0.993605 0.739190 0.592822
O O5 0.290853 0.117577 0.456416
O O6 0.648100 0.348585 0.076233
O O7 0.762889 0.346285 0.000000
O O8 0.923329 0.143121 0.331991
O O9 0.000000 0.000000 0.405047
O O10 0.859947 0.500000 0.250000
O O11 0.881539 0.748732 0.261945
O O12 0.740106 0.636600 0.297683
O O13 0.118089 0.000000 0.250000
#
# Coordination Sequence:
#
# PCOD9528645 Si02
#       6
#    16   8  16  16  16  16
#     4  12  25  45  75 109 143 197 241 303 375 430
#     4  10  26  47  74  95 152 194 244 295 372 437
#     4  10  26  47  71 102 144 192 239 303 359 433
#     4  12  28  44  76 110 144 188 246 303 361 441
#     4  10  23  41  74 106 144 189 240 300 362 438
#     4  10  22  45  70 104 146 194 236 291 367 438
#
# _framework density 23.003285000000002
#
# number of rings (size 3 to 8) (size 9 to 14) (size 15 to 20)
#    0.545    0.727    2.727    1.091    6.364    5.818 
#    0.000    0.909    0.000    0.000    0.000    0.000 
#    0.000    0.000    0.000    0.000    0.000    0.000 
#
# Total GULP energy -245367.546723 kJ/mol
# GULP energy per Si atom -5576.535153 kJ/mol
# Density = 2.295093 g / cm^3
# Si number density = 23.003285 Si / 1000 Ang^3
#
#
#
# Elastic Constant Matrix: (Units=GPa)
#
#
# Indices 1 2 3 4 5 6 
#
# 1 95.8437 27.9243 20.0441 0.0000 0.0000 0.0000
# 2 27.9243 88.6569 17.1853 0.0000 0.0000 0.0000
# 3 20.0441 17.1853 96.3067 0.0000 0.0000 0.0000
# 4 0.0000 0.0000 0.0000 -103.2181 0.0000 0.0000
# 5 0.0000 0.0000 0.0000 0.0000 25.8014 0.0000
# 6 0.0000 0.0000 0.0000 0.0000 0.0000 48.9705
#
#
#
# Elastic Compliance Matrix: (Units=1/GPa)
#
#
# Indices 1 2 3 4 5 6 
#
# 1 0.011800 -0.003357 -0.001857 0.000000 0.000000 0.000000
# 2 -0.003357 0.012638 -0.001557 0.000000 0.000000 0.000000
# 3 -0.001857 -0.001557 0.011048 0.000000 0.000000 0.000000
# 4 0.000000 0.000000 0.000000 -0.009688 0.000000 0.000000
# 5 0.000000 0.000000 0.000000 0.000000 0.038758 0.000000
# 6 0.000000 0.000000 0.000000 0.000000 0.000000 0.020420
#
#
# Mechanical properties :
#
#
# Convention : Reuss Voigt Hill
#
# Bulk Modulus (GPa) = 45.56710 45.67943 45.62327
# Shear Modulus (GPa) = 47.24481 8.68766 27.96623
#
# Velocity S-wave (km/s) = 4.53684 1.94548 3.49054
# Velocity P-wave (km/s) = 6.87719 4.99474 6.01013
#
# Compressibility (1/GPa) = 0.02194566
#
# Stress axis : x y z
#
# Youngs Moduli (GPa) = 84.74588 79.12373 90.51622
#
# Poissons Ratio (x) = 0.26559 0.16808
# Poissons Ratio (y) = 0.28447 0.14090
# Poissons Ratio (z) = 0.15737 0.12317
#
# Static dielectric constant tensor:
#      x y z
#    x 1.959030 0.000000 0.000000 
#    y 0.000000 1.900490 0.000000 
#    z 0.000000 0.000000 1.842000 
# 
# From -- ./inp_files/44144.got.cif
#   From: 2010.05.17/outbox.cif.g08.bks.cpg/sg72_23_cif.got.tgz:44144.got - 2010.06.03 17:03:01.
