data_PCOD9528837
_publ_section_title
;
Structure prediction by ZEFSAII (Michael W. Deem and Ramdas Pophale) SiO2 
 PCOD9528837
Probable space group: I B A M
;
_chemical_formula_sum "Si O2"
_cell_formula_units_Z 68
_cell_length_a 4.807695
_cell_length_b 27.492100
_cell_length_c 20.724487
_cell_angle_alpha 90.000000
_cell_angle_beta 90.000000
_cell_angle_gamma 90.000000
_cell_volume 2739.230712
_symmetry_space_group_name_H-M "I B A M"
_symmetry_group_IT_number 72
_symmetry_cell_setting 'orthorhombic'
loop_
_space_group_symop_operation_xyz
x,y,z
-x,-y,z
x,-y,1/2-z
-x,y,1/2-z
-x,-y,-z
x,y,-z
-x,y,1/2+z
x,-y,1/2+z
1/2+x,1/2+y,1/2+z
1/2-x,1/2-y,1/2+z
1/2+x,1/2-y,-z
1/2-x,1/2+y,-z
1/2-x,1/2-y,1/2-z
1/2+x,1/2+y,1/2-z
1/2-x,1/2+y,z
1/2+x,1/2-y,z
loop_
_atom_site_type_symbol
_atom_site_label
_atom_site_fract_x
_atom_site_fract_y
_atom_site_fract_z
Si Si1 0.253216 0.717425 0.070935
Si Si2 0.000000 0.000000 0.250000
Si Si3 0.226468 0.168177 0.206421
Si Si4 0.131909 0.921678 0.846847
Si Si5 0.113129 0.444868 0.573761
O O1 0.574971 0.732925 0.071533
O O2 0.190975 0.691702 0.138271
O O3 0.197216 0.693915 0.000000
O O4 0.824362 0.964107 0.294635
O O5 0.500000 0.158041 0.250000
O O6 0.035668 0.122206 0.184906
O O7 0.000000 0.198016 0.250000
O O8 0.926045 0.941812 0.901760
O O9 0.422426 0.911601 0.880579
O O10 0.091169 0.430174 0.500000
O O11 0.000000 0.500000 0.579592
#
# Coordination Sequence:
#
# PCOD9528837 Si02
#       5
#    16   4  16  16  16
#     4  10  23  45  72 101 137 183 228 273 343 429
#     4  12  24  42  66  86 132 186 228 264 324 410
#     4  12  26  43  67 104 141 174 229 290 343 405
#     4  12  25  41  65  93 128 178 222 275 336 395
#     4  11  23  41  62  89 120 163 223 281 338 398
#
# _framework density 24.824486
#
# number of rings (size 3 to 8) (size 9 to 14) (size 15 to 20)
#    0.000    0.706    3.529    3.529    0.000    7.529 
#    0.000    2.353    0.000    0.000    0.000    0.000 
#    0.000    0.000    0.000    0.000    0.000    0.000 
#
# Total GULP energy -190243.496221 kJ/mol
# GULP energy per Si atom -5595.396948 kJ/mol
# Density = 2.476798 g / cm^3
# Si number density = 24.824486 Si / 1000 Ang^3
#
#
#
# Elastic Constant Matrix: (Units=GPa)
#
#
# Indices 1 2 3 4 5 6 
#
# 1 123.7946 7.1606 47.0713 0.0000 0.0000 0.0000
# 2 7.1606 44.9298 54.3864 0.0000 0.0000 0.0000
# 3 47.0713 54.3864 230.1242 0.0000 0.0000 0.0000
# 4 0.0000 0.0000 0.0000 61.7206 0.0000 0.0000
# 5 0.0000 0.0000 0.0000 0.0000 23.8833 0.0000
# 6 0.0000 0.0000 0.0000 0.0000 0.0000 25.3335
#
#
#
# Elastic Compliance Matrix: (Units=1/GPa)
#
#
# Indices 1 2 3 4 5 6 
#
# 1 0.008797 0.001087 -0.002056 0.000000 0.000000 0.000000
# 2 0.001087 0.031310 -0.007622 0.000000 0.000000 0.000000
# 3 -0.002056 -0.007622 0.006567 0.000000 0.000000 0.000000
# 4 0.000000 0.000000 0.000000 0.016202 0.000000 0.000000
# 5 0.000000 0.000000 0.000000 0.000000 0.041870 0.000000
# 6 0.000000 0.000000 0.000000 0.000000 0.000000 0.039473
#
#
# Mechanical properties :
#
#
# Convention : Reuss Voigt Hill
#
# Bulk Modulus (GPa) = 33.90764 68.45391 51.18077
# Shear Modulus (GPa) = 29.20000 41.53618 35.36809
#
# Velocity S-wave (km/s) = 3.43338 4.09491 3.77865
# Velocity P-wave (km/s) = 5.42274 7.07055 6.30075
#
# Compressibility (1/GPa) = 0.02949188
#
# Stress axis : x y z
#
# Youngs Moduli (GPa) = 113.67645 31.93880 152.26651
#
# Poissons Ratio (x) = -0.03472 0.31311
# Poissons Ratio (y) = -0.12358 1.16057
# Poissons Ratio (z) = 0.23375 0.24344
#
# Static dielectric constant tensor:
#      x y z
#    x 1.885190 0.000000 0.000000 
#    y 0.000000 2.009490 0.000000 
#    z 0.000000 0.000000 2.006720 
# 
# From -- ./inp_files/34942.got.cif
#   From: 2010.05.17/outbox.cif.g08.bks.cpg/sg72_18_cif.got.tgz:34942.got - 2010.06.03 17:03:01.
