data_PCOD9528979
_publ_section_title
;
Structure prediction by ZEFSAII (Michael W. Deem and Ramdas Pophale) SiO2 
 PCOD9528979
Probable space group: I B A M
;
_chemical_formula_sum "Si O2"
_cell_formula_units_Z 64
_cell_length_a 13.880453
_cell_length_b 7.580601
_cell_length_c 23.854497
_cell_angle_alpha 90.000000
_cell_angle_beta 90.000000
_cell_angle_gamma 90.000000
_cell_volume 2510.022079
_symmetry_space_group_name_H-M "I B A M"
_symmetry_group_IT_number 72
_symmetry_cell_setting 'orthorhombic'
loop_
_space_group_symop_operation_xyz
x,y,z
-x,-y,z
x,-y,1/2-z
-x,y,1/2-z
-x,-y,-z
x,y,-z
-x,y,1/2+z
x,-y,1/2+z
1/2+x,1/2+y,1/2+z
1/2-x,1/2-y,1/2+z
1/2+x,1/2-y,-z
1/2-x,1/2+y,-z
1/2-x,1/2-y,1/2-z
1/2+x,1/2+y,1/2-z
1/2-x,1/2+y,z
1/2+x,1/2-y,z
loop_
_atom_site_type_symbol
_atom_site_label
_atom_site_fract_x
_atom_site_fract_y
_atom_site_fract_z
Si Si1 0.110631 0.542132 0.315649
Si Si2 0.803698 0.746282 0.000000
Si Si3 0.320530 0.248320 0.104403
Si Si4 0.386379 0.455011 0.687772
Si Si5 0.618545 0.923148 0.000000
O O1 0.119864 0.500000 0.250000
O O2 0.175814 0.409376 0.350961
O O3 0.128468 0.748715 0.323111
O O4 0.000000 0.500000 0.331043
O O5 0.772080 0.716947 0.934532
O O6 0.903393 0.630154 0.000000
O O7 0.740979 0.936399 0.000000
O O8 0.350924 0.418490 0.138652
O O9 0.396626 0.187978 0.055739
O O10 0.500000 0.500000 0.690994
O O11 0.346357 0.500000 0.750000
#
# Coordination Sequence:
#
# PCOD9528979 Si02
#       5
#    16   8  16  16   8
#     4  11  18  31  56  86 125 153 174 208 264 343
#     4   8  20  40  60  72  98 138 201 236 280 318
#     4   9  20  35  56  87 102 149 192 217 284 324
#     4  11  18  31  56  86 125 153 174 208 264 343
#     4   8  20  40  60  72  98 138 201 236 280 318
#
# _framework density 25.497782999999998
#
# number of rings (size 3 to 8) (size 9 to 14) (size 15 to 20)
#    1.500    0.500    5.000    1.500    0.000    2.000 
#    0.000    6.250    0.000    4.500    0.000    0.000 
#    0.000    0.000    0.000    0.000    0.000    0.000 
#
# Total GULP energy -178212.104365 kJ/mol
# GULP energy per Si atom -5569.128261 kJ/mol
# Density = 2.543975 g / cm^3
# Si number density = 25.497783 Si / 1000 Ang^3
#
#
#
# Elastic Constant Matrix: (Units=GPa)
#
#
# Indices 1 2 3 4 5 6 
#
# 1 65.1050 34.7817 30.9721 0.0000 0.0000 0.0000
# 2 34.7817 241.2969 109.4302 0.0000 0.0000 0.0000
# 3 30.9721 109.4302 212.3832 0.0000 0.0000 0.0000
# 4 0.0000 0.0000 0.0000 59.0997 0.0000 0.0000
# 5 0.0000 0.0000 0.0000 0.0000 26.1834 0.0000
# 6 0.0000 0.0000 0.0000 0.0000 0.0000 -10.7485
#
#
#
# Elastic Compliance Matrix: (Units=1/GPa)
#
#
# Indices 1 2 3 4 5 6 
#
# 1 0.017044 -0.001735 -0.001592 0.000000 0.000000 0.000000
# 2 -0.001735 0.005585 -0.002624 0.000000 0.000000 0.000000
# 3 -0.001592 -0.002624 0.006293 0.000000 0.000000 0.000000
# 4 0.000000 0.000000 0.000000 0.016921 0.000000 0.000000
# 5 0.000000 0.000000 0.000000 0.000000 0.038192 0.000000
# 6 0.000000 0.000000 0.000000 0.000000 0.000000 -0.093037
#
#
# Mechanical properties :
#
#
# Convention : Reuss Voigt Hill
#
# Bulk Modulus (GPa) = 58.75704 96.57256 77.66480
# Shear Modulus (GPa) = 583.27237 37.81367 310.54302
#
# Velocity S-wave (km/s) = 15.14103 3.85517 11.04792
# Velocity P-wave (km/s) = 18.13179 7.60090 13.90207
#
# Compressibility (1/GPa) = 0.01701924
#
# Stress axis : x y z
#
# Youngs Moduli (GPa) = 58.67221 179.06515 158.91170
#
# Poissons Ratio (x) = 0.31068 0.25292
# Poissons Ratio (y) = 0.10180 0.41705
# Poissons Ratio (z) = 0.09338 0.46994
#
# Static dielectric constant tensor:
#      x y z
#    x 2.297220 0.000000 0.000000 
#    y 0.000000 2.051180 0.000000 
#    z 0.000000 0.000000 1.958630 
# 
# From -- ./inp_files/45152.got.cif
#   From: 2010.05.17/outbox.cif.g08.bks.cpg/sg72_23_cif.got.tgz:45152.got - 2010.06.03 17:03:01.
