data_PCOD9528151
_publ_section_title
;
Structure prediction by ZEFSAII (Michael W. Deem and Ramdas Pophale) SiO2 
 PCOD9528151
Probable space group: I B A M
;
_chemical_formula_sum "Si O2"
_cell_formula_units_Z 56
_cell_length_a 18.264119
_cell_length_b 8.045075
_cell_length_c 14.854556
_cell_angle_alpha 90.000000
_cell_angle_beta 90.000000
_cell_angle_gamma 90.000000
_cell_volume 2182.672118
_symmetry_space_group_name_H-M "I B A M"
_symmetry_group_IT_number 72
_symmetry_cell_setting 'orthorhombic'
loop_
_space_group_symop_operation_xyz
x,y,z
-x,-y,z
x,-y,1/2-z
-x,y,1/2-z
-x,-y,-z
x,y,-z
-x,y,1/2+z
x,-y,1/2+z
1/2+x,1/2+y,1/2+z
1/2-x,1/2-y,1/2+z
1/2+x,1/2-y,-z
1/2-x,1/2+y,-z
1/2-x,1/2-y,1/2-z
1/2+x,1/2+y,1/2-z
1/2-x,1/2+y,z
1/2+x,1/2-y,z
loop_
_atom_site_type_symbol
_atom_site_label
_atom_site_fract_x
_atom_site_fract_y
_atom_site_fract_z
Si Si1 0.310828 0.553783 0.895787
Si Si2 0.947495 0.156231 0.107890
Si Si3 0.655351 0.086195 0.153593
Si Si4 0.000000 0.500000 0.872446
O O1 0.365644 0.404150 0.871972
O O2 0.328494 0.718046 0.839787
O O3 0.227617 0.497125 0.887268
O O4 0.326595 0.596756 0.000000
O O5 0.973743 0.317777 0.160242
O O6 0.952411 0.196378 0.000000
O O7 0.000000 0.000000 0.124612
O O8 0.581454 0.057217 0.096806
O O9 0.644322 0.000000 0.250000
#
# Coordination Sequence:
#
# PCOD9528151 Si02
#       4
#    16  16  16   8
#     4  11  24  45  72 106 143 187 245 304 365 436
#     4  10  21  40  68 104 141 180 233 297 358 419
#     4  12  26  45  69 100 145 189 242 298 364 439
#     4  12  24  42  70 102 145 194 237 290 361 436
#
# _framework density 25.656624000000001
#
# number of rings (size 3 to 8) (size 9 to 14) (size 15 to 20)
#    0.000    0.857    2.857    4.286    0.000    5.714 
#    0.000    0.000    0.000    0.000    0.000    0.000 
#    0.000    0.000    0.000    0.000    0.000    0.000 
#
# Total GULP energy -156437.875479 kJ/mol
# GULP energy per Si atom -5587.066981 kJ/mol
# Density = 2.559823 g / cm^3
# Si number density = 25.656624 Si / 1000 Ang^3
#
#
#
# Elastic Constant Matrix: (Units=GPa)
#
#
# Indices 1 2 3 4 5 6 
#
# 1 257.4580 80.9344 25.9726 0.0000 0.0000 0.0000
# 2 80.9344 205.4033 48.3796 0.0000 0.0000 0.0000
# 3 25.9726 48.3796 117.9085 0.0000 0.0000 0.0000
# 4 0.0000 0.0000 0.0000 -2.9161 0.0000 0.0000
# 5 0.0000 0.0000 0.0000 0.0000 12.3546 0.0000
# 6 0.0000 0.0000 0.0000 0.0000 0.0000 56.4324
#
#
#
# Elastic Compliance Matrix: (Units=1/GPa)
#
#
# Indices 1 2 3 4 5 6 
#
# 1 0.004442 -0.001682 -0.000288 0.000000 0.000000 0.000000
# 2 -0.001682 0.006027 -0.002102 0.000000 0.000000 0.000000
# 3 -0.000288 -0.002102 0.009407 0.000000 0.000000 0.000000
# 4 0.000000 0.000000 0.000000 -0.342921 0.000000 0.000000
# 5 0.000000 0.000000 0.000000 0.000000 0.080942 0.000000
# 6 0.000000 0.000000 0.000000 0.000000 0.000000 0.017720
#
#
# Mechanical properties :
#
#
# Convention : Reuss Voigt Hill
#
# Bulk Modulus (GPa) = 85.24960 99.03811 92.14386
# Shear Modulus (GPa) = -23.54852 41.53972 8.99560
#
# Velocity S-wave (km/s) = -3.03286 4.02812 1.87450
# Velocity P-wave (km/s) = 4.58638 7.76657 6.37787
#
# Compressibility (1/GPa) = 0.01173026
#
# Stress axis : x y z
#
# Youngs Moduli (GPa) = 225.11942 165.93306 106.30176
#
# Poissons Ratio (x) = 0.27917 0.03063
# Poissons Ratio (y) = 0.37875 0.22346
# Poissons Ratio (z) = 0.06487 0.34882
#
# Static dielectric constant tensor:
#      x y z
#    x 1.955020 0.000000 0.000000 
#    y 0.000000 1.933590 0.000000 
#    z 0.000000 0.000000 2.141890 
# 
# From -- ./inp_files/31082.got.cif
#   From: 2010.05.17/outbox.cif.g08.bks.cpg/sg72_16_cif.got.tgz:31082.got - 2010.06.03 17:03:01.
