data_PCOD9528396
_publ_section_title
;
Structure prediction by ZEFSAII (Michael W. Deem and Ramdas Pophale) SiO2 
 PCOD9528396
Probable space group: I B A M
;
_chemical_formula_sum "Si O2"
_cell_formula_units_Z 64
_cell_length_a 14.990705
_cell_length_b 24.121057
_cell_length_c 8.495265
_cell_angle_alpha 90.000000
_cell_angle_beta 90.000000
_cell_angle_gamma 90.000000
_cell_volume 3071.816887
_symmetry_space_group_name_H-M "I B A M"
_symmetry_group_IT_number 72
_symmetry_cell_setting 'orthorhombic'
loop_
_space_group_symop_operation_xyz
x,y,z
-x,-y,z
x,-y,1/2-z
-x,y,1/2-z
-x,-y,-z
x,y,-z
-x,y,1/2+z
x,-y,1/2+z
1/2+x,1/2+y,1/2+z
1/2-x,1/2-y,1/2+z
1/2+x,1/2-y,-z
1/2-x,1/2+y,-z
1/2-x,1/2-y,1/2-z
1/2+x,1/2+y,1/2-z
1/2-x,1/2+y,z
1/2+x,1/2-y,z
loop_
_atom_site_type_symbol
_atom_site_label
_atom_site_fract_x
_atom_site_fract_y
_atom_site_fract_z
Si Si1 0.575631 0.231233 0.000000
Si Si2 0.150054 0.557492 0.821157
Si Si3 0.268561 0.358679 0.180427
Si Si4 0.591859 0.694084 0.000000
Si Si5 0.500000 0.852954 0.750000
Si Si6 0.236077 0.291187 0.500000
O O1 0.506966 0.283091 0.000000
O O2 0.553342 0.189911 0.857991
O O3 0.672509 0.257222 0.000000
O O4 0.116337 0.500000 0.750000
O O5 0.234145 0.580421 0.722768
O O6 0.073666 0.604766 0.817714
O O7 0.177100 0.548718 0.000000
O O8 0.237278 0.324435 0.334621
O O9 0.233227 0.349076 0.000000
O O10 0.371764 0.341497 0.149102
O O11 0.652135 0.750155 0.000000
#
# Coordination Sequence:
#
# PCOD9528396 Si02
#       6
#     8  16  16   8   8   8
#     4  12  24  40  65  96 135 186 218 258 332 396
#     4  12  25  43  65  91 126 175 223 278 340 388
#     4  10  23  39  61  89 121 162 216 269 317 382
#     4  10  22  40  58  94 131 170 225 270 323 390
#     4  12  25  40  58  94 138 172 219 266 312 408
#     4  12  20  40  64  88 133 176 215 274 323 384
#
# _framework density 20.834575000000001
#
# number of rings (size 3 to 8) (size 9 to 14) (size 15 to 20)
#    0.750    0.000    2.500    6.375    3.500    1.000 
#    0.000    0.000    0.000    0.000    0.000    5.250 
#    0.000    0.000    0.000    0.000    0.000    0.000 
#
# Total GULP energy -178406.685734 kJ/mol
# GULP energy per Si atom -5575.208929 kJ/mol
# Density = 2.078715 g / cm^3
# Si number density = 20.834575 Si / 1000 Ang^3
#
#
#
# Elastic Constant Matrix: (Units=GPa)
#
#
# Indices 1 2 3 4 5 6 
#
# 1 75.9426 39.0501 20.6307 0.0000 0.0000 0.0000
# 2 39.0501 87.5690 42.6171 0.0000 0.0000 0.0000
# 3 20.6307 42.6171 151.0499 0.0002 -0.0001 -0.0001
# 4 0.0000 0.0000 0.0002 40.0481 0.0000 0.0000
# 5 0.0000 0.0000 -0.0001 0.0000 20.9217 0.0000
# 6 0.0000 0.0000 -0.0001 0.0000 0.0000 28.0383
#
#
#
# Elastic Compliance Matrix: (Units=1/GPa)
#
#
# Indices 1 2 3 4 5 6 
#
# 1 0.017092 -0.007518 -0.000213 0.000000 0.000000 0.000000
# 2 -0.007518 0.016544 -0.003641 0.000000 0.000000 0.000000
# 3 -0.000213 -0.003641 0.007677 0.000000 0.000000 0.000000
# 4 0.000000 0.000000 0.000000 0.024970 0.000000 0.000000
# 5 0.000000 0.000000 0.000000 0.000000 0.047797 0.000000
# 6 0.000000 0.000000 0.000000 0.000000 0.000000 0.035665
#
#
# Mechanical properties :
#
#
# Convention : Reuss Voigt Hill
#
# Bulk Modulus (GPa) = 53.85609 57.68414 55.77011
# Shear Modulus (GPa) = 27.98321 31.95253 29.96787
#
# Velocity S-wave (km/s) = 3.66883 3.92041 3.79670
# Velocity P-wave (km/s) = 6.62213 6.94548 6.78573
#
# Compressibility (1/GPa) = 0.01856800
#
# Stress axis : x y z
#
# Youngs Moduli (GPa) = 58.50850 60.44496 130.26438
#
# Poissons Ratio (x) = 0.45442 0.02778
# Poissons Ratio (y) = 0.43986 0.47428
# Poissons Ratio (z) = 0.01248 0.22007
#
# Static dielectric constant tensor:
#      x y z
#    x 1.783700 0.000000 0.000000 
#    y 0.000000 1.760440 0.000000 
#    z 0.000000 0.000000 -0.770170 
# 
# From -- ./inp_files/3631.got.cif
#   From: 2010.05.17/outbox.cif.g08.bks.cpg/sg72_2_cif.got.tgz:3631.got - 2010.06.03 17:03:01.
