data_PCOD9528096
_publ_section_title
;
Structure prediction by ZEFSAII (Michael W. Deem and Ramdas Pophale) SiO2 
 PCOD9528096
Probable space group: I B A M
;
_chemical_formula_sum "Si O2"
_cell_formula_units_Z 104
_cell_length_a 19.450218
_cell_length_b 25.175251
_cell_length_c 9.336714
_cell_angle_alpha 90.000000
_cell_angle_beta 90.000000
_cell_angle_gamma 90.000000
_cell_volume 4571.853846
_symmetry_space_group_name_H-M "I B A M"
_symmetry_group_IT_number 72
_symmetry_cell_setting 'orthorhombic'
loop_
_space_group_symop_operation_xyz
x,y,z
-x,-y,z
x,-y,1/2-z
-x,y,1/2-z
-x,-y,-z
x,y,-z
-x,y,1/2+z
x,-y,1/2+z
1/2+x,1/2+y,1/2+z
1/2-x,1/2-y,1/2+z
1/2+x,1/2-y,-z
1/2-x,1/2+y,-z
1/2-x,1/2-y,1/2-z
1/2+x,1/2+y,1/2-z
1/2-x,1/2+y,z
1/2+x,1/2-y,z
loop_
_atom_site_type_symbol
_atom_site_label
_atom_site_fract_x
_atom_site_fract_y
_atom_site_fract_z
Si Si1 0.708062 0.449022 0.170804
Si Si2 0.377814 0.005111 0.500000
Si Si3 0.431403 0.413049 0.827707
Si Si4 0.757616 0.668336 0.661422
Si Si5 0.918826 0.575640 0.256511
Si Si6 0.614073 0.810055 0.670102
Si Si7 0.596256 0.692145 0.334369
O O1 0.738762 0.500000 0.250000
O O2 0.635579 0.438132 0.251122
O O3 0.751257 0.395171 0.184226
O O4 0.699515 0.459146 0.000000
O O5 0.386620 0.958034 0.618488
O O6 0.382074 0.051719 0.620207
O O7 0.500000 0.434283 0.750000
O O8 0.427887 0.350940 0.780821
O O9 0.431316 0.419882 0.000000
O O10 0.784022 0.678468 0.500000
O O11 0.806582 0.692851 0.779810
O O12 0.679191 0.687625 0.666096
O O13 0.913227 0.639287 0.256914
O O14 0.000000 0.562634 0.250000
O O15 0.608674 0.819229 0.500000
O O16 0.579669 0.753071 0.698853
O O17 0.575063 0.678502 0.500000
#
# Coordination Sequence:
#
# PCOD9528096 Si02
#       7
#    16   8  16  16  16  16  16
#     4  10  21  40  62  88 122 158 197 246 293 345
#     4  10  21  40  62  76 108 152 192 226 285 354
#     4  11  22  38  62  91 120 158 198 238 293 356
#     4   9  20  39  59  82 114 157 198 236 289 344
#     4  11  21  38  59  83 109 149 189 236 289 344
#     4  11  23  37  57  90 118 147 194 244 294 347
#     4   9  20  40  61  81 118 158 194 243 290 344
#
# _framework density 22.747883000000002
#
# number of rings (size 3 to 8) (size 9 to 14) (size 15 to 20)
#    0.000    1.846    0.769    5.077    1.077    4.615 
#    2.769    1.538    0.000    0.000    0.000    0.000 
#    0.000    0.000    0.000    0.000    0.000    0.000 
#
# Total GULP energy -289625.785156 kJ/mol
# GULP energy per Si atom -5569.726638 kJ/mol
# Density = 2.269611 g / cm^3
# Si number density = 22.747883 Si / 1000 Ang^3
#
#
#
# Elastic Constant Matrix: (Units=GPa)
#
#
# Indices 1 2 3 4 5 6 
#
# 1 58.4154 -7.3697 5.2319 0.0000 0.0000 0.0000
# 2 -7.3697 130.6706 21.9127 0.0000 0.0000 0.0000
# 3 5.2319 21.9127 129.0981 0.0000 0.0000 0.0000
# 4 0.0000 0.0000 0.0000 40.0623 0.0000 0.0000
# 5 0.0000 0.0000 0.0000 0.0000 54.2790 0.0000
# 6 0.0000 0.0000 0.0000 0.0000 0.0000 -10.6608
#
#
#
# Elastic Compliance Matrix: (Units=1/GPa)
#
#
# Indices 1 2 3 4 5 6 
#
# 1 0.017341 0.001128 -0.000894 0.000000 0.000000 0.000000
# 2 0.001128 0.007950 -0.001395 0.000000 0.000000 0.000000
# 3 -0.000894 -0.001395 0.008019 0.000000 0.000000 0.000000
# 4 0.000000 0.000000 0.000000 0.024961 0.000000 0.000000
# 5 0.000000 0.000000 0.000000 0.000000 0.018423 0.000000
# 6 0.000000 0.000000 0.000000 0.000000 0.000000 -0.093802
#
#
# Mechanical properties :
#
#
# Convention : Reuss Voigt Hill
#
# Bulk Modulus (GPa) = 32.27076 39.74821 36.00948
# Shear Modulus (GPa) = -1122.48550 36.63004 -542.92773
#
# Velocity S-wave (km/s) = -22.23775 4.01716 -15.46577
# Velocity P-wave (km/s) = 25.39960 6.24724 17.40849
#
# Compressibility (1/GPa) = 0.03098781
#
# Stress axis : x y z
#
# Youngs Moduli (GPa) = 57.66621 125.77958 124.70220
#
# Poissons Ratio (x) = -0.14188 0.11151
# Poissons Ratio (y) = -0.06505 0.17398
# Poissons Ratio (z) = 0.05157 0.17549
#
# Static dielectric constant tensor:
#      x y z
#    x 1.931630 0.000000 0.000000 
#    y 0.000000 1.869380 0.000000 
#    z 0.000000 0.000000 1.764320 
# 
# From -- ./inp_files/6183.got.cif
#   From: 2010.05.17/outbox.cif.g08.bks.cpg/sg72_4_cif.got.tgz:6183.got - 2010.06.03 17:03:01.
