data_PCOD9528350
_publ_section_title
;
Structure prediction by ZEFSAII (Michael W. Deem and Ramdas Pophale) SiO2 
 PCOD9528350
Probable space group: I B A M
;
_chemical_formula_sum "Si O2"
_cell_formula_units_Z 64
_cell_length_a 34.604587
_cell_length_b 4.936008
_cell_length_c 18.181170
_cell_angle_alpha 90.000000
_cell_angle_beta 90.000000
_cell_angle_gamma 90.000000
_cell_volume 3105.498708
_symmetry_space_group_name_H-M "I B A M"
_symmetry_group_IT_number 72
_symmetry_cell_setting 'orthorhombic'
loop_
_space_group_symop_operation_xyz
x,y,z
-x,-y,z
x,-y,1/2-z
-x,y,1/2-z
-x,-y,-z
x,y,-z
-x,y,1/2+z
x,-y,1/2+z
1/2+x,1/2+y,1/2+z
1/2-x,1/2-y,1/2+z
1/2+x,1/2-y,-z
1/2-x,1/2+y,-z
1/2-x,1/2-y,1/2-z
1/2+x,1/2+y,1/2-z
1/2-x,1/2+y,z
1/2+x,1/2-y,z
loop_
_atom_site_type_symbol
_atom_site_label
_atom_site_fract_x
_atom_site_fract_y
_atom_site_fract_z
Si Si1 0.045632 0.459588 0.914291
Si Si2 0.923131 0.035749 0.833910
Si Si3 0.658009 0.262777 0.799116
Si Si4 0.223172 0.716709 0.585358
O O1 0.054441 0.155441 0.890046
O O2 0.000000 0.500000 0.903508
O O3 0.070365 0.661353 0.862767
O O4 0.054907 0.505510 0.000000
O O5 0.879577 0.917640 0.830922
O O6 0.937629 0.000000 0.750000
O O7 0.677327 0.500000 0.750000
O O8 0.687278 0.170426 0.861751
O O9 0.647390 0.000000 0.750000
O O10 0.211374 0.691045 0.500000
O O11 0.258117 0.509126 0.597853
#
# Coordination Sequence:
#
# PCOD9528350 Si02
#       4
#    16  16  16  16
#     4  11  24  41  62  90 122 157 201 250 301 363
#     4  11  23  41  62  89 123 158 201 250 302 363
#     4  11  23  40  61  88 121 157 202 252 303 364
#     4  10  22  39  59  87 121 157 202 252 302 362
#
# _framework density 20.608608
#
# number of rings (size 3 to 8) (size 9 to 14) (size 15 to 20)
#    0.000    1.250    0.000    6.750    0.000   10.000 
#    0.000    2.500    0.000    0.000    0.000    0.000 
#    0.000    0.000    0.000    0.000    0.000    0.000 
#
# Total GULP energy -178836.305599 kJ/mol
# GULP energy per Si atom -5588.634550 kJ/mol
# Density = 2.056170 g / cm^3
# Si number density = 20.608608 Si / 1000 Ang^3
#
#
#
# Elastic Constant Matrix: (Units=GPa)
#
#
# Indices 1 2 3 4 5 6 
#
# 1 56.1752 -10.9267 46.2266 0.0000 0.0000 0.0000
# 2 -10.9267 60.0334 1.0887 0.0000 0.0000 0.0000
# 3 46.2266 1.0887 85.5494 0.0000 0.0000 0.0000
# 4 0.0000 0.0000 0.0000 36.6062 0.0000 0.0000
# 5 0.0000 0.0000 0.0000 0.0000 31.6272 0.0000
# 6 0.0000 0.0000 0.0000 0.0000 0.0000 -75.2885
#
#
#
# Elastic Compliance Matrix: (Units=1/GPa)
#
#
# Indices 1 2 3 4 5 6 
#
# 1 0.034498 0.006619 -0.018725 0.000000 0.000000 0.000000
# 2 0.006619 0.017931 -0.003805 0.000000 0.000000 0.000000
# 3 -0.018725 -0.003805 0.021856 0.000000 0.000000 0.000000
# 4 0.000000 0.000000 0.000000 0.027318 0.000000 0.000000
# 5 0.000000 0.000000 0.000000 0.000000 0.031618 0.000000
# 6 0.000000 0.000000 0.000000 0.000000 0.000000 -0.013282
#
#
# Mechanical properties :
#
#
# Convention : Reuss Voigt Hill
#
# Bulk Modulus (GPa) = 23.55030 30.50391 27.02711
# Shear Modulus (GPa) = 30.13600 9.61360 19.87480
#
# Velocity S-wave (km/s) = 3.82815 2.16217 3.10884
# Velocity P-wave (km/s) = 5.56704 4.58988 5.10191
#
# Compressibility (1/GPa) = 0.04246230
#
# Stress axis : x y z
#
# Youngs Moduli (GPa) = 28.98744 55.76923 45.75472
#
# Poissons Ratio (x) = -0.36911 0.85676
# Poissons Ratio (y) = -0.19185 0.17407
# Poissons Ratio (z) = 0.54279 0.21218
#
# Static dielectric constant tensor:
#      x y z
#    x 1.746090 0.000000 0.000000 
#    y 0.000000 1.706020 0.000000 
#    z 0.000000 0.000000 1.731390 
# 
# From -- ./inp_files/34106.got.cif
#   From: 2010.05.17/outbox.cif.g08.bks.cpg/sg72_18_cif.got.tgz:34106.got - 2010.06.03 17:03:01.
