data_PCOD9528471
_publ_section_title
;
Structure prediction by ZEFSAII (Michael W. Deem and Ramdas Pophale) SiO2 
 PCOD9528471
Probable space group: I B A M
;
_chemical_formula_sum "Si O2"
_cell_formula_units_Z 116
_cell_length_a 8.329199
_cell_length_b 26.870286
_cell_length_c 25.045926
_cell_angle_alpha 90.000000
_cell_angle_beta 90.000000
_cell_angle_gamma 90.000000
_cell_volume 5605.477586
_symmetry_space_group_name_H-M "I B A M"
_symmetry_group_IT_number 72
_symmetry_cell_setting 'orthorhombic'
loop_
_space_group_symop_operation_xyz
x,y,z
-x,-y,z
x,-y,1/2-z
-x,y,1/2-z
-x,-y,-z
x,y,-z
-x,y,1/2+z
x,-y,1/2+z
1/2+x,1/2+y,1/2+z
1/2-x,1/2-y,1/2+z
1/2+x,1/2-y,-z
1/2-x,1/2+y,-z
1/2-x,1/2-y,1/2-z
1/2+x,1/2+y,1/2-z
1/2-x,1/2+y,z
1/2+x,1/2-y,z
loop_
_atom_site_type_symbol
_atom_site_label
_atom_site_fract_x
_atom_site_fract_y
_atom_site_fract_z
Si Si1 0.796171 0.720565 0.123386
Si Si2 0.327665 0.025356 0.155105
Si Si3 0.515321 0.690797 0.562758
Si Si4 0.904088 0.079388 0.588645
Si Si5 0.500000 0.500000 0.500000
Si Si6 0.087823 0.712241 0.805346
Si Si7 0.681037 0.118077 0.734129
Si Si8 0.900663 0.063093 0.195757
O O1 0.666521 0.691494 0.087093
O O2 0.875806 0.766658 0.090676
O O3 0.684830 0.742177 0.170412
O O4 0.950427 0.695693 0.151962
O O5 0.265366 0.052292 0.101512
O O6 0.328281 0.068184 0.199667
O O7 0.500000 0.000000 0.149419
O O8 0.205561 0.983065 0.175915
O O9 0.505150 0.701571 0.500000
O O10 0.594179 0.636400 0.570809
O O11 0.991370 0.043779 0.546607
O O12 0.990056 0.077579 0.646295
O O13 0.218308 0.667988 0.797736
O O14 0.000000 0.726275 0.750000
O O15 0.500000 0.128170 0.750000
O O16 0.787248 0.107907 0.785509
O O17 0.000000 0.053207 0.250000
#
# Coordination Sequence:
#
# PCOD9528471 Si02
#       8
#    16  16  16  16   4  16  16  16
#     4  10  23  43  69  97 133 173 227 283 351 415
#     4  12  24  39  61  93 134 174 218 277 331 390
#     4  11  24  45  73  99 131 175 234 296 351 407
#     4  12  26  44  70  95 135 182 232 285 341 419
#     4  12  24  48  68  96 136 180 234 286 336 394
#     4  10  22  41  60  96 137 173 214 267 343 427
#     4  11  23  35  58  94 136 172 212 265 336 398
#     4  12  25  39  64  98 133 174 228 271 331 410
#
# _framework density 20.694044000000002
#
# number of rings (size 3 to 8) (size 9 to 14) (size 15 to 20)
#    0.000    0.828    4.828    2.069    5.793    0.000 
#    0.000    0.345    0.000    0.000    0.000    0.000 
#    0.000    0.000    0.000    0.000    0.000    0.000 
#
# Total GULP energy -323392.836354 kJ/mol
# GULP energy per Si atom -5575.738558 kJ/mol
# Density = 2.064694 g / cm^3
# Si number density = 20.694044 Si / 1000 Ang^3
#
#
#
# Elastic Constant Matrix: (Units=GPa)
#
#
# Indices 1 2 3 4 5 6 
#
# 1 65.2265 9.2052 22.6794 0.0000 0.0000 0.0000
# 2 9.2052 77.9100 30.1642 0.0000 0.0000 0.0000
# 3 22.6794 30.1642 115.4674 0.0000 0.0000 0.0000
# 4 0.0000 0.0000 0.0000 28.0089 0.0000 0.0000
# 5 0.0000 0.0000 0.0000 0.0000 15.8347 0.0000
# 6 0.0000 0.0000 0.0000 0.0000 0.0000 22.5992
#
#
#
# Elastic Compliance Matrix: (Units=1/GPa)
#
#
# Indices 1 2 3 4 5 6 
#
# 1 0.016497 -0.000773 -0.003038 0.000000 0.000000 0.000000
# 2 -0.000773 0.014316 -0.003588 0.000000 0.000000 0.000000
# 3 -0.003038 -0.003588 0.010195 0.000000 0.000000 0.000000
# 4 0.000000 0.000000 0.000000 0.035703 0.000000 0.000000
# 5 0.000000 0.000000 0.000000 0.000000 0.063153 0.000000
# 6 0.000000 0.000000 0.000000 0.000000 0.000000 0.044249
#
#
# Mechanical properties :
#
#
# Convention : Reuss Voigt Hill
#
# Bulk Modulus (GPa) = 38.15512 42.52241 40.33877
# Shear Modulus (GPa) = 24.07941 26.39223 25.23582
#
# Velocity S-wave (km/s) = 3.41485 3.57508 3.49588
# Velocity P-wave (km/s) = 5.83318 6.13469 5.98583
#
# Compressibility (1/GPa) = 0.02620880
#
# Stress axis : x y z
#
# Youngs Moduli (GPa) = 60.61830 69.85295 98.09171
#
# Poissons Ratio (x) = 0.05398 0.29803
# Poissons Ratio (y) = 0.04684 0.35195
# Poissons Ratio (z) = 0.18418 0.25063
#
# Static dielectric constant tensor:
#      x y z
#    x 1.802150 0.000000 0.000000 
#    y 0.000000 1.844710 0.000000 
#    z 0.000000 0.000000 1.754530 
# 
# From -- ./inp_files/42704.got.cif
#   From: 2010.05.17/outbox.cif.g08.bks.cpg/sg72_22_cif.got.tgz:42704.got - 2010.06.03 17:03:01.
