data_PCOD9528866
_publ_section_title
;
Structure prediction by ZEFSAII (Michael W. Deem and Ramdas Pophale) SiO2 
 PCOD9528866
Probable space group: I B A M
;
_chemical_formula_sum "Si O2"
_cell_formula_units_Z 60
_cell_length_a 17.912302
_cell_length_b 5.028246
_cell_length_c 29.431594
_cell_angle_alpha 90.000000
_cell_angle_beta 90.000000
_cell_angle_gamma 90.000000
_cell_volume 2650.828941
_symmetry_space_group_name_H-M "I B A M"
_symmetry_group_IT_number 72
_symmetry_cell_setting 'orthorhombic'
loop_
_space_group_symop_operation_xyz
x,y,z
-x,-y,z
x,-y,1/2-z
-x,y,1/2-z
-x,-y,-z
x,y,-z
-x,y,1/2+z
x,-y,1/2+z
1/2+x,1/2+y,1/2+z
1/2-x,1/2-y,1/2+z
1/2+x,1/2-y,-z
1/2-x,1/2+y,-z
1/2-x,1/2-y,1/2-z
1/2+x,1/2+y,1/2-z
1/2-x,1/2+y,z
1/2+x,1/2-y,z
loop_
_atom_site_type_symbol
_atom_site_label
_atom_site_fract_x
_atom_site_fract_y
_atom_site_fract_z
Si Si1 0.056317 0.251388 0.500000
Si Si2 0.500000 0.000000 0.250000
Si Si3 0.578322 0.623342 0.178670
Si Si4 0.589246 0.964016 0.091602
Si Si5 0.694760 0.311243 0.138515
O O1 0.103751 0.297508 0.545820
O O2 0.000000 0.500000 0.500000
O O3 0.000000 0.000000 0.500000
O O4 0.553353 0.806757 0.220511
O O5 0.500000 0.500000 0.163470
O O6 0.605741 0.805571 0.137590
O O7 0.639368 0.387743 0.180797
O O8 0.500000 0.000000 0.092914
O O9 0.636247 0.235409 0.097859
O O10 0.750629 0.559356 0.137695
#
# Coordination Sequence:
#
# PCOD9528866 Si02
#       5
#     8   4  16  16  16
#     4  10  24  38  68 114 146 182 252 324 371 437
#     4  12  26  44  76 116 140 198 274 346 384 484
#     4  12  23  45  76 107 147 197 263 325 391 470
#     4  11  22  44  75 105 143 196 255 314 379 459
#     4  12  26  44  72 107 153 201 245 308 393 463
#
# _framework density 22.634428
#
# number of rings (size 3 to 8) (size 9 to 14) (size 15 to 20)
#    0.000    0.533    6.667    1.200    3.733    0.000 
#    0.000    2.667    0.000    0.000    0.000    0.000 
#    0.000    0.000    0.000    0.000    0.000    0.000 
#
# Total GULP energy -167151.697211 kJ/mol
# GULP energy per Si atom -5571.723240 kJ/mol
# Density = 2.258291 g / cm^3
# Si number density = 22.634428 Si / 1000 Ang^3
#
#
#
# Elastic Constant Matrix: (Units=GPa)
#
#
# Indices 1 2 3 4 5 6 
#
# 1 169.0964 69.7796 39.0308 0.0000 0.0000 0.0000
# 2 69.7796 181.6722 67.8412 0.0000 0.0000 0.0000
# 3 39.0308 67.8412 148.8686 0.0000 0.0000 0.0000
# 4 0.0000 0.0000 0.0000 39.8191 0.0000 0.0000
# 5 0.0000 0.0000 0.0000 0.0000 1.1304 0.0000
# 6 0.0000 0.0000 0.0000 0.0000 0.0000 69.9482
#
#
#
# Elastic Compliance Matrix: (Units=1/GPa)
#
#
# Indices 1 2 3 4 5 6 
#
# 1 0.007096 -0.002447 -0.000745 0.000000 0.000000 0.000000
# 2 -0.002447 0.007477 -0.002766 0.000000 0.000000 0.000000
# 3 -0.000745 -0.002766 0.008173 0.000000 0.000000 0.000000
# 4 0.000000 0.000000 0.000000 0.025114 0.000000 0.000000
# 5 0.000000 0.000000 0.000000 0.000000 0.884638 0.000000
# 6 0.000000 0.000000 0.000000 0.000000 0.000000 0.014296
#
#
# Mechanical properties :
#
#
# Convention : Reuss Voigt Hill
#
# Bulk Modulus (GPa) = 92.33902 94.77114 93.55508
# Shear Modulus (GPa) = 5.19578 43.71192 24.45385
#
# Velocity S-wave (km/s) = 1.51674 4.39933 3.29048
# Velocity P-wave (km/s) = 6.62961 8.23205 7.47390
#
# Compressibility (1/GPa) = 0.01082966
#
# Stress axis : x y z
#
# Youngs Moduli (GPa) = 140.93188 133.73996 122.35211
#
# Poissons Ratio (x) = 0.32728 0.09117
# Poissons Ratio (y) = 0.34488 0.33841
# Poissons Ratio (z) = 0.10502 0.36990
#
# Static dielectric constant tensor:
#      x y z
#    x 1.844020 0.000000 0.000000 
#    y 0.000000 2.073970 0.000000 
#    z 0.000000 0.000000 1.945130 
# 
# From -- ./inp_files/51946.got.cif
#   From: 2010.05.17/outbox.cif.g08.bks.cpg/sg72_26_cif.got.tgz:51946.got - 2010.06.03 17:03:01.
