data_PCOD9528509
_publ_section_title
;
Structure prediction by ZEFSAII (Michael W. Deem and Ramdas Pophale) SiO2 
 PCOD9528509
Probable space group: I B A M
;
_chemical_formula_sum "Si O2"
_cell_formula_units_Z 64
_cell_length_a 11.745899
_cell_length_b 11.423915
_cell_length_c 20.513551
_cell_angle_alpha 90.000000
_cell_angle_beta 90.000000
_cell_angle_gamma 90.000000
_cell_volume 2752.593441
_symmetry_space_group_name_H-M "I B A M"
_symmetry_group_IT_number 72
_symmetry_cell_setting 'orthorhombic'
loop_
_space_group_symop_operation_xyz
x,y,z
-x,-y,z
x,-y,1/2-z
-x,y,1/2-z
-x,-y,-z
x,y,-z
-x,y,1/2+z
x,-y,1/2+z
1/2+x,1/2+y,1/2+z
1/2-x,1/2-y,1/2+z
1/2+x,1/2-y,-z
1/2-x,1/2+y,-z
1/2-x,1/2-y,1/2-z
1/2+x,1/2+y,1/2-z
1/2-x,1/2+y,z
1/2+x,1/2-y,z
loop_
_atom_site_type_symbol
_atom_site_label
_atom_site_fract_x
_atom_site_fract_y
_atom_site_fract_z
Si Si1 0.912475 0.774191 0.429473
Si Si2 0.404201 0.094262 0.398390
Si Si3 0.776788 0.224732 0.325021
Si Si4 0.334075 0.472314 0.573489
O O1 0.853808 0.755005 0.500000
O O2 0.837026 0.732776 0.368987
O O3 0.027462 0.699885 0.432719
O O4 0.915744 0.913826 0.420952
O O5 0.354471 0.162731 0.338052
O O6 0.500000 0.000000 0.385381
O O7 0.294122 0.030104 0.428253
O O8 0.750000 0.250000 0.250000
O O9 0.834460 0.111823 0.362186
O O10 0.352470 0.421577 0.500000
#
# Coordination Sequence:
#
# PCOD9528509 Si02
#       4
#    16  16  16  16
#     4  10  22  41  66 102 137 178 233 289 345 409
#     4  11  23  42  71 101 134 181 236 284 347 416
#     4  11  25  43  64 100 141 183 230 288 349 414
#     4  10  22  43  70 101 142 184 231 296 354 413
#
# _framework density 23.250800000000002
#
# number of rings (size 3 to 8) (size 9 to 14) (size 15 to 20)
#    0.000    1.500    2.500    1.500    0.000   10.000 
#    4.500    2.500    0.000    6.000    0.000    0.000 
#    0.000    0.000    0.000    0.000    0.000    0.000 
#
# Total GULP energy -178170.397830 kJ/mol
# GULP energy per Si atom -5567.824932 kJ/mol
# Density = 2.319788 g / cm^3
# Si number density = 23.250800 Si / 1000 Ang^3
#
#
#
# Elastic Constant Matrix: (Units=GPa)
#
#
# Indices 1 2 3 4 5 6 
#
# 1 73.4240 50.8492 34.2127 0.0000 0.0000 0.0000
# 2 50.8492 153.5126 75.0778 0.0000 0.0000 0.0000
# 3 34.2127 75.0778 226.6780 0.0000 0.0000 0.0000
# 4 0.0000 0.0000 0.0000 10.4664 0.0000 0.0000
# 5 0.0000 0.0000 0.0000 0.0000 12.2895 0.0000
# 6 0.0000 0.0000 0.0000 0.0000 0.0000 30.5241
#
#
#
# Elastic Compliance Matrix: (Units=1/GPa)
#
#
# Indices 1 2 3 4 5 6 
#
# 1 0.017819 -0.005474 -0.000876 0.000000 0.000000 0.000000
# 2 -0.005474 0.009455 -0.002305 0.000000 0.000000 0.000000
# 3 -0.000876 -0.002305 0.005307 0.000000 0.000000 0.000000
# 4 0.000000 0.000000 0.000000 0.095544 0.000000 0.000000
# 5 0.000000 0.000000 0.000000 0.000000 0.081370 0.000000
# 6 0.000000 0.000000 0.000000 0.000000 0.000000 0.032761
#
#
# Mechanical properties :
#
#
# Convention : Reuss Voigt Hill
#
# Bulk Modulus (GPa) = 65.48840 85.98822 75.73831
# Shear Modulus (GPa) = 18.89240 30.22098 24.55669
#
# Velocity S-wave (km/s) = 2.85362 3.60916 3.25340
# Velocity P-wave (km/s) = 6.25178 7.37775 6.83798
#
# Compressibility (1/GPa) = 0.01526988
#
# Stress axis : x y z
#
# Youngs Moduli (GPa) = 56.12120 105.76835 188.41684
#
# Poissons Ratio (x) = 0.57893 0.16515
# Poissons Ratio (y) = 0.30718 0.43436
# Poissons Ratio (z) = 0.04919 0.24383
#
# Static dielectric constant tensor:
#      x y z
#    x 1.976320 0.000000 0.000000 
#    y 0.000000 1.959940 0.000000 
#    z 0.000000 0.000000 1.809950 
# 
# From -- ./inp_files/36485.got.cif
#   From: 2010.05.17/outbox.cif.g08.bks.cpg/sg72_19_cif.got.tgz:36485.got - 2010.06.03 17:03:01.
