data_PCOD9528162
_publ_section_title
;
Structure prediction by ZEFSAII (Michael W. Deem and Ramdas Pophale) SiO2 
 PCOD9528162
Probable space group: I B A M
;
_chemical_formula_sum "Si O2"
_cell_formula_units_Z 88
_cell_length_a 11.675446
_cell_length_b 14.016568
_cell_length_c 25.419669
_cell_angle_alpha 90.000000
_cell_angle_beta 90.000000
_cell_angle_gamma 90.000000
_cell_volume 4159.920768
_symmetry_space_group_name_H-M "I B A M"
_symmetry_group_IT_number 72
_symmetry_cell_setting 'orthorhombic'
loop_
_space_group_symop_operation_xyz
x,y,z
-x,-y,z
x,-y,1/2-z
-x,y,1/2-z
-x,-y,-z
x,y,-z
-x,y,1/2+z
x,-y,1/2+z
1/2+x,1/2+y,1/2+z
1/2-x,1/2-y,1/2+z
1/2+x,1/2-y,-z
1/2-x,1/2+y,-z
1/2-x,1/2-y,1/2-z
1/2+x,1/2+y,1/2-z
1/2-x,1/2+y,z
1/2+x,1/2-y,z
loop_
_atom_site_type_symbol
_atom_site_label
_atom_site_fract_x
_atom_site_fract_y
_atom_site_fract_z
Si Si1 0.644761 0.162907 0.500000
Si Si2 0.808389 0.396814 0.884297
Si Si3 0.652942 0.944619 0.694475
Si Si4 0.448342 0.400693 0.399754
Si Si5 0.500000 0.198815 0.750000
Si Si6 0.640258 0.696282 0.170386
Si Si7 0.599605 0.729986 0.500000
O O1 0.663220 0.104127 0.446188
O O2 0.510834 0.197322 0.500000
O O3 0.757147 0.238696 0.500000
O O4 0.869485 0.478052 0.850509
O O5 0.674875 0.418706 0.874906
O O6 0.828136 0.289730 0.863394
O O7 0.551462 0.870277 0.705898
O O8 0.758544 0.878311 0.677682
O O9 0.673373 0.000000 0.750000
O O10 0.500000 0.500000 0.419259
O O11 0.534580 0.354315 0.358468
O O12 0.425479 0.330214 0.447814
O O13 0.400930 0.263657 0.773672
#
# Coordination Sequence:
#
# PCOD9528162 Si02
#       7
#     8  16  16  16   8  16   8
#     4  10  22  44  72 111 144 189 243 305 359 443
#     4  11  24  44  69 103 142 182 238 294 361 430
#     4  12  26  45  67 102 140 185 236 292 358 437
#     4  11  22  41  66 102 136 185 236 293 352 424
#     4  12  27  44  69  98 136 194 227 302 361 438
#     4  12  25  42  70  98 141 178 241 285 366 418
#     4  10  21  40  72 104 144 189 245 292 363 432
#
# _framework density 21.154247999999999
#
# number of rings (size 3 to 8) (size 9 to 14) (size 15 to 20)
#    0.000    0.727    5.455    2.182    2.545    0.000 
#    0.000    0.909    4.000    3.273    0.000    0.000 
#    0.000    0.000    0.000    0.000    0.000    0.000 
#
# Total GULP energy -245735.453602 kJ/mol
# GULP energy per Si atom -5584.896673 kJ/mol
# Density = 2.110610 g / cm^3
# Si number density = 21.154248 Si / 1000 Ang^3
#
#
#
# Elastic Constant Matrix: (Units=GPa)
#
#
# Indices 1 2 3 4 5 6 
#
# 1 93.6840 21.3698 32.0518 0.0000 0.0000 0.0000
# 2 21.3698 85.8552 44.7776 0.0000 0.0000 0.0000
# 3 32.0518 44.7776 92.1870 0.0000 0.0000 0.0000
# 4 0.0000 0.0000 0.0000 26.7938 0.0000 0.0000
# 5 0.0000 0.0000 0.0000 0.0000 37.5401 0.0000
# 6 0.0000 0.0000 0.0000 0.0000 0.0000 22.0050
#
#
#
# Elastic Compliance Matrix: (Units=1/GPa)
#
#
# Indices 1 2 3 4 5 6 
#
# 1 0.012193 -0.001103 -0.003703 0.000000 0.000000 0.000000
# 2 -0.001103 0.015699 -0.007242 0.000000 0.000000 0.000000
# 3 -0.003703 -0.007242 0.015653 0.000000 0.000000 0.000000
# 4 0.000000 0.000000 0.000000 0.037322 0.000000 0.000000
# 5 0.000000 0.000000 0.000000 0.000000 0.026638 0.000000
# 6 0.000000 0.000000 0.000000 0.000000 0.000000 0.045444
#
#
# Mechanical properties :
#
#
# Convention : Reuss Voigt Hill
#
# Bulk Modulus (GPa) = 51.42036 52.01383 51.71710
# Shear Modulus (GPa) = 27.24370 28.83624 28.03997
#
# Velocity S-wave (km/s) = 3.59257 3.69608 3.64469
# Velocity P-wave (km/s) = 6.44739 6.54645 6.49711
#
# Compressibility (1/GPa) = 0.01944755
#
# Stress axis : x y z
#
# Youngs Moduli (GPa) = 82.01519 63.69778 63.88707
#
# Poissons Ratio (x) = 0.07029 0.23659
# Poissons Ratio (y) = 0.09050 0.46266
# Poissons Ratio (z) = 0.30372 0.46129
#
# Static dielectric constant tensor:
#      x y z
#    x 1.794820 0.000000 0.000000 
#    y 0.000000 1.751030 0.000000 
#    z 0.000000 0.000000 1.745710 
# 
# From -- ./inp_files/43257.got.cif
#   From: 2010.05.17/outbox.cif.g08.bks.cpg/sg72_22_cif.got.tgz:43257.got - 2010.06.03 17:03:01.
