data_PCOD9528332
_publ_section_title
;
Structure prediction by ZEFSAII (Michael W. Deem and Ramdas Pophale) SiO2 
 PCOD9528332
Probable space group: I B A M
;
_chemical_formula_sum "Si O2"
_cell_formula_units_Z 92
_cell_length_a 8.260835
_cell_length_b 20.998153
_cell_length_c 27.415869
_cell_angle_alpha 90.000000
_cell_angle_beta 90.000000
_cell_angle_gamma 90.000000
_cell_volume 4755.619069
_symmetry_space_group_name_H-M "I B A M"
_symmetry_group_IT_number 72
_symmetry_cell_setting 'orthorhombic'
loop_
_space_group_symop_operation_xyz
x,y,z
-x,-y,z
x,-y,1/2-z
-x,y,1/2-z
-x,-y,-z
x,y,-z
-x,y,1/2+z
x,-y,1/2+z
1/2+x,1/2+y,1/2+z
1/2-x,1/2-y,1/2+z
1/2+x,1/2-y,-z
1/2-x,1/2+y,-z
1/2-x,1/2-y,1/2-z
1/2+x,1/2+y,1/2-z
1/2-x,1/2+y,z
1/2+x,1/2-y,z
loop_
_atom_site_type_symbol
_atom_site_label
_atom_site_fract_x
_atom_site_fract_y
_atom_site_fract_z
Si Si1 0.894881 0.689026 0.858186
Si Si2 0.219703 0.099236 0.198669
Si Si3 0.484802 0.677259 0.632603
Si Si4 0.425988 0.430462 0.556902
Si Si5 0.500000 0.500000 0.750000
Si Si6 0.083356 0.432198 0.395723
Si Si7 0.000000 0.336866 0.750000
O O1 0.702179 0.683690 0.852681
O O2 0.947681 0.754378 0.883952
O O3 0.963982 0.628520 0.888662
O O4 0.973369 0.694385 0.803417
O O5 0.330193 0.069441 0.156765
O O6 0.336647 0.123497 0.241125
O O7 0.106226 0.153705 0.175384
O O8 0.106506 0.044591 0.217083
O O9 0.497993 0.623576 0.591098
O O10 0.500000 0.500000 0.570167
O O11 0.460319 0.420128 0.500000
O O12 0.232702 0.426396 0.566765
O O13 0.000000 0.500000 0.404001
#
# Coordination Sequence:
#
# PCOD9528332 Si02
#       7
#    16  16  16  16   4  16   8
#     4  11  23  40  64  87 127 169 206 253 306 365
#     4  10  24  34  56  84 122 163 211 260 300 356
#     4  11  23  42  62  88 123 163 207 254 318 369
#     4  10  22  42  68  93 120 155 202 256 313 381
#     4  12  24  32  52  88 116 170 210 256 304 348
#     4  10  22  38  62  91 122 161 198 255 312 365
#     4  10  22  40  56  88 120 170 216 254 292 363
#
# _framework density 19.345535999999999
#
# number of rings (size 3 to 8) (size 9 to 14) (size 15 to 20)
#    0.000    1.565    0.000    5.217   12.174    3.826 
#    0.000    4.348    0.000    0.000    0.000    0.000 
#    0.000    0.000    0.000    0.000    0.000    0.000 
#
# Total GULP energy -256649.516590 kJ/mol
# GULP energy per Si atom -5579.337317 kJ/mol
# Density = 1.930150 g / cm^3
# Si number density = 19.345536 Si / 1000 Ang^3
#
#
#
# Elastic Constant Matrix: (Units=GPa)
#
#
# Indices 1 2 3 4 5 6 
#
# 1 115.9433 51.0480 12.2394 0.0000 0.0000 0.0000
# 2 51.0480 144.8244 35.7211 0.0000 0.0000 0.0000
# 3 12.2394 35.7211 40.4438 0.0000 0.0000 0.0000
# 4 0.0000 0.0000 0.0000 15.5705 0.0000 0.0000
# 5 0.0000 0.0000 0.0000 0.0000 9.6994 0.0000
# 6 0.0000 0.0000 0.0000 0.0000 0.0000 43.4169
#
#
#
# Elastic Compliance Matrix: (Units=1/GPa)
#
#
# Indices 1 2 3 4 5 6 
#
# 1 0.010210 -0.003627 0.000113 0.000000 0.000000 0.000000
# 2 -0.003627 0.010116 -0.007838 0.000000 0.000000 0.000000
# 3 0.000113 -0.007838 0.031614 0.000000 0.000000 0.000000
# 4 0.000000 0.000000 0.000000 0.064224 0.000000 0.000000
# 5 0.000000 0.000000 0.000000 0.000000 0.103099 0.000000
# 6 0.000000 0.000000 0.000000 0.000000 0.000000 0.023032
#
#
# Mechanical properties :
#
#
# Convention : Reuss Voigt Hill
#
# Bulk Modulus (GPa) = 34.20184 55.46983 44.83584
# Shear Modulus (GPa) = 18.19885 27.21758 22.70822
#
# Velocity S-wave (km/s) = 3.07045 3.75496 3.42983
# Velocity P-wave (km/s) = 5.50346 6.89457 6.23791
#
# Compressibility (1/GPa) = 0.02923819
#
# Stress axis : x y z
#
# Youngs Moduli (GPa) = 97.94588 98.84931 31.63195
#
# Poissons Ratio (x) = 0.35850 -0.00359
# Poissons Ratio (y) = 0.35522 0.24792
# Poissons Ratio (z) = -0.01112 0.77473
#
# Static dielectric constant tensor:
#      x y z
#    x 1.651550 0.000000 0.000000 
#    y 0.000000 1.668340 0.000000 
#    z 0.000000 0.000000 1.661030 
# 
# From -- ./inp_files/47363.got.cif
#   From: 2010.05.17/outbox.cif.g08.bks.cpg/sg72_24_cif.got.tgz:47363.got - 2010.06.03 17:03:01.
