data_PCOD9528170
_publ_section_title
;
Structure prediction by ZEFSAII (Michael W. Deem and Ramdas Pophale) SiO2 
 PCOD9528170
Probable space group: I B A M
;
_chemical_formula_sum "Si O2"
_cell_formula_units_Z 80
_cell_length_a 15.416583
_cell_length_b 10.748699
_cell_length_c 24.508952
_cell_angle_alpha 90.000000
_cell_angle_beta 90.000000
_cell_angle_gamma 90.000000
_cell_volume 4061.334572
_symmetry_space_group_name_H-M "I B A M"
_symmetry_group_IT_number 72
_symmetry_cell_setting 'orthorhombic'
loop_
_space_group_symop_operation_xyz
x,y,z
-x,-y,z
x,-y,1/2-z
-x,y,1/2-z
-x,-y,-z
x,y,-z
-x,y,1/2+z
x,-y,1/2+z
1/2+x,1/2+y,1/2+z
1/2-x,1/2-y,1/2+z
1/2+x,1/2-y,-z
1/2-x,1/2+y,-z
1/2-x,1/2-y,1/2-z
1/2+x,1/2+y,1/2-z
1/2-x,1/2+y,z
1/2+x,1/2-y,z
loop_
_atom_site_type_symbol
_atom_site_label
_atom_site_fract_x
_atom_site_fract_y
_atom_site_fract_z
Si Si1 0.246993 0.119705 0.283895
Si Si2 0.862305 0.922277 0.391123
Si Si3 0.552206 0.113836 0.193865
Si Si4 0.546029 0.321344 0.105415
Si Si5 0.154399 0.742704 0.500000
Si Si6 0.240536 0.002712 0.500000
O O1 0.250000 0.250000 0.250000
O O2 0.192846 0.130462 0.340342
O O3 0.346906 0.086199 0.297073
O O4 0.212199 0.000000 0.250000
O O5 0.945058 0.840751 0.408027
O O6 0.906929 0.052708 0.375462
O O7 0.806849 0.952548 0.444676
O O8 0.500000 0.137035 0.250000
O O9 0.549169 0.229923 0.155433
O O10 0.500000 0.000000 0.167499
O O11 0.598341 0.272928 0.053400
O O12 0.231931 0.850223 0.500000
O O13 0.177631 0.596359 0.500000
#
# Coordination Sequence:
#
# PCOD9528170 Si02
#       6
#    16  16  16  16   8   8
#     4  12  24  40  63  95 128 170 219 268 326 391
#     4  10  22  39  67  92 124 171 219 265 319 386
#     4  11  22  41  60  89 131 169 208 264 334 383
#     4  10  21  41  63  92 126 170 214 266 322 387
#     4  10  21  41  66  95 132 165 214 267 331 383
#     4  10  21  41  63  96 125 164 211 265 314 388
#
# _framework density 19.697958
#
# number of rings (size 3 to 8) (size 9 to 14) (size 15 to 20)
#    0.000    1.400    2.000    4.200    0.000    4.000 
#    3.600    2.500    0.000    0.000    0.000    0.000 
#    0.000    0.000    0.000    0.000    0.000    0.000 
#
# Total GULP energy -223032.425795 kJ/mol
# GULP energy per Si atom -5575.810645 kJ/mol
# Density = 1.965312 g / cm^3
# Si number density = 19.697958 Si / 1000 Ang^3
#
#
#
# Elastic Constant Matrix: (Units=GPa)
#
#
# Indices 1 2 3 4 5 6 
#
# 1 85.1928 8.7582 8.7488 0.0000 0.0000 0.0000
# 2 8.7582 55.2455 20.6825 0.0000 0.0000 0.0000
# 3 8.7488 20.6825 64.9437 0.0000 0.0000 0.0000
# 4 0.0000 0.0000 0.0000 35.7463 0.0000 0.0000
# 5 0.0000 0.0000 0.0000 0.0000 25.1236 0.0000
# 6 0.0000 0.0000 0.0000 0.0000 0.0000 19.8801
#
#
#
# Elastic Compliance Matrix: (Units=1/GPa)
#
#
# Indices 1 2 3 4 5 6 
#
# 1 0.012008 -0.001474 -0.001148 0.000000 0.000000 0.000000
# 2 -0.001474 0.020732 -0.006404 0.000000 0.000000 0.000000
# 3 -0.001148 -0.006404 0.017592 0.000000 0.000000 0.000000
# 4 0.000000 0.000000 0.000000 0.027975 0.000000 0.000000
# 5 0.000000 0.000000 0.000000 0.000000 0.039803 0.000000
# 6 0.000000 0.000000 0.000000 0.000000 0.000000 0.050301
#
#
# Mechanical properties :
#
#
# Convention : Reuss Voigt Hill
#
# Bulk Modulus (GPa) = 30.97906 31.30677 31.14292
# Shear Modulus (GPa) = 25.35199 27.29618 26.32408
#
# Velocity S-wave (km/s) = 3.59142 3.72659 3.65963
# Velocity P-wave (km/s) = 5.74099 5.86894 5.80532
#
# Compressibility (1/GPa) = 0.03227986
#
# Stress axis : x y z
#
# Youngs Moduli (GPa) = 83.28122 48.23430 56.84372
#
# Poissons Ratio (x) = 0.07108 0.06527
# Poissons Ratio (y) = 0.12273 0.36403
# Poissons Ratio (z) = 0.09563 0.30889
#
# Static dielectric constant tensor:
#      x y z
#    x 1.744660 0.000000 0.000000 
#    y 0.000000 1.729830 0.000000 
#    z 0.000000 0.000000 1.675850 
# 
# From -- ./inp_files/44101.got.cif
#   From: 2010.05.17/outbox.cif.g08.bks.cpg/sg72_23_cif.got.tgz:44101.got - 2010.06.03 17:03:01.
