data_PCOD9528884
_publ_section_title
;
Structure prediction by ZEFSAII (Michael W. Deem and Ramdas Pophale) SiO2 
 PCOD9528884
Probable space group: I B A M
;
_chemical_formula_sum "Si O2"
_cell_formula_units_Z 56
_cell_length_a 30.027158
_cell_length_b 8.974726
_cell_length_c 10.605539
_cell_angle_alpha 90.000000
_cell_angle_beta 90.000000
_cell_angle_gamma 90.000000
_cell_volume 2858.039146
_symmetry_space_group_name_H-M "I B A M"
_symmetry_group_IT_number 72
_symmetry_cell_setting 'orthorhombic'
loop_
_space_group_symop_operation_xyz
x,y,z
-x,-y,z
x,-y,1/2-z
-x,y,1/2-z
-x,-y,-z
x,y,-z
-x,y,1/2+z
x,-y,1/2+z
1/2+x,1/2+y,1/2+z
1/2-x,1/2-y,1/2+z
1/2+x,1/2-y,-z
1/2-x,1/2+y,-z
1/2-x,1/2-y,1/2-z
1/2+x,1/2+y,1/2-z
1/2-x,1/2+y,z
1/2+x,1/2-y,z
loop_
_atom_site_type_symbol
_atom_site_label
_atom_site_fract_x
_atom_site_fract_y
_atom_site_fract_z
Si Si1 0.051599 0.678029 0.500000
Si Si2 0.257351 0.000000 0.250000
Si Si3 0.188429 0.232052 0.856715
Si Si4 0.555233 0.827116 0.000000
Si Si5 0.093917 0.822951 0.748932
O O1 0.064665 0.503775 0.500000
O O2 0.070326 0.753539 0.626244
O O3 0.998146 0.689781 0.500000
O O4 0.225277 0.894671 0.332184
O O5 0.288062 0.889421 0.169637
O O6 0.146602 0.208032 0.765577
O O7 0.172326 0.223075 0.000000
O O8 0.575181 0.751404 0.875313
O O9 0.086716 0.000000 0.750000
#
# Coordination Sequence:
#
# PCOD9528884 Si02
#       5
#     8   8  16   8  16
#     4  11  25  49  69  96 135 176 230 274 334 401
#     4  10  24  42  64  96 128 176 218 270 324 386
#     4  11  23  43  66  96 133 172 219 269 326 393
#     4  11  27  45  71 100 131 180 224 276 334 405
#     4  12  25  42  70 103 138 174 222 279 334 398
#
# _framework density 19.593854
#
# number of rings (size 3 to 8) (size 9 to 14) (size 15 to 20)
#    0.000    0.857    2.857    3.429    4.000    5.714 
#   10.286    0.000    0.000    0.000    0.000    0.000 
#    0.000    0.000    0.000    0.000    0.000    0.000 
#
# Total GULP energy -156656.524383 kJ/mol
# GULP energy per Si atom -5594.875871 kJ/mol
# Density = 1.954926 g / cm^3
# Si number density = 19.593854 Si / 1000 Ang^3
#
#
#
# Elastic Constant Matrix: (Units=GPa)
#
#
# Indices 1 2 3 4 5 6 
#
# 1 86.4158 81.9644 60.5275 0.0000 0.0000 0.0000
# 2 81.9644 185.0833 82.7908 0.0000 0.0000 0.0000
# 3 60.5275 82.7908 159.5194 0.0000 0.0000 0.0000
# 4 0.0000 0.0000 0.0000 27.3401 0.0000 0.0000
# 5 0.0000 0.0000 0.0000 0.0000 38.8619 0.0000
# 6 0.0000 0.0000 0.0000 0.0000 0.0000 1.5017
#
#
#
# Elastic Compliance Matrix: (Units=1/GPa)
#
#
# Indices 1 2 3 4 5 6 
#
# 1 0.021993 -0.007823 -0.004285 0.000000 0.000000 0.000000
# 2 -0.007823 0.009819 -0.002128 0.000000 0.000000 0.000000
# 3 -0.004285 -0.002128 0.008999 0.000000 0.000000 0.000000
# 4 0.000000 0.000000 0.000000 0.036576 0.000000 0.000000
# 5 0.000000 0.000000 0.000000 0.000000 0.025732 0.000000
# 6 0.000000 0.000000 0.000000 0.000000 0.000000 0.665914
#
#
# Mechanical properties :
#
#
# Convention : Reuss Voigt Hill
#
# Bulk Modulus (GPa) = 81.03746 97.95376 89.49561
# Shear Modulus (GPa) = 6.23738 27.25647 16.74692
#
# Velocity S-wave (km/s) = 1.78613 3.73375 2.92670
# Velocity P-wave (km/s) = 6.76033 8.28785 7.56276
#
# Compressibility (1/GPa) = 0.01233997
#
# Stress axis : x y z
#
# Youngs Moduli (GPa) = 45.46854 101.84090 111.12314
#
# Poissons Ratio (x) = 0.79671 0.47615
# Poissons Ratio (y) = 0.35570 0.23645
# Poissons Ratio (z) = 0.19483 0.21670
#
# Static dielectric constant tensor:
#      x y z
#    x 1.668080 0.000000 0.000000 
#    y 0.000000 1.658120 0.000000 
#    z 0.000000 0.000000 1.646110 
# 
# From -- ./inp_files/15991.got.cif
#   From: 2010.05.17/outbox.cif.g08.bks.cpg/sg72_8_cif.got.tgz:15991.got - 2010.06.03 17:03:01.
