data_PCOD9528110
_publ_section_title
;
Structure prediction by ZEFSAII (Michael W. Deem and Ramdas Pophale) SiO2 
 PCOD9528110
Probable space group: I B A M
;
_chemical_formula_sum "Si O2"
_cell_formula_units_Z 80
_cell_length_a 8.746478
_cell_length_b 15.530584
_cell_length_c 23.881731
_cell_angle_alpha 90.000000
_cell_angle_beta 90.000000
_cell_angle_gamma 90.000000
_cell_volume 3244.044457
_symmetry_space_group_name_H-M "I B A M"
_symmetry_group_IT_number 72
_symmetry_cell_setting 'orthorhombic'
loop_
_space_group_symop_operation_xyz
x,y,z
-x,-y,z
x,-y,1/2-z
-x,y,1/2-z
-x,-y,-z
x,y,-z
-x,y,1/2+z
x,-y,1/2+z
1/2+x,1/2+y,1/2+z
1/2-x,1/2-y,1/2+z
1/2+x,1/2-y,-z
1/2-x,1/2+y,-z
1/2-x,1/2-y,1/2-z
1/2+x,1/2+y,1/2-z
1/2-x,1/2+y,z
1/2+x,1/2-y,z
loop_
_atom_site_type_symbol
_atom_site_label
_atom_site_fract_x
_atom_site_fract_y
_atom_site_fract_z
Si Si1 0.336003 0.041930 0.178799
Si Si2 0.643048 0.870669 0.939180
Si Si3 0.102269 0.073721 0.373194
Si Si4 0.382244 0.309223 0.300423
Si Si5 0.674197 0.791463 0.594599
O O1 0.347273 0.066613 0.113248
O O2 0.266621 0.128079 0.208729
O O3 0.500000 0.000000 0.193687
O O4 0.203080 0.970578 0.176180
O O5 0.485353 0.820314 0.929731
O O6 0.768870 0.796336 0.932645
O O7 0.650075 0.911881 0.000000
O O8 0.208578 0.130351 0.412338
O O9 0.984933 0.136915 0.343432
O O10 0.000000 0.000000 0.401286
O O11 0.500000 0.290908 0.250000
O O12 0.334048 0.227290 0.337935
#
# Coordination Sequence:
#
# PCOD9528110 Si02
#       5
#    16  16  16  16  16
#     4  10  21  40  66  92 133 177 220 279 328 390
#     4  11  23  40  66  97 128 174 226 277 335 394
#     4  10  21  40  63  89 135 173 211 271 340 385
#     4  10  23  42  69  94 132 180 222 273 333 396
#     4  11  21  42  66  94 132 172 221 282 327 390
#
# _framework density 24.660572999999999
#
# number of rings (size 3 to 8) (size 9 to 14) (size 15 to 20)
#    0.000    1.600    4.000    0.600    0.000    4.800 
#    0.000    2.000    0.000    5.400    0.000    0.000 
#    0.000    0.000    0.000    0.000    0.000    0.000 
#
# Total GULP energy -223686.526220 kJ/mol
# GULP energy per Si atom -5592.163156 kJ/mol
# Density = 2.460444 g / cm^3
# Si number density = 24.660573 Si / 1000 Ang^3
#
#
#
# Elastic Constant Matrix: (Units=GPa)
#
#
# Indices 1 2 3 4 5 6 
#
# 1 132.1237 20.7866 19.7294 0.0000 0.0000 0.0000
# 2 20.7866 58.7596 30.3211 0.0000 0.0000 0.0000
# 3 19.7294 30.3211 135.7348 0.0000 0.0000 0.0000
# 4 0.0000 0.0000 0.0000 -5.8864 0.0000 0.0000
# 5 0.0000 0.0000 0.0000 0.0000 -7.0196 0.0000
# 6 0.0000 0.0000 0.0000 0.0000 0.0000 39.6959
#
#
#
# Elastic Compliance Matrix: (Units=1/GPa)
#
#
# Indices 1 2 3 4 5 6 
#
# 1 0.008058 -0.002539 -0.000604 0.000000 0.000000 0.000000
# 2 -0.002539 0.020036 -0.004107 0.000000 0.000000 0.000000
# 3 -0.000604 -0.004107 0.008372 0.000000 0.000000 0.000000
# 4 0.000000 0.000000 0.000000 -0.169882 0.000000 0.000000
# 5 0.000000 0.000000 0.000000 0.000000 -0.142459 0.000000
# 6 0.000000 0.000000 0.000000 0.000000 0.000000 0.025192
#
#
# Mechanical properties :
#
#
# Convention : Reuss Voigt Hill
#
# Bulk Modulus (GPa) = 45.52258 52.03249 48.77753
# Shear Modulus (GPa) = -21.84736 22.41005 0.28134
#
# Velocity S-wave (km/s) = -2.97967 3.01780 0.33813
# Velocity P-wave (km/s) = 2.58104 5.76958 4.46933
#
# Compressibility (1/GPa) = 0.02196712
#
# Stress axis : x y z
#
# Youngs Moduli (GPa) = 124.09536 49.91079 119.43896
#
# Poissons Ratio (x) = 0.12672 0.07216
# Poissons Ratio (y) = 0.31507 0.49049
# Poissons Ratio (z) = 0.07497 0.20497
#
# Static dielectric constant tensor:
#      x y z
#    x 1.963780 0.000000 0.000000 
#    y 0.000000 1.986290 0.000000 
#    z 0.000000 0.000000 1.988710 
# 
# From -- ./inp_files/47151.got.cif
#   From: 2010.05.17/outbox.cif.g08.bks.cpg/sg72_24_cif.got.tgz:47151.got - 2010.06.03 17:03:01.
