data_PCOD9528034
_publ_section_title
;
Structure prediction by ZEFSAII (Michael W. Deem and Ramdas Pophale) SiO2 
 PCOD9528034
Probable space group: I B A M
;
_chemical_formula_sum "Si O2"
_cell_formula_units_Z 116
_cell_length_a 34.520366
_cell_length_b 10.442051
_cell_length_c 16.048711
_cell_angle_alpha 90.000000
_cell_angle_beta 90.000000
_cell_angle_gamma 90.000000
_cell_volume 5784.973291
_symmetry_space_group_name_H-M "I B A M"
_symmetry_group_IT_number 72
_symmetry_cell_setting 'orthorhombic'
loop_
_space_group_symop_operation_xyz
x,y,z
-x,-y,z
x,-y,1/2-z
-x,y,1/2-z
-x,-y,-z
x,y,-z
-x,y,1/2+z
x,-y,1/2+z
1/2+x,1/2+y,1/2+z
1/2-x,1/2-y,1/2+z
1/2+x,1/2-y,-z
1/2-x,1/2+y,-z
1/2-x,1/2-y,1/2-z
1/2+x,1/2+y,1/2-z
1/2-x,1/2+y,z
1/2+x,1/2-y,z
loop_
_atom_site_type_symbol
_atom_site_label
_atom_site_fract_x
_atom_site_fract_y
_atom_site_fract_z
Si Si1 0.719161 0.968832 0.152634
Si Si2 0.000000 0.500000 0.250000
Si Si3 0.949566 0.533747 0.903100
Si Si4 0.866431 0.821386 0.598867
Si Si5 0.990209 0.806934 0.905542
Si Si6 0.221261 0.183285 0.402072
Si Si7 0.631513 0.036964 0.346604
Si Si8 0.941446 0.957952 0.344583
O O1 0.730310 0.819903 0.140412
O O2 0.675065 0.985893 0.119915
O O3 0.718173 0.000000 0.250000
O O4 0.748798 0.069716 0.114004
O O5 0.031688 0.541907 0.176638
O O6 0.967260 0.675735 0.891324
O O7 0.903541 0.532719 0.892604
O O8 0.957908 0.491878 0.000000
O O9 0.867343 0.798408 0.500000
O O10 0.822468 0.857864 0.622638
O O11 0.875620 0.687959 0.643542
O O12 0.899891 0.919856 0.621056
O O13 0.027409 0.842261 0.850239
O O14 0.960686 0.924482 0.893867
O O15 0.004958 0.804974 0.000000
O O16 0.220658 0.211145 0.500000
O O17 0.630672 0.000000 0.250000
O O18 0.938102 0.000000 0.250000
#
# Coordination Sequence:
#
# PCOD9528034 Si02
#       8
#    16   4  16  16  16  16  16  16
#     4  10  21  40  66  94 129 170 212 264 326 392
#     4  12  26  40  64  84 132 156 206 264 310 378
#     4  11  25  41  62  92 122 163 211 260 318 379
#     4  10  22  40  62  87 123 167 209 253 313 388
#     4  10  22  40  58  81 118 155 203 256 312 374
#     4  10  21  39  63  94 128 167 215 262 321 388
#     4  10  22  41  64  92 128 164 206 260 321 377
#     4  11  23  37  61  86 113 158 206 252 311 369
#
# _framework density 20.051950000000001
#
# number of rings (size 3 to 8) (size 9 to 14) (size 15 to 20)
#    0.000    1.655    0.690    3.931    5.793    2.207 
#    2.483    0.000    0.000    0.000    0.000    0.000 
#    0.000    0.000    0.000    0.000    0.000    0.000 
#
# Total GULP energy -323467.835008 kJ/mol
# GULP energy per Si atom -5577.031638 kJ/mol
# Density = 2.000631 g / cm^3
# Si number density = 20.051950 Si / 1000 Ang^3
#
#
#
# Elastic Constant Matrix: (Units=GPa)
#
#
# Indices 1 2 3 4 5 6 
#
# 1 119.7460 58.7263 24.3050 0.0000 0.0000 0.0000
# 2 58.7263 79.9895 20.5014 0.0000 0.0000 0.0000
# 3 24.3050 20.5014 73.9731 0.0000 0.0000 0.0000
# 4 0.0000 0.0000 0.0000 25.0093 0.0000 0.0000
# 5 0.0000 0.0000 0.0000 0.0000 34.0851 0.0000
# 6 0.0000 0.0000 0.0000 0.0000 0.0000 25.1707
#
#
#
# Elastic Compliance Matrix: (Units=1/GPa)
#
#
# Indices 1 2 3 4 5 6 
#
# 1 0.013265 -0.009281 -0.001786 0.000000 0.000000 0.000000
# 2 -0.009281 0.019951 -0.002480 0.000000 0.000000 0.000000
# 3 -0.001786 -0.002480 0.014793 0.000000 0.000000 0.000000
# 4 0.000000 0.000000 0.000000 0.039985 0.000000 0.000000
# 5 0.000000 0.000000 0.000000 0.000000 0.029338 0.000000
# 6 0.000000 0.000000 0.000000 0.000000 0.000000 0.039729
#
#
# Mechanical properties :
#
#
# Convention : Reuss Voigt Hill
#
# Bulk Modulus (GPa) = 47.81399 53.41932 50.61665
# Shear Modulus (GPa) = 26.16052 28.19809 27.17931
#
# Velocity S-wave (km/s) = 3.61589 3.75407 3.68563
# Velocity P-wave (km/s) = 6.42882 6.74456 6.58858
#
# Compressibility (1/GPa) = 0.02091438
#
# Stress axis : x y z
#
# Youngs Moduli (GPa) = 75.38457 50.12208 67.60118
#
# Poissons Ratio (x) = 0.46519 0.12075
# Poissons Ratio (y) = 0.69966 0.16765
# Poissons Ratio (z) = 0.13466 0.12430
#
# Static dielectric constant tensor:
#      x y z
#    x 1.732120 0.000000 0.000000 
#    y 0.000000 1.721420 0.000000 
#    z 0.000000 0.000000 1.723570 
# 
# From -- ./inp_files/34316.got.cif
#   From: 2010.05.17/outbox.cif.g08.bks.cpg/sg72_18_cif.got.tgz:34316.got - 2010.06.03 17:03:01.
