data_PCOD9528278
_publ_section_title
;
Structure prediction by ZEFSAII (Michael W. Deem and Ramdas Pophale) SiO2 
 PCOD9528278
Probable space group: I B A M
;
_chemical_formula_sum "Si O2"
_cell_formula_units_Z 112
_cell_length_a 23.947282
_cell_length_b 15.688900
_cell_length_c 14.806810
_cell_angle_alpha 90.000000
_cell_angle_beta 90.000000
_cell_angle_gamma 90.000000
_cell_volume 5563.014947
_symmetry_space_group_name_H-M "I B A M"
_symmetry_group_IT_number 72
_symmetry_cell_setting 'orthorhombic'
loop_
_space_group_symop_operation_xyz
x,y,z
-x,-y,z
x,-y,1/2-z
-x,y,1/2-z
-x,-y,-z
x,y,-z
-x,y,1/2+z
x,-y,1/2+z
1/2+x,1/2+y,1/2+z
1/2-x,1/2-y,1/2+z
1/2+x,1/2-y,-z
1/2-x,1/2+y,-z
1/2-x,1/2-y,1/2-z
1/2+x,1/2+y,1/2-z
1/2-x,1/2+y,z
1/2+x,1/2-y,z
loop_
_atom_site_type_symbol
_atom_site_label
_atom_site_fract_x
_atom_site_fract_y
_atom_site_fract_z
Si Si1 0.299142 0.395602 0.899080
Si Si2 0.409427 0.507391 0.393063
Si Si3 0.637154 0.238361 0.672718
Si Si4 0.458845 0.883314 0.391904
Si Si5 0.689590 0.097049 0.782267
Si Si6 0.061121 0.859759 0.738166
Si Si7 0.420723 0.073067 0.390963
O O1 0.343142 0.472467 0.882332
O O2 0.334556 0.308383 0.891009
O O3 0.248311 0.390258 0.830954
O O4 0.276983 0.405740 0.000000
O O5 0.422486 0.515216 0.500000
O O6 0.435618 0.578332 0.326617
O O7 0.429102 0.418727 0.349351
O O8 0.583484 0.190836 0.632401
O O9 0.680037 0.166380 0.704305
O O10 0.611500 0.293657 0.754487
O O11 0.462736 0.887948 0.500000
O O12 0.523026 0.877998 0.360230
O O13 0.432565 0.974436 0.363650
O O14 0.635708 0.106048 0.846988
O O15 0.688519 0.000000 0.750000
O O16 0.000000 0.820161 0.750000
O O17 0.416383 0.076254 0.500000
#
# Coordination Sequence:
#
# PCOD9528278 Si02
#       7
#    16  16  16  16  16  16  16
#     4  10  23  43  65  86 117 157 206 260 308 362
#     4   9  19  40  66  87 116 161 205 252 312 375
#     4  11  23  39  60  91 127 159 200 250 312 365
#     4   9  18  36  60  85 119 161 203 246 297 361
#     4  12  24  38  62  90 120 164 204 252 304 363
#     4  10  22  36  59  94 128 158 197 256 308 374
#     4   9  19  37  59  86 118 157 206 249 287 356
#
# _framework density 20.132968000000002
#
# number of rings (size 3 to 8) (size 9 to 14) (size 15 to 20)
#    0.000    2.000    1.429    3.000    6.000    1.714 
#    0.000    1.429    0.000    0.000    0.000    0.000 
#    0.000    0.000    0.000    0.000    0.000    0.000 
#
# Total GULP energy -312526.534044 kJ/mol
# GULP energy per Si atom -5580.830965 kJ/mol
# Density = 2.008714 g / cm^3
# Si number density = 20.132968 Si / 1000 Ang^3
#
#
#
# Elastic Constant Matrix: (Units=GPa)
#
#
# Indices 1 2 3 4 5 6 
#
# 1 86.9454 14.1882 16.8759 0.0000 0.0000 0.0000
# 2 14.1882 61.6540 10.5834 0.0000 0.0000 0.0000
# 3 16.8759 10.5834 58.8857 0.0000 0.0000 0.0000
# 4 0.0000 0.0000 0.0000 18.6846 0.0000 0.0000
# 5 0.0000 0.0000 0.0000 0.0000 33.4759 0.0000
# 6 0.0000 0.0000 0.0000 0.0000 0.0000 15.6728
#
#
#
# Elastic Compliance Matrix: (Units=1/GPa)
#
#
# Indices 1 2 3 4 5 6 
#
# 1 0.012496 -0.002333 -0.003162 0.000000 0.000000 0.000000
# 2 -0.002333 0.017171 -0.002418 0.000000 0.000000 0.000000
# 3 -0.003162 -0.002418 0.018323 0.000000 0.000000 0.000000
# 4 0.000000 0.000000 0.000000 0.053520 0.000000 0.000000
# 5 0.000000 0.000000 0.000000 0.000000 0.029872 0.000000
# 6 0.000000 0.000000 0.000000 0.000000 0.000000 0.063805
#
#
# Mechanical properties :
#
#
# Convention : Reuss Voigt Hill
#
# Bulk Modulus (GPa) = 31.08945 32.30893 31.69919
# Shear Modulus (GPa) = 22.54959 24.62250 23.58605
#
# Velocity S-wave (km/s) = 3.35032 3.50093 3.42645
# Velocity P-wave (km/s) = 5.51741 5.69426 5.60653
#
# Compressibility (1/GPa) = 0.03216526
#
# Stress axis : x y z
#
# Youngs Moduli (GPa) = 80.02644 58.23638 54.57706
#
# Poissons Ratio (x) = 0.13586 0.17257
# Poissons Ratio (y) = 0.18669 0.13195
# Poissons Ratio (z) = 0.25303 0.14079
#
# Static dielectric constant tensor:
#      x y z
#    x 1.714900 0.000000 0.000000 
#    y 0.000000 1.728550 0.000000 
#    z 0.000000 0.000000 1.713540 
# 
# From -- ./inp_files/22105.got.cif
#   From: 2010.05.17/outbox.cif.g08.bks.cpg/sg72_12_cif.got.tgz:22105.got - 2010.06.03 17:03:01.
