data_PCOD9528581
_publ_section_title
;
Structure prediction by ZEFSAII (Michael W. Deem and Ramdas Pophale) SiO2 
 PCOD9528581
Probable space group: I B A M
;
_chemical_formula_sum "Si O2"
_cell_formula_units_Z 48
_cell_length_a 14.354897
_cell_length_b 8.156067
_cell_length_c 15.967883
_cell_angle_alpha 90.000000
_cell_angle_beta 90.000000
_cell_angle_gamma 90.000000
_cell_volume 1869.511785
_symmetry_space_group_name_H-M "I B A M"
_symmetry_group_IT_number 72
_symmetry_cell_setting 'orthorhombic'
loop_
_space_group_symop_operation_xyz
x,y,z
-x,-y,z
x,-y,1/2-z
-x,y,1/2-z
-x,-y,-z
x,y,-z
-x,y,1/2+z
x,-y,1/2+z
1/2+x,1/2+y,1/2+z
1/2-x,1/2-y,1/2+z
1/2+x,1/2-y,-z
1/2-x,1/2+y,-z
1/2-x,1/2-y,1/2-z
1/2+x,1/2+y,1/2-z
1/2-x,1/2+y,z
1/2+x,1/2-y,z
loop_
_atom_site_type_symbol
_atom_site_label
_atom_site_fract_x
_atom_site_fract_y
_atom_site_fract_z
Si Si1 0.530986 0.679021 0.098868
Si Si2 0.271324 0.177572 0.094323
Si Si3 0.371330 0.883977 0.830661
O O1 0.500000 0.500000 0.127436
O O2 0.641100 0.701255 0.107137
O O3 0.473019 0.817952 0.146529
O O4 0.509097 0.694844 0.000000
O O5 0.193626 0.221903 0.162673
O O6 0.320983 0.001796 0.102336
O O7 0.232731 0.189505 0.000000
O O8 0.369313 0.000000 0.750000
#
# Coordination Sequence:
#
# PCOD9528581 Si02
#       3
#    16  16  16
#     4  10  22  42  69  99 133 182 242 297 354 428
#     4  11  23  41  67  96 133 185 240 292 349 426
#     4  12  25  43  66 102 144 184 234 296 367 426
#
# _framework density 25.675153999999999
#
# number of rings (size 3 to 8) (size 9 to 14) (size 15 to 20)
#    0.000    1.000    0.000    7.000    0.000    8.000 
#    0.000    1.667    0.000    0.000    0.000    0.000 
#    0.000    0.000    0.000    0.000    0.000    0.000 
#
# Total GULP energy -134471.739975 kJ/mol
# GULP energy per Si atom -5602.989166 kJ/mol
# Density = 2.561672 g / cm^3
# Si number density = 25.675154 Si / 1000 Ang^3
#
#
#
# Elastic Constant Matrix: (Units=GPa)
#
#
# Indices 1 2 3 4 5 6 
#
# 1 115.8487 12.0179 35.9663 0.0000 0.0000 0.0000
# 2 12.0179 99.7940 28.1619 0.0000 0.0000 0.0000
# 3 35.9663 28.1619 114.6776 0.0000 0.0000 0.0000
# 4 0.0000 0.0000 0.0000 45.4857 0.0000 0.0000
# 5 0.0000 0.0000 0.0000 0.0000 28.9714 0.0000
# 6 0.0000 0.0000 0.0000 0.0000 0.0000 57.6828
#
#
#
# Elastic Compliance Matrix: (Units=1/GPa)
#
#
# Indices 1 2 3 4 5 6 
#
# 1 0.009573 -0.000328 -0.002922 0.000000 0.000000 0.000000
# 2 -0.000328 0.010778 -0.002544 0.000000 0.000000 0.000000
# 3 -0.002922 -0.002544 0.010261 0.000000 0.000000 0.000000
# 4 0.000000 0.000000 0.000000 0.021985 0.000000 0.000000
# 5 0.000000 0.000000 0.000000 0.000000 0.034517 0.000000
# 6 0.000000 0.000000 0.000000 0.000000 0.000000 0.017336
#
#
# Mechanical properties :
#
#
# Convention : Reuss Voigt Hill
#
# Bulk Modulus (GPa) = 52.56406 53.62362 53.09384
# Shear Modulus (GPa) = 40.85648 43.37294 42.11471
#
# Velocity S-wave (km/s) = 3.99342 4.11456 4.05444
# Velocity P-wave (km/s) = 6.46377 6.59573 6.53008
#
# Compressibility (1/GPa) = 0.01902441
#
# Stress axis : x y z
#
# Youngs Moduli (GPa) = 104.45933 92.78115 97.45490
#
# Poissons Ratio (x) = 0.03046 0.28474
# Poissons Ratio (y) = 0.03430 0.24791
# Poissons Ratio (z) = 0.30521 0.23602
#
# Static dielectric constant tensor:
#      x y z
#    x 2.016430 0.000000 0.000000 
#    y 0.000000 2.103090 0.000000 
#    z 0.000000 0.000000 2.035440 
# 
# From -- ./inp_files/22584.got.cif
#   From: 2010.05.17/outbox.cif.g08.bks.cpg/sg72_12_cif.got.tgz:22584.got - 2010.06.03 17:03:01.
