data_PCOD9528216
_publ_section_title
;
Structure prediction by ZEFSAII (Michael W. Deem and Ramdas Pophale) SiO2 
 PCOD9528216
Probable space group: I B A M
;
_chemical_formula_sum "Si O2"
_cell_formula_units_Z 96
_cell_length_a 15.397567
_cell_length_b 15.395710
_cell_length_c 22.247284
_cell_angle_alpha 90.000000
_cell_angle_beta 90.000000
_cell_angle_gamma 90.000000
_cell_volume 5273.862751
_symmetry_space_group_name_H-M "I B A M"
_symmetry_group_IT_number 72
_symmetry_cell_setting 'orthorhombic'
loop_
_space_group_symop_operation_xyz
x,y,z
-x,-y,z
x,-y,1/2-z
-x,y,1/2-z
-x,-y,-z
x,y,-z
-x,y,1/2+z
x,-y,1/2+z
1/2+x,1/2+y,1/2+z
1/2-x,1/2-y,1/2+z
1/2+x,1/2-y,-z
1/2-x,1/2+y,-z
1/2-x,1/2-y,1/2-z
1/2+x,1/2+y,1/2-z
1/2-x,1/2+y,z
1/2+x,1/2-y,z
loop_
_atom_site_type_symbol
_atom_site_label
_atom_site_fract_x
_atom_site_fract_y
_atom_site_fract_z
Si Si1 0.374744 0.945058 0.500000
Si Si2 0.400586 0.397343 0.242103
Si Si3 0.217585 0.218286 0.185871
Si Si4 0.851477 0.355510 0.500000
Si Si5 0.000000 0.500000 0.606182
Si Si6 0.669988 0.743410 0.000000
Si Si7 0.065962 0.327448 0.871657
Si Si8 0.386540 0.273558 0.131074
O O1 0.328248 0.040639 0.500000
O O2 0.433674 0.952121 0.439775
O O3 0.331332 0.849732 0.500000
O O4 0.398540 0.500000 0.250000
O O5 0.500000 0.367957 0.250000
O O6 0.340214 0.363589 0.296239
O O7 0.375624 0.354817 0.177274
O O8 0.250000 0.250000 0.250000
O O9 0.150216 0.287098 0.158934
O O10 0.303982 0.211231 0.146153
O O11 0.766488 0.296096 0.500000
O O12 0.909179 0.334125 0.558048
O O13 0.953604 0.426844 0.645178
O O14 0.623351 0.709222 0.060343
O O15 0.979595 0.271678 0.859389
#
# Coordination Sequence:
#
# PCOD9528216 Si02
#       8
#     8  16  16   8   8   8  16  16
#     4   9  18  34  54  87 129 159 208 235 299 393
#     4  10  21  42  67  84 115 167 214 253 303 366
#     4  10  22  39  60  88 115 155 211 254 304 361
#     4  10  22  36  60  92 128 176 200 246 322 384
#     4   9  18  32  58  87 118 170 193 237 314 376
#     4  12  20  38  58  96 125 161 208 256 318 370
#     4  11  19  38  59  87 127 157 203 250 306 381
#     4  11  22  38  64  90 121 163 202 257 311 368
#
# _framework density 18.202977000000001
#
# number of rings (size 3 to 8) (size 9 to 14) (size 15 to 20)
#    0.000    1.667    5.000    1.000    0.000    0.000 
#    9.000    0.000    0.000    6.000    0.000    0.000 
#    0.000    0.000    0.000    0.000    0.000    0.000 
#
# Total GULP energy -267270.124319 kJ/mol
# GULP energy per Si atom -5568.127590 kJ/mol
# Density = 1.816155 g / cm^3
# Si number density = 18.202977 Si / 1000 Ang^3
#
#
#
# Elastic Constant Matrix: (Units=GPa)
#
#
# Indices 1 2 3 4 5 6 
#
# 1 109.3803 40.0805 25.0122 0.0000 0.0000 0.0000
# 2 40.0805 100.3368 39.1152 0.0000 0.0000 0.0000
# 3 25.0122 39.1152 94.6752 0.0000 0.0000 0.0000
# 4 0.0000 0.0000 0.0000 22.2649 0.0000 0.0000
# 5 0.0000 0.0000 0.0000 0.0000 17.8339 0.0000
# 6 0.0000 0.0000 0.0000 0.0000 0.0000 23.1621
#
#
#
# Elastic Compliance Matrix: (Units=1/GPa)
#
#
# Indices 1 2 3 4 5 6 
#
# 1 0.010839 -0.003830 -0.001281 0.000000 0.000000 0.000000
# 2 -0.003830 0.013233 -0.004455 0.000000 0.000000 0.000000
# 3 -0.001281 -0.004455 0.012742 0.000000 0.000000 0.000000
# 4 0.000000 0.000000 0.000000 0.044914 0.000000 0.000000
# 5 0.000000 0.000000 0.000000 0.000000 0.056073 0.000000
# 6 0.000000 0.000000 0.000000 0.000000 0.000000 0.043174
#
#
# Mechanical properties :
#
#
# Convention : Reuss Voigt Hill
#
# Bulk Modulus (GPa) = 56.56004 56.97870 56.76937
# Shear Modulus (GPa) = 24.27165 25.99782 25.13474
#
# Velocity S-wave (km/s) = 3.65552 3.78328 3.71995
# Velocity P-wave (km/s) = 6.99689 7.10310 7.05019
#
# Compressibility (1/GPa) = 0.01768033
#
# Stress axis : x y z
#
# Youngs Moduli (GPa) = 92.26031 75.56638 78.48280
#
# Poissons Ratio (x) = 0.28944 0.10054
# Poissons Ratio (y) = 0.35339 0.34968
# Poissons Ratio (z) = 0.11819 0.33668
#
# Static dielectric constant tensor:
#      x y z
#    x 1.666980 0.000000 0.000000 
#    y 0.000000 1.648690 0.000000 
#    z 0.000000 0.000000 1.641570 
# 
# From -- ./inp_files/38111.got.cif
#   From: 2010.05.17/outbox.cif.g08.bks.cpg/sg72_20_cif.got.tgz:38111.got - 2010.06.03 17:03:01.
