data_PCOD9528196
_publ_section_title
;
Structure prediction by ZEFSAII (Michael W. Deem and Ramdas Pophale) SiO2 
 PCOD9528196
Probable space group: I B A M
;
_chemical_formula_sum "Si O2"
_cell_formula_units_Z 96
_cell_length_a 10.160199
_cell_length_b 24.817035
_cell_length_c 17.669217
_cell_angle_alpha 90.000000
_cell_angle_beta 90.000000
_cell_angle_gamma 90.000000
_cell_volume 4455.222640
_symmetry_space_group_name_H-M "I B A M"
_symmetry_group_IT_number 72
_symmetry_cell_setting 'orthorhombic'
loop_
_space_group_symop_operation_xyz
x,y,z
-x,-y,z
x,-y,1/2-z
-x,y,1/2-z
-x,-y,-z
x,y,-z
-x,y,1/2+z
x,-y,1/2+z
1/2+x,1/2+y,1/2+z
1/2-x,1/2-y,1/2+z
1/2+x,1/2-y,-z
1/2-x,1/2+y,-z
1/2-x,1/2-y,1/2-z
1/2+x,1/2+y,1/2-z
1/2-x,1/2+y,z
1/2+x,1/2-y,z
loop_
_atom_site_type_symbol
_atom_site_label
_atom_site_fract_x
_atom_site_fract_y
_atom_site_fract_z
Si Si1 0.816694 0.517484 0.587446
Si Si2 0.710893 0.409575 0.666682
Si Si3 0.888393 0.296949 0.089489
Si Si4 0.620873 0.899715 0.193394
Si Si5 0.464117 0.436652 0.583596
Si Si6 0.194409 0.699022 0.589168
O O1 0.852454 0.510817 0.500000
O O2 0.770215 0.461083 0.622216
O O3 0.916808 0.550205 0.639440
O O4 0.692112 0.559258 0.590070
O O5 0.755463 0.414557 0.753192
O O6 0.555533 0.410154 0.646850
O O7 0.772092 0.354557 0.635116
O O8 0.857396 0.347330 0.142592
O O9 0.794528 0.246955 0.107973
O O10 0.042888 0.284027 0.100708
O O11 0.870208 0.310214 0.000000
O O12 0.500000 0.889758 0.250000
O O13 0.500000 0.500000 0.582986
O O14 0.499066 0.414161 0.500000
O O15 0.210006 0.686709 0.500000
#
# Coordination Sequence:
#
# PCOD9528196 Si02
#       6
#    16  16  16  16  16  16
#     4  10  22  41  66  93 131 177 223 271 330 407
#     4  11  21  38  65  98 134 166 211 277 343 400
#     4  10  23  45  68  93 129 176 231 284 336 405
#     4  12  25  43  59  93 134 179 217 271 326 404
#     4   8  16  34  60  91 124 163 210 260 317 392
#     4  10  21  41  69  97 124 168 227 280 336 403
#
# _framework density 21.547743000000001
#
# number of rings (size 3 to 8) (size 9 to 14) (size 15 to 20)
#    0.000    1.833    1.667    3.500    0.000    4.000 
#    0.000    6.667    0.000    0.000    0.000    0.000 
#    0.000    0.000    0.000    0.000    0.000    0.000 
#
# Total GULP energy -268219.135261 kJ/mol
# GULP energy per Si atom -5587.898651 kJ/mol
# Density = 2.149870 g / cm^3
# Si number density = 21.547743 Si / 1000 Ang^3
#
#
#
# Elastic Constant Matrix: (Units=GPa)
#
#
# Indices 1 2 3 4 5 6 
#
# 1 92.2967 31.5998 38.2742 0.0000 0.0000 0.0000
# 2 31.5998 118.1737 82.4513 0.0000 0.0000 0.0000
# 3 38.2742 82.4513 122.5029 0.0000 0.0000 0.0000
# 4 0.0000 0.0000 0.0000 131.7846 0.0000 0.0000
# 5 0.0000 0.0000 0.0000 0.0000 15.7014 0.0000
# 6 0.0000 0.0000 0.0000 0.0000 0.0000 34.0056
#
#
#
# Elastic Compliance Matrix: (Units=1/GPa)
#
#
# Indices 1 2 3 4 5 6 
#
# 1 0.012532 -0.001167 -0.003130 0.000000 0.000000 0.000000
# 2 -0.001167 0.016063 -0.010447 0.000000 0.000000 0.000000
# 3 -0.003130 -0.010447 0.016172 0.000000 0.000000 0.000000
# 4 0.000000 0.000000 0.000000 0.007588 0.000000 0.000000
# 5 0.000000 0.000000 0.000000 0.000000 0.063689 0.000000
# 6 0.000000 0.000000 0.000000 0.000000 0.000000 0.029407
#
#
# Mechanical properties :
#
#
# Convention : Reuss Voigt Hill
#
# Bulk Modulus (GPa) = 65.44617 70.84708 68.14662
# Shear Modulus (GPa) = 27.77290 48.34150 38.05720
#
# Velocity S-wave (km/s) = 3.59402 4.74166 4.20715
# Velocity P-wave (km/s) = 6.90371 7.93273 7.43604
#
# Compressibility (1/GPa) = 0.01527973
#
# Stress axis : x y z
#
# Youngs Moduli (GPa) = 79.79451 62.25500 61.83532
#
# Poissons Ratio (x) = 0.07268 0.19353
# Poissons Ratio (y) = 0.09316 0.64596
# Poissons Ratio (z) = 0.24973 0.65035
#
# Static dielectric constant tensor:
#      x y z
#    x 1.894900 0.000000 0.000000 
#    y 0.000000 1.720470 0.000000 
#    z 0.000000 0.000000 1.792970 
# 
# From -- ./inp_files/29405.got.cif
#   From: 2010.05.17/outbox.cif.g08.bks.cpg/sg72_15_cif.got.tgz:29405.got - 2010.06.03 17:03:01.
