data_PCOD9528168
_publ_section_title
;
Structure prediction by ZEFSAII (Michael W. Deem and Ramdas Pophale) SiO2 
 PCOD9528168
Probable space group: I B A M
;
_chemical_formula_sum "Si O2"
_cell_formula_units_Z 112
_cell_length_a 13.709063
_cell_length_b 25.148966
_cell_length_c 16.255456
_cell_angle_alpha 90.000000
_cell_angle_beta 90.000000
_cell_angle_gamma 90.000000
_cell_volume 5604.373397
_symmetry_space_group_name_H-M "I B A M"
_symmetry_group_IT_number 72
_symmetry_cell_setting 'orthorhombic'
loop_
_space_group_symop_operation_xyz
x,y,z
-x,-y,z
x,-y,1/2-z
-x,y,1/2-z
-x,-y,-z
x,y,-z
-x,y,1/2+z
x,-y,1/2+z
1/2+x,1/2+y,1/2+z
1/2-x,1/2-y,1/2+z
1/2+x,1/2-y,-z
1/2-x,1/2+y,-z
1/2-x,1/2-y,1/2-z
1/2+x,1/2+y,1/2-z
1/2-x,1/2+y,z
1/2+x,1/2-y,z
loop_
_atom_site_type_symbol
_atom_site_label
_atom_site_fract_x
_atom_site_fract_y
_atom_site_fract_z
Si Si1 0.499983 0.114801 0.597415
Si Si2 0.651775 0.505357 0.097257
Si Si3 0.305468 0.133224 0.797713
Si Si4 0.845005 0.539948 0.819186
Si Si5 0.368148 0.676620 0.095855
Si Si6 0.910848 0.714903 0.188407
Si Si7 0.993113 0.086167 0.346680
O O1 0.515870 0.112373 0.500000
O O2 0.599884 0.116235 0.649159
O O3 0.430327 0.067113 0.628271
O O4 0.446447 0.169401 0.624804
O O5 0.762179 0.510865 0.127737
O O6 0.592095 0.457553 0.139118
O O7 0.590602 0.558317 0.119651
O O8 0.648289 0.496717 0.000000
O O9 0.291054 0.087055 0.731156
O O10 0.217129 0.144833 0.857779
O O11 0.331027 0.186306 0.746003
O O12 0.883373 0.500000 0.750000
O O13 0.379433 0.733018 0.140251
O O14 0.463666 0.640044 0.107593
O O15 0.346368 0.683111 0.000000
O O16 0.000000 0.727638 0.250000
O O17 0.000000 0.096688 0.250000
#
# Coordination Sequence:
#
# PCOD9528168 Si02
#       7
#    16  16  16  16  16  16  16
#     4  10  21  41  62  85 114 149 189 239 290 334
#     4  11  21  37  58  85 117 152 190 237 288 339
#     4  10  22  39  59  82 115 155 189 228 289 351
#     4  11  22  38  60  84 111 149 194 234 280 343
#     4  12  22  35  57  88 117 147 191 242 280 331
#     4   9  20  38  61  83 111 151 191 232 286 345
#     4  11  22  37  57  82 118 158 189 227 286 351
#
# _framework density 19.984393000000001
#
# number of rings (size 3 to 8) (size 9 to 14) (size 15 to 20)
#    0.000    1.429    0.000    8.571    0.000    1.143 
#    0.000    4.286    0.000    0.000    0.000    0.000 
#    0.000    0.000    0.000    0.000    0.000    0.000 
#
# Total GULP energy -313194.564285 kJ/mol
# GULP energy per Si atom -5592.760077 kJ/mol
# Density = 1.993891 g / cm^3
# Si number density = 19.984393 Si / 1000 Ang^3
#
#
#
# Elastic Constant Matrix: (Units=GPa)
#
#
# Indices 1 2 3 4 5 6 
#
# 1 41.0028 14.0370 2.8975 0.0000 0.0000 0.0000
# 2 14.0370 62.5979 17.8267 -0.0001 0.0000 0.0000
# 3 2.8975 17.8267 104.4706 -0.0001 0.0000 0.0000
# 4 0.0000 -0.0001 -0.0001 9.7643 0.0000 0.0000
# 5 0.0000 0.0000 0.0000 0.0000 16.8382 0.0000
# 6 0.0000 0.0000 0.0000 0.0000 0.0000 15.8463
#
#
#
# Elastic Compliance Matrix: (Units=1/GPa)
#
#
# Indices 1 2 3 4 5 6 
#
# 1 0.026425 -0.006009 0.000292 0.000000 0.000000 0.000000
# 2 -0.006009 0.018157 -0.002932 0.000000 0.000000 0.000000
# 3 0.000292 -0.002932 0.010064 0.000000 0.000000 0.000000
# 4 0.000000 0.000000 0.000000 0.102413 0.000000 0.000000
# 5 0.000000 0.000000 0.000000 0.000000 0.059389 0.000000
# 6 0.000000 0.000000 0.000000 0.000000 0.000000 0.063106
#
#
# Mechanical properties :
#
#
# Convention : Reuss Voigt Hill
#
# Bulk Modulus (GPa) = 26.77351 30.84374 28.80862
# Shear Modulus (GPa) = 16.16547 20.04377 18.10462
#
# Velocity S-wave (km/s) = 2.84721 3.17041 3.01315
# Velocity P-wave (km/s) = 4.92292 5.37303 5.15289
#
# Compressibility (1/GPa) = 0.03735036
#
# Stress axis : x y z
#
# Youngs Moduli (GPa) = 37.84293 55.07436 99.36190
#
# Poissons Ratio (x) = 0.33093 -0.02906
# Poissons Ratio (y) = 0.22739 0.29130
# Poissons Ratio (z) = -0.01107 0.16146
#
# Static dielectric constant tensor:
#      x y z
#    x 1.732650 0.000000 0.000000 
#    y 0.000000 1.704550 0.000000 
#    z 0.000000 0.000000 1.665430 
# 
# From -- ./inp_files/22158.got.cif
#   From: 2010.05.17/outbox.cif.g08.bks.cpg/sg72_12_cif.got.tgz:22158.got - 2010.06.03 17:03:01.
