data_PCOD9528363
_publ_section_title
;
Structure prediction by ZEFSAII (Michael W. Deem and Ramdas Pophale) SiO2 
 PCOD9528363
Probable space group: I B A M
;
_chemical_formula_sum "Si O2"
_cell_formula_units_Z 56
_cell_length_a 8.656822
_cell_length_b 25.286599
_cell_length_c 13.058889
_cell_angle_alpha 90.000000
_cell_angle_beta 90.000000
_cell_angle_gamma 90.000000
_cell_volume 2858.611520
_symmetry_space_group_name_H-M "I B A M"
_symmetry_group_IT_number 72
_symmetry_cell_setting 'orthorhombic'
loop_
_space_group_symop_operation_xyz
x,y,z
-x,-y,z
x,-y,1/2-z
-x,y,1/2-z
-x,-y,-z
x,y,-z
-x,y,1/2+z
x,-y,1/2+z
1/2+x,1/2+y,1/2+z
1/2-x,1/2-y,1/2+z
1/2+x,1/2-y,-z
1/2-x,1/2+y,-z
1/2-x,1/2-y,1/2-z
1/2+x,1/2+y,1/2-z
1/2-x,1/2+y,z
1/2+x,1/2-y,z
loop_
_atom_site_type_symbol
_atom_site_label
_atom_site_fract_x
_atom_site_fract_y
_atom_site_fract_z
Si Si1 0.330347 0.525663 0.114954
Si Si2 0.732417 0.811573 0.620887
Si Si3 0.000000 0.760741 0.750000
Si Si4 0.671183 0.073582 0.796728
O O1 0.500000 0.500000 0.127040
O O2 0.289622 0.568323 0.200984
O O3 0.210907 0.477626 0.135075
O O4 0.316795 0.546375 0.000000
O O5 0.740920 0.801264 0.500000
O O6 0.601385 0.776369 0.675722
O O7 0.696107 0.872870 0.641928
O O8 0.888887 0.795664 0.679204
O O9 0.500000 0.071499 0.750000
#
# Coordination Sequence:
#
# PCOD9528363 Si02
#       4
#    16  16   8  16
#     4  10  22  39  61  89 124 166 206 255 311 368
#     4  11  23  43  67  93 127 165 205 260 316 365
#     4  10  24  44  66  94 124 162 214 260 304 382
#     4  11  22  38  60  92 125 161 206 256 300 377
#
# _framework density 19.589931
#
# number of rings (size 3 to 8) (size 9 to 14) (size 15 to 20)
#    0.000    1.429    1.429    5.143    4.000    3.429 
#    0.000    1.429    0.000    0.000    0.000    0.000 
#    0.000    0.000    0.000    0.000    0.000    0.000 
#
# Total GULP energy -156477.475466 kJ/mol
# GULP energy per Si atom -5588.481267 kJ/mol
# Density = 1.954534 g / cm^3
# Si number density = 19.589931 Si / 1000 Ang^3
#
#
#
# Elastic Constant Matrix: (Units=GPa)
#
#
# Indices 1 2 3 4 5 6 
#
# 1 108.1839 20.5051 42.3037 0.0000 0.0000 0.0000
# 2 20.5051 55.1177 7.6589 0.0000 0.0000 0.0000
# 3 42.3037 7.6589 146.9801 0.0000 -0.0001 0.0001
# 4 0.0000 0.0000 0.0000 18.0098 0.0000 0.0000
# 5 0.0000 0.0000 -0.0001 0.0000 12.2783 0.0000
# 6 0.0000 0.0000 0.0001 0.0000 0.0000 15.8451
#
#
#
# Elastic Compliance Matrix: (Units=1/GPa)
#
#
# Indices 1 2 3 4 5 6 
#
# 1 0.011125 -0.003721 -0.003008 0.000000 0.000000 0.000000
# 2 -0.003721 0.019520 0.000054 0.000000 0.000000 0.000000
# 3 -0.003008 0.000054 0.007667 0.000000 0.000000 0.000000
# 4 0.000000 0.000000 0.000000 0.055525 0.000000 0.000000
# 5 0.000000 0.000000 0.000000 0.000000 0.081445 0.000000
# 6 0.000000 0.000000 0.000000 0.000000 0.000000 0.063111
#
#
# Mechanical properties :
#
#
# Convention : Reuss Voigt Hill
#
# Bulk Modulus (GPa) = 40.06226 50.13525 45.09875
# Shear Modulus (GPa) = 19.22611 25.21424 22.22017
#
# Velocity S-wave (km/s) = 3.13617 3.59151 3.37154
# Velocity P-wave (km/s) = 5.79732 6.54573 6.18286
#
# Compressibility (1/GPa) = 0.02496115
#
# Stress axis : x y z
#
# Youngs Moduli (GPa) = 89.88736 51.23015 130.43540
#
# Poissons Ratio (x) = 0.19062 0.39236
# Poissons Ratio (y) = 0.33445 -0.00701
# Poissons Ratio (z) = 0.27039 -0.00275
#
# Static dielectric constant tensor:
#      x y z
#    x 1.694750 0.000000 0.000000 
#    y 0.000000 1.656850 0.000000 
#    z 0.000000 0.000000 1.676500 
# 
# From -- ./inp_files/18780.got.cif
#   From: 2010.05.17/outbox.cif.g08.bks.cpg/sg72_10_cif.got.tgz:18780.got - 2010.06.03 17:03:01.
