data_PCOD9528483
_publ_section_title
;
Structure prediction by ZEFSAII (Michael W. Deem and Ramdas Pophale) SiO2 
 PCOD9528483
Probable space group: I B A M
;
_chemical_formula_sum "Si O2"
_cell_formula_units_Z 116
_cell_length_a 22.816453
_cell_length_b 29.649296
_cell_length_c 9.666153
_cell_angle_alpha 90.000000
_cell_angle_beta 90.000000
_cell_angle_gamma 90.000000
_cell_volume 6539.072939
_symmetry_space_group_name_H-M "I B A M"
_symmetry_group_IT_number 72
_symmetry_cell_setting 'orthorhombic'
loop_
_space_group_symop_operation_xyz
x,y,z
-x,-y,z
x,-y,1/2-z
-x,y,1/2-z
-x,-y,-z
x,y,-z
-x,y,1/2+z
x,-y,1/2+z
1/2+x,1/2+y,1/2+z
1/2-x,1/2-y,1/2+z
1/2+x,1/2-y,-z
1/2-x,1/2+y,-z
1/2-x,1/2-y,1/2-z
1/2+x,1/2+y,1/2-z
1/2-x,1/2+y,z
1/2+x,1/2-y,z
loop_
_atom_site_type_symbol
_atom_site_label
_atom_site_fract_x
_atom_site_fract_y
_atom_site_fract_z
Si Si1 0.941415 0.847947 0.161259
Si Si2 0.100328 0.070739 0.659686
Si Si3 0.208175 0.717446 0.164609
Si Si4 0.189127 0.630691 0.664825
Si Si5 0.604184 0.754189 0.655942
Si Si6 0.000000 0.000000 0.250000
Si Si7 0.946100 0.649340 0.843148
Si Si8 0.265600 0.458067 0.839047
O O1 0.905270 0.887659 0.234630
O O2 0.916616 0.797121 0.166478
O O3 0.000000 0.847314 0.250000
O O4 0.951056 0.859130 0.000000
O O5 0.098491 0.086530 0.500000
O O6 0.164982 0.050480 0.684630
O O7 0.046704 0.034721 0.677942
O O8 0.250000 0.750000 0.250000
O O9 0.214745 0.668490 0.233684
O O10 0.144937 0.734986 0.214087
O O11 0.216143 0.717781 0.000000
O O12 0.195362 0.642265 0.500000
O O13 0.118962 0.630793 0.692845
O O14 0.225300 0.585325 0.688592
O O15 0.632165 0.758351 0.500000
O O16 0.558724 0.795741 0.659066
O O17 0.000000 0.634764 0.750000
O O18 0.957640 0.635645 0.000000
O O19 0.245924 0.500000 0.750000
O O20 0.259418 0.468846 0.000000
#
# Coordination Sequence:
#
# PCOD9528483 Si02
#       8
#    16  16  16  16  16   4  16  16
#     4  11  23  37  55  80 112 147 187 236 288 340
#     4  11  24  39  58  83 110 145 190 239 296 354
#     4  11  22  35  54  80 111 152 195 238 284 340
#     4   9  20  39  59  83 118 154 191 239 290 346
#     4   9  20  37  53  77 113 151 189 233 281 334
#     4  12  22  40  64  82 110 144 188 248 306 344
#     4   9  17  32  56  83 115 151 188 230 278 333
#     4  10  22  41  63  87 114 148 191 239 296 355
#
# _framework density 17.739516999999999
#
# number of rings (size 3 to 8) (size 9 to 14) (size 15 to 20)
#    0.000    1.931    1.379    3.103    1.931    4.966 
#    0.000    0.000    0.000    0.414    0.000    2.897 
#    0.000    0.000    0.000    0.000    0.000    0.000 
#
# Total GULP energy -323066.629061 kJ/mol
# GULP energy per Si atom -5570.114294 kJ/mol
# Density = 1.769914 g / cm^3
# Si number density = 17.739517 Si / 1000 Ang^3
#
#
#
# Elastic Constant Matrix: (Units=GPa)
#
#
# Indices 1 2 3 4 5 6 
#
# 1 80.0008 53.8735 60.5517 0.0000 0.0000 0.0000
# 2 53.8735 95.4369 79.3622 0.0000 0.0000 0.0000
# 3 60.5517 79.3622 124.7648 0.0000 0.0000 0.0000
# 4 0.0000 0.0000 0.0000 27.0000 0.0000 0.0000
# 5 0.0000 0.0000 0.0000 0.0000 27.7596 0.0000
# 6 0.0000 0.0000 0.0000 0.0000 0.0000 12.2138
#
#
#
# Elastic Compliance Matrix: (Units=1/GPa)
#
#
# Indices 1 2 3 4 5 6 
#
# 1 0.022042 -0.007530 -0.005908 0.000000 0.000000 0.000000
# 2 -0.007530 0.024817 -0.012131 0.000000 0.000000 0.000000
# 3 -0.005908 -0.012131 0.018599 0.000000 0.000000 0.000000
# 4 0.000000 0.000000 0.000000 0.037037 0.000000 0.000000
# 5 0.000000 0.000000 0.000000 0.000000 0.036024 0.000000
# 6 0.000000 0.000000 0.000000 0.000000 0.000000 0.081875
#
#
# Mechanical properties :
#
#
# Convention : Reuss Voigt Hill
#
# Bulk Modulus (GPa) = 69.83395 76.41970 73.12683
# Shear Modulus (GPa) = 18.09594 20.48899 19.29247
#
# Velocity S-wave (km/s) = 3.19735 3.40220 3.30137
# Velocity P-wave (km/s) = 7.28578 7.65543 7.47289
#
# Compressibility (1/GPa) = 0.01431968
#
# Stress axis : x y z
#
# Youngs Moduli (GPa) = 45.36743 40.29552 53.76608
#
# Poissons Ratio (x) = 0.30342 0.31765
# Poissons Ratio (y) = 0.34161 0.65225
# Poissons Ratio (z) = 0.26803 0.48884
#
# Static dielectric constant tensor:
#      x y z
#    x 1.697150 0.000000 0.000000 
#    y 0.000000 1.621890 0.000000 
#    z 0.000000 0.000000 1.646340 
# 
# From -- ./inp_files/7530.got.cif
#   From: 2010.05.17/outbox.cif.g08.bks.cpg/sg72_4_cif.got.tgz:7530.got - 2010.06.03 17:03:01.
