data_PCOD9528898
_publ_section_title
;
Structure prediction by ZEFSAII (Michael W. Deem and Ramdas Pophale) SiO2 
 PCOD9528898
Probable space group: I B A M
;
_chemical_formula_sum "Si O2"
_cell_formula_units_Z 64
_cell_length_a 8.908877
_cell_length_b 11.203633
_cell_length_c 27.654753
_cell_angle_alpha 90.000000
_cell_angle_beta 90.000000
_cell_angle_gamma 90.000000
_cell_volume 2760.270353
_symmetry_space_group_name_H-M "I B A M"
_symmetry_group_IT_number 72
_symmetry_cell_setting 'orthorhombic'
loop_
_space_group_symop_operation_xyz
x,y,z
-x,-y,z
x,-y,1/2-z
-x,y,1/2-z
-x,-y,-z
x,y,-z
-x,y,1/2+z
x,-y,1/2+z
1/2+x,1/2+y,1/2+z
1/2-x,1/2-y,1/2+z
1/2+x,1/2-y,-z
1/2-x,1/2+y,-z
1/2-x,1/2-y,1/2-z
1/2+x,1/2+y,1/2-z
1/2-x,1/2+y,z
1/2+x,1/2-y,z
loop_
_atom_site_type_symbol
_atom_site_label
_atom_site_fract_x
_atom_site_fract_y
_atom_site_fract_z
Si Si1 0.669688 0.286658 0.445072
Si Si2 0.395387 0.608603 0.912858
Si Si3 0.168482 0.453104 0.873557
Si Si4 0.671580 0.869579 0.268176
O O1 0.622876 0.310541 0.500000
O O2 0.524645 0.290893 0.409966
O O3 0.762753 0.164601 0.444187
O O4 0.781091 0.384115 0.421896
O O5 0.500000 0.500000 0.931566
O O6 0.298954 0.555015 0.868831
O O7 0.178340 0.372505 0.826237
O O8 0.000000 0.500000 0.876878
O O9 0.500000 0.865738 0.250000
O O10 0.750000 0.750000 0.250000
O O11 0.730507 0.000000 0.250000
#
# Coordination Sequence:
#
# PCOD9528898 Si02
#       4
#    16  16  16  16
#     4  11  24  42  69 106 151 201 253 315 379 460
#     4  10  24  43  68 105 145 195 254 305 384 448
#     4  11  24  45  74 102 148 195 254 313 381 465
#     4  11  26  51  78 113 153 199 257 322 393 467
#
# _framework density 23.186136000000001
#
# number of rings (size 3 to 8) (size 9 to 14) (size 15 to 20)
#    0.000    1.250    2.500    2.250    3.500   14.000 
#    4.500    0.000    0.000    0.000    0.000    0.000 
#    0.000    0.000    0.000    0.000    0.000    0.000 
#
# Total GULP energy -178385.083339 kJ/mol
# GULP energy per Si atom -5574.533854 kJ/mol
# Density = 2.313336 g / cm^3
# Si number density = 23.186136 Si / 1000 Ang^3
#
#
#
# Elastic Constant Matrix: (Units=GPa)
#
#
# Indices 1 2 3 4 5 6 
#
# 1 168.8908 78.5341 38.2155 0.0000 0.0000 0.0000
# 2 78.5341 126.3941 38.5526 0.0000 0.0000 0.0000
# 3 38.2155 38.5526 88.4714 0.0000 0.0000 0.0000
# 4 0.0000 0.0000 0.0000 35.9673 0.0000 0.0000
# 5 0.0000 0.0000 0.0000 0.0000 17.6818 0.0000
# 6 0.0000 0.0000 0.0000 0.0000 0.0000 50.5873
#
#
#
# Elastic Compliance Matrix: (Units=1/GPa)
#
#
# Indices 1 2 3 4 5 6 
#
# 1 0.008515 -0.004808 -0.001583 0.000000 0.000000 0.000000
# 2 -0.004808 0.011839 -0.003082 0.000000 0.000000 0.000000
# 3 -0.001583 -0.003082 0.013330 0.000000 0.000000 0.000000
# 4 0.000000 0.000000 0.000000 0.027803 0.000000 0.000000
# 5 0.000000 0.000000 0.000000 0.000000 0.056555 0.000000
# 6 0.000000 0.000000 0.000000 0.000000 0.000000 0.019768
#
#
# Mechanical properties :
#
#
# Convention : Reuss Voigt Hill
#
# Bulk Modulus (GPa) = 67.85240 77.15119 72.50180
# Shear Modulus (GPa) = 30.92739 36.07755 33.50247
#
# Velocity S-wave (km/s) = 3.65619 3.94889 3.80535
# Velocity P-wave (km/s) = 6.86668 7.35789 7.11653
#
# Compressibility (1/GPa) = 0.01473787
#
# Stress axis : x y z
#
# Youngs Moduli (GPa) = 117.44297 84.46499 75.01864
#
# Poissons Ratio (x) = 0.40609 0.11875
# Poissons Ratio (y) = 0.56464 0.23124
# Poissons Ratio (z) = 0.18590 0.26035
#
# Static dielectric constant tensor:
#      x y z
#    x 1.867350 0.000000 0.000000 
#    y 0.000000 2.081030 0.000000 
#    z 0.000000 0.000000 1.971100 
# 
# From -- ./inp_files/50604.got.cif
#   From: 2010.05.17/outbox.cif.g08.bks.cpg/sg72_26_cif.got.tgz:50604.got - 2010.06.03 17:03:01.
