data_PCOD9528238
_publ_section_title
;
Structure prediction by ZEFSAII (Michael W. Deem and Ramdas Pophale) SiO2 
 PCOD9528238
Probable space group: I B A M
;
_chemical_formula_sum "Si O2"
_cell_formula_units_Z 96
_cell_length_a 19.255929
_cell_length_b 16.857766
_cell_length_c 15.004488
_cell_angle_alpha 90.000000
_cell_angle_beta 90.000000
_cell_angle_gamma 90.000000
_cell_volume 4870.636036
_symmetry_space_group_name_H-M "I B A M"
_symmetry_group_IT_number 72
_symmetry_cell_setting 'orthorhombic'
loop_
_space_group_symop_operation_xyz
x,y,z
-x,-y,z
x,-y,1/2-z
-x,y,1/2-z
-x,-y,-z
x,y,-z
-x,y,1/2+z
x,-y,1/2+z
1/2+x,1/2+y,1/2+z
1/2-x,1/2-y,1/2+z
1/2+x,1/2-y,-z
1/2-x,1/2+y,-z
1/2-x,1/2-y,1/2-z
1/2+x,1/2+y,1/2-z
1/2-x,1/2+y,z
1/2+x,1/2-y,z
loop_
_atom_site_type_symbol
_atom_site_label
_atom_site_fract_x
_atom_site_fract_y
_atom_site_fract_z
Si Si1 0.994116 0.132792 0.000000
Si Si2 0.535697 0.251357 0.840732
Si Si3 0.703699 0.439267 0.825740
Si Si4 0.382443 0.496805 0.500000
Si Si5 0.165955 0.659695 0.102243
Si Si6 0.669889 0.720210 0.250507
Si Si7 0.478485 0.915826 0.395223
O O1 0.921948 0.082468 0.000000
O O2 0.007735 0.190792 0.916765
O O3 0.055853 0.067956 0.000000
O O4 0.500000 0.280156 0.750000
O O5 0.619098 0.249656 0.828593
O O6 0.513871 0.160946 0.854811
O O7 0.729080 0.500000 0.750000
O O8 0.765174 0.386311 0.867544
O O9 0.663085 0.373689 0.765636
O O10 0.662141 0.479239 0.908871
O O11 0.146016 0.736656 0.160289
O O12 0.103347 0.598026 0.111937
O O13 0.172676 0.683696 0.000000
O O14 0.750000 0.750000 0.250000
O O15 0.497036 0.915127 0.500000
O O16 0.500000 0.000000 0.357003
#
# Coordination Sequence:
#
# PCOD9528238 Si02
#       7
#     8  16  16   8  16  16  16
#     4  11  26  42  68  95 137 177 233 278 345 418
#     4  12  23  42  67  97 134 178 226 283 344 415
#     4  11  24  43  67  96 138 173 233 288 343 411
#     4  11  24  44  67  99 130 187 224 288 348 400
#     4  10  21  43  67  93 133 180 222 281 348 416
#     4  10  23  42  65  96 126 173 227 278 337 411
#     4  10  22  39  64  97 129 166 219 276 337 407
#
# _framework density 19.709952000000001
#
# number of rings (size 3 to 8) (size 9 to 14) (size 15 to 20)
#    0.000    1.333    5.000    0.000    2.333    3.000 
#    1.500    1.667    0.000    0.000    0.000    0.000 
#    0.000    0.000    0.000    0.000    0.000    0.000 
#
# Total GULP energy -267468.949835 kJ/mol
# GULP energy per Si atom -5572.269788 kJ/mol
# Density = 1.966509 g / cm^3
# Si number density = 19.709952 Si / 1000 Ang^3
#
#
#
# Elastic Constant Matrix: (Units=GPa)
#
#
# Indices 1 2 3 4 5 6 
#
# 1 58.5109 31.2074 37.7877 0.0000 0.0000 0.0000
# 2 31.2074 116.8703 72.8205 0.0000 0.0000 0.0000
# 3 37.7877 72.8205 137.9809 0.0000 0.0000 0.0000
# 4 0.0000 0.0000 0.0000 -104.0128 0.0000 0.0000
# 5 0.0000 0.0000 0.0000 0.0000 12.6363 0.0000
# 6 0.0000 0.0000 0.0000 0.0000 0.0000 9.2385
#
#
#
# Elastic Compliance Matrix: (Units=1/GPa)
#
#
# Indices 1 2 3 4 5 6 
#
# 1 0.021485 -0.003085 -0.004255 0.000000 0.000000 0.000000
# 2 -0.003085 0.013192 -0.006117 0.000000 0.000000 0.000000
# 3 -0.004255 -0.006117 0.011641 0.000000 0.000000 0.000000
# 4 0.000000 0.000000 0.000000 -0.009614 0.000000 0.000000
# 5 0.000000 0.000000 0.000000 0.000000 0.079137 0.000000
# 6 0.000000 0.000000 0.000000 0.000000 0.000000 0.108243
#
#
# Mechanical properties :
#
#
# Convention : Reuss Voigt Hill
#
# Bulk Modulus (GPa) = 51.54193 66.33258 58.93726
# Shear Modulus (GPa) = 19.41998 -4.99116 7.21441
#
# Velocity S-wave (km/s) = 3.14234 -1.59305 1.91526
# Velocity P-wave (km/s) = 6.27476 5.50851 5.90408
#
# Compressibility (1/GPa) = 0.01940168
#
# Stress axis : x y z
#
# Youngs Moduli (GPa) = 46.54460 75.80403 85.90208
#
# Poissons Ratio (x) = 0.23389 0.36555
# Poissons Ratio (y) = 0.14361 0.52548
# Poissons Ratio (z) = 0.19807 0.46370
#
# Static dielectric constant tensor:
#      x y z
#    x 1.745660 0.000000 0.000000 
#    y 0.000000 1.674190 0.000000 
#    z 0.000000 0.000000 1.722310 
# 
# From -- ./inp_files/24179.got.cif
#   From: 2010.05.17/outbox.cif.g08.bks.cpg/sg72_13_cif.got.tgz:24179.got - 2010.06.03 17:03:01.
