data_PCOD9528658
_publ_section_title
;
Structure prediction by ZEFSAII (Michael W. Deem and Ramdas Pophale) SiO2 
 PCOD9528658
Probable space group: I B A M
;
_chemical_formula_sum "Si O2"
_cell_formula_units_Z 104
_cell_length_a 24.375167
_cell_length_b 8.983390
_cell_length_c 22.246102
_cell_angle_alpha 90.000000
_cell_angle_beta 90.000000
_cell_angle_gamma 90.000000
_cell_volume 4871.265249
_symmetry_space_group_name_H-M "I B A M"
_symmetry_group_IT_number 72
_symmetry_cell_setting 'orthorhombic'
loop_
_space_group_symop_operation_xyz
x,y,z
-x,-y,z
x,-y,1/2-z
-x,y,1/2-z
-x,-y,-z
x,y,-z
-x,y,1/2+z
x,-y,1/2+z
1/2+x,1/2+y,1/2+z
1/2-x,1/2-y,1/2+z
1/2+x,1/2-y,-z
1/2-x,1/2+y,-z
1/2-x,1/2-y,1/2-z
1/2+x,1/2+y,1/2-z
1/2-x,1/2+y,z
1/2+x,1/2-y,z
loop_
_atom_site_type_symbol
_atom_site_label
_atom_site_fract_x
_atom_site_fract_y
_atom_site_fract_z
Si Si1 0.861786 0.611950 0.800702
Si Si2 0.702174 0.850164 0.500000
Si Si3 0.444683 0.903914 0.626312
Si Si4 0.325274 0.415237 0.869190
Si Si5 0.771677 0.212761 0.373915
Si Si6 0.385074 0.107684 0.000000
Si Si7 0.422216 0.651026 0.719177
Si Si8 0.825789 0.906486 0.500000
O O1 0.840862 0.500000 0.750000
O O2 0.898044 0.509219 0.844398
O O3 0.811475 0.695340 0.830750
O O4 0.901463 0.734675 0.770115
O O5 0.706500 0.752902 0.559750
O O6 0.760541 0.938618 0.500000
O O7 0.648225 0.952159 0.500000
O O8 0.421949 0.869569 0.559588
O O9 0.452435 0.758511 0.669807
O O10 0.500000 0.000000 0.623424
O O11 0.291158 0.262769 0.870740
O O12 0.280418 0.541957 0.858760
O O13 0.370235 0.407411 0.818752
O O14 0.349335 0.452231 0.935395
O O15 0.337056 0.230038 0.000000
O O16 0.444615 0.500000 0.750000
#
# Coordination Sequence:
#
# PCOD9528658 Si02
#       8
#    16   8  16  16  16   8  16   8
#     4  10  23  39  62  89 131 173 221 274 336 400
#     4  10  23  33  63  91 136 176 226 259 334 399
#     4  11  25  46  72 100 131 172 229 288 351 402
#     4  11  24  37  63  94 137 179 228 271 338 405
#     4  11  23  38  59  93 134 181 226 273 333 409
#     4  12  21  42  72 104 138 176 215 288 338 405
#     4  11  23  43  65  97 134 175 224 276 336 404
#     4  10  23  35  61  97 134 176 221 267 330 395
#
# _framework density 21.349689999999999
#
# number of rings (size 3 to 8) (size 9 to 14) (size 15 to 20)
#    0.000    1.231    4.615    0.692   12.923    4.000 
#    0.000    1.538    0.000    0.000    0.000    4.308 
#    0.000    0.000    0.000    0.000    0.000    0.000 
#
# Total GULP energy -290447.282936 kJ/mol
# GULP energy per Si atom -5585.524672 kJ/mol
# Density = 2.130110 g / cm^3
# Si number density = 21.349690 Si / 1000 Ang^3
#
#
#
# Elastic Constant Matrix: (Units=GPa)
#
#
# Indices 1 2 3 4 5 6 
#
# 1 65.2763 20.6455 39.7053 0.0000 0.0000 0.0000
# 2 20.6455 105.5243 39.1112 0.0000 0.0000 0.0000
# 3 39.7053 39.1112 128.3162 0.0000 0.0000 0.0000
# 4 0.0000 0.0000 0.0000 24.4931 0.0000 0.0000
# 5 0.0000 0.0000 0.0000 0.0000 -327.2744 0.0000
# 6 0.0000 0.0000 0.0000 0.0000 0.0000 7.1578
#
#
#
# Elastic Compliance Matrix: (Units=1/GPa)
#
#
# Indices 1 2 3 4 5 6 
#
# 1 0.019153 -0.001748 -0.005394 0.000000 0.000000 0.000000
# 2 -0.001748 0.010843 -0.002764 0.000000 0.000000 0.000000
# 3 -0.005394 -0.002764 0.010305 0.000000 0.000000 0.000000
# 4 0.000000 0.000000 0.000000 0.040828 0.000000 0.000000
# 5 0.000000 0.000000 0.000000 0.000000 -0.003056 0.000000
# 6 0.000000 0.000000 0.000000 0.000000 0.000000 0.139708
#
#
# Mechanical properties :
#
#
# Convention : Reuss Voigt Hill
#
# Bulk Modulus (GPa) = 48.80665 55.33785 52.07225
# Shear Modulus (GPa) = 20.45636 -45.81439 -12.67902
#
# Velocity S-wave (km/s) = 3.09877 -4.63742 -2.43960
# Velocity P-wave (km/s) = 5.97607 1.64261 4.06296
#
# Compressibility (1/GPa) = 0.02048901
#
# Stress axis : x y z
#
# Youngs Moduli (GPa) = 52.21043 92.22569 97.04250
#
# Poissons Ratio (x) = 0.16122 0.52343
# Poissons Ratio (y) = 0.09127 0.26823
# Poissons Ratio (z) = 0.28161 0.25492
#
# Static dielectric constant tensor:
#      x y z
#    x 1.717190 0.000000 0.000000 
#    y 0.000000 1.803020 0.000000 
#    z 0.000000 0.000000 1.806370 
# 
# From -- ./inp_files/40815.got.cif
#   From: 2010.05.17/outbox.cif.g08.bks.cpg/sg72_21_cif.got.tgz:40815.got - 2010.06.03 17:03:01.
