data_PCOD9528434
_publ_section_title
;
Structure prediction by ZEFSAII (Michael W. Deem and Ramdas Pophale) SiO2 
 PCOD9528434
Probable space group: I B A M
;
_chemical_formula_sum "Si O2"
_cell_formula_units_Z 108
_cell_length_a 5.203807
_cell_length_b 27.530088
_cell_length_c 32.909174
_cell_angle_alpha 90.000000
_cell_angle_beta 90.000000
_cell_angle_gamma 90.000000
_cell_volume 4714.609886
_symmetry_space_group_name_H-M "I B A M"
_symmetry_group_IT_number 72
_symmetry_cell_setting 'orthorhombic'
loop_
_space_group_symop_operation_xyz
x,y,z
-x,-y,z
x,-y,1/2-z
-x,y,1/2-z
-x,-y,-z
x,y,-z
-x,y,1/2+z
x,-y,1/2+z
1/2+x,1/2+y,1/2+z
1/2-x,1/2-y,1/2+z
1/2+x,1/2-y,-z
1/2-x,1/2+y,-z
1/2-x,1/2-y,1/2-z
1/2+x,1/2+y,1/2-z
1/2-x,1/2+y,z
1/2+x,1/2-y,z
loop_
_atom_site_type_symbol
_atom_site_label
_atom_site_fract_x
_atom_site_fract_y
_atom_site_fract_z
Si Si1 0.304277 0.351461 0.135850
Si Si2 0.313653 0.912246 0.354435
Si Si3 0.745244 0.945385 0.767524
Si Si4 0.219462 0.216281 0.000000
Si Si5 0.084358 0.856502 0.954322
Si Si6 0.664376 0.457559 0.928351
Si Si7 0.000000 0.500000 0.000000
Si Si8 0.523188 0.719547 0.295772
O O1 0.527456 0.391987 0.138305
O O2 0.281694 0.338987 0.087452
O O3 0.423246 0.312359 0.166675
O O4 0.031669 0.371722 0.151019
O O5 0.287985 0.945721 0.315349
O O6 0.374287 0.938668 0.396376
O O7 0.500000 0.918421 0.750000
O O8 0.000000 0.921734 0.750000
O O9 0.746774 0.000000 0.750000
O O10 0.156034 0.180219 0.962282
O O11 0.490806 0.243257 0.000000
O O12 0.992723 0.911277 0.945815
O O13 0.213800 0.855987 0.000000
O O14 0.500000 0.500000 0.907375
O O15 0.800300 0.482396 0.965329
O O16 0.500000 0.698281 0.250000
O O17 0.820104 0.735717 0.298114
#
# Coordination Sequence:
#
# PCOD9528434 Si02
#       8
#    16  16  16   8  16  16   4  16
#     4  11  24  44  68 100 140 187 223 299 356 410
#     4  11  26  43  64 101 138 183 238 288 348 419
#     4  10  22  40  64  89 125 175 226 279 345 394
#     4  10  23  43  69  99 132 178 224 286 353 422
#     4   9  23  47  65 101 145 178 241 297 345 432
#     4  11  26  43  68 100 139 191 245 300 355 416
#     4  12  24  38  72  94 126 184 254 288 356 408
#     4  10  22  42  71 104 136 177 228 290 359 444
#
# _framework density 22.907515
#
# number of rings (size 3 to 8) (size 9 to 14) (size 15 to 20)
#    0.444    1.185    0.741    2.000    6.222    6.519 
#    2.667    0.000    0.000    0.000    0.000    0.000 
#    0.000    0.000    0.000    0.000    0.000    0.000 
#
# Total GULP energy -300618.016234 kJ/mol
# GULP energy per Si atom -5567.000301 kJ/mol
# Density = 2.285538 g / cm^3
# Si number density = 22.907515 Si / 1000 Ang^3
#
#
#
# Elastic Constant Matrix: (Units=GPa)
#
#
# Indices 1 2 3 4 5 6 
#
# 1 80.5645 13.5751 14.4428 0.0000 0.0000 0.0000
# 2 13.5751 70.6296 22.4750 0.0000 0.0000 0.0000
# 3 14.4428 22.4750 164.6410 0.0000 0.0000 0.0000
# 4 0.0000 0.0000 0.0000 17.8477 0.0000 0.0000
# 5 0.0000 0.0000 0.0000 0.0000 0.6589 0.0000
# 6 0.0000 0.0000 0.0000 0.0000 0.0000 355.0941
#
#
#
# Elastic Compliance Matrix: (Units=1/GPa)
#
#
# Indices 1 2 3 4 5 6 
#
# 1 0.012936 -0.002222 -0.000831 0.000000 0.000000 0.000000
# 2 -0.002222 0.015183 -0.001878 0.000000 0.000000 0.000000
# 3 -0.000831 -0.001878 0.006403 0.000000 0.000000 0.000000
# 4 0.000000 0.000000 0.000000 0.056030 0.000000 0.000000
# 5 0.000000 0.000000 0.000000 0.000000 1.517697 0.000000
# 6 0.000000 0.000000 0.000000 0.000000 0.000000 0.002816
#
#
# Mechanical properties :
#
#
# Convention : Reuss Voigt Hill
#
# Bulk Modulus (GPa) = 40.55147 46.31343 43.43245
# Shear Modulus (GPa) = 3.06909 92.40962 47.73935
#
# Velocity S-wave (km/s) = 1.15874 6.35829 4.57004
# Velocity P-wave (km/s) = 4.41938 8.61193 6.84457
#
# Compressibility (1/GPa) = 0.02466002
#
# Stress axis : x y z
#
# Youngs Moduli (GPa) = 77.30464 65.86367 156.17475
#
# Poissons Ratio (x) = 0.14633 0.12986
# Poissons Ratio (y) = 0.17175 0.29325
# Poissons Ratio (z) = 0.06428 0.12367
#
# Static dielectric constant tensor:
#      x y z
#    x 2.052330 0.000000 0.000000 
#    y 0.000000 1.915530 0.000000 
#    z 0.000000 0.000000 1.912250 
# 
# From -- ./inp_files/50460.got.cif
#   From: 2010.05.17/outbox.cif.g08.bks.cpg/sg72_26_cif.got.tgz:50460.got - 2010.06.03 17:03:01.
