data_PCOD9528517
_publ_section_title
;
Structure prediction by ZEFSAII (Michael W. Deem and Ramdas Pophale) SiO2 
 PCOD9528517
Probable space group: I B A M
;
_chemical_formula_sum "Si O2"
_cell_formula_units_Z 104
_cell_length_a 28.649153
_cell_length_b 21.901117
_cell_length_c 8.063341
_cell_angle_alpha 90.000000
_cell_angle_beta 90.000000
_cell_angle_gamma 90.000000
_cell_volume 5059.330827
_symmetry_space_group_name_H-M "I B A M"
_symmetry_group_IT_number 72
_symmetry_cell_setting 'orthorhombic'
loop_
_space_group_symop_operation_xyz
x,y,z
-x,-y,z
x,-y,1/2-z
-x,y,1/2-z
-x,-y,-z
x,y,-z
-x,y,1/2+z
x,-y,1/2+z
1/2+x,1/2+y,1/2+z
1/2-x,1/2-y,1/2+z
1/2+x,1/2-y,-z
1/2-x,1/2+y,-z
1/2-x,1/2-y,1/2-z
1/2+x,1/2+y,1/2-z
1/2-x,1/2+y,z
1/2+x,1/2-y,z
loop_
_atom_site_type_symbol
_atom_site_label
_atom_site_fract_x
_atom_site_fract_y
_atom_site_fract_z
Si Si1 0.875089 0.500000 0.750000
Si Si2 0.945684 0.401947 0.304403
Si Si3 0.797869 0.585834 0.693879
Si Si4 0.447264 0.232478 0.196034
Si Si5 0.310573 0.567806 0.197818
Si Si6 0.795600 0.284201 0.686442
Si Si7 0.136217 0.813737 0.194027
O O1 0.913273 0.448079 0.800367
O O2 0.835074 0.549311 0.804498
O O3 0.940776 0.418278 0.500000
O O4 0.931405 0.331036 0.281018
O O5 0.000000 0.406714 0.250000
O O6 0.803393 0.566533 0.500000
O O7 0.743990 0.576748 0.747652
O O8 0.807254 0.657514 0.704397
O O9 0.500000 0.243045 0.250000
O O10 0.416474 0.292507 0.228054
O O11 0.445915 0.219865 0.000000
O O12 0.324544 0.500000 0.250000
O O13 0.344837 0.618953 0.270267
O O14 0.311208 0.573996 0.000000
O O15 0.788173 0.306186 0.500000
O O16 0.750000 0.250000 0.750000
O O17 0.834593 0.233173 0.696770
O O18 0.145601 0.800871 0.000000
#
# Coordination Sequence:
#
# PCOD9528517 Si02
#       7
#     8  16  16  16  16  16  16
#     4  12  25  40  60  86 122 164 215 262 306 360
#     4  11  24  41  63  88 118 160 207 259 312 368
#     4  11  24  40  58  84 119 160 207 256 306 359
#     4  10  22  41  67  96 126 159 198 255 312 370
#     4  11  23  40  62  87 122 165 206 247 299 362
#     4  12  24  38  59  86 118 158 205 257 311 365
#     4  11  23  40  64  92 124 160 202 251 309 370
#
# _framework density 20.556076999999998
#
# number of rings (size 3 to 8) (size 9 to 14) (size 15 to 20)
#    0.000    0.923    2.308    5.769    0.000    9.846 
#    0.000    0.000    0.000    0.462    0.000    3.231 
#    0.000    0.000    0.000    0.000    0.000    0.000 
#
# Total GULP energy -290032.223096 kJ/mol
# GULP energy per Si atom -5577.542752 kJ/mol
# Density = 2.050929 g / cm^3
# Si number density = 20.556077 Si / 1000 Ang^3
#
#
#
# Elastic Constant Matrix: (Units=GPa)
#
#
# Indices 1 2 3 4 5 6 
#
# 1 104.1443 65.3213 23.7330 0.0000 0.0000 0.0000
# 2 65.3213 150.8165 16.5945 0.0000 0.0000 0.0000
# 3 23.7330 16.5945 76.6621 0.0000 0.0000 0.0000
# 4 0.0000 0.0000 0.0000 12.1956 0.0000 0.0000
# 5 0.0000 0.0000 0.0000 0.0000 6.1336 0.0000
# 6 0.0000 0.0000 0.0000 0.0000 0.0000 -231.7690
#
#
#
# Elastic Compliance Matrix: (Units=1/GPa)
#
#
# Indices 1 2 3 4 5 6 
#
# 1 0.013851 -0.005662 -0.003062 0.000000 0.000000 0.000000
# 2 -0.005662 0.009107 -0.000218 0.000000 0.000000 0.000000
# 3 -0.003062 -0.000218 0.014040 0.000000 0.000000 0.000000
# 4 0.000000 0.000000 0.000000 0.081997 0.000000 0.000000
# 5 0.000000 0.000000 0.000000 0.000000 0.163036 0.000000
# 6 0.000000 0.000000 0.000000 0.000000 0.000000 -0.004315
#
#
# Mechanical properties :
#
#
# Convention : Reuss Voigt Hill
#
# Bulk Modulus (GPa) = 52.32376 60.32448 56.32412
# Shear Modulus (GPa) = 16.55774 -27.62301 -5.53264
#
# Velocity S-wave (km/s) = 2.84120 -3.66975 -1.64235
# Velocity P-wave (km/s) = 6.02267 3.38437 4.88501
#
# Compressibility (1/GPa) = 0.01911177
#
# Stress axis : x y z
#
# Youngs Moduli (GPa) = 72.19448 109.80484 71.22710
#
# Poissons Ratio (x) = 0.62175 0.21813
# Poissons Ratio (y) = 0.40879 0.01556
# Poissons Ratio (z) = 0.22109 0.02398
#
# Static dielectric constant tensor:
#      x y z
#    x 0.859040 0.000000 0.000000 
#    y 0.000000 1.950690 0.000000 
#    z 0.000000 0.000000 1.805190 
# 
# From -- ./inp_files/8159.got.cif
#   From: 2010.05.17/outbox.cif.g08.bks.cpg/sg72_5_cif.got.tgz:8159.got - 2010.06.03 17:03:01.
