data_PCOD9528595
_publ_section_title
;
Structure prediction by ZEFSAII (Michael W. Deem and Ramdas Pophale) SiO2 
 PCOD9528595
Probable space group: I B A M
;
_chemical_formula_sum "Si O2"
_cell_formula_units_Z 68
_cell_length_a 31.289496
_cell_length_b 5.160994
_cell_length_c 18.850564
_cell_angle_alpha 90.000000
_cell_angle_beta 90.000000
_cell_angle_gamma 90.000000
_cell_volume 3044.081464
_symmetry_space_group_name_H-M "I B A M"
_symmetry_group_IT_number 72
_symmetry_cell_setting 'orthorhombic'
loop_
_space_group_symop_operation_xyz
x,y,z
-x,-y,z
x,-y,1/2-z
-x,y,1/2-z
-x,-y,-z
x,y,-z
-x,y,1/2+z
x,-y,1/2+z
1/2+x,1/2+y,1/2+z
1/2-x,1/2-y,1/2+z
1/2+x,1/2-y,-z
1/2-x,1/2+y,-z
1/2-x,1/2-y,1/2-z
1/2+x,1/2+y,1/2-z
1/2-x,1/2+y,z
1/2+x,1/2-y,z
loop_
_atom_site_type_symbol
_atom_site_label
_atom_site_fract_x
_atom_site_fract_y
_atom_site_fract_z
Si Si1 0.896315 0.193397 0.082970
Si Si2 0.221133 0.579758 0.419307
Si Si3 0.500000 0.000000 0.750000
Si Si4 0.427428 0.213559 0.655380
Si Si5 0.660850 0.382502 0.180763
O O1 0.915636 0.459292 0.111021
O O2 0.853593 0.103139 0.124655
O O3 0.928559 0.961174 0.104116
O O4 0.888199 0.203550 0.000000
O O5 0.203624 0.604611 0.500000
O O6 0.258421 0.796901 0.412253
O O7 0.187144 0.667403 0.361041
O O8 0.531047 0.829211 0.701527
O O9 0.385288 0.266034 0.703469
O O10 0.682693 0.500000 0.250000
#
# Coordination Sequence:
#
# PCOD9528595 Si02
#       5
#    16  16   4  16  16
#     4  10  22  43  66  96 129 172 223 274 325 393
#     4  10  23  41  63  94 130 175 220 268 328 389
#     4  12  24  50  66 102 140 174 218 282 332 410
#     4  10  25  39  70  95 130 179 219 269 335 394
#     4  10  23  42  66  99 133 174 222 269 335 396
#
# _framework density 22.338431
#
# number of rings (size 3 to 8) (size 9 to 14) (size 15 to 20)
#    1.412    0.471    0.000    2.824    3.294    2.824 
#    0.000    3.529    0.000    0.000    0.000    0.000 
#    0.000    0.000    0.000    0.000    0.000    0.000 
#
# Total GULP energy -190016.111269 kJ/mol
# GULP energy per Si atom -5588.709155 kJ/mol
# Density = 2.228759 g / cm^3
# Si number density = 22.338431 Si / 1000 Ang^3
#
#
#
# Elastic Constant Matrix: (Units=GPa)
#
#
# Indices 1 2 3 4 5 6 
#
# 1 82.2160 7.8375 26.7308 0.0000 0.0000 0.0000
# 2 7.8375 126.0494 29.1282 0.0000 0.0000 0.0000
# 3 26.7308 29.1282 98.8645 0.0000 0.0000 0.0000
# 4 0.0000 0.0000 0.0000 3.4142 0.0000 0.0000
# 5 0.0000 0.0000 0.0000 0.0000 0.3031 0.0000
# 6 0.0000 0.0000 0.0000 0.0000 0.0000 0.2663
#
#
#
# Elastic Compliance Matrix: (Units=1/GPa)
#
#
# Indices 1 2 3 4 5 6 
#
# 1 0.013335 0.000004 -0.003607 0.000000 0.000000 0.000000
# 2 0.000004 0.008513 -0.002509 0.000000 0.000000 0.000000
# 3 -0.003607 -0.002509 0.011829 0.000000 0.000000 0.000000
# 4 0.000000 0.000000 0.000000 0.292891 0.000000 0.000000
# 5 0.000000 0.000000 0.000000 0.000000 3.298942 0.000000
# 6 0.000000 0.000000 0.000000 0.000000 0.000000 3.754704
#
#
# Mechanical properties :
#
#
# Convention : Reuss Voigt Hill
#
# Bulk Modulus (GPa) = 46.61131 48.28031 47.44581
# Shear Modulus (GPa) = 0.67571 17.02563 8.85067
#
# Velocity S-wave (km/s) = 0.55059 2.76373 1.99266
# Velocity P-wave (km/s) = 4.61687 5.64308 5.15557
#
# Compressibility (1/GPa) = 0.02145402
#
# Stress axis : x y z
#
# Youngs Moduli (GPa) = 74.98851 117.46742 84.53518
#
# Poissons Ratio (x) = -0.00051 0.30491
# Poissons Ratio (y) = -0.00032 0.21213
# Poissons Ratio (z) = 0.27047 0.29476
#
# Static dielectric constant tensor:
#      x y z
#    x 1.844450 0.000000 0.000000 
#    y 0.000000 1.851610 0.000000 
#    z 0.000000 0.000000 1.786440 
# 
# From -- ./inp_files/40592.got.cif
#   From: 2010.05.17/outbox.cif.g08.bks.cpg/sg72_21_cif.got.tgz:40592.got - 2010.06.03 17:03:01.
