data_PCOD9528091
_publ_section_title
;
Structure prediction by ZEFSAII (Michael W. Deem and Ramdas Pophale) SiO2 
 PCOD9528091
Probable space group: I B A M
;
_chemical_formula_sum "Si O2"
_cell_formula_units_Z 96
_cell_length_a 21.047653
_cell_length_b 27.005910
_cell_length_c 8.596586
_cell_angle_alpha 90.000000
_cell_angle_beta 90.000000
_cell_angle_gamma 90.000000
_cell_volume 4886.394239
_symmetry_space_group_name_H-M "I B A M"
_symmetry_group_IT_number 72
_symmetry_cell_setting 'orthorhombic'
loop_
_space_group_symop_operation_xyz
x,y,z
-x,-y,z
x,-y,1/2-z
-x,y,1/2-z
-x,-y,-z
x,y,-z
-x,y,1/2+z
x,-y,1/2+z
1/2+x,1/2+y,1/2+z
1/2-x,1/2-y,1/2+z
1/2+x,1/2-y,-z
1/2-x,1/2+y,-z
1/2-x,1/2-y,1/2-z
1/2+x,1/2+y,1/2-z
1/2-x,1/2+y,z
1/2+x,1/2-y,z
loop_
_atom_site_type_symbol
_atom_site_label
_atom_site_fract_x
_atom_site_fract_y
_atom_site_fract_z
Si Si1 0.287115 0.205150 0.322823
Si Si2 0.084885 0.290437 0.679436
Si Si3 0.692654 0.944883 0.815416
Si Si4 0.565766 0.893537 0.681354
Si Si5 0.931103 0.174476 0.188232
Si Si6 0.308036 0.386353 0.176718
O O1 0.311567 0.214191 0.500000
O O2 0.250000 0.250000 0.250000
O O3 0.341114 0.197795 0.196109
O O4 0.238943 0.160302 0.333660
O O5 0.063744 0.295109 0.500000
O O6 0.060661 0.334348 0.788956
O O7 0.076760 0.233105 0.731837
O O8 0.631811 0.913632 0.752791
O O9 0.762607 0.924816 0.765518
O O10 0.685486 0.000000 0.750000
O O11 0.689055 0.944475 0.000000
O O12 0.500000 0.915232 0.750000
O O13 0.568291 0.903521 0.500000
O O14 0.873911 0.137765 0.240150
O O15 0.000000 0.158751 0.250000
O O16 0.929330 0.174111 0.000000
O O17 0.320215 0.404673 0.000000
#
# Coordination Sequence:
#
# PCOD9528091 Si02
#       6
#    16  16  16  16  16  16
#     4  11  20  32  54  83 119 159 204 251 299 354
#     4  11  21  36  56  85 124 167 211 251 295 351
#     4  12  26  45  69  95 119 152 198 253 311 372
#     4  12  25  42  62  90 126 167 209 253 301 355
#     4  10  22  38  57  86 126 166 206 249 297 357
#     4  10  21  40  61  86 121 160 201 254 308 362
#
# _framework density 19.64639
#
# number of rings (size 3 to 8) (size 9 to 14) (size 15 to 20)
#    0.000    1.000    3.333    4.500    0.000    4.333 
#    0.000    1.667    0.000    0.500    0.000    3.500 
#    0.000    0.000    0.000    0.000    0.000    0.000 
#
# Total GULP energy -267530.855006 kJ/mol
# GULP energy per Si atom -5573.559479 kJ/mol
# Density = 1.960167 g / cm^3
# Si number density = 19.646390 Si / 1000 Ang^3
#
#
#
# Elastic Constant Matrix: (Units=GPa)
#
#
# Indices 1 2 3 4 5 6 
#
# 1 153.2128 48.3286 39.0833 0.0000 0.0000 0.0000
# 2 48.3286 80.1156 37.5518 0.0000 0.0000 0.0000
# 3 39.0833 37.5518 105.0357 0.0000 0.0000 0.0000
# 4 0.0000 0.0000 0.0000 23.7873 0.0000 0.0000
# 5 0.0000 0.0000 0.0000 0.0000 31.0393 0.0000
# 6 0.0000 0.0000 0.0000 0.0000 0.0000 5.7769
#
#
#
# Elastic Compliance Matrix: (Units=1/GPa)
#
#
# Indices 1 2 3 4 5 6 
#
# 1 0.008266 -0.004258 -0.001553 0.000000 0.000000 0.000000
# 2 -0.004258 0.017188 -0.004561 0.000000 0.000000 0.000000
# 3 -0.001553 -0.004561 0.011729 0.000000 0.000000 0.000000
# 4 0.000000 0.000000 0.000000 0.042039 0.000000 0.000000
# 5 0.000000 0.000000 0.000000 0.000000 0.032217 0.000000
# 6 0.000000 0.000000 0.000000 0.000000 0.000000 0.173105
#
#
# Mechanical properties :
#
#
# Convention : Reuss Voigt Hill
#
# Bulk Modulus (GPa) = 60.83097 65.36573 63.09835
# Shear Modulus (GPa) = 16.08909 26.34738 21.21823
#
# Velocity S-wave (km/s) = 2.86481 3.66605 3.28991
# Velocity P-wave (km/s) = 6.47865 7.15983 6.82774
#
# Compressibility (1/GPa) = 0.01643899
#
# Stress axis : x y z
#
# Youngs Moduli (GPa) = 120.97159 58.17858 85.25829
#
# Poissons Ratio (x) = 0.24775 0.13244
# Poissons Ratio (y) = 0.51515 0.38883
# Poissons Ratio (z) = 0.18792 0.26533
#
# Static dielectric constant tensor:
#      x y z
#    x 1.706130 0.000000 0.000000 
#    y 0.000000 1.758250 0.000000 
#    z 0.000000 0.000000 1.384000 
# 
# From -- ./inp_files/6028.got.cif
#   From: 2010.05.17/outbox.cif.g08.bks.cpg/sg72_4_cif.got.tgz:6028.got - 2010.06.03 17:03:01.
