data_PCOD9528169
_publ_section_title
;
Structure prediction by ZEFSAII (Michael W. Deem and Ramdas Pophale) SiO2 
 PCOD9528169
Probable space group: I B A M
;
_chemical_formula_sum "Si O2"
_cell_formula_units_Z 112
_cell_length_a 14.873270
_cell_length_b 17.678089
_cell_length_c 21.628025
_cell_angle_alpha 90.000000
_cell_angle_beta 90.000000
_cell_angle_gamma 90.000000
_cell_volume 5686.678042
_symmetry_space_group_name_H-M "I B A M"
_symmetry_group_IT_number 72
_symmetry_cell_setting 'orthorhombic'
loop_
_space_group_symop_operation_xyz
x,y,z
-x,-y,z
x,-y,1/2-z
-x,y,1/2-z
-x,-y,-z
x,y,-z
-x,y,1/2+z
x,-y,1/2+z
1/2+x,1/2+y,1/2+z
1/2-x,1/2-y,1/2+z
1/2+x,1/2-y,-z
1/2-x,1/2+y,-z
1/2-x,1/2-y,1/2-z
1/2+x,1/2+y,1/2-z
1/2-x,1/2+y,z
1/2+x,1/2-y,z
loop_
_atom_site_type_symbol
_atom_site_label
_atom_site_fract_x
_atom_site_fract_y
_atom_site_fract_z
Si Si1 0.475406 0.208041 0.429579
Si Si2 0.770140 0.964587 0.927744
Si Si3 0.608407 0.662629 0.741973
Si Si4 0.311315 0.700167 0.107525
Si Si5 0.413810 0.953425 0.925070
Si Si6 0.906158 0.954458 0.662029
Si Si7 0.138343 0.213091 0.633541
O O1 0.504610 0.194404 0.500000
O O2 0.399761 0.272343 0.427776
O O3 0.427395 0.132604 0.404617
O O4 0.561989 0.231659 0.391184
O O5 0.766954 0.874429 0.921050
O O6 0.677940 0.005364 0.908510
O O7 0.843209 0.993214 0.878998
O O8 0.789787 0.983353 0.000000
O O9 0.500000 0.671173 0.750000
O O10 0.650030 0.678911 0.675762
O O11 0.624518 0.578762 0.770969
O O12 0.648931 0.719278 0.792581
O O13 0.235098 0.765342 0.106551
O O14 0.500000 0.000000 0.903607
O O15 0.414274 0.953028 0.000000
O O16 0.900937 0.872552 0.625611
O O17 0.000000 0.000000 0.666684
#
# Coordination Sequence:
#
# PCOD9528169 Si02
#       7
#    16  16  16  16  16  16  16
#     4  11  22  37  61  92 123 161 206 254 312 377
#     4  11  23  38  58  89 126 164 200 251 311 367
#     4  10  21  41  63  87 118 163 209 252 309 361
#     4  12  22  39  62  90 126 159 213 256 312 362
#     4   9  19  37  58  81 116 161 203 243 296 367
#     4  10  22  39  60  88 118 164 200 251 303 370
#     4  10  23  39  62  93 119 166 202 265 308 364
#
# _framework density 19.695155
#
# number of rings (size 3 to 8) (size 9 to 14) (size 15 to 20)
#    0.857    0.714    1.429    4.286    0.000    5.143 
#    0.000    0.000    0.000    0.000    0.000    0.000 
#    0.000    0.000    0.000    0.000    0.000    0.000 
#
# Total GULP energy -311972.398050 kJ/mol
# GULP energy per Si atom -5570.935679 kJ/mol
# Density = 1.965033 g / cm^3
# Si number density = 19.695155 Si / 1000 Ang^3
#
#
#
# Elastic Constant Matrix: (Units=GPa)
#
#
# Indices 1 2 3 4 5 6 
#
# 1 89.8416 25.9774 24.9692 0.0000 0.0000 0.0000
# 2 25.9774 84.2846 11.0495 0.0000 0.0000 0.0000
# 3 24.9692 11.0495 54.5703 0.0000 0.0000 0.0000
# 4 0.0000 0.0000 0.0000 20.3892 0.0000 0.0000
# 5 0.0000 0.0000 0.0000 0.0000 -50.9183 0.0000
# 6 0.0000 0.0000 0.0000 0.0000 0.0000 37.7888
#
#
#
# Elastic Compliance Matrix: (Units=1/GPa)
#
#
# Indices 1 2 3 4 5 6 
#
# 1 0.013683 -0.003489 -0.005554 0.000000 0.000000 0.000000
# 2 -0.003489 0.013078 -0.001052 0.000000 0.000000 0.000000
# 3 -0.005554 -0.001052 0.021079 0.000000 0.000000 0.000000
# 4 0.000000 0.000000 0.000000 0.049046 0.000000 0.000000
# 5 0.000000 0.000000 0.000000 0.000000 -0.019639 0.000000
# 6 0.000000 0.000000 0.000000 0.000000 0.000000 0.026463
#
#
# Mechanical properties :
#
#
# Convention : Reuss Voigt Hill
#
# Bulk Modulus (GPa) = 36.16602 39.18763 37.67683
# Shear Modulus (GPa) = 37.56102 12.56528 25.06315
#
# Velocity S-wave (km/s) = 4.37180 2.52858 3.57116
# Velocity P-wave (km/s) = 6.62467 5.33528 6.01463
#
# Compressibility (1/GPa) = 0.02765026
#
# Stress axis : x y z
#
# Youngs Moduli (GPa) = 73.08173 76.46536 47.43970
#
# Poissons Ratio (x) = 0.26680 0.26350
# Poissons Ratio (y) = 0.25499 0.04988
# Poissons Ratio (z) = 0.40593 0.08040
#
# Static dielectric constant tensor:
#      x y z
#    x 1.412170 0.000000 0.000000 
#    y 0.000000 1.760390 0.000000 
#    z 0.000000 0.000000 1.697170 
# 
# From -- ./inp_files/44364.got.cif
#   From: 2010.05.17/outbox.cif.g08.bks.cpg/sg72_23_cif.got.tgz:44364.got - 2010.06.03 17:03:01.
