data_PCOD9528469
_publ_section_title
;
Structure prediction by ZEFSAII (Michael W. Deem and Ramdas Pophale) SiO2 
 PCOD9528469
Probable space group: I B A M
;
_chemical_formula_sum "Si O2"
_cell_formula_units_Z 60
_cell_length_a 9.685366
_cell_length_b 10.154171
_cell_length_c 24.476616
_cell_angle_alpha 90.000000
_cell_angle_beta 90.000000
_cell_angle_gamma 90.000000
_cell_volume 2407.198390
_symmetry_space_group_name_H-M "I B A M"
_symmetry_group_IT_number 72
_symmetry_cell_setting 'orthorhombic'
loop_
_space_group_symop_operation_xyz
x,y,z
-x,-y,z
x,-y,1/2-z
-x,y,1/2-z
-x,-y,-z
x,y,-z
-x,y,1/2+z
x,-y,1/2+z
1/2+x,1/2+y,1/2+z
1/2-x,1/2-y,1/2+z
1/2+x,1/2-y,-z
1/2-x,1/2+y,-z
1/2-x,1/2-y,1/2-z
1/2+x,1/2+y,1/2-z
1/2-x,1/2+y,z
1/2+x,1/2-y,z
loop_
_atom_site_type_symbol
_atom_site_label
_atom_site_fract_x
_atom_site_fract_y
_atom_site_fract_z
Si Si1 0.300121 0.963877 0.000000
Si Si2 0.204889 0.695983 0.191701
Si Si3 0.500000 0.000000 0.250000
Si Si4 0.000000 0.500000 0.906584
Si Si5 0.924919 0.167611 0.500000
Si Si6 0.472276 0.289522 0.376219
O O1 0.374446 0.029071 0.052279
O O2 0.152390 0.028198 0.000000
O O3 0.330258 0.806005 0.000000
O O4 0.250000 0.750000 0.250000
O O5 0.336529 0.656249 0.154533
O O6 0.102612 0.581190 0.211130
O O7 0.112113 0.802294 0.158628
O O8 0.952419 0.631718 0.877822
O O9 0.991603 0.174570 0.560351
#
# Coordination Sequence:
#
# PCOD9528469 Si02
#       6
#     8  16   4   8   8  16
#     4   9  18  38  67 103 153 202 253 287 374 465
#     4  12  25  46  75 105 139 198 252 309 373 443
#     4  12  26  52  84 100 148 198 258 326 390 434
#     4   9  19  38  72 102 140 207 241 298 372 456
#     4  10  22  40  71 112 153 204 245 309 390 469
#     4  11  23  42  76 110 149 190 255 305 381 462
#
# _framework density 24.925242000000001
#
# number of rings (size 3 to 8) (size 9 to 14) (size 15 to 20)
#    0.000    1.333    2.667    3.200    0.000    3.200 
#    0.000    2.667    5.867   30.400    0.000    0.000 
#    0.000    0.000    0.000    0.000    0.000    0.000 
#
# Total GULP energy -167500.032326 kJ/mol
# GULP energy per Si atom -5583.334411 kJ/mol
# Density = 2.486851 g / cm^3
# Si number density = 24.925242 Si / 1000 Ang^3
#
#
#
# Elastic Constant Matrix: (Units=GPa)
#
#
# Indices 1 2 3 4 5 6 
#
# 1 128.5514 23.1183 82.5621 0.0000 0.0000 0.0000
# 2 23.1183 89.7899 30.9249 0.0000 0.0000 0.0000
# 3 82.5621 30.9249 205.0370 0.0000 0.0000 0.0000
# 4 0.0000 0.0000 0.0000 43.3557 0.0000 0.0000
# 5 0.0000 0.0000 0.0000 0.0000 120.3406 0.0000
# 6 0.0000 0.0000 0.0000 0.0000 0.0000 45.3640
#
#
#
# Elastic Compliance Matrix: (Units=1/GPa)
#
#
# Indices 1 2 3 4 5 6 
#
# 1 0.010642 -0.001333 -0.004084 0.000000 0.000000 0.000000
# 2 -0.001333 0.011914 -0.001260 0.000000 0.000000 0.000000
# 3 -0.004084 -0.001260 0.006712 0.000000 0.000000 0.000000
# 4 0.000000 0.000000 0.000000 0.023065 0.000000 0.000000
# 5 0.000000 0.000000 0.000000 0.000000 0.008310 0.000000
# 6 0.000000 0.000000 0.000000 0.000000 0.000000 0.022044
#
#
# Mechanical properties :
#
#
# Convention : Reuss Voigt Hill
#
# Bulk Modulus (GPa) = 62.84188 77.39877 70.12033
# Shear Modulus (GPa) = 49.33607 60.93026 55.13316
#
# Velocity S-wave (km/s) = 4.45383 4.94957 4.70823
# Velocity P-wave (km/s) = 7.19136 7.98650 7.59934
#
# Compressibility (1/GPa) = 0.01591295
#
# Stress axis : x y z
#
# Youngs Moduli (GPa) = 93.96986 83.93202 148.99313
#
# Poissons Ratio (x) = 0.11191 0.60849
# Poissons Ratio (y) = 0.12530 0.18775
# Poissons Ratio (z) = 0.38377 0.10576
#
# Static dielectric constant tensor:
#      x y z
#    x 1.592970 0.000000 0.000000 
#    y 0.000000 1.996540 0.000000 
#    z 0.000000 0.000000 2.002790 
# 
# From -- ./inp_files/46925.got.cif
#   From: 2010.05.17/outbox.cif.g08.bks.cpg/sg72_24_cif.got.tgz:46925.got - 2010.06.03 17:03:01.
