data_PCOD9528574
_publ_section_title
;
Structure prediction by ZEFSAII (Michael W. Deem and Ramdas Pophale) SiO2 
 PCOD9528574
Probable space group: I B A M
;
_chemical_formula_sum "Si O2"
_cell_formula_units_Z 64
_cell_length_a 16.386900
_cell_length_b 8.854650
_cell_length_c 20.796894
_cell_angle_alpha 90.000000
_cell_angle_beta 90.000000
_cell_angle_gamma 90.000000
_cell_volume 3017.634812
_symmetry_space_group_name_H-M "I B A M"
_symmetry_group_IT_number 72
_symmetry_cell_setting 'orthorhombic'
loop_
_space_group_symop_operation_xyz
x,y,z
-x,-y,z
x,-y,1/2-z
-x,y,1/2-z
-x,-y,-z
x,y,-z
-x,y,1/2+z
x,-y,1/2+z
1/2+x,1/2+y,1/2+z
1/2-x,1/2-y,1/2+z
1/2+x,1/2-y,-z
1/2-x,1/2+y,-z
1/2-x,1/2-y,1/2-z
1/2+x,1/2+y,1/2-z
1/2-x,1/2+y,z
1/2+x,1/2-y,z
loop_
_atom_site_type_symbol
_atom_site_label
_atom_site_fract_x
_atom_site_fract_y
_atom_site_fract_z
Si Si1 0.363556 0.264513 0.714518
Si Si2 0.659735 0.762978 0.075069
Si Si3 0.471997 0.673968 0.339568
Si Si4 0.745335 0.016109 0.844576
O O1 0.445356 0.235162 0.673509
O O2 0.402984 0.292876 0.784812
O O3 0.314542 0.408605 0.686669
O O4 0.302132 0.125421 0.705105
O O5 0.568230 0.714495 0.093287
O O6 0.684185 0.908290 0.116850
O O7 0.714229 0.626705 0.103097
O O8 0.672304 0.786225 0.000000
O O9 0.500000 0.500000 0.333684
#
# Coordination Sequence:
#
# PCOD9528574 Si02
#       4
#    16  16  16  16
#     4  10  22  42  68  94 133 162 219 277 332 394
#     4  11  24  42  65  95 134 176 224 266 322 396
#     4  11  23  42  65  97 133 171 214 274 332 396
#     4  10  23  42  67  98 127 174 220 275 333 381
#
# _framework density 21.208663000000001
#
# number of rings (size 3 to 8) (size 9 to 14) (size 15 to 20)
#    0.000    1.500    2.500    2.250    0.000    8.500 
#    0.000    6.250    0.000    0.000    0.000    0.000 
#    0.000    0.000    0.000    0.000    0.000    0.000 
#
# Total GULP energy -178951.707256 kJ/mol
# GULP energy per Si atom -5592.240852 kJ/mol
# Density = 2.116039 g / cm^3
# Si number density = 21.208663 Si / 1000 Ang^3
#
#
#
# Elastic Constant Matrix: (Units=GPa)
#
#
# Indices 1 2 3 4 5 6 
#
# 1 112.7069 42.8745 44.2725 0.0000 0.0000 0.0000
# 2 42.8745 117.0750 47.3611 0.0000 0.0000 0.0000
# 3 44.2725 47.3611 81.3774 0.0000 0.0000 0.0000
# 4 0.0000 0.0000 0.0000 13.3359 0.0000 0.0000
# 5 0.0000 0.0000 0.0000 0.0000 31.2862 0.0000
# 6 0.0000 0.0000 0.0000 0.0000 0.0000 37.1913
#
#
#
# Elastic Compliance Matrix: (Units=1/GPa)
#
#
# Indices 1 2 3 4 5 6 
#
# 1 0.011716 -0.002239 -0.005071 0.000000 0.000000 0.000000
# 2 -0.002239 0.011600 -0.005533 0.000000 0.000000 0.000000
# 3 -0.005071 -0.005533 0.018267 0.000000 0.000000 0.000000
# 4 0.000000 0.000000 0.000000 0.074985 0.000000 0.000000
# 5 0.000000 0.000000 0.000000 0.000000 0.031963 0.000000
# 6 0.000000 0.000000 0.000000 0.000000 0.000000 0.026888
#
#
# Mechanical properties :
#
#
# Convention : Reuss Voigt Hill
#
# Bulk Modulus (GPa) = 62.90309 64.46394 63.68352
# Shear Modulus (GPa) = 24.22427 28.13943 26.18185
#
# Velocity S-wave (km/s) = 3.38329 3.64646 3.51734
# Velocity P-wave (km/s) = 6.70714 6.94190 6.82553
#
# Compressibility (1/GPa) = 0.01589747
#
# Stress axis : x y z
#
# Youngs Moduli (GPa) = 85.35099 86.20853 54.74299
#
# Poissons Ratio (x) = 0.19305 0.27759
# Poissons Ratio (y) = 0.19113 0.30288
# Poissons Ratio (z) = 0.43280 0.47697
#
# Static dielectric constant tensor:
#      x y z
#    x 1.799740 0.000000 0.000000 
#    y 0.000000 1.790990 0.000000 
#    z 0.000000 0.000000 1.751440 
# 
# From -- ./inp_files/38632.got.cif
#   From: 2010.05.17/outbox.cif.g08.bks.cpg/sg72_20_cif.got.tgz:38632.got - 2010.06.03 17:03:01.
