data_PCOD9528936
_publ_section_title
;
Structure prediction by ZEFSAII (Michael W. Deem and Ramdas Pophale) SiO2 
 PCOD9528936
Probable space group: I B A M
;
_chemical_formula_sum "Si O2"
_cell_formula_units_Z 96
_cell_length_a 11.906809
_cell_length_b 21.788053
_cell_length_c 19.633203
_cell_angle_alpha 90.000000
_cell_angle_beta 90.000000
_cell_angle_gamma 90.000000
_cell_volume 5093.366964
_symmetry_space_group_name_H-M "I B A M"
_symmetry_group_IT_number 72
_symmetry_cell_setting 'orthorhombic'
loop_
_space_group_symop_operation_xyz
x,y,z
-x,-y,z
x,-y,1/2-z
-x,y,1/2-z
-x,-y,-z
x,y,-z
-x,y,1/2+z
x,-y,1/2+z
1/2+x,1/2+y,1/2+z
1/2-x,1/2-y,1/2+z
1/2+x,1/2-y,-z
1/2-x,1/2+y,-z
1/2-x,1/2-y,1/2-z
1/2+x,1/2+y,1/2-z
1/2-x,1/2+y,z
1/2+x,1/2-y,z
loop_
_atom_site_type_symbol
_atom_site_label
_atom_site_fract_x
_atom_site_fract_y
_atom_site_fract_z
Si Si1 0.133266 0.011085 0.325622
Si Si2 0.413749 0.169946 0.685720
Si Si3 0.430756 0.310251 0.347389
Si Si4 0.155653 0.148985 0.300866
Si Si5 0.012647 0.426381 0.419476
Si Si6 0.224407 0.905748 0.579046
O O1 0.153261 0.082239 0.334689
O O2 0.179240 0.000000 0.250000
O O3 0.185598 0.964203 0.377735
O O4 0.000000 0.000000 0.325043
O O5 0.500000 0.167832 0.750000
O O6 0.415647 0.237595 0.652938
O O7 0.284739 0.165441 0.707909
O O8 0.442100 0.115852 0.632269
O O9 0.393109 0.341903 0.275505
O O10 0.566099 0.316307 0.348523
O O11 0.352151 0.347581 0.399415
O O12 0.982926 0.418640 0.500000
O O13 0.141215 0.402656 0.410602
O O14 0.000000 0.500000 0.404990
O O15 0.205472 0.917828 0.500000
#
# Coordination Sequence:
#
# PCOD9528936 Si02
#       6
#    16  16  16  16  16  16
#     4  11  19  36  62  90 124 166 203 255 324 375
#     4  12  25  38  68  98 125 165 222 270 313 390
#     4  11  22  40  61  91 132 168 205 261 334 376
#     4  11  21  39  61  93 126 165 206 264 321 378
#     4  10  24  47  66  88 130 175 212 265 335 389
#     4  11  23  40  65  93 129 171 216 267 321 389
#
# _framework density 18.848044000000002
#
# number of rings (size 3 to 8) (size 9 to 14) (size 15 to 20)
#    0.000    1.000    5.000    3.500    2.333    1.333 
#    0.000    0.833    0.000    0.000    0.000    0.000 
#    0.000    0.000    0.000    0.000    0.000    0.000 
#
# Total GULP energy -267469.757294 kJ/mol
# GULP energy per Si atom -5572.286610 kJ/mol
# Density = 1.880514 g / cm^3
# Si number density = 18.848044 Si / 1000 Ang^3
#
#
#
# Elastic Constant Matrix: (Units=GPa)
#
#
# Indices 1 2 3 4 5 6 
#
# 1 110.7443 21.9715 34.7977 0.0000 0.0000 0.0000
# 2 21.9715 102.8720 29.2688 0.0000 0.0000 0.0000
# 3 34.7977 29.2688 79.5830 0.0000 0.0000 0.0000
# 4 0.0000 0.0000 0.0000 79.4280 0.0000 0.0000
# 5 0.0000 0.0000 0.0000 0.0000 31.0256 0.0000
# 6 0.0000 0.0000 0.0000 0.0000 0.0000 -0.4255
#
#
#
# Elastic Compliance Matrix: (Units=1/GPa)
#
#
# Indices 1 2 3 4 5 6 
#
# 1 0.010569 -0.001053 -0.004234 0.000000 0.000000 0.000000
# 2 -0.001053 0.010962 -0.003571 0.000000 0.000000 0.000000
# 3 -0.004234 -0.003571 0.015730 0.000000 0.000000 0.000000
# 4 0.000000 0.000000 0.000000 0.012590 0.000000 0.000000
# 5 0.000000 0.000000 0.000000 0.000000 0.032231 0.000000
# 6 0.000000 0.000000 0.000000 0.000000 0.000000 -2.350176
#
#
# Mechanical properties :
#
#
# Convention : Reuss Voigt Hill
#
# Bulk Modulus (GPa) = 51.16393 51.69727 51.43060
# Shear Modulus (GPa) = -2.22830 35.81636 16.79403
#
# Velocity S-wave (km/s) = -1.08849 4.36394 2.98824
# Velocity P-wave (km/s) = 5.06208 7.27186 6.26517
#
# Compressibility (1/GPa) = 0.01954502
#
# Stress axis : x y z
#
# Youngs Moduli (GPa) = 94.61531 91.22659 63.57151
#
# Poissons Ratio (x) = 0.09603 0.26918
# Poissons Ratio (y) = 0.09960 0.22703
# Poissons Ratio (z) = 0.40062 0.32579
#
# Static dielectric constant tensor:
#      x y z
#    x 1.735080 0.000000 0.000000 
#    y 0.000000 1.659820 0.000000 
#    z 0.000000 0.000000 1.645790 
# 
# From -- ./inp_files/33280.got.cif
#   From: 2010.05.17/outbox.cif.g08.bks.cpg/sg72_17_cif.got.tgz:33280.got - 2010.06.03 17:03:01.
