data_PCOD9528452
_publ_section_title
;
Structure prediction by ZEFSAII (Michael W. Deem and Ramdas Pophale) SiO2 
 PCOD9528452
Probable space group: I B A M
;
_chemical_formula_sum "Si O2"
_cell_formula_units_Z 52
_cell_length_a 28.027949
_cell_length_b 4.763872
_cell_length_c 16.821832
_cell_angle_alpha 90.000000
_cell_angle_beta 90.000000
_cell_angle_gamma 90.000000
_cell_volume 2246.077275
_symmetry_space_group_name_H-M "I B A M"
_symmetry_group_IT_number 72
_symmetry_cell_setting 'orthorhombic'
loop_
_space_group_symop_operation_xyz
x,y,z
-x,-y,z
x,-y,1/2-z
-x,y,1/2-z
-x,-y,-z
x,y,-z
-x,y,1/2+z
x,-y,1/2+z
1/2+x,1/2+y,1/2+z
1/2-x,1/2-y,1/2+z
1/2+x,1/2-y,-z
1/2-x,1/2+y,-z
1/2-x,1/2-y,1/2-z
1/2+x,1/2+y,1/2-z
1/2-x,1/2+y,z
1/2+x,1/2-y,z
loop_
_atom_site_type_symbol
_atom_site_label
_atom_site_fract_x
_atom_site_fract_y
_atom_site_fract_z
Si Si1 0.719410 0.508396 0.154400
Si Si2 0.126740 0.303221 0.909073
Si Si3 0.500000 0.000000 0.750000
Si Si4 0.415995 0.332094 0.828039
O O1 0.713665 0.500000 0.250000
O O2 0.734089 0.822254 0.132957
O O3 0.673830 0.372009 0.113740
O O4 0.117121 0.573062 0.854187
O O5 0.084750 0.074762 0.893874
O O6 0.128301 0.394086 0.000000
O O7 0.534082 0.806054 0.803478
O O8 0.398458 0.500000 0.750000
#
# Coordination Sequence:
#
# PCOD9528452 Si02
#       4
#    16  16   4  16
#     4  10  22  40  66 101 142 189 243 287 328 402
#     4  12  26  44  70 109 149 189 230 291 369 419
#     4  12  26  48  80 104 122 184 252 288 358 424
#     4  12  25  46  76 102 135 182 246 289 347 432
#
# _framework density 23.151472999999999
#
# number of rings (size 3 to 8) (size 9 to 14) (size 15 to 20)
#    0.000    0.615    3.077    4.154    0.000    6.154 
#    0.000    4.615    0.000    0.000    0.000    0.000 
#    0.000    0.000    0.000    0.000    0.000    0.000 
#
# Total GULP energy -145501.594783 kJ/mol
# GULP energy per Si atom -5596.215184 kJ/mol
# Density = 2.309878 g / cm^3
# Si number density = 23.151473 Si / 1000 Ang^3
#
#
#
# Elastic Constant Matrix: (Units=GPa)
#
#
# Indices 1 2 3 4 5 6 
#
# 1 116.2408 47.0611 44.4484 0.0000 0.0000 0.0000
# 2 47.0611 142.9779 39.7896 0.0000 0.0000 0.0000
# 3 44.4484 39.7896 100.7441 0.0000 0.0000 0.0000
# 4 0.0000 0.0000 0.0000 30.6627 0.0000 0.0000
# 5 0.0000 0.0000 0.0000 0.0000 6.7562 0.0000
# 6 0.0000 0.0000 0.0000 0.0000 0.0000 29.1668
#
#
#
# Elastic Compliance Matrix: (Units=1/GPa)
#
#
# Indices 1 2 3 4 5 6 
#
# 1 0.011137 -0.002582 -0.003894 0.000000 0.000000 0.000000
# 2 -0.002582 0.008456 -0.002201 0.000000 0.000000 0.000000
# 3 -0.003894 -0.002201 0.012513 0.000000 0.000000 0.000000
# 4 0.000000 0.000000 0.000000 0.032613 0.000000 0.000000
# 5 0.000000 0.000000 0.000000 0.000000 0.148013 0.000000
# 6 0.000000 0.000000 0.000000 0.000000 0.000000 0.034286
#
#
# Mechanical properties :
#
#
# Convention : Reuss Voigt Hill
#
# Bulk Modulus (GPa) = 67.78071 69.17345 68.47708
# Shear Modulus (GPa) = 18.56738 28.56139 23.56438
#
# Velocity S-wave (km/s) = 2.83503 3.51618 3.19381
# Velocity P-wave (km/s) = 6.32907 6.81382 6.57592
#
# Compressibility (1/GPa) = 0.01475346
#
# Stress axis : x y z
#
# Youngs Moduli (GPa) = 89.78916 118.25319 79.91497
#
# Poissons Ratio (x) = 0.30535 0.31118
# Poissons Ratio (y) = 0.23185 0.17587
# Poissons Ratio (z) = 0.34963 0.26024
#
# Static dielectric constant tensor:
#      x y z
#    x 1.911870 0.000000 0.000000 
#    y 0.000000 1.861880 0.000000 
#    z 0.000000 0.000000 1.857710 
# 
# From -- ./inp_files/33610.got.cif
#   From: 2010.05.17/outbox.cif.g08.bks.cpg/sg72_17_cif.got.tgz:33610.got - 2010.06.03 17:03:01.
