data_PCOD9528587
_publ_section_title
;
Structure prediction by ZEFSAII (Michael W. Deem and Ramdas Pophale) SiO2 
 PCOD9528587
Probable space group: I B A M
;
_chemical_formula_sum "Si O2"
_cell_formula_units_Z 56
_cell_length_a 9.030238
_cell_length_b 16.057804
_cell_length_c 15.700381
_cell_angle_alpha 90.000000
_cell_angle_beta 90.000000
_cell_angle_gamma 90.000000
_cell_volume 2276.646180
_symmetry_space_group_name_H-M "I B A M"
_symmetry_group_IT_number 72
_symmetry_cell_setting 'orthorhombic'
loop_
_space_group_symop_operation_xyz
x,y,z
-x,-y,z
x,-y,1/2-z
-x,y,1/2-z
-x,-y,-z
x,y,-z
-x,y,1/2+z
x,-y,1/2+z
1/2+x,1/2+y,1/2+z
1/2-x,1/2-y,1/2+z
1/2+x,1/2-y,-z
1/2-x,1/2+y,-z
1/2-x,1/2-y,1/2-z
1/2+x,1/2+y,1/2-z
1/2-x,1/2+y,z
1/2+x,1/2-y,z
loop_
_atom_site_type_symbol
_atom_site_label
_atom_site_fract_x
_atom_site_fract_y
_atom_site_fract_z
Si Si1 0.587382 0.665040 0.670102
Si Si2 0.695243 0.500000 0.750000
Si Si3 0.387382 0.776936 0.595134
Si Si4 0.617157 0.075286 0.902955
O O1 0.500000 0.703523 0.750000
O O2 0.614141 0.568880 0.691702
O O3 0.466340 0.687490 0.599286
O O4 0.745827 0.705416 0.652711
O O5 0.783949 0.445395 0.679527
O O6 0.332131 0.793671 0.500000
O O7 0.520142 0.841997 0.611695
O O8 0.500000 0.000000 0.905623
O O9 0.682033 0.080398 0.000000
#
# Coordination Sequence:
#
# PCOD9528587 Si02
#       4
#    16   8  16  16
#     4  12  28  47  73 112 153 204 264 319 400 474
#     4  12  26  46  76 112 166 212 260 336 400 476
#     4  11  26  48  77 110 152 206 265 330 395 474
#     4  10  22  42  74 111 148 206 272 321 385 474
#
# _framework density 24.597586
#
# number of rings (size 3 to 8) (size 9 to 14) (size 15 to 20)
#    0.000    0.857    2.857    2.571    8.000    1.143 
#    0.000    1.429    0.000    8.571    0.000    0.000 
#    0.000    0.000    0.000    0.000    0.000    0.000 
#
# Total GULP energy -156470.980646 kJ/mol
# GULP energy per Si atom -5588.249309 kJ/mol
# Density = 2.454160 g / cm^3
# Si number density = 24.597586 Si / 1000 Ang^3
#
#
#
# Elastic Constant Matrix: (Units=GPa)
#
#
# Indices 1 2 3 4 5 6 
#
# 1 108.9907 88.6374 70.9957 0.0000 0.0000 0.0000
# 2 88.6374 133.3288 60.6439 0.0000 0.0000 0.0000
# 3 70.9957 60.6439 133.9795 0.0000 0.0000 0.0000
# 4 0.0000 0.0000 0.0000 20.2691 0.0000 0.0000
# 5 0.0000 0.0000 0.0000 0.0000 27.7291 0.0000
# 6 0.0000 0.0000 0.0000 0.0000 0.0000 39.9441
#
#
#
# Elastic Compliance Matrix: (Units=1/GPa)
#
#
# Indices 1 2 3 4 5 6 
#
# 1 0.024261 -0.012947 -0.006996 0.000000 0.000000 0.000000
# 2 -0.012947 0.016354 -0.000542 0.000000 0.000000 0.000000
# 3 -0.006996 -0.000542 0.011416 0.000000 0.000000 0.000000
# 4 0.000000 0.000000 0.000000 0.049336 0.000000 0.000000
# 5 0.000000 0.000000 0.000000 0.000000 0.036063 0.000000
# 6 0.000000 0.000000 0.000000 0.000000 0.000000 0.025035
#
#
# Mechanical properties :
#
#
# Convention : Reuss Voigt Hill
#
# Bulk Modulus (GPa) = 90.39759 90.76144 90.57951
# Shear Modulus (GPa) = 24.14035 27.98993 26.06514
#
# Velocity S-wave (km/s) = 3.13615 3.37696 3.25878
# Velocity P-wave (km/s) = 7.06713 7.22383 7.14591
#
# Compressibility (1/GPa) = 0.01106224
#
# Stress axis : x y z
#
# Youngs Moduli (GPa) = 41.21789 61.14768 87.59550
#
# Poissons Ratio (x) = 0.79168 0.61280
# Poissons Ratio (y) = 0.53365 0.04745
# Poissons Ratio (z) = 0.28835 0.03313
#
# Static dielectric constant tensor:
#      x y z
#    x 1.985770 0.000000 0.000000 
#    y 0.000000 2.022620 0.000000 
#    z 0.000000 0.000000 2.107680 
# 
# From -- ./inp_files/27448.got.cif
#   From: 2010.05.17/outbox.cif.g08.bks.cpg/sg72_14_cif.got.tgz:27448.got - 2010.06.03 17:03:01.
