data_PCOD9528869
_publ_section_title
;
Structure prediction by ZEFSAII (Michael W. Deem and Ramdas Pophale) SiO2 
 PCOD9528869
Probable space group: I B A M
;
_chemical_formula_sum "Si O2"
_cell_formula_units_Z 72
_cell_length_a 7.630126
_cell_length_b 33.957747
_cell_length_c 12.841127
_cell_angle_alpha 90.000000
_cell_angle_beta 90.000000
_cell_angle_gamma 90.000000
_cell_volume 3327.160253
_symmetry_space_group_name_H-M "I B A M"
_symmetry_group_IT_number 72
_symmetry_cell_setting 'orthorhombic'
loop_
_space_group_symop_operation_xyz
x,y,z
-x,-y,z
x,-y,1/2-z
-x,y,1/2-z
-x,-y,-z
x,y,-z
-x,y,1/2+z
x,-y,1/2+z
1/2+x,1/2+y,1/2+z
1/2-x,1/2-y,1/2+z
1/2+x,1/2-y,-z
1/2-x,1/2+y,-z
1/2-x,1/2-y,1/2-z
1/2+x,1/2+y,1/2-z
1/2-x,1/2+y,z
1/2+x,1/2-y,z
loop_
_atom_site_type_symbol
_atom_site_label
_atom_site_fract_x
_atom_site_fract_y
_atom_site_fract_z
Si Si1 0.303674 0.702680 0.880874
Si Si2 0.142361 0.398380 0.113920
Si Si3 0.274023 0.029769 0.500000
Si Si4 0.633201 0.553371 0.500000
Si Si5 0.500000 0.236983 0.250000
Si Si6 0.237880 0.116596 0.164671
O O1 0.447052 0.734095 0.844249
O O2 0.152529 0.710182 0.795593
O O3 0.351509 0.657064 0.869734
O O4 0.250082 0.709801 0.000000
O O5 0.144254 0.445928 0.096937
O O6 0.261444 0.387902 0.211260
O O7 0.945217 0.383226 0.132964
O O8 0.201868 0.383337 0.000000
O O9 0.066987 0.039615 0.500000
O O10 0.271387 0.982870 0.500000
O O11 0.661819 0.580126 0.601341
#
# Coordination Sequence:
#
# PCOD9528869 Si02
#       6
#    16  16   8   8   8  16
#     4  11  22  42  63  95 123 164 200 259 303 378
#     4   9  20  40  56  89 115 164 199 252 289 356
#     4   9  23  39  57  83 128 153 207 237 315 351
#     4  11  21  39  59  91 114 165 191 261 297 363
#     4  10  24  40  64  90 128 160 204 242 322 370
#     4  11  21  37  67  86 123 149 211 246 301 347
#
# _framework density 21.640076000000001
#
# number of rings (size 3 to 8) (size 9 to 14) (size 15 to 20)
#    0.667    1.111    2.222    2.000    0.000    5.333 
#    0.000    8.889    0.000    0.000    0.000    0.000 
#    0.000    0.000    0.000    0.000    0.000    0.000 
#
# Total GULP energy -200893.501795 kJ/mol
# GULP energy per Si atom -5580.375050 kJ/mol
# Density = 2.159082 g / cm^3
# Si number density = 21.640076 Si / 1000 Ang^3
#
#
#
# Elastic Constant Matrix: (Units=GPa)
#
#
# Indices 1 2 3 4 5 6 
#
# 1 19.0713 -1.1410 -1.0090 -0.0001 0.0000 0.0000
# 2 -1.1410 99.6011 23.8358 -0.0003 0.0000 0.0000
# 3 -1.0090 23.8358 151.1377 -0.0005 0.0001 0.0000
# 4 -0.0001 -0.0003 -0.0005 22.3237 0.0000 0.0000
# 5 0.0000 0.0000 0.0001 0.0000 22.0666 0.0000
# 6 0.0000 0.0000 0.0000 0.0000 0.0000 27.1927
#
#
#
# Elastic Compliance Matrix: (Units=1/GPa)
#
#
# Indices 1 2 3 4 5 6 
#
# 1 0.052481 0.000538 0.000266 0.000000 0.000000 0.000000
# 2 0.000538 0.010439 -0.001643 0.000000 0.000000 0.000000
# 3 0.000266 -0.001643 0.006877 0.000000 0.000000 0.000000
# 4 0.000000 0.000000 0.000000 0.044795 0.000000 0.000000
# 5 0.000000 0.000000 0.000000 0.000000 0.045317 0.000000
# 6 0.000000 0.000000 0.000000 0.000000 0.000000 0.036775
#
#
# Mechanical properties :
#
#
# Convention : Reuss Voigt Hill
#
# Bulk Modulus (GPa) = 14.68027 34.79796 24.73912
# Shear Modulus (GPa) = 22.61724 30.85824 26.73774
#
# Velocity S-wave (km/s) = 3.23639 3.78031 3.51887
# Velocity P-wave (km/s) = 4.55678 5.93039 5.28837
#
# Compressibility (1/GPa) = 0.06811862
#
# Stress axis : x y z
#
# Youngs Moduli (GPa) = 19.05451 95.79141 145.40512
#
# Poissons Ratio (x) = -0.05150 -0.03862
# Poissons Ratio (y) = -0.01025 0.23887
# Poissons Ratio (z) = -0.00506 0.15737
#
# Static dielectric constant tensor:
#      x y z
#    x 1.860710 0.000000 0.000000 
#    y 0.000000 1.795570 0.000000 
#    z 0.000000 0.000000 1.770150 
# 
# From -- ./inp_files/18921.got.cif
#   From: 2010.05.17/outbox.cif.g08.bks.cpg/sg72_10_cif.got.tgz:18921.got - 2010.06.03 17:03:01.
