data_PCOD9528445
_publ_section_title
;
Structure prediction by ZEFSAII (Michael W. Deem and Ramdas Pophale) SiO2 
 PCOD9528445
Probable space group: I B A M
;
_chemical_formula_sum "Si O2"
_cell_formula_units_Z 72
_cell_length_a 9.017442
_cell_length_b 22.459040
_cell_length_c 13.975060
_cell_angle_alpha 90.000000
_cell_angle_beta 90.000000
_cell_angle_gamma 90.000000
_cell_volume 2830.272342
_symmetry_space_group_name_H-M "I B A M"
_symmetry_group_IT_number 72
_symmetry_cell_setting 'orthorhombic'
loop_
_space_group_symop_operation_xyz
x,y,z
-x,-y,z
x,-y,1/2-z
-x,y,1/2-z
-x,-y,-z
x,y,-z
-x,y,1/2+z
x,-y,1/2+z
1/2+x,1/2+y,1/2+z
1/2-x,1/2-y,1/2+z
1/2+x,1/2-y,-z
1/2-x,1/2+y,-z
1/2-x,1/2-y,1/2-z
1/2+x,1/2+y,1/2-z
1/2-x,1/2+y,z
1/2+x,1/2-y,z
loop_
_atom_site_type_symbol
_atom_site_label
_atom_site_fract_x
_atom_site_fract_y
_atom_site_fract_z
Si Si1 0.663354 0.522046 0.894000
Si Si2 0.568016 0.302116 0.614704
Si Si3 0.088572 0.679238 0.384118
Si Si4 0.079533 0.560417 0.114249
Si Si5 0.000000 0.103170 0.250000
O O1 0.500000 0.500000 0.909200
O O2 0.754259 0.462381 0.870990
O O3 0.630503 0.566233 0.805229
O O4 0.716573 0.546546 0.000000
O O5 0.560294 0.309220 0.500000
O O6 0.739588 0.312367 0.645555
O O7 0.510319 0.236615 0.640005
O O8 0.461674 0.350328 0.665052
O O9 0.094070 0.677988 0.500000
O O10 0.004840 0.619120 0.351547
O O11 0.000000 0.500000 0.146389
O O12 0.067292 0.564856 0.000000
#
# Coordination Sequence:
#
# PCOD9528445 Si02
#       5
#    16  16  16  16   8
#     4  10  22  40  64  96 133 174 221 278 345 414
#     4  10  22  40  64  97 141 189 235 289 350 419
#     4   9  19  38  64  98 141 188 235 285 353 430
#     4   9  17  34  64  97 130 173 225 282 346 418
#     4  12  23  38  64  96 137 180 234 288 342 410
#
# _framework density 25.439249
#
# number of rings (size 3 to 8) (size 9 to 14) (size 15 to 20)
#    0.000    2.222    0.000    2.333    0.000    6.222 
#    0.000    6.667    0.000    8.000    0.000    0.000 
#    0.000   29.333    0.000    0.000    0.000    0.000 
#
# Total GULP energy -200734.364593 kJ/mol
# GULP energy per Si atom -5575.954572 kJ/mol
# Density = 2.538135 g / cm^3
# Si number density = 25.439249 Si / 1000 Ang^3
#
#
#
# Elastic Constant Matrix: (Units=GPa)
#
#
# Indices 1 2 3 4 5 6 
#
# 1 163.6580 96.9510 51.0467 0.0000 0.0000 0.0000
# 2 96.9510 232.7314 77.7282 0.0000 0.0000 0.0000
# 3 51.0467 77.7282 169.8487 0.0001 0.0000 0.0000
# 4 0.0000 0.0000 0.0001 23.9423 0.0000 0.0000
# 5 0.0000 0.0000 0.0000 0.0000 16.9733 0.0000
# 6 0.0000 0.0000 0.0000 0.0000 0.0000 39.0693
#
#
#
# Elastic Compliance Matrix: (Units=1/GPa)
#
#
# Indices 1 2 3 4 5 6 
#
# 1 0.008275 -0.003089 -0.001073 0.000000 0.000000 0.000000
# 2 -0.003089 0.006225 -0.001920 0.000000 0.000000 0.000000
# 3 -0.001073 -0.001920 0.007089 0.000000 0.000000 0.000000
# 4 0.000000 0.000000 0.000000 0.041767 0.000000 0.000000
# 5 0.000000 0.000000 0.000000 0.000000 0.058916 0.000000
# 6 0.000000 0.000000 0.000000 0.000000 0.000000 0.025596
#
#
# Mechanical properties :
#
#
# Convention : Reuss Voigt Hill
#
# Bulk Modulus (GPa) = 106.11551 113.07668 109.59610
# Shear Modulus (GPa) = 30.64221 38.69779 34.67000
#
# Velocity S-wave (km/s) = 3.47439 3.90447 3.69569
# Velocity P-wave (km/s) = 7.60914 8.05436 7.83491
#
# Compressibility (1/GPa) = 0.00942369
#
# Stress axis : x y z
#
# Youngs Moduli (GPa) = 120.84861 160.64704 141.06214
#
# Poissons Ratio (x) = 0.49617 0.15143
# Poissons Ratio (y) = 0.37325 0.27090
# Poissons Ratio (z) = 0.12973 0.30851
#
# Static dielectric constant tensor:
#      x y z
#    x 2.143970 0.000000 0.000000 
#    y 0.000000 2.023790 0.000000 
#    z 0.000000 0.000000 2.702040 
# 
# From -- ./inp_files/18913.got.cif
#   From: 2010.05.17/outbox.cif.g08.bks.cpg/sg72_10_cif.got.tgz:18913.got - 2010.06.03 17:03:01.
