data_PCOD9528013
_publ_section_title
;
Structure prediction by ZEFSAII (Michael W. Deem and Ramdas Pophale) SiO2 
 PCOD9528013
Probable space group: I B A M
;
_chemical_formula_sum "Si O2"
_cell_formula_units_Z 80
_cell_length_a 23.746701
_cell_length_b 8.980897
_cell_length_c 18.017277
_cell_angle_alpha 90.000000
_cell_angle_beta 90.000000
_cell_angle_gamma 90.000000
_cell_volume 3842.484772
_symmetry_space_group_name_H-M "I B A M"
_symmetry_group_IT_number 72
_symmetry_cell_setting 'orthorhombic'
loop_
_space_group_symop_operation_xyz
x,y,z
-x,-y,z
x,-y,1/2-z
-x,y,1/2-z
-x,-y,-z
x,y,-z
-x,y,1/2+z
x,-y,1/2+z
1/2+x,1/2+y,1/2+z
1/2-x,1/2-y,1/2+z
1/2+x,1/2-y,-z
1/2-x,1/2+y,-z
1/2-x,1/2-y,1/2-z
1/2+x,1/2+y,1/2-z
1/2-x,1/2+y,z
1/2+x,1/2-y,z
loop_
_atom_site_type_symbol
_atom_site_label
_atom_site_fract_x
_atom_site_fract_y
_atom_site_fract_z
Si Si1 0.167173 0.869228 0.587483
Si Si2 0.056031 0.382232 0.300176
Si Si3 0.138116 0.879015 0.814392
Si Si4 0.882127 0.555171 0.088314
Si Si5 0.782501 0.604827 0.322084
O O1 0.179015 0.859045 0.500000
O O2 0.126508 0.730126 0.607517
O O3 0.224583 0.865374 0.634689
O O4 0.141281 0.028044 0.609882
O O5 0.091771 0.500000 0.250000
O O6 0.083832 0.224573 0.310312
O O7 0.063328 0.472586 0.376904
O O8 0.000000 0.362271 0.250000
O O9 0.189435 0.763970 0.804037
O O10 0.137598 0.000000 0.750000
O O11 0.827056 0.473655 0.122011
O O12 0.882784 0.541963 0.000000
O O13 0.775701 0.500000 0.250000
#
# Coordination Sequence:
#
# PCOD9528013 Si02
#       5
#    16  16  16  16  16
#     4  11  23  37  57  91 132 170 206 248 301 360
#     4  10  22  42  66  90 114 151 206 260 315 375
#     4  11  22  37  59  89 123 160 204 258 310 359
#     4  10  21  39  62  90 127 167 209 255 303 364
#     4  11  22  36  58  90 131 178 218 246 287 356
#
# _framework density 20.819862000000001
#
# number of rings (size 3 to 8) (size 9 to 14) (size 15 to 20)
#    0.000    1.400    0.000    7.200    0.000    8.400 
#    0.000    4.000    0.000    1.200    0.000   18.200 
#    0.000    0.000    0.000    0.000    0.000    0.000 
#
# Total GULP energy -223263.604104 kJ/mol
# GULP energy per Si atom -5581.590103 kJ/mol
# Density = 2.077248 g / cm^3
# Si number density = 20.819862 Si / 1000 Ang^3
#
#
#
# Elastic Constant Matrix: (Units=GPa)
#
#
# Indices 1 2 3 4 5 6 
#
# 1 129.3243 69.6840 56.8161 0.0000 0.0000 0.0000
# 2 69.6840 184.1727 70.9093 0.0000 0.0000 0.0000
# 3 56.8161 70.9093 127.2499 0.0000 0.0000 0.0000
# 4 0.0000 0.0000 0.0000 39.1322 0.0000 0.0000
# 5 0.0000 0.0000 0.0000 0.0000 34.7880 0.0000
# 6 0.0000 0.0000 0.0000 0.0000 0.0000 7.8777
#
#
#
# Elastic Compliance Matrix: (Units=1/GPa)
#
#
# Indices 1 2 3 4 5 6 
#
# 1 0.010643 -0.002797 -0.003193 0.000000 0.000000 0.000000
# 2 -0.002797 0.007648 -0.003013 0.000000 0.000000 0.000000
# 3 -0.003193 -0.003013 0.010963 0.000000 0.000000 0.000000
# 4 0.000000 0.000000 0.000000 0.025554 0.000000 0.000000
# 5 0.000000 0.000000 0.000000 0.000000 0.028746 0.000000
# 6 0.000000 0.000000 0.000000 0.000000 0.000000 0.126940
#
#
# Mechanical properties :
#
#
# Convention : Reuss Voigt Hill
#
# Bulk Modulus (GPa) = 88.91019 92.84064 90.87541
# Shear Modulus (GPa) = 21.52859 32.58209 27.05534
#
# Velocity S-wave (km/s) = 3.21914 3.96024 3.60876
# Velocity P-wave (km/s) = 7.52425 8.09941 7.81712
#
# Compressibility (1/GPa) = 0.01124730
#
# Stress axis : x y z
#
# Youngs Moduli (GPa) = 93.96194 130.75122 91.21507
#
# Poissons Ratio (x) = 0.36576 0.29125
# Poissons Ratio (y) = 0.26285 0.27482
# Poissons Ratio (z) = 0.30002 0.39393
#
# Static dielectric constant tensor:
#      x y z
#    x 1.831750 0.000000 0.000000 
#    y 0.000000 1.771610 0.000000 
#    z 0.000000 0.000000 1.796450 
# 
# From -- ./inp_files/33763.got.cif
#   From: 2010.05.17/outbox.cif.g08.bks.cpg/sg72_17_cif.got.tgz:33763.got - 2010.06.03 17:03:01.
