data_PCOD9528995
_publ_section_title
;
Structure prediction by ZEFSAII (Michael W. Deem and Ramdas Pophale) SiO2 
 PCOD9528995
Probable space group: I B A M
;
_chemical_formula_sum "Si O2"
_cell_formula_units_Z 56
_cell_length_a 14.143676
_cell_length_b 14.079351
_cell_length_c 14.522554
_cell_angle_alpha 90.000000
_cell_angle_beta 90.000000
_cell_angle_gamma 90.000000
_cell_volume 2891.931056
_symmetry_space_group_name_H-M "I B A M"
_symmetry_group_IT_number 72
_symmetry_cell_setting 'orthorhombic'
loop_
_space_group_symop_operation_xyz
x,y,z
-x,-y,z
x,-y,1/2-z
-x,y,1/2-z
-x,-y,-z
x,y,-z
-x,y,1/2+z
x,-y,1/2+z
1/2+x,1/2+y,1/2+z
1/2-x,1/2-y,1/2+z
1/2+x,1/2-y,-z
1/2-x,1/2+y,-z
1/2-x,1/2-y,1/2-z
1/2+x,1/2+y,1/2-z
1/2-x,1/2+y,z
1/2+x,1/2-y,z
loop_
_atom_site_type_symbol
_atom_site_label
_atom_site_fract_x
_atom_site_fract_y
_atom_site_fract_z
Si Si1 0.673100 0.649393 0.602921
Si Si2 0.477739 0.606868 0.358306
Si Si3 0.256738 0.646198 0.606959
Si Si4 0.248751 0.000000 0.750000
O O1 0.701199 0.617167 0.500000
O O2 0.561244 0.670623 0.601179
O O3 0.728329 0.745393 0.625973
O O4 0.692443 0.568730 0.679053
O O5 0.500000 0.500000 0.391978
O O6 0.500000 0.608557 0.250000
O O7 0.370127 0.633545 0.379170
O O8 0.234644 0.626232 0.500000
O O9 0.206091 0.574889 0.678779
#
# Coordination Sequence:
#
# PCOD9528995 Si02
#       4
#    16  16  16   8
#     4  11  23  37  58  88 120 152 190 239 291 340
#     4  11  19  35  61  87 113 150 191 241 289 334
#     4  11  23  37  58  88 120 152 190 239 291 340
#     4  12  20  37  58  85 116 156 188 243 278 357
#
# _framework density 19.364225000000001
#
# number of rings (size 3 to 8) (size 9 to 14) (size 15 to 20)
#    0.000    0.857    5.714    2.571    0.000    1.143 
#    0.000    0.000    0.000    3.429    0.000    8.000 
#    0.000    0.000    0.000    0.000    0.000    0.000 
#
# Total GULP energy -156075.693005 kJ/mol
# GULP energy per Si atom -5574.131893 kJ/mol
# Density = 1.932015 g / cm^3
# Si number density = 19.364225 Si / 1000 Ang^3
#
#
#
# Elastic Constant Matrix: (Units=GPa)
#
#
# Indices 1 2 3 4 5 6 
#
# 1 64.2289 49.3192 -1.3810 0.0000 0.0000 0.0000
# 2 49.3192 113.9192 55.5547 0.0000 0.0000 0.0000
# 3 -1.3810 55.5547 152.8446 0.0000 0.0000 0.0000
# 4 0.0000 0.0000 0.0000 41.9820 0.0000 0.0000
# 5 0.0000 0.0000 0.0000 0.0000 14.7652 0.0000
# 6 0.0000 0.0000 0.0000 0.0000 0.0000 24.2942
#
#
#
# Elastic Compliance Matrix: (Units=1/GPa)
#
#
# Indices 1 2 3 4 5 6 
#
# 1 0.026502 -0.014087 0.005360 0.000000 0.000000 0.000000
# 2 -0.014087 0.018157 -0.006727 0.000000 0.000000 0.000000
# 3 0.005360 -0.006727 0.009036 0.000000 0.000000 0.000000
# 4 0.000000 0.000000 0.000000 0.023820 0.000000 0.000000
# 5 0.000000 0.000000 0.000000 0.000000 0.067727 0.000000
# 6 0.000000 0.000000 0.000000 0.000000 0.000000 0.041162
#
#
# Mechanical properties :
#
#
# Convention : Reuss Voigt Hill
#
# Bulk Modulus (GPa) = 43.88598 59.77540 51.83069
# Shear Modulus (GPa) = 22.23129 31.37492 26.80311
#
# Velocity S-wave (km/s) = 3.39198 4.02960 3.72446
# Velocity P-wave (km/s) = 6.16874 7.25164 6.73200
#
# Compressibility (1/GPa) = 0.02278632
#
# Stress axis : x y z
#
# Youngs Moduli (GPa) = 37.73354 55.07374 110.66726
#
# Poissons Ratio (x) = 0.77583 -0.59315
# Poissons Ratio (y) = 0.53156 0.74446
# Poissons Ratio (z) = -0.20224 0.37048
#
# Static dielectric constant tensor:
#      x y z
#    x 1.672030 0.000000 0.000000 
#    y 0.000000 1.690840 0.000000 
#    z 0.000000 0.000000 1.763770 
# 
# From -- ./inp_files/19388.got.cif
#   From: 2010.05.17/outbox.cif.g08.bks.cpg/sg72_10_cif.got.tgz:19388.got - 2010.06.03 17:03:01.
