data_PCOD9528120
_publ_section_title
;
Structure prediction by ZEFSAII (Michael W. Deem and Ramdas Pophale) SiO2 
 PCOD9528120
Probable space group: I B A M
;
_chemical_formula_sum "Si O2"
_cell_formula_units_Z 96
_cell_length_a 16.735777
_cell_length_b 16.465311
_cell_length_c 18.925706
_cell_angle_alpha 90.000000
_cell_angle_beta 90.000000
_cell_angle_gamma 90.000000
_cell_volume 5215.163252
_symmetry_space_group_name_H-M "I B A M"
_symmetry_group_IT_number 72
_symmetry_cell_setting 'orthorhombic'
loop_
_space_group_symop_operation_xyz
x,y,z
-x,-y,z
x,-y,1/2-z
-x,y,1/2-z
-x,-y,-z
x,y,-z
-x,y,1/2+z
x,-y,1/2+z
1/2+x,1/2+y,1/2+z
1/2-x,1/2-y,1/2+z
1/2+x,1/2-y,-z
1/2-x,1/2+y,-z
1/2-x,1/2-y,1/2-z
1/2+x,1/2+y,1/2-z
1/2-x,1/2+y,z
1/2+x,1/2-y,z
loop_
_atom_site_type_symbol
_atom_site_label
_atom_site_fract_x
_atom_site_fract_y
_atom_site_fract_z
Si Si1 0.349404 0.718144 0.819888
Si Si2 0.491144 0.406243 0.334166
Si Si3 0.405711 0.014924 0.168336
Si Si4 0.334035 0.810160 0.674634
Si Si5 0.860778 0.836902 0.582134
Si Si6 0.317256 0.125219 0.584203
O O1 0.411803 0.649017 0.844010
O O2 0.367123 0.761787 0.743972
O O3 0.260879 0.679317 0.811675
O O4 0.344620 0.792492 0.875692
O O5 0.500000 0.500000 0.358398
O O6 0.500000 0.407555 0.250000
O O7 0.565397 0.363987 0.371389
O O8 0.379961 0.107562 0.158339
O O9 0.500000 0.000000 0.160485
O O10 0.383724 0.000000 0.250000
O O11 0.361252 0.951445 0.118103
O O12 0.341530 0.753966 0.606275
O O13 0.879457 0.843572 0.500000
O O14 0.778022 0.883904 0.596792
O O15 0.330112 0.131740 0.500000
#
# Coordination Sequence:
#
# PCOD9528120 Si02
#       6
#    16  16  16  16  16  16
#     4  10  21  40  64  93 121 165 213 259 311 375
#     4  11  24  38  63  99 127 160 212 266 313 372
#     4  11  24  37  62  97 128 161 208 265 315 369
#     4  10  21  40  65  91 122 164 211 257 310 376
#     4  10  23  43  64  89 127 168 206 262 323 377
#     4  10  23  43  64  91 128 170 212 259 321 385
#
# _framework density 18.407861
#
# number of rings (size 3 to 8) (size 9 to 14) (size 15 to 20)
#    0.000    1.667    3.333    0.000    4.667    2.000 
#    0.000    0.000    0.000    0.000    0.000    0.000 
#    0.000    0.000    0.000    0.000    0.000    0.000 
#
# Total GULP energy -267694.127510 kJ/mol
# GULP energy per Si atom -5576.960990 kJ/mol
# Density = 1.836596 g / cm^3
# Si number density = 18.407861 Si / 1000 Ang^3
#
#
#
# Elastic Constant Matrix: (Units=GPa)
#
#
# Indices 1 2 3 4 5 6 
#
# 1 80.0963 59.4664 45.0569 0.0000 0.0000 0.0000
# 2 59.4664 97.0368 18.7106 0.0000 0.0000 0.0000
# 3 45.0569 18.7106 66.8161 0.0000 0.0000 0.0000
# 4 0.0000 0.0000 0.0000 9.9222 0.0000 0.0000
# 5 0.0000 0.0000 0.0000 0.0000 29.7285 0.0000
# 6 0.0000 0.0000 0.0000 0.0000 0.0000 28.3689
#
#
#
# Elastic Compliance Matrix: (Units=1/GPa)
#
#
# Indices 1 2 3 4 5 6 
#
# 1 0.038755 -0.019779 -0.020596 0.000000 0.000000 0.000000
# 2 -0.019779 0.020988 0.007460 0.000000 0.000000 0.000000
# 3 -0.020596 0.007460 0.026766 0.000000 0.000000 0.000000
# 4 0.000000 0.000000 0.000000 0.100784 0.000000 0.000000
# 5 0.000000 0.000000 0.000000 0.000000 0.033638 0.000000
# 6 0.000000 0.000000 0.000000 0.000000 0.000000 0.035250
#
#
# Mechanical properties :
#
#
# Convention : Reuss Voigt Hill
#
# Bulk Modulus (GPa) = 48.35393 54.49077 51.42235
# Shear Modulus (GPa) = 15.20209 21.65161 18.42685
#
# Velocity S-wave (km/s) = 2.87687 3.43332 3.16734
# Velocity P-wave (km/s) = 6.11231 6.73670 6.43208
#
# Compressibility (1/GPa) = 0.02068084
#
# Stress axis : x y z
#
# Youngs Moduli (GPa) = 25.80296 47.64668 37.36124
#
# Poissons Ratio (x) = 0.94240 0.76948
# Poissons Ratio (y) = 0.51035 -0.27873
# Poissons Ratio (z) = 0.53143 -0.35547
#
# Static dielectric constant tensor:
#      x y z
#    x 1.646880 0.000000 0.000000 
#    y 0.000000 1.492430 0.000000 
#    z 0.000000 0.000000 1.622720 
# 
# From -- ./inp_files/38063.got.cif
#   From: 2010.05.17/outbox.cif.g08.bks.cpg/sg72_20_cif.got.tgz:38063.got - 2010.06.03 17:03:01.
