data_PCOD9528433
_publ_section_title
;
Structure prediction by ZEFSAII (Michael W. Deem and Ramdas Pophale) SiO2 
 PCOD9528433
Probable space group: I B A M
;
_chemical_formula_sum "Si O2"
_cell_formula_units_Z 112
_cell_length_a 14.142582
_cell_length_b 22.575809
_cell_length_c 16.259789
_cell_angle_alpha 90.000000
_cell_angle_beta 90.000000
_cell_angle_gamma 90.000000
_cell_volume 5191.429172
_symmetry_space_group_name_H-M "I B A M"
_symmetry_group_IT_number 72
_symmetry_cell_setting 'orthorhombic'
loop_
_space_group_symop_operation_xyz
x,y,z
-x,-y,z
x,-y,1/2-z
-x,y,1/2-z
-x,-y,-z
x,y,-z
-x,y,1/2+z
x,-y,1/2+z
1/2+x,1/2+y,1/2+z
1/2-x,1/2-y,1/2+z
1/2+x,1/2-y,-z
1/2-x,1/2+y,-z
1/2-x,1/2-y,1/2-z
1/2+x,1/2+y,1/2-z
1/2-x,1/2+y,z
1/2+x,1/2-y,z
loop_
_atom_site_type_symbol
_atom_site_label
_atom_site_fract_x
_atom_site_fract_y
_atom_site_fract_z
Si Si1 0.600875 0.069436 0.226284
Si Si2 0.256402 0.268870 0.402584
Si Si3 0.613081 0.382094 0.911362
Si Si4 0.941754 0.735777 0.336292
Si Si5 0.696899 0.429265 0.748667
Si Si6 0.613150 0.161041 0.904233
Si Si7 0.104260 0.865877 0.092618
O O1 0.500000 0.095919 0.250000
O O2 0.696149 0.091117 0.267833
O O3 0.614590 0.095784 0.135419
O O4 0.596191 0.000000 0.250000
O O5 0.227118 0.265904 0.500000
O O6 0.342894 0.315949 0.401745
O O7 0.167377 0.286997 0.345240
O O8 0.303162 0.206091 0.375800
O O9 0.637560 0.411687 0.826505
O O10 0.501385 0.390052 0.915931
O O11 0.652549 0.403913 0.000000
O O12 0.920703 0.799673 0.376519
O O13 0.000000 0.743012 0.250000
O O14 0.013742 0.694083 0.386192
O O15 0.697994 0.500000 0.750000
O O16 0.660018 0.401279 0.663408
O O17 0.624286 0.155857 0.000000
O O18 0.146962 0.866536 0.000000
#
# Coordination Sequence:
#
# PCOD9528433 Si02
#       7
#    16  16  16  16  16  16  16
#     4  10  24  47  66  90 133 174 224 288 335 386
#     4  10  22  40  63  97 142 178 219 279 343 411
#     4  10  22  41  65  95 137 179 218 280 356 414
#     4  12  24  37  64 100 138 182 224 281 344 409
#     4  11  25  44  69  97 131 180 240 288 338 412
#     4  11  23  41  68 101 133 176 228 273 338 419
#     4  11  23  43  67  98 143 182 223 285 348 413
#
# _framework density 21.574020000000001
#
# number of rings (size 3 to 8) (size 9 to 14) (size 15 to 20)
#    0.000    1.286    1.429    3.857    4.000    4.000 
#    0.000    5.000    0.000    0.000    0.000    0.000 
#    0.000    0.000    0.000    0.000    0.000    0.000 
#
# Total GULP energy -311922.571842 kJ/mol
# GULP energy per Si atom -5570.045926 kJ/mol
# Density = 2.152492 g / cm^3
# Si number density = 21.574020 Si / 1000 Ang^3
#
#
#
# Elastic Constant Matrix: (Units=GPa)
#
#
# Indices 1 2 3 4 5 6 
#
# 1 141.9698 29.3857 49.2373 -0.0001 -0.0002 0.0001
# 2 29.3857 98.3030 60.2423 0.0003 -0.0006 0.0001
# 3 49.2373 60.2423 123.0547 -0.0002 -0.0015 0.0003
# 4 -0.0001 0.0003 -0.0002 236.4992 -0.0010 -0.0005
# 5 -0.0002 -0.0006 -0.0015 -0.0010 184.3984 0.0009
# 6 0.0001 0.0001 0.0003 -0.0005 0.0009 27.6497
#
#
#
# Elastic Compliance Matrix: (Units=1/GPa)
#
#
# Indices 1 2 3 4 5 6 
#
# 1 0.008206 -0.000630 -0.002975 0.000000 0.000000 0.000000
# 2 -0.000630 0.014581 -0.006886 0.000000 0.000000 0.000000
# 3 -0.002975 -0.006886 0.012688 0.000000 0.000000 0.000000
# 4 0.000000 0.000000 0.000000 0.004228 0.000000 0.000000
# 5 0.000000 0.000000 0.000000 0.000000 0.005423 0.000000
# 6 0.000000 0.000000 0.000000 0.000000 0.000000 0.036167
#
#
# Mechanical properties :
#
#
# Convention : Reuss Voigt Hill
#
# Bulk Modulus (GPa) = 69.00002 71.22869 70.11435
# Shear Modulus (GPa) = 46.68270 104.67360 75.67815
#
# Velocity S-wave (km/s) = 4.65675 6.97307 5.92913
# Velocity P-wave (km/s) = 7.80808 9.89541 8.91306
#
# Compressibility (1/GPa) = 0.01449275
#
# Stress axis : x y z
#
# Youngs Moduli (GPa) = 121.86331 68.58280 78.81422
#
# Poissons Ratio (x) = 0.04319 0.23448
# Poissons Ratio (y) = 0.07675 0.54273
# Poissons Ratio (z) = 0.36255 0.47227
#
# Static dielectric constant tensor:
#      x y z
#    x 1.871740 0.000000 0.000000 
#    y 0.000000 1.861950 0.000000 
#    z 0.000000 0.000000 2.098180 
# 
# From -- ./inp_files/22095.got.cif
#   From: 2010.05.17/outbox.cif.g08.bks.cpg/sg72_12_cif.got.tgz:22095.got - 2010.06.03 17:03:01.
