data_PCOD9528213
_publ_section_title
;
Structure prediction by ZEFSAII (Michael W. Deem and Ramdas Pophale) SiO2 
 PCOD9528213
Probable space group: I B A M
;
_chemical_formula_sum "Si O2"
_cell_formula_units_Z 92
_cell_length_a 18.058462
_cell_length_b 9.986959
_cell_length_c 28.012383
_cell_angle_alpha 90.000000
_cell_angle_beta 90.000000
_cell_angle_gamma 90.000000
_cell_volume 5052.008612
_symmetry_space_group_name_H-M "I B A M"
_symmetry_group_IT_number 72
_symmetry_cell_setting 'orthorhombic'
loop_
_space_group_symop_operation_xyz
x,y,z
-x,-y,z
x,-y,1/2-z
-x,y,1/2-z
-x,-y,-z
x,y,-z
-x,y,1/2+z
x,-y,1/2+z
1/2+x,1/2+y,1/2+z
1/2-x,1/2-y,1/2+z
1/2+x,1/2-y,-z
1/2-x,1/2+y,-z
1/2-x,1/2-y,1/2-z
1/2+x,1/2+y,1/2-z
1/2-x,1/2+y,z
1/2+x,1/2-y,z
loop_
_atom_site_type_symbol
_atom_site_label
_atom_site_fract_x
_atom_site_fract_y
_atom_site_fract_z
Si Si1 0.995021 0.159592 0.895196
Si Si2 0.000000 0.500000 0.250000
Si Si3 0.936848 0.397563 0.342464
Si Si4 0.653372 0.397619 0.500000
Si Si5 0.199815 0.488263 0.604724
Si Si6 0.064291 0.177426 0.000000
Si Si7 0.331621 0.305053 0.102089
Si Si8 0.170773 0.433432 0.000000
O O1 0.912852 0.194802 0.875278
O O2 0.049853 0.251896 0.864503
O O3 0.000000 0.000000 0.890020
O O4 0.017242 0.187628 0.951000
O O5 0.951466 0.410196 0.285977
O O6 0.857737 0.452861 0.357609
O O7 0.000000 0.500000 0.363159
O O8 0.604873 0.532319 0.500000
O O9 0.643550 0.312857 0.452964
O O10 0.740299 0.429173 0.500000
O O11 0.276372 0.570186 0.608121
O O12 0.211344 0.331083 0.612151
O O13 0.159519 0.503786 0.552577
O O14 0.127305 0.292502 0.000000
#
# Coordination Sequence:
#
# PCOD9528213 Si02
#       8
#    16   4  16   8  16   8  16   8
#     4  12  23  37  59  93 128 165 212 250 295 359
#     4   8  20  44  74  86 112 152 200 260 336 374
#     4  10  21  42  66  89 113 154 203 251 313 379
#     4  10  22  32  48  74 126 172 211 230 299 338
#     4  11  23  38  58  88 124 164 211 249 307 364
#     4  12  22  37  53  88 131 183 207 253 294 347
#     4  11  23  36  54  83 122 168 209 253 293 357
#     4  10  23  30  54  80 124 161 210 244 289 348
#
# _framework density 18.210578000000002
#
# number of rings (size 3 to 8) (size 9 to 14) (size 15 to 20)
#    0.522    0.696    5.217    1.304   12.174    0.000 
#    0.000    2.174    0.000    4.174    0.000    0.000 
#    0.000    0.000    0.000    0.000    0.000    0.000 
#
# Total GULP energy -256102.406960 kJ/mol
# GULP energy per Si atom -5567.443630 kJ/mol
# Density = 1.816913 g / cm^3
# Si number density = 18.210578 Si / 1000 Ang^3
#
#
#
# Elastic Constant Matrix: (Units=GPa)
#
#
# Indices 1 2 3 4 5 6 
#
# 1 85.7956 24.8842 12.7441 0.0000 0.0000 0.0000
# 2 24.8842 95.8735 12.7326 0.0000 0.0000 0.0000
# 3 12.7441 12.7326 63.0172 0.0000 0.0000 0.0000
# 4 0.0000 0.0000 0.0000 -5.7975 0.0000 0.0000
# 5 0.0000 0.0000 0.0000 0.0000 61.5977 0.0000
# 6 0.0000 0.0000 0.0000 0.0000 0.0000 30.0677
#
#
#
# Elastic Compliance Matrix: (Units=1/GPa)
#
#
# Indices 1 2 3 4 5 6 
#
# 1 0.012840 -0.003070 -0.001976 0.000000 0.000000 0.000000
# 2 -0.003070 0.011452 -0.001693 0.000000 0.000000 0.000000
# 3 -0.001976 -0.001693 0.016610 0.000000 0.000000 0.000000
# 4 0.000000 0.000000 0.000000 -0.172488 0.000000 0.000000
# 5 0.000000 0.000000 0.000000 0.000000 0.016234 0.000000
# 6 0.000000 0.000000 0.000000 0.000000 0.000000 0.033258
#
#
# Mechanical properties :
#
#
# Convention : Reuss Voigt Hill
#
# Bulk Modulus (GPa) = 36.46524 38.37867 37.42196
# Shear Modulus (GPa) = -84.07078 30.12862 -26.97108
#
# Velocity S-wave (km/s) = -6.80192 4.07191 -3.85264
# Velocity P-wave (km/s) = 6.45139 6.57480 0.89653
#
# Compressibility (1/GPa) = 0.02742337
#
# Stress axis : x y z
#
# Youngs Moduli (GPa) = 77.88402 87.32022 60.20314
#
# Poissons Ratio (x) = 0.26808 0.11898
# Poissons Ratio (y) = 0.23911 0.10193
# Poissons Ratio (z) = 0.15392 0.14784
#
# Static dielectric constant tensor:
#      x y z
#    x 1.708920 0.000000 0.000000 
#    y 0.000000 1.638980 0.000000 
#    z 0.000000 0.000000 1.643660 
# 
# From -- ./inp_files/52220.got.cif
#   From: 2010.05.17/outbox.cif.g08.bks.cpg/sg72_27_cif.got.tgz:52220.got - 2010.06.03 17:03:01.
