data_PCOD9528647
_publ_section_title
;
Structure prediction by ZEFSAII (Michael W. Deem and Ramdas Pophale) SiO2 
 PCOD9528647
Probable space group: I B A M
;
_chemical_formula_sum "Si O2"
_cell_formula_units_Z 88
_cell_length_a 18.429864
_cell_length_b 8.925314
_cell_length_c 27.104640
_cell_angle_alpha 90.000000
_cell_angle_beta 90.000000
_cell_angle_gamma 90.000000
_cell_volume 4458.505202
_symmetry_space_group_name_H-M "I B A M"
_symmetry_group_IT_number 72
_symmetry_cell_setting 'orthorhombic'
loop_
_space_group_symop_operation_xyz
x,y,z
-x,-y,z
x,-y,1/2-z
-x,y,1/2-z
-x,-y,-z
x,y,-z
-x,y,1/2+z
x,-y,1/2+z
1/2+x,1/2+y,1/2+z
1/2-x,1/2-y,1/2+z
1/2+x,1/2-y,-z
1/2-x,1/2+y,-z
1/2-x,1/2-y,1/2-z
1/2+x,1/2+y,1/2-z
1/2-x,1/2+y,z
1/2+x,1/2-y,z
loop_
_atom_site_type_symbol
_atom_site_label
_atom_site_fract_x
_atom_site_fract_y
_atom_site_fract_z
Si Si1 0.470004 0.662910 0.885669
Si Si2 0.937477 0.375784 0.945188
Si Si3 0.877934 0.000000 0.250000
Si Si4 0.165299 0.457744 0.353396
Si Si5 0.047527 0.287278 0.705147
Si Si6 0.319303 0.688826 0.842850
O O1 0.500000 0.500000 0.875086
O O2 0.516752 0.727556 0.930769
O O3 0.493716 0.772035 0.841064
O O4 0.383240 0.655106 0.882562
O O5 0.880018 0.426539 0.903693
O O6 0.000000 0.500000 0.945676
O O7 0.905365 0.362973 0.000000
O O8 0.924241 0.122382 0.220192
O O9 0.837207 0.101018 0.291463
O O10 0.115730 0.385227 0.310710
O O11 0.240963 0.370967 0.357988
O O12 0.180082 0.630799 0.340210
O O13 0.000000 0.342842 0.750000
#
# Coordination Sequence:
#
# PCOD9528647 Si02
#       6
#    16  16   8  16  16  16
#     4  11  21  40  69  97 132 174 219 278 330 392
#     4  10  22  45  73  99 128 168 225 283 343 404
#     4  12  23  42  64  92 131 178 220 266 321 384
#     4  11  27  44  65  96 134 181 219 280 342 397
#     4  11  21  40  63  94 128 174 228 270 317 392
#     4  12  25  44  63  95 138 174 222 269 332 402
#
# _framework density 19.737558
#
# number of rings (size 3 to 8) (size 9 to 14) (size 15 to 20)
#    0.000    0.909    5.455    1.364    2.545    4.000 
#    3.273    1.818    0.000    0.000    0.000    0.000 
#    0.000    0.000    0.000    0.000    0.000    0.000 
#
# Total GULP energy -245694.924917 kJ/mol
# GULP energy per Si atom -5583.975566 kJ/mol
# Density = 1.969263 g / cm^3
# Si number density = 19.737558 Si / 1000 Ang^3
#
#
#
# Elastic Constant Matrix: (Units=GPa)
#
#
# Indices 1 2 3 4 5 6 
#
# 1 153.9659 71.0787 49.2495 0.0000 0.0000 0.0000
# 2 71.0787 138.9593 43.4432 0.0000 0.0000 0.0000
# 3 49.2495 43.4432 107.9657 0.0000 0.0000 0.0000
# 4 0.0000 0.0000 0.0000 31.3611 0.0000 0.0000
# 5 0.0000 0.0000 0.0000 0.0000 21.3173 0.0000
# 6 0.0000 0.0000 0.0000 0.0000 0.0000 -103.1888
#
#
#
# Elastic Compliance Matrix: (Units=1/GPa)
#
#
# Indices 1 2 3 4 5 6 
#
# 1 0.009102 -0.003841 -0.002606 0.000000 0.000000 0.000000
# 2 -0.003841 0.009853 -0.002213 0.000000 0.000000 0.000000
# 3 -0.002606 -0.002213 0.011341 0.000000 0.000000 0.000000
# 4 0.000000 0.000000 0.000000 0.031887 0.000000 0.000000
# 5 0.000000 0.000000 0.000000 0.000000 0.046910 0.000000
# 6 0.000000 0.000000 0.000000 0.000000 0.000000 -0.009691
#
#
# Mechanical properties :
#
#
# Convention : Reuss Voigt Hill
#
# Bulk Modulus (GPa) = 77.06268 80.93710 78.99989
# Shear Modulus (GPa) = 41.30642 5.70588 23.50615
#
# Velocity S-wave (km/s) = 4.57966 1.70210 3.45474
# Velocity P-wave (km/s) = 8.19102 6.70511 7.48503
#
# Compressibility (1/GPa) = 0.01297645
#
# Stress axis : x y z
#
# Youngs Moduli (GPa) = 109.86883 101.49569 88.17256
#
# Poissons Ratio (x) = 0.38982 0.22981
# Poissons Ratio (y) = 0.42198 0.19508
# Poissons Ratio (z) = 0.28636 0.22456
#
# Static dielectric constant tensor:
#      x y z
#    x 1.700950 0.000000 0.000000 
#    y 0.000000 1.773560 0.000000 
#    z 0.000000 0.000000 1.725210 
# 
# From -- ./inp_files/52029.got.cif
#   From: 2010.05.17/outbox.cif.g08.bks.cpg/sg72_27_cif.got.tgz:52029.got - 2010.06.03 17:03:01.
