data_PCOD9528275
_publ_section_title
;
Structure prediction by ZEFSAII (Michael W. Deem and Ramdas Pophale) SiO2 
 PCOD9528275
Probable space group: I B A M
;
_chemical_formula_sum "Si O2"
_cell_formula_units_Z 88
_cell_length_a 12.300092
_cell_length_b 14.386723
_cell_length_c 24.114275
_cell_angle_alpha 90.000000
_cell_angle_beta 90.000000
_cell_angle_gamma 90.000000
_cell_volume 4267.214273
_symmetry_space_group_name_H-M "I B A M"
_symmetry_group_IT_number 72
_symmetry_cell_setting 'orthorhombic'
loop_
_space_group_symop_operation_xyz
x,y,z
-x,-y,z
x,-y,1/2-z
-x,y,1/2-z
-x,-y,-z
x,y,-z
-x,y,1/2+z
x,-y,1/2+z
1/2+x,1/2+y,1/2+z
1/2-x,1/2-y,1/2+z
1/2+x,1/2-y,-z
1/2-x,1/2+y,-z
1/2-x,1/2-y,1/2-z
1/2+x,1/2+y,1/2-z
1/2-x,1/2+y,z
1/2+x,1/2-y,z
loop_
_atom_site_type_symbol
_atom_site_label
_atom_site_fract_x
_atom_site_fract_y
_atom_site_fract_z
Si Si1 0.894527 0.210009 0.000000
Si Si2 0.894455 0.435051 0.000000
Si Si3 0.986339 0.111539 0.186724
Si Si4 0.196572 0.879193 0.382451
Si Si5 0.284823 0.674976 0.613798
Si Si6 0.586112 0.415778 0.000000
Si Si7 0.628574 0.011290 0.878634
O O1 0.892394 0.322620 0.000000
O O2 0.837886 0.163428 0.053139
O O3 0.019345 0.180133 0.000000
O O4 0.855221 0.467117 0.060247
O O5 0.000000 0.500000 0.000000
O O6 0.873892 0.142856 0.158635
O O7 0.000000 0.142678 0.250000
O O8 0.087320 0.145257 0.150622
O O9 0.000000 0.000000 0.184997
O O10 0.262060 0.783846 0.385122
O O11 0.152404 0.914321 0.442595
O O12 0.275189 0.951582 0.349566
O O13 0.174029 0.615821 0.620124
O O14 0.500000 0.500000 0.000000
O O15 0.500000 0.000000 0.863549
#
# Coordination Sequence:
#
# PCOD9528275 Si02
#       7
#     8   8  16  16  16   8  16
#     4  12  22  39  63 104 134 174 224 269 333 404
#     4  10  22  36  57  87 144 183 207 253 326 410
#     4  11  25  48  72  95 128 179 236 290 343 399
#     4  12  24  42  70 102 135 173 229 274 340 413
#     4  12  25  42  71 100 137 179 225 283 338 410
#     4  12  24  39  68 100 141 174 225 277 329 400
#     4  11  24  41  61  95 138 178 211 268 342 403
#
# _framework density 20.622353
#
# number of rings (size 3 to 8) (size 9 to 14) (size 15 to 20)
#    0.000    0.545    5.455    3.273    7.636    0.727 
#    0.000    0.000    0.000    1.091    0.000    0.000 
#    0.000    0.000    0.000    0.000    0.000    0.000 
#
# Total GULP energy -245241.131245 kJ/mol
# GULP energy per Si atom -5573.662074 kJ/mol
# Density = 2.057542 g / cm^3
# Si number density = 20.622353 Si / 1000 Ang^3
#
#
#
# Elastic Constant Matrix: (Units=GPa)
#
#
# Indices 1 2 3 4 5 6 
#
# 1 138.7175 23.7931 46.4798 0.0000 0.0000 0.0000
# 2 23.7931 92.2691 17.9909 0.0000 0.0000 0.0000
# 3 46.4798 17.9909 98.6470 0.0000 0.0000 0.0000
# 4 0.0000 0.0000 0.0000 26.0429 0.0000 0.0000
# 5 0.0000 0.0000 0.0000 0.0000 -8.9169 0.0000
# 6 0.0000 0.0000 0.0000 0.0000 0.0000 47.6375
#
#
#
# Elastic Compliance Matrix: (Units=1/GPa)
#
#
# Indices 1 2 3 4 5 6 
#
# 1 0.008758 -0.001507 -0.003852 0.000000 0.000000 0.000000
# 2 -0.001507 0.011497 -0.001387 0.000000 0.000000 0.000000
# 3 -0.003852 -0.001387 0.012205 0.000000 0.000000 0.000000
# 4 0.000000 0.000000 0.000000 0.038398 0.000000 0.000000
# 5 0.000000 0.000000 0.000000 0.000000 -0.112147 0.000000
# 6 0.000000 0.000000 0.000000 0.000000 0.000000 0.020992
#
#
# Mechanical properties :
#
#
# Convention : Reuss Voigt Hill
#
# Bulk Modulus (GPa) = 52.71857 56.24013 54.47935
# Shear Modulus (GPa) = -10351.93241 29.04403 -5161.44419
#
# Velocity S-wave (km/s) = -70.92715 3.75691 -50.08266
# Velocity P-wave (km/s) = 81.74306 6.79336 57.60112
#
# Compressibility (1/GPa) = 0.01896865
#
# Stress axis : x y z
#
# Youngs Moduli (GPa) = 114.18129 86.97982 81.93493
#
# Poissons Ratio (x) = 0.13111 0.31558
# Poissons Ratio (y) = 0.17212 0.11360
# Poissons Ratio (z) = 0.43978 0.12060
#
# Static dielectric constant tensor:
#      x y z
#    x 1.826470 0.000000 0.000000 
#    y 0.000000 1.769450 0.000000 
#    z 0.000000 0.000000 1.575800 
# 
# From -- ./inp_files/43245.got.cif
#   From: 2010.05.17/outbox.cif.g08.bks.cpg/sg72_22_cif.got.tgz:43245.got - 2010.06.03 17:03:01.
