data_PCOD9528364
_publ_section_title
;
Structure prediction by ZEFSAII (Michael W. Deem and Ramdas Pophale) SiO2 
 PCOD9528364
Probable space group: I B A M
;
_chemical_formula_sum "Si O2"
_cell_formula_units_Z 116
_cell_length_a 12.512995
_cell_length_b 28.905619
_cell_length_c 15.775183
_cell_angle_alpha 90.000000
_cell_angle_beta 90.000000
_cell_angle_gamma 90.000000
_cell_volume 5705.818477
_symmetry_space_group_name_H-M "I B A M"
_symmetry_group_IT_number 72
_symmetry_cell_setting 'orthorhombic'
loop_
_space_group_symop_operation_xyz
x,y,z
-x,-y,z
x,-y,1/2-z
-x,y,1/2-z
-x,-y,-z
x,y,-z
-x,y,1/2+z
x,-y,1/2+z
1/2+x,1/2+y,1/2+z
1/2-x,1/2-y,1/2+z
1/2+x,1/2-y,-z
1/2-x,1/2+y,-z
1/2-x,1/2-y,1/2-z
1/2+x,1/2+y,1/2-z
1/2-x,1/2+y,z
1/2+x,1/2-y,z
loop_
_atom_site_type_symbol
_atom_site_label
_atom_site_fract_x
_atom_site_fract_y
_atom_site_fract_z
Si Si1 0.145450 0.689493 0.093905
Si Si2 0.500000 0.000000 0.500000
Si Si3 0.837422 0.513304 0.653855
Si Si4 0.068530 0.676036 0.671782
Si Si5 0.810158 0.389082 0.783945
Si Si6 0.599282 0.381792 0.687273
Si Si7 0.392882 0.524338 0.399764
Si Si8 0.207479 0.794646 0.899081
O O1 0.202957 0.657577 0.161965
O O2 0.160249 0.743515 0.112453
O O3 0.021126 0.674647 0.100098
O O4 0.187291 0.680835 0.000000
O O5 0.591787 0.995327 0.423807
O O6 0.870553 0.500000 0.750000
O O7 0.845137 0.569219 0.656592
O O8 0.716101 0.495336 0.640652
O O9 0.109176 0.626637 0.708754
O O10 0.174167 0.701947 0.641557
O O11 0.000000 0.697345 0.750000
O O12 0.698253 0.400425 0.742576
O O13 0.500000 0.376537 0.750000
O O14 0.587768 0.421420 0.617198
O O15 0.635636 0.333657 0.645276
O O16 0.500000 0.500000 0.365743
O O17 0.384668 0.515470 0.500000
O O18 0.215011 0.803592 0.000000
#
# Coordination Sequence:
#
# PCOD9528364 Si02
#       8
#    16   4  16  16  16  16  16  16
#     4  10  22  39  61  90 126 171 214 267 329 394
#     4  12  30  44  66 106 132 188 226 286 348 386
#     4  12  25  48  69  98 143 176 234 287 339 417
#     4   9  20  38  61  89 120 163 217 259 325 391
#     4  10  23  40  61  93 123 165 216 265 330 390
#     4  11  23  41  67  98 128 172 215 273 342 398
#     4  11  24  44  72 102 134 175 228 281 351 418
#     4  10  22  41  63  93 131 168 218 272 330 394
#
# _framework density 20.330124000000001
#
# number of rings (size 3 to 8) (size 9 to 14) (size 15 to 20)
#    0.000    1.517    2.069    1.862    0.966   11.034 
#    0.000    2.759    0.000    0.000    0.000    0.000 
#    0.000    0.000    0.000    0.000    0.000    0.000 
#
# Total GULP energy -323105.037289 kJ/mol
# GULP energy per Si atom -5570.776505 kJ/mol
# Density = 2.028385 g / cm^3
# Si number density = 20.330124 Si / 1000 Ang^3
#
#
#
# Elastic Constant Matrix: (Units=GPa)
#
#
# Indices 1 2 3 4 5 6 
#
# 1 121.5145 14.1432 37.3363 0.0000 0.0000 0.0000
# 2 14.1432 71.8294 22.9417 0.0000 0.0000 0.0000
# 3 37.3363 22.9417 104.2808 0.0001 -0.0003 -0.0001
# 4 0.0000 0.0000 0.0001 11.0024 -0.0001 0.0000
# 5 0.0000 0.0000 -0.0003 -0.0001 19.9485 0.0000
# 6 0.0000 0.0000 -0.0001 0.0000 0.0000 4.7355
#
#
#
# Elastic Compliance Matrix: (Units=1/GPa)
#
#
# Indices 1 2 3 4 5 6 
#
# 1 0.009292 -0.000825 -0.003145 0.000000 0.000000 0.000000
# 2 -0.000825 0.015047 -0.003015 0.000000 0.000000 0.000000
# 3 -0.003145 -0.003015 0.011379 0.000000 0.000000 0.000000
# 4 0.000000 0.000000 0.000000 0.090890 0.000000 0.000001
# 5 0.000000 0.000000 0.000000 0.000000 0.050129 0.000000
# 6 0.000000 0.000000 0.000000 0.000001 0.000000 0.211172
#
#
# Mechanical properties :
#
#
# Convention : Reuss Voigt Hill
#
# Bulk Modulus (GPa) = 45.98241 49.60747 47.79494
# Shear Modulus (GPa) = 12.22111 22.01750 17.11930
#
# Velocity S-wave (km/s) = 2.45446 3.29446 2.90499
# Velocity P-wave (km/s) = 5.54071 6.23901 5.90020
#
# Compressibility (1/GPa) = 0.02174745
#
# Stress axis : x y z
#
# Youngs Moduli (GPa) = 107.62032 66.45715 87.88157
#
# Poissons Ratio (x) = 0.05483 0.27642
# Poissons Ratio (y) = 0.08878 0.26497
# Poissons Ratio (z) = 0.33850 0.20037
#
# Static dielectric constant tensor:
#      x y z
#    x 1.723180 0.000000 0.000000 
#    y 0.000000 1.730500 0.000000 
#    z 0.000000 0.000000 1.751840 
# 
# From -- ./inp_files/29716.got.cif
#   From: 2010.05.17/outbox.cif.g08.bks.cpg/sg72_15_cif.got.tgz:29716.got - 2010.06.03 17:03:01.
