data_PCOD9528725
_publ_section_title
;
Structure prediction by ZEFSAII (Michael W. Deem and Ramdas Pophale) SiO2 
 PCOD9528725
Probable space group: I B A M
;
_chemical_formula_sum "Si O2"
_cell_formula_units_Z 116
_cell_length_a 19.239912
_cell_length_b 17.920384
_cell_length_c 17.654414
_cell_angle_alpha 90.000000
_cell_angle_beta 90.000000
_cell_angle_gamma 90.000000
_cell_volume 6087.005575
_symmetry_space_group_name_H-M "I B A M"
_symmetry_group_IT_number 72
_symmetry_cell_setting 'orthorhombic'
loop_
_space_group_symop_operation_xyz
x,y,z
-x,-y,z
x,-y,1/2-z
-x,y,1/2-z
-x,-y,-z
x,y,-z
-x,y,1/2+z
x,-y,1/2+z
1/2+x,1/2+y,1/2+z
1/2-x,1/2-y,1/2+z
1/2+x,1/2-y,-z
1/2-x,1/2+y,-z
1/2-x,1/2-y,1/2-z
1/2+x,1/2+y,1/2-z
1/2-x,1/2+y,z
1/2+x,1/2-y,z
loop_
_atom_site_type_symbol
_atom_site_label
_atom_site_fract_x
_atom_site_fract_y
_atom_site_fract_z
Si Si1 0.860252 0.150208 0.354181
Si Si2 0.782989 0.712331 0.675429
Si Si3 0.480810 0.892772 0.868874
Si Si4 0.115908 0.157713 0.672688
Si Si5 0.492580 0.726577 0.914477
Si Si6 0.000000 0.500000 0.000000
Si Si7 0.614698 0.915994 0.766815
Si Si8 0.416984 0.507209 0.590632
O O1 0.782289 0.178673 0.369284
O O2 0.874130 0.151948 0.263193
O O3 0.914345 0.204238 0.395527
O O4 0.878340 0.068029 0.384081
O O5 0.750000 0.750000 0.750000
O O6 0.829940 0.779465 0.642337
O O7 0.831129 0.642658 0.699568
O O8 0.501034 0.814515 0.905909
O O9 0.548381 0.920833 0.822573
O O10 0.418090 0.883494 0.810260
O O11 0.463138 0.949720 0.934129
O O12 0.117742 0.076978 0.633650
O O13 0.040835 0.188510 0.648224
O O14 0.510701 0.701732 0.000000
O O15 0.640860 0.000000 0.750000
O O16 0.500000 0.500000 0.609517
O O17 0.412554 0.516656 0.500000
#
# Coordination Sequence:
#
# PCOD9528725 Si02
#       8
#    16  16  16  16  16   4  16  16
#     4  11  24  41  66  97 129 167 217 273 324 388
#     4  10  23  41  62  95 128 162 214 270 317 384
#     4  11  21  36  62  95 129 163 208 269 310 376
#     4  11  22  40  67  95 124 167 223 267 317 390
#     4  12  23  37  62  94 128 166 207 267 330 378
#     4  12  20  38  56 100 136 152 212 260 326 374
#     4  11  21  38  64  90 123 167 212 259 320 367
#     4  11  23  41  66  97 135 168 213 277 338 383
#
# _framework density 19.056989999999999
#
# number of rings (size 3 to 8) (size 9 to 14) (size 15 to 20)
#    0.000    0.966    4.828    3.724    1.931    2.759 
#    0.000    2.759    3.034    0.000    0.000    0.000 
#    0.000    0.000    0.000    0.000    0.000    0.000 
#
# Total GULP energy -323211.842882 kJ/mol
# GULP energy per Si atom -5572.617981 kJ/mol
# Density = 1.901362 g / cm^3
# Si number density = 19.056990 Si / 1000 Ang^3
#
#
#
# Elastic Constant Matrix: (Units=GPa)
#
#
# Indices 1 2 3 4 5 6 
#
# 1 83.8342 24.4012 10.6720 0.0000 0.0000 0.0000
# 2 24.4012 100.6704 11.8485 0.0000 0.0000 0.0000
# 3 10.6720 11.8485 73.5278 0.0000 0.0000 0.0000
# 4 0.0000 0.0000 0.0000 19.5345 0.0000 0.0000
# 5 0.0000 0.0000 0.0000 0.0000 7.0098 0.0000
# 6 0.0000 0.0000 0.0000 0.0000 0.0000 23.3174
#
#
#
# Elastic Compliance Matrix: (Units=1/GPa)
#
#
# Indices 1 2 3 4 5 6 
#
# 1 0.012974 -0.002980 -0.001403 0.000000 0.000000 0.000000
# 2 -0.002980 0.010810 -0.001309 0.000000 0.000000 0.000000
# 3 -0.001403 -0.001309 0.014015 0.000000 0.000000 0.000000
# 4 0.000000 0.000000 0.000000 0.051192 0.000000 0.000000
# 5 0.000000 0.000000 0.000000 0.000000 0.142658 0.000000
# 6 0.000000 0.000000 0.000000 0.000000 0.000000 0.042886
#
#
# Mechanical properties :
#
#
# Convention : Reuss Voigt Hill
#
# Bulk Modulus (GPa) = 37.85763 39.09732 38.47748
# Shear Modulus (GPa) = 16.96502 24.04638 20.50570
#
# Velocity S-wave (km/s) = 2.98690 3.55606 3.28383
# Velocity P-wave (km/s) = 5.63951 6.11729 5.88325
#
# Compressibility (1/GPa) = 0.02641475
#
# Stress axis : x y z
#
# Youngs Moduli (GPa) = 77.07628 92.50910 71.35249
#
# Poissons Ratio (x) = 0.27564 0.10010
# Poissons Ratio (y) = 0.22966 0.09343
# Poissons Ratio (z) = 0.10813 0.12114
#
# Static dielectric constant tensor:
#      x y z
#    x 1.663340 0.000000 0.000000 
#    y 0.000000 1.694930 0.000000 
#    z 0.000000 0.000000 1.652810 
# 
# From -- ./inp_files/31740.got.cif
#   From: 2010.05.17/outbox.cif.g08.bks.cpg/sg72_16_cif.got.tgz:31740.got - 2010.06.03 17:03:01.
