data_PCOD9528745
_publ_section_title
;
Structure prediction by ZEFSAII (Michael W. Deem and Ramdas Pophale) SiO2 
 PCOD9528745
Probable space group: I B A M
;
_chemical_formula_sum "Si O2"
_cell_formula_units_Z 80
_cell_length_a 24.729970
_cell_length_b 10.330197
_cell_length_c 16.822097
_cell_angle_alpha 90.000000
_cell_angle_beta 90.000000
_cell_angle_gamma 90.000000
_cell_volume 4297.464780
_symmetry_space_group_name_H-M "I B A M"
_symmetry_group_IT_number 72
_symmetry_cell_setting 'orthorhombic'
loop_
_space_group_symop_operation_xyz
x,y,z
-x,-y,z
x,-y,1/2-z
-x,y,1/2-z
-x,-y,-z
x,y,-z
-x,y,1/2+z
x,-y,1/2+z
1/2+x,1/2+y,1/2+z
1/2-x,1/2-y,1/2+z
1/2+x,1/2-y,-z
1/2-x,1/2+y,-z
1/2-x,1/2-y,1/2-z
1/2+x,1/2+y,1/2-z
1/2-x,1/2+y,z
1/2+x,1/2-y,z
loop_
_atom_site_type_symbol
_atom_site_label
_atom_site_fract_x
_atom_site_fract_y
_atom_site_fract_z
Si Si1 0.353146 0.527720 0.156922
Si Si2 0.143124 0.265322 0.594794
Si Si3 0.258013 0.125475 0.806475
Si Si4 0.971431 0.627053 0.594391
Si Si5 0.972733 0.869663 0.160924
O O1 0.348523 0.500000 0.250000
O O2 0.357571 0.388486 0.114479
O O3 0.296233 0.598825 0.141296
O O4 0.408607 0.608517 0.153229
O O5 0.146812 0.279033 0.500000
O O6 0.192229 0.337221 0.637649
O O7 0.087457 0.330791 0.624859
O O8 0.250000 0.250000 0.750000
O O9 0.268210 0.000000 0.750000
O O10 0.965083 0.608243 0.500000
O O11 0.000000 0.500000 0.628833
O O12 0.010034 0.746647 0.611701
O O13 0.000000 0.856306 0.250000
O O14 0.000000 0.000000 0.128196
#
# Coordination Sequence:
#
# PCOD9528745 Si02
#       5
#    16  16  16  16  16
#     4  11  20  39  64  91 126 159 210 252 310 369
#     4  11  23  42  65  93 128 166 208 263 315 370
#     4  11  23  41  66  89 124 169 210 259 313 370
#     4  10  23  42  60  88 129 164 199 253 321 375
#     4  11  20  35  64  96 121 154 205 256 296 371
#
# _framework density 18.615625999999999
#
# number of rings (size 3 to 8) (size 9 to 14) (size 15 to 20)
#    0.000    1.200    8.000    0.000    0.000    4.000 
#    0.000    0.000    0.000    0.000    0.000    0.000 
#    0.000    0.000    0.000    0.000    0.000    0.000 
#
# Total GULP energy -222999.626332 kJ/mol
# GULP energy per Si atom -5574.990658 kJ/mol
# Density = 1.857326 g / cm^3
# Si number density = 18.615626 Si / 1000 Ang^3
#
#
#
# Elastic Constant Matrix: (Units=GPa)
#
#
# Indices 1 2 3 4 5 6 
#
# 1 211.8692 70.0659 30.8268 0.0000 0.0000 0.0000
# 2 70.0659 117.4850 18.7059 0.0000 0.0000 0.0000
# 3 30.8268 18.7059 33.8973 0.0000 0.0000 0.0000
# 4 0.0000 0.0000 0.0000 33.7942 0.0000 0.0000
# 5 0.0000 0.0000 0.0000 0.0000 17.6761 0.0000
# 6 0.0000 0.0000 0.0000 0.0000 0.0000 34.3530
#
#
#
# Elastic Compliance Matrix: (Units=1/GPa)
#
#
# Indices 1 2 3 4 5 6 
#
# 1 0.006346 -0.003142 -0.004038 0.000000 0.000000 0.000000
# 2 -0.003142 0.010887 -0.003151 0.000000 0.000000 0.000000
# 3 -0.004038 -0.003151 0.034911 0.000000 0.000000 0.000000
# 4 0.000000 0.000000 0.000000 0.029591 0.000000 0.000000
# 5 0.000000 0.000000 0.000000 0.000000 0.056574 0.000000
# 6 0.000000 0.000000 0.000000 0.000000 0.000000 0.029110
#
#
# Mechanical properties :
#
#
# Convention : Reuss Voigt Hill
#
# Bulk Modulus (GPa) = 31.76162 66.93873 49.35018
# Shear Modulus (GPa) = 25.17945 33.40818 29.29382
#
# Velocity S-wave (km/s) = 3.68176 4.24090 3.97118
# Velocity P-wave (km/s) = 5.93065 7.74705 6.89889
#
# Compressibility (1/GPa) = 0.03148454
#
# Stress axis : x y z
#
# Youngs Moduli (GPa) = 157.56829 91.85084 28.64387
#
# Poissons Ratio (x) = 0.28860 0.11565
# Poissons Ratio (y) = 0.49508 0.09025
# Poissons Ratio (z) = 0.63621 0.28939
#
# Static dielectric constant tensor:
#      x y z
#    x 1.725830 0.000000 0.000000 
#    y 0.000000 1.426420 0.000000 
#    z 0.000000 0.000000 1.644810 
# 
# From -- ./inp_files/33748.got.cif
#   From: 2010.05.17/outbox.cif.g08.bks.cpg/sg72_17_cif.got.tgz:33748.got - 2010.06.03 17:03:01.
