data_PCOD9528990
_publ_section_title
;
Structure prediction by ZEFSAII (Michael W. Deem and Ramdas Pophale) SiO2 
 PCOD9528990
Probable space group: I B A M
;
_chemical_formula_sum "Si O2"
_cell_formula_units_Z 80
_cell_length_a 21.388469
_cell_length_b 7.016945
_cell_length_c 19.461868
_cell_angle_alpha 90.000000
_cell_angle_beta 90.000000
_cell_angle_gamma 90.000000
_cell_volume 2920.870441
_symmetry_space_group_name_H-M "I B A M"
_symmetry_group_IT_number 72
_symmetry_cell_setting 'orthorhombic'
loop_
_space_group_symop_operation_xyz
x,y,z
-x,-y,z
x,-y,1/2-z
-x,y,1/2-z
-x,-y,-z
x,y,-z
-x,y,1/2+z
x,-y,1/2+z
1/2+x,1/2+y,1/2+z
1/2-x,1/2-y,1/2+z
1/2+x,1/2-y,-z
1/2-x,1/2+y,-z
1/2-x,1/2-y,1/2-z
1/2+x,1/2+y,1/2-z
1/2-x,1/2+y,z
1/2+x,1/2-y,z
loop_
_atom_site_type_symbol
_atom_site_label
_atom_site_fract_x
_atom_site_fract_y
_atom_site_fract_z
Si Si1 0.229205 0.502911 0.500000
Si Si2 0.561454 0.749562 0.377254
Si Si3 0.166464 0.716805 0.279972
Si Si4 0.210888 0.245625 0.364157
Si Si5 0.141917 0.123098 0.000000
Si Si6 0.425875 0.197973 0.917117
O O1 0.222544 0.397905 0.427148
O O2 0.183522 0.682082 0.500000
O O3 0.304135 0.538296 0.500000
O O4 0.598354 0.726561 0.306286
O O5 0.596627 0.629993 0.435394
O O6 0.487746 0.719421 0.381441
O O7 0.572553 0.971512 0.399405
O O8 0.164566 0.500000 0.250000
O O9 0.194257 0.821159 0.214427
O O10 0.213670 0.727328 0.344760
O O11 0.138032 0.222120 0.387317
O O12 0.429820 0.216338 0.000000
#
# Coordination Sequence:
#
# PCOD9528990 Si02
#       6
#     8  16  16  16   8  16
#     4  12  22  37  62  87 122 161 217 257 317 371
#     4  11  19  33  57  84 129 156 194 256 321 364
#     4  11  22  37  53  84 122 161 205 246 310 382
#     4  11  22  35  56  83 121 159 201 257 307 370
#     4  12  20  36  59  96 121 165 207 261 311 381
#     4  11  19  33  56  90 126 154 204 261 315 365
#
# _framework density 27.389095000000001
#
# number of rings (size 3 to 8) (size 9 to 14) (size 15 to 20)
#    0.000    0.800    9.000    0.600    0.000    0.800 
#    0.000    0.000    0.000    0.000    0.000   22.400 
#    0.000    0.000    0.000    0.000    0.000    0.000 
#
# Total GULP energy -222741.935328 kJ/mol
# GULP energy per Si atom -5568.548383 kJ/mol
# Density = 2.732676 g / cm^3
# Si number density = 27.389095 Si / 1000 Ang^3
#
#
#
# Elastic Constant Matrix: (Units=GPa)
#
#
# Indices 1 2 3 4 5 6 
#
# 1 238.5663 -0.3709 57.8571 0.0000 0.0000 0.0000
# 2 -0.3709 42.5500 26.3932 0.0000 0.0000 0.0000
# 3 57.8571 26.3932 153.3956 0.0000 0.0000 0.0000
# 4 0.0000 0.0000 0.0000 -1.0177 0.0000 0.0000
# 5 0.0000 0.0000 0.0000 0.0000 -10.3905 0.0000
# 6 0.0000 0.0000 0.0000 0.0000 0.0000 28.1301
#
#
#
# Elastic Compliance Matrix: (Units=1/GPa)
#
#
# Indices 1 2 3 4 5 6 
#
# 1 0.004674 0.001270 -0.001981 0.000000 0.000000 0.000000
# 2 0.001270 0.026655 -0.005065 0.000000 0.000000 0.000000
# 3 -0.001981 -0.005065 0.008138 0.000000 0.000000 0.000000
# 4 0.000000 0.000000 0.000000 -0.982620 0.000000 0.000000
# 5 0.000000 0.000000 0.000000 0.000000 -0.096242 0.000000
# 6 0.000000 0.000000 0.000000 0.000000 0.000000 0.035549
#
#
# Mechanical properties :
#
#
# Convention : Reuss Voigt Hill
#
# Bulk Modulus (GPa) = 35.82522 66.91895 51.37208
# Shear Modulus (GPa) = -5.08653 26.71990 10.81668
#
# Velocity S-wave (km/s) = -1.36425 3.12680 1.98943
# Velocity P-wave (km/s) = 3.25990 6.12548 4.90655
#
# Compressibility (1/GPa) = 0.02791330
#
# Stress axis : x y z
#
# Youngs Moduli (GPa) = 213.93890 37.51685 122.88084
#
# Poissons Ratio (x) = -0.04764 0.24349
# Poissons Ratio (y) = -0.27167 0.62241
# Poissons Ratio (z) = 0.42392 0.19003
#
# Static dielectric constant tensor:
#      x y z
#    x 2.087660 0.000000 0.000000 
#    y 0.000000 2.498180 0.000000 
#    z 0.000000 0.000000 2.232020 
# 
# From -- ./inp_files/32431.got.cif
#   From: 2010.05.17/outbox.cif.g08.bks.cpg/sg72_17_cif.got.tgz:32431.got - 2010.06.03 17:03:01.
