data_PCOD9528971
_publ_section_title
;
Structure prediction by ZEFSAII (Michael W. Deem and Ramdas Pophale) SiO2 
 PCOD9528971
Probable space group: I B A M
;
_chemical_formula_sum "Si O2"
_cell_formula_units_Z 64
_cell_length_a 27.137217
_cell_length_b 11.100927
_cell_length_c 9.511763
_cell_angle_alpha 90.000000
_cell_angle_beta 90.000000
_cell_angle_gamma 90.000000
_cell_volume 2865.402100
_symmetry_space_group_name_H-M "I B A M"
_symmetry_group_IT_number 72
_symmetry_cell_setting 'orthorhombic'
loop_
_space_group_symop_operation_xyz
x,y,z
-x,-y,z
x,-y,1/2-z
-x,y,1/2-z
-x,-y,-z
x,y,-z
-x,y,1/2+z
x,-y,1/2+z
1/2+x,1/2+y,1/2+z
1/2-x,1/2-y,1/2+z
1/2+x,1/2-y,-z
1/2-x,1/2+y,-z
1/2-x,1/2-y,1/2-z
1/2+x,1/2+y,1/2-z
1/2-x,1/2+y,z
1/2+x,1/2-y,z
loop_
_atom_site_type_symbol
_atom_site_label
_atom_site_fract_x
_atom_site_fract_y
_atom_site_fract_z
Si Si1 0.692570 0.249337 0.784153
Si Si2 0.500000 0.500000 0.750000
Si Si3 0.500000 0.000000 0.750000
Si Si4 0.432073 0.401402 0.000000
Si Si5 0.559520 0.117244 0.500000
Si Si6 0.218522 0.445081 0.000000
Si Si7 0.841690 0.665963 0.500000
Si Si8 0.326538 0.463093 0.500000
O O1 0.750000 0.250000 0.750000
O O2 0.660551 0.237431 0.645053
O O3 0.678267 0.369531 0.869147
O O4 0.692587 0.125397 0.872396
O O5 0.463665 0.432698 0.859682
O O6 0.468264 0.920988 0.641183
O O7 0.428981 0.257941 0.000000
O O8 0.379722 0.471761 0.000000
O O9 0.614754 0.067666 0.500000
O O10 0.207608 0.585732 0.000000
O O11 0.278867 0.446307 0.000000
#
# Coordination Sequence:
#
# PCOD9528971 Si02
#       8
#    16   4   4   8   8   8   8   8
#     4  11  24  44  63  99 151 197 243 296 354 431
#     4  10  26  50  72 102 148 186 238 314 376 446
#     4  10  26  58  80 110 140 186 246 330 370 456
#     4  11  26  48  76 109 144 190 244 307 380 453
#     4  11  27  48  83 108 142 185 247 307 387 435
#     4  11  24  43  65  99 144 192 240 300 356 433
#     4  12  25  42  70 103 141 192 242 303 361 440
#     4  11  26  43  72 105 145 200 251 294 360 446
#
# _framework density 22.335433999999999
#
# number of rings (size 3 to 8) (size 9 to 14) (size 15 to 20)
#    0.000    1.000    2.500    2.250   10.500    0.000 
#    0.000    0.000    0.000    0.000    0.000    0.000 
#    0.000    0.000    0.000    0.000    0.000    0.000 
#
# Total GULP energy -178699.219029 kJ/mol
# GULP energy per Si atom -5584.350595 kJ/mol
# Density = 2.228460 g / cm^3
# Si number density = 22.335434 Si / 1000 Ang^3
#
#
#
# Elastic Constant Matrix: (Units=GPa)
#
#
# Indices 1 2 3 4 5 6 
#
# 1 154.2360 53.3596 76.6822 0.0000 0.0000 0.0000
# 2 53.3596 119.4285 67.3361 0.0000 0.0000 0.0000
# 3 76.6822 67.3361 201.3369 0.0000 0.0000 0.0000
# 4 0.0000 0.0000 0.0000 12.6768 0.0000 0.0000
# 5 0.0000 0.0000 0.0000 0.0000 27.9847 0.0000
# 6 0.0000 0.0000 0.0000 0.0000 0.0000 35.6877
#
#
#
# Elastic Compliance Matrix: (Units=1/GPa)
#
#
# Indices 1 2 3 4 5 6 
#
# 1 0.008539 -0.002442 -0.002436 0.000000 0.000000 0.000000
# 2 -0.002442 0.011017 -0.002755 0.000000 0.000000 0.000000
# 3 -0.002436 -0.002755 0.006816 0.000000 0.000000 0.000000
# 4 0.000000 0.000000 0.000000 0.078884 0.000000 0.000000
# 5 0.000000 0.000000 0.000000 0.000000 0.035734 0.000000
# 6 0.000000 0.000000 0.000000 0.000000 0.000000 0.028021
#
#
# Mechanical properties :
#
#
# Convention : Reuss Voigt Hill
#
# Bulk Modulus (GPa) = 90.02613 96.63970 93.33292
# Shear Modulus (GPa) = 26.59875 33.77807 30.18841
#
# Velocity S-wave (km/s) = 3.45465 3.89306 3.68039
# Velocity P-wave (km/s) = 7.50378 7.97303 7.74196
#
# Compressibility (1/GPa) = 0.01110789
#
# Stress axis : x y z
#
# Youngs Moduli (GPa) = 117.10499 90.76539 146.72000
#
# Poissons Ratio (x) = 0.22166 0.35735
# Poissons Ratio (y) = 0.28598 0.40416
# Poissons Ratio (z) = 0.28522 0.25002
#
# Static dielectric constant tensor:
#      x y z
#    x 1.890830 0.000000 0.000000 
#    y 0.000000 1.857790 0.000000 
#    z 0.000000 0.000000 1.906520 
# 
# From -- ./inp_files/8926.got.cif
#   From: 2010.05.17/outbox.cif.g08.bks.cpg/sg72_5_cif.got.tgz:8926.got - 2010.06.03 17:03:01.
