data_PCOD9528329
_publ_section_title
;
Structure prediction by ZEFSAII (Michael W. Deem and Ramdas Pophale) SiO2 
 PCOD9528329
Probable space group: I B A M
;
_chemical_formula_sum "Si O2"
_cell_formula_units_Z 72
_cell_length_a 10.469890
_cell_length_b 14.510723
_cell_length_c 23.578789
_cell_angle_alpha 90.000000
_cell_angle_beta 90.000000
_cell_angle_gamma 90.000000
_cell_volume 3582.223402
_symmetry_space_group_name_H-M "I B A M"
_symmetry_group_IT_number 72
_symmetry_cell_setting 'orthorhombic'
loop_
_space_group_symop_operation_xyz
x,y,z
-x,-y,z
x,-y,1/2-z
-x,y,1/2-z
-x,-y,-z
x,y,-z
-x,y,1/2+z
x,-y,1/2+z
1/2+x,1/2+y,1/2+z
1/2-x,1/2-y,1/2+z
1/2+x,1/2-y,-z
1/2-x,1/2+y,-z
1/2-x,1/2-y,1/2-z
1/2+x,1/2+y,1/2-z
1/2-x,1/2+y,z
1/2+x,1/2-y,z
loop_
_atom_site_type_symbol
_atom_site_label
_atom_site_fract_x
_atom_site_fract_y
_atom_site_fract_z
Si Si1 0.127675 0.638888 0.786229
Si Si2 0.127346 0.793767 0.882348
Si Si3 0.375963 0.399489 0.221796
Si Si4 0.000000 0.500000 0.138809
Si Si5 0.595286 0.823704 0.433229
O O1 0.143122 0.716463 0.833656
O O2 0.244891 0.642097 0.743826
O O3 0.109317 0.542918 0.820654
O O4 0.000000 0.648587 0.750000
O O5 0.110331 0.887219 0.845534
O O6 0.258496 0.799778 0.917280
O O7 0.003057 0.758542 0.916242
O O8 0.373677 0.500000 0.250000
O O9 0.500000 0.352991 0.250000
O O10 0.947116 0.584839 0.101640
O O11 0.584763 0.841168 0.500000
#
# Coordination Sequence:
#
# PCOD9528329 Si02
#       5
#    16  16  16   8  16
#     4  11  20  35  58  86 119 153 189 235 293 365
#     4  11  22  37  58  86 115 152 196 243 295 352
#     4  11  21  33  52  82 119 152 181 226 292 364
#     4  10  22  38  62  88 116 156 204 246 292 352
#     4  11  23  41  62  85 115 157 208 257 294 335
#
# _framework density 20.099250000000001
#
# number of rings (size 3 to 8) (size 9 to 14) (size 15 to 20)
#    0.000    1.111    0.000    9.333    0.000    0.000 
#    0.000    0.000    0.000    0.000    0.000   23.333 
#    0.000    0.000    0.000    0.000    0.000    0.000 
#
# Total GULP energy -201076.242437 kJ/mol
# GULP energy per Si atom -5585.451179 kJ/mol
# Density = 2.005350 g / cm^3
# Si number density = 20.099250 Si / 1000 Ang^3
#
#
#
# Elastic Constant Matrix: (Units=GPa)
#
#
# Indices 1 2 3 4 5 6 
#
# 1 150.6722 19.6325 44.2438 0.0000 0.0000 0.0000
# 2 19.6325 93.6098 36.3765 0.0000 0.0000 0.0000
# 3 44.2438 36.3765 110.0157 0.0000 0.0000 0.0000
# 4 0.0000 0.0000 0.0000 32.3060 0.0000 0.0000
# 5 0.0000 0.0000 0.0000 0.0000 35.3610 0.0000
# 6 0.0000 0.0000 0.0000 0.0000 0.0000 -17.9867
#
#
#
# Elastic Compliance Matrix: (Units=1/GPa)
#
#
# Indices 1 2 3 4 5 6 
#
# 1 0.007543 -0.000463 -0.002881 0.000000 0.000000 0.000000
# 2 -0.000463 0.012286 -0.003876 0.000000 0.000000 0.000000
# 3 -0.002881 -0.003876 0.011530 0.000000 0.000000 0.000000
# 4 0.000000 0.000000 0.000000 0.030954 0.000000 0.000000
# 5 0.000000 0.000000 0.000000 0.000000 0.028280 0.000000
# 6 0.000000 0.000000 0.000000 0.000000 0.000000 -0.055596
#
#
# Mechanical properties :
#
#
# Convention : Reuss Voigt Hill
#
# Bulk Modulus (GPa) = 59.10208 61.64479 60.37343
# Shear Modulus (GPa) = 90.78551 26.87238 58.82894
#
# Velocity S-wave (km/s) = 6.72805 3.66045 5.41597
# Velocity P-wave (km/s) = 9.47758 6.97151 8.31945
#
# Compressibility (1/GPa) = 0.01691988
#
# Stress axis : x y z
#
# Youngs Moduli (GPa) = 132.57231 81.39354 86.73226
#
# Poissons Ratio (x) = 0.03765 0.24984
# Poissons Ratio (y) = 0.06133 0.33620
# Poissons Ratio (z) = 0.38188 0.31551
#
# Static dielectric constant tensor:
#      x y z
#    x 1.678860 0.000000 0.000000 
#    y 0.000000 1.879380 0.000000 
#    z 0.000000 0.000000 1.682790 
# 
# From -- ./inp_files/42089.got.cif
#   From: 2010.05.17/outbox.cif.g08.bks.cpg/sg72_22_cif.got.tgz:42089.got - 2010.06.03 17:03:01.
