data_PCOD9528031
_publ_section_title
;
Structure prediction by ZEFSAII (Michael W. Deem and Ramdas Pophale) SiO2 
 PCOD9528031
Probable space group: I B A M
;
_chemical_formula_sum "Si O2"
_cell_formula_units_Z 96
_cell_length_a 22.669746
_cell_length_b 12.455152
_cell_length_c 14.505674
_cell_angle_alpha 90.000000
_cell_angle_beta 90.000000
_cell_angle_gamma 90.000000
_cell_volume 4095.751500
_symmetry_space_group_name_H-M "I B A M"
_symmetry_group_IT_number 72
_symmetry_cell_setting 'orthorhombic'
loop_
_space_group_symop_operation_xyz
x,y,z
-x,-y,z
x,-y,1/2-z
-x,y,1/2-z
-x,-y,-z
x,y,-z
-x,y,1/2+z
x,-y,1/2+z
1/2+x,1/2+y,1/2+z
1/2-x,1/2-y,1/2+z
1/2+x,1/2-y,-z
1/2-x,1/2+y,-z
1/2-x,1/2-y,1/2-z
1/2+x,1/2+y,1/2-z
1/2-x,1/2+y,z
1/2+x,1/2-y,z
loop_
_atom_site_type_symbol
_atom_site_label
_atom_site_fract_x
_atom_site_fract_y
_atom_site_fract_z
Si Si1 0.160038 0.365512 0.802620
Si Si2 0.160382 0.651502 0.900110
Si Si3 0.099865 0.989410 0.111027
Si Si4 0.434721 0.680693 0.760796
Si Si5 0.783865 0.884707 0.395718
Si Si6 0.565167 0.986608 0.138712
O O1 0.176989 0.404105 0.697033
O O2 0.118607 0.263343 0.778218
O O3 0.224124 0.355187 0.844788
O O4 0.117321 0.427164 0.876060
O O5 0.178684 0.774500 0.896253
O O6 0.090801 0.625700 0.896087
O O7 0.182596 0.612057 0.000000
O O8 0.072262 0.891601 0.169086
O O9 0.170193 0.977292 0.134409
O O10 0.071736 0.096171 0.154658
O O11 0.093370 0.982326 0.000000
O O12 0.500000 0.732244 0.750000
O O13 0.767958 0.910829 0.500000
O O14 0.500000 0.000000 0.103121
O O15 0.562156 0.000000 0.250000
#
# Coordination Sequence:
#
# PCOD9528031 Si02
#       6
#    16  16  16  16  16  16
#     4  11  23  40  66  93 131 166 215 271 327 385
#     4  10  21  39  63  92 125 170 214 259 323 386
#     4  10  22  44  67  92 131 172 218 276 329 388
#     4  11  25  40  67  99 128 175 226 268 330 400
#     4  10  22  41  67  97 129 169 219 273 332 393
#     4   9  21  39  62  89 123 168 209 259 315 376
#
# _framework density 23.438922000000002
#
# number of rings (size 3 to 8) (size 9 to 14) (size 15 to 20)
#    0.000    1.833    1.667    1.500    4.667    4.333 
#    6.000    3.333    0.000    0.000    0.000    0.000 
#    0.000    0.000    0.000    0.000    0.000    0.000 
#
# Total GULP energy -267271.338032 kJ/mol
# GULP energy per Si atom -5568.152876 kJ/mol
# Density = 2.338557 g / cm^3
# Si number density = 23.438922 Si / 1000 Ang^3
#
#
#
# Elastic Constant Matrix: (Units=GPa)
#
#
# Indices 1 2 3 4 5 6 
#
# 1 162.1536 38.9402 43.4701 0.0000 0.0000 0.0000
# 2 38.9402 61.9657 14.1576 0.0000 0.0000 0.0000
# 3 43.4701 14.1576 131.6905 0.0000 0.0000 0.0000
# 4 0.0000 0.0000 0.0000 324.4711 0.0000 0.0000
# 5 0.0000 0.0000 0.0000 0.0000 -14.0095 0.0000
# 6 0.0000 0.0000 0.0000 0.0000 0.0000 34.8350
#
#
#
# Elastic Compliance Matrix: (Units=1/GPa)
#
#
# Indices 1 2 3 4 5 6 
#
# 1 0.007790 -0.004416 -0.002097 0.000000 0.000000 0.000000
# 2 -0.004416 0.019048 -0.000590 0.000000 0.000000 0.000000
# 3 -0.002097 -0.000590 0.008349 0.000000 0.000000 0.000000
# 4 0.000000 0.000000 0.000000 0.003082 0.000000 0.000000
# 5 0.000000 0.000000 0.000000 0.000000 -0.071380 0.000000
# 6 0.000000 0.000000 0.000000 0.000000 0.000000 0.028707
#
#
# Mechanical properties :
#
#
# Convention : Reuss Voigt Hill
#
# Bulk Modulus (GPa) = 47.66172 60.99395 54.32784
# Shear Modulus (GPa) = 297.72164 86.34211 192.03187
#
# Velocity S-wave (km/s) = 11.28255 6.07594 9.06126
# Velocity P-wave (km/s) = 13.78791 8.67766 11.51973
#
# Compressibility (1/GPa) = 0.02098120
#
# Stress axis : x y z
#
# Youngs Moduli (GPa) = 128.37771 52.49919 119.77424
#
# Poissons Ratio (x) = 0.23184 0.25111
# Poissons Ratio (y) = 0.56692 0.07067
# Poissons Ratio (z) = 0.26914 0.03098
#
# Static dielectric constant tensor:
#      x y z
#    x 1.940440 0.000000 0.000000 
#    y 0.000000 1.982010 0.000000 
#    z 0.000000 0.000000 1.935770 
# 
# From -- ./inp_files/24136.got.cif
#   From: 2010.05.17/outbox.cif.g08.bks.cpg/sg72_13_cif.got.tgz:24136.got - 2010.06.03 17:03:01.
