data_PCOD9528181
_publ_section_title
;
Structure prediction by ZEFSAII (Michael W. Deem and Ramdas Pophale) SiO2 
 PCOD9528181
Probable space group: I B A M
;
_chemical_formula_sum "Si O2"
_cell_formula_units_Z 64
_cell_length_a 18.898531
_cell_length_b 15.173679
_cell_length_c 10.658739
_cell_angle_alpha 90.000000
_cell_angle_beta 90.000000
_cell_angle_gamma 90.000000
_cell_volume 3056.502585
_symmetry_space_group_name_H-M "I B A M"
_symmetry_group_IT_number 72
_symmetry_cell_setting 'orthorhombic'
loop_
_space_group_symop_operation_xyz
x,y,z
-x,-y,z
x,-y,1/2-z
-x,y,1/2-z
-x,-y,-z
x,y,-z
-x,y,1/2+z
x,-y,1/2+z
1/2+x,1/2+y,1/2+z
1/2-x,1/2-y,1/2+z
1/2+x,1/2-y,-z
1/2-x,1/2+y,-z
1/2-x,1/2-y,1/2-z
1/2+x,1/2+y,1/2-z
1/2-x,1/2+y,z
1/2+x,1/2-y,z
loop_
_atom_site_type_symbol
_atom_site_label
_atom_site_fract_x
_atom_site_fract_y
_atom_site_fract_z
Si Si1 0.927828 0.122019 0.500000
Si Si2 0.341135 0.660078 0.249110
Si Si3 0.911968 0.088619 0.000000
Si Si4 0.538589 0.094995 0.636096
Si Si5 0.692559 0.145962 0.351401
O O1 0.890760 0.156115 0.626766
O O2 0.011776 0.135745 0.500000
O O3 0.919379 0.016310 0.500000
O O4 0.372941 0.614904 0.371991
O O5 0.327737 0.761119 0.288555
O O6 0.265636 0.617324 0.211584
O O7 0.500000 0.143508 0.750000
O O8 0.530496 0.138526 0.500000
O O9 0.622179 0.086934 0.660244
O O10 0.500000 0.000000 0.628126
O O11 0.705791 0.158464 0.500000
#
# Coordination Sequence:
#
# PCOD9528181 Si02
#       5
#     8  16   8  16  16
#     4  11  24  43  66  94 131 164 215 276 336 395
#     4  11  22  42  66  97 125 178 218 268 333 387
#     4  11  24  43  64  98 131 162 215 276 334 401
#     4   9  19  39  59  86 125 167 207 259 316 377
#     4  10  21  41  66  93 136 166 221 272 311 398
#
# _framework density 20.938963000000001
#
# number of rings (size 3 to 8) (size 9 to 14) (size 15 to 20)
#    0.000    1.750    2.500    1.500    0.000    4.000 
#   13.500    0.000    0.000    0.000    0.000    0.000 
#    0.000    0.000    0.000    0.000    0.000    0.000 
#
# Total GULP energy -178662.303907 kJ/mol
# GULP energy per Si atom -5583.196997 kJ/mol
# Density = 2.089131 g / cm^3
# Si number density = 20.938963 Si / 1000 Ang^3
#
#
#
# Elastic Constant Matrix: (Units=GPa)
#
#
# Indices 1 2 3 4 5 6 
#
# 1 202.0670 33.1337 113.9835 0.0000 0.0000 0.0000
# 2 33.1337 48.7650 22.3967 0.0000 0.0000 0.0000
# 3 113.9835 22.3967 221.7435 0.0000 0.0000 0.0000
# 4 0.0000 0.0000 0.0000 4.4378 0.0000 0.0000
# 5 0.0000 0.0000 0.0000 0.0000 40.9733 0.0000
# 6 0.0000 0.0000 0.0000 0.0000 0.0000 37.9824
#
#
#
# Elastic Compliance Matrix: (Units=1/GPa)
#
#
# Indices 1 2 3 4 5 6 
#
# 1 0.007495 -0.003485 -0.003501 0.000000 0.000000 0.000000
# 2 -0.003485 0.023124 -0.000544 0.000000 0.000000 0.000000
# 3 -0.003501 -0.000544 0.006364 0.000000 0.000000 0.000000
# 4 0.000000 0.000000 0.000000 0.225337 0.000000 0.000000
# 5 0.000000 0.000000 0.000000 0.000000 0.024406 0.000000
# 6 0.000000 0.000000 0.000000 0.000000 0.000000 0.026328
#
#
# Mechanical properties :
#
#
# Convention : Reuss Voigt Hill
#
# Bulk Modulus (GPa) = 45.61240 90.17814 67.89527
# Shear Modulus (GPa) = 14.90659 36.88281 25.89470
#
# Velocity S-wave (km/s) = 2.67105 4.20151 3.52045
# Velocity P-wave (km/s) = 5.59853 8.16686 7.00147
#
# Compressibility (1/GPa) = 0.02192386
#
# Stress axis : x y z
#
# Youngs Moduli (GPa) = 133.42332 43.24465 157.12985
#
# Poissons Ratio (x) = 0.15069 0.55006
# Poissons Ratio (y) = 0.46494 0.08554
# Poissons Ratio (z) = 0.46707 0.02354
#
# Static dielectric constant tensor:
#      x y z
#    x 1.771120 0.000000 0.000000 
#    y 0.000000 1.762530 0.000000 
#    z 0.000000 0.000000 1.795370 
# 
# From -- ./inp_files/13516.got.cif
#   From: 2010.05.17/outbox.cif.g08.bks.cpg/sg72_7_cif.got.tgz:13516.got - 2010.06.03 17:03:01.
