data_PCOD9528643
_publ_section_title
;
Structure prediction by ZEFSAII (Michael W. Deem and Ramdas Pophale) SiO2 
 PCOD9528643
Probable space group: I B A M
;
_chemical_formula_sum "Si O2"
_cell_formula_units_Z 112
_cell_length_a 11.767565
_cell_length_b 14.886646
_cell_length_c 28.361186
_cell_angle_alpha 90.000000
_cell_angle_beta 90.000000
_cell_angle_gamma 90.000000
_cell_volume 4968.300494
_symmetry_space_group_name_H-M "I B A M"
_symmetry_group_IT_number 72
_symmetry_cell_setting 'orthorhombic'
loop_
_space_group_symop_operation_xyz
x,y,z
-x,-y,z
x,-y,1/2-z
-x,y,1/2-z
-x,-y,-z
x,y,-z
-x,y,1/2+z
x,-y,1/2+z
1/2+x,1/2+y,1/2+z
1/2-x,1/2-y,1/2+z
1/2+x,1/2-y,-z
1/2-x,1/2+y,-z
1/2-x,1/2-y,1/2-z
1/2+x,1/2+y,1/2-z
1/2-x,1/2+y,z
1/2+x,1/2-y,z
loop_
_atom_site_type_symbol
_atom_site_label
_atom_site_fract_x
_atom_site_fract_y
_atom_site_fract_z
Si Si1 0.468057 0.321408 0.681923
Si Si2 0.426015 0.875438 0.204456
Si Si3 0.283092 0.656766 0.558336
Si Si4 0.721975 0.347541 0.103085
Si Si5 0.524670 0.395689 0.950628
Si Si6 0.829066 0.102921 0.231437
Si Si7 0.122380 0.512708 0.610227
O O1 0.486050 0.214602 0.684607
O O2 0.383329 0.342775 0.639487
O O3 0.583171 0.379851 0.688042
O O4 0.390813 0.343612 0.727253
O O5 0.500000 0.903401 0.250000
O O6 0.296182 0.860708 0.221680
O O7 0.404891 0.942062 0.160838
O O8 0.273670 0.658238 0.500000
O O9 0.252307 0.749794 0.584198
O O10 0.413549 0.641520 0.575007
O O11 0.203137 0.579057 0.580354
O O12 0.656185 0.393199 0.060571
O O13 0.819259 0.415782 0.118675
O O14 0.500000 0.500000 0.953448
O O15 0.515729 0.345132 0.000000
O O16 0.823397 0.000000 0.250000
O O17 0.000000 0.500000 0.586063
#
# Coordination Sequence:
#
# PCOD9528643 Si02
#       7
#    16  16  16  16  16  16  16
#     4  11  24  42  72 104 139 189 252 315 376 450
#     4  12  27  47  73 101 150 205 254 315 387 471
#     4  11  26  50  78 113 152 200 256 315 390 472
#     4  12  26  45  76 110 155 197 251 317 387 460
#     4  10  22  44  75 107 143 191 247 308 374 449
#     4  11  25  44  68 104 143 190 252 313 384 452
#     4  12  30  49  72 112 156 206 255 318 394 470
#
# _framework density 22.542921
#
# number of rings (size 3 to 8) (size 9 to 14) (size 15 to 20)
#    0.000    0.714    4.286    2.571    8.000    2.000 
#    0.000    0.000    0.000    0.000    0.000    0.000 
#    0.000    0.000    0.000    0.000    0.000    0.000 
#
# Total GULP energy -312334.601370 kJ/mol
# GULP energy per Si atom -5577.403596 kJ/mol
# Density = 2.249161 g / cm^3
# Si number density = 22.542921 Si / 1000 Ang^3
#
#
#
# Elastic Constant Matrix: (Units=GPa)
#
#
# Indices 1 2 3 4 5 6 
#
# 1 119.5032 34.2944 8.5677 0.0000 0.0000 0.0000
# 2 34.2944 110.5826 8.7134 0.0000 0.0000 0.0000
# 3 8.5677 8.7134 51.9853 0.0000 0.0000 0.0000
# 4 0.0000 0.0000 0.0000 28.6966 0.0000 0.0000
# 5 0.0000 0.0000 0.0000 0.0000 33.4139 0.0000
# 6 0.0000 0.0000 0.0000 0.0000 0.0000 28.1903
#
#
#
# Elastic Compliance Matrix: (Units=1/GPa)
#
#
# Indices 1 2 3 4 5 6 
#
# 1 0.009242 -0.002783 -0.001057 0.000000 0.000000 0.000000
# 2 -0.002783 0.010002 -0.001218 0.000000 0.000000 0.000000
# 3 -0.001057 -0.001218 0.019614 0.000000 0.000000 0.000000
# 4 0.000000 0.000000 0.000000 0.034847 0.000000 0.000000
# 5 0.000000 0.000000 0.000000 0.000000 0.029928 0.000000
# 6 0.000000 0.000000 0.000000 0.000000 0.000000 0.035473
#
#
# Mechanical properties :
#
#
# Convention : Reuss Voigt Hill
#
# Bulk Modulus (GPa) = 34.79019 42.80248 38.79634
# Shear Modulus (GPa) = 31.48544 33.42653 32.45598
#
# Velocity S-wave (km/s) = 3.74128 3.85489 3.79851
# Velocity P-wave (km/s) = 5.84203 6.23232 6.04033
#
# Compressibility (1/GPa) = 0.02874373
#
# Stress axis : x y z
#
# Youngs Moduli (GPa) = 108.19703 99.97943 50.98275
#
# Poissons Ratio (x) = 0.27825 0.05388
# Poissons Ratio (y) = 0.30112 0.06209
# Poissons Ratio (z) = 0.11434 0.12176
#
# Static dielectric constant tensor:
#      x y z
#    x 1.837300 0.000000 0.000000 
#    y 0.000000 1.931790 0.000000 
#    z 0.000000 0.000000 1.997640 
# 
# From -- ./inp_files/51465.got.cif
#   From: 2010.05.17/outbox.cif.g08.bks.cpg/sg72_26_cif.got.tgz:51465.got - 2010.06.03 17:03:01.
