data_PCOD9528727
_publ_section_title
;
Structure prediction by ZEFSAII (Michael W. Deem and Ramdas Pophale) SiO2 
 PCOD9528727
Probable space group: I B A M
;
_chemical_formula_sum "Si O2"
_cell_formula_units_Z 88
_cell_length_a 9.949103
_cell_length_b 21.113417
_cell_length_c 19.594269
_cell_angle_alpha 90.000000
_cell_angle_beta 90.000000
_cell_angle_gamma 90.000000
_cell_volume 4115.963533
_symmetry_space_group_name_H-M "I B A M"
_symmetry_group_IT_number 72
_symmetry_cell_setting 'orthorhombic'
loop_
_space_group_symop_operation_xyz
x,y,z
-x,-y,z
x,-y,1/2-z
-x,y,1/2-z
-x,-y,-z
x,y,-z
-x,y,1/2+z
x,-y,1/2+z
1/2+x,1/2+y,1/2+z
1/2-x,1/2-y,1/2+z
1/2+x,1/2-y,-z
1/2-x,1/2+y,-z
1/2-x,1/2-y,1/2-z
1/2+x,1/2+y,1/2-z
1/2-x,1/2+y,z
1/2+x,1/2-y,z
loop_
_atom_site_type_symbol
_atom_site_label
_atom_site_fract_x
_atom_site_fract_y
_atom_site_fract_z
Si Si1 0.777593 0.631991 0.863893
Si Si2 0.027939 0.930133 0.892254
Si Si3 0.606997 0.658559 0.500000
Si Si4 0.055349 0.566437 0.147312
Si Si5 0.321870 0.575452 0.229989
Si Si6 0.899669 0.400448 0.000000
Si Si7 0.651113 0.195549 0.000000
O O1 0.689105 0.575148 0.895233
O O2 0.931252 0.615126 0.848274
O O3 0.464570 0.625525 0.936221
O O4 0.774960 0.682722 0.926398
O O5 0.200394 0.871497 0.790189
O O6 0.953073 0.923369 0.818789
O O7 0.000000 0.000000 0.918150
O O8 0.763373 0.639792 0.500000
O O9 0.596924 0.733557 0.500000
O O10 0.189351 0.586782 0.184760
O O11 0.000000 0.500000 0.173710
O O12 0.093413 0.559448 0.068304
O O13 0.312821 0.500000 0.250000
O O14 0.028531 0.354222 0.000000
#
# Coordination Sequence:
#
# PCOD9528727 Si02
#       7
#    16  16   8  16  16   8   8
#     4  11  24  40  68  96 135 178 226 277 342 414
#     4  12  24  42  68 105 143 174 219 284 363 428
#     4  12  26  46  71  92 127 181 234 286 345 408
#     4  11  20  38  63  97 135 172 210 263 332 406
#     4  12  22  39  64 102 146 176 210 271 348 428
#     4  10  23  41  63  94 126 168 228 275 327 390
#     4  10  27  49  67  90 128 181 243 295 326 404
#
# _framework density 21.38017
#
# number of rings (size 3 to 8) (size 9 to 14) (size 15 to 20)
#    0.000    0.727    5.455    2.182    2.545    0.000 
#    0.000    0.909    0.000    2.182    0.000    0.000 
#    0.000    0.000    0.000    0.000    0.000    0.000 
#
# Total GULP energy -245103.443585 kJ/mol
# GULP energy per Si atom -5570.532809 kJ/mol
# Density = 2.133151 g / cm^3
# Si number density = 21.380170 Si / 1000 Ang^3
#
#
#
# Elastic Constant Matrix: (Units=GPa)
#
#
# Indices 1 2 3 4 5 6 
#
# 1 92.3379 -0.1379 16.9479 0.0000 0.0000 0.0000
# 2 -0.1379 82.1492 45.4840 0.0000 0.0000 0.0000
# 3 16.9479 45.4840 147.3782 0.0000 0.0000 0.0000
# 4 0.0000 0.0000 0.0000 20.3733 0.0000 0.0000
# 5 0.0000 0.0000 0.0000 0.0000 16.0083 0.0000
# 6 0.0000 0.0000 0.0000 0.0000 0.0000 21.4693
#
#
#
# Elastic Compliance Matrix: (Units=1/GPa)
#
#
# Indices 1 2 3 4 5 6 
#
# 1 0.011115 0.000876 -0.001549 0.000000 0.000000 0.000000
# 2 0.000876 0.014751 -0.004653 0.000000 0.000000 0.000000
# 3 -0.001549 -0.004653 0.008399 0.000000 0.000000 0.000000
# 4 0.000000 0.000000 0.000000 0.049084 0.000000 0.000000
# 5 0.000000 0.000000 0.000000 0.000000 0.062468 0.000000
# 6 0.000000 0.000000 0.000000 0.000000 0.000000 0.046578
#
#
# Mechanical properties :
#
#
# Convention : Reuss Voigt Hill
#
# Bulk Modulus (GPa) = 42.34743 49.60593 45.97668
# Shear Modulus (GPa) = 23.70589 28.87492 26.29040
#
# Velocity S-wave (km/s) = 3.33345 3.67897 3.51046
# Velocity P-wave (km/s) = 5.88776 6.42640 6.16297
#
# Compressibility (1/GPa) = 0.02361418
#
# Stress axis : x y z
#
# Youngs Moduli (GPa) = 89.96588 67.79303 119.05610
#
# Poissons Ratio (x) = -0.05939 0.18437
# Poissons Ratio (y) = -0.07882 0.55399
# Poissons Ratio (z) = 0.13932 0.31545
#
# Static dielectric constant tensor:
#      x y z
#    x 1.800610 0.000000 0.000000 
#    y 0.000000 1.708890 0.000000 
#    z 0.000000 0.000000 1.915310 
# 
# From -- ./inp_files/35891.got.cif
#   From: 2010.05.17/outbox.cif.g08.bks.cpg/sg72_18_cif.got.tgz:35891.got - 2010.06.03 17:03:01.
