data_PCOD9528322
_publ_section_title
;
Structure prediction by ZEFSAII (Michael W. Deem and Ramdas Pophale) SiO2 
 PCOD9528322
Probable space group: I B A M
;
_chemical_formula_sum "Si O2"
_cell_formula_units_Z 48
_cell_length_a 5.161041
_cell_length_b 31.954856
_cell_length_c 14.337201
_cell_angle_alpha 90.000000
_cell_angle_beta 90.000000
_cell_angle_gamma 90.000000
_cell_volume 2364.495805
_symmetry_space_group_name_H-M "I B A M"
_symmetry_group_IT_number 72
_symmetry_cell_setting 'orthorhombic'
loop_
_space_group_symop_operation_xyz
x,y,z
-x,-y,z
x,-y,1/2-z
-x,y,1/2-z
-x,-y,-z
x,y,-z
-x,y,1/2+z
x,-y,1/2+z
1/2+x,1/2+y,1/2+z
1/2-x,1/2-y,1/2+z
1/2+x,1/2-y,-z
1/2-x,1/2+y,-z
1/2-x,1/2-y,1/2-z
1/2+x,1/2+y,1/2-z
1/2-x,1/2+y,z
1/2+x,1/2-y,z
loop_
_atom_site_type_symbol
_atom_site_label
_atom_site_fract_x
_atom_site_fract_y
_atom_site_fract_z
Si Si1 0.500000 0.840687 0.750000
Si Si2 0.241313 0.422500 0.192114
Si Si3 0.242194 0.222541 0.891069
Si Si4 0.749241 0.529337 0.000000
O O1 0.678805 0.872803 0.691216
O O2 0.671555 0.812898 0.819198
O O3 0.500000 0.429884 0.250000
O O4 0.000000 0.441069 0.250000
O O5 0.254053 0.441993 0.091174
O O6 0.953383 0.240249 0.876748
O O7 0.265799 0.209491 0.000000
O O8 0.500000 0.500000 0.000000
O O9 0.000000 0.500000 0.000000
#
# Coordination Sequence:
#
# PCOD9528322 Si02
#       4
#     8  16  16   8
#     4  10  24  38  67  84 134 160 218 262 321 370
#     4  10  25  43  65 100 127 168 215 265 328 383
#     4  10  22  38  59  90 122 169 214 258 315 369
#     4  12  26  46  72  96 130 170 212 268 326 402
#
# _framework density 20.300312000000002
#
# number of rings (size 3 to 8) (size 9 to 14) (size 15 to 20)
#    1.000    0.667    0.000    3.000    7.000    4.000 
#    3.000    0.000    0.000    0.000    0.000    0.000 
#    0.000    0.000    0.000    0.000    0.000    0.000 
#
# Total GULP energy -134143.614171 kJ/mol
# GULP energy per Si atom -5589.317257 kJ/mol
# Density = 2.025411 g / cm^3
# Si number density = 20.300312 Si / 1000 Ang^3
#
#
#
# Elastic Constant Matrix: (Units=GPa)
#
#
# Indices 1 2 3 4 5 6 
#
# 1 99.7231 12.9487 9.1932 0.0000 0.0000 0.0000
# 2 12.9487 93.3862 72.0706 0.0000 0.0000 0.0000
# 3 9.1932 72.0706 125.2163 0.0000 0.0000 0.0000
# 4 0.0000 0.0000 0.0000 52.3959 0.0000 0.0000
# 5 0.0000 0.0000 0.0000 0.0000 29.5364 0.0000
# 6 0.0000 0.0000 0.0000 0.0000 0.0000 50.6435
#
#
#
# Elastic Compliance Matrix: (Units=1/GPa)
#
#
# Indices 1 2 3 4 5 6 
#
# 1 0.010213 -0.001507 0.000117 0.000000 0.000000 0.000000
# 2 -0.001507 0.019488 -0.011106 0.000000 0.000000 0.000000
# 3 0.000117 -0.011106 0.014370 0.000000 0.000000 0.000000
# 4 0.000000 0.000000 0.000000 0.019085 0.000000 0.000000
# 5 0.000000 0.000000 0.000000 0.000000 0.033857 0.000000
# 6 0.000000 0.000000 0.000000 0.000000 0.000000 0.019746
#
#
# Mechanical properties :
#
#
# Convention : Reuss Voigt Hill
#
# Bulk Modulus (GPa) = 52.41130 56.30564 54.35847
# Shear Modulus (GPa) = 33.75869 41.45600 37.60734
#
# Velocity S-wave (km/s) = 4.08237 4.52390 4.30880
# Velocity P-wave (km/s) = 6.93506 7.42187 7.18259
#
# Compressibility (1/GPa) = 0.01907985
#
# Stress axis : x y z
#
# Youngs Moduli (GPa) = 97.91846 51.31256 69.58937
#
# Poissons Ratio (x) = 0.07731 -0.00817
# Poissons Ratio (y) = 0.14753 0.77288
# Poissons Ratio (z) = -0.01149 0.56989
#
# Static dielectric constant tensor:
#      x y z
#    x 1.707640 0.000000 0.000000 
#    y 0.000000 1.718180 0.000000 
#    z 0.000000 0.000000 1.678260 
# 
# From -- ./inp_files/17423.got.cif
#   From: 2010.05.17/outbox.cif.g08.bks.cpg/sg72_9_cif.got.tgz:17423.got - 2010.06.03 17:03:01.
