data_PCOD9528567
_publ_section_title
;
Structure prediction by ZEFSAII (Michael W. Deem and Ramdas Pophale) SiO2 
 PCOD9528567
Probable space group: I B A M
;
_chemical_formula_sum "Si O2"
_cell_formula_units_Z 96
_cell_length_a 29.470896
_cell_length_b 9.067887
_cell_length_c 19.001977
_cell_angle_alpha 90.000000
_cell_angle_beta 90.000000
_cell_angle_gamma 90.000000
_cell_volume 5078.064671
_symmetry_space_group_name_H-M "I B A M"
_symmetry_group_IT_number 72
_symmetry_cell_setting 'orthorhombic'
loop_
_space_group_symop_operation_xyz
x,y,z
-x,-y,z
x,-y,1/2-z
-x,y,1/2-z
-x,-y,-z
x,y,-z
-x,y,1/2+z
x,-y,1/2+z
1/2+x,1/2+y,1/2+z
1/2-x,1/2-y,1/2+z
1/2+x,1/2-y,-z
1/2-x,1/2+y,-z
1/2-x,1/2-y,1/2-z
1/2+x,1/2+y,1/2-z
1/2-x,1/2+y,z
1/2+x,1/2-y,z
loop_
_atom_site_type_symbol
_atom_site_label
_atom_site_fract_x
_atom_site_fract_y
_atom_site_fract_z
Si Si1 0.529566 0.357693 0.417262
Si Si2 0.377917 0.275972 0.315391
Si Si3 0.124924 0.874982 0.156727
Si Si4 0.791503 0.721471 0.583816
Si Si5 0.979152 0.337698 0.678996
Si Si6 0.196523 0.376100 0.914421
O O1 0.500000 0.500000 0.394777
O O2 0.538009 0.368259 0.500000
O O3 0.576787 0.333483 0.377397
O O4 0.497223 0.227305 0.393558
O O5 0.378578 0.447344 0.339454
O O6 0.368339 0.297258 0.232401
O O7 0.425691 0.189973 0.319283
O O8 0.342633 0.191589 0.365452
O O9 0.167657 0.820300 0.112466
O O10 0.793339 0.727751 0.500000
O O11 0.797070 0.549311 0.602704
O O12 0.742786 0.788840 0.603588
O O13 0.000000 0.500000 0.680952
O O14 0.000000 0.261847 0.750000
O O15 0.188270 0.362067 0.000000
#
# Coordination Sequence:
#
# PCOD9528567 Si02
#       6
#    16  16  16  16  16  16
#     4  11  23  40  64  92 123 167 214 262 311 373
#     4  11  24  40  64  92 124 170 209 262 317 369
#     4  11  23  40  64  92 127 165 214 258 316 380
#     4  10  22  42  67  94 129 167 205 262 319 376
#     4  11  24  41  63  89 129 172 210 258 315 372
#     4  10  23  42  66  95 127 165 211 259 317 379
#
# _framework density 18.90484
#
# number of rings (size 3 to 8) (size 9 to 14) (size 15 to 20)
#    0.000    1.333    3.333    1.500    2.333    5.333 
#    0.000    0.000    0.000    0.000    0.000    0.000 
#    0.000    0.000    0.000    0.000    0.000    0.000 
#
# Total GULP energy -267663.731650 kJ/mol
# GULP energy per Si atom -5576.327743 kJ/mol
# Density = 1.886181 g / cm^3
# Si number density = 18.904840 Si / 1000 Ang^3
#
#
#
# Elastic Constant Matrix: (Units=GPa)
#
#
# Indices 1 2 3 4 5 6 
#
# 1 150.7691 53.2251 40.4395 0.0000 0.0000 0.0000
# 2 53.2251 90.2689 32.5491 0.0000 0.0000 0.0000
# 3 40.4395 32.5491 27.6177 0.0000 0.0000 0.0000
# 4 0.0000 0.0000 0.0000 44.3850 0.0000 0.0000
# 5 0.0000 0.0000 0.0000 0.0000 48.1719 0.0000
# 6 0.0000 0.0000 0.0000 0.0000 0.0000 35.8855
#
#
#
# Elastic Compliance Matrix: (Units=1/GPa)
#
#
# Indices 1 2 3 4 5 6 
#
# 1 0.010994 -0.001179 -0.014709 0.000000 0.000000 0.000000
# 2 -0.001179 0.019391 -0.021128 0.000000 0.000000 0.000000
# 3 -0.014709 -0.021128 0.082647 0.000000 0.000000 0.000000
# 4 0.000000 0.000000 0.000000 0.022530 0.000000 0.000000
# 5 0.000000 0.000000 0.000000 0.000000 0.020759 0.000000
# 6 0.000000 0.000000 0.000000 0.000000 0.000000 0.027866
#
#
# Mechanical properties :
#
#
# Convention : Reuss Voigt Hill
#
# Bulk Modulus (GPa) = 25.64031 57.89813 41.76922
# Shear Modulus (GPa) = 18.43526 35.18462 26.80994
#
# Velocity S-wave (km/s) = 3.12614 4.31878 3.76992
# Velocity P-wave (km/s) = 5.15971 7.45397 6.41032
#
# Compressibility (1/GPa) = 0.03900109
#
# Stress axis : x y z
#
# Youngs Moduli (GPa) = 90.95870 51.56962 12.09965
#
# Poissons Ratio (x) = 0.06078 0.17797
# Poissons Ratio (y) = 0.10720 0.25564
# Poissons Ratio (z) = 1.33791 1.08956
#
# Static dielectric constant tensor:
#      x y z
#    x 1.162400 0.000000 0.000000 
#    y 0.000000 1.662520 0.000000 
#    z 0.000000 0.000000 1.664580 
# 
# From -- ./inp_files/40670.got.cif
#   From: 2010.05.17/outbox.cif.g08.bks.cpg/sg72_21_cif.got.tgz:40670.got - 2010.06.03 17:03:01.
