data_PCOD9528922
_publ_section_title
;
Structure prediction by ZEFSAII (Michael W. Deem and Ramdas Pophale) SiO2 
 PCOD9528922
Probable space group: I B A M
;
_chemical_formula_sum "Si O2"
_cell_formula_units_Z 60
_cell_length_a 19.276668
_cell_length_b 16.493314
_cell_length_c 10.021819
_cell_angle_alpha 90.000000
_cell_angle_beta 90.000000
_cell_angle_gamma 90.000000
_cell_volume 3186.298431
_symmetry_space_group_name_H-M "I B A M"
_symmetry_group_IT_number 72
_symmetry_cell_setting 'orthorhombic'
loop_
_space_group_symop_operation_xyz
x,y,z
-x,-y,z
x,-y,1/2-z
-x,y,1/2-z
-x,-y,-z
x,y,-z
-x,y,1/2+z
x,-y,1/2+z
1/2+x,1/2+y,1/2+z
1/2-x,1/2-y,1/2+z
1/2+x,1/2-y,-z
1/2-x,1/2+y,-z
1/2-x,1/2-y,1/2-z
1/2+x,1/2+y,1/2-z
1/2-x,1/2+y,z
1/2+x,1/2-y,z
loop_
_atom_site_type_symbol
_atom_site_label
_atom_site_fract_x
_atom_site_fract_y
_atom_site_fract_z
Si Si1 0.606080 0.000000 0.750000
Si Si2 0.847531 0.829505 0.753193
Si Si3 0.434071 0.613472 0.000000
Si Si4 0.000000 0.500000 0.500000
Si Si5 0.189254 0.348202 0.657754
Si Si6 0.096655 0.077033 0.500000
O O1 0.653292 0.920557 0.763766
O O2 0.559547 0.994948 0.618036
O O3 0.844144 0.737415 0.700986
O O4 0.771075 0.846747 0.810757
O O5 0.865764 0.888596 0.630888
O O6 0.903596 0.843291 0.869260
O O7 0.517276 0.609307 0.000000
O O8 0.407406 0.520281 0.000000
O O9 0.179294 0.358725 0.500000
#
# Coordination Sequence:
#
# PCOD9528922 Si02
#       6
#     8  16   8   4  16   8
#     4  11  24  46  72  98 133 182 216 282 331 406
#     4  11  24  43  69 100 134 174 217 286 322 397
#     4  11  24  43  66 101 135 175 222 263 334 409
#     4  10  24  46  64 102 136 166 228 274 332 390
#     4  11  24  45  68 101 134 167 232 271 340 389
#     4  11  24  43  66  99 139 175 218 265 336 405
#
# _framework density 18.830628999999998
#
# number of rings (size 3 to 8) (size 9 to 14) (size 15 to 20)
#    0.000    1.067    4.000    1.600    3.733    4.267 
#   14.400    0.000    0.000    0.000    0.000    0.000 
#    0.000    0.000    0.000    0.000    0.000    0.000 
#
# Total GULP energy -167190.510442 kJ/mol
# GULP energy per Si atom -5573.017015 kJ/mol
# Density = 1.878777 g / cm^3
# Si number density = 18.830629 Si / 1000 Ang^3
#
#
#
# Elastic Constant Matrix: (Units=GPa)
#
#
# Indices 1 2 3 4 5 6 
#
# 1 54.2896 36.6199 11.9980 0.0000 0.0000 0.0000
# 2 36.6199 72.1741 7.3430 0.0000 0.0000 0.0000
# 3 11.9980 7.3430 119.3666 0.0000 0.0000 0.0000
# 4 0.0000 0.0000 0.0000 21.3158 0.0000 0.0000
# 5 0.0000 0.0000 0.0000 0.0000 12.5264 0.0000
# 6 0.0000 0.0000 0.0000 0.0000 0.0000 33.7487
#
#
#
# Elastic Compliance Matrix: (Units=1/GPa)
#
#
# Indices 1 2 3 4 5 6 
#
# 1 0.028464 -0.014240 -0.001985 0.000000 0.000000 0.000000
# 2 -0.014240 0.021067 0.000135 0.000000 0.000000 0.000000
# 3 -0.001985 0.000135 0.008569 0.000000 0.000000 0.000000
# 4 0.000000 0.000000 0.000000 0.046913 0.000000 0.000000
# 5 0.000000 0.000000 0.000000 0.000000 0.079831 0.000000
# 6 0.000000 0.000000 0.000000 0.000000 0.000000 0.029631
#
#
# Mechanical properties :
#
#
# Convention : Reuss Voigt Hill
#
# Bulk Modulus (GPa) = 38.58044 39.75025 39.16534
# Shear Modulus (GPa) = 19.58524 26.17615 22.88070
#
# Velocity S-wave (km/s) = 3.22852 3.73243 3.48958
# Velocity P-wave (km/s) = 5.86774 6.30316 6.08934
#
# Compressibility (1/GPa) = 0.02591987
#
# Stress axis : x y z
#
# Youngs Moduli (GPa) = 35.13239 47.46805 116.70321
#
# Poissons Ratio (x) = 0.67595 0.23166
# Poissons Ratio (y) = 0.50029 -0.01580
# Poissons Ratio (z) = 0.06974 -0.00643
#
# Static dielectric constant tensor:
#      x y z
#    x 1.627550 0.000000 0.000000 
#    y 0.000000 1.635330 0.000000 
#    z 0.000000 0.000000 1.620510 
# 
# From -- ./inp_files/4223.got.cif
#   From: 2010.05.17/outbox.cif.g08.bks.cpg/sg72_3_cif.got.tgz:4223.got - 2010.06.03 17:03:01.
