data_PCOD9528860
_publ_section_title
;
Structure prediction by ZEFSAII (Michael W. Deem and Ramdas Pophale) SiO2 
 PCOD9528860
Probable space group: I B A M
;
_chemical_formula_sum "Si O2"
_cell_formula_units_Z 56
_cell_length_a 7.283624
_cell_length_b 24.058652
_cell_length_c 13.055611
_cell_angle_alpha 90.000000
_cell_angle_beta 90.000000
_cell_angle_gamma 90.000000
_cell_volume 2287.789224
_symmetry_space_group_name_H-M "I B A M"
_symmetry_group_IT_number 72
_symmetry_cell_setting 'orthorhombic'
loop_
_space_group_symop_operation_xyz
x,y,z
-x,-y,z
x,-y,1/2-z
-x,y,1/2-z
-x,-y,-z
x,y,-z
-x,y,1/2+z
x,-y,1/2+z
1/2+x,1/2+y,1/2+z
1/2-x,1/2-y,1/2+z
1/2+x,1/2-y,-z
1/2-x,1/2+y,-z
1/2-x,1/2-y,1/2-z
1/2+x,1/2+y,1/2-z
1/2-x,1/2+y,z
1/2+x,1/2-y,z
loop_
_atom_site_type_symbol
_atom_site_label
_atom_site_fract_x
_atom_site_fract_y
_atom_site_fract_z
Si Si1 0.231558 0.568262 0.153210
Si Si2 0.500000 0.233286 0.250000
Si Si3 0.303272 0.685671 0.886721
Si Si4 0.208905 0.440659 0.886986
O O1 0.337541 0.620196 0.107103
O O2 0.267307 0.505880 0.115376
O O3 0.272449 0.575750 0.273930
O O4 0.012343 0.570187 0.125817
O O5 0.540119 0.273928 0.154628
O O6 0.656864 0.194465 0.295367
O O7 0.241915 0.703236 0.000000
O O8 0.257789 0.418136 0.000000
#
# Coordination Sequence:
#
# PCOD9528860 Si02
#       4
#    16   8  16  16
#     4   9  17  26  47  76 105 137 176 216 271 330
#     4  10  24  38  56  84 110 144 198 234 278 346
#     4  11  21  39  59  81 113 150 185 237 287 330
#     4   9  15  26  43  76 112 138 169 217 266 324
#
# _framework density 24.477779999999999
#
# number of rings (size 3 to 8) (size 9 to 14) (size 15 to 20)
#    0.000    2.286    0.000    7.714    0.000    0.000 
#    0.000    7.143    0.000    3.429    0.000   10.000 
#    0.000    0.000    0.000    0.000    0.000    0.000 
#
# Total GULP energy -155927.226795 kJ/mol
# GULP energy per Si atom -5568.829528 kJ/mol
# Density = 2.442207 g / cm^3
# Si number density = 24.477780 Si / 1000 Ang^3
#
#
#
# Elastic Constant Matrix: (Units=GPa)
#
#
# Indices 1 2 3 4 5 6 
#
# 1 36.1287 9.3865 11.3459 0.0000 0.0000 0.0000
# 2 9.3865 108.8615 35.1583 0.0001 0.0000 0.0000
# 3 11.3459 35.1583 226.9129 0.0002 0.0000 0.0000
# 4 0.0000 0.0001 0.0002 -212.0762 0.0000 0.0000
# 5 0.0000 0.0000 0.0000 0.0000 15.6647 0.0000
# 6 0.0000 0.0000 0.0000 0.0000 0.0000 9.4763
#
#
#
# Elastic Compliance Matrix: (Units=1/GPa)
#
#
# Indices 1 2 3 4 5 6 
#
# 1 0.028573 -0.002108 -0.001102 0.000000 0.000000 0.000000
# 2 -0.002108 0.009825 -0.001417 0.000000 0.000000 0.000000
# 3 -0.001102 -0.001417 0.004682 0.000000 0.000000 0.000000
# 4 0.000000 0.000000 0.000000 -0.004715 0.000000 0.000000
# 5 0.000000 0.000000 0.000000 0.000000 0.063838 0.000000
# 6 0.000000 0.000000 0.000000 0.000000 0.000000 0.105526
#
#
# Mechanical properties :
#
#
# Convention : Reuss Voigt Hill
#
# Bulk Modulus (GPa) = 29.56309 53.74272 41.65290
# Shear Modulus (GPa) = 21.90511 -16.31955 2.79278
#
# Velocity S-wave (km/s) = 2.99473 -2.58487 1.06931
# Velocity P-wave (km/s) = 4.90526 3.61865 4.31023
#
# Compressibility (1/GPa) = 0.03382597
#
# Stress axis : x y z
#
# Youngs Moduli (GPa) = 34.99865 101.77750 213.60083
#
# Poissons Ratio (x) = 0.21452 0.23540
# Poissons Ratio (y) = 0.07377 0.30267
# Poissons Ratio (z) = 0.03857 0.14422
#
# Static dielectric constant tensor:
#      x y z
#    x 2.055370 0.000000 0.000000 
#    y 0.000000 1.929830 0.000000 
#    z 0.000000 0.000000 1.926270 
# 
# From -- ./inp_files/18550.got.cif
#   From: 2010.05.17/outbox.cif.g08.bks.cpg/sg72_10_cif.got.tgz:18550.got - 2010.06.03 17:03:01.
