data_PCOD9528232
_publ_section_title
;
Structure prediction by ZEFSAII (Michael W. Deem and Ramdas Pophale) SiO2 
 PCOD9528232
Probable space group: I B A M
;
_chemical_formula_sum "Si O2"
_cell_formula_units_Z 128
_cell_length_a 10.140358
_cell_length_b 22.491270
_cell_length_c 22.806366
_cell_angle_alpha 90.000000
_cell_angle_beta 90.000000
_cell_angle_gamma 90.000000
_cell_volume 5201.437167
_symmetry_space_group_name_H-M "I B A M"
_symmetry_group_IT_number 72
_symmetry_cell_setting 'orthorhombic'
loop_
_space_group_symop_operation_xyz
x,y,z
-x,-y,z
x,-y,1/2-z
-x,y,1/2-z
-x,-y,-z
x,y,-z
-x,y,1/2+z
x,-y,1/2+z
1/2+x,1/2+y,1/2+z
1/2-x,1/2-y,1/2+z
1/2+x,1/2-y,-z
1/2-x,1/2+y,-z
1/2-x,1/2-y,1/2-z
1/2+x,1/2+y,1/2-z
1/2-x,1/2+y,z
1/2+x,1/2-y,z
loop_
_atom_site_type_symbol
_atom_site_label
_atom_site_fract_x
_atom_site_fract_y
_atom_site_fract_z
Si Si1 0.618186 0.211031 0.433822
Si Si2 0.367346 0.577489 0.435424
Si Si3 0.053895 0.820225 0.147867
Si Si4 0.779634 0.858329 0.148935
Si Si5 0.725980 0.818285 0.263751
Si Si6 0.940073 0.396992 0.564972
Si Si7 0.652110 0.494702 0.834364
Si Si8 0.588315 0.924768 0.691977
O O1 0.641489 0.232759 0.500000
O O2 0.611723 0.264388 0.387456
O O3 0.724793 0.162037 0.413085
O O4 0.486821 0.171253 0.432579
O O5 0.421984 0.573373 0.500000
O O6 0.444703 0.623840 0.395712
O O7 0.217371 0.600555 0.436886
O O8 0.358225 0.516362 0.401271
O O9 0.136289 0.835870 0.205216
O O10 0.901612 0.814446 0.162214
O O11 0.680499 0.843058 0.201002
O O12 0.812059 0.925993 0.162578
O O13 0.750000 0.750000 0.250000
O O14 0.628268 0.854704 0.305830
O O15 0.987404 0.419844 0.500000
O O16 0.976837 0.430237 0.626494
O O17 0.500000 0.500000 0.811366
O O18 0.773156 0.535784 0.808195
O O19 0.500000 0.937977 0.750000
#
# Coordination Sequence:
#
# PCOD9528232 Si02
#       8
#    16  16  16  16  16  16  16  16
#     4  11  26  44  67 104 149 196 251 323 393 469
#     4  10  21  42  73 107 144 198 254 308 373 458
#     4  12  24  45  69 105 143 195 248 311 385 472
#     4  12  27  45  72 105 148 192 248 311 390 468
#     4  12  25  45  69 104 147 193 247 317 390 470
#     4   9  20  43  72 102 147 199 248 311 390 460
#     4  11  23  49  73 109 156 202 258 323 394 476
#     4  11  24  45  78 114 155 206 269 329 395 475
#
# _framework density 24.608584
#
# number of rings (size 3 to 8) (size 9 to 14) (size 15 to 20)
#    0.000    1.000    5.000    1.500    3.500    2.250 
#    0.000    8.125    0.000    6.750    0.000    0.000 
#    0.000    0.500    0.000    0.000    0.000    0.000 
#
# Total GULP energy -357084.623457 kJ/mol
# GULP energy per Si atom -5579.447242 kJ/mol
# Density = 2.455257 g / cm^3
# Si number density = 24.608584 Si / 1000 Ang^3
#
#
#
# Elastic Constant Matrix: (Units=GPa)
#
#
# Indices 1 2 3 4 5 6 
#
# 1 83.2228 11.2484 21.5993 0.0000 0.0000 0.0000
# 2 11.2484 132.5608 23.4925 0.0000 0.0000 0.0000
# 3 21.5993 23.4925 161.8404 0.0000 0.0000 0.0000
# 4 0.0000 0.0000 0.0000 21.5653 0.0000 0.0000
# 5 0.0000 0.0000 0.0000 0.0000 17.7532 0.0000
# 6 0.0000 0.0000 0.0000 0.0000 0.0000 28.9361
#
#
#
# Elastic Compliance Matrix: (Units=1/GPa)
#
#
# Indices 1 2 3 4 5 6 
#
# 1 0.012527 -0.000787 -0.001558 0.000000 0.000000 0.000000
# 2 -0.000787 0.007792 -0.001026 0.000000 0.000000 0.000000
# 3 -0.001558 -0.001026 0.006536 0.000000 0.000000 0.000000
# 4 0.000000 0.000000 0.000000 0.046371 0.000000 0.000000
# 5 0.000000 0.000000 0.000000 0.000000 0.056328 0.000000
# 6 0.000000 0.000000 0.000000 0.000000 0.000000 0.034559
#
#
# Mechanical properties :
#
#
# Convention : Reuss Voigt Hill
#
# Bulk Modulus (GPa) = 49.71796 54.47828 52.09812
# Shear Modulus (GPa) = 28.15985 35.06984 31.61485
#
# Velocity S-wave (km/s) = 3.38644 3.77915 3.58817
# Velocity P-wave (km/s) = 5.96137 6.42095 6.19543
#
# Compressibility (1/GPa) = 0.02011345
#
# Stress axis : x y z
#
# Youngs Moduli (GPa) = 79.83053 128.33135 153.00462
#
# Poissons Ratio (x) = 0.10098 0.23832
# Poissons Ratio (y) = 0.06282 0.15700
# Poissons Ratio (z) = 0.12434 0.13168
#
# Static dielectric constant tensor:
#      x y z
#    x 2.061860 0.000000 0.000000 
#    y 0.000000 1.983480 0.000000 
#    z 0.000000 0.000000 1.984240 
# 
# From -- ./inp_files/43714.got.cif
#   From: 2010.05.17/outbox.cif.g08.bks.cpg/sg72_22_cif.got.tgz:43714.got - 2010.06.03 17:03:01.
