data_PCOD9528164
_publ_section_title
;
Structure prediction by ZEFSAII (Michael W. Deem and Ramdas Pophale) SiO2 
 PCOD9528164
Probable space group: I B A M
;
_chemical_formula_sum "Si O2"
_cell_formula_units_Z 68
_cell_length_a 21.570416
_cell_length_b 11.954122
_cell_length_c 13.090799
_cell_angle_alpha 90.000000
_cell_angle_beta 90.000000
_cell_angle_gamma 90.000000
_cell_volume 3375.533009
_symmetry_space_group_name_H-M "I B A M"
_symmetry_group_IT_number 72
_symmetry_cell_setting 'orthorhombic'
loop_
_space_group_symop_operation_xyz
x,y,z
-x,-y,z
x,-y,1/2-z
-x,y,1/2-z
-x,-y,-z
x,y,-z
-x,y,1/2+z
x,-y,1/2+z
1/2+x,1/2+y,1/2+z
1/2-x,1/2-y,1/2+z
1/2+x,1/2-y,-z
1/2-x,1/2+y,-z
1/2-x,1/2-y,1/2-z
1/2+x,1/2+y,1/2-z
1/2-x,1/2+y,z
1/2+x,1/2-y,z
loop_
_atom_site_type_symbol
_atom_site_label
_atom_site_fract_x
_atom_site_fract_y
_atom_site_fract_z
Si Si1 0.925587 0.631848 0.252857
Si Si2 0.783415 0.106112 0.694060
Si Si3 0.000000 0.000000 0.750000
Si Si4 0.171919 0.744918 0.884694
Si Si5 0.410919 0.657202 0.883491
O O1 0.908968 0.500000 0.250000
O O2 0.891976 0.684968 0.351740
O O3 0.904616 0.716501 0.162074
O O4 0.000000 0.638458 0.250000
O O5 0.810653 0.171149 0.793374
O O6 0.729873 0.161241 0.627597
O O7 0.844613 0.095631 0.626131
O O8 0.755316 0.000000 0.750000
O O9 0.042055 0.917440 0.682267
O O10 0.168648 0.788978 0.000000
O O11 0.431195 0.663383 0.000000
#
# Coordination Sequence:
#
# PCOD9528164 Si02
#       5
#    16  16   4  16  16
#     4  10  22  42  61  87 127 160 208 262 304 370
#     4  10  21  41  60  89 124 156 204 259 303 374
#     4  12  22  44  58  98 132 160 208 262 304 370
#     4  10  22  38  61  89 119 159 204 255 313 366
#     4  11  23  40  65  92 126 168 206 252 317 372
#
# _framework density 20.144967000000001
#
# number of rings (size 3 to 8) (size 9 to 14) (size 15 to 20)
#    0.000    1.647    2.353    1.765    0.000    3.765 
#    0.000    2.353    0.000    0.000    0.000    0.000 
#    0.000    0.000    0.000    0.000    0.000    0.000 
#
# Total GULP energy -189427.136593 kJ/mol
# GULP energy per Si atom -5571.386370 kJ/mol
# Density = 2.009912 g / cm^3
# Si number density = 20.144967 Si / 1000 Ang^3
#
#
#
# Elastic Constant Matrix: (Units=GPa)
#
#
# Indices 1 2 3 4 5 6 
#
# 1 86.1092 -4.5574 27.3346 0.0000 0.0000 0.0000
# 2 -4.5574 57.8006 28.3112 0.0000 0.0000 0.0000
# 3 27.3346 28.3112 136.4713 0.0000 0.0000 0.0000
# 4 0.0000 0.0000 0.0000 15.4553 0.0000 0.0000
# 5 0.0000 0.0000 0.0000 0.0000 -8.7038 0.0000
# 6 0.0000 0.0000 0.0000 0.0000 0.0000 19.2224
#
#
#
# Elastic Compliance Matrix: (Units=1/GPa)
#
#
# Indices 1 2 3 4 5 6 
#
# 1 0.012719 0.002505 -0.003067 0.000000 0.000000 0.000000
# 2 0.002505 0.019751 -0.004599 0.000000 0.000000 0.000000
# 3 -0.003067 -0.004599 0.008896 0.000000 0.000000 0.000000
# 4 0.000000 0.000000 0.000000 0.064703 0.000000 0.000000
# 5 0.000000 0.000000 0.000000 0.000000 -0.114893 0.000000
# 6 0.000000 0.000000 0.000000 0.000000 0.000000 0.052023
#
#
# Mechanical properties :
#
#
# Convention : Reuss Voigt Hill
#
# Bulk Modulus (GPa) = 32.21223 42.50644 37.35933
# Shear Modulus (GPa) = 78.28398 20.48095 49.38247
#
# Velocity S-wave (km/s) = 6.24057 3.19200 4.95649
# Velocity P-wave (km/s) = 8.24325 5.89332 7.16528
#
# Compressibility (1/GPa) = 0.03104411
#
# Stress axis : x y z
#
# Youngs Moduli (GPa) = 78.61953 50.63001 112.40940
#
# Poissons Ratio (x) = -0.12685 0.34480
# Poissons Ratio (y) = -0.19697 0.51700
# Poissons Ratio (z) = 0.24116 0.23286
#
# Static dielectric constant tensor:
#      x y z
#    x 1.707090 0.000000 0.000000 
#    y 0.000000 1.787130 0.000000 
#    z 0.000000 0.000000 1.684780 
# 
# From -- ./inp_files/14502.got.cif
#   From: 2010.05.17/outbox.cif.g08.bks.cpg/sg72_8_cif.got.tgz:14502.got - 2010.06.03 17:03:01.
