data_PCOD9528461
_publ_section_title
;
Structure prediction by ZEFSAII (Michael W. Deem and Ramdas Pophale) SiO2 
 PCOD9528461
Probable space group: I B A M
;
_chemical_formula_sum "Si O2"
_cell_formula_units_Z 96
_cell_length_a 15.309081
_cell_length_b 18.498933
_cell_length_c 14.542362
_cell_angle_alpha 90.000000
_cell_angle_beta 90.000000
_cell_angle_gamma 90.000000
_cell_volume 4118.421113
_symmetry_space_group_name_H-M "I B A M"
_symmetry_group_IT_number 72
_symmetry_cell_setting 'orthorhombic'
loop_
_space_group_symop_operation_xyz
x,y,z
-x,-y,z
x,-y,1/2-z
-x,y,1/2-z
-x,-y,-z
x,y,-z
-x,y,1/2+z
x,-y,1/2+z
1/2+x,1/2+y,1/2+z
1/2-x,1/2-y,1/2+z
1/2+x,1/2-y,-z
1/2-x,1/2+y,-z
1/2-x,1/2-y,1/2-z
1/2+x,1/2+y,1/2-z
1/2-x,1/2+y,z
1/2+x,1/2-y,z
loop_
_atom_site_type_symbol
_atom_site_label
_atom_site_fract_x
_atom_site_fract_y
_atom_site_fract_z
Si Si1 0.192050 0.636494 0.236485
Si Si2 0.038989 0.578718 0.894687
Si Si3 0.560559 0.784351 0.338288
Si Si4 0.201621 0.921354 0.105289
Si Si5 0.981172 0.862116 0.604196
Si Si6 0.158403 0.909860 0.392669
O O1 0.112982 0.602191 0.177550
O O2 0.155426 0.706911 0.290930
O O3 0.222910 0.588087 0.321229
O O4 0.272643 0.636236 0.165644
O O5 0.000000 0.500000 0.874627
O O6 0.964875 0.640448 0.886548
O O7 0.073127 0.578003 0.000000
O O8 0.500000 0.776341 0.250000
O O9 0.524544 0.717479 0.396808
O O10 0.117315 0.873790 0.137714
O O11 0.180529 0.005868 0.106682
O O12 0.224525 0.900286 0.000000
O O13 0.972830 0.890472 0.500000
O O14 0.060814 0.905150 0.648663
O O15 0.159104 0.885819 0.500000
#
# Coordination Sequence:
#
# PCOD9528461 Si02
#       6
#    16  16  16  16  16  16
#     4  11  24  41  66 100 137 170 222 283 339 403
#     4  10  23  43  70  97 130 177 222 271 333 401
#     4  10  24  41  64  92 130 175 223 272 332 406
#     4  10  23  41  67 100 136 177 225 282 340 401
#     4  10  22  44  66  92 134 183 228 276 338 409
#     4  10  22  40  67 101 136 176 223 279 344 406
#
# _framework density 23.309904
#
# number of rings (size 3 to 8) (size 9 to 14) (size 15 to 20)
#    0.000    1.833    0.000    2.000    7.000    6.333 
#    3.000    1.667    0.000    0.500    0.000    0.000 
#    0.000    0.000    0.000    0.000    0.000    0.000 
#
# Total GULP energy -267777.646130 kJ/mol
# GULP energy per Si atom -5578.700961 kJ/mol
# Density = 2.325685 g / cm^3
# Si number density = 23.309904 Si / 1000 Ang^3
#
#
#
# Elastic Constant Matrix: (Units=GPa)
#
#
# Indices 1 2 3 4 5 6 
#
# 1 94.0765 27.2863 49.9699 0.0000 0.0000 0.0000
# 2 27.2863 82.0068 23.6220 0.0000 0.0000 0.0000
# 3 49.9699 23.6220 130.2185 0.0000 0.0000 0.0000
# 4 0.0000 0.0000 0.0000 -48.8124 0.0000 0.0000
# 5 0.0000 0.0000 0.0000 0.0000 29.6147 0.0000
# 6 0.0000 0.0000 0.0000 0.0000 0.0000 2.3292
#
#
#
# Elastic Compliance Matrix: (Units=1/GPa)
#
#
# Indices 1 2 3 4 5 6 
#
# 1 0.014158 -0.003319 -0.004831 0.000000 0.000000 0.000000
# 2 -0.003319 0.013645 -0.001201 0.000000 0.000000 0.000000
# 3 -0.004831 -0.001201 0.009751 0.000000 0.000000 0.000000
# 4 0.000000 0.000000 0.000000 -0.020487 0.000000 0.000000
# 5 0.000000 0.000000 0.000000 0.000000 0.033767 0.000000
# 6 0.000000 0.000000 0.000000 0.000000 0.000000 0.429329
#
#
# Mechanical properties :
#
#
# Convention : Reuss Voigt Hill
#
# Bulk Modulus (GPa) = 53.04848 56.45092 54.74970
# Shear Modulus (GPa) = 9.89803 10.32119 10.10961
#
# Velocity S-wave (km/s) = 2.06289 2.10652 2.08482
# Velocity P-wave (km/s) = 5.33679 5.49424 5.41609
#
# Compressibility (1/GPa) = 0.01885068
#
# Stress axis : x y z
#
# Youngs Moduli (GPa) = 70.62903 73.28877 102.55161
#
# Poissons Ratio (x) = 0.24328 0.49543
# Poissons Ratio (y) = 0.23445 0.12320
# Poissons Ratio (z) = 0.34121 0.08805
#
# Static dielectric constant tensor:
#      x y z
#    x 1.934280 0.000000 0.000000 
#    y 0.000000 1.980430 0.000000 
#    z 0.000000 0.000000 1.964840 
# 
# From -- ./inp_files/21883.got.cif
#   From: 2010.05.17/outbox.cif.g08.bks.cpg/sg72_11_cif.got.tgz:21883.got - 2010.06.03 17:03:01.
