data_PCOD9528570
_publ_section_title
;
Structure prediction by ZEFSAII (Michael W. Deem and Ramdas Pophale) SiO2 
 PCOD9528570
Probable space group: I B A M
;
_chemical_formula_sum "Si O2"
_cell_formula_units_Z 64
_cell_length_a 10.227548
_cell_length_b 19.935545
_cell_length_c 14.032517
_cell_angle_alpha 90.000000
_cell_angle_beta 90.000000
_cell_angle_gamma 90.000000
_cell_volume 2861.114355
_symmetry_space_group_name_H-M "I B A M"
_symmetry_group_IT_number 72
_symmetry_cell_setting 'orthorhombic'
loop_
_space_group_symop_operation_xyz
x,y,z
-x,-y,z
x,-y,1/2-z
-x,y,1/2-z
-x,-y,-z
x,y,-z
-x,y,1/2+z
x,-y,1/2+z
1/2+x,1/2+y,1/2+z
1/2-x,1/2-y,1/2+z
1/2+x,1/2-y,-z
1/2-x,1/2+y,-z
1/2-x,1/2-y,1/2-z
1/2+x,1/2+y,1/2-z
1/2-x,1/2+y,z
1/2+x,1/2-y,z
loop_
_atom_site_type_symbol
_atom_site_label
_atom_site_fract_x
_atom_site_fract_y
_atom_site_fract_z
Si Si1 0.909281 0.434353 0.614787
Si Si2 0.153333 0.079046 0.256958
Si Si3 0.205158 0.810747 0.385904
Si Si4 0.013561 0.710248 0.114120
O O1 0.894237 0.439089 0.500000
O O2 0.764722 0.418827 0.659531
O O3 0.000000 0.500000 0.641997
O O4 0.986491 0.366396 0.640739
O O5 0.211711 0.118878 0.167562
O O6 0.000000 0.102184 0.250000
O O7 0.142821 0.000000 0.250000
O O8 0.195668 0.821787 0.500000
O O9 0.338309 0.771351 0.365413
O O10 0.088450 0.764227 0.350169
O O11 0.998157 0.711280 0.000000
#
# Coordination Sequence:
#
# PCOD9528570 Si02
#       4
#    16  16  16  16
#     4  10  22  43  71  98 130 179 236 288 337 396
#     4  11  26  43  62  98 138 175 225 278 340 414
#     4  10  22  42  67  97 136 177 221 279 341 404
#     4   9  20  38  65  99 130 170 225 275 332 406
#
# _framework density 22.368907
#
# number of rings (size 3 to 8) (size 9 to 14) (size 15 to 20)
#    0.000    2.000    0.000    1.500    3.500    8.500 
#    0.000    2.500    0.000    0.750    0.000    0.000 
#    0.000    0.000    0.000    0.000    0.000    0.000 
#
# Total GULP energy -178255.594579 kJ/mol
# GULP energy per Si atom -5570.487331 kJ/mol
# Density = 2.231799 g / cm^3
# Si number density = 22.368907 Si / 1000 Ang^3
#
#
#
# Elastic Constant Matrix: (Units=GPa)
#
#
# Indices 1 2 3 4 5 6 
#
# 1 171.3724 60.7770 58.1070 0.0000 0.0000 0.0000
# 2 60.7770 131.8041 39.7023 0.0000 0.0000 0.0001
# 3 58.1070 39.7023 133.0573 0.0000 0.0000 0.0002
# 4 0.0000 0.0000 0.0000 26.1829 0.0000 0.0001
# 5 0.0000 0.0000 0.0000 0.0000 22.4523 -0.0001
# 6 0.0000 0.0001 0.0002 0.0001 -0.0001 13.9967
#
#
#
# Elastic Compliance Matrix: (Units=1/GPa)
#
#
# Indices 1 2 3 4 5 6 
#
# 1 0.007677 -0.002780 -0.002523 0.000000 0.000000 0.000000
# 2 -0.002780 0.009343 -0.001574 0.000000 0.000000 0.000000
# 3 -0.002523 -0.001574 0.009087 0.000000 0.000000 0.000000
# 4 0.000000 0.000000 0.000000 0.038193 0.000000 0.000000
# 5 0.000000 0.000000 0.000000 0.000000 0.044539 0.000000
# 6 0.000000 0.000000 0.000000 0.000000 0.000000 0.071446
#
#
# Mechanical properties :
#
#
# Convention : Reuss Voigt Hill
#
# Bulk Modulus (GPa) = 80.95038 83.71182 82.33110
# Shear Modulus (GPa) = 25.23282 31.03620 28.13451
#
# Velocity S-wave (km/s) = 3.36226 3.72892 3.55033
# Velocity P-wave (km/s) = 7.16522 7.48627 7.32751
#
# Compressibility (1/GPa) = 0.01235325
#
# Stress axis : x y z
#
# Youngs Moduli (GPa) = 130.26672 107.03303 110.04795
#
# Poissons Ratio (x) = 0.29753 0.27764
# Poissons Ratio (y) = 0.36212 0.17320
# Poissons Ratio (z) = 0.32866 0.16845
#
# Static dielectric constant tensor:
#      x y z
#    x 1.946340 0.000000 0.000000 
#    y 0.000000 1.787410 0.000000 
#    z 0.000000 0.000000 1.850190 
# 
# From -- ./inp_files/19697.got.cif
#   From: 2010.05.17/outbox.cif.g08.bks.cpg/sg72_10_cif.got.tgz:19697.got - 2010.06.03 17:03:01.
