data_PCOD9528233
_publ_section_title
;
Structure prediction by ZEFSAII (Michael W. Deem and Ramdas Pophale) SiO2 
 PCOD9528233
Probable space group: I B A M
;
_chemical_formula_sum "Si O2"
_cell_formula_units_Z 36
_cell_length_a 5.167328
_cell_length_b 21.682832
_cell_length_c 13.516003
_cell_angle_alpha 90.000000
_cell_angle_beta 90.000000
_cell_angle_gamma 90.000000
_cell_volume 1514.364129
_symmetry_space_group_name_H-M "I B A M"
_symmetry_group_IT_number 72
_symmetry_cell_setting 'orthorhombic'
loop_
_space_group_symop_operation_xyz
x,y,z
-x,-y,z
x,-y,1/2-z
-x,y,1/2-z
-x,-y,-z
x,y,-z
-x,y,1/2+z
x,-y,1/2+z
1/2+x,1/2+y,1/2+z
1/2-x,1/2-y,1/2+z
1/2+x,1/2-y,-z
1/2-x,1/2+y,-z
1/2-x,1/2-y,1/2-z
1/2+x,1/2+y,1/2-z
1/2-x,1/2+y,z
1/2+x,1/2-y,z
loop_
_atom_site_type_symbol
_atom_site_label
_atom_site_fract_x
_atom_site_fract_y
_atom_site_fract_z
Si Si1 0.248546 0.925158 0.181644
Si Si2 0.638325 0.714573 0.880814
Si Si3 0.500000 0.000000 0.000000
O O1 0.500000 0.927076 0.250000
O O2 0.207423 0.854618 0.147401
O O3 0.000000 0.938744 0.250000
O O4 0.315127 0.967703 0.087413
O O5 0.355871 0.736632 0.848190
O O6 0.636315 0.716226 0.000000
#
# Coordination Sequence:
#
# PCOD9528233 Si02
#       3
#    16  16   4
#     4  12  28  49  80 115 150 211 271 327 409 481
#     4  10  21  42  74 113 155 200 247 318 411 484
#     4  12  30  58  76 108 168 210 270 364 380 474
#
# _framework density 23.772352000000001
#
# number of rings (size 3 to 8) (size 9 to 14) (size 15 to 20)
#    0.000    0.889    2.222    3.333    0.000   12.444 
#    0.000    0.000    0.000    0.000    0.000    0.000 
#    0.000    0.000    0.000    0.000    0.000    0.000 
#
# Total GULP energy -100324.857513 kJ/mol
# GULP energy per Si atom -5573.603195 kJ/mol
# Density = 2.371825 g / cm^3
# Si number density = 23.772352 Si / 1000 Ang^3
#
#
#
# Elastic Constant Matrix: (Units=GPa)
#
#
# Indices 1 2 3 4 5 6 
#
# 1 201.9255 51.4483 105.2877 0.0000 0.0000 0.0000
# 2 51.4483 125.1220 44.0085 0.0000 0.0000 0.0000
# 3 105.2877 44.0085 197.6341 0.0000 0.0000 0.0000
# 4 0.0000 0.0000 0.0000 1.1396 0.0000 0.0000
# 5 0.0000 0.0000 0.0000 0.0000 47.8978 0.0000
# 6 0.0000 0.0000 0.0000 0.0000 0.0000 53.4123
#
#
#
# Elastic Compliance Matrix: (Units=1/GPa)
#
#
# Indices 1 2 3 4 5 6 
#
# 1 0.007192 -0.001747 -0.003443 0.000000 0.000000 0.000000
# 2 -0.001747 0.009095 -0.001095 0.000000 0.000000 0.000000
# 3 -0.003443 -0.001095 0.007138 0.000000 0.000000 0.000000
# 4 0.000000 0.000000 0.000000 0.877482 0.000000 0.000000
# 5 0.000000 0.000000 0.000000 0.000000 0.020878 0.000000
# 6 0.000000 0.000000 0.000000 0.000000 0.000000 0.018722
#
#
# Mechanical properties :
#
#
# Convention : Reuss Voigt Hill
#
# Bulk Modulus (GPa) = 92.10440 102.90783 97.50611
# Shear Modulus (GPa) = 5.22632 42.08575 23.65604
#
# Velocity S-wave (km/s) = 1.48434 4.21214 3.15795
# Velocity P-wave (km/s) = 6.46267 8.18773 7.37581
#
# Compressibility (1/GPa) = 0.01085724
#
# Stress axis : x y z
#
# Youngs Moduli (GPa) = 139.03460 109.94515 140.09951
#
# Poissons Ratio (x) = 0.19202 0.48234
# Poissons Ratio (y) = 0.24283 0.15340
# Poissons Ratio (z) = 0.47867 0.12038
#
# Static dielectric constant tensor:
#      x y z
#    x 1.959580 0.000000 0.000000 
#    y 0.000000 1.904580 0.000000 
#    z 0.000000 0.000000 1.903540 
# 
# From -- ./inp_files/17201.got.cif
#   From: 2010.05.17/outbox.cif.g08.bks.cpg/sg72_9_cif.got.tgz:17201.got - 2010.06.03 17:03:01.
