data_PCOD9528644
_publ_section_title
;
Structure prediction by ZEFSAII (Michael W. Deem and Ramdas Pophale) SiO2 
 PCOD9528644
Probable space group: I B A M
;
_chemical_formula_sum "Si O2"
_cell_formula_units_Z 88
_cell_length_a 11.430558
_cell_length_b 13.705785
_cell_length_c 27.006871
_cell_angle_alpha 90.000000
_cell_angle_beta 90.000000
_cell_angle_gamma 90.000000
_cell_volume 4231.025244
_symmetry_space_group_name_H-M "I B A M"
_symmetry_group_IT_number 72
_symmetry_cell_setting 'orthorhombic'
loop_
_space_group_symop_operation_xyz
x,y,z
-x,-y,z
x,-y,1/2-z
-x,y,1/2-z
-x,-y,-z
x,y,-z
-x,y,1/2+z
x,-y,1/2+z
1/2+x,1/2+y,1/2+z
1/2-x,1/2-y,1/2+z
1/2+x,1/2-y,-z
1/2-x,1/2+y,-z
1/2-x,1/2-y,1/2-z
1/2+x,1/2+y,1/2-z
1/2-x,1/2+y,z
1/2+x,1/2-y,z
loop_
_atom_site_type_symbol
_atom_site_label
_atom_site_fract_x
_atom_site_fract_y
_atom_site_fract_z
Si Si1 0.291894 0.137552 0.834958
Si Si2 0.026392 0.352902 0.000000
Si Si3 0.018145 0.615582 0.604306
Si Si4 0.251101 0.858150 0.166373
Si Si5 0.708380 0.031462 0.500000
Si Si6 0.781592 0.500000 0.250000
Si Si7 0.637750 0.502292 0.597866
O O1 0.395548 0.146933 0.873862
O O2 0.257194 0.245719 0.820269
O O3 0.340825 0.071813 0.789760
O O4 0.185153 0.080213 0.861365
O O5 0.045917 0.317341 0.943719
O O6 0.888255 0.382320 0.000000
O O7 0.123026 0.438610 0.000000
O O8 0.118470 0.620723 0.645575
O O9 0.000000 0.500000 0.590368
O O10 0.218048 0.923487 0.213875
O O11 0.173447 0.897486 0.120911
O O12 0.789528 0.026085 0.451649
O O13 0.500000 0.500000 0.589641
#
# Coordination Sequence:
#
# PCOD9528644 Si02
#       7
#    16   8  16  16   8   8  16
#     4  11  24  41  66  94 125 168 213 264 325 374
#     4  11  16  34  68  98 120 165 216 263 304 372
#     4  12  19  40  68  92 128 165 211 268 309 375
#     4  11  24  41  66  94 125 168 213 264 325 374
#     4  11  17  36  64  94 125 171 216 250 316 367
#     4  10  22  45  67  92 126 160 217 271 320 386
#     4  11  23  40  61  91 135 170 208 261 315 379
#
# _framework density 20.798741
#
# number of rings (size 3 to 8) (size 9 to 14) (size 15 to 20)
#    0.000    0.909    9.091    0.818    2.545    1.455 
#    0.000   10.909    0.000    0.000    0.000    0.000 
#    0.000    0.000    0.000    0.000    0.000    0.000 
#
# Total GULP energy -245059.687054 kJ/mol
# GULP energy per Si atom -5569.538342 kJ/mol
# Density = 2.075140 g / cm^3
# Si number density = 20.798741 Si / 1000 Ang^3
#
#
#
# Elastic Constant Matrix: (Units=GPa)
#
#
# Indices 1 2 3 4 5 6 
#
# 1 113.3695 14.4061 14.5926 0.0000 0.0000 0.0000
# 2 14.4061 101.2161 39.6028 0.0000 0.0000 0.0000
# 3 14.5926 39.6028 112.3080 0.0000 0.0000 0.0000
# 4 0.0000 0.0000 0.0000 5.3177 0.0000 0.0000
# 5 0.0000 0.0000 0.0000 0.0000 5.1852 0.0000
# 6 0.0000 0.0000 0.0000 0.0000 0.0000 8.6401
#
#
#
# Elastic Compliance Matrix: (Units=1/GPa)
#
#
# Indices 1 2 3 4 5 6 
#
# 1 0.009051 -0.000961 -0.000837 0.000000 0.000000 0.000000
# 2 -0.000961 0.011563 -0.003953 0.000000 0.000000 0.000000
# 3 -0.000837 -0.003953 0.010407 0.000000 0.000000 0.000000
# 4 0.000000 0.000000 0.000000 0.188052 0.000000 0.000000
# 5 0.000000 0.000000 0.000000 0.000000 0.192857 0.000000
# 6 0.000000 0.000000 0.000000 0.000000 0.000000 0.115740
#
#
# Mechanical properties :
#
#
# Convention : Reuss Voigt Hill
#
# Bulk Modulus (GPa) = 51.23107 51.56627 51.39867
# Shear Modulus (GPa) = 9.16295 21.04806 15.10550
#
# Velocity S-wave (km/s) = 2.10121 3.18463 2.69786
# Velocity P-wave (km/s) = 5.52920 6.19429 5.87117
#
# Compressibility (1/GPa) = 0.01951940
#
# Stress axis : x y z
#
# Youngs Moduli (GPa) = 110.49059 86.48180 96.09210
#
# Poissons Ratio (x) = 0.08307 0.08045
# Poissons Ratio (y) = 0.10613 0.37982
# Poissons Ratio (z) = 0.09251 0.34183
#
# Static dielectric constant tensor:
#      x y z
#    x 1.707000 0.000000 0.000000 
#    y 0.000000 1.796720 0.000000 
#    z 0.000000 0.000000 1.817940 
# 
# From -- ./inp_files/48064.got.cif
#   From: 2010.05.17/outbox.cif.g08.bks.cpg/sg72_25_cif.got.tgz:48064.got - 2010.06.03 17:03:01.
