data_PCOD9528133
_publ_section_title
;
Structure prediction by ZEFSAII (Michael W. Deem and Ramdas Pophale) SiO2 
 PCOD9528133
Probable space group: I B A M
;
_chemical_formula_sum "Si O2"
_cell_formula_units_Z 104
_cell_length_a 8.831142
_cell_length_b 26.737413
_cell_length_c 20.570020
_cell_angle_alpha 90.000000
_cell_angle_beta 90.000000
_cell_angle_gamma 90.000000
_cell_volume 4857.032019
_symmetry_space_group_name_H-M "I B A M"
_symmetry_group_IT_number 72
_symmetry_cell_setting 'orthorhombic'
loop_
_space_group_symop_operation_xyz
x,y,z
-x,-y,z
x,-y,1/2-z
-x,y,1/2-z
-x,-y,-z
x,y,-z
-x,y,1/2+z
x,-y,1/2+z
1/2+x,1/2+y,1/2+z
1/2-x,1/2-y,1/2+z
1/2+x,1/2-y,-z
1/2-x,1/2+y,-z
1/2-x,1/2-y,1/2-z
1/2+x,1/2+y,1/2-z
1/2-x,1/2+y,z
1/2+x,1/2-y,z
loop_
_atom_site_type_symbol
_atom_site_label
_atom_site_fract_x
_atom_site_fract_y
_atom_site_fract_z
Si Si1 0.126388 0.196067 0.605565
Si Si2 0.413821 0.451877 0.882551
Si Si3 0.664414 0.023994 0.428631
Si Si4 0.225092 0.374031 0.196757
Si Si5 0.214248 0.798742 0.575069
Si Si6 0.440625 0.613417 0.500000
Si Si7 0.623210 0.882745 0.156397
O O1 0.206865 0.178134 0.671128
O O2 0.203760 0.245564 0.577690
O O3 0.138411 0.149664 0.556153
O O4 0.946576 0.204528 0.611081
O O5 0.500000 0.500000 0.854784
O O6 0.277020 0.477683 0.921899
O O7 0.342577 0.416140 0.828126
O O8 0.502808 0.422704 0.939894
O O9 0.675192 0.047640 0.500000
O O10 0.677778 0.064937 0.372900
O O11 0.500000 0.000000 0.422773
O O12 0.197823 0.374885 0.273334
O O13 0.058884 0.382314 0.164809
O O14 0.176549 0.813971 0.500000
O O15 0.320976 0.839352 0.608313
#
# Coordination Sequence:
#
# PCOD9528133 Si02
#       7
#    16  16  16  16  16   8  16
#     4  11  24  43  72 101 140 172 230 280 354 424
#     4  11  23  40  67  96 136 181 228 278 347 406
#     4  11  23  40  64 101 132 178 231 285 339 401
#     4  10  25  48  65  99 133 198 227 288 346 406
#     4  12  24  44  71 110 133 180 221 294 357 421
#     4  10  21  40  65  96 141 172 214 283 336 411
#     4  11  25  45  71  93 145 178 243 284 341 420
#
# _framework density 21.412251999999999
#
# number of rings (size 3 to 8) (size 9 to 14) (size 15 to 20)
#    0.000    1.077    3.846    1.615    4.308    1.846 
#    5.538    0.769    0.000    0.000    0.000    0.000 
#    0.000    0.000    0.000    0.000    0.000    0.000 
#
# Total GULP energy -289680.647172 kJ/mol
# GULP energy per Si atom -5570.781676 kJ/mol
# Density = 2.136352 g / cm^3
# Si number density = 21.412252 Si / 1000 Ang^3
#
#
#
# Elastic Constant Matrix: (Units=GPa)
#
#
# Indices 1 2 3 4 5 6 
#
# 1 67.3956 2.0876 22.3868 0.0000 0.0000 0.0000
# 2 2.0876 50.0698 26.9020 0.0000 0.0000 0.0000
# 3 22.3868 26.9020 84.6960 0.0000 0.0000 0.0000
# 4 0.0000 0.0000 0.0000 27.1817 0.0000 0.0000
# 5 0.0000 0.0000 0.0000 0.0000 23.3414 0.0000
# 6 0.0000 0.0000 0.0000 0.0000 0.0000 30.2452
#
#
#
# Elastic Compliance Matrix: (Units=1/GPa)
#
#
# Indices 1 2 3 4 5 6 
#
# 1 0.016428 0.001987 -0.004974 0.000000 0.000000 0.000000
# 2 0.001987 0.024322 -0.008251 0.000000 0.000000 0.000000
# 3 -0.004974 -0.008251 0.015742 0.000000 0.000000 0.000000
# 4 0.000000 0.000000 0.000000 0.036789 0.000000 0.000000
# 5 0.000000 0.000000 0.000000 0.000000 0.042842 0.000000
# 6 0.000000 0.000000 0.000000 0.000000 0.000000 0.033063
#
#
# Mechanical properties :
#
#
# Convention : Reuss Voigt Hill
#
# Bulk Modulus (GPa) = 29.39557 33.87936 31.63747
# Shear Modulus (GPa) = 24.63040 26.20601 25.41820
#
# Velocity S-wave (km/s) = 3.39528 3.50219 3.44915
# Velocity P-wave (km/s) = 5.39711 5.67544 5.53802
#
# Compressibility (1/GPa) = 0.03401873
#
# Stress axis : x y z
#
# Youngs Moduli (GPa) = 60.87071 41.11453 63.52342
#
# Poissons Ratio (x) = -0.08171 0.31594
# Poissons Ratio (y) = -0.12097 0.52412
# Poissons Ratio (z) = 0.30274 0.33923
#
# Static dielectric constant tensor:
#      x y z
#    x 1.873390 0.000000 0.000000 
#    y 0.000000 1.798730 0.000000 
#    z 0.000000 0.000000 1.767230 
# 
# From -- ./inp_files/36162.got.cif
#   From: 2010.05.17/outbox.cif.g08.bks.cpg/sg72_19_cif.got.tgz:36162.got - 2010.06.03 17:03:01.
