data_PCOD9528784
_publ_section_title
;
Structure prediction by ZEFSAII (Michael W. Deem and Ramdas Pophale) SiO2 
 PCOD9528784
Probable space group: I B A M
;
_chemical_formula_sum "Si O2"
_cell_formula_units_Z 112
_cell_length_a 31.742862
_cell_length_b 12.051271
_cell_length_c 14.864307
_cell_angle_alpha 90.000000
_cell_angle_beta 90.000000
_cell_angle_gamma 90.000000
_cell_volume 5686.219235
_symmetry_space_group_name_H-M "I B A M"
_symmetry_group_IT_number 72
_symmetry_cell_setting 'orthorhombic'
loop_
_space_group_symop_operation_xyz
x,y,z
-x,-y,z
x,-y,1/2-z
-x,y,1/2-z
-x,-y,-z
x,y,-z
-x,y,1/2+z
x,-y,1/2+z
1/2+x,1/2+y,1/2+z
1/2-x,1/2-y,1/2+z
1/2+x,1/2-y,-z
1/2-x,1/2+y,-z
1/2-x,1/2-y,1/2-z
1/2+x,1/2+y,1/2-z
1/2-x,1/2+y,z
1/2+x,1/2-y,z
loop_
_atom_site_type_symbol
_atom_site_label
_atom_site_fract_x
_atom_site_fract_y
_atom_site_fract_z
Si Si1 0.646924 0.974173 0.854337
Si Si2 0.388034 0.378320 0.745688
Si Si3 0.582329 0.221564 0.606504
Si Si4 0.709276 0.378424 0.233559
Si Si5 0.498193 0.120486 0.605116
Si Si6 0.097973 0.695351 0.598455
Si Si7 0.279008 0.798741 0.605481
O O1 0.631503 0.094003 0.891612
O O2 0.653866 0.000000 0.750000
O O3 0.607797 0.891132 0.871354
O O4 0.687400 0.901645 0.887065
O O5 0.408126 0.500000 0.750000
O O6 0.394753 0.319956 0.841316
O O7 0.339743 0.392978 0.716530
O O8 0.402309 0.287465 0.674532
O O9 0.584281 0.241490 0.500000
O O10 0.534160 0.203470 0.640152
O O11 0.728467 0.500000 0.250000
O O12 0.710340 0.298728 0.321923
O O13 0.733848 0.332944 0.146904
O O14 0.511505 0.108961 0.500000
O O15 0.449600 0.150732 0.603772
O O16 0.500000 0.000000 0.648364
O O17 0.104911 0.745312 0.500000
O O18 0.277735 0.766017 0.500000
#
# Coordination Sequence:
#
# PCOD9528784 Si02
#       7
#    16  16  16  16  16  16  16
#     4  12  21  37  62  97 133 160 198 250 319 385
#     4  11  25  44  62  85 119 169 222 267 314 367
#     4  11  21  38  63  92 124 165 211 255 310 384
#     4  10  23  43  62  86 126 166 211 271 316 374
#     4   9  18  33  58  94 131 162 200 253 319 390
#     4  11  22  39  63  95 131 165 204 261 326 384
#     4  11  23  40  65  96 126 164 210 260 324 391
#
# _framework density 19.696743999999999
#
# number of rings (size 3 to 8) (size 9 to 14) (size 15 to 20)
#    0.000    1.286    4.286    1.714    0.000    3.429 
#    0.000    5.714    0.000    2.571    0.000    0.000 
#    0.000    0.000    0.000    0.000    0.000    0.000 
#
# Total GULP energy -311925.878635 kJ/mol
# GULP energy per Si atom -5570.104976 kJ/mol
# Density = 1.965191 g / cm^3
# Si number density = 19.696744 Si / 1000 Ang^3
#
#
#
# Elastic Constant Matrix: (Units=GPa)
#
#
# Indices 1 2 3 4 5 6 
#
# 1 67.4623 5.3930 16.4457 0.0000 0.0000 0.0000
# 2 5.3930 90.9406 31.9502 0.0000 0.0000 0.0000
# 3 16.4457 31.9502 109.5741 0.0000 0.0000 0.0000
# 4 0.0000 0.0000 0.0000 -3.8286 0.0000 0.0000
# 5 0.0000 0.0000 0.0000 0.0000 8.2023 0.0000
# 6 0.0000 0.0000 0.0000 0.0000 0.0000 10.3184
#
#
#
# Elastic Compliance Matrix: (Units=1/GPa)
#
#
# Indices 1 2 3 4 5 6 
#
# 1 0.015387 -0.000113 -0.002277 0.000000 0.000000 0.000000
# 2 -0.000113 0.012252 -0.003556 0.000000 0.000000 0.000000
# 3 -0.002277 -0.003556 0.010505 0.000000 0.000000 0.000000
# 4 0.000000 0.000000 0.000000 -0.261191 0.000000 0.000000
# 5 0.000000 0.000000 0.000000 0.000000 0.121917 0.000000
# 6 0.000000 0.000000 0.000000 0.000000 0.000000 0.096915
#
#
# Mechanical properties :
#
#
# Convention : Reuss Voigt Hill
#
# Bulk Modulus (GPa) = 38.08921 41.72831 39.90876
# Shear Modulus (GPa) = 304.40083 17.21762 160.80922
#
# Velocity S-wave (km/s) = 12.44505 2.95979 9.04543
# Velocity P-wave (km/s) = 15.02949 5.73688 11.37535
#
# Compressibility (1/GPa) = 0.02625415
#
# Stress axis : x y z
#
# Youngs Moduli (GPa) = 64.98960 81.61896 95.19561
#
# Poissons Ratio (x) = 0.00920 0.21672
# Poissons Ratio (y) = 0.00732 0.33848
# Poissons Ratio (z) = 0.14795 0.29020
#
# Static dielectric constant tensor:
#      x y z
#    x 1.736210 0.000000 0.000000 
#    y 0.000000 1.778780 0.000000 
#    z 0.000000 0.000000 1.692730 
# 
# From -- ./inp_files/26431.got.cif
#   From: 2010.05.17/outbox.cif.g08.bks.cpg/sg72_14_cif.got.tgz:26431.got - 2010.06.03 17:03:01.
