data_PCOD9528476
_publ_section_title
;
Structure prediction by ZEFSAII (Michael W. Deem and Ramdas Pophale) SiO2 
 PCOD9528476
Probable space group: I B A M
;
_chemical_formula_sum "Si O2"
_cell_formula_units_Z 60
_cell_length_a 5.110970
_cell_length_b 25.521284
_cell_length_c 19.854174
_cell_angle_alpha 90.000000
_cell_angle_beta 90.000000
_cell_angle_gamma 90.000000
_cell_volume 2589.749011
_symmetry_space_group_name_H-M "I B A M"
_symmetry_group_IT_number 72
_symmetry_cell_setting 'orthorhombic'
loop_
_space_group_symop_operation_xyz
x,y,z
-x,-y,z
x,-y,1/2-z
-x,y,1/2-z
-x,-y,-z
x,y,-z
-x,y,1/2+z
x,-y,1/2+z
1/2+x,1/2+y,1/2+z
1/2-x,1/2-y,1/2+z
1/2+x,1/2-y,-z
1/2-x,1/2+y,-z
1/2-x,1/2-y,1/2-z
1/2+x,1/2+y,1/2-z
1/2-x,1/2+y,z
1/2+x,1/2-y,z
loop_
_atom_site_type_symbol
_atom_site_label
_atom_site_fract_x
_atom_site_fract_y
_atom_site_fract_z
Si Si1 0.289106 0.583381 0.160160
Si Si2 0.719636 0.099818 0.924165
Si Si3 0.500000 0.325669 0.750000
Si Si4 0.344636 0.717316 0.612468
Si Si5 0.000000 0.500000 0.250000
O O1 0.570845 0.574133 0.126488
O O2 0.315857 0.635187 0.206803
O O3 0.183339 0.536805 0.205266
O O4 0.072275 0.592894 0.103174
O O5 0.788152 0.161524 0.920570
O O6 0.746934 0.080295 0.000000
O O7 0.651650 0.293125 0.693296
O O8 0.624626 0.740846 0.594613
#
# Coordination Sequence:
#
# PCOD9528476 Si02
#       5
#    16  16   8  16   4
#     4  11  25  42  70  97 126 170 204 267 333 379
#     4  11  25  46  64  90 134 178 217 253 312 384
#     4  10  22  41  61  96 134 164 209 265 334 384
#     4  11  22  35  60  92 125 170 217 268 311 359
#     4  12  24  46  72 106 128 146 214 272 324 402
#
# _framework density 23.168268999999999
#
# number of rings (size 3 to 8) (size 9 to 14) (size 15 to 20)
#    0.000    1.067    0.000    8.000    0.000   10.133 
#    0.000    4.000    0.000    0.000    0.000    0.000 
#    0.000    0.000    0.000    0.000    0.000    0.000 
#
# Total GULP energy -168179.311126 kJ/mol
# GULP energy per Si atom -5605.977038 kJ/mol
# Density = 2.311554 g / cm^3
# Si number density = 23.168269 Si / 1000 Ang^3
#
#
#
# Elastic Constant Matrix: (Units=GPa)
#
#
# Indices 1 2 3 4 5 6 
#
# 1 82.6270 -1.5482 5.0135 0.0000 0.0000 0.0000
# 2 -1.5482 54.7266 -2.7699 0.0000 0.0000 0.0000
# 3 5.0135 -2.7699 75.7859 0.0000 0.0000 0.0000
# 4 0.0000 0.0000 0.0000 3.4986 0.0000 0.0000
# 5 0.0000 0.0000 0.0000 0.0000 25.8229 0.0000
# 6 0.0000 0.0000 0.0000 0.0000 0.0000 38.7758
#
#
#
# Elastic Compliance Matrix: (Units=1/GPa)
#
#
# Indices 1 2 3 4 5 6 
#
# 1 0.012156 0.000304 -0.000793 0.000000 0.000000 0.000000
# 2 0.000304 0.018314 0.000649 0.000000 0.000000 0.000000
# 3 -0.000793 0.000649 0.013271 0.000000 0.000000 0.000000
# 4 0.000000 0.000000 0.000000 0.285830 0.000000 0.000000
# 5 0.000000 0.000000 0.000000 0.000000 0.038725 0.000000
# 6 0.000000 0.000000 0.000000 0.000000 0.000000 0.025789
#
#
# Mechanical properties :
#
#
# Convention : Reuss Voigt Hill
#
# Bulk Modulus (GPa) = 22.69550 23.83673 23.26611
# Shear Modulus (GPa) = 12.24129 27.78241 20.01185
#
# Velocity S-wave (km/s) = 2.30111 3.46664 2.94217
# Velocity P-wave (km/s) = 4.10821 5.13170 4.64821
#
# Compressibility (1/GPa) = 0.04406160
#
# Stress axis : x y z
#
# Youngs Moduli (GPa) = 82.26127 54.60275 75.35082
#
# Poissons Ratio (x) = -0.01659 0.05976
# Poissons Ratio (y) = -0.02499 -0.04892
# Poissons Ratio (z) = 0.06524 -0.03545
#
# Static dielectric constant tensor:
#      x y z
#    x 1.834850 0.000000 0.000000 
#    y 0.000000 1.850080 0.000000 
#    z 0.000000 0.000000 1.880140 
# 
# From -- ./inp_files/34716.got.cif
#   From: 2010.05.17/outbox.cif.g08.bks.cpg/sg72_18_cif.got.tgz:34716.got - 2010.06.03 17:03:01.
