data_PCOD9528225
_publ_section_title
;
Structure prediction by ZEFSAII (Michael W. Deem and Ramdas Pophale) SiO2 
 PCOD9528225
Probable space group: I B A M
;
_chemical_formula_sum "Si O2"
_cell_formula_units_Z 112
_cell_length_a 29.100667
_cell_length_b 12.420151
_cell_length_c 14.037931
_cell_angle_alpha 90.000000
_cell_angle_beta 90.000000
_cell_angle_gamma 90.000000
_cell_volume 5073.795076
_symmetry_space_group_name_H-M "I B A M"
_symmetry_group_IT_number 72
_symmetry_cell_setting 'orthorhombic'
loop_
_space_group_symop_operation_xyz
x,y,z
-x,-y,z
x,-y,1/2-z
-x,y,1/2-z
-x,-y,-z
x,y,-z
-x,y,1/2+z
x,-y,1/2+z
1/2+x,1/2+y,1/2+z
1/2-x,1/2-y,1/2+z
1/2+x,1/2-y,-z
1/2-x,1/2+y,-z
1/2-x,1/2-y,1/2-z
1/2+x,1/2+y,1/2-z
1/2-x,1/2+y,z
1/2+x,1/2-y,z
loop_
_atom_site_type_symbol
_atom_site_label
_atom_site_fract_x
_atom_site_fract_y
_atom_site_fract_z
Si Si1 0.548089 0.203819 0.724079
Si Si2 0.885278 0.305980 0.388161
Si Si3 0.149760 0.946018 0.115972
Si Si4 0.197384 0.721977 0.116000
Si Si5 0.543661 0.574371 0.885248
Si Si6 0.380708 0.060301 0.112764
Si Si7 0.701217 0.339075 0.884683
O O1 0.500000 0.151590 0.750000
O O2 0.575182 0.236445 0.819507
O O3 0.538502 0.309086 0.661717
O O4 0.579205 0.121103 0.666866
O O5 0.895402 0.286693 0.500000
O O6 0.880710 0.433422 0.371577
O O7 0.837550 0.248948 0.364717
O O8 0.181311 0.045838 0.147156
O O9 0.171785 0.831878 0.147363
O O10 0.095927 0.961504 0.141525
O O11 0.150382 0.944602 0.000000
O O12 0.166072 0.619958 0.141377
O O13 0.249020 0.699148 0.149362
O O14 0.198915 0.728651 0.000000
O O15 0.500000 0.500000 0.859034
O O16 0.543192 0.583416 0.000000
O O17 0.386635 0.078159 0.000000
O O18 0.704769 0.346635 0.000000
#
# Coordination Sequence:
#
# PCOD9528225 Si02
#       7
#    16  16  16  16  16  16  16
#     4  12  26  43  66  96 128 168 221 275 335 400
#     4  10  24  43  64  94 133 175 220 271 328 394
#     4   9  17  33  60  94 131 168 214 270 328 395
#     4   9  17  32  61  96 128 168 218 269 332 398
#     4  10  22  42  70 101 134 174 221 278 339 397
#     4  10  21  42  69  95 127 170 221 276 331 397
#     4   9  19  34  58  94 133 173 214 267 328 396
#
# _framework density 22.074207000000001
#
# number of rings (size 3 to 8) (size 9 to 14) (size 15 to 20)
#    0.000    2.143    1.429    0.857    4.000    2.571 
#    0.000    2.143    0.000    0.429    0.000    0.000 
#    0.000    0.000    0.000    0.000    0.000    0.000 
#
# Total GULP energy -313294.289421 kJ/mol
# GULP energy per Si atom -5594.540883 kJ/mol
# Density = 2.202396 g / cm^3
# Si number density = 22.074207 Si / 1000 Ang^3
#
#
#
# Elastic Constant Matrix: (Units=GPa)
#
#
# Indices 1 2 3 4 5 6 
#
# 1 187.9161 54.1321 39.6525 0.0000 0.0000 0.0000
# 2 54.1321 63.4373 50.7881 0.0000 0.0000 0.0000
# 3 39.6525 50.7881 82.6212 0.0000 0.0000 0.0000
# 4 0.0000 0.0000 0.0000 18.8668 0.0000 0.0000
# 5 0.0000 0.0000 0.0000 0.0000 23.8557 0.0000
# 6 0.0000 0.0000 0.0000 0.0000 0.0000 47.7073
#
#
#
# Elastic Compliance Matrix: (Units=1/GPa)
#
#
# Indices 1 2 3 4 5 6 
#
# 1 0.007072 -0.006532 0.000621 0.000000 0.000000 0.000000
# 2 -0.006532 0.037072 -0.019654 0.000000 0.000000 0.000000
# 3 0.000621 -0.019654 0.023887 0.000000 0.000000 0.000000
# 4 0.000000 0.000000 0.000000 0.053003 0.000000 0.000000
# 5 0.000000 0.000000 0.000000 0.000000 0.041919 0.000000
# 6 0.000000 0.000000 0.000000 0.000000 0.000000 0.020961
#
#
# Mechanical properties :
#
#
# Convention : Reuss Voigt Hill
#
# Bulk Modulus (GPa) = 59.16522 69.23553 64.20038
# Shear Modulus (GPa) = 20.77467 30.71275 25.74371
#
# Velocity S-wave (km/s) = 3.07111 3.73411 3.41872
# Velocity P-wave (km/s) = 6.27986 7.07280 6.68809
#
# Compressibility (1/GPa) = 0.01690182
#
# Stress axis : x y z
#
# Youngs Moduli (GPa) = 141.40055 26.97419 41.86427
#
# Poissons Ratio (x) = 0.17620 -0.02601
# Poissons Ratio (y) = 0.92364 0.82279
# Poissons Ratio (z) = -0.08784 0.53015
#
# Static dielectric constant tensor:
#      x y z
#    x 1.779000 0.000000 0.000000 
#    y 0.000000 1.764870 0.000000 
#    z 0.000000 0.000000 1.842100 
# 
# From -- ./inp_files/26330.got.cif
#   From: 2010.05.17/outbox.cif.g08.bks.cpg/sg72_14_cif.got.tgz:26330.got - 2010.06.03 17:03:01.
