data_PCOD9528371
_publ_section_title
;
Structure prediction by ZEFSAII (Michael W. Deem and Ramdas Pophale) SiO2 
 PCOD9528371
Probable space group: I B A M
;
_chemical_formula_sum "Si O2"
_cell_formula_units_Z 80
_cell_length_a 9.453563
_cell_length_b 17.335127
_cell_length_c 24.578190
_cell_angle_alpha 90.000000
_cell_angle_beta 90.000000
_cell_angle_gamma 90.000000
_cell_volume 4027.842199
_symmetry_space_group_name_H-M "I B A M"
_symmetry_group_IT_number 72
_symmetry_cell_setting 'orthorhombic'
loop_
_space_group_symop_operation_xyz
x,y,z
-x,-y,z
x,-y,1/2-z
-x,y,1/2-z
-x,-y,-z
x,y,-z
-x,y,1/2+z
x,-y,1/2+z
1/2+x,1/2+y,1/2+z
1/2-x,1/2-y,1/2+z
1/2+x,1/2-y,-z
1/2-x,1/2+y,-z
1/2-x,1/2-y,1/2-z
1/2+x,1/2+y,1/2-z
1/2-x,1/2+y,z
1/2+x,1/2-y,z
loop_
_atom_site_type_symbol
_atom_site_label
_atom_site_fract_x
_atom_site_fract_y
_atom_site_fract_z
Si Si1 0.028313 0.152352 0.687231
Si Si2 0.757393 0.768256 0.861361
Si Si3 0.138765 0.647217 0.441545
Si Si4 0.662035 0.095745 0.436172
Si Si5 0.639775 0.536642 0.903308
O O1 0.140660 0.222675 0.674959
O O2 0.089002 0.080679 0.651660
O O3 0.000000 0.133792 0.750000
O O4 0.872927 0.179065 0.668023
O O5 0.851079 0.704447 0.891844
O O6 0.689380 0.821176 0.908507
O O7 0.120833 0.686746 0.500000
O O8 0.284728 0.601063 0.439190
O O9 0.007569 0.589550 0.435460
O O10 0.705803 0.092174 0.500000
O O11 0.746168 0.032227 0.401453
O O12 0.500000 0.500000 0.928174
#
# Coordination Sequence:
#
# PCOD9528371 Si02
#       5
#    16  16  16  16  16
#     4  11  24  43  68  88 119 166 214 270 321 362
#     4  11  21  42  63  95 123 158 214 264 311 379
#     4  10  22  39  62  91 129 169 201 245 313 387
#     4  11  22  39  61  91 134 172 200 249 322 389
#     4  11  23  40  60  92 126 162 208 258 305 383
#
# _framework density 19.861751000000002
#
# number of rings (size 3 to 8) (size 9 to 14) (size 15 to 20)
#    0.000    1.200    4.000    2.400    0.000    3.600 
#    0.000    0.000    0.000    0.000    5.200    0.000 
#    0.000    0.000    0.000    0.000    0.000    0.000 
#
# Total GULP energy -222921.486447 kJ/mol
# GULP energy per Si atom -5573.037161 kJ/mol
# Density = 1.981654 g / cm^3
# Si number density = 19.861751 Si / 1000 Ang^3
#
#
#
# Elastic Constant Matrix: (Units=GPa)
#
#
# Indices 1 2 3 4 5 6 
#
# 1 108.1720 18.7086 54.9840 0.0000 0.0000 0.0000
# 2 18.7086 63.8737 32.9660 0.0000 0.0000 0.0000
# 3 54.9840 32.9660 95.7915 0.0000 0.0000 0.0000
# 4 0.0000 0.0000 0.0000 6.6931 0.0000 0.0000
# 5 0.0000 0.0000 0.0000 0.0000 22.4921 0.0000
# 6 0.0000 0.0000 0.0000 0.0000 0.0000 39.8748
#
#
#
# Elastic Compliance Matrix: (Units=1/GPa)
#
#
# Indices 1 2 3 4 5 6 
#
# 1 0.013053 0.000053 -0.007511 0.000000 0.000000 0.000000
# 2 0.000053 0.019037 -0.006582 0.000000 0.000000 0.000000
# 3 -0.007511 -0.006582 0.017016 0.000000 0.000000 0.000000
# 4 0.000000 0.000000 0.000000 0.149408 0.000000 0.000000
# 5 0.000000 0.000000 0.000000 0.000000 0.044460 0.000000
# 6 0.000000 0.000000 0.000000 0.000000 0.000000 0.025078
#
#
# Mechanical properties :
#
#
# Convention : Reuss Voigt Hill
#
# Bulk Modulus (GPa) = 47.55839 53.46161 50.51000
# Shear Modulus (GPa) = 16.49398 24.55725 20.52562
#
# Velocity S-wave (km/s) = 2.88486 3.52008 3.21818
# Velocity P-wave (km/s) = 5.92396 6.59519 6.26856
#
# Compressibility (1/GPa) = 0.02102679
#
# Stress axis : x y z
#
# Youngs Moduli (GPa) = 76.61048 52.52809 58.76946
#
# Poissons Ratio (x) = -0.00279 0.44140
# Poissons Ratio (y) = -0.00407 0.38683
# Poissons Ratio (z) = 0.57540 0.34575
#
# Static dielectric constant tensor:
#      x y z
#    x 1.720570 0.000000 0.000000 
#    y 0.000000 1.742660 0.000000 
#    z 0.000000 0.000000 1.678820 
# 
# From -- ./inp_files/47138.got.cif
#   From: 2010.05.17/outbox.cif.g08.bks.cpg/sg72_24_cif.got.tgz:47138.got - 2010.06.03 17:03:01.
