data_PCOD9528736
_publ_section_title
;
Structure prediction by ZEFSAII (Michael W. Deem and Ramdas Pophale) SiO2 
 PCOD9528736
Probable space group: I B A M
;
_chemical_formula_sum "Si O2"
_cell_formula_units_Z 56
_cell_length_a 5.575660
_cell_length_b 29.020207
_cell_length_c 14.067089
_cell_angle_alpha 90.000000
_cell_angle_beta 90.000000
_cell_angle_gamma 90.000000
_cell_volume 2276.150760
_symmetry_space_group_name_H-M "I B A M"
_symmetry_group_IT_number 72
_symmetry_cell_setting 'orthorhombic'
loop_
_space_group_symop_operation_xyz
x,y,z
-x,-y,z
x,-y,1/2-z
-x,y,1/2-z
-x,-y,-z
x,y,-z
-x,y,1/2+z
x,-y,1/2+z
1/2+x,1/2+y,1/2+z
1/2-x,1/2-y,1/2+z
1/2+x,1/2-y,-z
1/2-x,1/2+y,-z
1/2-x,1/2-y,1/2-z
1/2+x,1/2+y,1/2-z
1/2-x,1/2+y,z
1/2+x,1/2-y,z
loop_
_atom_site_type_symbol
_atom_site_label
_atom_site_fract_x
_atom_site_fract_y
_atom_site_fract_z
Si Si1 0.339866 0.956172 0.606414
Si Si2 0.145489 0.636340 0.605866
Si Si3 0.380438 0.771649 0.385186
Si Si4 0.500000 0.594372 0.250000
O O1 0.238614 0.964203 0.500000
O O2 0.513650 0.912320 0.600447
O O3 0.852703 0.939888 0.817977
O O4 0.500000 0.000000 0.632766
O O5 0.242567 0.648114 0.500000
O O6 0.955062 0.675596 0.632337
O O7 0.346452 0.627757 0.682990
O O8 0.369528 0.765998 0.500000
O O9 0.116597 0.756671 0.351202
#
# Coordination Sequence:
#
# PCOD9528736 Si02
#       4
#    16  16  16   8
#     4  10  24  46  70  99 136 178 228 282 345 417
#     4  10  23  41  65  99 138 179 228 287 349 418
#     4   9  19  37  65  97 133 184 240 291 353 424
#     4  12  24  41  70 100 132 178 228 282 349 414
#
# _framework density 24.602938999999999
#
# number of rings (size 3 to 8) (size 9 to 14) (size 15 to 20)
#    0.000    2.000    0.000    1.714    4.000    4.571 
#    0.000    5.714    0.000    2.571    0.000    0.000 
#    0.000    0.000    0.000    0.000    0.000    0.000 
#
# Total GULP energy -156843.531506 kJ/mol
# GULP energy per Si atom -5601.554697 kJ/mol
# Density = 2.454694 g / cm^3
# Si number density = 24.602939 Si / 1000 Ang^3
#
#
#
# Elastic Constant Matrix: (Units=GPa)
#
#
# Indices 1 2 3 4 5 6 
#
# 1 106.4885 36.5090 66.2384 0.0000 0.0000 0.0000
# 2 36.5090 152.0895 5.4777 0.0000 0.0000 0.0000
# 3 66.2384 5.4777 136.4291 0.0000 0.0000 0.0000
# 4 0.0000 0.0000 0.0000 26.0389 0.0000 0.0000
# 5 0.0000 0.0000 0.0000 0.0000 46.1675 0.0000
# 6 0.0000 0.0000 0.0000 0.0000 0.0000 27.1488
#
#
#
# Elastic Compliance Matrix: (Units=1/GPa)
#
#
# Indices 1 2 3 4 5 6 
#
# 1 0.014974 -0.003337 -0.007136 0.000000 0.000000 0.000000
# 2 -0.003337 0.007328 0.001326 0.000000 0.000000 0.000000
# 3 -0.007136 0.001326 0.010741 0.000000 0.000000 0.000000
# 4 0.000000 0.000000 0.000000 0.038404 0.000000 0.000000
# 5 0.000000 0.000000 0.000000 0.000000 0.021660 0.000000
# 6 0.000000 0.000000 0.000000 0.000000 0.000000 0.036834
#
#
# Mechanical properties :
#
#
# Convention : Reuss Voigt Hill
#
# Bulk Modulus (GPa) = 67.80197 67.93970 67.87083
# Shear Modulus (GPa) = 32.64724 38.98983 35.81853
#
# Velocity S-wave (km/s) = 3.64670 3.98523 3.81972
# Velocity P-wave (km/s) = 6.73421 6.98931 6.86295
#
# Compressibility (1/GPa) = 0.01474883
#
# Stress axis : x y z
#
# Youngs Moduli (GPa) = 66.78417 136.45441 93.09981
#
# Poissons Ratio (x) = 0.45540 0.66435
# Poissons Ratio (y) = 0.22289 -0.12346
# Poissons Ratio (z) = 0.47657 -0.18095
#
# Static dielectric constant tensor:
#      x y z
#    x 1.929330 0.000000 0.000000 
#    y 0.000000 1.904320 0.000000 
#    z 0.000000 0.000000 2.028330 
# 
# From -- ./inp_files/17564.got.cif
#   From: 2010.05.17/outbox.cif.g08.bks.cpg/sg72_9_cif.got.tgz:17564.got - 2010.06.03 17:03:01.
