data_PCOD9528955
_publ_section_title
;
Structure prediction by ZEFSAII (Michael W. Deem and Ramdas Pophale) SiO2 
 PCOD9528955
Probable space group: I B A M
;
_chemical_formula_sum "Si O2"
_cell_formula_units_Z 64
_cell_length_a 14.523223
_cell_length_b 8.080583
_cell_length_c 22.381166
_cell_angle_alpha 90.000000
_cell_angle_beta 90.000000
_cell_angle_gamma 90.000000
_cell_volume 2626.566554
_symmetry_space_group_name_H-M "I B A M"
_symmetry_group_IT_number 72
_symmetry_cell_setting 'orthorhombic'
loop_
_space_group_symop_operation_xyz
x,y,z
-x,-y,z
x,-y,1/2-z
-x,y,1/2-z
-x,-y,-z
x,y,-z
-x,y,1/2+z
x,-y,1/2+z
1/2+x,1/2+y,1/2+z
1/2-x,1/2-y,1/2+z
1/2+x,1/2-y,-z
1/2-x,1/2+y,-z
1/2-x,1/2-y,1/2-z
1/2+x,1/2+y,1/2-z
1/2-x,1/2+y,z
1/2+x,1/2-y,z
loop_
_atom_site_type_symbol
_atom_site_label
_atom_site_fract_x
_atom_site_fract_y
_atom_site_fract_z
Si Si1 0.560067 0.669171 0.128689
Si Si2 0.116007 0.310453 0.885774
Si Si3 0.728601 0.498007 0.930747
Si Si4 0.356117 0.197385 0.749212
O O1 0.500000 0.500000 0.129247
O O2 0.491008 0.800933 0.097726
O O3 0.651890 0.628398 0.091794
O O4 0.592004 0.722505 0.194942
O O5 0.177903 0.474153 0.892887
O O6 0.111641 0.254347 0.816698
O O7 0.177240 0.175553 0.920281
O O8 0.750274 0.518071 0.000000
O O9 0.250000 0.250000 0.750000
O O10 0.366569 0.000000 0.750000
#
# Coordination Sequence:
#
# PCOD9528955 Si02
#       4
#    16  16  16  16
#     4  10  25  43  72 104 140 183 235 288 362 426
#     4  11  24  43  67  98 138 179 227 292 351 416
#     4  11  24  44  68  98 135 187 241 288 344 414
#     4  12  25  44  74 107 147 185 229 292 364 437
#
# _framework density 24.366410999999999
#
# number of rings (size 3 to 8) (size 9 to 14) (size 15 to 20)
#    0.000    1.000    2.500    3.000    3.500   10.500 
#    0.000    0.000    0.000    3.000    0.000    0.000 
#    0.000    0.000    0.000    0.000    0.000    0.000 
#
# Total GULP energy -179145.520663 kJ/mol
# GULP energy per Si atom -5598.297521 kJ/mol
# Density = 2.431095 g / cm^3
# Si number density = 24.366411 Si / 1000 Ang^3
#
#
#
# Elastic Constant Matrix: (Units=GPa)
#
#
# Indices 1 2 3 4 5 6 
#
# 1 164.2985 16.6615 19.4675 0.0000 0.0000 0.0000
# 2 16.6615 54.3075 -7.1523 0.0000 0.0000 0.0000
# 3 19.4675 -7.1523 89.5240 0.0000 0.0000 0.0000
# 4 0.0000 0.0000 0.0000 35.2659 0.0000 0.0000
# 5 0.0000 0.0000 0.0000 0.0000 -7.8903 0.0000
# 6 0.0000 0.0000 0.0000 0.0000 0.0000 42.7016
#
#
#
# Elastic Compliance Matrix: (Units=1/GPa)
#
#
# Indices 1 2 3 4 5 6 
#
# 1 0.006498 -0.002203 -0.001589 0.000000 0.000000 0.000000
# 2 -0.002203 0.019356 0.002025 0.000000 0.000000 0.000000
# 3 -0.001589 0.002025 0.011678 0.000000 0.000000 0.000000
# 4 0.000000 0.000000 0.000000 0.028356 0.000000 0.000000
# 5 0.000000 0.000000 0.000000 0.000000 -0.126738 0.000000
# 6 0.000000 0.000000 0.000000 0.000000 0.000000 0.023418
#
#
# Mechanical properties :
#
#
# Convention : Reuss Voigt Hill
#
# Bulk Modulus (GPa) = 29.41265 40.67593 35.04429
# Shear Modulus (GPa) = -221.57133 32.62568 -94.47283
#
# Velocity S-wave (km/s) = -9.54623 3.66315 -6.23345
# Velocity P-wave (km/s) = 10.45993 5.88398 6.11510
#
# Compressibility (1/GPa) = 0.03399898
#
# Stress axis : x y z
#
# Youngs Moduli (GPa) = 153.88954 51.66283 85.63434
#
# Poissons Ratio (x) = 0.11381 0.13608
# Poissons Ratio (y) = 0.33901 -0.17345
# Poissons Ratio (z) = 0.24454 -0.10464
#
# Static dielectric constant tensor:
#      x y z
#    x 1.989790 0.000000 0.000000 
#    y 0.000000 2.049090 0.000000 
#    z 0.000000 0.000000 1.879490 
# 
# From -- ./inp_files/41903.got.cif
#   From: 2010.05.17/outbox.cif.g08.bks.cpg/sg72_21_cif.got.tgz:41903.got - 2010.06.03 17:03:01.
