data_PCOD9528824
_publ_section_title
;
Structure prediction by ZEFSAII (Michael W. Deem and Ramdas Pophale) SiO2 
 PCOD9528824
Probable space group: I B A M
;
_chemical_formula_sum "Si O2"
_cell_formula_units_Z 96
_cell_length_a 20.530914
_cell_length_b 13.992642
_cell_length_c 14.753446
_cell_angle_alpha 90.000000
_cell_angle_beta 90.000000
_cell_angle_gamma 90.000000
_cell_volume 4238.395483
_symmetry_space_group_name_H-M "I B A M"
_symmetry_group_IT_number 72
_symmetry_cell_setting 'orthorhombic'
loop_
_space_group_symop_operation_xyz
x,y,z
-x,-y,z
x,-y,1/2-z
-x,y,1/2-z
-x,-y,-z
x,y,-z
-x,y,1/2+z
x,-y,1/2+z
1/2+x,1/2+y,1/2+z
1/2-x,1/2-y,1/2+z
1/2+x,1/2-y,-z
1/2-x,1/2+y,-z
1/2-x,1/2-y,1/2-z
1/2+x,1/2+y,1/2-z
1/2-x,1/2+y,z
1/2+x,1/2-y,z
loop_
_atom_site_type_symbol
_atom_site_label
_atom_site_fract_x
_atom_site_fract_y
_atom_site_fract_z
Si Si1 0.898794 0.262538 0.102777
Si Si2 0.340873 0.811988 0.898527
Si Si3 0.182231 0.910100 0.394940
Si Si4 0.933474 0.050838 0.110314
Si Si5 0.191603 0.602216 0.774735
Si Si6 0.516008 0.892262 0.642988
O O1 0.916136 0.157858 0.140931
O O2 0.852942 0.325793 0.167396
O O3 0.966490 0.318951 0.098004
O O4 0.871129 0.254827 0.000000
O O5 0.344753 0.697962 0.891408
O O6 0.292880 0.848639 0.820949
O O7 0.410723 0.859862 0.878339
O O8 0.319844 0.837262 0.000000
O O9 0.200012 0.929008 0.500000
O O10 0.244793 0.918568 0.332481
O O11 0.126131 0.982308 0.367222
O O12 0.938328 0.057633 0.000000
O O13 0.000000 0.000000 0.141309
O O14 0.158992 0.500000 0.750000
O O15 0.500000 0.887309 0.750000
O O16 0.500000 0.000000 0.613159
#
# Coordination Sequence:
#
# PCOD9528824 Si02
#       6
#    16  16  16  16  16  16
#     4  11  23  41  71 104 138 181 226 282 349 421
#     4  11  24  43  69  96 130 182 233 285 345 413
#     4  10  23  44  70 100 137 180 228 285 354 421
#     4   9  19  40  72 108 143 179 227 285 349 425
#     4  12  26  44  65  95 140 182 233 292 342 419
#     4  11  22  40  65  97 138 175 222 276 342 411
#
# _framework density 22.650079999999999
#
# number of rings (size 3 to 8) (size 9 to 14) (size 15 to 20)
#    0.000    1.333    1.667    3.500    0.000    9.333 
#    0.000    3.333    0.000    0.000    0.000    0.000 
#    0.000    0.667    0.000    0.000    0.000    0.000 
#
# Total GULP energy -268747.019719 kJ/mol
# GULP energy per Si atom -5598.896244 kJ/mol
# Density = 2.259853 g / cm^3
# Si number density = 22.650080 Si / 1000 Ang^3
#
#
#
# Elastic Constant Matrix: (Units=GPa)
#
#
# Indices 1 2 3 4 5 6 
#
# 1 120.9549 63.4666 51.7284 0.0000 0.0000 0.0000
# 2 63.4666 174.8388 64.3982 0.0000 0.0000 0.0000
# 3 51.7284 64.3982 130.2220 0.0000 0.0000 0.0000
# 4 0.0000 0.0000 0.0000 22.4743 0.0000 0.0000
# 5 0.0000 0.0000 0.0000 0.0000 13.1832 0.0000
# 6 0.0000 0.0000 0.0000 0.0000 0.0000 28.9734
#
#
#
# Elastic Compliance Matrix: (Units=1/GPa)
#
#
# Indices 1 2 3 4 5 6 
#
# 1 0.011066 -0.002932 -0.002946 0.000000 0.000000 0.000000
# 2 -0.002932 0.007770 -0.002678 0.000000 0.000000 0.000000
# 3 -0.002946 -0.002678 0.010174 0.000000 0.000000 0.000000
# 4 0.000000 0.000000 0.000000 0.044495 0.000000 0.000000
# 5 0.000000 0.000000 0.000000 0.000000 0.075854 0.000000
# 6 0.000000 0.000000 0.000000 0.000000 0.000000 0.034514
#
#
# Mechanical properties :
#
#
# Convention : Reuss Voigt Hill
#
# Bulk Modulus (GPa) = 84.04465 87.24465 85.64465
# Shear Modulus (GPa) = 24.39614 29.35435 26.87524
#
# Velocity S-wave (km/s) = 3.28546 3.60390 3.44836
# Velocity P-wave (km/s) = 7.18182 7.47794 7.33137
#
# Compressibility (1/GPa) = 0.01189844
#
# Stress axis : x y z
#
# Youngs Moduli (GPa) = 90.36904 128.69720 98.29306
#
# Poissons Ratio (x) = 0.37732 0.28955
# Poissons Ratio (y) = 0.26495 0.26322
# Poissons Ratio (z) = 0.26621 0.34464
#
# Static dielectric constant tensor:
#      x y z
#    x 1.800120 0.000000 0.000000 
#    y 0.000000 1.831960 0.000000 
#    z 0.000000 0.000000 1.892610 
# 
# From -- ./inp_files/24119.got.cif
#   From: 2010.05.17/outbox.cif.g08.bks.cpg/sg72_13_cif.got.tgz:24119.got - 2010.06.03 17:03:01.
