data_PCOD9528369
_publ_section_title
;
Structure prediction by ZEFSAII (Michael W. Deem and Ramdas Pophale) SiO2 
 PCOD9528369
Probable space group: I B A M
;
_chemical_formula_sum "Si O2"
_cell_formula_units_Z 52
_cell_length_a 9.624112
_cell_length_b 15.141546
_cell_length_c 18.428147
_cell_angle_alpha 90.000000
_cell_angle_beta 90.000000
_cell_angle_gamma 90.000000
_cell_volume 2685.422087
_symmetry_space_group_name_H-M "I B A M"
_symmetry_group_IT_number 72
_symmetry_cell_setting 'orthorhombic'
loop_
_space_group_symop_operation_xyz
x,y,z
-x,-y,z
x,-y,1/2-z
-x,y,1/2-z
-x,-y,-z
x,y,-z
-x,y,1/2+z
x,-y,1/2+z
1/2+x,1/2+y,1/2+z
1/2-x,1/2-y,1/2+z
1/2+x,1/2-y,-z
1/2-x,1/2+y,-z
1/2-x,1/2-y,1/2-z
1/2+x,1/2+y,1/2-z
1/2-x,1/2+y,z
1/2+x,1/2-y,z
loop_
_atom_site_type_symbol
_atom_site_label
_atom_site_fract_x
_atom_site_fract_y
_atom_site_fract_z
Si Si1 0.500000 0.500000 0.750000
Si Si2 0.415367 0.184767 0.586900
Si Si3 0.762531 0.468371 0.674645
Si Si4 0.263791 0.852399 0.585967
O O1 0.606445 0.443492 0.701132
O O2 0.391490 0.171236 0.500000
O O3 0.343005 0.106749 0.632002
O O4 0.580028 0.182429 0.599154
O O5 0.345867 0.277549 0.607607
O O6 0.832517 0.500000 0.750000
O O7 0.746885 0.555429 0.626232
O O8 0.249021 0.867192 0.500000
#
# Coordination Sequence:
#
# PCOD9528369 Si02
#       4
#     4  16  16  16
#     4   8  24  40  56  92 116 154 200 248 280 360
#     4  10  22  39  62  90 119 153 196 242 293 350
#     4  10  22  40  60  82 122 154 198 238 293 345
#     4  10  22  39  62  90 119 153 196 242 293 350
#
# _framework density 19.363809
#
# number of rings (size 3 to 8) (size 9 to 14) (size 15 to 20)
#    0.923    1.231    0.000    1.846    4.308    6.154 
#    0.000    1.538    0.000    0.000    0.000    0.000 
#    0.000    0.000    0.000    0.000    0.000    0.000 
#
# Total GULP energy -144994.283719 kJ/mol
# GULP energy per Si atom -5576.703220 kJ/mol
# Density = 1.931974 g / cm^3
# Si number density = 19.363809 Si / 1000 Ang^3
#
#
#
# Elastic Constant Matrix: (Units=GPa)
#
#
# Indices 1 2 3 4 5 6 
#
# 1 74.7041 19.7603 27.6949 0.0000 0.0000 0.0000
# 2 19.7603 103.1563 39.3416 0.0000 0.0000 0.0000
# 3 27.6949 39.3416 36.6369 0.0000 0.0000 0.0000
# 4 0.0000 0.0000 0.0000 -5.8244 0.0000 0.0000
# 5 0.0000 0.0000 0.0000 0.0000 -22.7627 0.0000
# 6 0.0000 0.0000 0.0000 0.0000 0.0000 13.3460
#
#
#
# Elastic Compliance Matrix: (Units=1/GPa)
#
#
# Indices 1 2 3 4 5 6 
#
# 1 0.019181 0.003143 -0.017874 0.000000 0.000000 0.000000
# 2 0.003143 0.016932 -0.020558 0.000000 0.000000 0.000000
# 3 -0.017874 -0.020558 0.062883 0.000000 0.000000 0.000000
# 4 0.000000 0.000000 0.000000 -0.171691 0.000000 0.000000
# 5 0.000000 0.000000 0.000000 0.000000 -0.043931 0.000000
# 6 0.000000 0.000000 0.000000 0.000000 0.000000 0.074929
#
#
# Mechanical properties :
#
#
# Convention : Reuss Voigt Hill
#
# Bulk Modulus (GPa) = 35.19073 43.12124 39.15598
# Shear Modulus (GPa) = 130.35982 5.46512 67.91247
#
# Velocity S-wave (km/s) = 8.21386 1.68180 5.92857
# Velocity P-wave (km/s) = 10.40046 5.10770 8.19324
#
# Compressibility (1/GPa) = 0.02841658
#
# Stress axis : x y z
#
# Youngs Moduli (GPa) = 52.13375 59.05809 15.90265
#
# Poissons Ratio (x) = -0.18560 0.28425
# Poissons Ratio (y) = -0.16383 0.32693
# Poissons Ratio (z) = 0.93186 1.21412
#
# Static dielectric constant tensor:
#      x y z
#    x 1.695730 0.000000 0.000000 
#    y 0.000000 1.624700 0.000000 
#    z 0.000000 0.000000 1.705770 
# 
# From -- ./inp_files/27446.got.cif
#   From: 2010.05.17/outbox.cif.g08.bks.cpg/sg72_14_cif.got.tgz:27446.got - 2010.06.03 17:03:01.
