data_PCOD9528283
_publ_section_title
;
Structure prediction by ZEFSAII (Michael W. Deem and Ramdas Pophale) SiO2 
 PCOD9528283
Probable space group: I B A M
;
_chemical_formula_sum "Si O2"
_cell_formula_units_Z 104
_cell_length_a 28.960848
_cell_length_b 8.680970
_cell_length_c 20.596655
_cell_angle_alpha 90.000000
_cell_angle_beta 90.000000
_cell_angle_gamma 90.000000
_cell_volume 5178.169044
_symmetry_space_group_name_H-M "I B A M"
_symmetry_group_IT_number 72
_symmetry_cell_setting 'orthorhombic'
loop_
_space_group_symop_operation_xyz
x,y,z
-x,-y,z
x,-y,1/2-z
-x,y,1/2-z
-x,-y,-z
x,y,-z
-x,y,1/2+z
x,-y,1/2+z
1/2+x,1/2+y,1/2+z
1/2-x,1/2-y,1/2+z
1/2+x,1/2-y,-z
1/2-x,1/2+y,-z
1/2-x,1/2-y,1/2-z
1/2+x,1/2+y,1/2-z
1/2-x,1/2+y,z
1/2+x,1/2-y,z
loop_
_atom_site_type_symbol
_atom_site_label
_atom_site_fract_x
_atom_site_fract_y
_atom_site_fract_z
Si Si1 0.270195 0.433883 0.385301
Si Si2 0.996041 0.816842 0.076888
Si Si3 0.185373 0.737631 0.867647
Si Si4 0.665600 0.328966 0.226436
Si Si5 0.334804 0.303886 0.500000
Si Si6 0.099885 0.306998 0.119277
Si Si7 0.408191 0.153015 0.922537
O O1 0.215580 0.407225 0.390256
O O2 0.284249 0.612028 0.383020
O O3 0.289580 0.358203 0.318724
O O4 0.297326 0.355266 0.443658
O O5 0.044244 0.736652 0.095310
O O6 0.952250 0.754592 0.115383
O O7 0.988596 0.783531 0.000000
O O8 0.000000 0.000000 0.084107
O O9 0.176586 0.734128 0.790937
O O10 0.136831 0.751640 0.904209
O O11 0.650708 0.500000 0.250000
O O12 0.626864 0.250332 0.182595
O O13 0.372275 0.257779 0.557295
O O14 0.097937 0.490981 0.113046
O O15 0.408654 0.127080 0.000000
#
# Coordination Sequence:
#
# PCOD9528283 Si02
#       7
#    16  16  16  16   8  16  16
#     4  10  24  39  65  89 131 169 221 271 327 394
#     4  10  22  38  68 100 134 171 216 269 344 405
#     4  11  25  43  64  93 133 174 223 270 321 393
#     4   9  22  43  66  94 125 175 225 265 321 394
#     4  10  22  36  66  96 127 171 216 266 343 379
#     4  11  21  42  70  94 136 169 218 276 329 397
#     4  11  25  40  64 102 135 171 222 277 332 398
#
# _framework density 20.084320000000002
#
# number of rings (size 3 to 8) (size 9 to 14) (size 15 to 20)
#    0.000    1.692    1.538    0.923   12.923    1.846 
#    0.000    0.769    0.000    1.846    0.000    0.000 
#    0.000    0.000    0.000    0.000    0.000    0.000 
#
# Total GULP energy -289671.680337 kJ/mol
# GULP energy per Si atom -5570.609237 kJ/mol
# Density = 2.003861 g / cm^3
# Si number density = 20.084320 Si / 1000 Ang^3
#
#
#
# Elastic Constant Matrix: (Units=GPa)
#
#
# Indices 1 2 3 4 5 6 
#
# 1 117.6792 46.9779 41.5565 0.0000 0.0000 0.0000
# 2 46.9779 39.5633 35.2174 0.0000 0.0000 0.0000
# 3 41.5565 35.2174 61.9569 0.0000 0.0000 0.0000
# 4 0.0000 0.0000 0.0000 17.0769 0.0000 0.0000
# 5 0.0000 0.0000 0.0000 0.0000 8.4855 0.0000
# 6 0.0000 0.0000 0.0000 0.0000 0.0000 25.8497
#
#
#
# Elastic Compliance Matrix: (Units=1/GPa)
#
#
# Indices 1 2 3 4 5 6 
#
# 1 0.016156 -0.019307 0.000138 0.000000 0.000000 0.000000
# 2 -0.019307 0.074236 -0.029247 0.000000 0.000000 0.000000
# 3 0.000138 -0.029247 0.032672 0.000000 0.000000 0.000000
# 4 0.000000 0.000000 0.000000 0.058559 0.000000 0.000000
# 5 0.000000 0.000000 0.000000 0.000000 0.117848 0.000000
# 6 0.000000 0.000000 0.000000 0.000000 0.000000 0.038685
#
#
# Mechanical properties :
#
#
# Convention : Reuss Voigt Hill
#
# Bulk Modulus (GPa) = 38.12144 51.85590 44.98867
# Shear Modulus (GPa) = 11.26804 16.64559 13.95682
#
# Velocity S-wave (km/s) = 2.37119 2.88199 2.63898
# Velocity P-wave (km/s) = 5.14962 6.07862 5.63330
#
# Compressibility (1/GPa) = 0.02623196
#
# Stress axis : x y z
#
# Youngs Moduli (GPa) = 61.89499 13.47061 30.60680
#
# Poissons Ratio (x) = 0.26008 -0.00422
# Poissons Ratio (y) = 1.19500 0.89516
# Poissons Ratio (z) = -0.00853 0.39398
#
# Static dielectric constant tensor:
#      x y z
#    x 1.699550 0.000000 0.000000 
#    y 0.000000 1.745220 0.000000 
#    z 0.000000 0.000000 1.676880 
# 
# From -- ./inp_files/36265.got.cif
#   From: 2010.05.17/outbox.cif.g08.bks.cpg/sg72_19_cif.got.tgz:36265.got - 2010.06.03 17:03:01.
