data_PCOD9528295
_publ_section_title
;
Structure prediction by ZEFSAII (Michael W. Deem and Ramdas Pophale) SiO2 
 PCOD9528295
Probable space group: I B A M
;
_chemical_formula_sum "Si O2"
_cell_formula_units_Z 108
_cell_length_a 23.161055
_cell_length_b 13.298392
_cell_length_c 14.136464
_cell_angle_alpha 90.000000
_cell_angle_beta 90.000000
_cell_angle_gamma 90.000000
_cell_volume 4354.098605
_symmetry_space_group_name_H-M "I B A M"
_symmetry_group_IT_number 72
_symmetry_cell_setting 'orthorhombic'
loop_
_space_group_symop_operation_xyz
x,y,z
-x,-y,z
x,-y,1/2-z
-x,y,1/2-z
-x,-y,-z
x,y,-z
-x,y,1/2+z
x,-y,1/2+z
1/2+x,1/2+y,1/2+z
1/2-x,1/2-y,1/2+z
1/2+x,1/2-y,-z
1/2-x,1/2+y,-z
1/2-x,1/2-y,1/2-z
1/2+x,1/2+y,1/2-z
1/2-x,1/2+y,z
1/2+x,1/2-y,z
loop_
_atom_site_type_symbol
_atom_site_label
_atom_site_fract_x
_atom_site_fract_y
_atom_site_fract_z
Si Si1 0.000000 0.500000 0.250000
Si Si2 0.877295 0.045559 0.604799
Si Si3 0.886311 0.849471 0.295766
Si Si4 0.240354 0.830444 0.000000
Si Si5 0.693447 0.960744 0.646343
Si Si6 0.663354 0.817122 0.097839
Si Si7 0.493639 0.349405 0.392039
Si Si8 0.073921 0.638639 0.611646
O O1 0.038464 0.567847 0.318608
O O2 0.857612 0.077038 0.500000
O O3 0.861346 0.110029 0.696972
O O4 0.946822 0.061046 0.608203
O O5 0.864321 0.929299 0.625204
O O6 0.868301 0.737022 0.317550
O O7 0.954882 0.853387 0.316672
O O8 0.222231 0.744027 0.919371
O O9 0.258342 0.911335 0.917608
O O10 0.670043 0.065606 0.605165
O O11 0.711456 0.000000 0.750000
O O12 0.640615 0.881311 0.638045
O O13 0.629477 0.794177 0.000000
O O14 0.517086 0.344360 0.500000
O O15 0.452899 0.250330 0.378846
O O16 0.067969 0.612675 0.500000
#
# Coordination Sequence:
#
# PCOD9528295 Si02
#       8
#     4  16  16   8  16  16  16  16
#     4  12  26  40  64 110 150 200 254 292 332 458
#     4  10  22  39  60  96 148 206 250 310 370 436
#     4  11  22  40  69 100 148 194 259 313 373 461
#     4  10  24  54  76 107 146 182 258 308 392 462
#     4  12  25  49  82 111 151 198 248 318 392 464
#     4  10  24  46  78 110 137 188 244 316 392 454
#     4  10  22  37  60  96 144 200 247 301 361 433
#     4  11  25  43  67 105 153 202 246 298 367 450
#
# _framework density 24.804216
#
# number of rings (size 3 to 8) (size 9 to 14) (size 15 to 20)
#    0.444    0.889    2.222    2.444    6.222    2.963 
#    2.667    2.963    0.000    0.000    0.000    0.000 
#    0.000    0.000    0.000    0.000    0.000    0.000 
#
# Total GULP energy -300728.667125 kJ/mol
# GULP energy per Si atom -5569.049391 kJ/mol
# Density = 2.474776 g / cm^3
# Si number density = 24.804216 Si / 1000 Ang^3
#
#
#
# Elastic Constant Matrix: (Units=GPa)
#
#
# Indices 1 2 3 4 5 6 
#
# 1 80.6023 29.7331 25.3861 0.0000 0.0000 0.0000
# 2 29.7331 114.7191 36.9207 0.0000 0.0000 0.0000
# 3 25.3861 36.9207 163.3490 0.0000 0.0000 0.0000
# 4 0.0000 0.0000 0.0000 40.0098 0.0000 0.0000
# 5 0.0000 0.0000 0.0000 0.0000 28.5734 0.0000
# 6 0.0000 0.0000 0.0000 0.0000 0.0000 30.7225
#
#
#
# Elastic Compliance Matrix: (Units=1/GPa)
#
#
# Indices 1 2 3 4 5 6 
#
# 1 0.014036 -0.003166 -0.001466 0.000000 0.000000 0.000000
# 2 -0.003166 0.010115 -0.001794 0.000000 0.000000 0.000000
# 3 -0.001466 -0.001794 0.006755 0.000000 0.000000 0.000000
# 4 0.000000 0.000000 0.000000 0.024994 0.000000 0.000000
# 5 0.000000 0.000000 0.000000 0.000000 0.034998 0.000000
# 6 0.000000 0.000000 0.000000 0.000000 0.000000 0.032549
#
#
# Mechanical properties :
#
#
# Convention : Reuss Voigt Hill
#
# Bulk Modulus (GPa) = 55.38884 60.30556 57.84720
# Shear Modulus (GPa) = 35.13271 37.63651 36.38461
#
# Velocity S-wave (km/s) = 3.76759 3.89954 3.83413
# Velocity P-wave (km/s) = 6.42691 6.68136 6.55537
#
# Compressibility (1/GPa) = 0.01805418
#
# Stress axis : x y z
#
# Youngs Moduli (GPa) = 71.24434 98.86319 148.03470
#
# Poissons Ratio (x) = 0.31302 0.21698
# Poissons Ratio (y) = 0.22557 0.26560
# Poissons Ratio (z) = 0.10443 0.17738
#
# Static dielectric constant tensor:
#      x y z
#    x 2.085960 0.000000 0.000000 
#    y 0.000000 1.923190 0.000000 
#    z 0.000000 0.000000 2.049790 
# 
# From -- ./inp_files/26466.got.cif
#   From: 2010.05.17/outbox.cif.g08.bks.cpg/sg72_14_cif.got.tgz:26466.got - 2010.06.03 17:03:01.
