data_PCOD9528413
_publ_section_title
;
Structure prediction by ZEFSAII (Michael W. Deem and Ramdas Pophale) SiO2 
 PCOD9528413
Probable space group: I B A M
;
_chemical_formula_sum "Si O2"
_cell_formula_units_Z 64
_cell_length_a 12.168120
_cell_length_b 12.319074
_cell_length_c 16.850934
_cell_angle_alpha 90.000000
_cell_angle_beta 90.000000
_cell_angle_gamma 90.000000
_cell_volume 2525.954513
_symmetry_space_group_name_H-M "I B A M"
_symmetry_group_IT_number 72
_symmetry_cell_setting 'orthorhombic'
loop_
_space_group_symop_operation_xyz
x,y,z
-x,-y,z
x,-y,1/2-z
-x,y,1/2-z
-x,-y,-z
x,y,-z
-x,y,1/2+z
x,-y,1/2+z
1/2+x,1/2+y,1/2+z
1/2-x,1/2-y,1/2+z
1/2+x,1/2-y,-z
1/2-x,1/2+y,-z
1/2-x,1/2-y,1/2-z
1/2+x,1/2+y,1/2-z
1/2-x,1/2+y,z
1/2+x,1/2-y,z
loop_
_atom_site_type_symbol
_atom_site_label
_atom_site_fract_x
_atom_site_fract_y
_atom_site_fract_z
Si Si1 0.709357 0.896258 0.411500
Si Si2 0.836311 0.416781 0.822708
Si Si3 0.626766 0.659660 0.588901
Si Si4 0.421902 0.327766 0.175861
O O1 0.757047 0.893951 0.500000
O O2 0.636712 0.789396 0.404116
O O3 0.805056 0.881125 0.345318
O O4 0.639901 0.004086 0.396525
O O5 0.854009 0.500000 0.750000
O O6 0.709957 0.384552 0.844424
O O7 0.897586 0.301936 0.817563
O O8 0.661955 0.628813 0.500000
O O9 0.500526 0.636509 0.604018
O O10 0.500000 0.357207 0.250000
#
# Coordination Sequence:
#
# PCOD9528413 Si02
#       4
#    16  16  16  16
#     4  10  22  40  62  90 126 167 210 257 308 367
#     4  11  23  40  63  92 126 163 206 257 313 371
#     4  10  22  40  62  90 126 167 210 257 308 367
#     4  11  23  40  63  92 126 163 206 257 313 371
#
# _framework density 25.336955
#
# number of rings (size 3 to 8) (size 9 to 14) (size 15 to 20)
#    0.000    1.500    0.000    4.500    0.000   11.500 
#    0.000    7.500    0.000    0.000    0.000    0.000 
#    0.000    0.000    0.000    0.000    0.000    0.000 
#
# Total GULP energy -178708.371037 kJ/mol
# GULP energy per Si atom -5584.636595 kJ/mol
# Density = 2.527929 g / cm^3
# Si number density = 25.336955 Si / 1000 Ang^3
#
#
#
# Elastic Constant Matrix: (Units=GPa)
#
#
# Indices 1 2 3 4 5 6 
#
# 1 80.2887 5.3616 21.9663 0.0000 0.0000 0.0000
# 2 5.3616 66.1639 1.7598 0.0000 0.0000 0.0000
# 3 21.9663 1.7598 121.5007 0.0000 0.0000 0.0000
# 4 0.0000 0.0000 0.0000 14.2135 0.0000 0.0000
# 5 0.0000 0.0000 0.0000 0.0000 4.2752 0.0000
# 6 0.0000 0.0000 0.0000 0.0000 0.0000 -14.6538
#
#
#
# Elastic Compliance Matrix: (Units=1/GPa)
#
#
# Indices 1 2 3 4 5 6 
#
# 1 0.013170 -0.001004 -0.002366 0.000000 0.000000 0.000000
# 2 -0.001004 0.015196 -0.000039 0.000000 0.000000 0.000000
# 3 -0.002366 -0.000039 0.008659 0.000000 0.000000 0.000000
# 4 0.000000 0.000000 0.000000 0.070356 0.000000 0.000000
# 5 0.000000 0.000000 0.000000 0.000000 0.233907 0.000000
# 6 0.000000 0.000000 0.000000 0.000000 0.000000 -0.068242
#
#
# Mechanical properties :
#
#
# Convention : Reuss Voigt Hill
#
# Bulk Modulus (GPa) = 33.10566 36.23655 34.67110
# Shear Modulus (GPa) = 17.24537 16.69137 16.96837
#
# Velocity S-wave (km/s) = 2.61174 2.56945 2.59068
# Velocity P-wave (km/s) = 4.71057 4.80995 4.76052
#
# Compressibility (1/GPa) = 0.03020631
#
# Stress axis : x y z
#
# Youngs Moduli (GPa) = 75.93284 65.80511 115.48965
#
# Poissons Ratio (x) = 0.06609 0.27329
# Poissons Ratio (y) = 0.07626 0.00445
# Poissons Ratio (z) = 0.17969 0.00254
#
# Static dielectric constant tensor:
#      x y z
#    x 1.949330 0.000000 0.000000 
#    y 0.000000 2.025870 0.000000 
#    z 0.000000 0.000000 2.062710 
# 
# From -- ./inp_files/28950.got.cif
#   From: 2010.05.17/outbox.cif.g08.bks.cpg/sg72_15_cif.got.tgz:28950.got - 2010.06.03 17:03:01.
