data_PCOD9528125
_publ_section_title
;
Structure prediction by ZEFSAII (Michael W. Deem and Ramdas Pophale) SiO2 
 PCOD9528125
Probable space group: I B A M
;
_chemical_formula_sum "Si O2"
_cell_formula_units_Z 88
_cell_length_a 18.287873
_cell_length_b 12.992710
_cell_length_c 15.717132
_cell_angle_alpha 90.000000
_cell_angle_beta 90.000000
_cell_angle_gamma 90.000000
_cell_volume 3734.532495
_symmetry_space_group_name_H-M "I B A M"
_symmetry_group_IT_number 72
_symmetry_cell_setting 'orthorhombic'
loop_
_space_group_symop_operation_xyz
x,y,z
-x,-y,z
x,-y,1/2-z
-x,y,1/2-z
-x,-y,-z
x,y,-z
-x,y,1/2+z
x,-y,1/2+z
1/2+x,1/2+y,1/2+z
1/2-x,1/2-y,1/2+z
1/2+x,1/2-y,-z
1/2-x,1/2+y,-z
1/2-x,1/2-y,1/2-z
1/2+x,1/2+y,1/2-z
1/2-x,1/2+y,z
1/2+x,1/2-y,z
loop_
_atom_site_type_symbol
_atom_site_label
_atom_site_fract_x
_atom_site_fract_y
_atom_site_fract_z
Si Si1 0.758919 0.936464 0.836661
Si Si2 0.679245 0.058975 0.500000
Si Si3 0.838769 0.759426 0.657038
Si Si4 0.760330 0.202279 0.000000
Si Si5 0.090611 0.102396 0.803047
Si Si6 0.406767 0.877791 0.000000
Si Si7 0.502685 0.788049 0.151102
O O1 0.712710 0.983465 0.912665
O O2 0.718142 0.828575 0.817826
O O3 0.842711 0.922095 0.866013
O O4 0.758589 0.000000 0.750000
O O5 0.712575 0.175630 0.500000
O O6 0.601548 0.001961 0.500000
O O7 0.800514 0.830303 0.586771
O O8 0.869272 0.821538 0.736531
O O9 0.913425 0.708323 0.620912
O O10 0.674018 0.178620 0.000000
O O11 0.025243 0.168503 0.842694
O O12 0.073406 0.000000 0.750000
O O13 0.449653 0.842705 0.915288
O O14 0.500000 0.826396 0.250000
#
# Coordination Sequence:
#
# PCOD9528125 Si02
#       7
#    16   8  16   8  16   8  16
#     4  10  22  39  66  98 135 174 232 285 343 408
#     4  10  24  40  65 102 133 172 227 283 339 406
#     4  10  21  40  64  94 135 176 225 283 351 403
#     4  10  23  43  66  98 140 176 232 296 339 405
#     4  10  22  39  67  97 137 185 233 285 344 416
#     4  12  25  43  76  98 140 184 235 293 352 411
#     4  10  23  41  66  96 142 182 229 279 359 421
#
# _framework density 23.563859000000001
#
# number of rings (size 3 to 8) (size 9 to 14) (size 15 to 20)
#    0.000    1.818    0.000    3.273   10.182    3.273 
#    0.000    7.273    0.000    5.455    0.000    0.000 
#    0.000    0.000    0.000    0.000    0.000    0.000 
#
# Total GULP energy -245559.974038 kJ/mol
# GULP energy per Si atom -5580.908501 kJ/mol
# Density = 2.351023 g / cm^3
# Si number density = 23.563859 Si / 1000 Ang^3
#
#
#
# Elastic Constant Matrix: (Units=GPa)
#
#
# Indices 1 2 3 4 5 6 
#
# 1 143.4953 16.1386 12.9647 0.0000 0.0000 0.0000
# 2 16.1386 101.5323 -4.7925 0.0000 0.0000 0.0000
# 3 12.9647 -4.7925 85.1926 0.0000 0.0000 0.0000
# 4 0.0000 0.0000 0.0000 21.0095 0.0000 0.0000
# 5 0.0000 0.0000 0.0000 0.0000 30.4900 0.0000
# 6 0.0000 0.0000 0.0000 0.0000 0.0000 31.8136
#
#
#
# Elastic Compliance Matrix: (Units=1/GPa)
#
#
# Indices 1 2 3 4 5 6 
#
# 1 0.007209 -0.001201 -0.001165 0.000000 0.000000 0.000000
# 2 -0.001201 0.010075 0.000750 0.000000 0.000000 0.000000
# 3 -0.001165 0.000750 0.011958 0.000000 0.000000 0.000000
# 4 0.000000 0.000000 0.000000 0.047597 0.000000 0.000000
# 5 0.000000 0.000000 0.000000 0.000000 0.032798 0.000000
# 6 0.000000 0.000000 0.000000 0.000000 0.000000 0.031433
#
#
# Mechanical properties :
#
#
# Convention : Reuss Voigt Hill
#
# Bulk Modulus (GPa) = 38.44670 42.09354 40.27012
# Shear Modulus (GPa) = 32.68569 37.05659 34.87114
#
# Velocity S-wave (km/s) = 3.72843 3.96991 3.85106
# Velocity P-wave (km/s) = 5.90647 6.23826 6.07463
#
# Compressibility (1/GPa) = 0.02601004
#
# Stress axis : x y z
#
# Youngs Moduli (GPa) = 138.71250 99.25217 83.62947
#
# Poissons Ratio (x) = 0.11919 0.09740
# Poissons Ratio (y) = 0.16658 -0.06268
# Poissons Ratio (z) = 0.16155 -0.07439
#
# Static dielectric constant tensor:
#      x y z
#    x 1.923130 0.000000 0.000000 
#    y 0.000000 2.017880 0.000000 
#    z 0.000000 0.000000 1.900230 
# 
# From -- ./inp_files/31501.got.cif
#   From: 2010.05.17/outbox.cif.g08.bks.cpg/sg72_16_cif.got.tgz:31501.got - 2010.06.03 17:03:01.
