data_PCOD9528487
_publ_section_title
;
Structure prediction by ZEFSAII (Michael W. Deem and Ramdas Pophale) SiO2 
 PCOD9528487
Probable space group: I B A M
;
_chemical_formula_sum "Si O2"
_cell_formula_units_Z 56
_cell_length_a 17.742195
_cell_length_b 16.575431
_cell_length_c 9.069148
_cell_angle_alpha 90.000000
_cell_angle_beta 90.000000
_cell_angle_gamma 90.000000
_cell_volume 2667.096118
_symmetry_space_group_name_H-M "I B A M"
_symmetry_group_IT_number 72
_symmetry_cell_setting 'orthorhombic'
loop_
_space_group_symop_operation_xyz
x,y,z
-x,-y,z
x,-y,1/2-z
-x,y,1/2-z
-x,-y,-z
x,y,-z
-x,y,1/2+z
x,-y,1/2+z
1/2+x,1/2+y,1/2+z
1/2-x,1/2-y,1/2+z
1/2+x,1/2-y,-z
1/2-x,1/2+y,-z
1/2-x,1/2-y,1/2-z
1/2+x,1/2+y,1/2-z
1/2-x,1/2+y,z
1/2+x,1/2-y,z
loop_
_atom_site_type_symbol
_atom_site_label
_atom_site_fract_x
_atom_site_fract_y
_atom_site_fract_z
Si Si1 0.428242 0.644084 0.335307
Si Si2 0.718549 0.589006 0.676838
Si Si3 0.867658 0.415651 0.331058
Si Si4 0.000000 0.698072 0.750000
O O1 0.500000 0.605816 0.250000
O O2 0.417598 0.611204 0.500000
O O3 0.354025 0.635264 0.237753
O O4 0.451844 0.738021 0.344226
O O5 0.713256 0.500000 0.750000
O O6 0.719208 0.586331 0.500000
O O7 0.797291 0.621844 0.741949
O O8 0.885793 0.500000 0.250000
O O9 0.844946 0.431534 0.500000
O O10 0.939886 0.358579 0.328770
#
# Coordination Sequence:
#
# PCOD9528487 Si02
#       4
#    16  16  16   8
#     4  10  22  41  63  92 125 162 205 252 306 366
#     4  11  23  41  65  93 124 162 206 256 307 363
#     4  11  23  41  65  93 124 163 206 255 308 363
#     4  10  25  40  65  88 128 162 206 250 305 368
#
# _framework density 20.996618000000002
#
# number of rings (size 3 to 8) (size 9 to 14) (size 15 to 20)
#    0.857    0.571    0.000    7.286    0.000    7.429 
#    0.000    2.857    0.000    0.000    0.000    0.000 
#    0.000    0.000    0.000    0.000    0.000    0.000 
#
# Total GULP energy -156202.420550 kJ/mol
# GULP energy per Si atom -5578.657877 kJ/mol
# Density = 2.094883 g / cm^3
# Si number density = 20.996618 Si / 1000 Ang^3
#
#
#
# Elastic Constant Matrix: (Units=GPa)
#
#
# Indices 1 2 3 4 5 6 
#
# 1 157.9601 51.0427 71.4184 0.0000 0.0000 0.0000
# 2 51.0427 39.4345 28.4248 0.0000 0.0000 0.0000
# 3 71.4184 28.4248 223.3627 0.0000 0.0000 0.0000
# 4 0.0000 0.0000 0.0000 14.9766 0.0000 0.0000
# 5 0.0000 0.0000 0.0000 0.0000 6.2799 0.0000
# 6 0.0000 0.0000 0.0000 0.0000 0.0000 47.6091
#
#
#
# Elastic Compliance Matrix: (Units=1/GPa)
#
#
# Indices 1 2 3 4 5 6 
#
# 1 0.011630 -0.013623 -0.001985 0.000000 0.000000 0.000000
# 2 -0.013623 0.043877 -0.001228 0.000000 0.000000 0.000000
# 3 -0.001985 -0.001228 0.005268 0.000000 0.000000 0.000000
# 4 0.000000 0.000000 0.000000 0.066771 0.000000 0.000000
# 5 0.000000 0.000000 0.000000 0.000000 0.159238 0.000000
# 6 0.000000 0.000000 0.000000 0.000000 0.000000 0.021004
#
#
# Mechanical properties :
#
#
# Convention : Reuss Voigt Hill
#
# Bulk Modulus (GPa) = 36.89603 80.28103 58.58853
# Shear Modulus (GPa) = 14.26555 31.76454 23.01504
#
# Velocity S-wave (km/s) = 2.60940 3.89374 3.31438
# Velocity P-wave (km/s) = 5.16615 7.65070 6.52772
#
# Compressibility (1/GPa) = 0.02710319
#
# Stress axis : x y z
#
# Youngs Moduli (GPa) = 85.98206 22.79109 189.82610
#
# Poissons Ratio (x) = 0.31048 0.37681
# Poissons Ratio (y) = 1.17134 0.23307
# Poissons Ratio (z) = 0.17068 0.02798
#
# Static dielectric constant tensor:
#      x y z
#    x 1.769660 0.000000 0.000000 
#    y 0.000000 1.771900 0.000000 
#    z 0.000000 0.000000 1.747420 
# 
# From -- ./inp_files/3238.got.cif
#   From: 2010.05.17/outbox.cif.g08.bks.cpg/sg72_2_cif.got.tgz:3238.got - 2010.06.03 17:03:01.
