data_PCOD9528419
_publ_section_title
;
Structure prediction by ZEFSAII (Michael W. Deem and Ramdas Pophale) SiO2 
 PCOD9528419
Probable space group: I B A M
;
_chemical_formula_sum "Si O2"
_cell_formula_units_Z 104
_cell_length_a 9.490520
_cell_length_b 23.279429
_cell_length_c 22.798119
_cell_angle_alpha 90.000000
_cell_angle_beta 90.000000
_cell_angle_gamma 90.000000
_cell_volume 5036.877036
_symmetry_space_group_name_H-M "I B A M"
_symmetry_group_IT_number 72
_symmetry_cell_setting 'orthorhombic'
loop_
_space_group_symop_operation_xyz
x,y,z
-x,-y,z
x,-y,1/2-z
-x,y,1/2-z
-x,-y,-z
x,y,-z
-x,y,1/2+z
x,-y,1/2+z
1/2+x,1/2+y,1/2+z
1/2-x,1/2-y,1/2+z
1/2+x,1/2-y,-z
1/2-x,1/2+y,-z
1/2-x,1/2-y,1/2-z
1/2+x,1/2+y,1/2-z
1/2-x,1/2+y,z
1/2+x,1/2-y,z
loop_
_atom_site_type_symbol
_atom_site_label
_atom_site_fract_x
_atom_site_fract_y
_atom_site_fract_z
Si Si1 0.662267 0.847689 0.316623
Si Si2 0.750000 0.250000 0.407855
Si Si3 0.337732 0.152312 0.816623
Si Si4 0.163131 0.068939 0.114691
Si Si5 0.336868 0.431062 0.885309
Si Si6 0.840077 0.569780 0.500000
Si Si7 0.659922 0.069780 0.000000
Si Si8 0.000000 0.775283 0.500000
O O1 0.694322 0.799626 0.364649
O O2 0.681232 0.826796 0.250000
O O3 0.499999 0.866870 0.323072
O O4 0.766880 0.899893 0.330606
O O5 0.694322 0.200375 0.364648
O O6 0.876057 0.227879 0.448813
O O7 0.623942 0.272120 0.448812
O O8 0.233118 0.100108 0.830606
O O9 1.000000 0.084752 0.106502
O O10 0.170824 0.000000 0.119687
O O11 0.253691 0.086380 0.057557
O O12 0.246309 0.413620 0.942443
O O13 0.847253 0.500000 0.500000
O O14 1.000000 0.592549 0.500000
#
# Coordination Sequence:
#
# PCOD9528419 Si02
#       8
#    16  16  16  16  16   8   8   8
#     4  11  25  44  67  95 132 179 222 265 321 389
#     4  11  23  48  68 104 129 167 208 274 326 401
#     4  11  25  44  67  95 132 179 222 265 321 389
#     4  10  22  40  62  94 132 173 222 273 326 382
#     4  10  22  40  62  94 132 173 222 273 326 382
#     4   9  17  33  59  88 122 166 213 265 324 382
#     4   9  17  33  59  88 122 166 213 265 324 382
#     4  10  24  42  74  98 136 162 208 262 346 388
#
# _framework density 20.647714000000001
#
# number of rings (size 3 to 8) (size 9 to 14) (size 15 to 20)
#    0.000    1.692    1.538    1.846    2.154    7.385 
#    2.769    3.077    0.000    0.000    0.000    0.000 
#    0.000    0.000    0.000    0.000    0.000    0.000 
#
# Total GULP energy -289678.766801 kJ/mol
# GULP energy per Si atom -5570.745515 kJ/mol
# Density = 2.060072 g / cm^3
# Si number density = 20.647714 Si / 1000 Ang^3
#
#
#
# Elastic Constant Matrix: (Units=GPa)
#
#
# Indices 1 2 3 4 5 6 
#
# 1 176.4672 34.5476 66.8525 0.0000 0.0000 0.0000
# 2 34.5476 40.7333 28.0266 0.0000 0.0000 0.0000
# 3 66.8525 28.0266 136.5109 0.0000 0.0000 0.0000
# 4 0.0000 0.0000 0.0000 -3.7241 0.0000 0.0000
# 5 0.0000 0.0000 0.0000 0.0000 39.7360 0.0000
# 6 0.0000 0.0000 0.0000 0.0000 0.0000 16.3197
#
#
#
# Elastic Compliance Matrix: (Units=1/GPa)
#
#
# Indices 1 2 3 4 5 6 
#
# 1 0.007614 -0.004533 -0.002798 0.000000 0.000000 0.000000
# 2 -0.004533 0.031286 -0.004204 0.000000 0.000000 0.000000
# 3 -0.002798 -0.004204 0.009559 0.000000 0.000000 0.000000
# 4 0.000000 0.000000 0.000000 -0.268520 0.000000 0.000000
# 5 0.000000 0.000000 0.000000 0.000000 0.025166 0.000000
# 6 0.000000 0.000000 0.000000 0.000000 0.000000 0.061276
#
#
# Mechanical properties :
#
#
# Convention : Reuss Voigt Hill
#
# Bulk Modulus (GPa) = 39.38468 68.06275 53.72372
# Shear Modulus (GPa) = -48.97820 25.41864 -11.77978
#
# Velocity S-wave (km/s) = -4.87569 3.51246 -2.39113
# Velocity P-wave (km/s) = 3.54690 7.03457 4.29562
#
# Compressibility (1/GPa) = 0.02539058
#
# Stress axis : x y z
#
# Youngs Moduli (GPa) = 131.33302 31.96273 104.61517
#
# Poissons Ratio (x) = 0.14487 0.29274
# Poissons Ratio (y) = 0.59527 0.43976
# Poissons Ratio (z) = 0.36751 0.13436
#
# Static dielectric constant tensor:
#      x y z
#    x 1.707460 0.000000 0.000000 
#    y 0.000000 1.771360 0.000000 
#    z 0.000000 0.000000 1.714540 
# 
# From -- ./inp_files/36205.got.cif
#   From: 2010.05.17/outbox.cif.g08.bks.cpg/sg72_19_cif.got.tgz:36205.got - 2010.06.03 17:03:01.
