data_PCOD9528796
_publ_section_title
;
Structure prediction by ZEFSAII (Michael W. Deem and Ramdas Pophale) SiO2 
 PCOD9528796
Probable space group: I B A M
;
_chemical_formula_sum "Si O2"
_cell_formula_units_Z 36
_cell_length_a 9.792492
_cell_length_b 12.036169
_cell_length_c 13.719564
_cell_angle_alpha 90.000000
_cell_angle_beta 90.000000
_cell_angle_gamma 90.000000
_cell_volume 1617.043907
_symmetry_space_group_name_H-M "I B A M"
_symmetry_group_IT_number 72
_symmetry_cell_setting 'orthorhombic'
loop_
_space_group_symop_operation_xyz
x,y,z
-x,-y,z
x,-y,1/2-z
-x,y,1/2-z
-x,-y,-z
x,y,-z
-x,y,1/2+z
x,-y,1/2+z
1/2+x,1/2+y,1/2+z
1/2-x,1/2-y,1/2+z
1/2+x,1/2-y,-z
1/2-x,1/2+y,-z
1/2-x,1/2-y,1/2-z
1/2+x,1/2+y,1/2-z
1/2-x,1/2+y,z
1/2+x,1/2-y,z
loop_
_atom_site_type_symbol
_atom_site_label
_atom_site_fract_x
_atom_site_fract_y
_atom_site_fract_z
Si Si1 0.334063 0.171544 0.881986
Si Si2 0.022293 0.873909 0.616856
Si Si3 0.500000 0.000000 0.750000
O O1 0.173437 0.169648 0.860634
O O2 0.405993 0.287238 0.853807
O O3 0.407664 0.075976 0.820391
O O4 0.351111 0.154686 0.000000
O O5 0.014481 0.876900 0.500000
O O6 0.000000 0.000000 0.649387
#
# Coordination Sequence:
#
# PCOD9528796 Si02
#       3
#    16  16   4
#     4  10  23  43  67  94 130 171 216 267 321 381
#     4   9  20  41  69  96 128 171 215 264 324 382
#     4  12  26  40  64  98 132 172 220 262 320 386
#
# _framework density 22.262848000000002
#
# number of rings (size 3 to 8) (size 9 to 14) (size 15 to 20)
#    0.000    2.222    0.000    0.667    6.222    1.778 
#    0.000    0.000    0.000    0.000    0.000    0.000 
#    0.000    0.000    0.000    0.000    0.000    0.000 
#
# Total GULP energy -100719.615870 kJ/mol
# GULP energy per Si atom -5595.534215 kJ/mol
# Density = 2.221218 g / cm^3
# Si number density = 22.262848 Si / 1000 Ang^3
#
#
#
# Elastic Constant Matrix: (Units=GPa)
#
#
# Indices 1 2 3 4 5 6 
#
# 1 163.9016 134.7825 46.5407 0.0000 0.0000 0.0000
# 2 134.7825 219.1413 48.4433 0.0000 0.0000 0.0000
# 3 46.5407 48.4433 166.5541 0.0000 0.0000 0.0000
# 4 0.0000 0.0000 0.0000 -77.0373 0.0000 0.0000
# 5 0.0000 0.0000 0.0000 0.0000 7.8320 0.0000
# 6 0.0000 0.0000 0.0000 0.0000 0.0000 37.8431
#
#
#
# Elastic Compliance Matrix: (Units=1/GPa)
#
#
# Indices 1 2 3 4 5 6 
#
# 1 0.012626 -0.007465 -0.001357 0.000000 0.000000 0.000000
# 2 -0.007465 0.009291 -0.000616 0.000000 0.000000 0.000000
# 3 -0.001357 -0.000616 0.006562 0.000000 0.000000 0.000000
# 4 0.000000 0.000000 0.000000 -0.012981 0.000000 0.000000
# 5 0.000000 0.000000 0.000000 0.000000 0.127681 0.000000
# 6 0.000000 0.000000 0.000000 0.000000 0.000000 0.026425
#
#
# Mechanical properties :
#
#
# Convention : Reuss Voigt Hill
#
# Bulk Modulus (GPa) = 104.14111 112.12554 108.13333
# Shear Modulus (GPa) = 26.08490 15.04960 20.56725
#
# Velocity S-wave (km/s) = 3.42669 2.60281 3.04277
# Velocity P-wave (km/s) = 7.90796 7.71405 7.81161
#
# Compressibility (1/GPa) = 0.00960236
#
# Stress axis : x y z
#
# Youngs Moduli (GPa) = 79.20449 107.62986 152.38346
#
# Poissons Ratio (x) = 0.80350 0.20673
# Poissons Ratio (y) = 0.59130 0.09391
# Poissons Ratio (z) = 0.10745 0.06633
#
# Static dielectric constant tensor:
#      x y z
#    x 1.754390 0.000000 0.000000 
#    y 0.000000 1.773280 0.000000 
#    z 0.000000 0.000000 1.825240 
# 
# From -- ./inp_files/17819.got.cif
#   From: 2010.05.17/outbox.cif.g08.bks.cpg/sg72_9_cif.got.tgz:17819.got - 2010.06.03 17:03:01.
