data_PCOD9528715
_publ_section_title
;
Structure prediction by ZEFSAII (Michael W. Deem and Ramdas Pophale) SiO2 
 PCOD9528715
Probable space group: I B A M
;
_chemical_formula_sum "Si O2"
_cell_formula_units_Z 112
_cell_length_a 22.132868
_cell_length_b 10.931851
_cell_length_c 23.091935
_cell_angle_alpha 90.000000
_cell_angle_beta 90.000000
_cell_angle_gamma 90.000000
_cell_volume 5587.167918
_symmetry_space_group_name_H-M "I B A M"
_symmetry_group_IT_number 72
_symmetry_cell_setting 'orthorhombic'
loop_
_space_group_symop_operation_xyz
x,y,z
-x,-y,z
x,-y,1/2-z
-x,y,1/2-z
-x,-y,-z
x,y,-z
-x,y,1/2+z
x,-y,1/2+z
1/2+x,1/2+y,1/2+z
1/2-x,1/2-y,1/2+z
1/2+x,1/2-y,-z
1/2-x,1/2+y,-z
1/2-x,1/2-y,1/2-z
1/2+x,1/2+y,1/2-z
1/2-x,1/2+y,z
1/2+x,1/2-y,z
loop_
_atom_site_type_symbol
_atom_site_label
_atom_site_fract_x
_atom_site_fract_y
_atom_site_fract_z
Si Si1 0.431691 0.354494 0.259742
Si Si2 0.760015 0.623201 0.286138
Si Si3 0.938018 0.426671 0.933339
Si Si4 0.320581 0.899397 0.065556
Si Si5 0.132158 0.263589 0.349405
Si Si6 0.682934 0.444349 0.433368
Si Si7 0.851324 0.837052 0.135493
O O1 0.428302 0.500000 0.250000
O O2 0.500000 0.314297 0.250000
O O3 0.391370 0.293699 0.210233
O O4 0.409627 0.324076 0.324333
O O5 0.770323 0.500000 0.250000
O O6 0.750000 0.750000 0.250000
O O7 0.815879 0.643162 0.329321
O O8 0.698695 0.607296 0.321618
O O9 0.879012 0.514270 0.931528
O O10 0.921666 0.324792 0.886101
O O11 0.000000 0.500000 0.921246
O O12 0.942626 0.380263 0.000000
O O13 0.255418 0.963393 0.072947
O O14 0.328396 0.791419 0.111334
O O15 0.319362 0.846921 0.000000
O O16 0.162759 0.162462 0.390282
O O17 0.671898 0.410046 0.500000
O O18 0.646176 0.565551 0.416103
#
# Coordination Sequence:
#
# PCOD9528715 Si02
#       7
#    16  16  16  16  16  16  16
#     4  11  25  43  63  90 126 173 216 267 326 383
#     4  12  25  40  64  97 134 172 217 265 332 402
#     4  10  24  45  67  92 129 175 222 269 325 389
#     4  10  23  40  64  98 132 170 210 266 331 391
#     4  12  23  42  68  95 129 171 216 269 328 389
#     4  11  23  40  66 102 131 164 213 270 333 398
#     4  12  22  40  67  90 132 169 212 265 327 392
#
# _framework density 20.045933999999999
#
# number of rings (size 3 to 8) (size 9 to 14) (size 15 to 20)
#    0.000    0.857    4.286    3.000    4.000    0.000 
#    0.000    0.000    0.000    0.857    0.000    0.000 
#    0.000    0.000    0.000    0.000    0.000    0.000 
#
# Total GULP energy -312966.732677 kJ/mol
# GULP energy per Si atom -5588.691655 kJ/mol
# Density = 2.000031 g / cm^3
# Si number density = 20.045934 Si / 1000 Ang^3
#
#
#
# Elastic Constant Matrix: (Units=GPa)
#
#
# Indices 1 2 3 4 5 6 
#
# 1 104.4848 5.4400 31.3186 0.0000 0.0000 0.0000
# 2 5.4400 50.0557 29.3361 0.0000 0.0000 0.0000
# 3 31.3186 29.3361 77.6977 0.0000 0.0000 0.0000
# 4 0.0000 0.0000 0.0000 38.8945 0.0000 0.0000
# 5 0.0000 0.0000 0.0000 0.0000 32.0566 0.0000
# 6 0.0000 0.0000 0.0000 0.0000 0.0000 24.5607
#
#
#
# Elastic Compliance Matrix: (Units=1/GPa)
#
#
# Indices 1 2 3 4 5 6 
#
# 1 0.011011 0.001804 -0.005120 0.000000 0.000000 0.000000
# 2 0.001804 0.025950 -0.010525 0.000000 0.000000 0.000000
# 3 -0.005120 -0.010525 0.018908 0.000000 0.000000 0.000000
# 4 0.000000 0.000000 0.000000 0.025711 0.000000 0.000000
# 5 0.000000 0.000000 0.000000 0.000000 0.031195 0.000000
# 6 0.000000 0.000000 0.000000 0.000000 0.000000 0.040715
#
#
# Mechanical properties :
#
#
# Convention : Reuss Voigt Hill
#
# Bulk Modulus (GPa) = 35.47637 40.49197 37.98417
# Shear Modulus (GPa) = 26.23741 30.17861 28.20801
#
# Velocity S-wave (km/s) = 3.62175 3.88425 3.75529
# Velocity P-wave (km/s) = 5.93510 6.35295 6.14758
#
# Compressibility (1/GPa) = 0.02818778
#
# Stress axis : x y z
#
# Youngs Moduli (GPa) = 90.81497 38.53555 52.88801
#
# Poissons Ratio (x) = -0.06951 0.27076
# Poissons Ratio (y) = -0.16380 0.55664
# Poissons Ratio (z) = 0.46493 0.40558
#
# Static dielectric constant tensor:
#      x y z
#    x 1.705830 0.000000 0.000000 
#    y 0.000000 1.661760 0.000000 
#    z 0.000000 0.000000 1.737190 
# 
# From -- ./inp_files/45398.got.cif
#   From: 2010.05.17/outbox.cif.g08.bks.cpg/sg72_23_cif.got.tgz:45398.got - 2010.06.03 17:03:01.
