data_PCOD9528771
_publ_section_title
;
Structure prediction by ZEFSAII (Michael W. Deem and Ramdas Pophale) SiO2 
 PCOD9528771
Probable space group: I B A M
;
_chemical_formula_sum "Si O2"
_cell_formula_units_Z 48
_cell_length_a 5.721006
_cell_length_b 27.273670
_cell_length_c 14.123278
_cell_angle_alpha 90.000000
_cell_angle_beta 90.000000
_cell_angle_gamma 90.000000
_cell_volume 2203.695031
_symmetry_space_group_name_H-M "I B A M"
_symmetry_group_IT_number 72
_symmetry_cell_setting 'orthorhombic'
loop_
_space_group_symop_operation_xyz
x,y,z
-x,-y,z
x,-y,1/2-z
-x,y,1/2-z
-x,-y,-z
x,y,-z
-x,y,1/2+z
x,-y,1/2+z
1/2+x,1/2+y,1/2+z
1/2-x,1/2-y,1/2+z
1/2+x,1/2-y,-z
1/2-x,1/2+y,-z
1/2-x,1/2-y,1/2-z
1/2+x,1/2+y,1/2-z
1/2-x,1/2+y,z
1/2+x,1/2-y,z
loop_
_atom_site_type_symbol
_atom_site_label
_atom_site_fract_x
_atom_site_fract_y
_atom_site_fract_z
Si Si1 0.500000 0.778342 0.250000
Si Si2 0.340453 0.047355 0.104850
Si Si3 0.000000 0.093260 0.750000
Si Si4 0.840443 0.355967 0.606825
O O1 0.250000 0.750000 0.250000
O O2 0.484786 0.813207 0.157771
O O3 0.163851 0.058292 0.188321
O O4 0.502793 0.095306 0.102595
O O5 0.500000 0.000000 0.120356
O O6 0.228342 0.042497 0.000000
O O7 0.131541 0.128463 0.676052
O O8 0.766842 0.343260 0.500000
#
# Coordination Sequence:
#
# PCOD9528771 Si02
#       4
#     8  16   8  16
#     4  12  27  50  76 110 147 193 258 321 386 458
#     4  10  23  42  68 106 146 190 244 302 373 457
#     4  12  21  43  71 104 146 207 248 309 375 456
#     4  11  25  45  70 107 149 192 248 314 382 456
#
# _framework density 21.781597999999999
#
# number of rings (size 3 to 8) (size 9 to 14) (size 15 to 20)
#    0.000    1.000    3.333    2.000    0.000    6.667 
#    0.000    5.000    0.000    3.000    0.000    0.000 
#    0.000    0.000    0.000    0.000    0.000    0.000 
#
# Total GULP energy -134283.882236 kJ/mol
# GULP energy per Si atom -5595.161760 kJ/mol
# Density = 2.173202 g / cm^3
# Si number density = 21.781598 Si / 1000 Ang^3
#
#
#
# Elastic Constant Matrix: (Units=GPa)
#
#
# Indices 1 2 3 4 5 6 
#
# 1 98.0025 58.4332 91.2580 0.0000 0.0000 0.0000
# 2 58.4332 134.9783 64.3247 0.0000 0.0000 0.0000
# 3 91.2580 64.3247 230.4722 0.0000 0.0000 0.0000
# 4 0.0000 0.0000 0.0000 64.1937 0.0000 0.0000
# 5 0.0000 0.0000 0.0000 0.0000 -170.3522 0.0000
# 6 0.0000 0.0000 0.0000 0.0000 0.0000 26.4343
#
#
#
# Elastic Compliance Matrix: (Units=1/GPa)
#
#
# Indices 1 2 3 4 5 6 
#
# 1 0.019018 -0.005357 -0.006035 0.000000 0.000000 0.000000
# 2 -0.005357 0.010054 -0.000685 0.000000 0.000000 0.000000
# 3 -0.006035 -0.000685 0.006920 0.000000 0.000000 0.000000
# 4 0.000000 0.000000 0.000000 0.015578 0.000000 0.000000
# 5 0.000000 0.000000 0.000000 0.000000 -0.005870 0.000000
# 6 0.000000 0.000000 0.000000 0.000000 0.000000 0.037830
#
#
# Mechanical properties :
#
#
# Convention : Reuss Voigt Hill
#
# Bulk Modulus (GPa) = 84.47702 99.05387 91.76545
# Shear Modulus (GPa) = 44.79151 0.68430 22.73791
#
# Velocity S-wave (km/s) = 4.53967 0.56111 3.23446
# Velocity P-wave (km/s) = 8.14530 6.78192 7.49468
#
# Compressibility (1/GPa) = 0.01183754
#
# Stress axis : x y z
#
# Youngs Moduli (GPa) = 52.58300 99.46254 144.51338
#
# Poissons Ratio (x) = 0.53280 0.87216
# Poissons Ratio (y) = 0.28168 0.09899
# Poissons Ratio (z) = 0.31735 0.06813
#
# Static dielectric constant tensor:
#      x y z
#    x 1.816730 0.000000 0.000000 
#    y 0.000000 1.801530 0.000000 
#    z 0.000000 0.000000 1.829460 
# 
# From -- ./inp_files/17437.got.cif
#   From: 2010.05.17/outbox.cif.g08.bks.cpg/sg72_9_cif.got.tgz:17437.got - 2010.06.03 17:03:01.
