data_PCOD9528829
_publ_section_title
;
Structure prediction by ZEFSAII (Michael W. Deem and Ramdas Pophale) SiO2 
 PCOD9528829
Probable space group: I B A M
;
_chemical_formula_sum "Si O2"
_cell_formula_units_Z 56
_cell_length_a 14.466104
_cell_length_b 8.998435
_cell_length_c 18.465317
_cell_angle_alpha 90.000000
_cell_angle_beta 90.000000
_cell_angle_gamma 90.000000
_cell_volume 2403.672720
_symmetry_space_group_name_H-M "I B A M"
_symmetry_group_IT_number 72
_symmetry_cell_setting 'orthorhombic'
loop_
_space_group_symop_operation_xyz
x,y,z
-x,-y,z
x,-y,1/2-z
-x,y,1/2-z
-x,-y,-z
x,y,-z
-x,y,1/2+z
x,-y,1/2+z
1/2+x,1/2+y,1/2+z
1/2-x,1/2-y,1/2+z
1/2+x,1/2-y,-z
1/2-x,1/2+y,-z
1/2-x,1/2-y,1/2-z
1/2+x,1/2+y,1/2-z
1/2-x,1/2+y,z
1/2+x,1/2-y,z
loop_
_atom_site_type_symbol
_atom_site_label
_atom_site_fract_x
_atom_site_fract_y
_atom_site_fract_z
Si Si1 0.832471 0.543543 0.081756
Si Si2 0.532806 0.742928 0.670966
Si Si3 0.348827 0.500000 0.750000
Si Si4 0.171804 0.781830 0.867603
O O1 0.906193 0.642946 0.125400
O O2 0.812189 0.392830 0.125489
O O3 0.737971 0.636367 0.076919
O O4 0.864587 0.507871 0.000000
O O5 0.500000 0.804301 0.750000
O O6 0.589955 0.595914 0.693217
O O7 0.438931 0.704600 0.628459
O O8 0.300063 0.630399 0.705687
#
# Coordination Sequence:
#
# PCOD9528829 Si02
#       4
#    16  16   8  16
#     4  12  27  44  67 101 140 185 228 276 347 419
#     4  10  23  45  73 103 134 175 230 288 342 400
#     4  10  23  44  72 104 131 176 237 292 342 392
#     4  11  24  43  68  97 137 177 227 284 337 402
#
# _framework density 23.297681999999998
#
# number of rings (size 3 to 8) (size 9 to 14) (size 15 to 20)
#    0.000    1.143    0.000    7.286    0.000   21.714 
#    0.000    1.429    0.000   18.857    0.000    0.000 
#    0.000    0.000    0.000    0.000    0.000    0.000 
#
# Total GULP energy -156402.967459 kJ/mol
# GULP energy per Si atom -5585.820266 kJ/mol
# Density = 2.324466 g / cm^3
# Si number density = 23.297682 Si / 1000 Ang^3
#
#
#
# Elastic Constant Matrix: (Units=GPa)
#
#
# Indices 1 2 3 4 5 6 
#
# 1 83.7090 47.7426 68.5740 0.0000 0.0000 0.0000
# 2 47.7426 203.7111 79.9377 0.0000 0.0000 0.0000
# 3 68.5740 79.9377 116.5530 0.0000 0.0000 0.0000
# 4 0.0000 0.0000 0.0000 2.8513 0.0000 0.0000
# 5 0.0000 0.0000 0.0000 0.0000 5.7361 0.0000
# 6 0.0000 0.0000 0.0000 0.0000 0.0000 37.5783
#
#
#
# Elastic Compliance Matrix: (Units=1/GPa)
#
#
# Indices 1 2 3 4 5 6 
#
# 1 0.023063 -0.000110 -0.013493 0.000000 0.000000 0.000000
# 2 -0.000110 0.006717 -0.004542 0.000000 0.000000 0.000000
# 3 -0.013493 -0.004542 0.019634 0.000000 0.000000 0.000000
# 4 0.000000 0.000000 0.000000 0.350712 0.000000 0.000000
# 5 0.000000 0.000000 0.000000 0.000000 0.174333 0.000000
# 6 0.000000 0.000000 0.000000 0.000000 0.000000 0.026611
#
#
# Mechanical properties :
#
#
# Convention : Reuss Voigt Hill
#
# Bulk Modulus (GPa) = 76.20612 88.49796 82.35204
# Shear Modulus (GPa) = 7.79138 23.08109 15.43624
#
# Velocity S-wave (km/s) = 1.83072 3.15096 2.57683
# Velocity P-wave (km/s) = 6.10323 7.16284 6.65416
#
# Compressibility (1/GPa) = 0.01312231
#
# Stress axis : x y z
#
# Youngs Moduli (GPa) = 43.36013 148.87433 50.93262
#
# Poissons Ratio (x) = 0.01640 0.68725
# Poissons Ratio (y) = 0.00478 0.23134
# Poissons Ratio (z) = 0.58507 0.67620
#
# Static dielectric constant tensor:
#      x y z
#    x 1.927450 0.000000 0.000000 
#    y 0.000000 1.855900 0.000000 
#    z 0.000000 0.000000 1.921210 
# 
# From -- ./inp_files/37638.got.cif
#   From: 2010.05.17/outbox.cif.g08.bks.cpg/sg72_19_cif.got.tgz:37638.got - 2010.06.03 17:03:01.
