data_PCOD9528160
_publ_section_title
;
Structure prediction by ZEFSAII (Michael W. Deem and Ramdas Pophale) SiO2 
 PCOD9528160
Probable space group: I B A M
;
_chemical_formula_sum "Si O2"
_cell_formula_units_Z 64
_cell_length_a 16.618620
_cell_length_b 9.722618
_cell_length_c 15.313793
_cell_angle_alpha 90.000000
_cell_angle_beta 90.000000
_cell_angle_gamma 90.000000
_cell_volume 2474.348982
_symmetry_space_group_name_H-M "I B A M"
_symmetry_group_IT_number 72
_symmetry_cell_setting 'orthorhombic'
loop_
_space_group_symop_operation_xyz
x,y,z
-x,-y,z
x,-y,1/2-z
-x,y,1/2-z
-x,-y,-z
x,y,-z
-x,y,1/2+z
x,-y,1/2+z
1/2+x,1/2+y,1/2+z
1/2-x,1/2-y,1/2+z
1/2+x,1/2-y,-z
1/2-x,1/2+y,-z
1/2-x,1/2-y,1/2-z
1/2+x,1/2+y,1/2-z
1/2-x,1/2+y,z
1/2+x,1/2-y,z
loop_
_atom_site_type_symbol
_atom_site_label
_atom_site_fract_x
_atom_site_fract_y
_atom_site_fract_z
Si Si1 0.423866 0.413457 0.605184
Si Si2 0.519741 0.841039 0.105076
Si Si3 0.688802 0.193009 0.324246
Si Si4 0.740292 0.451854 0.401097
O O1 0.500000 0.500000 0.636941
O O2 0.420878 0.430279 0.500000
O O3 0.442225 0.254630 0.622329
O O4 0.341441 0.478845 0.635696
O O5 0.592963 0.786587 0.165148
O O6 0.500000 0.000000 0.119494
O O7 0.539743 0.823425 0.000000
O O8 0.750000 0.250000 0.250000
O O9 0.726699 0.289926 0.399638
O O10 0.695317 0.030905 0.343403
O O11 0.756466 0.492604 0.500000
#
# Coordination Sequence:
#
# PCOD9528160 Si02
#       4
#    16  16  16  16
#     4   9  17  35  65  97 124 164 227 297 347 400
#     4  10  21  40  71 107 139 178 242 306 357 426
#     4  12  26  44  66 101 149 187 225 295 369 440
#     4  11  23  42  71  99 132 183 242 292 348 432
#
# _framework density 25.865389
#
# number of rings (size 3 to 8) (size 9 to 14) (size 15 to 20)
#    0.000    1.500    2.500    3.000    3.500    0.000 
#    0.000    1.250    0.000    0.000    0.000    0.000 
#    0.000    0.000    0.000    0.000    0.000    0.000 
#
# Total GULP energy -178681.324750 kJ/mol
# GULP energy per Si atom -5583.791398 kJ/mol
# Density = 2.580652 g / cm^3
# Si number density = 25.865389 Si / 1000 Ang^3
#
#
#
# Elastic Constant Matrix: (Units=GPa)
#
#
# Indices 1 2 3 4 5 6 
#
# 1 50.1772 -28.8174 27.6805 0.0000 0.0000 0.0000
# 2 -28.8174 100.6518 12.3518 0.0000 0.0000 0.0000
# 3 27.6805 12.3518 101.0667 0.0000 0.0000 0.0000
# 4 0.0000 0.0000 0.0000 18.3941 0.0000 0.0000
# 5 0.0000 0.0000 0.0000 0.0000 20.4925 0.0000
# 6 0.0000 0.0000 0.0000 0.0000 0.0000 37.9138
#
#
#
# Elastic Compliance Matrix: (Units=1/GPa)
#
#
# Indices 1 2 3 4 5 6 
#
# 1 0.031116 0.010106 -0.009757 0.000000 0.000000 0.000000
# 2 0.010106 0.013369 -0.004402 0.000000 0.000000 0.000000
# 3 -0.009757 -0.004402 0.013105 0.000000 0.000000 0.000000
# 4 0.000000 0.000000 0.000000 0.054365 0.000000 0.000000
# 5 0.000000 0.000000 0.000000 0.000000 0.048798 0.000000
# 6 0.000000 0.000000 0.000000 0.000000 0.000000 0.026376
#
#
# Mechanical properties :
#
#
# Convention : Reuss Voigt Hill
#
# Bulk Modulus (GPa) = 20.20856 30.48061 25.34458
# Shear Modulus (GPa) = 23.61506 31.40548 27.51027
#
# Velocity S-wave (km/s) = 3.02486 3.48830 3.26482
# Velocity P-wave (km/s) = 4.47545 5.29474 4.90224
#
# Compressibility (1/GPa) = 0.04948399
#
# Stress axis : x y z
#
# Youngs Moduli (GPa) = 32.13769 74.80047 76.30805
#
# Poissons Ratio (x) = -0.75595 0.74456
# Poissons Ratio (y) = -0.32479 0.33589
# Poissons Ratio (z) = 0.31358 0.32926
#
# Static dielectric constant tensor:
#      x y z
#    x 2.017220 0.000000 0.000000 
#    y 0.000000 2.054330 0.000000 
#    z 0.000000 0.000000 2.117670 
# 
# From -- ./inp_files/32215.got.cif
#   From: 2010.05.17/outbox.cif.g08.bks.cpg/sg72_17_cif.got.tgz:32215.got - 2010.06.03 17:03:01.
