data_PCOD9528988
_publ_section_title
;
Structure prediction by ZEFSAII (Michael W. Deem and Ramdas Pophale) SiO2 
 PCOD9528988
Probable space group: I B A M
;
_chemical_formula_sum "Si O2"
_cell_formula_units_Z 80
_cell_length_a 13.496084
_cell_length_b 20.026719
_cell_length_c 18.422870
_cell_angle_alpha 90.000000
_cell_angle_beta 90.000000
_cell_angle_gamma 90.000000
_cell_volume 4979.375342
_symmetry_space_group_name_H-M "I B A M"
_symmetry_group_IT_number 72
_symmetry_cell_setting 'orthorhombic'
loop_
_space_group_symop_operation_xyz
x,y,z
-x,-y,z
x,-y,1/2-z
-x,y,1/2-z
-x,-y,-z
x,y,-z
-x,y,1/2+z
x,-y,1/2+z
1/2+x,1/2+y,1/2+z
1/2-x,1/2-y,1/2+z
1/2+x,1/2-y,-z
1/2-x,1/2+y,-z
1/2-x,1/2-y,1/2-z
1/2+x,1/2+y,1/2-z
1/2-x,1/2+y,z
1/2+x,1/2-y,z
loop_
_atom_site_type_symbol
_atom_site_label
_atom_site_fract_x
_atom_site_fract_y
_atom_site_fract_z
Si Si1 0.327921 0.640672 0.583304
Si Si2 0.102405 0.706752 0.915854
Si Si3 0.225667 0.192603 0.190935
Si Si4 0.614287 0.575280 0.227919
Si Si5 0.623056 0.211433 0.915047
O O1 0.339044 0.618518 0.500000
O O2 0.382556 0.712754 0.590520
O O3 0.369054 0.590543 0.642975
O O4 0.211696 0.658436 0.596794
O O5 0.177829 0.677215 0.857502
O O6 0.988657 0.688222 0.901546
O O7 0.126753 0.690168 0.000000
O O8 0.250000 0.250000 0.250000
O O9 0.180952 0.128986 0.230137
O O10 0.147901 0.226147 0.135659
O O11 0.640297 0.500000 0.250000
O O12 0.500000 0.586141 0.250000
O O13 0.629218 0.230632 0.000000
#
# Coordination Sequence:
#
# PCOD9528988 Si02
#       5
#    16  16  16  16  16
#     4   9  17  34  53  74 104 142 176 209 263 318
#     4   9  17  30  51  81 107 130 171 222 266 313
#     4  11  19  30  52  79 104 136 177 219 264 303
#     4  11  23  38  52  77 112 142 174 219 262 311
#     4   9  17  30  52  80 106 133 171 222 271 311
#
# _framework density 16.066272000000001
#
# number of rings (size 3 to 8) (size 9 to 14) (size 15 to 20)
#    0.000    2.200    4.000    3.000    0.000    0.000 
#    0.000    5.000    0.000    2.400    0.000    4.200 
#    0.000    0.000    0.000    0.000    0.000    0.000 
#
# Total GULP energy -222934.213894 kJ/mol
# GULP energy per Si atom -5573.355347 kJ/mol
# Density = 1.602970 g / cm^3
# Si number density = 16.066272 Si / 1000 Ang^3
#
#
#
# Elastic Constant Matrix: (Units=GPa)
#
#
# Indices 1 2 3 4 5 6 
#
# 1 98.5895 39.1944 55.6077 0.0000 0.0000 0.0000
# 2 39.1944 83.0612 55.0407 0.0000 0.0000 0.0000
# 3 55.6077 55.0407 114.9589 0.0000 0.0000 0.0000
# 4 0.0000 0.0000 0.0000 18.2793 0.0000 0.0000
# 5 0.0000 0.0000 0.0000 0.0000 23.7434 0.0000
# 6 0.0000 0.0000 0.0000 0.0000 0.0000 17.1660
#
#
#
# Elastic Compliance Matrix: (Units=1/GPa)
#
#
# Indices 1 2 3 4 5 6 
#
# 1 0.014513 -0.003217 -0.005480 0.000000 0.000000 0.000000
# 2 -0.003217 0.018347 -0.007228 0.000000 0.000000 0.000000
# 3 -0.005480 -0.007228 0.014810 0.000000 0.000000 0.000000
# 4 0.000000 0.000000 0.000000 0.054707 0.000000 0.000000
# 5 0.000000 0.000000 0.000000 0.000000 0.042117 0.000000
# 6 0.000000 0.000000 0.000000 0.000000 0.000000 0.058255
#
#
# Mechanical properties :
#
#
# Convention : Reuss Voigt Hill
#
# Bulk Modulus (GPa) = 63.21098 66.25500 64.73299
# Shear Modulus (GPa) = 20.84444 21.62218 21.23331
#
# Velocity S-wave (km/s) = 3.60586 3.67251 3.63934
# Velocity P-wave (km/s) = 7.53429 7.70138 7.61829
#
# Compressibility (1/GPa) = 0.01582004
#
# Stress axis : x y z
#
# Youngs Moduli (GPa) = 68.90464 54.50446 67.52084
#
# Poissons Ratio (x) = 0.17534 0.37000
# Poissons Ratio (y) = 0.22166 0.48806
# Poissons Ratio (z) = 0.37759 0.39397
#
# Static dielectric constant tensor:
#      x y z
#    x 1.562330 0.000000 0.000000 
#    y 0.000000 1.497960 0.000000 
#    z 0.000000 0.000000 1.558530 
# 
# From -- ./inp_files/30421.got.cif
#   From: 2010.05.17/outbox.cif.g08.bks.cpg/sg72_16_cif.got.tgz:30421.got - 2010.06.03 17:03:01.
