data_PCOD9528302
_publ_section_title
;
Structure prediction by ZEFSAII (Michael W. Deem and Ramdas Pophale) SiO2 
 PCOD9528302
Probable space group: I B A M
;
_chemical_formula_sum "Si O2"
_cell_formula_units_Z 88
_cell_length_a 25.975211
_cell_length_b 14.770902
_cell_length_c 11.323900
_cell_angle_alpha 90.000000
_cell_angle_beta 90.000000
_cell_angle_gamma 90.000000
_cell_volume 4344.723333
_symmetry_space_group_name_H-M "I B A M"
_symmetry_group_IT_number 72
_symmetry_cell_setting 'orthorhombic'
loop_
_space_group_symop_operation_xyz
x,y,z
-x,-y,z
x,-y,1/2-z
-x,y,1/2-z
-x,-y,-z
x,y,-z
-x,y,1/2+z
x,-y,1/2+z
1/2+x,1/2+y,1/2+z
1/2-x,1/2-y,1/2+z
1/2+x,1/2-y,-z
1/2-x,1/2+y,-z
1/2-x,1/2-y,1/2-z
1/2+x,1/2+y,1/2-z
1/2-x,1/2+y,z
1/2+x,1/2-y,z
loop_
_atom_site_type_symbol
_atom_site_label
_atom_site_fract_x
_atom_site_fract_y
_atom_site_fract_z
Si Si1 0.277639 0.184364 0.500000
Si Si2 0.867195 0.666550 0.633363
Si Si3 0.827486 0.081208 0.000000
Si Si4 0.230454 0.605278 0.744572
Si Si5 0.347543 0.348266 0.753656
Si Si6 0.830311 0.119384 0.500000
Si Si7 0.523063 0.100869 0.368600
O O1 0.216769 0.158826 0.500000
O O2 0.294865 0.135358 0.379594
O O3 0.295696 0.288671 0.500000
O O4 0.869486 0.701321 0.500000
O O5 0.811683 0.624156 0.656832
O O6 0.871450 0.751367 0.719783
O O7 0.915273 0.599978 0.647403
O O8 0.855692 0.093937 0.873870
O O9 0.803375 0.979777 0.000000
O O10 0.243879 0.500000 0.750000
O O11 0.284670 0.656981 0.755658
O O12 0.361934 0.379608 0.622581
O O13 0.500000 0.145514 0.250000
O O14 0.512726 0.141224 0.500000
O O15 0.500000 0.000000 0.372292
#
# Coordination Sequence:
#
# PCOD9528302 Si02
#       7
#     8  16   8  16  16   8  16
#     4  10  22  38  50  78 115 164 224 270 304 370
#     4  11  23  38  61  86 120 171 209 260 325 385
#     4  10  22  38  56  78 117 174 216 269 325 367
#     4  11  24  36  53  84 125 173 219 266 309 374
#     4  11  22  39  54  82 124 164 219 265 305 384
#     4  12  22  36  58  80 117 166 220 272 315 352
#     4   9  20  41  64  88 118 155 204 267 327 385
#
# _framework density 20.254453999999999
#
# number of rings (size 3 to 8) (size 9 to 14) (size 15 to 20)
#    0.000    1.455    2.727    3.273    7.636    0.000 
#    3.273    0.000    0.000    0.000    0.000    0.000 
#    0.000    8.000    0.000    0.000    0.000    0.000 
#
# Total GULP energy -245123.594140 kJ/mol
# GULP energy per Si atom -5570.990776 kJ/mol
# Density = 2.020835 g / cm^3
# Si number density = 20.254454 Si / 1000 Ang^3
#
#
#
# Elastic Constant Matrix: (Units=GPa)
#
#
# Indices 1 2 3 4 5 6 
#
# 1 54.2138 19.1836 16.5255 0.0000 0.0000 0.0000
# 2 19.1836 95.9715 15.9180 0.0000 0.0000 0.0000
# 3 16.5255 15.9180 187.4430 0.0000 0.0000 0.0000
# 4 0.0000 0.0000 0.0000 13.7217 0.0000 0.0000
# 5 0.0000 0.0000 0.0000 0.0000 19.6392 0.0000
# 6 0.0000 0.0000 0.0000 0.0000 0.0000 25.1806
#
#
#
# Elastic Compliance Matrix: (Units=1/GPa)
#
#
# Indices 1 2 3 4 5 6 
#
# 1 0.020236 -0.003803 -0.001461 0.000000 0.000000 0.000000
# 2 -0.003803 0.011283 -0.000623 0.000000 0.000000 0.000000
# 3 -0.001461 -0.000623 0.005517 0.000000 0.000000 0.000000
# 4 0.000000 0.000000 0.000000 0.072878 0.000000 0.000000
# 5 0.000000 0.000000 0.000000 0.000000 0.050919 0.000000
# 6 0.000000 0.000000 0.000000 0.000000 0.000000 0.039713
#
#
# Mechanical properties :
#
#
# Convention : Reuss Voigt Hill
#
# Bulk Modulus (GPa) = 39.58397 48.98695 44.28546
# Shear Modulus (GPa) = 22.65107 30.77503 26.71305
#
# Velocity S-wave (km/s) = 3.34777 3.90220 3.63557
# Velocity P-wave (km/s) = 5.87615 6.67392 6.28770
#
# Compressibility (1/GPa) = 0.02526275
#
# Stress axis : x y z
#
# Youngs Moduli (GPa) = 49.41578 88.62743 181.26851
#
# Poissons Ratio (x) = 0.33702 0.26486
# Poissons Ratio (y) = 0.18791 0.11292
# Poissons Ratio (z) = 0.07221 0.05521
#
# Static dielectric constant tensor:
#      x y z
#    x 1.687850 0.000000 0.000000 
#    y 0.000000 1.741400 0.000000 
#    z 0.000000 0.000000 1.856470 
# 
# From -- ./inp_files/12883.got.cif
#   From: 2010.05.17/outbox.cif.g08.bks.cpg/sg72_7_cif.got.tgz:12883.got - 2010.06.03 17:03:01.
