data_PCOD9528470
_publ_section_title
;
Structure prediction by ZEFSAII (Michael W. Deem and Ramdas Pophale) SiO2 
 PCOD9528470
Probable space group: I B A M
;
_chemical_formula_sum "Si O2"
_cell_formula_units_Z 112
_cell_length_a 28.278116
_cell_length_b 11.048140
_cell_length_c 17.984529
_cell_angle_alpha 90.000000
_cell_angle_beta 90.000000
_cell_angle_gamma 90.000000
_cell_volume 5618.737062
_symmetry_space_group_name_H-M "I B A M"
_symmetry_group_IT_number 72
_symmetry_cell_setting 'orthorhombic'
loop_
_space_group_symop_operation_xyz
x,y,z
-x,-y,z
x,-y,1/2-z
-x,y,1/2-z
-x,-y,-z
x,y,-z
-x,y,1/2+z
x,-y,1/2+z
1/2+x,1/2+y,1/2+z
1/2-x,1/2-y,1/2+z
1/2+x,1/2-y,-z
1/2-x,1/2+y,-z
1/2-x,1/2-y,1/2-z
1/2+x,1/2+y,1/2-z
1/2-x,1/2+y,z
1/2+x,1/2-y,z
loop_
_atom_site_type_symbol
_atom_site_label
_atom_site_fract_x
_atom_site_fract_y
_atom_site_fract_z
Si Si1 0.423469 0.684148 0.912245
Si Si2 0.886212 0.932958 0.410418
Si Si3 0.547847 0.061268 0.329952
Si Si4 0.300248 0.121984 0.297862
Si Si5 0.123500 0.570562 0.588390
Si Si6 0.979893 0.162035 0.170392
Si Si7 0.688016 0.368922 0.709915
O O1 0.385443 0.578540 0.899011
O O2 0.406866 0.813692 0.883988
O O3 0.474506 0.653552 0.881263
O O4 0.428041 0.694777 0.000000
O O5 0.886556 0.908927 0.500000
O O6 0.935335 0.898433 0.369835
O O7 0.844404 0.870661 0.363794
O O8 0.536300 0.200233 0.319113
O O9 0.500000 0.000000 0.362554
O O10 0.556217 0.000000 0.250000
O O11 0.593641 0.041543 0.380490
O O12 0.326181 0.093132 0.374761
O O13 0.319470 0.246153 0.259047
O O14 0.243958 0.134660 0.307585
O O15 0.308992 0.000000 0.250000
O O16 0.126013 0.567171 0.500000
O O17 0.000000 0.121651 0.250000
O O18 0.678947 0.500000 0.750000
#
# Coordination Sequence:
#
# PCOD9528470 Si02
#       7
#    16  16  16  16  16  16  16
#     4  10  22  41  58  83 126 168 204 253 311 371
#     4  11  26  42  62  92 128 164 209 268 319 373
#     4  11  21  39  58  84 122 165 209 257 308 366
#     4  10  23  43  67  97 129 160 210 278 326 377
#     4  11  23  37  63  93 124 167 208 254 320 388
#     4  12  24  37  60  91 122 168 213 254 305 376
#     4  10  23  44  71  94 122 171 217 259 326 398
#
# _framework density 19.933305000000001
#
# number of rings (size 3 to 8) (size 9 to 14) (size 15 to 20)
#    0.000    1.286    2.857    2.143    8.000    3.714 
#    0.000    0.000    0.000    5.143    0.000    0.000 
#    0.000    0.000    0.000    0.000    0.000    0.000 
#
# Total GULP energy -312554.480069 kJ/mol
# GULP energy per Si atom -5581.330001 kJ/mol
# Density = 1.988794 g / cm^3
# Si number density = 19.933305 Si / 1000 Ang^3
#
#
#
# Elastic Constant Matrix: (Units=GPa)
#
#
# Indices 1 2 3 4 5 6 
#
# 1 72.5313 27.3851 64.8409 0.0000 0.0000 0.0000
# 2 27.3851 117.5162 45.7193 0.0000 0.0000 0.0000
# 3 64.8409 45.7193 92.6075 0.0000 0.0000 0.0000
# 4 0.0000 0.0000 0.0000 26.2690 0.0000 0.0000
# 5 0.0000 0.0000 0.0000 0.0000 26.6641 0.0000
# 6 0.0000 0.0000 0.0000 0.0000 0.0000 22.6709
#
#
#
# Elastic Compliance Matrix: (Units=1/GPa)
#
#
# Indices 1 2 3 4 5 6 
#
# 1 0.037166 0.001811 -0.026917 0.000000 0.000000 0.000000
# 2 0.001811 0.010621 -0.006511 0.000000 0.000000 0.000000
# 3 -0.026917 -0.006511 0.032859 0.000000 0.000000 0.000000
# 4 0.000000 0.000000 0.000000 0.038068 0.000000 0.000000
# 5 0.000000 0.000000 0.000000 0.000000 0.037504 0.000000
# 6 0.000000 0.000000 0.000000 0.000000 0.000000 0.044109
#
#
# Mechanical properties :
#
#
# Convention : Reuss Voigt Hill
#
# Bulk Modulus (GPa) = 57.43211 62.06062 59.74637
# Shear Modulus (GPa) = 18.56224 24.76811 21.66518
#
# Velocity S-wave (km/s) = 3.05490 3.52881 3.30037
# Velocity P-wave (km/s) = 6.42790 6.91412 6.67544
#
# Compressibility (1/GPa) = 0.01741186
#
# Stress axis : x y z
#
# Youngs Moduli (GPa) = 26.90627 94.15634 30.43316
#
# Poissons Ratio (x) = -0.17051 0.81916
# Poissons Ratio (y) = -0.04872 0.19816
# Poissons Ratio (z) = 0.72422 0.61307
#
# Static dielectric constant tensor:
#      x y z
#    x 1.669410 0.000000 0.000000 
#    y 0.000000 1.825220 0.000000 
#    z 0.000000 0.000000 1.542100 
# 
# From -- ./inp_files/26421.got.cif
#   From: 2010.05.17/outbox.cif.g08.bks.cpg/sg72_14_cif.got.tgz:26421.got - 2010.06.03 17:03:01.
