data_PCOD9528752
_publ_section_title
;
Structure prediction by ZEFSAII (Michael W. Deem and Ramdas Pophale) SiO2 
 PCOD9528752
Probable space group: I B A M
;
_chemical_formula_sum "Si O2"
_cell_formula_units_Z 60
_cell_length_a 10.198991
_cell_length_b 11.504816
_cell_length_c 25.524362
_cell_angle_alpha 90.000000
_cell_angle_beta 90.000000
_cell_angle_gamma 90.000000
_cell_volume 2994.965205
_symmetry_space_group_name_H-M "I B A M"
_symmetry_group_IT_number 72
_symmetry_cell_setting 'orthorhombic'
loop_
_space_group_symop_operation_xyz
x,y,z
-x,-y,z
x,-y,1/2-z
-x,y,1/2-z
-x,-y,-z
x,y,-z
-x,y,1/2+z
x,-y,1/2+z
1/2+x,1/2+y,1/2+z
1/2-x,1/2-y,1/2+z
1/2+x,1/2-y,-z
1/2-x,1/2+y,-z
1/2-x,1/2-y,1/2-z
1/2+x,1/2+y,1/2-z
1/2-x,1/2+y,z
1/2+x,1/2-y,z
loop_
_atom_site_type_symbol
_atom_site_label
_atom_site_fract_x
_atom_site_fract_y
_atom_site_fract_z
Si Si1 0.292987 0.052453 0.557753
Si Si2 0.620076 0.737419 0.378716
Si Si3 0.000000 0.000000 0.582001
Si Si4 0.128840 0.619926 0.845367
Si Si5 0.500000 0.000000 0.750000
O O1 0.343482 0.019017 0.500000
O O2 0.331848 0.185093 0.571838
O O3 0.135150 0.041677 0.555585
O O4 0.342312 0.968744 0.605530
O O5 0.551865 0.614160 0.388802
O O6 0.749923 0.708964 0.345811
O O7 0.507059 0.814886 0.354647
O O8 0.101202 0.561371 0.790015
#
# Coordination Sequence:
#
# PCOD9528752 Si02
#       5
#    16  16   8  16   4
#     4  11  23  42  70 101 139 183 228 287 354 416
#     4  11  22  45  67 100 136 177 228 285 342 413
#     4  10  23  42  64 103 146 173 222 284 347 430
#     4  11  25  44  71  99 135 179 233 283 344 415
#     4  12  24  48  70 100 136 184 236 292 350 396
#
# _framework density 20.033622000000001
#
# number of rings (size 3 to 8) (size 9 to 14) (size 15 to 20)
#    0.000    1.067    5.333    0.400    0.000    8.533 
#    0.000    0.000    0.000    8.800    0.000    0.000 
#    0.000    0.000    0.000    0.000    0.000    0.000 
#
# Total GULP energy -167011.486294 kJ/mol
# GULP energy per Si atom -5567.049543 kJ/mol
# Density = 1.998802 g / cm^3
# Si number density = 20.033622 Si / 1000 Ang^3
#
#
#
# Elastic Constant Matrix: (Units=GPa)
#
#
# Indices 1 2 3 4 5 6 
#
# 1 162.6182 47.6927 71.1936 0.0000 0.0000 0.0000
# 2 47.6927 87.4380 51.3224 0.0000 0.0000 0.0000
# 3 71.1936 51.3224 144.2598 0.0000 0.0000 0.0000
# 4 0.0000 0.0000 0.0000 -4.6540 0.0000 0.0000
# 5 0.0000 0.0000 0.0000 0.0000 88.5586 0.0000
# 6 0.0000 0.0000 0.0000 0.0000 0.0000 54.5963
#
#
#
# Elastic Compliance Matrix: (Units=1/GPa)
#
#
# Indices 1 2 3 4 5 6 
#
# 1 0.008316 -0.002688 -0.003147 0.000000 0.000000 0.000000
# 2 -0.002688 0.015324 -0.004125 0.000000 0.000000 0.000000
# 3 -0.003147 -0.004125 0.009953 0.000000 0.000000 0.000000
# 4 0.000000 0.000000 0.000000 -0.214869 0.000000 0.000000
# 5 0.000000 0.000000 0.000000 0.000000 0.011292 0.000000
# 6 0.000000 0.000000 0.000000 0.000000 0.000000 0.018316
#
#
# Mechanical properties :
#
#
# Convention : Reuss Voigt Hill
#
# Bulk Modulus (GPa) = 73.14766 81.63706 77.39236
# Shear Modulus (GPa) = -39.31148 42.64067 1.66459
#
# Velocity S-wave (km/s) = -4.43456 4.61852 0.91253
# Velocity P-wave (km/s) = 3.22044 8.32343 6.31073
#
# Compressibility (1/GPa) = 0.01367098
#
# Stress axis : x y z
#
# Youngs Moduli (GPa) = 120.25329 65.25589 100.47408
#
# Poissons Ratio (x) = 0.17543 0.31624
# Poissons Ratio (y) = 0.32328 0.41447
# Poissons Ratio (z) = 0.37850 0.26919
#
# Static dielectric constant tensor:
#      x y z
#    x 1.671040 0.000000 0.000000 
#    y 0.000000 1.755550 0.000000 
#    z 0.000000 0.000000 1.750090 
# 
# From -- ./inp_files/36511.got.cif
#   From: 2010.05.17/outbox.cif.g08.bks.cpg/sg72_19_cif.got.tgz:36511.got - 2010.06.03 17:03:01.
