data_PCOD9528261
_publ_section_title
;
Structure prediction by ZEFSAII (Michael W. Deem and Ramdas Pophale) SiO2 
 PCOD9528261
Probable space group: I B A M
;
_chemical_formula_sum "Si O2"
_cell_formula_units_Z 96
_cell_length_a 21.645508
_cell_length_b 9.991209
_cell_length_c 25.307282
_cell_angle_alpha 90.000000
_cell_angle_beta 90.000000
_cell_angle_gamma 90.000000
_cell_volume 5473.074137
_symmetry_space_group_name_H-M "I B A M"
_symmetry_group_IT_number 72
_symmetry_cell_setting 'orthorhombic'
loop_
_space_group_symop_operation_xyz
x,y,z
-x,-y,z
x,-y,1/2-z
-x,y,1/2-z
-x,-y,-z
x,y,-z
-x,y,1/2+z
x,-y,1/2+z
1/2+x,1/2+y,1/2+z
1/2-x,1/2-y,1/2+z
1/2+x,1/2-y,-z
1/2-x,1/2+y,-z
1/2-x,1/2-y,1/2-z
1/2+x,1/2+y,1/2-z
1/2-x,1/2+y,z
1/2+x,1/2-y,z
loop_
_atom_site_type_symbol
_atom_site_label
_atom_site_fract_x
_atom_site_fract_y
_atom_site_fract_z
Si Si1 0.692036 0.912516 0.062654
Si Si2 0.242649 0.153750 0.623525
Si Si3 0.068236 0.483094 0.619182
Si Si4 0.132320 0.721400 0.679250
Si Si5 0.867265 0.024049 0.190090
Si Si6 0.063000 0.721382 0.216776
O O1 0.719706 0.781760 0.090971
O O2 0.620725 0.929518 0.080131
O O3 0.728067 0.041345 0.085555
O O4 0.698096 0.903821 0.000000
O O5 0.296654 0.198082 0.663888
O O6 0.185659 0.089873 0.654964
O O7 0.092234 0.623300 0.642957
O O8 0.063164 0.382705 0.669151
O O9 0.000000 0.500000 0.595934
O O10 0.116588 0.690465 0.740330
O O11 0.115453 0.876674 0.670075
O O12 0.922868 0.129906 0.195365
O O13 0.843783 0.000000 0.250000
O O14 0.000000 0.715824 0.250000
#
# Coordination Sequence:
#
# PCOD9528261 Si02
#       6
#    16  16  16  16  16  16
#     4  11  24  41  66  88 113 158 208 261 308 349
#     4  11  21  41  60  88 122 154 201 252 307 359
#     4  11  22  39  61  89 120 157 201 251 300 354
#     4  10  22  34  57  86 123 158 195 238 290 367
#     4  10  22  36  55  89 125 160 192 236 295 363
#     4  11  21  37  57  86 122 165 201 231 292 366
#
# _framework density 17.540416
#
# number of rings (size 3 to 8) (size 9 to 14) (size 15 to 20)
#    0.000    1.333    5.000    1.000    0.000    8.667 
#    0.000    0.000    0.000    0.000    0.000    1.167 
#    0.000    0.000    0.000    0.000    0.000    0.000 
#
# Total GULP energy -268065.956873 kJ/mol
# GULP energy per Si atom -5584.707435 kJ/mol
# Density = 1.750049 g / cm^3
# Si number density = 17.540416 Si / 1000 Ang^3
#
#
#
# Elastic Constant Matrix: (Units=GPa)
#
#
# Indices 1 2 3 4 5 6 
#
# 1 81.8731 40.8949 39.2552 0.0000 0.0000 0.0000
# 2 40.8949 116.2118 35.1709 0.0000 0.0000 0.0000
# 3 39.2552 35.1709 66.7464 0.0000 0.0000 0.0000
# 4 0.0000 0.0000 0.0000 13.4093 0.0000 0.0000
# 5 0.0000 0.0000 0.0000 0.0000 17.7427 0.0000
# 6 0.0000 0.0000 0.0000 0.0000 0.0000 21.8737
#
#
#
# Elastic Compliance Matrix: (Units=1/GPa)
#
#
# Indices 1 2 3 4 5 6 
#
# 1 0.018313 -0.003789 -0.008774 0.000000 0.000000 0.000000
# 2 -0.003789 0.011022 -0.003579 0.000000 0.000000 0.000000
# 3 -0.008774 -0.003579 0.022028 0.000000 0.000000 0.000000
# 4 0.000000 0.000000 0.000000 0.074575 0.000000 0.000000
# 5 0.000000 0.000000 0.000000 0.000000 0.056361 0.000000
# 6 0.000000 0.000000 0.000000 0.000000 0.000000 0.045717
#
#
# Mechanical properties :
#
#
# Convention : Reuss Voigt Hill
#
# Bulk Modulus (GPa) = 52.41426 55.05259 53.73343
# Shear Modulus (GPa) = 18.75039 20.57248 19.66144
#
# Velocity S-wave (km/s) = 3.27308 3.42842 3.35165
# Velocity P-wave (km/s) = 6.65063 6.86487 6.75860
#
# Compressibility (1/GPa) = 0.01907878
#
# Stress axis : x y z
#
# Youngs Moduli (GPa) = 54.60459 90.73109 45.39614
#
# Poissons Ratio (x) = 0.34379 0.39831
# Poissons Ratio (y) = 0.20690 0.16248
# Poissons Ratio (z) = 0.47910 0.32474
#
# Static dielectric constant tensor:
#      x y z
#    x 1.603760 0.000000 0.000000 
#    y 0.000000 1.608390 0.000000 
#    z 0.000000 0.000000 1.562380 
# 
# From -- ./inp_files/42442.got.cif
#   From: 2010.05.17/outbox.cif.g08.bks.cpg/sg72_22_cif.got.tgz:42442.got - 2010.06.03 17:03:01.
