data_PCOD9528759
_publ_section_title
;
Structure prediction by ZEFSAII (Michael W. Deem and Ramdas Pophale) SiO2 
 PCOD9528759
Probable space group: I B A M
;
_chemical_formula_sum "Si O2"
_cell_formula_units_Z 44
_cell_length_a 28.859272
_cell_length_b 4.896421
_cell_length_c 13.696312
_cell_angle_alpha 90.000000
_cell_angle_beta 90.000000
_cell_angle_gamma 90.000000
_cell_volume 1935.386752
_symmetry_space_group_name_H-M "I B A M"
_symmetry_group_IT_number 72
_symmetry_cell_setting 'orthorhombic'
loop_
_space_group_symop_operation_xyz
x,y,z
-x,-y,z
x,-y,1/2-z
-x,y,1/2-z
-x,-y,-z
x,y,-z
-x,y,1/2+z
x,-y,1/2+z
1/2+x,1/2+y,1/2+z
1/2-x,1/2-y,1/2+z
1/2+x,1/2-y,-z
1/2-x,1/2+y,-z
1/2-x,1/2-y,1/2-z
1/2+x,1/2+y,1/2-z
1/2-x,1/2+y,z
1/2+x,1/2-y,z
loop_
_atom_site_type_symbol
_atom_site_label
_atom_site_fract_x
_atom_site_fract_y
_atom_site_fract_z
Si Si1 0.285464 0.000000 0.250000
Si Si2 0.566146 0.641788 0.112550
Si Si3 0.500000 0.000000 0.250000
Si Si4 0.368630 0.155193 0.390071
O O1 0.250000 0.750000 0.250000
O O2 0.321843 0.898888 0.167600
O O3 0.592128 0.366604 0.148394
O O4 0.527894 0.792168 0.178532
O O5 0.606577 0.864889 0.107844
O O6 0.550014 0.595375 0.000000
O O7 0.358261 0.250163 0.500000
#
# Coordination Sequence:
#
# PCOD9528759 Si02
#       4
#     8  16   4  16
#     4  12  25  40  68 105 130 161 222 280 331 406
#     4  10  23  42  65  94 132 180 228 273 338 414
#     4  12  24  38  68 104 136 174 234 310 342 384
#     4  10  23  45  66  90 134 181 217 269 342 412
#
# _framework density 22.734473999999999
#
# number of rings (size 3 to 8) (size 9 to 14) (size 15 to 20)
#    0.000    1.455    0.000    3.818    0.000    8.727 
#    0.000    5.455    0.000    2.182    0.000    0.000 
#    0.000    0.000    0.000    0.000    0.000    0.000 
#
# Total GULP energy -122839.106090 kJ/mol
# GULP energy per Si atom -5583.595731 kJ/mol
# Density = 2.268273 g / cm^3
# Si number density = 22.734474 Si / 1000 Ang^3
#
#
#
# Elastic Constant Matrix: (Units=GPa)
#
#
# Indices 1 2 3 4 5 6 
#
# 1 170.9509 45.0445 75.7264 0.0000 0.0000 0.0000
# 2 45.0445 151.0287 13.3508 0.0000 0.0000 0.0000
# 3 75.7264 13.3508 121.4926 0.0000 0.0000 0.0000
# 4 0.0000 0.0000 0.0000 27.2984 0.0000 0.0000
# 5 0.0000 0.0000 0.0000 0.0000 3.3956 0.0000
# 6 0.0000 0.0000 0.0000 0.0000 0.0000 35.0109
#
#
#
# Elastic Compliance Matrix: (Units=1/GPa)
#
#
# Indices 1 2 3 4 5 6 
#
# 1 0.008716 -0.002140 -0.005197 0.000000 0.000000 0.000000
# 2 -0.002140 0.007212 0.000541 0.000000 0.000000 0.000000
# 3 -0.005197 0.000541 0.011411 0.000000 0.000000 0.000000
# 4 0.000000 0.000000 0.000000 0.036632 0.000000 0.000000
# 5 0.000000 0.000000 0.000000 0.000000 0.294503 0.000000
# 6 0.000000 0.000000 0.000000 0.000000 0.000000 0.028563
#
#
# Mechanical properties :
#
#
# Convention : Reuss Voigt Hill
#
# Bulk Modulus (GPa) = 72.74639 79.07953 75.91296
# Shear Modulus (GPa) = 12.33927 33.76434 23.05181
#
# Velocity S-wave (km/s) = 2.33224 3.85796 3.18773
# Velocity P-wave (km/s) = 6.27058 7.39626 6.85656
#
# Compressibility (1/GPa) = 0.01374639
#
# Stress axis : x y z
#
# Youngs Moduli (GPa) = 114.73368 138.66411 87.63464
#
# Poissons Ratio (x) = 0.29675 0.45547
# Poissons Ratio (y) = 0.24554 -0.04745
# Poissons Ratio (z) = 0.59632 -0.07507
#
# Static dielectric constant tensor:
#      x y z
#    x 1.919480 0.000000 0.000000 
#    y 0.000000 1.867200 0.000000 
#    z 0.000000 0.000000 2.009240 
# 
# From -- ./inp_files/17369.got.cif
#   From: 2010.05.17/outbox.cif.g08.bks.cpg/sg72_9_cif.got.tgz:17369.got - 2010.06.03 17:03:01.
