data_PCOD9528665
_publ_section_title
;
Structure prediction by ZEFSAII (Michael W. Deem and Ramdas Pophale) SiO2 
 PCOD9528665
Probable space group: I B A M
;
_chemical_formula_sum "Si O2"
_cell_formula_units_Z 116
_cell_length_a 12.397785
_cell_length_b 18.611525
_cell_length_c 23.533266
_cell_angle_alpha 90.000000
_cell_angle_beta 90.000000
_cell_angle_gamma 90.000000
_cell_volume 5430.105462
_symmetry_space_group_name_H-M "I B A M"
_symmetry_group_IT_number 72
_symmetry_cell_setting 'orthorhombic'
loop_
_space_group_symop_operation_xyz
x,y,z
-x,-y,z
x,-y,1/2-z
-x,y,1/2-z
-x,-y,-z
x,y,-z
-x,y,1/2+z
x,-y,1/2+z
1/2+x,1/2+y,1/2+z
1/2-x,1/2-y,1/2+z
1/2+x,1/2-y,-z
1/2-x,1/2+y,-z
1/2-x,1/2-y,1/2-z
1/2+x,1/2+y,1/2-z
1/2-x,1/2+y,z
1/2+x,1/2-y,z
loop_
_atom_site_type_symbol
_atom_site_label
_atom_site_fract_x
_atom_site_fract_y
_atom_site_fract_z
Si Si1 0.609103 0.080426 0.772001
Si Si2 0.310694 0.675944 0.747404
Si Si3 0.454682 0.188324 0.564450
Si Si4 0.097918 0.903558 0.152107
Si Si5 0.823016 0.392312 0.932278
Si Si6 0.890990 0.167424 0.628322
Si Si7 0.323938 0.057825 0.398321
Si Si8 0.000000 0.000000 0.250000
O O1 0.500000 0.117155 0.750000
O O2 0.716403 0.117280 0.750099
O O3 0.614818 0.074087 0.839339
O O4 0.609867 0.000000 0.750000
O O5 0.250000 0.750000 0.750000
O O6 0.365451 0.667807 0.685970
O O7 0.382923 0.668369 0.803114
O O8 0.464774 0.216583 0.500000
O O9 0.570308 0.154325 0.581362
O O10 0.415744 0.253326 0.604284
O O11 0.369916 0.122261 0.563867
O O12 0.197108 0.932719 0.115640
O O13 0.072080 0.954761 0.206011
O O14 0.991347 0.885879 0.116736
O O15 0.719654 0.363097 0.897942
O O16 0.843516 0.476594 0.918532
O O17 0.803580 0.385967 0.000000
#
# Coordination Sequence:
#
# PCOD9528665 Si02
#       8
#    16  16  16  16  16  16  16   4
#     4  10  23  37  60  98 134 173 219 271 332 402
#     4  11  24  40  62  96 138 176 218 269 329 407
#     4  11  27  47  71  98 136 180 232 295 354 407
#     4  11  25  42  67 103 138 184 220 271 337 415
#     4  11  26  47  72  99 132 178 237 291 345 410
#     4  12  24  45  70  99 137 183 228 277 351 402
#     4  11  24  43  71 102 136 182 230 285 351 403
#     4  12  20  44  64  92 148 184 226 260 332 406
#
# _framework density 21.362383999999999
#
# number of rings (size 3 to 8) (size 9 to 14) (size 15 to 20)
#    0.000    0.966    1.379    4.552   13.517    2.207 
#    0.000    2.759    0.000    0.000    0.000    0.000 
#    0.000    0.000    0.000    0.000    0.000    0.000 
#
# Total GULP energy -324285.759656 kJ/mol
# GULP energy per Si atom -5591.133787 kJ/mol
# Density = 2.131376 g / cm^3
# Si number density = 21.362384 Si / 1000 Ang^3
#
#
#
# Elastic Constant Matrix: (Units=GPa)
#
#
# Indices 1 2 3 4 5 6 
#
# 1 115.5956 22.6122 19.4368 0.0000 0.0000 0.0000
# 2 22.6122 81.1193 14.7097 0.0000 0.0000 0.0000
# 3 19.4368 14.7097 60.0390 0.0000 0.0000 0.0000
# 4 0.0000 0.0000 0.0000 28.8200 0.0000 0.0000
# 5 0.0000 0.0000 0.0000 0.0000 30.0327 0.0000
# 6 0.0000 0.0000 0.0000 0.0000 0.0000 34.9732
#
#
#
# Elastic Compliance Matrix: (Units=1/GPa)
#
#
# Indices 1 2 3 4 5 6 
#
# 1 0.009506 -0.002189 -0.002541 0.000000 0.000000 0.000000
# 2 -0.002189 0.013405 -0.002575 0.000000 0.000000 0.000000
# 3 -0.002541 -0.002575 0.018110 0.000000 0.000000 0.000000
# 4 0.000000 0.000000 0.000000 0.034698 0.000000 0.000000
# 5 0.000000 0.000000 0.000000 0.000000 0.033297 0.000000
# 6 0.000000 0.000000 0.000000 0.000000 0.000000 0.028593
#
#
# Mechanical properties :
#
#
# Convention : Reuss Voigt Hill
#
# Bulk Modulus (GPa) = 37.86587 41.14125 39.50356
# Shear Modulus (GPa) = 31.05130 32.09819 31.57475
#
# Velocity S-wave (km/s) = 3.81668 3.88049 3.84872
# Velocity P-wave (km/s) = 6.09809 6.27520 6.18728
#
# Compressibility (1/GPa) = 0.02640901
#
# Stress axis : x y z
#
# Youngs Moduli (GPa) = 105.19263 74.60036 55.21950
#
# Poissons Ratio (x) = 0.16331 0.14033
# Poissons Ratio (y) = 0.23028 0.14222
# Poissons Ratio (z) = 0.26732 0.19213
#
# Static dielectric constant tensor:
#      x y z
#    x 2.568030 0.000000 0.000000 
#    y 0.000000 1.804950 0.000000 
#    z 0.000000 0.000000 1.788550 
# 
# From -- ./inp_files/44539.got.cif
#   From: 2010.05.17/outbox.cif.g08.bks.cpg/sg72_23_cif.got.tgz:44539.got - 2010.06.03 17:03:01.
