data_PCOD9528021
_publ_section_title
;
Structure prediction by ZEFSAII (Michael W. Deem and Ramdas Pophale) SiO2 
 PCOD9528021
Probable space group: I B A M
;
_chemical_formula_sum "Si O2"
_cell_formula_units_Z 104
_cell_length_a 28.105111
_cell_length_b 21.243844
_cell_length_c 9.198036
_cell_angle_alpha 90.000000
_cell_angle_beta 90.000000
_cell_angle_gamma 90.000000
_cell_volume 5491.784835
_symmetry_space_group_name_H-M "I B A M"
_symmetry_group_IT_number 72
_symmetry_cell_setting 'orthorhombic'
loop_
_space_group_symop_operation_xyz
x,y,z
-x,-y,z
x,-y,1/2-z
-x,y,1/2-z
-x,-y,-z
x,y,-z
-x,y,1/2+z
x,-y,1/2+z
1/2+x,1/2+y,1/2+z
1/2-x,1/2-y,1/2+z
1/2+x,1/2-y,-z
1/2-x,1/2+y,-z
1/2-x,1/2-y,1/2-z
1/2+x,1/2+y,1/2-z
1/2-x,1/2+y,z
1/2+x,1/2-y,z
loop_
_atom_site_type_symbol
_atom_site_label
_atom_site_fract_x
_atom_site_fract_y
_atom_site_fract_z
Si Si1 0.872522 0.500000 0.750000
Si Si2 0.950680 0.397580 0.168535
Si Si3 0.792545 0.593366 0.835076
Si Si4 0.449449 0.245131 0.175691
Si Si5 0.306242 0.563404 0.174280
Si Si6 0.707062 0.216844 0.665230
Si Si7 0.134449 0.831168 0.166225
O O1 0.908815 0.448548 0.815754
O O2 0.834749 0.542458 0.838723
O O3 0.934363 0.326970 0.214308
O O4 0.000000 0.413962 0.250000
O O5 0.963493 0.393835 0.000000
O O6 0.746701 0.573038 0.740909
O O7 0.809423 0.656568 0.755561
O O8 0.776575 0.606341 0.000000
O O9 0.500000 0.253396 0.250000
O O10 0.414943 0.301866 0.220237
O O11 0.451814 0.247538 0.000000
O O12 0.324635 0.500000 0.250000
O O13 0.339405 0.620072 0.229268
O O14 0.304153 0.558814 0.000000
O O15 0.720860 0.198601 0.500000
O O16 0.750000 0.250000 0.750000
O O17 0.666854 0.269085 0.656404
O O18 0.130325 0.856464 0.000000
#
# Coordination Sequence:
#
# PCOD9528021 Si02
#       7
#     8  16  16  16  16  16  16
#     4  12  25  38  60  84 120 168 219 260 306 360
#     4  10  22  41  62  87 119 160 208 258 312 365
#     4  12  25  39  57  83 119 161 209 259 306 362
#     4   9  19  38  64  92 122 156 196 251 307 365
#     4  12  25  41  62  86 119 160 201 245 298 363
#     4  11  22  37  59  85 117 156 202 255 310 363
#     4  10  21  39  63  88 120 159 199 245 305 368
#
# _framework density 18.937377999999999
#
# number of rings (size 3 to 8) (size 9 to 14) (size 15 to 20)
#    0.000    1.231    2.308    3.923    0.000    6.154 
#    0.000    3.077    0.000    0.462    0.000    3.231 
#    0.000    0.000    0.000    0.000    0.000    0.000 
#
# Total GULP energy -290174.578220 kJ/mol
# GULP energy per Si atom -5580.280350 kJ/mol
# Density = 1.889428 g / cm^3
# Si number density = 18.937378 Si / 1000 Ang^3
#
#
#
# Elastic Constant Matrix: (Units=GPa)
#
#
# Indices 1 2 3 4 5 6 
#
# 1 100.1079 55.1795 40.0539 0.0000 0.0000 0.0000
# 2 55.1795 115.4386 59.5015 0.0000 0.0000 0.0000
# 3 40.0539 59.5015 127.0702 0.0000 0.0000 0.0000
# 4 0.0000 0.0000 0.0000 8.7462 0.0000 0.0000
# 5 0.0000 0.0000 0.0000 0.0000 19.2310 0.0000
# 6 0.0000 0.0000 0.0000 0.0000 0.0000 36.7421
#
#
#
# Elastic Compliance Matrix: (Units=1/GPa)
#
#
# Indices 1 2 3 4 5 6 
#
# 1 0.013825 -0.005750 -0.001665 0.000000 0.000000 0.000000
# 2 -0.005750 0.013810 -0.004654 0.000000 0.000000 0.000000
# 3 -0.001665 -0.004654 0.010574 0.000000 0.000000 0.000000
# 4 0.000000 0.000000 0.000000 0.114335 0.000000 0.000000
# 5 0.000000 0.000000 0.000000 0.000000 0.051999 0.000000
# 6 0.000000 0.000000 0.000000 0.000000 0.000000 0.027217
#
#
# Mechanical properties :
#
#
# Convention : Reuss Voigt Hill
#
# Bulk Modulus (GPa) = 71.07323 72.45407 71.76365
# Shear Modulus (GPa) = 19.18731 25.46930 22.32830
#
# Velocity S-wave (km/s) = 3.18653 3.67130 3.43747
# Velocity P-wave (km/s) = 7.15198 7.50427 7.33024
#
# Compressibility (1/GPa) = 0.01406999
#
# Stress axis : x y z
#
# Youngs Moduli (GPa) = 72.33336 72.41121 94.57198
#
# Poissons Ratio (x) = 0.41636 0.15749
# Poissons Ratio (y) = 0.41591 0.44016
# Poissons Ratio (z) = 0.12046 0.33702
#
# Static dielectric constant tensor:
#      x y z
#    x 1.676990 0.000000 0.000000 
#    y 0.000000 1.694110 0.000000 
#    z 0.000000 0.000000 1.659880 
# 
# From -- ./inp_files/8157.got.cif
#   From: 2010.05.17/outbox.cif.g08.bks.cpg/sg72_5_cif.got.tgz:8157.got - 2010.06.03 17:03:01.
