data_PCOD9528276
_publ_section_title
;
Structure prediction by ZEFSAII (Michael W. Deem and Ramdas Pophale) SiO2 
 PCOD9528276
Probable space group: I B A M
;
_chemical_formula_sum "Si O2"
_cell_formula_units_Z 112
_cell_length_a 28.333096
_cell_length_b 10.470224
_cell_length_c 19.723969
_cell_angle_alpha 90.000000
_cell_angle_beta 90.000000
_cell_angle_gamma 90.000000
_cell_volume 5851.191573
_symmetry_space_group_name_H-M "I B A M"
_symmetry_group_IT_number 72
_symmetry_cell_setting 'orthorhombic'
loop_
_space_group_symop_operation_xyz
x,y,z
-x,-y,z
x,-y,1/2-z
-x,y,1/2-z
-x,-y,-z
x,y,-z
-x,y,1/2+z
x,-y,1/2+z
1/2+x,1/2+y,1/2+z
1/2-x,1/2-y,1/2+z
1/2+x,1/2-y,-z
1/2-x,1/2+y,-z
1/2-x,1/2-y,1/2-z
1/2+x,1/2+y,1/2-z
1/2-x,1/2+y,z
1/2+x,1/2-y,z
loop_
_atom_site_type_symbol
_atom_site_label
_atom_site_fract_x
_atom_site_fract_y
_atom_site_fract_z
Si Si1 0.355154 0.292775 0.683929
Si Si2 0.570534 0.609492 0.576454
Si Si3 0.381658 0.246898 0.159630
Si Si4 0.703608 0.650767 0.078411
Si Si5 0.740771 0.605048 0.362427
Si Si6 0.965914 0.817348 0.423747
Si Si7 0.661489 0.992275 0.326201
O O1 0.391916 0.363241 0.634899
O O2 0.373710 0.275732 0.760727
O O3 0.304156 0.360535 0.683565
O O4 0.345852 0.152058 0.652043
O O5 0.589162 0.635140 0.500000
O O6 0.522020 0.688406 0.586740
O O7 0.551877 0.464328 0.576703
O O8 0.345111 0.338207 0.119981
O O9 0.434943 0.258122 0.135356
O O10 0.365345 0.105382 0.136716
O O11 0.724186 0.508088 0.087382
O O12 0.738659 0.763018 0.105860
O O13 0.694371 0.675869 0.000000
O O14 0.784585 0.539167 0.324728
O O15 0.955553 0.768089 0.500000
O O16 0.642741 0.000000 0.250000
#
# Coordination Sequence:
#
# PCOD9528276 Si02
#       7
#    16  16  16  16  16  16  16
#     4  11  22  38  58  87 116 150 200 240 293 351
#     4   9  20  37  61  86 116 150 184 238 297 348
#     4  10  22  36  59  84 113 154 191 241 290 343
#     4  11  23  37  54  82 113 151 198 239 289 344
#     4  11  22  37  59  79 113 157 194 245 290 341
#     4   9  18  38  61  86 116 150 188 233 294 352
#     4   9  21  38  55  79 116 154 193 236 291 348
#
# _framework density 19.141400000000001
#
# number of rings (size 3 to 8) (size 9 to 14) (size 15 to 20)
#    0.000    2.000    1.429    2.571    2.000    6.286 
#    0.000    3.571    0.000    4.286    0.000    0.000 
#    0.000    0.000    0.000    0.000    0.000    0.000 
#
# Total GULP energy -312084.863246 kJ/mol
# GULP energy per Si atom -5572.943987 kJ/mol
# Density = 1.909783 g / cm^3
# Si number density = 19.141400 Si / 1000 Ang^3
#
#
#
# Elastic Constant Matrix: (Units=GPa)
#
#
# Indices 1 2 3 4 5 6 
#
# 1 51.6679 1.7105 16.5011 0.0000 0.0000 0.0000
# 2 1.7105 47.9033 -2.2819 0.0000 0.0000 0.0000
# 3 16.5011 -2.2819 61.5671 0.0000 0.0000 0.0000
# 4 0.0000 0.0000 0.0000 10.9881 0.0000 0.0000
# 5 0.0000 0.0000 0.0000 0.0000 24.9132 0.0000
# 6 0.0000 0.0000 0.0000 0.0000 0.0000 17.9570
#
#
#
# Elastic Compliance Matrix: (Units=1/GPa)
#
#
# Indices 1 2 3 4 5 6 
#
# 1 0.021217 -0.001030 -0.005725 0.000000 0.000000 0.000000
# 2 -0.001030 0.020962 0.001053 0.000000 0.000000 0.000000
# 3 -0.005725 0.001053 0.017816 0.000000 0.000000 0.000000
# 4 0.000000 0.000000 0.000000 0.091007 0.000000 0.000000
# 5 0.000000 0.000000 0.000000 0.000000 0.040139 0.000000
# 6 0.000000 0.000000 0.000000 0.000000 0.000000 0.055689
#
#
# Mechanical properties :
#
#
# Convention : Reuss Voigt Hill
#
# Bulk Modulus (GPa) = 20.57988 21.44419 21.01204
# Shear Modulus (GPa) = 18.21951 20.45223 19.33587
#
# Velocity S-wave (km/s) = 3.08853 3.27231 3.18175
# Velocity P-wave (km/s) = 4.84702 5.05022 4.94966
#
# Compressibility (1/GPa) = 0.04859114
#
# Stress axis : x y z
#
# Youngs Moduli (GPa) = 47.13248 47.70455 56.12998
#
# Poissons Ratio (x) = 0.04915 0.32133
# Poissons Ratio (y) = 0.04856 -0.05911
# Poissons Ratio (z) = 0.26982 -0.05024
#
# Static dielectric constant tensor:
#      x y z
#    x 1.683550 0.000000 0.000000 
#    y 0.000000 1.724130 0.000000 
#    z 0.000000 0.000000 1.662510 
# 
# From -- ./inp_files/40328.got.cif
#   From: 2010.05.17/outbox.cif.g08.bks.cpg/sg72_21_cif.got.tgz:40328.got - 2010.06.03 17:03:01.
