data_PCOD9528672
_publ_section_title
;
Structure prediction by ZEFSAII (Michael W. Deem and Ramdas Pophale) SiO2 
 PCOD9528672
Probable space group: I B A M
;
_chemical_formula_sum "Si O2"
_cell_formula_units_Z 64
_cell_length_a 20.482759
_cell_length_b 10.049667
_cell_length_c 17.993125
_cell_angle_alpha 90.000000
_cell_angle_beta 90.000000
_cell_angle_gamma 90.000000
_cell_volume 3703.793146
_symmetry_space_group_name_H-M "I B A M"
_symmetry_group_IT_number 72
_symmetry_cell_setting 'orthorhombic'
loop_
_space_group_symop_operation_xyz
x,y,z
-x,-y,z
x,-y,1/2-z
-x,y,1/2-z
-x,-y,-z
x,y,-z
-x,y,1/2+z
x,-y,1/2+z
1/2+x,1/2+y,1/2+z
1/2-x,1/2-y,1/2+z
1/2+x,1/2-y,-z
1/2-x,1/2+y,-z
1/2-x,1/2-y,1/2-z
1/2+x,1/2+y,1/2-z
1/2-x,1/2+y,z
1/2+x,1/2-y,z
loop_
_atom_site_type_symbol
_atom_site_label
_atom_site_fract_x
_atom_site_fract_y
_atom_site_fract_z
Si Si1 0.298001 0.521974 0.663049
Si Si2 0.785923 0.297105 0.916091
Si Si3 0.904318 0.392902 0.000000
Si Si4 0.928068 0.050790 0.584037
Si Si5 0.554403 0.193443 0.000000
O O1 0.288076 0.500000 0.750000
O O2 0.254420 0.418386 0.616943
O O3 0.281528 0.670064 0.636123
O O4 0.372644 0.493248 0.639687
O O5 0.860904 0.341852 0.930750
O O6 0.761377 0.264836 0.000000
O O7 0.909579 0.552851 0.000000
O O8 0.977038 0.335710 0.000000
O O9 0.913627 0.995269 0.500000
O O10 0.929233 0.209784 0.569393
O O11 0.000000 0.000000 0.603972
#
# Coordination Sequence:
#
# PCOD9528672 Si02
#       5
#    16  16   8  16   8
#     4  12  24  38  57  89 124 156 194 251 313 363
#     4  10  23  38  61  82 116 155 208 238 296 351
#     4   9  20  33  61  88 112 143 200 260 282 341
#     4   9  19  34  61  83 115 151 207 247 292 352
#     4   9  17  33  59  92 108 140 204 253 294 330
#
# _framework density 17.279582000000001
#
# number of rings (size 3 to 8) (size 9 to 14) (size 15 to 20)
#    1.500    0.500    0.000    4.500    3.500    0.500 
#    0.000    0.000    0.000    0.000    0.000    0.000 
#    0.000    0.000    0.000    0.000    0.000    0.000 
#
# Total GULP energy -178325.229653 kJ/mol
# GULP energy per Si atom -5572.663427 kJ/mol
# Density = 1.724025 g / cm^3
# Si number density = 17.279582 Si / 1000 Ang^3
#
#
#
# Elastic Constant Matrix: (Units=GPa)
#
#
# Indices 1 2 3 4 5 6 
#
# 1 42.8288 16.7193 22.5741 0.0000 0.0000 0.0000
# 2 16.7193 111.4500 14.1728 0.0000 0.0000 0.0000
# 3 22.5741 14.1728 65.2464 0.0000 0.0000 0.0000
# 4 0.0000 0.0000 0.0000 15.9283 0.0000 0.0000
# 5 0.0000 0.0000 0.0000 0.0000 -25.2967 0.0000
# 6 0.0000 0.0000 0.0000 0.0000 0.0000 31.0527
#
#
#
# Elastic Compliance Matrix: (Units=1/GPa)
#
#
# Indices 1 2 3 4 5 6 
#
# 1 0.029647 -0.003232 -0.009555 0.000000 0.000000 0.000000
# 2 -0.003232 0.009580 -0.000963 0.000000 0.000000 0.000000
# 3 -0.009555 -0.000963 0.018842 0.000000 0.000000 0.000000
# 4 0.000000 0.000000 0.000000 0.062782 0.000000 0.000000
# 5 0.000000 0.000000 0.000000 0.000000 -0.039531 0.000000
# 6 0.000000 0.000000 0.000000 0.000000 0.000000 0.032203
#
#
# Mechanical properties :
#
#
# Convention : Reuss Voigt Hill
#
# Bulk Modulus (GPa) = 32.71388 36.27305 34.49347
# Shear Modulus (GPa) = 33.06616 15.40746 24.23681
#
# Velocity S-wave (km/s) = 4.37921 2.98930 3.74923
# Velocity P-wave (km/s) = 6.67407 5.74038 6.22476
#
# Compressibility (1/GPa) = 0.03056807
#
# Stress axis : x y z
#
# Youngs Moduli (GPa) = 33.73035 104.38455 53.07425
#
# Poissons Ratio (x) = 0.33741 0.50713
# Poissons Ratio (y) = 0.10903 0.05109
# Poissons Ratio (z) = 0.32230 0.10048
#
# Static dielectric constant tensor:
#      x y z
#    x 1.588050 0.000000 0.000000 
#    y 0.000000 1.592480 0.000000 
#    z 0.000000 0.000000 1.567440 
# 
# From -- ./inp_files/22828.got.cif
#   From: 2010.05.17/outbox.cif.g08.bks.cpg/sg72_12_cif.got.tgz:22828.got - 2010.06.03 17:03:01.
