data_PCOD9528852
_publ_section_title
;
Structure prediction by ZEFSAII (Michael W. Deem and Ramdas Pophale) SiO2 
 PCOD9528852
Probable space group: I B A M
;
_chemical_formula_sum "Si O2"
_cell_formula_units_Z 88
_cell_length_a 11.833160
_cell_length_b 13.349840
_cell_length_c 27.380770
_cell_angle_alpha 90.000000
_cell_angle_beta 90.000000
_cell_angle_gamma 90.000000
_cell_volume 4325.361941
_symmetry_space_group_name_H-M "I B A M"
_symmetry_group_IT_number 72
_symmetry_cell_setting 'orthorhombic'
loop_
_space_group_symop_operation_xyz
x,y,z
-x,-y,z
x,-y,1/2-z
-x,y,1/2-z
-x,-y,-z
x,y,-z
-x,y,1/2+z
x,-y,1/2+z
1/2+x,1/2+y,1/2+z
1/2-x,1/2-y,1/2+z
1/2+x,1/2-y,-z
1/2-x,1/2+y,-z
1/2-x,1/2-y,1/2-z
1/2+x,1/2+y,1/2-z
1/2-x,1/2+y,z
1/2+x,1/2-y,z
loop_
_atom_site_type_symbol
_atom_site_label
_atom_site_fract_x
_atom_site_fract_y
_atom_site_fract_z
Si Si1 0.581834 0.687625 0.399159
Si Si2 0.500000 0.500000 0.337940
Si Si3 0.723132 0.819880 0.821915
Si Si4 0.369603 0.052468 0.000000
Si Si5 0.125462 0.868817 0.769902
Si Si6 0.559814 0.892532 0.897580
Si Si7 0.886442 0.929462 0.000000
O O1 0.519893 0.596367 0.371032
O O2 0.688966 0.705082 0.364597
O O3 0.516241 0.792760 0.399686
O O4 0.607280 0.642387 0.452451
O O5 0.602573 0.468108 0.302075
O O6 0.784279 0.862271 0.773753
O O7 0.661939 0.718870 0.805967
O O8 0.634398 0.890326 0.848846
O O9 0.372751 0.109883 0.051248
O O10 0.500000 0.000000 0.000000
O O11 0.236891 0.011882 0.000000
O O12 0.000000 0.844477 0.750000
O O13 0.500000 0.000000 0.897137
O O14 0.000000 0.000000 0.000000
#
# Coordination Sequence:
#
# PCOD9528852 Si02
#       7
#    16   8  16   8  16  16   8
#     4  12  25  45  71 109 145 190 239 308 361 445
#     4  12  23  43  70  98 150 177 240 303 380 418
#     4  11  23  42  71 101 143 190 244 297 369 439
#     4  10  23  48  74 106 156 197 242 296 379 448
#     4  11  23  42  67 103 140 186 240 304 363 434
#     4  11  24  48  70 102 148 197 242 296 371 447
#     4  12  25  46  77 119 150 185 255 306 367 447
#
# _framework density 20.345117999999999
#
# number of rings (size 3 to 8) (size 9 to 14) (size 15 to 20)
#    0.000    0.727    6.364    0.818    0.000    1.455 
#    6.545    1.818    0.000    4.364    0.000    0.000 
#    0.000    0.000    0.000    0.000    0.000    0.000 
#
# Total GULP energy -245110.014493 kJ/mol
# GULP energy per Si atom -5570.682148 kJ/mol
# Density = 2.029881 g / cm^3
# Si number density = 20.345118 Si / 1000 Ang^3
#
#
#
# Elastic Constant Matrix: (Units=GPa)
#
#
# Indices 1 2 3 4 5 6 
#
# 1 93.8181 60.4975 35.0314 0.0000 0.0000 0.0000
# 2 60.4975 135.1044 52.0425 0.0000 0.0000 0.0000
# 3 35.0314 52.0425 155.6529 0.0000 0.0000 0.0000
# 4 0.0000 0.0000 0.0000 30.1380 0.0000 0.0000
# 5 0.0000 0.0000 0.0000 0.0000 21.0075 0.0000
# 6 0.0000 0.0000 0.0000 0.0000 0.0000 19.8576
#
#
#
# Elastic Compliance Matrix: (Units=1/GPa)
#
#
# Indices 1 2 3 4 5 6 
#
# 1 0.015217 -0.006307 -0.001316 0.000000 0.000000 0.000000
# 2 -0.006307 0.011110 -0.002295 0.000000 0.000000 0.000000
# 3 -0.001316 -0.002295 0.007488 0.000000 0.000000 0.000000
# 4 0.000000 0.000000 0.000000 0.033181 0.000000 0.000000
# 5 0.000000 0.000000 0.000000 0.000000 0.047602 0.000000
# 6 0.000000 0.000000 0.000000 0.000000 0.000000 0.050358
#
#
# Mechanical properties :
#
#
# Convention : Reuss Voigt Hill
#
# Bulk Modulus (GPa) = 71.53654 75.52424 73.53039
# Shear Modulus (GPa) = 26.39174 30.00088 28.19631
#
# Velocity S-wave (km/s) = 3.60558 3.84422 3.72681
# Velocity P-wave (km/s) = 7.25062 7.54362 7.39857
#
# Compressibility (1/GPa) = 0.01397887
#
# Stress axis : x y z
#
# Youngs Moduli (GPa) = 65.71407 90.00881 133.54488
#
# Poissons Ratio (x) = 0.56770 0.17575
# Poissons Ratio (y) = 0.41447 0.30650
# Poissons Ratio (z) = 0.08648 0.20658
#
# Static dielectric constant tensor:
#      x y z
#    x 1.790550 0.000000 0.000000 
#    y 0.000000 1.588650 0.000000 
#    z 0.000000 0.000000 1.736040 
# 
# From -- ./inp_files/48072.got.cif
#   From: 2010.05.17/outbox.cif.g08.bks.cpg/sg72_25_cif.got.tgz:48072.got - 2010.06.03 17:03:01.
