data_PCOD9528205
_publ_section_title
;
Structure prediction by ZEFSAII (Michael W. Deem and Ramdas Pophale) SiO2 
 PCOD9528205
Probable space group: I B A M
;
_chemical_formula_sum "Si O2"
_cell_formula_units_Z 68
_cell_length_a 24.306272
_cell_length_b 7.591850
_cell_length_c 18.605731
_cell_angle_alpha 90.000000
_cell_angle_beta 90.000000
_cell_angle_gamma 90.000000
_cell_volume 3433.307561
_symmetry_space_group_name_H-M "I B A M"
_symmetry_group_IT_number 72
_symmetry_cell_setting 'orthorhombic'
loop_
_space_group_symop_operation_xyz
x,y,z
-x,-y,z
x,-y,1/2-z
-x,y,1/2-z
-x,-y,-z
x,y,-z
-x,y,1/2+z
x,-y,1/2+z
1/2+x,1/2+y,1/2+z
1/2-x,1/2-y,1/2+z
1/2+x,1/2-y,-z
1/2-x,1/2+y,-z
1/2-x,1/2-y,1/2-z
1/2+x,1/2+y,1/2-z
1/2-x,1/2+y,z
1/2+x,1/2-y,z
loop_
_atom_site_type_symbol
_atom_site_label
_atom_site_fract_x
_atom_site_fract_y
_atom_site_fract_z
Si Si1 0.691088 0.195301 0.720199
Si Si2 0.000000 0.500000 0.250000
Si Si3 0.403624 0.776961 0.824115
Si Si4 0.935606 0.954928 0.580732
Si Si5 0.867547 0.615515 0.585207
O O1 0.750000 0.250000 0.750000
O O2 0.638138 0.274152 0.760026
O O3 0.681385 0.196276 0.634701
O O4 0.685800 0.000000 0.750000
O O5 0.041229 0.629878 0.293476
O O6 0.411563 0.596392 0.865659
O O7 0.380627 0.926348 0.879309
O O8 0.914416 0.988665 0.500000
O O9 0.918453 0.752856 0.595877
O O10 0.000000 0.000000 0.580840
O O11 0.856591 0.602597 0.500000
#
# Coordination Sequence:
#
# PCOD9528205 Si02
#       5
#    16   4  16  16  16
#     4  10  23  42  62  89 120 161 210 256 312 372
#     4  12  20  40  60  96 128 162 218 246 310 380
#     4  11  22  40  62  89 128 163 208 255 310 372
#     4  10  22  37  59  93 125 161 203 244 309 373
#     4  10  21  42  63  89 123 161 208 259 312 371
#
# _framework density 19.805975
#
# number of rings (size 3 to 8) (size 9 to 14) (size 15 to 20)
#    0.000    1.647    3.529    2.118    3.294    0.000 
#    0.000   10.588    0.000    0.000    0.000    0.000 
#    0.000    0.000    0.000    0.000    0.000    0.000 
#
# Total GULP energy -189414.062394 kJ/mol
# GULP energy per Si atom -5571.001835 kJ/mol
# Density = 1.976090 g / cm^3
# Si number density = 19.805975 Si / 1000 Ang^3
#
#
#
# Elastic Constant Matrix: (Units=GPa)
#
#
# Indices 1 2 3 4 5 6 
#
# 1 76.9126 -5.2395 53.9524 0.0000 0.0000 0.0000
# 2 -5.2395 60.3127 31.4924 0.0000 0.0000 0.0000
# 3 53.9524 31.4924 152.2745 0.0000 0.0000 0.0000
# 4 0.0000 0.0000 0.0000 31.4364 0.0000 0.0000
# 5 0.0000 0.0000 0.0000 0.0000 28.6856 0.0000
# 6 0.0000 0.0000 0.0000 0.0000 0.0000 21.2968
#
#
#
# Elastic Compliance Matrix: (Units=1/GPa)
#
#
# Indices 1 2 3 4 5 6 
#
# 1 0.018940 0.005773 -0.007904 0.000000 0.000000 0.000000
# 2 0.005773 0.020347 -0.006253 0.000000 0.000000 0.000000
# 3 -0.007904 -0.006253 0.010661 0.000000 0.000000 0.000000
# 4 0.000000 0.000000 0.000000 0.031810 0.000000 0.000000
# 5 0.000000 0.000000 0.000000 0.000000 0.034861 0.000000
# 6 0.000000 0.000000 0.000000 0.000000 0.000000 0.046955
#
#
# Mechanical properties :
#
#
# Convention : Reuss Voigt Hill
#
# Bulk Modulus (GPa) = 30.14088 49.99004 40.06546
# Shear Modulus (GPa) = 26.12283 30.23672 28.17977
#
# Velocity S-wave (km/s) = 3.63566 3.91147 3.77608
# Velocity P-wave (km/s) = 5.73368 6.75974 6.26775
#
# Compressibility (1/GPa) = 0.03317753
#
# Stress axis : x y z
#
# Youngs Moduli (GPa) = 52.79890 49.14742 93.80006
#
# Poissons Ratio (x) = -0.28371 0.74143
# Poissons Ratio (y) = -0.30479 0.58656
# Poissons Ratio (z) = 0.41734 0.30734
#
# Static dielectric constant tensor:
#      x y z
#    x 1.642780 0.000000 0.000000 
#    y 0.000000 1.713390 0.000000 
#    z 0.000000 0.000000 1.745400 
# 
# From -- ./inp_files/27804.got.cif
#   From: 2010.05.17/outbox.cif.g08.bks.cpg/sg72_14_cif.got.tgz:27804.got - 2010.06.03 17:03:01.
