data_PCOD9528848
_publ_section_title
;
Structure prediction by ZEFSAII (Michael W. Deem and Ramdas Pophale) SiO2 
 PCOD9528848
Probable space group: I B A M
;
_chemical_formula_sum "Si O2"
_cell_formula_units_Z 44
_cell_length_a 16.046723
_cell_length_b 4.926935
_cell_length_c 22.945669
_cell_angle_alpha 90.000000
_cell_angle_beta 90.000000
_cell_angle_gamma 90.000000
_cell_volume 1814.111235
_symmetry_space_group_name_H-M "I B A M"
_symmetry_group_IT_number 72
_symmetry_cell_setting 'orthorhombic'
loop_
_space_group_symop_operation_xyz
x,y,z
-x,-y,z
x,-y,1/2-z
-x,y,1/2-z
-x,-y,-z
x,y,-z
-x,y,1/2+z
x,-y,1/2+z
1/2+x,1/2+y,1/2+z
1/2-x,1/2-y,1/2+z
1/2+x,1/2-y,-z
1/2-x,1/2+y,-z
1/2-x,1/2-y,1/2-z
1/2+x,1/2+y,1/2-z
1/2-x,1/2+y,z
1/2+x,1/2-y,z
loop_
_atom_site_type_symbol
_atom_site_label
_atom_site_fract_x
_atom_site_fract_y
_atom_site_fract_z
Si Si1 0.803487 0.997499 0.818565
Si Si2 0.808815 0.376382 0.000000
Si Si3 0.500000 0.500000 0.000000
Si Si4 0.582055 0.863083 0.599621
O O1 0.721259 0.809293 0.829483
O O2 0.870206 0.839021 0.856908
O O3 0.824421 0.000000 0.750000
O O4 0.861785 0.432815 0.941170
O O5 0.729931 0.578112 0.000000
O O6 0.454395 0.677125 0.049656
O O7 0.500000 0.000000 0.627941
#
# Coordination Sequence:
#
# PCOD9528848 Si02
#       4
#    16   8   4  16
#     4  10  23  46  77 103 138 187 245 296 353 428
#     4  11  24  39  64 100 142 193 242 281 353 433
#     4  10  24  40  62  94 148 182 232 282 354 432
#     4  11  25  41  69 102 151 186 234 304 363 428
#
# _framework density 24.254301999999999
#
# number of rings (size 3 to 8) (size 9 to 14) (size 15 to 20)
#    0.000    1.455    0.000    4.364   15.273    0.000 
#    0.000    0.909    0.000    0.000    0.000    0.000 
#    0.000    0.000    0.000    0.000    0.000    0.000 
#
# Total GULP energy -122550.097508 kJ/mol
# GULP energy per Si atom -5570.458978 kJ/mol
# Density = 2.419910 g / cm^3
# Si number density = 24.254302 Si / 1000 Ang^3
#
#
#
# Elastic Constant Matrix: (Units=GPa)
#
#
# Indices 1 2 3 4 5 6 
#
# 1 38.7553 -1.9808 17.8446 0.0000 0.0000 0.0000
# 2 -1.9808 83.3158 13.8164 0.0000 0.0000 0.0000
# 3 17.8446 13.8164 126.8822 0.0000 0.0000 0.0000
# 4 0.0000 0.0000 0.0000 20.2798 0.0000 0.0000
# 5 0.0000 0.0000 0.0000 0.0000 -61.4614 0.0000
# 6 0.0000 0.0000 0.0000 0.0000 0.0000 47.8219
#
#
#
# Elastic Compliance Matrix: (Units=1/GPa)
#
#
# Indices 1 2 3 4 5 6 
#
# 1 0.027733 0.001330 -0.004045 0.000000 0.000000 0.000000
# 2 0.001330 0.012287 -0.001525 0.000000 0.000000 0.000000
# 3 -0.004045 -0.001525 0.008616 0.000000 0.000000 0.000000
# 4 0.000000 0.000000 0.000000 0.049310 0.000000 0.000000
# 5 0.000000 0.000000 0.000000 0.000000 -0.016270 0.000000
# 6 0.000000 0.000000 0.000000 0.000000 0.000000 0.020911
#
#
# Mechanical properties :
#
#
# Convention : Reuss Voigt Hill
#
# Bulk Modulus (GPa) = 24.90250 34.25711 29.57981
# Shear Modulus (GPa) = 40.17571 15.94627 28.06099
#
# Velocity S-wave (km/s) = 4.07435 2.56688 3.40509
# Velocity P-wave (km/s) = 5.69415 4.78957 5.26134
#
# Compressibility (1/GPa) = 0.04015661
#
# Stress axis : x y z
#
# Youngs Moduli (GPa) = 36.05748 81.38651 116.05894
#
# Poissons Ratio (x) = -0.10826 0.46949
# Poissons Ratio (y) = -0.04796 0.17699
# Poissons Ratio (z) = 0.14586 0.12412
#
# Static dielectric constant tensor:
#      x y z
#    x 2.051800 0.000000 0.000000 
#    y 0.000000 1.943800 0.000000 
#    z 0.000000 0.000000 1.844300 
# 
# From -- ./inp_files/44616.got.cif
#   From: 2010.05.17/outbox.cif.g08.bks.cpg/sg72_23_cif.got.tgz:44616.got - 2010.06.03 17:03:01.
