data_PCOD9528639
_publ_section_title
;
Structure prediction by ZEFSAII (Michael W. Deem and Ramdas Pophale) SiO2 
 PCOD9528639
Probable space group: I B A M
;
_chemical_formula_sum "Si O2"
_cell_formula_units_Z 64
_cell_length_a 30.846592
_cell_length_b 5.089208
_cell_length_c 15.473304
_cell_angle_alpha 90.000000
_cell_angle_beta 90.000000
_cell_angle_gamma 90.000000
_cell_volume 2429.072339
_symmetry_space_group_name_H-M "I B A M"
_symmetry_group_IT_number 72
_symmetry_cell_setting 'orthorhombic'
loop_
_space_group_symop_operation_xyz
x,y,z
-x,-y,z
x,-y,1/2-z
-x,y,1/2-z
-x,-y,-z
x,y,-z
-x,y,1/2+z
x,-y,1/2+z
1/2+x,1/2+y,1/2+z
1/2-x,1/2-y,1/2+z
1/2+x,1/2-y,-z
1/2-x,1/2+y,-z
1/2-x,1/2-y,1/2-z
1/2+x,1/2+y,1/2-z
1/2-x,1/2+y,z
1/2+x,1/2-y,z
loop_
_atom_site_type_symbol
_atom_site_label
_atom_site_fract_x
_atom_site_fract_y
_atom_site_fract_z
Si Si1 0.424134 0.500000 0.750000
Si Si2 0.500000 0.500000 0.634010
Si Si3 0.057935 0.263029 0.000000
Si Si4 0.779215 0.069562 0.401201
Si Si5 0.383593 0.760328 0.500000
Si Si6 0.844773 0.283621 0.189962
O O1 0.459875 0.620148 0.685645
O O2 0.387552 0.724712 0.747731
O O3 0.526737 0.708411 0.579738
O O4 0.074968 0.553154 0.000000
O O5 0.097088 0.040644 0.000000
O O6 0.796172 0.044286 0.500000
O O7 0.740029 0.859560 0.393045
O O8 0.814909 0.966818 0.335378
O O9 0.359838 0.842349 0.590191
O O10 0.821581 0.500000 0.250000
#
# Coordination Sequence:
#
# PCOD9528639 Si02
#       6
#     8   8   8  16   8  16
#     4  11  24  46  64 110 144 198 244 316 364 439
#     4  10  22  44  72  98 152 190 258 308 368 435
#     4  11  24  46  74 103 140 201 255 303 380 432
#     4  10  24  47  76 109 147 194 244 305 375 450
#     4  12  26  49  76 111 148 199 253 313 368 449
#     4  12  27  46  75 112 153 196 252 307 381 446
#
# _framework density 26.347507
#
# number of rings (size 3 to 8) (size 9 to 14) (size 15 to 20)
#    0.000    1.000    3.750    1.500    3.500    3.000 
#    4.500    1.250    0.000    0.000    0.000    0.000 
#    0.000    0.000    0.000    0.000    0.000    0.000 
#
# Total GULP energy -178368.540957 kJ/mol
# GULP energy per Si atom -5574.016905 kJ/mol
# Density = 2.628754 g / cm^3
# Si number density = 26.347507 Si / 1000 Ang^3
#
#
#
# Elastic Constant Matrix: (Units=GPa)
#
#
# Indices 1 2 3 4 5 6 
#
# 1 102.1679 -4.4214 51.1868 0.0000 0.0000 0.0000
# 2 -4.4214 73.6247 14.5967 0.0000 0.0000 0.0000
# 3 51.1868 14.5967 113.4570 0.0000 0.0000 0.0000
# 4 0.0000 0.0000 0.0000-2727.9712 0.0000 0.0000
# 5 0.0000 0.0000 0.0000 0.0000 32.4597 0.0000
# 6 0.0000 0.0000 0.0000 0.0000 0.0000 32.3994
#
#
#
# Elastic Compliance Matrix: (Units=1/GPa)
#
#
# Indices 1 2 3 4 5 6 
#
# 1 0.012922 0.001982 -0.006085 0.000000 0.000000 0.000000
# 2 0.001982 0.014242 -0.002727 0.000000 0.000000 0.000000
# 3 -0.006085 -0.002727 0.011910 0.000000 0.000000 0.000000
# 4 0.000000 0.000000 0.000000 -0.000367 0.000000 0.000000
# 5 0.000000 0.000000 0.000000 0.000000 0.030807 0.000000
# 6 0.000000 0.000000 0.000000 0.000000 0.000000 0.030865
#
#
# Mechanical properties :
#
#
# Convention : Reuss Voigt Hill
#
# Bulk Modulus (GPa) = 39.34563 45.77484 42.56023
# Shear Modulus (GPa) = 40.81292 -517.42990 -238.30849
#
# Velocity S-wave (km/s) = 3.94003 -14.02901 -9.52074
# Velocity P-wave (km/s) = 5.97196 15.65267 10.23088
#
# Compressibility (1/GPa) = 0.02541578
#
# Stress axis : x y z
#
# Youngs Moduli (GPa) = 77.38608 70.21465 83.96318
#
# Poissons Ratio (x) = -0.13920 0.51091
# Poissons Ratio (y) = -0.15341 0.22894
# Poissons Ratio (z) = 0.47089 0.19145
#
# Static dielectric constant tensor:
#      x y z
#    x 2.050160 0.000000 0.000000 
#    y 0.000000 2.147620 0.000000 
#    z 0.000000 0.000000 2.681050 
# 
# From -- ./inp_files/34143.got.cif
#   From: 2010.05.17/outbox.cif.g08.bks.cpg/sg72_18_cif.got.tgz:34143.got - 2010.06.03 17:03:01.
