data_PCOD9528733
_publ_section_title
;
Structure prediction by ZEFSAII (Michael W. Deem and Ramdas Pophale) SiO2 
 PCOD9528733
Probable space group: I B A M
;
_chemical_formula_sum "Si O2"
_cell_formula_units_Z 88
_cell_length_a 23.078022
_cell_length_b 12.428261
_cell_length_c 14.913440
_cell_angle_alpha 90.000000
_cell_angle_beta 90.000000
_cell_angle_gamma 90.000000
_cell_volume 4277.468100
_symmetry_space_group_name_H-M "I B A M"
_symmetry_group_IT_number 72
_symmetry_cell_setting 'orthorhombic'
loop_
_space_group_symop_operation_xyz
x,y,z
-x,-y,z
x,-y,1/2-z
-x,y,1/2-z
-x,-y,-z
x,y,-z
-x,y,1/2+z
x,-y,1/2+z
1/2+x,1/2+y,1/2+z
1/2-x,1/2-y,1/2+z
1/2+x,1/2-y,-z
1/2-x,1/2+y,-z
1/2-x,1/2-y,1/2-z
1/2+x,1/2+y,1/2-z
1/2-x,1/2+y,z
1/2+x,1/2-y,z
loop_
_atom_site_type_symbol
_atom_site_label
_atom_site_fract_x
_atom_site_fract_y
_atom_site_fract_z
Si Si1 0.745536 0.841045 0.856882
Si Si2 0.828293 0.000000 0.750000
Si Si3 0.563661 0.109657 0.205867
Si Si4 0.169204 0.534199 0.000000
Si Si5 0.323810 0.777629 0.000000
Si Si6 0.133588 0.782207 0.813071
Si Si7 0.079863 0.293841 0.500000
Si Si8 0.445754 0.165123 0.500000
O O1 0.786047 0.927004 0.809183
O O2 0.788187 0.767729 0.916332
O O3 0.699555 0.762409 0.809153
O O4 0.702887 0.914693 0.916696
O O5 0.866128 0.909755 0.700803
O O6 0.500000 0.118684 0.250000
O O7 0.599281 0.212773 0.239334
O O8 0.559724 0.107102 0.097918
O O9 0.589213 0.000000 0.250000
O O10 0.174274 0.406882 0.000000
O O11 0.104993 0.584476 0.000000
O O12 0.392122 0.750350 0.000000
O O13 0.106347 0.757327 0.910178
O O14 0.010895 0.289908 0.500000
#
# Coordination Sequence:
#
# PCOD9528733 Si02
#       8
#    16   8  16   8   8  16   8   8
#     4  10  23  41  64  96 135 179 235 285 351 418
#     4  12  24  40  65  94 139 192 230 292 342 426
#     4  11  26  43  72 108 142 181 233 293 359 424
#     4   9  21  37  65  96 129 169 221 291 356 420
#     4  11  23  40  67 102 133 181 230 290 347 425
#     4  11  24  45  70 102 139 183 238 292 357 426
#     4  10  23  44  69 101 135 181 233 294 359 417
#     4  12  25  43  71 100 149 175 232 294 347 423
#
# _framework density 20.572918000000001
#
# number of rings (size 3 to 8) (size 9 to 14) (size 15 to 20)
#    0.000    1.273    1.818    3.273    6.364    3.273 
#    0.000    1.364    0.000    2.182    0.000    0.000 
#    0.000    0.000    0.000    0.000    0.000    0.000 
#
# Total GULP energy -245771.641944 kJ/mol
# GULP energy per Si atom -5585.719135 kJ/mol
# Density = 2.052609 g / cm^3
# Si number density = 20.572918 Si / 1000 Ang^3
#
#
#
# Elastic Constant Matrix: (Units=GPa)
#
#
# Indices 1 2 3 4 5 6 
#
# 1 139.5560 60.8406 43.4037 0.0000 0.0000 0.0000
# 2 60.8406 178.5540 65.8439 0.0000 0.0000 0.0000
# 3 43.4037 65.8439 139.3525 0.0000 0.0000 0.0000
# 4 0.0000 0.0000 0.0000 -33.3006 0.0000 0.0000
# 5 0.0000 0.0000 0.0000 0.0000 38.2107 0.0000
# 6 0.0000 0.0000 0.0000 0.0000 0.0000 27.3701
#
#
#
# Elastic Compliance Matrix: (Units=1/GPa)
#
#
# Indices 1 2 3 4 5 6 
#
# 1 0.008695 -0.002379 -0.001584 0.000000 0.000000 0.000000
# 2 -0.002379 0.007433 -0.002771 0.000000 0.000000 0.000000
# 3 -0.001584 -0.002771 0.008979 0.000000 0.000000 0.000000
# 4 0.000000 0.000000 0.000000 -0.030029 0.000000 0.000000
# 5 0.000000 0.000000 0.000000 0.000000 0.026171 0.000000
# 6 0.000000 0.000000 0.000000 0.000000 0.000000 0.036536
#
#
# Mechanical properties :
#
#
# Convention : Reuss Voigt Hill
#
# Bulk Modulus (GPa) = 85.91975 88.62656 87.27315
# Shear Modulus (GPa) = 66.54902 25.61434 46.08168
#
# Velocity S-wave (km/s) = 5.69369 3.53236 4.73791
# Velocity P-wave (km/s) = 9.22379 7.73366 8.51140
#
# Compressibility (1/GPa) = 0.01163877
#
# Stress axis : x y z
#
# Youngs Moduli (GPa) = 115.00443 134.53635 111.37180
#
# Poissons Ratio (x) = 0.32000 0.17646
# Poissons Ratio (y) = 0.27355 0.30863
# Poissons Ratio (z) = 0.18222 0.37283
#
# Static dielectric constant tensor:
#      x y z
#    x 1.746780 0.000000 0.000000 
#    y 0.000000 1.700570 0.000000 
#    z 0.000000 0.000000 1.779430 
# 
# From -- ./inp_files/25884.got.cif
#   From: 2010.05.17/outbox.cif.g08.bks.cpg/sg72_13_cif.got.tgz:25884.got - 2010.06.03 17:03:01.
