data_PCOD9528772
_publ_section_title
;
Structure prediction by ZEFSAII (Michael W. Deem and Ramdas Pophale) SiO2 
 PCOD9528772
Probable space group: I B A M
;
_chemical_formula_sum "Si O2"
_cell_formula_units_Z 104
_cell_length_a 9.828432
_cell_length_b 23.531248
_cell_length_c 22.991903
_cell_angle_alpha 90.000000
_cell_angle_beta 90.000000
_cell_angle_gamma 90.000000
_cell_volume 5317.458594
_symmetry_space_group_name_H-M "I B A M"
_symmetry_group_IT_number 72
_symmetry_cell_setting 'orthorhombic'
loop_
_space_group_symop_operation_xyz
x,y,z
-x,-y,z
x,-y,1/2-z
-x,y,1/2-z
-x,-y,-z
x,y,-z
-x,y,1/2+z
x,-y,1/2+z
1/2+x,1/2+y,1/2+z
1/2-x,1/2-y,1/2+z
1/2+x,1/2-y,-z
1/2-x,1/2+y,-z
1/2-x,1/2-y,1/2-z
1/2+x,1/2+y,1/2-z
1/2-x,1/2+y,z
1/2+x,1/2-y,z
loop_
_atom_site_type_symbol
_atom_site_label
_atom_site_fract_x
_atom_site_fract_y
_atom_site_fract_z
Si Si1 0.850467 0.477697 0.684076
Si Si2 0.151170 0.647402 0.727028
Si Si3 0.722703 0.897802 0.000000
Si Si4 0.598378 0.792711 0.935806
Si Si5 0.845689 0.257543 0.637696
Si Si6 0.903518 0.140028 0.694041
Si Si7 0.126923 0.039210 0.893873
O O1 0.827369 0.500000 0.750000
O O2 0.849533 0.409661 0.688653
O O3 0.735774 0.502275 0.642509
O O4 0.000000 0.500000 0.666551
O O5 0.198803 0.700978 0.689497
O O6 0.250256 0.637468 0.781156
O O7 0.000000 0.658308 0.750000
O O8 0.649359 0.856119 0.950123
O O9 0.799714 0.933782 0.948968
O O10 0.717919 0.761607 0.900729
O O11 0.459011 0.789345 0.900645
O O12 0.579093 0.765275 0.000000
O O13 0.915631 0.201061 0.663601
O O14 0.924860 0.089651 0.648578
O O15 0.000000 0.134585 0.750000
O O16 0.000000 0.000000 0.910165
#
# Coordination Sequence:
#
# PCOD9528772 Si02
#       7
#    16  16   8  16  16  16  16
#     4  11  22  41  65  97 136 178 223 276 341 421
#     4  12  23  38  65  97 139 180 214 269 353 418
#     4  10  25  48  69  90 131 182 231 276 345 390
#     4  10  23  42  68  88 129 184 227 283 333 403
#     4  12  23  41  65 101 134 179 226 278 347 414
#     4  12  23  39  62 102 142 168 218 282 342 414
#     4  12  25  43  73  96 133 179 231 283 344 406
#
# _framework density 19.558215000000001
#
# number of rings (size 3 to 8) (size 9 to 14) (size 15 to 20)
#    0.462    0.154    4.615    4.385    2.154    0.000 
#    0.000    0.385    3.385    0.000    0.000    0.000 
#    0.000    0.000    0.000    0.000    0.000    0.000 
#
# Total GULP energy -289688.805275 kJ/mol
# GULP energy per Si atom -5570.938563 kJ/mol
# Density = 1.951370 g / cm^3
# Si number density = 19.558215 Si / 1000 Ang^3
#
#
#
# Elastic Constant Matrix: (Units=GPa)
#
#
# Indices 1 2 3 4 5 6 
#
# 1 60.2506 -12.0390 -5.2338 0.0000 0.0000 0.0000
# 2 -12.0390 63.6301 6.3113 0.0000 0.0000 0.0000
# 3 -5.2338 6.3113 45.4126 0.0000 0.0000 0.0000
# 4 0.0000 0.0000 0.0000 20.5593 0.0000 0.0000
# 5 0.0000 0.0000 0.0000 0.0000 33.2761 0.0000
# 6 0.0000 0.0000 0.0000 0.0000 0.0000 16.1204
#
#
#
# Elastic Compliance Matrix: (Units=1/GPa)
#
#
# Indices 1 2 3 4 5 6 
#
# 1 0.017359 0.003129 0.001566 0.000000 0.000000 0.000000
# 2 0.003129 0.016500 -0.001932 0.000000 0.000000 0.000000
# 3 0.001566 -0.001932 0.022469 0.000000 0.000000 0.000000
# 4 0.000000 0.000000 0.000000 0.048640 0.000000 0.000000
# 5 0.000000 0.000000 0.000000 0.000000 0.030052 0.000000
# 6 0.000000 0.000000 0.000000 0.000000 0.000000 0.062033
#
#
# Mechanical properties :
#
#
# Convention : Reuss Voigt Hill
#
# Bulk Modulus (GPa) = 16.16763 16.37447 16.27105
# Shear Modulus (GPa) = 23.56884 26.00816 24.78850
#
# Velocity S-wave (km/s) = 3.47516 3.65057 3.56395
# Velocity P-wave (km/s) = 4.93829 5.11461 5.02722
#
# Compressibility (1/GPa) = 0.06185200
#
# Stress axis : x y z
#
# Youngs Moduli (GPa) = 57.60845 60.60782 44.50510
#
# Poissons Ratio (x) = -0.18964 -0.06968
# Poissons Ratio (y) = -0.18026 0.08600
# Poissons Ratio (z) = -0.09020 0.11712
#
# Static dielectric constant tensor:
#      x y z
#    x 1.691680 0.000000 0.000000 
#    y 0.000000 1.689010 0.000000 
#    z 0.000000 0.000000 1.665410 
# 
# From -- ./inp_files/47571.got.cif
#   From: 2010.05.17/outbox.cif.g08.bks.cpg/sg72_24_cif.got.tgz:47571.got - 2010.06.03 17:03:01.
