data_PCOD9528318
_publ_section_title
;
Structure prediction by ZEFSAII (Michael W. Deem and Ramdas Pophale) SiO2 
 PCOD9528318
Probable space group: I B A M
;
_chemical_formula_sum "Si O2"
_cell_formula_units_Z 52
_cell_length_a 22.389730
_cell_length_b 10.586633
_cell_length_c 10.317933
_cell_angle_alpha 90.000000
_cell_angle_beta 90.000000
_cell_angle_gamma 90.000000
_cell_volume 2445.678793
_symmetry_space_group_name_H-M "I B A M"
_symmetry_group_IT_number 72
_symmetry_cell_setting 'orthorhombic'
loop_
_space_group_symop_operation_xyz
x,y,z
-x,-y,z
x,-y,1/2-z
-x,y,1/2-z
-x,-y,-z
x,y,-z
-x,y,1/2+z
x,-y,1/2+z
1/2+x,1/2+y,1/2+z
1/2-x,1/2-y,1/2+z
1/2+x,1/2-y,-z
1/2-x,1/2+y,-z
1/2-x,1/2-y,1/2-z
1/2+x,1/2+y,1/2-z
1/2-x,1/2+y,z
1/2+x,1/2-y,z
loop_
_atom_site_type_symbol
_atom_site_label
_atom_site_fract_x
_atom_site_fract_y
_atom_site_fract_z
Si Si1 0.000000 0.000000 0.750000
Si Si2 0.697670 0.500000 0.250000
Si Si3 0.597154 0.168503 0.500000
Si Si4 0.592908 0.302583 0.234109
Si Si5 0.108402 0.615511 0.500000
Si Si6 0.720859 0.961919 0.000000
O O1 0.954456 0.094890 0.681160
O O2 0.653834 0.379400 0.260632
O O3 0.738660 0.530453 0.373299
O O4 0.576537 0.241082 0.371992
O O5 0.670392 0.149503 0.500000
O O6 0.577459 0.021851 0.500000
O O7 0.596571 0.194074 0.128421
O O8 0.178759 0.584585 0.500000
#
# Coordination Sequence:
#
# PCOD9528318 Si02
#       6
#     4   8   8  16   8   8
#     4  10  28  46  70  94 112 166 204 270 312 356
#     4  11  22  35  62  96 122 175 200 251 298 362
#     4  10  23  41  62  91 131 163 198 254 301 375
#     4  11  23  43  64  89 129 155 216 255 304 356
#     4  10  23  41  62  91 131 163 198 254 301 375
#     4  10  22  38  58  98 128 162 208 230 324 358
#
# _framework density 21.261990999999998
#
# number of rings (size 3 to 8) (size 9 to 14) (size 15 to 20)
#    0.923    0.615    0.000    4.615    0.000   13.538 
#    0.000    4.615    0.000    0.000    0.000    0.000 
#    0.000    0.000    0.000    0.000    0.000    0.000 
#
# Total GULP energy -145042.226974 kJ/mol
# GULP energy per Si atom -5578.547191 kJ/mol
# Density = 2.121360 g / cm^3
# Si number density = 21.261991 Si / 1000 Ang^3
#
#
#
# Elastic Constant Matrix: (Units=GPa)
#
#
# Indices 1 2 3 4 5 6 
#
# 1 73.3926 26.4620 2.0051 0.0000 0.0000 0.0000
# 2 26.4620 125.6974 53.7450 0.0000 0.0000 0.0000
# 3 2.0051 53.7450 116.6659 0.0000 0.0000 0.0000
# 4 0.0000 0.0000 0.0000 78.4484 0.0000 0.0000
# 5 0.0000 0.0000 0.0000 0.0000 210.4826 0.0000
# 6 0.0000 0.0000 0.0000 0.0000 0.0000 92.0949
#
#
#
# Elastic Compliance Matrix: (Units=1/GPa)
#
#
# Indices 1 2 3 4 5 6 
#
# 1 0.014948 -0.003782 0.001485 0.000000 0.000000 0.000000
# 2 -0.003782 0.010864 -0.004940 0.000000 0.000000 0.000000
# 3 0.001485 -0.004940 0.010822 0.000000 0.000000 0.000000
# 4 0.000000 0.000000 0.000000 0.012747 0.000000 0.000000
# 5 0.000000 0.000000 0.000000 0.000000 0.004751 0.000000
# 6 0.000000 0.000000 0.000000 0.000000 0.000000 0.010858
#
#
# Mechanical properties :
#
#
# Convention : Reuss Voigt Hill
#
# Bulk Modulus (GPa) = 45.12415 53.35333 49.23874
# Shear Modulus (GPa) = 57.57027 91.77476 74.67252
#
# Velocity S-wave (km/s) = 5.20916 6.57704 5.93266
# Velocity P-wave (km/s) = 7.57955 9.10079 8.37478
#
# Compressibility (1/GPa) = 0.02216108
#
# Stress axis : x y z
#
# Youngs Moduli (GPa) = 66.89670 92.04770 92.40802
#
# Poissons Ratio (x) = 0.34813 -0.13726
# Poissons Ratio (y) = 0.25301 0.45647
# Poissons Ratio (z) = -0.09937 0.45469
#
# Static dielectric constant tensor:
#      x y z
#    x 1.801390 0.000000 0.000000 
#    y 0.000000 1.756810 0.000000 
#    z 0.000000 0.000000 1.700240 
# 
# From -- ./inp_files/7678.got.cif
#   From: 2010.05.17/outbox.cif.g08.bks.cpg/sg72_4_cif.got.tgz:7678.got - 2010.06.03 17:03:01.
