data_PCOD9528598
_publ_section_title
;
Structure prediction by ZEFSAII (Michael W. Deem and Ramdas Pophale) SiO2 
 PCOD9528598
Probable space group: I B A M
;
_chemical_formula_sum "Si O2"
_cell_formula_units_Z 72
_cell_length_a 14.766633
_cell_length_b 7.939535
_cell_length_c 24.983638
_cell_angle_alpha 90.000000
_cell_angle_beta 90.000000
_cell_angle_gamma 90.000000
_cell_volume 2929.086704
_symmetry_space_group_name_H-M "I B A M"
_symmetry_group_IT_number 72
_symmetry_cell_setting 'orthorhombic'
loop_
_space_group_symop_operation_xyz
x,y,z
-x,-y,z
x,-y,1/2-z
-x,y,1/2-z
-x,-y,-z
x,y,-z
-x,y,1/2+z
x,-y,1/2+z
1/2+x,1/2+y,1/2+z
1/2-x,1/2-y,1/2+z
1/2+x,1/2-y,-z
1/2-x,1/2+y,-z
1/2-x,1/2-y,1/2-z
1/2+x,1/2+y,1/2-z
1/2-x,1/2+y,z
1/2+x,1/2-y,z
loop_
_atom_site_type_symbol
_atom_site_label
_atom_site_fract_x
_atom_site_fract_y
_atom_site_fract_z
Si Si1 0.061088 0.348309 0.408534
Si Si2 0.313056 0.500000 0.750000
Si Si3 0.223055 0.854726 0.938364
Si Si4 0.364051 0.859748 0.291269
Si Si5 0.109755 0.164815 0.065477
O O1 0.155604 0.305353 0.436635
O O2 0.086688 0.375056 0.347230
O O3 0.000000 0.500000 0.431003
O O4 0.990434 0.195185 0.414666
O O5 0.365368 0.664316 0.728101
O O6 0.242433 0.582724 0.793073
O O7 0.320972 0.811328 0.915787
O O8 0.162233 0.000713 0.914166
O O9 0.238063 0.897530 0.000000
O O10 0.400159 0.000000 0.250000
O O11 0.105820 0.160161 0.000000
#
# Coordination Sequence:
#
# PCOD9528598 Si02
#       5
#    16   8  16  16  16
#     4  12  25  39  65 102 135 179 227 286 341 424
#     4   8  18  44  75  97 128 184 226 294 356 428
#     4  10  22  43  68  97 140 187 227 284 346 409
#     4   9  20  43  69 100 138 177 228 297 358 407
#     4  10  22  43  66  98 142 183 230 282 340 416
#
# _framework density 24.581040999999999
#
# number of rings (size 3 to 8) (size 9 to 14) (size 15 to 20)
#    0.667    1.333    0.000    2.667    0.000    9.333 
#    8.000    0.000    0.000    0.000    2.889    0.000 
#    0.000    0.000    0.000    0.000    0.000    0.000 
#
# Total GULP energy -201069.248440 kJ/mol
# GULP energy per Si atom -5585.256901 kJ/mol
# Density = 2.452509 g / cm^3
# Si number density = 24.581041 Si / 1000 Ang^3
#
#
#
# Elastic Constant Matrix: (Units=GPa)
#
#
# Indices 1 2 3 4 5 6 
#
# 1 125.4070 10.1333 21.8033 0.0000 0.0000 0.0000
# 2 10.1333 137.3898 20.4312 0.0000 0.0000 0.0000
# 3 21.8033 20.4312 85.5179 0.0000 0.0000 0.0000
# 4 0.0000 0.0000 0.0000 14.3413 0.0000 0.0000
# 5 0.0000 0.0000 0.0000 0.0000 33.6447 0.0000
# 6 0.0000 0.0000 0.0000 0.0000 0.0000 24.0363
#
#
#
# Elastic Compliance Matrix: (Units=1/GPa)
#
#
# Indices 1 2 3 4 5 6 
#
# 1 0.008357 -0.000311 -0.002056 0.000000 0.000000 0.000000
# 2 -0.000311 0.007558 -0.001727 0.000000 0.000000 0.000000
# 3 -0.002056 -0.001727 0.012630 0.000000 0.000000 0.000000
# 4 0.000000 0.000000 0.000000 0.069729 0.000000 0.000000
# 5 0.000000 0.000000 0.000000 0.000000 0.029722 0.000000
# 6 0.000000 0.000000 0.000000 0.000000 0.000000 0.041604
#
#
# Mechanical properties :
#
#
# Convention : Reuss Voigt Hill
#
# Bulk Modulus (GPa) = 49.12045 50.33891 49.72968
# Shear Modulus (GPa) = 27.08957 34.13425 30.61191
#
# Velocity S-wave (km/s) = 3.32332 3.73049 3.53277
# Velocity P-wave (km/s) = 5.89511 6.25129 6.07581
#
# Compressibility (1/GPa) = 0.02035812
#
# Stress axis : x y z
#
# Youngs Moduli (GPa) = 119.66512 132.30623 79.17501
#
# Poissons Ratio (x) = 0.04109 0.16281
# Poissons Ratio (y) = 0.03716 0.13670
# Poissons Ratio (z) = 0.24608 0.22844
#
# Static dielectric constant tensor:
#      x y z
#    x 1.893170 0.000000 0.000000 
#    y 0.000000 2.152510 0.000000 
#    z 0.000000 0.000000 1.865450 
# 
# From -- ./inp_files/48470.got.cif
#   From: 2010.05.17/outbox.cif.g08.bks.cpg/sg72_25_cif.got.tgz:48470.got - 2010.06.03 17:03:01.
