data_PCOD9528689
_publ_section_title
;
Structure prediction by ZEFSAII (Michael W. Deem and Ramdas Pophale) SiO2 
 PCOD9528689
Probable space group: I B A M
;
_chemical_formula_sum "Si O2"
_cell_formula_units_Z 64
_cell_length_a 15.991909
_cell_length_b 12.420699
_cell_length_c 15.637467
_cell_angle_alpha 90.000000
_cell_angle_beta 90.000000
_cell_angle_gamma 90.000000
_cell_volume 3106.080831
_symmetry_space_group_name_H-M "I B A M"
_symmetry_group_IT_number 72
_symmetry_cell_setting 'orthorhombic'
loop_
_space_group_symop_operation_xyz
x,y,z
-x,-y,z
x,-y,1/2-z
-x,y,1/2-z
-x,-y,-z
x,y,-z
-x,y,1/2+z
x,-y,1/2+z
1/2+x,1/2+y,1/2+z
1/2-x,1/2-y,1/2+z
1/2+x,1/2-y,-z
1/2-x,1/2+y,-z
1/2-x,1/2-y,1/2-z
1/2+x,1/2+y,1/2-z
1/2-x,1/2+y,z
1/2+x,1/2-y,z
loop_
_atom_site_type_symbol
_atom_site_label
_atom_site_fract_x
_atom_site_fract_y
_atom_site_fract_z
Si Si1 0.841947 0.000000 0.750000
Si Si2 0.987162 0.269480 0.500000
Si Si3 0.424412 0.299053 0.684618
Si Si4 0.824521 0.287428 0.000000
Si Si5 0.274329 0.162622 0.354532
Si Si6 0.873233 0.461491 0.500000
O O1 0.899013 0.923040 0.807162
O O2 0.786227 0.917191 0.695840
O O3 0.948757 0.224959 0.412711
O O4 0.962662 0.397442 0.500000
O O5 0.083616 0.236290 0.500000
O O6 0.500000 0.274791 0.750000
O O7 0.342193 0.226123 0.702634
O O8 0.774021 0.247216 0.916410
O O9 0.849992 0.412827 0.000000
O O10 0.327589 0.086956 0.417308
#
# Coordination Sequence:
#
# PCOD9528689 Si02
#       6
#     8   8  16   8  16   8
#     4  12  23  40  63  92 130 172 216 260 315 380
#     4  10  23  41  64  93 128 167 212 267 319 374
#     4  11  24  43  64  94 131 168 212 265 321 381
#     4  11  20  40  66  91 124 166 214 265 317 379
#     4  10  23  39  63  92 123 166 213 264 317 379
#     4   9  20  39  62  90 120 159 210 262 324 381
#
# _framework density 20.604745000000001
#
# number of rings (size 3 to 8) (size 9 to 14) (size 15 to 20)
#    0.000    1.500    0.000    5.250    0.000    4.000 
#    0.000    6.875    0.000    0.000    0.000    0.000 
#    0.000    0.000    0.000    0.000    0.000    0.000 
#
# Total GULP energy -178618.440772 kJ/mol
# GULP energy per Si atom -5581.826274 kJ/mol
# Density = 2.055785 g / cm^3
# Si number density = 20.604745 Si / 1000 Ang^3
#
#
#
# Elastic Constant Matrix: (Units=GPa)
#
#
# Indices 1 2 3 4 5 6 
#
# 1 129.0165 59.6498 52.7055 0.0000 0.0000 0.0000
# 2 59.6498 144.8284 66.4558 0.0000 0.0000 0.0000
# 3 52.7055 66.4558 115.2283 0.0000 0.0000 0.0000
# 4 0.0000 0.0000 0.0000 24.3336 0.0000 0.0000
# 5 0.0000 0.0000 0.0000 0.0000 32.4477 0.0000
# 6 0.0000 0.0000 0.0000 0.0000 0.0000 29.3302
#
#
#
# Elastic Compliance Matrix: (Units=1/GPa)
#
#
# Indices 1 2 3 4 5 6 
#
# 1 0.010323 -0.002835 -0.003086 0.000000 0.000000 0.000000
# 2 -0.002835 0.010168 -0.004568 0.000000 0.000000 0.000000
# 3 -0.003086 -0.004568 0.012724 0.000000 0.000000 0.000000
# 4 0.000000 0.000000 0.000000 0.041095 0.000000 0.000000
# 5 0.000000 0.000000 0.000000 0.000000 0.030819 0.000000
# 6 0.000000 0.000000 0.000000 0.000000 0.000000 0.034095
#
#
# Mechanical properties :
#
#
# Convention : Reuss Voigt Hill
#
# Bulk Modulus (GPa) = 81.71987 82.96617 82.34302
# Shear Modulus (GPa) = 30.43553 31.23977 30.83765
#
# Velocity S-wave (km/s) = 3.84749 3.89799 3.87283
# Velocity P-wave (km/s) = 7.71261 7.78538 7.74908
#
# Compressibility (1/GPa) = 0.01223693
#
# Stress axis : x y z
#
# Youngs Moduli (GPa) = 96.87404 98.34428 78.58934
#
# Poissons Ratio (x) = 0.27884 0.24256
# Poissons Ratio (y) = 0.27467 0.35896
# Poissons Ratio (z) = 0.29899 0.44919
#
# Static dielectric constant tensor:
#      x y z
#    x 1.778400 0.000000 0.000000 
#    y 0.000000 1.722950 0.000000 
#    z 0.000000 0.000000 1.667870 
# 
# From -- ./inp_files/22852.got.cif
#   From: 2010.05.17/outbox.cif.g08.bks.cpg/sg72_12_cif.got.tgz:22852.got - 2010.06.03 17:03:01.
