data_PCOD9528800
_publ_section_title
;
Structure prediction by ZEFSAII (Michael W. Deem and Ramdas Pophale) SiO2 
 PCOD9528800
Probable space group: I B A M
;
_chemical_formula_sum "Si O2"
_cell_formula_units_Z 64
_cell_length_a 18.571870
_cell_length_b 9.695969
_cell_length_c 16.683427
_cell_angle_alpha 90.000000
_cell_angle_beta 90.000000
_cell_angle_gamma 90.000000
_cell_volume 3004.222668
_symmetry_space_group_name_H-M "I B A M"
_symmetry_group_IT_number 72
_symmetry_cell_setting 'orthorhombic'
loop_
_space_group_symop_operation_xyz
x,y,z
-x,-y,z
x,-y,1/2-z
-x,y,1/2-z
-x,-y,-z
x,y,-z
-x,y,1/2+z
x,-y,1/2+z
1/2+x,1/2+y,1/2+z
1/2-x,1/2-y,1/2+z
1/2+x,1/2-y,-z
1/2-x,1/2+y,-z
1/2-x,1/2-y,1/2-z
1/2+x,1/2+y,1/2-z
1/2-x,1/2+y,z
1/2+x,1/2-y,z
loop_
_atom_site_type_symbol
_atom_site_label
_atom_site_fract_x
_atom_site_fract_y
_atom_site_fract_z
Si Si1 0.977481 0.208608 0.000000
Si Si2 0.977355 0.658300 0.164691
Si Si3 0.750745 0.166513 0.587806
Si Si4 0.875469 0.034771 0.500000
Si Si5 0.186703 0.418036 0.167056
O O1 0.984990 0.285982 0.915289
O O2 0.050825 0.119324 0.000000
O O3 0.904899 0.119372 0.000000
O O4 0.891072 0.652335 0.160234
O O5 0.000000 0.500000 0.169057
O O6 0.000000 0.725315 0.250000
O O7 0.739072 0.230177 0.500000
O O8 0.825991 0.081870 0.574935
O O9 0.758468 0.292658 0.649002
O O10 0.694767 0.045260 0.605411
O O11 0.196971 0.500000 0.250000
#
# Coordination Sequence:
#
# PCOD9528800 Si02
#       5
#     8  16  16   8  16
#     4  11  21  43  71  95 137 186 216 291 352 399
#     4  11  23  43  67 100 137 179 238 284 339 435
#     4  10  23  43  68 100 135 177 231 283 336 427
#     4   9  22  41  67 101 133 169 236 276 344 419
#     4  12  23  44  68  96 139 182 222 290 353 401
#
# _framework density 21.303346999999999
#
# number of rings (size 3 to 8) (size 9 to 14) (size 15 to 20)
#    0.750    0.500    5.000    1.875    1.750    2.000 
#    4.500    2.500    0.000    0.000    0.000    0.000 
#    0.000    0.000    0.000    0.000    0.000    0.000 
#
# Total GULP energy -178300.107794 kJ/mol
# GULP energy per Si atom -5571.878369 kJ/mol
# Density = 2.125486 g / cm^3
# Si number density = 21.303347 Si / 1000 Ang^3
#
#
#
# Elastic Constant Matrix: (Units=GPa)
#
#
# Indices 1 2 3 4 5 6 
#
# 1 64.9373 31.1550 20.3078 0.0000 0.0000 0.0000
# 2 31.1550 97.5835 65.9736 0.0000 0.0000 0.0000
# 3 20.3078 65.9736 149.1996 0.0000 0.0000 0.0000
# 4 0.0000 0.0000 0.0000 42.3387 0.0000 0.0000
# 5 0.0000 0.0000 0.0000 0.0000 18.2626 0.0000
# 6 0.0000 0.0000 0.0000 0.0000 0.0000 34.1979
#
#
#
# Elastic Compliance Matrix: (Units=1/GPa)
#
#
# Indices 1 2 3 4 5 6 
#
# 1 0.018187 -0.005895 0.000131 0.000000 0.000000 0.000000
# 2 -0.005895 0.016528 -0.006506 0.000000 0.000000 0.000000
# 3 0.000131 -0.006506 0.009561 0.000000 0.000000 0.000000
# 4 0.000000 0.000000 0.000000 0.023619 0.000000 0.000000
# 5 0.000000 0.000000 0.000000 0.000000 0.054757 0.000000
# 6 0.000000 0.000000 0.000000 0.000000 0.000000 0.029242
#
#
# Mechanical properties :
#
#
# Convention : Reuss Voigt Hill
#
# Bulk Modulus (GPa) = 50.66740 60.73257 55.69998
# Shear Modulus (GPa) = 27.32049 31.91211 29.61630
#
# Velocity S-wave (km/s) = 3.58502 3.87458 3.73261
# Velocity P-wave (km/s) = 6.40093 6.97043 6.69174
#
# Compressibility (1/GPa) = 0.01973656
#
# Stress axis : x y z
#
# Youngs Moduli (GPa) = 54.98508 60.50181 104.58623
#
# Poissons Ratio (x) = 0.35667 -0.01374
# Poissons Ratio (y) = 0.32415 0.68046
# Poissons Ratio (z) = -0.00722 0.39364
#
# Static dielectric constant tensor:
#      x y z
#    x 1.820100 0.000000 0.000000 
#    y 0.000000 1.762720 0.000000 
#    z 0.000000 0.000000 1.894290 
# 
# From -- ./inp_files/31208.got.cif
#   From: 2010.05.17/outbox.cif.g08.bks.cpg/sg72_16_cif.got.tgz:31208.got - 2010.06.03 17:03:01.
