data_PCOD9528930
_publ_section_title
;
Structure prediction by ZEFSAII (Michael W. Deem and Ramdas Pophale) SiO2 
 PCOD9528930
Probable space group: I B A M
;
_chemical_formula_sum "Si O2"
_cell_formula_units_Z 72
_cell_length_a 30.322155
_cell_length_b 9.203412
_cell_length_c 13.372917
_cell_angle_alpha 90.000000
_cell_angle_beta 90.000000
_cell_angle_gamma 90.000000
_cell_volume 3731.943642
_symmetry_space_group_name_H-M "I B A M"
_symmetry_group_IT_number 72
_symmetry_cell_setting 'orthorhombic'
loop_
_space_group_symop_operation_xyz
x,y,z
-x,-y,z
x,-y,1/2-z
-x,y,1/2-z
-x,-y,-z
x,y,-z
-x,y,1/2+z
x,-y,1/2+z
1/2+x,1/2+y,1/2+z
1/2-x,1/2-y,1/2+z
1/2+x,1/2-y,-z
1/2-x,1/2+y,-z
1/2-x,1/2-y,1/2-z
1/2+x,1/2+y,1/2-z
1/2-x,1/2+y,z
1/2+x,1/2-y,z
loop_
_atom_site_type_symbol
_atom_site_label
_atom_site_fract_x
_atom_site_fract_y
_atom_site_fract_z
Si Si1 0.046421 0.582745 0.500000
Si Si2 0.206445 0.736203 0.383338
Si Si3 0.451842 0.332262 0.783818
Si Si4 0.517551 0.661921 0.000000
Si Si5 0.240421 0.000000 0.250000
Si Si6 0.887008 0.622743 0.172528
O O1 0.077242 0.557995 0.404654
O O2 0.000000 0.500000 0.500000
O O3 0.027550 0.745944 0.500000
O O4 0.220575 0.748286 0.500000
O O5 0.231808 0.606921 0.323559
O O6 0.155091 0.692101 0.380282
O O7 0.214308 0.886119 0.321648
O O8 0.449797 0.500000 0.750000
O O9 0.500000 0.275321 0.750000
O O10 0.413115 0.245119 0.733186
O O11 0.453439 0.314685 0.902264
O O12 0.500000 0.500000 0.000000
O O13 0.872235 0.500000 0.250000
#
# Coordination Sequence:
#
# PCOD9528930 Si02
#       6
#     8  16  16   8   8  16
#     4  12  24  38  62  86 127 179 217 262 324 383
#     4  11  23  46  73 101 135 173 217 276 331 418
#     4  11  22  38  58  84 122 166 214 269 320 380
#     4  12  20  38  60  84 113 171 219 266 320 379
#     4  10  24  46  74 104 132 172 214 268 362 396
#     4  12  25  40  60  95 130 168 220 270 321 388
#
# _framework density 19.292897
#
# number of rings (size 3 to 8) (size 9 to 14) (size 15 to 20)
#    0.000    0.667    6.667    2.000    1.556    0.000 
#    0.000    0.000    4.889    0.000    0.000    0.000 
#    0.000    0.000    0.000    0.000    0.000    0.000 
#
# Total GULP energy -201042.422607 kJ/mol
# GULP energy per Si atom -5584.511739 kJ/mol
# Density = 1.924899 g / cm^3
# Si number density = 19.292897 Si / 1000 Ang^3
#
#
#
# Elastic Constant Matrix: (Units=GPa)
#
#
# Indices 1 2 3 4 5 6 
#
# 1 86.8175 35.9302 42.7498 0.0000 0.0000 0.0000
# 2 35.9302 96.8808 34.8891 0.0000 0.0000 0.0000
# 3 42.7498 34.8891 172.3337 0.0000 0.0000 0.0000
# 4 0.0000 0.0000 0.0000 21.9200 0.0000 0.0000
# 5 0.0000 0.0000 0.0000 0.0000 46.9646 0.0000
# 6 0.0000 0.0000 0.0000 0.0000 0.0000 26.6608
#
#
#
# Elastic Compliance Matrix: (Units=1/GPa)
#
#
# Indices 1 2 3 4 5 6 
#
# 1 0.014721 -0.004470 -0.002747 0.000000 0.000000 0.000000
# 2 -0.004470 0.012491 -0.001420 0.000000 0.000000 0.000000
# 3 -0.002747 -0.001420 0.006772 0.000000 0.000000 0.000000
# 4 0.000000 0.000000 0.000000 0.045621 0.000000 0.000000
# 5 0.000000 0.000000 0.000000 0.000000 0.021293 0.000000
# 6 0.000000 0.000000 0.000000 0.000000 0.000000 0.037508
#
#
# Mechanical properties :
#
#
# Convention : Reuss Voigt Hill
#
# Bulk Modulus (GPa) = 59.84552 64.79671 62.32112
# Shear Modulus (GPa) = 31.00788 35.27325 33.14057
#
# Velocity S-wave (km/s) = 4.01336 4.28050 4.14908
# Velocity P-wave (km/s) = 7.25003 7.62161 7.43814
#
# Compressibility (1/GPa) = 0.01670969
#
# Stress axis : x y z
#
# Youngs Moduli (GPa) = 67.92987 80.05598 147.67731
#
# Poissons Ratio (x) = 0.35789 0.40563
# Poissons Ratio (y) = 0.30368 0.20969
# Poissons Ratio (z) = 0.18658 0.11367
#
# Static dielectric constant tensor:
#      x y z
#    x 1.659130 0.000000 0.000000 
#    y 0.000000 1.716410 0.000000 
#    z 0.000000 0.000000 1.742690 
# 
# From -- ./inp_files/25730.got.cif
#   From: 2010.05.17/outbox.cif.g08.bks.cpg/sg72_13_cif.got.tgz:25730.got - 2010.06.03 17:03:01.
