data_PCOD9528321
_publ_section_title
;
Structure prediction by ZEFSAII (Michael W. Deem and Ramdas Pophale) SiO2 
 PCOD9528321
Probable space group: I B A M
;
_chemical_formula_sum "Si O2"
_cell_formula_units_Z 88
_cell_length_a 25.801504
_cell_length_b 9.431912
_cell_length_c 14.810341
_cell_angle_alpha 90.000000
_cell_angle_beta 90.000000
_cell_angle_gamma 90.000000
_cell_volume 3604.207785
_symmetry_space_group_name_H-M "I B A M"
_symmetry_group_IT_number 72
_symmetry_cell_setting 'orthorhombic'
loop_
_space_group_symop_operation_xyz
x,y,z
-x,-y,z
x,-y,1/2-z
-x,y,1/2-z
-x,-y,-z
x,y,-z
-x,y,1/2+z
x,-y,1/2+z
1/2+x,1/2+y,1/2+z
1/2-x,1/2-y,1/2+z
1/2+x,1/2-y,-z
1/2-x,1/2+y,-z
1/2-x,1/2-y,1/2-z
1/2+x,1/2+y,1/2-z
1/2-x,1/2+y,z
1/2+x,1/2-y,z
loop_
_atom_site_type_symbol
_atom_site_label
_atom_site_fract_x
_atom_site_fract_y
_atom_site_fract_z
Si Si1 0.166828 0.274565 0.322511
Si Si2 0.758051 0.575604 0.000000
Si Si3 0.000000 0.715179 0.250000
Si Si4 0.902658 0.779418 0.166495
Si Si5 0.832135 0.858209 0.000000
Si Si6 0.756347 0.411495 0.678137
Si Si7 0.924545 0.548011 0.606492
O O1 0.127300 0.188283 0.259189
O O2 0.198976 0.350450 0.240384
O O3 0.215157 0.193340 0.367033
O O4 0.127453 0.359323 0.384001
O O5 0.700538 0.502248 0.000000
O O6 0.778756 0.508304 0.093598
O O7 0.790803 0.726240 0.000000
O O8 0.037868 0.810282 0.311176
O O9 0.034249 0.621362 0.176937
O O10 0.908944 0.609381 0.142143
O O11 0.869386 0.845083 0.086308
O O12 0.724412 0.500000 0.750000
O O13 0.940222 0.542359 0.500000
#
# Coordination Sequence:
#
# PCOD9528321 Si02
#       7
#    16   8   8  16   8  16  16
#     4  10  22  38  59  87 130 177 222 279 341 418
#     4  12  28  44  66 101 139 195 243 288 344 442
#     4  10  23  38  62 100 141 174 237 290 371 438
#     4  11  20  40  60  94 134 181 221 291 354 420
#     4  12  26  42  67  99 147 189 242 288 360 416
#     4  11  23  40  61  87 130 177 234 284 335 409
#     4  11  22  36  61  95 135 177 222 286 358 427
#
# _framework density 24.415904999999999
#
# number of rings (size 3 to 8) (size 9 to 14) (size 15 to 20)
#    0.000    1.091    2.727    5.455    5.091    0.727 
#    0.000    0.000    0.000    0.000    0.000   45.818 
#    0.000    1.455    0.000    0.000    0.000    0.000 
#
# Total GULP energy -244943.675619 kJ/mol
# GULP energy per Si atom -5566.901719 kJ/mol
# Density = 2.436033 g / cm^3
# Si number density = 24.415905 Si / 1000 Ang^3
#
#
#
# Elastic Constant Matrix: (Units=GPa)
#
#
# Indices 1 2 3 4 5 6 
#
# 1 175.2792 36.0192 45.1387 0.0000 0.0000 0.0000
# 2 36.0192 46.4487 20.5731 0.0000 0.0000 0.0000
# 3 45.1387 20.5731 131.7969 0.0000 0.0000 0.0000
# 4 0.0000 0.0000 0.0000 20.7129 0.0000 0.0000
# 5 0.0000 0.0000 0.0000 0.0000 65.4697 0.0000
# 6 0.0000 0.0000 0.0000 0.0000 0.0000 34.6911
#
#
#
# Elastic Compliance Matrix: (Units=1/GPa)
#
#
# Indices 1 2 3 4 5 6 
#
# 1 0.007122 -0.004773 -0.001694 0.000000 0.000000 0.000000
# 2 -0.004773 0.026326 -0.002475 0.000000 0.000000 0.000000
# 3 -0.001694 -0.002475 0.008554 0.000000 0.000000 0.000000
# 4 0.000000 0.000000 0.000000 0.048279 0.000000 0.000000
# 5 0.000000 0.000000 0.000000 0.000000 0.015274 0.000000
# 6 0.000000 0.000000 0.000000 0.000000 0.000000 0.028826
#
#
# Mechanical properties :
#
#
# Convention : Reuss Voigt Hill
#
# Bulk Modulus (GPa) = 41.46114 61.88744 51.67429
# Shear Modulus (GPa) = 31.19055 40.96100 36.07577
#
# Velocity S-wave (km/s) = 3.57805 4.10034 3.84806
# Velocity P-wave (km/s) = 5.83849 6.91515 6.39950
#
# Compressibility (1/GPa) = 0.02411897
#
# Stress axis : x y z
#
# Youngs Moduli (GPa) = 140.40491 37.98488 116.90400
#
# Poissons Ratio (x) = 0.18129 0.19807
# Poissons Ratio (y) = 0.67010 0.28933
# Poissons Ratio (z) = 0.23789 0.09401
#
# Static dielectric constant tensor:
#      x y z
#    x 2.010160 0.000000 0.000000 
#    y 0.000000 2.124660 0.000000 
#    z 0.000000 0.000000 2.377620 
# 
# From -- ./inp_files/25030.got.cif
#   From: 2010.05.17/outbox.cif.g08.bks.cpg/sg72_13_cif.got.tgz:25030.got - 2010.06.03 17:03:01.
