data_PCOD9528591
_publ_section_title
;
Structure prediction by ZEFSAII (Michael W. Deem and Ramdas Pophale) SiO2 
 PCOD9528591
Probable space group: I B A M
;
_chemical_formula_sum "Si O2"
_cell_formula_units_Z 80
_cell_length_a 11.652917
_cell_length_b 21.588196
_cell_length_c 14.250150
_cell_angle_alpha 90.000000
_cell_angle_beta 90.000000
_cell_angle_gamma 90.000000
_cell_volume 3584.845485
_symmetry_space_group_name_H-M "I B A M"
_symmetry_group_IT_number 72
_symmetry_cell_setting 'orthorhombic'
loop_
_space_group_symop_operation_xyz
x,y,z
-x,-y,z
x,-y,1/2-z
-x,y,1/2-z
-x,-y,-z
x,y,-z
-x,y,1/2+z
x,-y,1/2+z
1/2+x,1/2+y,1/2+z
1/2-x,1/2-y,1/2+z
1/2+x,1/2-y,-z
1/2-x,1/2+y,-z
1/2-x,1/2-y,1/2-z
1/2+x,1/2+y,1/2-z
1/2-x,1/2+y,z
1/2+x,1/2-y,z
loop_
_atom_site_type_symbol
_atom_site_label
_atom_site_fract_x
_atom_site_fract_y
_atom_site_fract_z
Si Si1 0.521071 0.716954 0.893341
Si Si2 0.904054 0.348372 0.173679
Si Si3 0.654361 0.340159 0.773629
Si Si4 0.374961 0.982707 0.605958
Si Si5 0.122509 0.033635 0.886584
O O1 0.561673 0.787415 0.883034
O O2 0.396939 0.710486 0.845529
O O3 0.598219 0.673658 0.826387
O O4 0.521442 0.696484 0.000000
O O5 0.789028 0.334661 0.230416
O O6 0.877470 0.408141 0.111089
O O7 0.000000 0.363163 0.250000
O O8 0.622647 0.405194 0.822402
O O9 0.379205 0.007060 0.500000
O O10 0.245040 0.000160 0.639080
O O11 0.500000 0.000000 0.648254
O O12 0.130513 0.046691 0.000000
O O13 0.000000 0.000000 0.872316
#
# Coordination Sequence:
#
# PCOD9528591 Si02
#       5
#    16  16  16  16  16
#     4  11  23  40  65  94 128 173 218 267 329 388
#     4  11  22  41  65  93 131 169 219 266 327 391
#     4  10  22  43  64  95 133 170 214 279 325 387
#     4   9  19  38  62  95 132 169 216 267 322 390
#     4   9  18  37  68 100 133 173 217 268 332 393
#
# _framework density 22.316165000000002
#
# number of rings (size 3 to 8) (size 9 to 14) (size 15 to 20)
#    0.000    2.000    2.000    1.800    0.000    2.800 
#    7.200    3.000    0.000    1.800    0.000    0.000 
#    0.000    1.200    0.000    0.000    0.000    0.000 
#
# Total GULP energy -223208.361119 kJ/mol
# GULP energy per Si atom -5580.209028 kJ/mol
# Density = 2.226537 g / cm^3
# Si number density = 22.316165 Si / 1000 Ang^3
#
#
#
# Elastic Constant Matrix: (Units=GPa)
#
#
# Indices 1 2 3 4 5 6 
#
# 1 184.8666 56.5540 32.9753 0.0000 0.0000 0.0000
# 2 56.5540 43.3507 7.7441 0.0001 0.0000 0.0000
# 3 32.9753 7.7441 145.9975 0.0001 0.0000 -0.0001
# 4 0.0000 0.0001 0.0001 18.1958 0.0000 0.0000
# 5 0.0000 0.0000 0.0000 0.0000 -18.3356 0.0000
# 6 0.0000 0.0000 -0.0001 0.0000 0.0000 40.0928
#
#
#
# Elastic Compliance Matrix: (Units=1/GPa)
#
#
# Indices 1 2 3 4 5 6 
#
# 1 0.009305 -0.011876 -0.001472 0.000000 0.000000 0.000000
# 2 -0.011876 0.038446 0.000643 0.000000 0.000000 0.000000
# 3 -0.001472 0.000643 0.007148 0.000000 0.000000 0.000000
# 4 0.000000 0.000000 0.000000 0.054958 0.000000 0.000000
# 5 0.000000 0.000000 0.000000 0.000000 -0.054539 0.000000
# 6 0.000000 0.000000 0.000000 0.000000 0.000000 0.024942
#
#
# Mechanical properties :
#
#
# Convention : Reuss Voigt Hill
#
# Bulk Modulus (GPa) = 33.91069 63.19574 48.55321
# Shear Modulus (GPa) = 43.29062 26.45336 34.87199
#
# Velocity S-wave (km/s) = 4.40918 3.44668 3.95730
# Velocity P-wave (km/s) = 6.41481 6.64976 6.53334
#
# Compressibility (1/GPa) = 0.02948923
#
# Stress axis : x y z
#
# Youngs Moduli (GPa) = 107.47043 26.01064 139.90478
#
# Poissons Ratio (x) = 0.30890 0.20590
# Poissons Ratio (y) = 1.27631 -0.08997
# Poissons Ratio (z) = 0.15816 -0.01673
#
# Static dielectric constant tensor:
#      x y z
#    x 1.873100 0.000000 0.000000 
#    y 0.000000 1.864850 0.000000 
#    z 0.000000 0.000000 1.792670 
# 
# From -- ./inp_files/20193.got.cif
#   From: 2010.05.17/outbox.cif.g08.bks.cpg/sg72_11_cif.got.tgz:20193.got - 2010.06.03 17:03:01.
