data_PCOD9528163
_publ_section_title
;
Structure prediction by ZEFSAII (Michael W. Deem and Ramdas Pophale) SiO2 
 PCOD9528163
Probable space group: I B A M
;
_chemical_formula_sum "Si O2"
_cell_formula_units_Z 56
_cell_length_a 11.226292
_cell_length_b 15.347269
_cell_length_c 14.374962
_cell_angle_alpha 90.000000
_cell_angle_beta 90.000000
_cell_angle_gamma 90.000000
_cell_volume 2476.704224
_symmetry_space_group_name_H-M "I B A M"
_symmetry_group_IT_number 72
_symmetry_cell_setting 'orthorhombic'
loop_
_space_group_symop_operation_xyz
x,y,z
-x,-y,z
x,-y,1/2-z
-x,y,1/2-z
-x,-y,-z
x,y,-z
-x,y,1/2+z
x,-y,1/2+z
1/2+x,1/2+y,1/2+z
1/2-x,1/2-y,1/2+z
1/2+x,1/2-y,-z
1/2-x,1/2+y,-z
1/2-x,1/2-y,1/2-z
1/2+x,1/2+y,1/2-z
1/2-x,1/2+y,z
1/2+x,1/2-y,z
loop_
_atom_site_type_symbol
_atom_site_label
_atom_site_fract_x
_atom_site_fract_y
_atom_site_fract_z
Si Si1 0.308016 0.325731 0.156468
Si Si2 0.872935 0.264000 0.500000
Si Si3 0.574179 0.088939 0.500000
Si Si4 0.474155 0.399832 0.000000
Si Si5 0.874314 0.365845 0.797164
O O1 0.204701 0.287875 0.089370
O O2 0.239570 0.383150 0.232474
O O3 0.372460 0.239946 0.196223
O O4 0.397454 0.376449 0.090867
O O5 0.987718 0.326625 0.500000
O O6 0.913878 0.164908 0.500000
O O7 0.639199 0.095991 0.400807
O O8 0.500000 0.000000 0.500000
O O9 0.500000 0.500000 0.000000
O O10 0.000000 0.392766 0.750000
#
# Coordination Sequence:
#
# PCOD9528163 Si02
#       5
#    16   8   8   8  16
#     4  10  21  40  72  99 134 190 229 276 364 425
#     4  11  20  45  65  98 141 177 238 286 350 424
#     4  12  24  41  64  95 138 175 223 301 342 391
#     4  11  22  42  70 111 146 184 231 299 360 431
#     4  11  21  42  70  97 132 178 233 287 341 414
#
# _framework density 22.610693999999999
#
# number of rings (size 3 to 8) (size 9 to 14) (size 15 to 20)
#    0.000    1.143    5.714    0.857    0.000    0.571 
#   10.286    0.000    6.286    6.857    0.000    1.000 
#    0.000    0.000    0.000    0.000    0.000    0.000 
#
# Total GULP energy -156743.735469 kJ/mol
# GULP energy per Si atom -5597.990552 kJ/mol
# Density = 2.255923 g / cm^3
# Si number density = 22.610694 Si / 1000 Ang^3
#
#
#
# Elastic Constant Matrix: (Units=GPa)
#
#
# Indices 1 2 3 4 5 6 
#
# 1 46.7542 9.0036 44.6766 0.0000 0.0000 0.0000
# 2 9.0036 90.3771 14.2944 0.0000 0.0000 0.0000
# 3 44.6766 14.2944 159.0586 0.0000 0.0000 0.0000
# 4 0.0000 0.0000 0.0000 4.3994 0.0000 0.0000
# 5 0.0000 0.0000 0.0000 0.0000 -10.5003 0.0000
# 6 0.0000 0.0000 0.0000 0.0000 0.0000 11.7847
#
#
#
# Elastic Compliance Matrix: (Units=1/GPa)
#
#
# Indices 1 2 3 4 5 6 
#
# 1 0.029476 -0.001650 -0.008131 0.000000 0.000000 0.000000
# 2 -0.001650 0.011317 -0.000553 0.000000 0.000000 0.000000
# 3 -0.008131 -0.000553 0.008621 0.000000 0.000000 0.000000
# 4 0.000000 0.000000 0.000000 0.227306 0.000000 0.000000
# 5 0.000000 0.000000 0.000000 0.000000 -0.095236 0.000000
# 6 0.000000 0.000000 0.000000 0.000000 0.000000 0.084856
#
#
# Mechanical properties :
#
#
# Convention : Reuss Voigt Hill
#
# Bulk Modulus (GPa) = 34.79039 48.01545 41.40292
# Shear Modulus (GPa) = 16.85828 16.35111 16.60469
#
# Velocity S-wave (km/s) = 2.73351 2.69208 2.71287
# Velocity P-wave (km/s) = 5.03814 5.56281 5.30696
#
# Compressibility (1/GPa) = 0.02874357
#
# Stress axis : x y z
#
# Youngs Moduli (GPa) = 33.92604 88.36491 116.00194
#
# Poissons Ratio (x) = 0.14584 0.94320
# Poissons Ratio (y) = 0.05599 0.06420
# Poissons Ratio (z) = 0.27585 0.04890
#
# Static dielectric constant tensor:
#      x y z
#    x 1.832380 0.000000 0.000000 
#    y 0.000000 1.824670 0.000000 
#    z 0.000000 0.000000 1.904700 
# 
# From -- ./inp_files/19459.got.cif
#   From: 2010.05.17/outbox.cif.g08.bks.cpg/sg72_10_cif.got.tgz:19459.got - 2010.06.03 17:03:01.
