data_PCOD9528211
_publ_section_title
;
Structure prediction by ZEFSAII (Michael W. Deem and Ramdas Pophale) SiO2 
 PCOD9528211
Probable space group: I B A M
;
_chemical_formula_sum "Si O2"
_cell_formula_units_Z 116
_cell_length_a 8.977641
_cell_length_b 24.754335
_cell_length_c 25.980678
_cell_angle_alpha 90.000000
_cell_angle_beta 90.000000
_cell_angle_gamma 90.000000
_cell_volume 5773.829818
_symmetry_space_group_name_H-M "I B A M"
_symmetry_group_IT_number 72
_symmetry_cell_setting 'orthorhombic'
loop_
_space_group_symop_operation_xyz
x,y,z
-x,-y,z
x,-y,1/2-z
-x,y,1/2-z
-x,-y,-z
x,y,-z
-x,y,1/2+z
x,-y,1/2+z
1/2+x,1/2+y,1/2+z
1/2-x,1/2-y,1/2+z
1/2+x,1/2-y,-z
1/2-x,1/2+y,-z
1/2-x,1/2-y,1/2-z
1/2+x,1/2+y,1/2-z
1/2-x,1/2+y,z
1/2+x,1/2-y,z
loop_
_atom_site_type_symbol
_atom_site_label
_atom_site_fract_x
_atom_site_fract_y
_atom_site_fract_z
Si Si1 0.320402 0.282874 0.701378
Si Si2 0.446023 0.635350 0.441647
Si Si3 0.338553 0.902799 0.186503
Si Si4 0.868392 0.040417 0.610593
Si Si5 0.308313 0.052184 0.576808
Si Si6 0.000000 0.500000 0.500000
Si Si7 0.864335 0.200096 0.845464
Si Si8 0.187842 0.401968 0.699788
O O1 0.250000 0.250000 0.750000
O O2 0.245775 0.250668 0.654161
O O3 0.496592 0.285278 0.691403
O O4 0.267893 0.344235 0.702663
O O5 0.484501 0.650074 0.500000
O O6 0.559708 0.592108 0.416934
O O7 0.290312 0.602174 0.441513
O O8 0.427166 0.683271 0.400897
O O9 0.323006 0.941802 0.137935
O O10 0.231573 0.851398 0.175254
O O11 0.514204 0.889517 0.188771
O O12 0.300445 0.926064 0.242591
O O13 0.764549 0.061832 0.656399
O O14 0.781921 0.003645 0.569071
O O15 0.000000 0.000000 0.629745
O O16 0.456116 0.044333 0.545049
#
# Coordination Sequence:
#
# PCOD9528211 Si02
#       8
#    16  16  16  16  16   4  16  16
#     4  12  23  37  66  98 127 167 225 275 333 411
#     4  10  21  42  65  92 129 171 219 282 339 391
#     4  10  23  40  61  92 143 167 223 275 336 405
#     4  10  22  40  65  99 134 172 227 275 336 413
#     4  10  22  37  59  94 126 172 222 279 323 392
#     4  12  20  36  62  90 120 180 232 278 330 396
#     4  11  23  41  63  97 131 169 217 285 334 400
#     4  11  22  41  64  97 130 186 211 275 342 407
#
# _framework density 20.090651999999999
#
# number of rings (size 3 to 8) (size 9 to 14) (size 15 to 20)
#    0.000    1.379    3.448    2.069    2.897    1.379 
#    0.000    5.517    0.000    0.000    0.000    0.000 
#    0.000    0.000    0.000    0.000    0.000    0.000 
#
# Total GULP energy -323126.053180 kJ/mol
# GULP energy per Si atom -5571.138848 kJ/mol
# Density = 2.004492 g / cm^3
# Si number density = 20.090652 Si / 1000 Ang^3
#
#
#
# Elastic Constant Matrix: (Units=GPa)
#
#
# Indices 1 2 3 4 5 6 
#
# 1 102.1000 20.0214 34.0699 0.0000 0.0000 0.0000
# 2 20.0214 61.4107 33.7326 0.0000 0.0000 0.0000
# 3 34.0699 33.7326 133.4272 0.0000 0.0000 0.0000
# 4 0.0000 0.0000 0.0000 12.6508 0.0000 0.0000
# 5 0.0000 0.0000 0.0000 0.0000 -58.6399 0.0000
# 6 0.0000 0.0000 0.0000 0.0000 0.0000 32.5987
#
#
#
# Elastic Compliance Matrix: (Units=1/GPa)
#
#
# Indices 1 2 3 4 5 6 
#
# 1 0.010996 -0.002372 -0.002208 0.000000 0.000000 0.000000
# 2 -0.002372 0.019422 -0.004304 0.000000 0.000000 0.000000
# 3 -0.002208 -0.004304 0.009147 0.000000 0.000000 0.000000
# 4 0.000000 0.000000 0.000000 0.079046 0.000000 0.000000
# 5 0.000000 0.000000 0.000000 0.000000 -0.017053 0.000000
# 6 0.000000 0.000000 0.000000 0.000000 0.000000 0.030676
#
#
# Mechanical properties :
#
#
# Convention : Reuss Voigt Hill
#
# Bulk Modulus (GPa) = 45.88137 52.50951 49.19544
# Shear Modulus (GPa) = 31.79286 11.26286 21.52786
#
# Velocity S-wave (km/s) = 3.98234 2.37027 3.27698
# Velocity P-wave (km/s) = 6.63567 5.80379 6.23362
#
# Compressibility (1/GPa) = 0.02179534
#
# Stress axis : x y z
#
# Youngs Moduli (GPa) = 90.93944 51.48921 109.32822
#
# Poissons Ratio (x) = 0.12214 0.24141
# Poissons Ratio (y) = 0.21572 0.47059
# Poissons Ratio (z) = 0.20081 0.22163
#
# Static dielectric constant tensor:
#      x y z
#    x 1.790910 0.000000 0.000000 
#    y 0.000000 1.684010 0.000000 
#    z 0.000000 0.000000 1.771030 
# 
# From -- ./inp_files/42710.got.cif
#   From: 2010.05.17/outbox.cif.g08.bks.cpg/sg72_22_cif.got.tgz:42710.got - 2010.06.03 17:03:01.
