data_PCOD9528173
_publ_section_title
;
Structure prediction by ZEFSAII (Michael W. Deem and Ramdas Pophale) SiO2 
 PCOD9528173
Probable space group: I B A M
;
_chemical_formula_sum "Si O2"
_cell_formula_units_Z 88
_cell_length_a 27.662174
_cell_length_b 11.184015
_cell_length_c 15.253388
_cell_angle_alpha 90.000000
_cell_angle_beta 90.000000
_cell_angle_gamma 90.000000
_cell_volume 4719.004236
_symmetry_space_group_name_H-M "I B A M"
_symmetry_group_IT_number 72
_symmetry_cell_setting 'orthorhombic'
loop_
_space_group_symop_operation_xyz
x,y,z
-x,-y,z
x,-y,1/2-z
-x,y,1/2-z
-x,-y,-z
x,y,-z
-x,y,1/2+z
x,-y,1/2+z
1/2+x,1/2+y,1/2+z
1/2-x,1/2-y,1/2+z
1/2+x,1/2-y,-z
1/2-x,1/2+y,-z
1/2-x,1/2-y,1/2-z
1/2+x,1/2+y,1/2-z
1/2-x,1/2+y,z
1/2+x,1/2-y,z
loop_
_atom_site_type_symbol
_atom_site_label
_atom_site_fract_x
_atom_site_fract_y
_atom_site_fract_z
Si Si1 0.294643 0.889239 0.500000
Si Si2 0.143757 0.149277 0.500000
Si Si3 0.819859 0.882710 0.000000
Si Si4 0.911591 0.246607 0.162211
Si Si5 0.005540 0.861041 0.602657
Si Si6 0.860321 0.507051 0.352199
Si Si7 0.388332 0.737655 0.139200
O O1 0.318695 0.758401 0.500000
O O2 0.237616 0.872430 0.500000
O O3 0.316119 0.958968 0.584328
O O4 0.111791 0.165854 0.413243
O O5 0.168068 0.022015 0.500000
O O6 0.845670 0.823693 0.915501
O O7 0.968260 0.218011 0.158623
O O8 0.898593 0.384163 0.140559
O O9 0.887891 0.219372 0.256032
O O10 0.991894 0.852114 0.500000
O O11 0.060276 0.815937 0.610324
O O12 0.000000 0.000000 0.628781
O O13 0.845430 0.500000 0.250000
O O14 0.883591 0.380005 0.376537
#
# Coordination Sequence:
#
# PCOD9528173 Si02
#       7
#     8   8   8  16  16  16  16
#     4  10  23  42  64  86 119 166 196 263 319 365
#     4  10  22  41  59  87 118 158 205 245 311 367
#     4  12  25  39  61  92 122 156 207 258 310 367
#     4  10  21  41  64  88 126 167 201 252 309 369
#     4  11  22  37  59  90 132 169 208 250 304 371
#     4   9  21  43  65  90 125 159 210 259 311 371
#     4  11  23  39  63  94 124 162 208 260 305 368
#
# _framework density 18.648001000000001
#
# number of rings (size 3 to 8) (size 9 to 14) (size 15 to 20)
#    0.000    1.636    1.818    2.182    2.545    4.364 
#    3.273    6.364    0.000    0.000    0.000    0.000 
#    0.000    0.000    0.000    0.000    0.000    0.000 
#
# Total GULP energy -245721.342664 kJ/mol
# GULP energy per Si atom -5584.575970 kJ/mol
# Density = 1.860556 g / cm^3
# Si number density = 18.648001 Si / 1000 Ang^3
#
#
#
# Elastic Constant Matrix: (Units=GPa)
#
#
# Indices 1 2 3 4 5 6 
#
# 1 158.3042 62.8645 52.1593 0.0000 0.0000 0.0000
# 2 62.8645 85.4155 40.8499 0.0000 0.0000 0.0000
# 3 52.1593 40.8499 90.2169 0.0000 0.0000 0.0000
# 4 0.0000 0.0000 0.0000 21.3204 0.0000 0.0000
# 5 0.0000 0.0000 0.0000 0.0000 17.2990 0.0000
# 6 0.0000 0.0000 0.0000 0.0000 0.0000 12.7281
#
#
#
# Elastic Compliance Matrix: (Units=1/GPa)
#
#
# Indices 1 2 3 4 5 6 
#
# 1 0.009512 -0.005579 -0.002973 0.000000 0.000000 0.000000
# 2 -0.005579 0.018215 -0.005023 0.000000 0.000000 0.000000
# 3 -0.002973 -0.005023 0.015078 0.000000 0.000000 0.000000
# 4 0.000000 0.000000 0.000000 0.046903 0.000000 0.000000
# 5 0.000000 0.000000 0.000000 0.000000 0.057807 0.000000
# 6 0.000000 0.000000 0.000000 0.000000 0.000000 0.078566
#
#
# Mechanical properties :
#
#
# Convention : Reuss Voigt Hill
#
# Bulk Modulus (GPa) = 63.87402 71.74270 67.80836
# Shear Modulus (GPa) = 19.34616 22.14036 20.74326
#
# Velocity S-wave (km/s) = 3.22442 3.44943 3.33882
# Velocity P-wave (km/s) = 6.94186 7.37701 7.16274
#
# Compressibility (1/GPa) = 0.01565582
#
# Stress axis : x y z
#
# Youngs Moduli (GPa) = 105.13028 54.89889 66.32333
#
# Poissons Ratio (x) = 0.30626 0.19721
# Poissons Ratio (y) = 0.58649 0.33311
# Poissons Ratio (z) = 0.31259 0.27573
#
# Static dielectric constant tensor:
#      x y z
#    x 1.625410 0.000000 0.000000 
#    y 0.000000 1.630080 0.000000 
#    z 0.000000 0.000000 1.672850 
# 
# From -- ./inp_files/20620.got.cif
#   From: 2010.05.17/outbox.cif.g08.bks.cpg/sg72_11_cif.got.tgz:20620.got - 2010.06.03 17:03:01.
