data_PCOD9528025
_publ_section_title
;
Structure prediction by ZEFSAII (Michael W. Deem and Ramdas Pophale) SiO2 
 PCOD9528025
Probable space group: I B A M
;
_chemical_formula_sum "Si O2"
_cell_formula_units_Z 48
_cell_length_a 26.680921
_cell_length_b 5.180933
_cell_length_c 14.412242
_cell_angle_alpha 90.000000
_cell_angle_beta 90.000000
_cell_angle_gamma 90.000000
_cell_volume 1992.233960
_symmetry_space_group_name_H-M "I B A M"
_symmetry_group_IT_number 72
_symmetry_cell_setting 'orthorhombic'
loop_
_space_group_symop_operation_xyz
x,y,z
-x,-y,z
x,-y,1/2-z
-x,y,1/2-z
-x,-y,-z
x,y,-z
-x,y,1/2+z
x,-y,1/2+z
1/2+x,1/2+y,1/2+z
1/2-x,1/2-y,1/2+z
1/2+x,1/2-y,-z
1/2-x,1/2+y,-z
1/2-x,1/2-y,1/2-z
1/2+x,1/2+y,1/2-z
1/2-x,1/2+y,z
1/2+x,1/2-y,z
loop_
_atom_site_type_symbol
_atom_site_label
_atom_site_fract_x
_atom_site_fract_y
_atom_site_fract_z
Si Si1 0.141031 0.240817 0.000000
Si Si2 0.578710 0.252579 0.500000
Si Si3 0.055886 0.254741 0.708196
Si Si4 0.779614 0.982435 0.139415
O O1 0.173212 0.140439 0.912425
O O2 0.123574 0.538122 0.000000
O O3 0.093323 0.053588 0.000000
O O4 0.551897 0.218458 0.401713
O O5 0.083788 0.500000 0.750000
O O6 0.000000 0.253050 0.750000
O O7 0.080597 0.000000 0.750000
O O8 0.735941 0.774720 0.113854
O O9 0.786016 0.000000 0.250000
#
# Coordination Sequence:
#
# PCOD9528025 Si02
#       4
#     8   8  16  16
#     4  12  24  39  63  94 136 168 208 276 332 379
#     4  12  26  41  63 100 132 168 218 276 340 391
#     4  10  23  43  68  92 123 167 215 269 326 401
#     4  10  21  39  63  90 124 172 220 256 306 383
#
# _framework density 24.093554999999999
#
# number of rings (size 3 to 8) (size 9 to 14) (size 15 to 20)
#    0.000    1.333    0.000    5.000    0.000    9.333 
#    0.000    0.000    0.000    0.000    0.000    0.000 
#    0.000    0.000    0.000    0.000    0.000    0.000 
#
# Total GULP energy -134068.632076 kJ/mol
# GULP energy per Si atom -5586.193003 kJ/mol
# Density = 2.403872 g / cm^3
# Si number density = 24.093555 Si / 1000 Ang^3
#
#
#
# Elastic Constant Matrix: (Units=GPa)
#
#
# Indices 1 2 3 4 5 6 
#
# 1 39.1476 -3.0838 39.4041 0.0000 0.0000 0.0000
# 2 -3.0838 170.3443 35.2562 0.0000 0.0000 0.0000
# 3 39.4041 35.2562 216.7885 0.0000 0.0000 0.0000
# 4 0.0000 0.0000 0.0000 11.0967 0.0000 0.0000
# 5 0.0000 0.0000 0.0000 0.0000 37.7730 0.0000
# 6 0.0000 0.0000 0.0000 0.0000 0.0000 1.7094
#
#
#
# Elastic Compliance Matrix: (Units=1/GPa)
#
#
# Indices 1 2 3 4 5 6 
#
# 1 0.031809 0.001834 -0.006080 0.000000 0.000000 0.000000
# 2 0.001834 0.006181 -0.001339 0.000000 0.000000 0.000000
# 3 -0.006080 -0.001339 0.005936 0.000000 0.000000 0.000000
# 4 0.000000 0.000000 0.000000 0.090117 0.000000 0.000000
# 5 0.000000 0.000000 0.000000 0.000000 0.026474 0.000000
# 6 0.000000 0.000000 0.000000 0.000000 0.000000 0.584996
#
#
# Mechanical properties :
#
#
# Convention : Reuss Voigt Hill
#
# Bulk Modulus (GPa) = 30.52843 63.27037 46.89940
# Shear Modulus (GPa) = 6.51382 33.76274 20.13828
#
# Velocity S-wave (km/s) = 1.64603 3.74748 2.89422
# Velocity P-wave (km/s) = 4.03867 6.71134 5.53864
#
# Compressibility (1/GPa) = 0.03275635
#
# Stress axis : x y z
#
# Youngs Moduli (GPa) = 31.43804 161.79373 168.47538
#
# Poissons Ratio (x) = -0.29676 1.02432
# Poissons Ratio (y) = -0.05766 0.22551
# Poissons Ratio (z) = 0.19114 0.21657
#
# Static dielectric constant tensor:
#      x y z
#    x 0.971210 0.000000 0.000000 
#    y 0.000000 1.697030 0.000000 
#    z 0.000000 0.000000 1.934510 
# 
# From -- ./inp_files/17430.got.cif
#   From: 2010.05.17/outbox.cif.g08.bks.cpg/sg72_9_cif.got.tgz:17430.got - 2010.06.03 17:03:01.
