data_PCOD9528904
_publ_section_title
;
Structure prediction by ZEFSAII (Michael W. Deem and Ramdas Pophale) SiO2 
 PCOD9528904
Probable space group: I B A M
;
_chemical_formula_sum "Si O2"
_cell_formula_units_Z 96
_cell_length_a 19.468433
_cell_length_b 14.515424
_cell_length_c 17.068334
_cell_angle_alpha 90.000000
_cell_angle_beta 90.000000
_cell_angle_gamma 90.000000
_cell_volume 4823.384193
_symmetry_space_group_name_H-M "I B A M"
_symmetry_group_IT_number 72
_symmetry_cell_setting 'orthorhombic'
loop_
_space_group_symop_operation_xyz
x,y,z
-x,-y,z
x,-y,1/2-z
-x,y,1/2-z
-x,-y,-z
x,y,-z
-x,y,1/2+z
x,-y,1/2+z
1/2+x,1/2+y,1/2+z
1/2-x,1/2-y,1/2+z
1/2+x,1/2-y,-z
1/2-x,1/2+y,-z
1/2-x,1/2-y,1/2-z
1/2+x,1/2+y,1/2-z
1/2-x,1/2+y,z
1/2+x,1/2-y,z
loop_
_atom_site_type_symbol
_atom_site_label
_atom_site_fract_x
_atom_site_fract_y
_atom_site_fract_z
Si Si1 0.687450 0.744098 0.308042
Si Si2 0.935405 0.063743 0.907820
Si Si3 0.558889 0.254069 0.307072
Si Si4 0.317800 0.084485 0.593073
Si Si5 0.303742 0.532194 0.839855
Si Si6 0.977470 0.605231 0.909867
O O1 0.750000 0.750000 0.250000
O O2 0.622125 0.765699 0.251659
O O3 0.705675 0.816524 0.375734
O O4 0.685063 0.641396 0.341783
O O5 0.928036 0.162301 0.866074
O O6 0.864049 0.012306 0.890926
O O7 0.945568 0.078145 0.000000
O O8 0.000000 0.000000 0.879993
O O9 0.500000 0.289988 0.250000
O O10 0.525432 0.167772 0.354269
O O11 0.313271 0.073855 0.500000
O O12 0.398178 0.093430 0.614996
O O13 0.270586 0.005782 0.632126
O O14 0.312568 0.500000 0.750000
O O15 0.000000 0.500000 0.911294
O O16 0.979448 0.641784 0.000000
#
# Coordination Sequence:
#
# PCOD9528904 Si02
#       6
#    16  16  16  16  16  16
#     4  12  25  43  68 103 135 178 230 286 346 418
#     4  11  25  42  67  99 133 179 230 286 358 427
#     4  12  23  41  68 100 134 175 224 291 352 406
#     4  11  25  46  69  99 140 181 228 286 348 418
#     4  12  24  43  69  98 138 179 232 290 349 426
#     4  10  24  44  67  99 137 182 234 284 342 416
#
# _framework density 19.903040000000001
#
# number of rings (size 3 to 8) (size 9 to 14) (size 15 to 20)
#    0.000    0.667    5.000    2.000    2.333    1.667 
#    0.000    0.833    0.000    0.000    0.000    0.000 
#    0.000    0.000    0.000    0.000    0.000    0.000 
#
# Total GULP energy -267821.340156 kJ/mol
# GULP energy per Si atom -5579.611253 kJ/mol
# Density = 1.985774 g / cm^3
# Si number density = 19.903040 Si / 1000 Ang^3
#
#
#
# Elastic Constant Matrix: (Units=GPa)
#
#
# Indices 1 2 3 4 5 6 
#
# 1 98.3419 19.9911 20.9414 0.0000 0.0000 0.0000
# 2 19.9911 72.1996 24.1092 0.0000 0.0000 0.0000
# 3 20.9414 24.1092 53.5463 0.0000 0.0000 0.0000
# 4 0.0000 0.0000 0.0000 26.5921 0.0000 0.0000
# 5 0.0000 0.0000 0.0000 0.0000 31.7735 0.0000
# 6 0.0000 0.0000 0.0000 0.0000 0.0000 24.0091
#
#
#
# Elastic Compliance Matrix: (Units=1/GPa)
#
#
# Indices 1 2 3 4 5 6 
#
# 1 0.011321 -0.001949 -0.003550 0.000000 0.000000 0.000000
# 2 -0.001949 0.016637 -0.006728 0.000000 0.000000 0.000000
# 3 -0.003550 -0.006728 0.023093 0.000000 0.000000 0.000000
# 4 0.000000 0.000000 0.000000 0.037605 0.000000 0.000000
# 5 0.000000 0.000000 0.000000 0.000000 0.031473 0.000000
# 6 0.000000 0.000000 0.000000 0.000000 0.000000 0.041651
#
#
# Mechanical properties :
#
#
# Convention : Reuss Voigt Hill
#
# Bulk Modulus (GPa) = 37.59966 39.35237 38.47601
# Shear Modulus (GPa) = 25.62787 27.07801 26.35294
#
# Velocity S-wave (km/s) = 3.59226 3.69249 3.64272
# Velocity P-wave (km/s) = 6.01150 6.16395 6.08820
#
# Compressibility (1/GPa) = 0.02659599
#
# Stress axis : x y z
#
# Youngs Moduli (GPa) = 88.33327 60.10698 43.30273
#
# Poissons Ratio (x) = 0.11716 0.15372
# Poissons Ratio (y) = 0.17218 0.29136
# Poissons Ratio (z) = 0.31357 0.40443
#
# Static dielectric constant tensor:
#      x y z
#    x 1.723910 0.000000 0.000000 
#    y 0.000000 1.696450 0.000000 
#    z 0.000000 0.000000 1.677070 
# 
# From -- ./inp_files/24106.got.cif
#   From: 2010.05.17/outbox.cif.g08.bks.cpg/sg72_13_cif.got.tgz:24106.got - 2010.06.03 17:03:01.
