data_PCOD9528313
_publ_section_title
;
Structure prediction by ZEFSAII (Michael W. Deem and Ramdas Pophale) SiO2 
 PCOD9528313
Probable space group: I B A M
;
_chemical_formula_sum "Si O2"
_cell_formula_units_Z 96
_cell_length_a 21.040425
_cell_length_b 28.069652
_cell_length_c 8.573403
_cell_angle_alpha 90.000000
_cell_angle_beta 90.000000
_cell_angle_gamma 90.000000
_cell_volume 5063.429587
_symmetry_space_group_name_H-M "I B A M"
_symmetry_group_IT_number 72
_symmetry_cell_setting 'orthorhombic'
loop_
_space_group_symop_operation_xyz
x,y,z
-x,-y,z
x,-y,1/2-z
-x,y,1/2-z
-x,-y,-z
x,y,-z
-x,y,1/2+z
x,-y,1/2+z
1/2+x,1/2+y,1/2+z
1/2-x,1/2-y,1/2+z
1/2+x,1/2-y,-z
1/2-x,1/2+y,-z
1/2-x,1/2-y,1/2-z
1/2+x,1/2+y,1/2-z
1/2-x,1/2+y,z
1/2+x,1/2-y,z
loop_
_atom_site_type_symbol
_atom_site_label
_atom_site_fract_x
_atom_site_fract_y
_atom_site_fract_z
Si Si1 0.569359 0.446725 0.686467
Si Si2 0.568595 0.790134 0.311845
Si Si3 0.685083 0.384572 0.187594
Si Si4 0.800069 0.552596 0.812369
Si Si5 0.568574 0.900522 0.312172
Si Si6 0.313616 0.725776 0.188442
O O1 0.581819 0.500000 0.750000
O O2 0.500000 0.432313 0.750000
O O3 0.568059 0.448064 0.500000
O O4 0.624231 0.412150 0.746095
O O5 0.500000 0.774636 0.250000
O O6 0.567407 0.789585 0.500000
O O7 0.578333 0.845281 0.262670
O O8 0.625354 0.756141 0.258323
O O9 0.748204 0.410477 0.249203
O O10 0.683556 0.329342 0.236393
O O11 0.684089 0.386963 0.000000
O O12 0.785830 0.500000 0.750000
O O13 0.870836 0.568734 0.761898
O O14 0.797670 0.552641 0.000000
O O15 0.500000 0.916546 0.250000
O O16 0.566398 0.901330 0.500000
O O17 0.250000 0.750000 0.250000
O O18 0.312852 0.727055 0.000000
#
# Coordination Sequence:
#
# PCOD9528313 Si02
#       6
#    16  16  16  16  16  16
#     4  11  22  39  62  87 116 151 189 234 284 340
#     4   9  18  35  56  81 110 143 181 223 269 323
#     4  11  23  39  58  84 115 150 191 236 283 337
#     4  11  23  39  58  82 111 147 187 233 284 337
#     4   9  19  35  57  81 110 145 183 225 274 329
#     4  10  22  38  58  83 114 148 188 234 280 331
#
# _framework density 18.959482000000001
#
# number of rings (size 3 to 8) (size 9 to 14) (size 15 to 20)
#    0.000    1.833    0.000    4.500    0.000    5.667 
#    0.000    6.667    0.000    0.000    0.000    0.000 
#    0.000    0.000    0.000    0.000    0.000    0.000 
#
# Total GULP energy -268240.074017 kJ/mol
# GULP energy per Si atom -5588.334875 kJ/mol
# Density = 1.891633 g / cm^3
# Si number density = 18.959482 Si / 1000 Ang^3
#
#
#
# Elastic Constant Matrix: (Units=GPa)
#
#
# Indices 1 2 3 4 5 6 
#
# 1 76.6054 12.6098 13.6924 0.0000 0.0000 0.0000
# 2 12.6098 30.7284 11.5731 0.0000 0.0000 0.0000
# 3 13.6924 11.5731 50.2092 0.0000 0.0000 0.0000
# 4 0.0000 0.0000 0.0000 21.2477 0.0000 0.0000
# 5 0.0000 0.0000 0.0000 0.0000 37.1383 0.0000
# 6 0.0000 0.0000 0.0000 0.0000 0.0000 42.3306
#
#
#
# Elastic Compliance Matrix: (Units=1/GPa)
#
#
# Indices 1 2 3 4 5 6 
#
# 1 0.014350 -0.004835 -0.002799 0.000000 0.000000 0.000000
# 2 -0.004835 0.037266 -0.007271 0.000000 0.000000 0.000000
# 3 -0.002799 -0.007271 0.022356 0.000000 0.000000 0.000000
# 4 0.000000 0.000000 0.000000 0.047064 0.000000 0.000000
# 5 0.000000 0.000000 0.000000 0.000000 0.026926 0.000000
# 6 0.000000 0.000000 0.000000 0.000000 0.000000 0.023624
#
#
# Mechanical properties :
#
#
# Convention : Reuss Voigt Hill
#
# Bulk Modulus (GPa) = 22.64386 25.92152 24.28269
# Shear Modulus (GPa) = 23.13574 28.12116 25.62845
#
# Velocity S-wave (km/s) = 3.49703 3.85544 3.68060
# Velocity P-wave (km/s) = 5.31741 5.78973 5.55859
#
# Compressibility (1/GPa) = 0.04416208
#
# Stress axis : x y z
#
# Youngs Moduli (GPa) = 69.68639 26.83434 44.73077
#
# Poissons Ratio (x) = 0.12973 0.12520
# Poissons Ratio (y) = 0.33690 0.32525
# Poissons Ratio (z) = 0.19505 0.19512
#
# Static dielectric constant tensor:
#      x y z
#    x 1.636710 0.000000 0.000000 
#    y 0.000000 1.638370 0.000000 
#    z 0.000000 0.000000 1.720240 
# 
# From -- ./inp_files/6004.got.cif
#   From: 2010.05.17/outbox.cif.g08.bks.cpg/sg72_4_cif.got.tgz:6004.got - 2010.06.03 17:03:01.
