data_PCOD9528179
_publ_section_title
;
Structure prediction by ZEFSAII (Michael W. Deem and Ramdas Pophale) SiO2 
 PCOD9528179
Probable space group: I B A M
;
_chemical_formula_sum "Si O2"
_cell_formula_units_Z 72
_cell_length_a 12.371050
_cell_length_b 17.341596
_cell_length_c 17.342628
_cell_angle_alpha 90.000000
_cell_angle_beta 90.000000
_cell_angle_gamma 90.000000
_cell_volume 3720.579040
_symmetry_space_group_name_H-M "I B A M"
_symmetry_group_IT_number 72
_symmetry_cell_setting 'orthorhombic'
loop_
_space_group_symop_operation_xyz
x,y,z
-x,-y,z
x,-y,1/2-z
-x,y,1/2-z
-x,-y,-z
x,y,-z
-x,y,1/2+z
x,-y,1/2+z
1/2+x,1/2+y,1/2+z
1/2-x,1/2-y,1/2+z
1/2+x,1/2-y,-z
1/2-x,1/2+y,-z
1/2-x,1/2-y,1/2-z
1/2+x,1/2+y,1/2-z
1/2-x,1/2+y,z
1/2+x,1/2-y,z
loop_
_atom_site_type_symbol
_atom_site_label
_atom_site_fract_x
_atom_site_fract_y
_atom_site_fract_z
Si Si1 0.904702 0.391289 0.000000
Si Si2 0.182400 0.116504 0.382566
Si Si3 0.887160 0.862631 0.784860
Si Si4 0.500000 0.500000 0.126311
Si Si5 0.255412 0.213574 0.914604
Si Si6 0.140254 0.428860 0.000000
O O1 0.843859 0.353254 0.072631
O O2 0.886042 0.481533 0.000000
O O3 0.031949 0.378831 0.000000
O O4 0.182497 0.115739 0.289985
O O5 0.180050 0.207001 0.403106
O O6 0.288760 0.087915 0.424945
O O7 0.083317 0.061796 0.410430
O O8 0.825338 0.808752 0.845849
O O9 0.000000 0.828962 0.750000
O O10 0.923625 0.941899 0.825900
O O11 0.200278 0.217746 0.000000
#
# Coordination Sequence:
#
# PCOD9528179 Si02
#       6
#     8  16  16   8  16   8
#     4   9  23  40  60  77 129 171 220 255 330 384
#     4  11  21  39  64  92 129 155 217 266 332 396
#     4  10  21  41  65  97 131 167 210 277 336 396
#     4  10  23  41  66 101 128 161 210 285 341 400
#     4  10  22  43  61  91 131 177 213 268 330 402
#     4  11  21  39  56  90 117 170 212 277 308 399
#
# _framework density 19.351827
#
# number of rings (size 3 to 8) (size 9 to 14) (size 15 to 20)
#    0.667    1.111    1.111    5.000    0.000    4.000 
#    8.000    1.111    0.000    2.667    0.000    0.000 
#    0.000    0.000    0.000    0.000    0.000    0.000 
#
# Total GULP energy -200418.141095 kJ/mol
# GULP energy per Si atom -5567.170586 kJ/mol
# Density = 1.930778 g / cm^3
# Si number density = 19.351827 Si / 1000 Ang^3
#
#
#
# Elastic Constant Matrix: (Units=GPa)
#
#
# Indices 1 2 3 4 5 6 
#
# 1 113.8222 38.4313 63.8477 0.0000 0.0000 0.0000
# 2 38.4313 95.4707 25.6235 0.0000 0.0000 0.0000
# 3 63.8477 25.6235 124.5582 0.0000 0.0000 0.0000
# 4 0.0000 0.0000 0.0000 14.5955 0.0000 0.0000
# 5 0.0000 0.0000 0.0000 0.0000 42.9457 0.0000
# 6 0.0000 0.0000 0.0000 0.0000 0.0000 20.8410
#
#
#
# Elastic Compliance Matrix: (Units=1/GPa)
#
#
# Indices 1 2 3 4 5 6 
#
# 1 0.013514 -0.003790 -0.006147 0.000000 0.000000 0.000000
# 2 -0.003790 0.012149 -0.000557 0.000000 0.000000 0.000000
# 3 -0.006147 -0.000557 0.011294 0.000000 0.000000 0.000000
# 4 0.000000 0.000000 0.000000 0.068514 0.000000 0.000000
# 5 0.000000 0.000000 0.000000 0.000000 0.023285 0.000000
# 6 0.000000 0.000000 0.000000 0.000000 0.000000 0.047982
#
#
# Mechanical properties :
#
#
# Convention : Reuss Voigt Hill
#
# Bulk Modulus (GPa) = 62.62054 65.51733 64.06894
# Shear Modulus (GPa) = 24.62455 29.40636 27.01546
#
# Velocity S-wave (km/s) = 3.57103 3.90239 3.74038
# Velocity P-wave (km/s) = 7.03081 7.36439 7.19953
#
# Compressibility (1/GPa) = 0.01596920
#
# Stress axis : x y z
#
# Youngs Moduli (GPa) = 73.99968 82.30837 88.54287
#
# Poissons Ratio (x) = 0.31194 0.54430
# Poissons Ratio (y) = 0.28045 0.04928
# Poissons Ratio (z) = 0.45490 0.04581
#
# Static dielectric constant tensor:
#      x y z
#    x 1.694640 0.000000 0.000000 
#    y 0.000000 1.682730 0.000000 
#    z 0.000000 0.000000 1.704010 
# 
# From -- ./inp_files/29099.got.cif
#   From: 2010.05.17/outbox.cif.g08.bks.cpg/sg72_15_cif.got.tgz:29099.got - 2010.06.03 17:03:01.
