data_PCOD9528952
_publ_section_title
;
Structure prediction by ZEFSAII (Michael W. Deem and Ramdas Pophale) SiO2 
 PCOD9528952
Probable space group: I B A M
;
_chemical_formula_sum "Si O2"
_cell_formula_units_Z 60
_cell_length_a 11.134492
_cell_length_b 23.742987
_cell_length_c 9.824728
_cell_angle_alpha 90.000000
_cell_angle_beta 90.000000
_cell_angle_gamma 90.000000
_cell_volume 2597.325013
_symmetry_space_group_name_H-M "I B A M"
_symmetry_group_IT_number 72
_symmetry_cell_setting 'orthorhombic'
loop_
_space_group_symop_operation_xyz
x,y,z
-x,-y,z
x,-y,1/2-z
-x,y,1/2-z
-x,-y,-z
x,y,-z
-x,y,1/2+z
x,-y,1/2+z
1/2+x,1/2+y,1/2+z
1/2-x,1/2-y,1/2+z
1/2+x,1/2-y,-z
1/2-x,1/2+y,-z
1/2-x,1/2-y,1/2-z
1/2+x,1/2+y,1/2-z
1/2-x,1/2+y,z
1/2+x,1/2-y,z
loop_
_atom_site_type_symbol
_atom_site_label
_atom_site_fract_x
_atom_site_fract_y
_atom_site_fract_z
Si Si1 0.905488 0.713172 0.850272
Si Si2 0.814577 0.915378 0.000000
Si Si3 0.334401 0.972620 0.000000
Si Si4 0.000000 0.500000 0.250000
Si Si5 0.664530 0.663691 0.757376
Si Si6 0.419180 0.405419 0.000000
O O1 0.783026 0.679526 0.841993
O O2 0.879075 0.776746 0.801846
O O3 0.000000 0.686245 0.750000
O O4 0.957151 0.714923 0.000000
O O5 0.803195 0.877147 0.133698
O O6 0.715752 0.963572 0.000000
O O7 0.953262 0.937719 0.000000
O O8 0.413755 0.966857 0.860376
O O9 0.209012 0.937545 0.000000
O O10 0.579473 0.633657 0.866396
#
# Coordination Sequence:
#
# PCOD9528952 Si02
#       6
#    16   8   8   4  16   8
#     4  11  24  43  66  97 137 184 230 286 336 411
#     4  12  24  44  71 106 131 182 233 289 342 407
#     4  11  25  48  74 102 137 179 226 280 348 407
#     4  10  24  50  70  98 136 186 208 284 344 418
#     4  11  25  42  64 100 140 176 230 281 353 400
#     4  12  24  46  69 102 135 180 231 291 342 405
#
# _framework density 23.100691999999999
#
# number of rings (size 3 to 8) (size 9 to 14) (size 15 to 20)
#    0.000    0.800    2.667    4.400    3.733    0.000 
#   14.400    4.000    0.000    0.000    0.000    0.000 
#    0.000    0.000    0.000    0.000    0.000    0.000 
#
# Total GULP energy -167780.498383 kJ/mol
# GULP energy per Si atom -5592.683279 kJ/mol
# Density = 2.304811 g / cm^3
# Si number density = 23.100692 Si / 1000 Ang^3
#
#
#
# Elastic Constant Matrix: (Units=GPa)
#
#
# Indices 1 2 3 4 5 6 
#
# 1 99.7748 17.1369 31.3785 0.0001 0.0000 0.0000
# 2 17.1369 60.5841 19.3807 0.0002 0.0000 -0.0001
# 3 31.3785 19.3807 185.4712 0.0007 -0.0001 -0.0003
# 4 0.0001 0.0002 0.0007 15.1220 0.0000 -0.0001
# 5 0.0000 0.0000 -0.0001 0.0000 45.4958 0.0000
# 6 0.0000 -0.0001 -0.0003 -0.0001 0.0000 20.4623
#
#
#
# Elastic Compliance Matrix: (Units=1/GPa)
#
#
# Indices 1 2 3 4 5 6 
#
# 1 0.010967 -0.002595 -0.001584 0.000000 0.000000 0.000000
# 2 -0.002595 0.017691 -0.001410 0.000000 0.000000 0.000000
# 3 -0.001584 -0.001410 0.005807 0.000000 0.000000 0.000000
# 4 0.000000 0.000000 0.000000 0.066129 0.000000 0.000000
# 5 0.000000 0.000000 0.000000 0.000000 0.021980 0.000000
# 6 0.000000 0.000000 0.000000 0.000000 0.000000 0.048870
#
#
# Mechanical properties :
#
#
# Convention : Reuss Voigt Hill
#
# Bulk Modulus (GPa) = 42.94314 53.51362 48.22838
# Shear Modulus (GPa) = 26.26278 34.74497 30.50387
#
# Velocity S-wave (km/s) = 3.37543 3.88244 3.63778
# Velocity P-wave (km/s) = 5.81560 6.58129 6.21026
#
# Compressibility (1/GPa) = 0.02328661
#
# Stress axis : x y z
#
# Youngs Moduli (GPa) = 91.18662 56.52594 172.20675
#
# Poissons Ratio (x) = 0.14670 0.27280
# Poissons Ratio (y) = 0.23665 0.24273
# Poissons Ratio (z) = 0.14445 0.07968
#
# Static dielectric constant tensor:
#      x y z
#    x 1.942070 0.000000 0.000000 
#    y 0.000000 1.823800 0.000000 
#    z 0.000000 0.000000 1.792960 
# 
# From -- ./inp_files/2437.got.cif
#   From: 2010.05.17/outbox.cif.g08.bks.cpg/sg72_2_cif.got.tgz:2437.got - 2010.06.03 17:03:01.
