data_PCOD9528226
_publ_section_title
;
Structure prediction by ZEFSAII (Michael W. Deem and Ramdas Pophale) SiO2 
 PCOD9528226
Probable space group: I B A M
;
_chemical_formula_sum "Si O2"
_cell_formula_units_Z 88
_cell_length_a 21.324150
_cell_length_b 8.288367
_cell_length_c 20.490419
_cell_angle_alpha 90.000000
_cell_angle_beta 90.000000
_cell_angle_gamma 90.000000
_cell_volume 3621.525445
_symmetry_space_group_name_H-M "I B A M"
_symmetry_group_IT_number 72
_symmetry_cell_setting 'orthorhombic'
loop_
_space_group_symop_operation_xyz
x,y,z
-x,-y,z
x,-y,1/2-z
-x,y,1/2-z
-x,-y,-z
x,y,-z
-x,y,1/2+z
x,-y,1/2+z
1/2+x,1/2+y,1/2+z
1/2-x,1/2-y,1/2+z
1/2+x,1/2-y,-z
1/2-x,1/2+y,-z
1/2-x,1/2-y,1/2-z
1/2+x,1/2+y,1/2-z
1/2-x,1/2+y,z
1/2+x,1/2-y,z
loop_
_atom_site_type_symbol
_atom_site_label
_atom_site_fract_x
_atom_site_fract_y
_atom_site_fract_z
Si Si1 0.266420 0.504876 0.000000
Si Si2 0.857066 0.321670 0.000000
Si Si3 0.397336 0.779399 0.644230
Si Si4 0.724356 0.955833 0.822237
Si Si5 0.000000 0.279964 0.750000
Si Si6 0.181128 0.780051 0.383954
Si Si7 0.560855 0.575645 0.636513
O O1 0.190013 0.522106 0.000000
O O2 0.286423 0.616820 0.060278
O O3 0.309773 0.340415 0.000000
O O4 0.899254 0.319275 0.066116
O O5 0.326210 0.822236 0.659433
O O6 0.448409 0.854646 0.696908
O O7 0.403849 0.588792 0.651507
O O8 0.793648 0.882390 0.822353
O O9 0.707197 0.000000 0.750000
O O10 0.708543 0.105495 0.869569
O O11 0.961189 0.167516 0.701016
O O12 0.107676 0.797815 0.396098
O O13 0.500000 0.500000 0.600667
#
# Coordination Sequence:
#
# PCOD9528226 Si02
#       7
#     8   8  16  16   8  16  16
#     4  12  24  44  68 102 155 190 236 303 379 467
#     4  12  24  42  72 108 151 196 246 305 391 453
#     4  11  22  43  68 106 140 194 242 305 374 448
#     4  12  26  41  67 103 144 186 243 315 377 449
#     4  10  23  44  73  98 145 190 249 316 367 436
#     4  12  24  43  66 103 142 191 243 301 381 449
#     4  10  21  42  69  97 137 188 240 298 363 436
#
# _framework density 24.299153
#
# number of rings (size 3 to 8) (size 9 to 14) (size 15 to 20)
#    0.000    0.727    3.636    6.273    0.000    2.909 
#    0.000   16.818    0.000    0.000    0.000   16.545 
#    0.000    0.000    0.000    0.000    0.000    0.000 
#
# Total GULP energy -245157.560227 kJ/mol
# GULP energy per Si atom -5571.762732 kJ/mol
# Density = 2.424385 g / cm^3
# Si number density = 24.299153 Si / 1000 Ang^3
#
#
#
# Elastic Constant Matrix: (Units=GPa)
#
#
# Indices 1 2 3 4 5 6 
#
# 1 118.7349 33.5482 22.7346 0.0000 0.0000 0.0000
# 2 33.5482 69.6834 -6.9544 0.0000 0.0000 0.0000
# 3 22.7346 -6.9544 102.2022 0.0000 0.0000 0.0000
# 4 0.0000 0.0000 0.0000 24.6219 0.0000 0.0000
# 5 0.0000 0.0000 0.0000 0.0000 24.9215 0.0000
# 6 0.0000 0.0000 0.0000 0.0000 0.0000 39.9650
#
#
#
# Elastic Compliance Matrix: (Units=1/GPa)
#
#
# Indices 1 2 3 4 5 6 
#
# 1 0.010430 -0.005289 -0.002680 0.000000 0.000000 0.000000
# 2 -0.005289 0.017130 0.002342 0.000000 0.000000 0.000000
# 3 -0.002680 0.002342 0.010540 0.000000 0.000000 0.000000
# 4 0.000000 0.000000 0.000000 0.040614 0.000000 0.000000
# 5 0.000000 0.000000 0.000000 0.000000 0.040126 0.000000
# 6 0.000000 0.000000 0.000000 0.000000 0.000000 0.025022
#
#
# Mechanical properties :
#
#
# Convention : Reuss Voigt Hill
#
# Bulk Modulus (GPa) = 37.24779 43.25304 40.25041
# Shear Modulus (GPa) = 30.47589 33.98782 32.23185
#
# Velocity S-wave (km/s) = 3.54530 3.74401 3.64601
# Velocity P-wave (km/s) = 5.66754 6.04392 5.85876
#
# Compressibility (1/GPa) = 0.02684723
#
# Stress axis : x y z
#
# Youngs Moduli (GPa) = 95.88157 58.37543 94.87641
#
# Poissons Ratio (x) = 0.30873 0.25426
# Poissons Ratio (y) = 0.50708 -0.22221
# Poissons Ratio (z) = 0.25695 -0.13672
#
# Static dielectric constant tensor:
#      x y z
#    x 2.044110 0.000000 0.000000 
#    y 0.000000 1.941980 0.000000 
#    z 0.000000 0.000000 2.069860 
# 
# From -- ./inp_files/40191.got.cif
#   From: 2010.05.17/outbox.cif.g08.bks.cpg/sg72_21_cif.got.tgz:40191.got - 2010.06.03 17:03:01.
