data_PCOD9528558
_publ_section_title
;
Structure prediction by ZEFSAII (Michael W. Deem and Ramdas Pophale) SiO2 
 PCOD9528558
Probable space group: I B A M
;
_chemical_formula_sum "Si O2"
_cell_formula_units_Z 64
_cell_length_a 8.140188
_cell_length_b 20.702667
_cell_length_c 18.061583
_cell_angle_alpha 90.000000
_cell_angle_beta 90.000000
_cell_angle_gamma 90.000000
_cell_volume 3043.803016
_symmetry_space_group_name_H-M "I B A M"
_symmetry_group_IT_number 72
_symmetry_cell_setting 'orthorhombic'
loop_
_space_group_symop_operation_xyz
x,y,z
-x,-y,z
x,-y,1/2-z
-x,y,1/2-z
-x,-y,-z
x,y,-z
-x,y,1/2+z
x,-y,1/2+z
1/2+x,1/2+y,1/2+z
1/2-x,1/2-y,1/2+z
1/2+x,1/2-y,-z
1/2-x,1/2+y,-z
1/2-x,1/2-y,1/2-z
1/2+x,1/2+y,1/2-z
1/2-x,1/2+y,z
1/2+x,1/2-y,z
loop_
_atom_site_type_symbol
_atom_site_label
_atom_site_fract_x
_atom_site_fract_y
_atom_site_fract_z
Si Si1 0.263924 0.789956 0.173611
Si Si2 0.000000 0.609627 0.250000
Si Si3 0.064518 0.823447 0.588651
Si Si4 0.000000 0.500000 0.640473
Si Si5 0.163826 0.966829 0.412126
O O1 0.250000 0.750000 0.250000
O O2 0.383603 0.846428 0.200200
O O3 0.333877 0.739664 0.113407
O O4 0.098845 0.818746 0.138742
O O5 0.934770 0.558645 0.309441
O O6 0.031528 0.821888 0.500000
O O7 0.158209 0.890275 0.607723
O O8 0.170833 0.509863 0.597966
O O9 0.142554 0.964453 0.500000
O O10 0.000000 0.000000 0.378796
#
# Coordination Sequence:
#
# PCOD9528558 Si02
#       5
#    16   8  16   8  16
#     4  12  22  42  65  95 138 180 226 288 350 414
#     4  11  24  40  64  96 131 174 228 278 337 410
#     4  11  24  41  66 101 137 182 236 288 354 424
#     4  11  23  42  66  96 131 171 230 280 333 418
#     4  10  22  42  66  96 132 173 223 281 347 411
#
# _framework density 21.026329
#
# number of rings (size 3 to 8) (size 9 to 14) (size 15 to 20)
#    0.000    1.000    2.500    4.125    0.000    0.000 
#    0.000   10.000    0.000    0.000    0.000    0.000 
#    0.000    0.000    0.000    0.000    0.000    0.000 
#
# Total GULP energy -178145.225973 kJ/mol
# GULP energy per Si atom -5567.038312 kJ/mol
# Density = 2.097847 g / cm^3
# Si number density = 21.026329 Si / 1000 Ang^3
#
#
#
# Elastic Constant Matrix: (Units=GPa)
#
#
# Indices 1 2 3 4 5 6 
#
# 1 114.1487 25.4065 29.3834 0.0000 0.0000 0.0000
# 2 25.4065 92.1283 32.4535 0.0000 0.0000 0.0000
# 3 29.3834 32.4535 89.4017 0.0000 0.0000 0.0000
# 4 0.0000 0.0000 0.0000 38.6377 0.0000 0.0000
# 5 0.0000 0.0000 0.0000 0.0000 47.1313 0.0000
# 6 0.0000 0.0000 0.0000 0.0000 0.0000 32.2986
#
#
#
# Elastic Compliance Matrix: (Units=1/GPa)
#
#
# Indices 1 2 3 4 5 6 
#
# 1 0.009824 -0.001802 -0.002575 0.000000 0.000000 0.000000
# 2 -0.001802 0.012777 -0.004046 0.000000 0.000000 0.000000
# 3 -0.002575 -0.004046 0.013500 0.000000 0.000000 0.000000
# 4 0.000000 0.000000 0.000000 0.025881 0.000000 0.000000
# 5 0.000000 0.000000 0.000000 0.000000 0.021217 0.000000
# 6 0.000000 0.000000 0.000000 0.000000 0.000000 0.030961
#
#
# Mechanical properties :
#
#
# Convention : Reuss Voigt Hill
#
# Bulk Modulus (GPa) = 51.93196 52.24060 52.08628
# Shear Modulus (GPa) = 36.38344 37.50921 36.94632
#
# Velocity S-wave (km/s) = 4.16429 4.22823 4.19638
# Velocity P-wave (km/s) = 6.91910 6.98115 6.95019
#
# Compressibility (1/GPa) = 0.01925596
#
# Stress axis : x y z
#
# Youngs Moduli (GPa) = 101.78727 78.26810 74.07254
#
# Poissons Ratio (x) = 0.14107 0.19071
# Poissons Ratio (y) = 0.18345 0.29967
# Poissons Ratio (z) = 0.26207 0.31664
#
# Static dielectric constant tensor:
#      x y z
#    x 2.582730 0.000000 0.000000 
#    y 0.000000 1.703620 0.000000 
#    z 0.000000 0.000000 1.797840 
# 
# From -- ./inp_files/27687.got.cif
#   From: 2010.05.17/outbox.cif.g08.bks.cpg/sg72_14_cif.got.tgz:27687.got - 2010.06.03 17:03:01.
