data_PCOD9528562
_publ_section_title
;
Structure prediction by ZEFSAII (Michael W. Deem and Ramdas Pophale) SiO2 
 PCOD9528562
Probable space group: I B A M
;
_chemical_formula_sum "Si O2"
_cell_formula_units_Z 80
_cell_length_a 8.140418
_cell_length_b 17.933249
_cell_length_c 24.603544
_cell_angle_alpha 90.000000
_cell_angle_beta 90.000000
_cell_angle_gamma 90.000000
_cell_volume 3591.727285
_symmetry_space_group_name_H-M "I B A M"
_symmetry_group_IT_number 72
_symmetry_cell_setting 'orthorhombic'
loop_
_space_group_symop_operation_xyz
x,y,z
-x,-y,z
x,-y,1/2-z
-x,y,1/2-z
-x,-y,-z
x,y,-z
-x,y,1/2+z
x,-y,1/2+z
1/2+x,1/2+y,1/2+z
1/2-x,1/2-y,1/2+z
1/2+x,1/2-y,-z
1/2-x,1/2+y,-z
1/2-x,1/2-y,1/2-z
1/2+x,1/2+y,1/2-z
1/2-x,1/2+y,z
1/2+x,1/2-y,z
loop_
_atom_site_type_symbol
_atom_site_label
_atom_site_fract_x
_atom_site_fract_y
_atom_site_fract_z
Si Si1 0.164963 0.548917 0.062119
Si Si2 0.119723 0.801494 0.878890
Si Si3 0.555087 0.190340 0.939889
Si Si4 0.660281 0.815031 0.783850
Si Si5 0.105384 0.068341 0.164556
O O1 0.296342 0.541250 0.110301
O O2 0.000000 0.500000 0.071324
O O3 0.095236 0.632957 0.063676
O O4 0.223133 0.532840 0.000000
O O5 0.301284 0.823462 0.896863
O O6 0.121869 0.729438 0.839432
O O7 0.015182 0.772481 0.929927
O O8 0.024722 0.868178 0.851432
O O9 0.626208 0.182219 0.000000
O O10 0.500000 0.835991 0.750000
O O11 0.750000 0.750000 0.750000
O O12 0.768258 0.887652 0.796644
O O13 0.000000 0.000000 0.186882
#
# Coordination Sequence:
#
# PCOD9528562 Si02
#       5
#    16  16  16  16  16
#     4  10  22  42  67 102 152 203 241 291 370 442
#     4  12  22  42  68 102 143 185 245 303 367 435
#     4  11  21  36  64 102 145 194 248 297 356 443
#     4  12  24  47  78 102 138 196 245 309 382 440
#     4  12  26  45  74 110 149 187 247 310 368 446
#
# _framework density 22.273405
#
# number of rings (size 3 to 8) (size 9 to 14) (size 15 to 20)
#    0.000    0.600    6.000    1.800    0.000    3.600 
#    0.000    2.000    0.000    0.000    0.000    0.000 
#    0.000    0.000    0.000    0.000    0.000    0.000 
#
# Total GULP energy -223722.587427 kJ/mol
# GULP energy per Si atom -5593.064686 kJ/mol
# Density = 2.222271 g / cm^3
# Si number density = 22.273405 Si / 1000 Ang^3
#
#
#
# Elastic Constant Matrix: (Units=GPa)
#
#
# Indices 1 2 3 4 5 6 
#
# 1 117.0220 39.9177 54.8797 0.0000 0.0000 0.0000
# 2 39.9177 119.5341 34.3657 0.0000 0.0000 0.0000
# 3 54.8797 34.3657 109.0516 0.0000 0.0000 0.0000
# 4 0.0000 0.0000 0.0000 20.2574 0.0000 0.0000
# 5 0.0000 0.0000 0.0000 0.0000 35.2260 0.0000
# 6 0.0000 0.0000 0.0000 0.0000 0.0000 51.3373
#
#
#
# Elastic Compliance Matrix: (Units=1/GPa)
#
#
# Indices 1 2 3 4 5 6 
#
# 1 0.011807 -0.002457 -0.005167 0.000000 0.000000 0.000000
# 2 -0.002457 0.009711 -0.001824 0.000000 0.000000 0.000000
# 3 -0.005167 -0.001824 0.012345 0.000000 0.000000 0.000000
# 4 0.000000 0.000000 0.000000 0.049365 0.000000 0.000000
# 5 0.000000 0.000000 0.000000 0.000000 0.028388 0.000000
# 6 0.000000 0.000000 0.000000 0.000000 0.000000 0.019479
#
#
# Mechanical properties :
#
#
# Convention : Reuss Voigt Hill
#
# Bulk Modulus (GPa) = 66.81685 67.10375 66.96030
# Shear Modulus (GPa) = 32.26227 35.79376 34.02802
#
# Velocity S-wave (km/s) = 3.81000 4.01311 3.91287
# Velocity P-wave (km/s) = 7.02982 7.18792 7.10931
#
# Compressibility (1/GPa) = 0.01496629
#
# Stress axis : x y z
#
# Youngs Moduli (GPa) = 84.69571 102.97957 81.00367
#
# Poissons Ratio (x) = 0.25305 0.41858
# Poissons Ratio (y) = 0.20812 0.14771
# Poissons Ratio (z) = 0.43766 0.18779
#
# Static dielectric constant tensor:
#      x y z
#    x 1.822210 0.000000 0.000000 
#    y 0.000000 1.829750 0.000000 
#    z 0.000000 0.000000 1.931340 
# 
# From -- ./inp_files/47181.got.cif
#   From: 2010.05.17/outbox.cif.g08.bks.cpg/sg72_24_cif.got.tgz:47181.got - 2010.06.03 17:03:01.
