data_PCOD9528599
_publ_section_title
;
Structure prediction by ZEFSAII (Michael W. Deem and Ramdas Pophale) SiO2 
 PCOD9528599
Probable space group: I B A M
;
_chemical_formula_sum "Si O2"
_cell_formula_units_Z 88
_cell_length_a 9.008947
_cell_length_b 15.256560
_cell_length_c 27.712553
_cell_angle_alpha 90.000000
_cell_angle_beta 90.000000
_cell_angle_gamma 90.000000
_cell_volume 3808.966824
_symmetry_space_group_name_H-M "I B A M"
_symmetry_group_IT_number 72
_symmetry_cell_setting 'orthorhombic'
loop_
_space_group_symop_operation_xyz
x,y,z
-x,-y,z
x,-y,1/2-z
-x,y,1/2-z
-x,-y,-z
x,y,-z
-x,y,1/2+z
x,-y,1/2+z
1/2+x,1/2+y,1/2+z
1/2-x,1/2-y,1/2+z
1/2+x,1/2-y,-z
1/2-x,1/2+y,-z
1/2-x,1/2-y,1/2-z
1/2+x,1/2+y,1/2-z
1/2-x,1/2+y,z
1/2+x,1/2-y,z
loop_
_atom_site_type_symbol
_atom_site_label
_atom_site_fract_x
_atom_site_fract_y
_atom_site_fract_z
Si Si1 0.676055 0.498270 0.410724
Si Si2 0.192128 0.126163 0.500000
Si Si3 0.500000 0.281508 0.750000
Si Si4 0.267780 0.740601 0.184776
Si Si5 0.866017 0.338788 0.907908
Si Si6 0.397917 0.074226 0.664630
Si Si7 0.028031 0.742739 0.500000
O O1 0.500000 0.500000 0.405276
O O2 0.718687 0.429837 0.452338
O O3 0.745948 0.591096 0.425343
O O4 0.758478 0.471125 0.361494
O O5 0.020888 0.156513 0.500000
O O6 0.304669 0.208419 0.500000
O O7 0.607231 0.322469 0.791430
O O8 0.620786 0.233197 0.716733
O O9 0.221661 0.723130 0.129873
O O10 0.332688 0.839094 0.189593
O O11 0.950026 0.293790 0.951699
O O12 0.990794 0.388835 0.876535
O O13 0.500000 0.000000 0.690283
#
# Coordination Sequence:
#
# PCOD9528599 Si02
#       7
#    16   8   8  16  16  16   8
#     4  11  25  41  66  94 138 190 233 299 350 415
#     4  12  26  43  62  96 143 183 252 289 348 414
#     4  10  24  40  75 103 136 174 240 292 364 410
#     4  11  22  44  72 105 138 183 236 297 352 440
#     4  11  24  42  70  98 142 188 235 289 361 419
#     4  10  22  43  67 100 142 187 226 289 362 417
#     4  12  27  41  67 105 137 190 239 289 340 444
#
# _framework density 23.103376999999998
#
# number of rings (size 3 to 8) (size 9 to 14) (size 15 to 20)
#    0.000    1.091    3.636    1.909    5.091    0.727 
#    0.000    0.455    0.000    4.364    0.000    0.000 
#    0.000    0.000    0.000    0.000    0.000    0.000 
#
# Total GULP energy -245685.382514 kJ/mol
# GULP energy per Si atom -5583.758694 kJ/mol
# Density = 2.305079 g / cm^3
# Si number density = 23.103377 Si / 1000 Ang^3
#
#
#
# Elastic Constant Matrix: (Units=GPa)
#
#
# Indices 1 2 3 4 5 6 
#
# 1 143.6724 14.1923 30.4326 0.0000 0.0000 0.0000
# 2 14.1923 61.3591 14.8499 0.0000 0.0000 0.0000
# 3 30.4326 14.8499 80.8487 0.0000 0.0000 0.0000
# 4 0.0000 0.0000 0.0000 -23.5067 0.0000 0.0000
# 5 0.0000 0.0000 0.0000 0.0000 21.8047 0.0000
# 6 0.0000 0.0000 0.0000 0.0000 0.0000 36.6710
#
#
#
# Elastic Compliance Matrix: (Units=1/GPa)
#
#
# Indices 1 2 3 4 5 6 
#
# 1 0.007636 -0.001120 -0.002669 0.000000 0.000000 0.000000
# 2 -0.001120 0.017220 -0.002741 0.000000 0.000000 0.000000
# 3 -0.002669 -0.002741 0.013877 0.000000 0.000000 0.000000
# 4 0.000000 0.000000 0.000000 -0.042541 0.000000 0.000000
# 5 0.000000 0.000000 0.000000 0.000000 0.045862 0.000000
# 6 0.000000 0.000000 0.000000 0.000000 0.000000 0.027269
#
#
# Mechanical properties :
#
#
# Convention : Reuss Voigt Hill
#
# Bulk Modulus (GPa) = 38.95185 44.98107 41.96646
# Shear Modulus (GPa) = 54.98068 22.08750 38.53409
#
# Velocity S-wave (km/s) = 4.88358 3.09533 4.08842
# Velocity P-wave (km/s) = 6.97822 5.68212 6.36325
#
# Compressibility (1/GPa) = 0.02567272
#
# Stress axis : x y z
#
# Youngs Moduli (GPa) = 130.95496 58.07186 72.06296
#
# Poissons Ratio (x) = 0.06506 0.19231
# Poissons Ratio (y) = 0.14672 0.19754
# Poissons Ratio (z) = 0.34946 0.15918
#
# Static dielectric constant tensor:
#      x y z
#    x 1.854670 0.000000 0.000000 
#    y 0.000000 1.931620 0.000000 
#    z 0.000000 0.000000 1.881260 
# 
# From -- ./inp_files/50837.got.cif
#   From: 2010.05.17/outbox.cif.g08.bks.cpg/sg72_26_cif.got.tgz:50837.got - 2010.06.03 17:03:01.
