data_PCOD9528931
_publ_section_title
;
Structure prediction by ZEFSAII (Michael W. Deem and Ramdas Pophale) SiO2 
 PCOD9528931
Probable space group: I B A M
;
_chemical_formula_sum "Si O2"
_cell_formula_units_Z 68
_cell_length_a 16.458625
_cell_length_b 8.576182
_cell_length_c 18.985072
_cell_angle_alpha 90.000000
_cell_angle_beta 90.000000
_cell_angle_gamma 90.000000
_cell_volume 2679.783986
_symmetry_space_group_name_H-M "I B A M"
_symmetry_group_IT_number 72
_symmetry_cell_setting 'orthorhombic'
loop_
_space_group_symop_operation_xyz
x,y,z
-x,-y,z
x,-y,1/2-z
-x,y,1/2-z
-x,-y,-z
x,y,-z
-x,y,1/2+z
x,-y,1/2+z
1/2+x,1/2+y,1/2+z
1/2-x,1/2-y,1/2+z
1/2+x,1/2-y,-z
1/2-x,1/2+y,-z
1/2-x,1/2-y,1/2-z
1/2+x,1/2+y,1/2-z
1/2-x,1/2+y,z
1/2+x,1/2-y,z
loop_
_atom_site_type_symbol
_atom_site_label
_atom_site_fract_x
_atom_site_fract_y
_atom_site_fract_z
Si Si1 0.500000 0.000000 0.750000
Si Si2 0.665857 0.500000 0.250000
Si Si3 0.735121 0.920846 0.113328
Si Si4 0.374532 0.062365 0.500000
Si Si5 0.871496 0.096696 0.500000
Si Si6 0.084192 0.752815 0.153860
Si Si7 0.971624 0.230217 0.000000
O O1 0.444914 0.895724 0.698655
O O2 0.728285 0.556559 0.309979
O O3 0.605535 0.381800 0.288867
O O4 0.671680 0.779880 0.117587
O O5 0.813051 0.894975 0.065628
O O6 0.681649 0.048282 0.069471
O O7 0.421410 0.233896 0.500000
O O8 0.429007 0.906862 0.500000
O O9 0.921113 0.939557 0.500000
O O10 0.022207 0.782623 0.090998
#
# Coordination Sequence:
#
# PCOD9528931 Si02
#       7
#     4   8  16   8   8  16   8
#     4  12  30  48  76 114 152 200 246 324 390 468
#     4  12  29  45  74 108 158 200 252 316 393 465
#     4  11  22  43  72 109 143 198 249 318 379 459
#     4   9  20  40  73 100 147 179 258 310 371 444
#     4   9  22  40  70 103 145 185 256 313 374 445
#     4  12  27  49  78 109 157 200 259 315 390 466
#     4  10  24  46  76 109 146 208 259 315 375 465
#
# _framework density 25.375178999999999
#
# number of rings (size 3 to 8) (size 9 to 14) (size 15 to 20)
#    0.706    0.471    0.000    5.647    3.294    3.765 
#    0.000    1.176    0.000    0.000    0.000    0.000 
#    0.000    0.000    0.000    0.000    0.000    0.000 
#
# Total GULP energy -189861.537826 kJ/mol
# GULP energy per Si atom -5584.162877 kJ/mol
# Density = 2.531742 g / cm^3
# Si number density = 25.375179 Si / 1000 Ang^3
#
#
#
# Elastic Constant Matrix: (Units=GPa)
#
#
# Indices 1 2 3 4 5 6 
#
# 1 178.3030 85.6693 83.5033 0.0000 0.0000 0.0000
# 2 85.6693 176.5135 60.3561 0.0000 0.0000 0.0000
# 3 83.5033 60.3561 222.8718 0.0000 0.0000 0.0000
# 4 0.0000 0.0000 0.0000 -94.4146 0.0000 0.0000
# 5 0.0000 0.0000 0.0000 0.0000 22.4126 0.0000
# 6 0.0000 0.0000 0.0000 0.0000 0.0000 29.6261
#
#
#
# Elastic Compliance Matrix: (Units=1/GPa)
#
#
# Indices 1 2 3 4 5 6 
#
# 1 0.008184 -0.003222 -0.002194 0.000000 0.000000 0.000000
# 2 -0.003222 0.007512 -0.000827 0.000000 0.000000 0.000000
# 3 -0.002194 -0.000827 0.005533 0.000000 0.000000 0.000000
# 4 0.000000 0.000000 0.000000 -0.010592 0.000000 0.000000
# 5 0.000000 0.000000 0.000000 0.000000 0.044618 0.000000
# 6 0.000000 0.000000 0.000000 0.000000 0.000000 0.033754
#
#
# Mechanical properties :
#
#
# Convention : Reuss Voigt Hill
#
# Bulk Modulus (GPa) = 114.37709 115.19397 114.78553
# Shear Modulus (GPa) = 47.88888 14.73545 31.31216
#
# Velocity S-wave (km/s) = 4.34894 2.41239 3.51660
# Velocity P-wave (km/s) = 8.38987 7.29756 7.86271
#
# Compressibility (1/GPa) = 0.00874301
#
# Stress axis : x y z
#
# Youngs Moduli (GPa) = 122.19285 133.12371 180.74016
#
# Poissons Ratio (x) = 0.42890 0.39649
# Poissons Ratio (y) = 0.39368 0.14950
# Poissons Ratio (z) = 0.26806 0.11011
#
# Static dielectric constant tensor:
#      x y z
#    x 2.017070 0.000000 0.000000 
#    y 0.000000 2.070510 0.000000 
#    z 0.000000 0.000000 1.969160 
# 
# From -- ./inp_files/32338.got.cif
#   From: 2010.05.17/outbox.cif.g08.bks.cpg/sg72_17_cif.got.tgz:32338.got - 2010.06.03 17:03:01.
