data_PCOD9528341
_publ_section_title
;
Structure prediction by ZEFSAII (Michael W. Deem and Ramdas Pophale) SiO2 
 PCOD9528341
Probable space group: I B A M
;
_chemical_formula_sum "Si O2"
_cell_formula_units_Z 116
_cell_length_a 20.116549
_cell_length_b 9.390725
_cell_length_c 28.074822
_cell_angle_alpha 90.000000
_cell_angle_beta 90.000000
_cell_angle_gamma 90.000000
_cell_volume 5303.585977
_symmetry_space_group_name_H-M "I B A M"
_symmetry_group_IT_number 72
_symmetry_cell_setting 'orthorhombic'
loop_
_space_group_symop_operation_xyz
x,y,z
-x,-y,z
x,-y,1/2-z
-x,y,1/2-z
-x,-y,-z
x,y,-z
-x,y,1/2+z
x,-y,1/2+z
1/2+x,1/2+y,1/2+z
1/2-x,1/2-y,1/2+z
1/2+x,1/2-y,-z
1/2-x,1/2+y,-z
1/2-x,1/2-y,1/2-z
1/2+x,1/2+y,1/2-z
1/2-x,1/2+y,z
1/2+x,1/2-y,z
loop_
_atom_site_type_symbol
_atom_site_label
_atom_site_fract_x
_atom_site_fract_y
_atom_site_fract_z
Si Si1 0.600679 0.061572 0.868030
Si Si2 0.637737 0.220232 0.328275
Si Si3 0.500000 0.500000 0.000000
Si Si4 0.428011 0.472608 0.322020
Si Si5 0.923840 0.294923 0.268621
Si Si6 0.751310 0.320310 0.387005
Si Si7 0.803611 0.928689 0.946975
Si Si8 0.053680 0.814745 0.422571
O O1 0.575287 0.111081 0.816222
O O2 0.676629 0.118443 0.873272
O O3 0.560309 0.147957 0.908639
O O4 0.604537 0.890791 0.865422
O O5 0.605900 0.376811 0.329406
O O6 0.622579 0.162430 0.275491
O O7 0.713665 0.244207 0.343577
O O8 0.502134 0.624718 0.042546
O O9 0.500000 0.500000 0.301192
O O10 0.395979 0.357598 0.287043
O O11 0.442210 0.392402 0.371607
O O12 0.000000 0.289865 0.250000
O O13 0.761167 0.203102 0.427855
O O14 0.707237 0.445984 0.409266
O O15 0.878909 0.871837 0.947654
O O16 0.784366 0.974241 0.000000
#
# Coordination Sequence:
#
# PCOD9528341 Si02
#       8
#    16  16   4  16  16  16  16  16
#     4  10  25  44  61  95 139 178 223 281 351 404
#     4  12  23  40  69  93 134 175 222 284 345 405
#     4  12  20  40  72 102 130 188 234 280 348 402
#     4  11  21  40  64  98 128 170 224 281 333 403
#     4  11  24  42  64  94 130 175 232 279 334 421
#     4  11  23  42  65  98 132 174 221 281 344 408
#     4  11  21  40  66  97 125 169 226 274 333 403
#     4  10  22  38  66  98 133 171 223 276 336 409
#
# _framework density 21.871993
#
# number of rings (size 3 to 8) (size 9 to 14) (size 15 to 20)
#    0.000    1.103    5.517    1.241    0.000    1.655 
#    0.000    1.379    0.000    0.828    0.000    0.000 
#    0.000    0.000    0.000    0.000    0.000    0.000 
#
# Total GULP energy -323233.494279 kJ/mol
# GULP energy per Si atom -5572.991281 kJ/mol
# Density = 2.182221 g / cm^3
# Si number density = 21.871993 Si / 1000 Ang^3
#
#
#
# Elastic Constant Matrix: (Units=GPa)
#
#
# Indices 1 2 3 4 5 6 
#
# 1 34.9224 -0.4335 19.2708 0.0000 0.0000 0.0000
# 2 -0.4335 114.5031 21.4488 0.0000 0.0000 0.0000
# 3 19.2708 21.4488 123.2019 0.0000 0.0000 0.0000
# 4 0.0000 0.0000 0.0000 170.2677 0.0000 0.0000
# 5 0.0000 0.0000 0.0000 0.0000 -12.6752 0.0000
# 6 0.0000 0.0000 0.0000 0.0000 0.0000 19.7665
#
#
#
# Elastic Compliance Matrix: (Units=1/GPa)
#
#
# Indices 1 2 3 4 5 6 
#
# 1 0.031468 0.001076 -0.005109 0.000000 0.000000 0.000000
# 2 0.001076 0.009065 -0.001746 0.000000 0.000000 0.000000
# 3 -0.005109 -0.001746 0.009220 0.000000 0.000000 0.000000
# 4 0.000000 0.000000 0.000000 0.005873 0.000000 0.000000
# 5 0.000000 0.000000 0.000000 0.000000 -0.078895 0.000000
# 6 0.000000 0.000000 0.000000 0.000000 0.000000 0.050591
#
#
# Mechanical properties :
#
#
# Convention : Reuss Voigt Hill
#
# Bulk Modulus (GPa) = 26.18275 39.24440 32.71358
# Shear Modulus (GPa) = 96.87677 50.96122 73.91900
#
# Velocity S-wave (km/s) = 6.66249 4.83222 5.81976
# Velocity P-wave (km/s) = 8.43694 7.00825 7.75556
#
# Compressibility (1/GPa) = 0.03819308
#
# Stress axis : x y z
#
# Youngs Moduli (GPa) = 31.77858 110.31916 108.45985
#
# Poissons Ratio (x) = -0.11873 0.55417
# Poissons Ratio (y) = -0.03420 0.18942
# Poissons Ratio (z) = 0.16237 0.19267
#
# Static dielectric constant tensor:
#      x y z
#    x 1.851470 0.000000 0.000000 
#    y 0.000000 1.903700 0.000000 
#    z 0.000000 0.000000 1.832860 
# 
# From -- ./inp_files/49732.got.cif
#   From: 2010.05.17/outbox.cif.g08.bks.cpg/sg72_25_cif.got.tgz:49732.got - 2010.06.03 17:03:01.
