data_PCOD9528664
_publ_section_title
;
Structure prediction by ZEFSAII (Michael W. Deem and Ramdas Pophale) SiO2 
 PCOD9528664
Probable space group: I B A M
;
_chemical_formula_sum "Si O2"
_cell_formula_units_Z 88
_cell_length_a 27.597130
_cell_length_b 11.125316
_cell_length_c 14.954257
_cell_angle_alpha 90.000000
_cell_angle_beta 90.000000
_cell_angle_gamma 90.000000
_cell_volume 4591.357553
_symmetry_space_group_name_H-M "I B A M"
_symmetry_group_IT_number 72
_symmetry_cell_setting 'orthorhombic'
loop_
_space_group_symop_operation_xyz
x,y,z
-x,-y,z
x,-y,1/2-z
-x,y,1/2-z
-x,-y,-z
x,y,-z
-x,y,1/2+z
x,-y,1/2+z
1/2+x,1/2+y,1/2+z
1/2-x,1/2-y,1/2+z
1/2+x,1/2-y,-z
1/2-x,1/2+y,-z
1/2-x,1/2-y,1/2-z
1/2+x,1/2+y,1/2-z
1/2-x,1/2+y,z
1/2+x,1/2-y,z
loop_
_atom_site_type_symbol
_atom_site_label
_atom_site_fract_x
_atom_site_fract_y
_atom_site_fract_z
Si Si1 0.043708 0.176670 0.500000
Si Si2 0.136649 0.128668 0.838030
Si Si3 0.303620 0.859867 0.891944
Si Si4 0.564432 0.391339 0.000000
Si Si5 0.366258 0.000000 0.750000
Si Si6 0.809324 0.890605 0.394743
Si Si7 0.893625 0.743603 0.332704
O O1 0.068074 0.231860 0.410971
O O2 0.985704 0.181085 0.500000
O O3 0.055299 0.034475 0.500000
O O4 0.176181 0.232229 0.857496
O O5 0.107122 0.160562 0.748282
O O6 0.165358 0.003719 0.847187
O O7 0.096915 0.135876 0.914940
O O8 0.246704 0.874025 0.872049
O O9 0.333531 0.954608 0.832836
O O10 0.310455 0.870156 0.000000
O O11 0.396096 0.113011 0.788090
O O12 0.812942 0.915812 0.500000
O O13 0.840421 0.771332 0.374302
#
# Coordination Sequence:
#
# PCOD9528664 Si02
#       7
#     8  16  16   8   8  16  16
#     4  11  24  42  68 100 126 157 214 274 332 379
#     4  11  21  40  63  91 135 165 207 259 324 379
#     4  10  23  37  58  89 127 175 216 257 306 380
#     4  11  22  42  68 100 128 157 208 267 335 385
#     4  10  26  38  60  91 128 172 223 248 308 382
#     4  11  21  36  62  92 127 174 212 256 318 376
#     4  11  23  41  62  92 129 172 206 266 311 381
#
# _framework density 19.166443999999998
#
# number of rings (size 3 to 8) (size 9 to 14) (size 15 to 20)
#    0.000    1.273    4.545    0.545    6.364    2.182 
#    0.000    1.818    0.000   13.091    0.000    0.000 
#    0.000    0.000    0.000    0.000    0.000    0.000 
#
# Total GULP energy -245589.726075 kJ/mol
# GULP energy per Si atom -5581.584684 kJ/mol
# Density = 1.912282 g / cm^3
# Si number density = 19.166444 Si / 1000 Ang^3
#
#
#
# Elastic Constant Matrix: (Units=GPa)
#
#
# Indices 1 2 3 4 5 6 
#
# 1 107.6262 35.8621 59.7279 0.0000 0.0000 0.0000
# 2 35.8621 103.1079 34.5724 0.0000 0.0000 0.0000
# 3 59.7279 34.5724 121.1524 0.0000 0.0000 0.0000
# 4 0.0000 0.0000 0.0000 -0.0849 0.0000 0.0000
# 5 0.0000 0.0000 0.0000 0.0000 151.6613 0.0000
# 6 0.0000 0.0000 0.0000 0.0000 0.0000 32.0941
#
#
#
# Elastic Compliance Matrix: (Units=1/GPa)
#
#
# Indices 1 2 3 4 5 6 
#
# 1 0.013444 -0.002713 -0.005854 0.000000 0.000000 0.000000
# 2 -0.002713 0.011272 -0.001879 0.000000 0.000000 0.000000
# 3 -0.005854 -0.001879 0.011676 0.000000 0.000000 0.000000
# 4 0.000000 0.000000 0.000000-11.777372 0.000000 0.000000
# 5 0.000000 0.000000 0.000000 0.000000 0.006594 0.000000
# 6 0.000000 0.000000 0.000000 0.000000 0.000000 0.031158
#
#
# Mechanical properties :
#
#
# Convention : Reuss Voigt Hill
#
# Bulk Modulus (GPa) = 64.51373 65.80125 65.15749
# Shear Modulus (GPa) = -0.42819 50.18239 24.87710
#
# Velocity S-wave (km/s) = -0.47317 5.12243 3.60662
# Velocity P-wave (km/s) = 5.78224 8.33017 7.17029
#
# Compressibility (1/GPa) = 0.01550058
#
# Stress axis : x y z
#
# Youngs Moduli (GPa) = 74.38272 88.71274 85.64507
#
# Poissons Ratio (x) = 0.24070 0.50133
# Poissons Ratio (y) = 0.20182 0.16093
# Poissons Ratio (z) = 0.43541 0.16670
#
# Static dielectric constant tensor:
#      x y z
#    x 1.647210 0.000000 0.000000 
#    y 0.000000 1.685290 0.000000 
#    z 0.000000 0.000000 1.700570 
# 
# From -- ./inp_files/20565.got.cif
#   From: 2010.05.17/outbox.cif.g08.bks.cpg/sg72_11_cif.got.tgz:20565.got - 2010.06.03 17:03:01.
