data_PCOD9528126
_publ_section_title
;
Structure prediction by ZEFSAII (Michael W. Deem and Ramdas Pophale) SiO2 
 PCOD9528126
Probable space group: I B A M
;
_chemical_formula_sum "Si O2"
_cell_formula_units_Z 72
_cell_length_a 23.311316
_cell_length_b 10.643413
_cell_length_c 15.016865
_cell_angle_alpha 90.000000
_cell_angle_beta 90.000000
_cell_angle_gamma 90.000000
_cell_volume 3725.863865
_symmetry_space_group_name_H-M "I B A M"
_symmetry_group_IT_number 72
_symmetry_cell_setting 'orthorhombic'
loop_
_space_group_symop_operation_xyz
x,y,z
-x,-y,z
x,-y,1/2-z
-x,y,1/2-z
-x,-y,-z
x,y,-z
-x,y,1/2+z
x,-y,1/2+z
1/2+x,1/2+y,1/2+z
1/2-x,1/2-y,1/2+z
1/2+x,1/2-y,-z
1/2-x,1/2+y,-z
1/2-x,1/2-y,1/2-z
1/2+x,1/2+y,1/2-z
1/2-x,1/2+y,z
1/2+x,1/2-y,z
loop_
_atom_site_type_symbol
_atom_site_label
_atom_site_fract_x
_atom_site_fract_y
_atom_site_fract_z
Si Si1 0.287920 0.976797 0.900425
Si Si2 0.017111 0.144787 0.397966
Si Si3 0.083479 0.226486 0.769836
Si Si4 0.117279 0.500000 0.750000
Si Si5 0.786761 0.204025 0.665777
O O1 0.277976 0.826142 0.897216
O O2 0.340532 0.999378 0.834353
O O3 0.237321 0.070802 0.868566
O O4 0.302713 0.013783 0.000000
O O5 0.028483 0.189861 0.500000
O O6 0.962328 0.204623 0.348077
O O7 0.066806 0.158668 0.323023
O O8 0.000000 0.000000 0.404705
O O9 0.081978 0.373692 0.748811
O O10 0.146987 0.193499 0.804795
O O11 0.750000 0.250000 0.750000
#
# Coordination Sequence:
#
# PCOD9528126 Si02
#       5
#    16  16  16   8  16
#     4  11  22  38  60  90 129 169 208 252 304 372
#     4  10  23  42  62  90 121 157 208 260 308 363
#     4  10  21  40  65  86 122 163 200 254 311 363
#     4  10  22  41  60  90 128 159 200 256 310 366
#     4  11  21  41  62  91 131 167 206 255 313 372
#
# _framework density 19.324376999999998
#
# number of rings (size 3 to 8) (size 9 to 14) (size 15 to 20)
#    0.000    1.556    4.444    2.000    0.000   10.667 
#    0.000    3.333    0.000    0.000    0.000    0.000 
#    0.000    0.000    0.000    0.000    0.000    0.000 
#
# Total GULP energy -200686.078123 kJ/mol
# GULP energy per Si atom -5574.613281 kJ/mol
# Density = 1.928039 g / cm^3
# Si number density = 19.324377 Si / 1000 Ang^3
#
#
#
# Elastic Constant Matrix: (Units=GPa)
#
#
# Indices 1 2 3 4 5 6 
#
# 1 72.8811 36.0781 36.9876 0.0000 0.0000 0.0000
# 2 36.0781 94.6974 33.6456 0.0000 0.0000 0.0000
# 3 36.9876 33.6456 158.5156 0.0000 0.0000 0.0000
# 4 0.0000 0.0000 0.0000 18.7596 0.0000 0.0000
# 5 0.0000 0.0000 0.0000 0.0000 -16.6768 0.0000
# 6 0.0000 0.0000 0.0000 0.0000 0.0000 36.4750
#
#
#
# Elastic Compliance Matrix: (Units=1/GPa)
#
#
# Indices 1 2 3 4 5 6 
#
# 1 0.018132 -0.005846 -0.002990 0.000000 0.000000 0.000000
# 2 -0.005846 0.013306 -0.001460 0.000000 0.000000 0.000000
# 3 -0.002990 -0.001460 0.007316 0.000000 0.000000 0.000000
# 4 0.000000 0.000000 0.000000 0.053306 0.000000 0.000000
# 5 0.000000 0.000000 0.000000 0.000000 -0.059964 0.000000
# 6 0.000000 0.000000 0.000000 0.000000 0.000000 0.027416
#
#
# Mechanical properties :
#
#
# Convention : Reuss Voigt Hill
#
# Bulk Modulus (GPa) = 55.05945 59.94631 57.50288
# Shear Modulus (GPa) = 58.03233 22.33710 40.18471
#
# Velocity S-wave (km/s) = 5.48597 3.40355 4.56508
# Velocity P-wave (km/s) = 8.28745 6.82158 7.58999
#
# Compressibility (1/GPa) = 0.01816219
#
# Stress axis : x y z
#
# Youngs Moduli (GPa) = 55.15026 75.15482 136.68334
#
# Poissons Ratio (x) = 0.43933 0.40871
# Poissons Ratio (y) = 0.32239 0.19959
# Poissons Ratio (z) = 0.16491 0.10974
#
# Static dielectric constant tensor:
#      x y z
#    x 1.677200 0.000000 0.000000 
#    y 0.000000 1.715550 0.000000 
#    z 0.000000 0.000000 1.703530 
# 
# From -- ./inp_files/24851.got.cif
#   From: 2010.05.17/outbox.cif.g08.bks.cpg/sg72_13_cif.got.tgz:24851.got - 2010.06.03 17:03:01.
