data_PCOD9528719
_publ_section_title
;
Structure prediction by ZEFSAII (Michael W. Deem and Ramdas Pophale) SiO2 
 PCOD9528719
Probable space group: I B A M
;
_chemical_formula_sum "Si O2"
_cell_formula_units_Z 112
_cell_length_a 15.168225
_cell_length_b 10.976886
_cell_length_c 30.478032
_cell_angle_alpha 90.000000
_cell_angle_beta 90.000000
_cell_angle_gamma 90.000000
_cell_volume 5074.588568
_symmetry_space_group_name_H-M "I B A M"
_symmetry_group_IT_number 72
_symmetry_cell_setting 'orthorhombic'
loop_
_space_group_symop_operation_xyz
x,y,z
-x,-y,z
x,-y,1/2-z
-x,y,1/2-z
-x,-y,-z
x,y,-z
-x,y,1/2+z
x,-y,1/2+z
1/2+x,1/2+y,1/2+z
1/2-x,1/2-y,1/2+z
1/2+x,1/2-y,-z
1/2-x,1/2+y,-z
1/2-x,1/2-y,1/2-z
1/2+x,1/2+y,1/2-z
1/2-x,1/2+y,z
1/2+x,1/2-y,z
loop_
_atom_site_type_symbol
_atom_site_label
_atom_site_fract_x
_atom_site_fract_y
_atom_site_fract_z
Si Si1 0.329261 0.522300 0.704156
Si Si2 0.295529 0.737879 0.089877
Si Si3 0.602429 0.492355 0.391846
Si Si4 0.532871 0.139238 0.106148
Si Si5 0.482896 0.854625 0.299232
Si Si6 0.782118 0.279053 0.184852
Si Si7 0.878123 0.767652 0.449600
O O1 0.378881 0.500000 0.750000
O O2 0.382528 0.539783 0.659296
O O3 0.273494 0.398889 0.697125
O O4 0.272719 0.648071 0.709037
O O5 0.353957 0.619461 0.097294
O O6 0.369863 0.843090 0.085434
O O7 0.242962 0.753327 0.135251
O O8 0.219602 0.710837 0.054684
O O9 0.500000 0.500000 0.399637
O O10 0.638917 0.396193 0.426293
O O11 0.536585 0.186446 0.157143
O O12 0.456425 0.206561 0.078673
O O13 0.500000 0.000000 0.107995
O O14 0.500000 0.805028 0.250000
O O15 0.382660 0.821753 0.310204
O O16 0.500000 0.000000 0.296638
O O17 0.905147 0.775320 0.500000
#
# Coordination Sequence:
#
# PCOD9528719 Si02
#       7
#    16  16  16  16  16  16  16
#     4  11  25  42  69 105 146 191 239 297 358 435
#     4  11  25  46  76 103 142 187 236 301 361 428
#     4  11  24  48  72 102 145 186 235 295 362 432
#     4  11  25  45  74 104 148 190 235 302 365 433
#     4  10  23  40  69 104 145 195 248 288 355 443
#     4  11  24  44  70 104 147 191 249 295 362 426
#     4  12  27  49  74 103 140 187 242 305 368 443
#
# _framework density 22.070755999999999
#
# number of rings (size 3 to 8) (size 9 to 14) (size 15 to 20)
#    0.000    1.000    4.286    0.429    8.000    4.286 
#    0.000    0.000    0.000    0.000    0.000    0.000 
#    0.000    0.000    0.000    0.000    0.000    0.000 
#
# Total GULP energy -312578.398844 kJ/mol
# GULP energy per Si atom -5581.757122 kJ/mol
# Density = 2.202052 g / cm^3
# Si number density = 22.070756 Si / 1000 Ang^3
#
#
#
# Elastic Constant Matrix: (Units=GPa)
#
#
# Indices 1 2 3 4 5 6 
#
# 1 86.2095 0.9227 29.6761 0.0000 0.0000 0.0000
# 2 0.9227 86.9707 31.6851 0.0000 0.0000 0.0000
# 3 29.6761 31.6851 119.9140 0.0000 0.0000 0.0000
# 4 0.0000 0.0000 0.0000 0.0210 0.0000 0.0000
# 5 0.0000 0.0000 0.0000 0.0000 13.1653 0.0000
# 6 0.0000 0.0000 0.0000 0.0000 0.0000 27.9362
#
#
#
# Elastic Compliance Matrix: (Units=1/GPa)
#
#
# Indices 1 2 3 4 5 6 
#
# 1 0.012779 0.001125 -0.003460 0.000000 0.000000 0.000000
# 2 0.001125 0.012822 -0.003666 0.000000 0.000000 0.000000
# 3 -0.003460 -0.003666 0.010164 0.000000 0.000000 0.000000
# 4 0.000000 0.000000 0.000000 47.715417 0.000000 0.000000
# 5 0.000000 0.000000 0.000000 0.000000 0.075957 0.000000
# 6 0.000000 0.000000 0.000000 0.000000 0.000000 0.035796
#
#
# Mechanical properties :
#
#
# Convention : Reuss Voigt Hill
#
# Bulk Modulus (GPa) = 42.08320 46.40689 44.24504
# Shear Modulus (GPa) = 0.10442 23.61186 11.85814
#
# Velocity S-wave (km/s) = 0.21775 3.27437 2.32044
# Velocity P-wave (km/s) = 4.37859 5.94705 5.22204
#
# Compressibility (1/GPa) = 0.02376245
#
# Stress axis : x y z
#
# Youngs Moduli (GPa) = 78.25630 77.99157 98.38400
#
# Poissons Ratio (x) = -0.08773 0.34037
# Poissons Ratio (y) = -0.08803 0.36071
# Poissons Ratio (z) = 0.27074 0.28594
#
# Static dielectric constant tensor:
#      x y z
#    x 1.837160 0.000000 0.000000 
#    y 0.000000 1.862860 0.000000 
#    z 0.000000 0.000000 1.833390 
# 
# From -- ./inp_files/51476.got.cif
#   From: 2010.05.17/outbox.cif.g08.bks.cpg/sg72_26_cif.got.tgz:51476.got - 2010.06.03 17:03:01.
