data_PCOD9528477
_publ_section_title
;
Structure prediction by ZEFSAII (Michael W. Deem and Ramdas Pophale) SiO2 
 PCOD9528477
Probable space group: I B A M
;
_chemical_formula_sum "Si O2"
_cell_formula_units_Z 68
_cell_length_a 20.288221
_cell_length_b 10.243963
_cell_length_c 18.488397
_cell_angle_alpha 90.000000
_cell_angle_beta 90.000000
_cell_angle_gamma 90.000000
_cell_volume 3842.476555
_symmetry_space_group_name_H-M "I B A M"
_symmetry_group_IT_number 72
_symmetry_cell_setting 'orthorhombic'
loop_
_space_group_symop_operation_xyz
x,y,z
-x,-y,z
x,-y,1/2-z
-x,y,1/2-z
-x,-y,-z
x,y,-z
-x,y,1/2+z
x,-y,1/2+z
1/2+x,1/2+y,1/2+z
1/2-x,1/2-y,1/2+z
1/2+x,1/2-y,-z
1/2-x,1/2+y,-z
1/2-x,1/2-y,1/2-z
1/2+x,1/2+y,1/2-z
1/2-x,1/2+y,z
1/2+x,1/2-y,z
loop_
_atom_site_type_symbol
_atom_site_label
_atom_site_fract_x
_atom_site_fract_y
_atom_site_fract_z
Si Si1 0.000000 0.500000 0.750000
Si Si2 0.555384 0.114995 0.000000
Si Si3 0.383517 0.969316 0.144202
Si Si4 0.242529 0.878778 0.201757
Si Si5 0.352166 0.744033 0.583962
Si Si6 0.464687 0.364433 0.000000
O O1 0.053687 0.562155 0.695265
O O2 0.600359 0.099555 0.069447
O O3 0.516533 0.248528 0.000000
O O4 0.500000 0.000000 0.000000
O O5 0.315333 0.921826 0.177304
O O6 0.374071 0.123161 0.124692
O O7 0.250000 0.750000 0.250000
O O8 0.199153 0.835976 0.132532
O O9 0.215501 0.000000 0.250000
O O10 0.329506 0.774916 0.500000
O O11 0.416757 0.657514 0.568466
O O12 0.500000 0.500000 0.000000
#
# Coordination Sequence:
#
# PCOD9528477 Si02
#       6
#     4   8  16  16  16   8
#     4  12  20  34  64 100 130 162 214 272 342 386
#     4  12  20  39  70  94 124 169 226 275 327 385
#     4  12  22  40  68  98 128 175 226 277 328 400
#     4  12  25  43  63  96 139 177 217 275 338 403
#     4  10  22  43  67  92 136 171 227 280 323 397
#     4  10  22  41  62 100 136 164 213 290 330 385
#
# _framework density 17.696919000000001
#
# number of rings (size 3 to 8) (size 9 to 14) (size 15 to 20)
#    0.706    0.000    8.235    0.000    1.647    1.882 
#    0.000    2.353    0.000    0.000    0.000    0.000 
#    0.000    0.000    0.000    0.000    0.000    0.000 
#
# Total GULP energy -189417.252141 kJ/mol
# GULP energy per Si atom -5571.095651 kJ/mol
# Density = 1.765664 g / cm^3
# Si number density = 17.696919 Si / 1000 Ang^3
#
#
#
# Elastic Constant Matrix: (Units=GPa)
#
#
# Indices 1 2 3 4 5 6 
#
# 1 120.5771 62.3418 55.2923 0.0000 0.0000 0.0000
# 2 62.3418 134.1673 44.5817 0.0000 0.0000 0.0000
# 3 55.2923 44.5817 123.2007 0.0000 0.0000 0.0000
# 4 0.0000 0.0000 0.0000 19.4084 0.0000 0.0000
# 5 0.0000 0.0000 0.0000 0.0000 -10.0123 0.0000
# 6 0.0000 0.0000 0.0000 0.0000 0.0000 36.0671
#
#
#
# Elastic Compliance Matrix: (Units=1/GPa)
#
#
# Indices 1 2 3 4 5 6 
#
# 1 0.012410 -0.004451 -0.003959 0.000000 0.000000 0.000000
# 2 -0.004451 0.010068 -0.001646 0.000000 0.000000 0.000000
# 3 -0.003959 -0.001646 0.010489 0.000000 0.000000 0.000000
# 4 0.000000 0.000000 0.000000 0.051524 0.000000 0.000000
# 5 0.000000 0.000000 0.000000 0.000000 -0.099877 0.000000
# 6 0.000000 0.000000 0.000000 0.000000 0.000000 0.027726
#
#
# Mechanical properties :
#
#
# Convention : Reuss Voigt Hill
#
# Bulk Modulus (GPa) = 77.78337 78.04185 77.91261
# Shear Modulus (GPa) = 136.09853 23.47459 79.78656
#
# Velocity S-wave (km/s) = 8.77908 3.64604 6.72182
# Velocity P-wave (km/s) = 12.11657 7.86890 10.21594
#
# Compressibility (1/GPa) = 0.01285622
#
# Stress axis : x y z
#
# Youngs Moduli (GPa) = 80.57886 99.32036 95.33613
#
# Poissons Ratio (x) = 0.44207 0.37744
# Poissons Ratio (y) = 0.35865 0.15690
# Poissons Ratio (z) = 0.31902 0.16346
#
# Static dielectric constant tensor:
#      x y z
#    x 1.588130 0.000000 0.000000 
#    y 0.000000 1.582530 0.000000 
#    z 0.000000 0.000000 1.638910 
# 
# From -- ./inp_files/32320.got.cif
#   From: 2010.05.17/outbox.cif.g08.bks.cpg/sg72_17_cif.got.tgz:32320.got - 2010.06.03 17:03:01.
