data_PCOD9528246
_publ_section_title
;
Structure prediction by ZEFSAII (Michael W. Deem and Ramdas Pophale) SiO2 
 PCOD9528246
Probable space group: I B A M
;
_chemical_formula_sum "Si O2"
_cell_formula_units_Z 108
_cell_length_a 14.106316
_cell_length_b 11.633783
_cell_length_c 29.943730
_cell_angle_alpha 90.000000
_cell_angle_beta 90.000000
_cell_angle_gamma 90.000000
_cell_volume 4914.060119
_symmetry_space_group_name_H-M "I B A M"
_symmetry_group_IT_number 72
_symmetry_cell_setting 'orthorhombic'
loop_
_space_group_symop_operation_xyz
x,y,z
-x,-y,z
x,-y,1/2-z
-x,y,1/2-z
-x,-y,-z
x,y,-z
-x,y,1/2+z
x,-y,1/2+z
1/2+x,1/2+y,1/2+z
1/2-x,1/2-y,1/2+z
1/2+x,1/2-y,-z
1/2-x,1/2+y,-z
1/2-x,1/2-y,1/2-z
1/2+x,1/2+y,1/2-z
1/2-x,1/2+y,z
1/2+x,1/2-y,z
loop_
_atom_site_type_symbol
_atom_site_label
_atom_site_fract_x
_atom_site_fract_y
_atom_site_fract_z
Si Si1 0.445920 0.799841 0.574319
Si Si2 0.905952 0.606209 0.000000
Si Si3 0.700865 0.999424 0.083497
Si Si4 0.354729 0.660703 0.300873
Si Si5 0.402025 0.567647 0.602967
Si Si6 0.936437 0.612973 0.153065
Si Si7 0.000000 0.000000 0.750000
Si Si8 0.851720 0.370095 0.258327
O O1 0.512796 0.860506 0.538150
O O2 0.421678 0.667529 0.566723
O O3 0.506460 0.805906 0.619826
O O4 0.352561 0.877417 0.579676
O O5 0.831417 0.569243 0.960249
O O6 0.813602 0.989501 0.088103
O O7 0.655356 0.065103 0.126315
O O8 0.362834 0.633779 0.353016
O O9 0.434453 0.581779 0.279262
O O10 0.255783 0.628183 0.276648
O O11 0.364706 0.792745 0.285219
O O12 0.500000 0.500000 0.611104
O O13 0.910370 0.673995 0.199093
O O14 0.000000 0.500000 0.160437
O O15 0.880811 0.500000 0.250000
#
# Coordination Sequence:
#
# PCOD9528246 Si02
#       8
#    16   8  16  16  16  16   4  16
#     4  10  23  43  73 103 137 183 227 291 361 424
#     4  10  21  48  80 110 134 172 233 284 354 434
#     4  10  21  43  74 101 139 185 230 289 353 433
#     4  11  26  42  66  94 142 193 236 294 354 417
#     4  12  27  45  66 106 149 189 237 291 358 435
#     4   9  20  38  63  97 132 171 232 294 347 409
#     4  12  24  48  66  92 130 202 240 286 348 416
#     4  11  24  42  65  99 135 182 246 300 349 412
#
# _framework density 21.977751999999999
#
# number of rings (size 3 to 8) (size 9 to 14) (size 15 to 20)
#    0.000    1.481    2.963    2.222    6.222    3.259 
#    0.000    2.963    0.000    0.000    0.000    0.000 
#    0.000    0.000    0.000    0.000    0.000    0.000 
#
# Total GULP energy -300828.800755 kJ/mol
# GULP energy per Si atom -5570.903718 kJ/mol
# Density = 2.192773 g / cm^3
# Si number density = 21.977752 Si / 1000 Ang^3
#
#
#
# Elastic Constant Matrix: (Units=GPa)
#
#
# Indices 1 2 3 4 5 6 
#
# 1 164.8366 32.4666 39.1442 0.0000 0.0000 0.0000
# 2 32.4666 70.7375 22.2061 0.0000 0.0000 0.0000
# 3 39.1442 22.2061 89.0829 0.0000 0.0000 0.0000
# 4 0.0000 0.0000 0.0000 -16.9907 0.0000 0.0000
# 5 0.0000 0.0000 0.0000 0.0000 5.0725 0.0000
# 6 0.0000 0.0000 0.0000 0.0000 0.0000 15.8976
#
#
#
# Elastic Compliance Matrix: (Units=1/GPa)
#
#
# Indices 1 2 3 4 5 6 
#
# 1 0.007157 -0.002493 -0.002523 0.000000 0.000000 0.000000
# 2 -0.002493 0.016205 -0.002944 0.000000 0.000000 0.000000
# 3 -0.002523 -0.002944 0.013068 0.000000 0.000000 0.000000
# 4 0.000000 0.000000 0.000000 -0.058856 0.000000 0.000000
# 5 0.000000 0.000000 0.000000 0.000000 0.197141 0.000000
# 6 0.000000 0.000000 0.000000 0.000000 0.000000 0.062903
#
#
# Mechanical properties :
#
#
# Convention : Reuss Voigt Hill
#
# Bulk Modulus (GPa) = 48.75776 56.92120 52.83948
# Shear Modulus (GPa) = 19.20301 16.18520 17.69411
#
# Velocity S-wave (km/s) = 2.95913 2.71668 2.84049
# Velocity P-wave (km/s) = 5.82310 5.98299 5.90358
#
# Compressibility (1/GPa) = 0.02050956
#
# Stress axis : x y z
#
# Youngs Moduli (GPa) = 139.72696 61.70906 76.52121
#
# Poissons Ratio (x) = 0.15382 0.19310
# Poissons Ratio (y) = 0.34828 0.22530
# Poissons Ratio (z) = 0.35260 0.18169
#
# Static dielectric constant tensor:
#      x y z
#    x 1.818990 0.000000 0.000000 
#    y 0.000000 1.833500 0.000000 
#    z 0.000000 0.000000 1.811080 
# 
# From -- ./inp_files/51825.got.cif
#   From: 2010.05.17/outbox.cif.g08.bks.cpg/sg72_26_cif.got.tgz:51825.got - 2010.06.03 17:03:01.
