data_PCOD9528007
_publ_section_title
;
Structure prediction by ZEFSAII (Michael W. Deem and Ramdas Pophale) SiO2 
 PCOD9528007
Probable space group: I B A M
;
_chemical_formula_sum "Si O2"
_cell_formula_units_Z 128
_cell_length_a 12.372260
_cell_length_b 26.005184
_cell_length_c 21.284491
_cell_angle_alpha 90.000000
_cell_angle_beta 90.000000
_cell_angle_gamma 90.000000
_cell_volume 6848.133812
_symmetry_space_group_name_H-M "I B A M"
_symmetry_group_IT_number 72
_symmetry_cell_setting 'orthorhombic'
loop_
_space_group_symop_operation_xyz
x,y,z
-x,-y,z
x,-y,1/2-z
-x,y,1/2-z
-x,-y,-z
x,y,-z
-x,y,1/2+z
x,-y,1/2+z
1/2+x,1/2+y,1/2+z
1/2-x,1/2-y,1/2+z
1/2+x,1/2-y,-z
1/2-x,1/2+y,-z
1/2-x,1/2-y,1/2-z
1/2+x,1/2+y,1/2-z
1/2-x,1/2+y,z
1/2+x,1/2-y,z
loop_
_atom_site_type_symbol
_atom_site_label
_atom_site_fract_x
_atom_site_fract_y
_atom_site_fract_z
Si Si1 0.919460 0.344958 0.126805
Si Si2 0.806915 0.803313 0.875873
Si Si3 0.634600 0.887860 0.573763
Si Si4 0.378253 0.364717 0.745725
Si Si5 0.664302 0.078104 0.274315
Si Si6 0.986432 0.242879 0.069958
Si Si7 0.382855 0.981089 0.849169
Si Si8 0.705167 0.305615 0.634977
O O1 0.798291 0.334674 0.099705
O O2 0.893536 0.372726 0.193312
O O3 0.973681 0.288310 0.121584
O O4 0.008050 0.379505 0.091498
O O5 0.860467 0.834436 0.819218
O O6 0.759902 0.749149 0.851191
O O7 0.901375 0.787059 0.922968
O O8 0.649275 0.882010 0.500000
O O9 0.667095 0.944192 0.598841
O O10 0.705945 0.845589 0.610117
O O11 0.500000 0.384437 0.750000
O O12 0.283609 0.406461 0.747378
O O13 0.353831 0.327160 0.803804
O O14 0.605954 0.054568 0.213330
O O15 0.674208 0.032843 0.325690
O O16 0.885654 0.205590 0.082517
O O17 0.979851 0.265939 0.000000
O O18 0.500000 0.000000 0.870075
#
# Coordination Sequence:
#
# PCOD9528007 Si02
#       8
#    16  16  16  16  16  16  16  16
#     4  10  22  37  57  89 118 155 204 247 287 353
#     4  10  22  37  56  88 121 164 200 248 300 340
#     4  12  24  39  61  92 124 160 199 242 296 362
#     4  11  21  39  63  88 122 150 202 259 300 357
#     4  10  21  39  62  88 116 148 196 247 319 353
#     4  11  22  38  59  82 122 173 211 241 289 353
#     4  11  22  39  63  89 119 154 189 247 308 380
#     4  11  22  39  57  89 123 163 202 248 298 346
#
# _framework density 18.691223000000001
#
# number of rings (size 3 to 8) (size 9 to 14) (size 15 to 20)
#    0.000    1.250    5.000    1.875    0.000    2.750 
#    0.000    2.500    0.000    0.000    0.000    0.875 
#    0.000    0.000    0.000    0.000    0.000    0.000 
#
# Total GULP energy -356891.347667 kJ/mol
# GULP energy per Si atom -5576.427307 kJ/mol
# Density = 1.864868 g / cm^3
# Si number density = 18.691223 Si / 1000 Ang^3
#
#
#
# Elastic Constant Matrix: (Units=GPa)
#
#
# Indices 1 2 3 4 5 6 
#
# 1 69.6787 8.8042 2.2728 0.0000 0.0000 0.0000
# 2 8.8042 55.2670 1.3279 0.0000 0.0000 0.0000
# 3 2.2728 1.3279 37.2772 0.0000 0.0000 0.0000
# 4 0.0000 0.0000 0.0000 13.0363 0.0000 0.0000
# 5 0.0000 0.0000 0.0000 0.0000 14.6230 0.0000
# 6 0.0000 0.0000 0.0000 0.0000 0.0000 13.2957
#
#
#
# Elastic Compliance Matrix: (Units=1/GPa)
#
#
# Indices 1 2 3 4 5 6 
#
# 1 0.014671 -0.002318 -0.000812 0.000000 0.000000 0.000000
# 2 -0.002318 0.018476 -0.000517 0.000000 0.000000 0.000000
# 3 -0.000812 -0.000517 0.026894 0.000000 0.000000 0.000000
# 4 0.000000 0.000000 0.000000 0.076709 0.000000 0.000000
# 5 0.000000 0.000000 0.000000 0.000000 0.068386 0.000000
# 6 0.000000 0.000000 0.000000 0.000000 0.000000 0.075213
#
#
# Mechanical properties :
#
#
# Convention : Reuss Voigt Hill
#
# Bulk Modulus (GPa) = 18.95818 20.78142 19.86980
# Shear Modulus (GPa) = 16.38149 18.17886 17.28018
#
# Velocity S-wave (km/s) = 2.96366 3.12202 3.04387
# Velocity P-wave (km/s) = 4.67717 4.91309 4.79658
#
# Compressibility (1/GPa) = 0.05274767
#
# Stress axis : x y z
#
# Youngs Moduli (GPa) = 68.16211 54.12548 37.18309
#
# Poissons Ratio (x) = 0.12544 0.03019
# Poissons Ratio (y) = 0.15797 0.01922
# Poissons Ratio (z) = 0.05534 0.02798
#
# Static dielectric constant tensor:
#      x y z
#    x 1.666980 0.000000 0.000000 
#    y 0.000000 1.660950 0.000000 
#    z 0.000000 0.000000 1.643580 
# 
# From -- ./inp_files/43693.got.cif
#   From: 2010.05.17/outbox.cif.g08.bks.cpg/sg72_22_cif.got.tgz:43693.got - 2010.06.03 17:03:01.
