data_PCOD9528379
_publ_section_title
;
Structure prediction by ZEFSAII (Michael W. Deem and Ramdas Pophale) SiO2 
 PCOD9528379
Probable space group: I B A M
;
_chemical_formula_sum "Si O2"
_cell_formula_units_Z 96
_cell_length_a 15.024524
_cell_length_b 20.877360
_cell_length_c 15.623392
_cell_angle_alpha 90.000000
_cell_angle_beta 90.000000
_cell_angle_gamma 90.000000
_cell_volume 4900.626808
_symmetry_space_group_name_H-M "I B A M"
_symmetry_group_IT_number 72
_symmetry_cell_setting 'orthorhombic'
loop_
_space_group_symop_operation_xyz
x,y,z
-x,-y,z
x,-y,1/2-z
-x,y,1/2-z
-x,-y,-z
x,y,-z
-x,y,1/2+z
x,-y,1/2+z
1/2+x,1/2+y,1/2+z
1/2-x,1/2-y,1/2+z
1/2+x,1/2-y,-z
1/2-x,1/2+y,-z
1/2-x,1/2-y,1/2-z
1/2+x,1/2+y,1/2-z
1/2-x,1/2+y,z
1/2+x,1/2-y,z
loop_
_atom_site_type_symbol
_atom_site_label
_atom_site_fract_x
_atom_site_fract_y
_atom_site_fract_z
Si Si1 0.777065 0.803980 0.180596
Si Si2 0.909553 0.306851 0.901937
Si Si3 0.138704 0.020329 0.000000
Si Si4 0.082267 0.545235 0.898110
Si Si5 0.516529 0.691007 0.342608
Si Si6 0.769157 0.951120 0.180368
Si Si7 0.537993 0.395932 0.500000
O O1 0.750000 0.750000 0.250000
O O2 0.696648 0.801943 0.112280
O O3 0.877891 0.795922 0.146460
O O4 0.774510 0.877855 0.212682
O O5 0.937796 0.379751 0.885014
O O6 0.961745 0.257038 0.843916
O O7 0.931131 0.291598 0.000000
O O8 0.185137 0.042368 0.912343
O O9 0.046176 0.057434 0.000000
O O10 0.122200 0.943645 0.000000
O O11 0.167540 0.530752 0.840972
O O12 0.000000 0.500000 0.878115
O O13 0.103460 0.537638 0.000000
O O14 0.500000 0.660006 0.250000
O O15 0.473944 0.647811 0.416540
O O16 0.806956 0.000000 0.250000
#
# Coordination Sequence:
#
# PCOD9528379 Si02
#       7
#    16  16   8  16  16  16   8
#     4  11  24  42  65  94 131 171 217 267 331 396
#     4  10  22  39  65  93 123 170 215 267 330 391
#     4  11  24  44  64  97 127 171 225 263 323 404
#     4   9  19  39  64  90 126 168 218 269 323 390
#     4  12  24  42  66  96 133 170 219 273 330 395
#     4  11  24  41  67  93 132 174 216 271 336 388
#     4  11  26  42  67  93 130 171 216 269 325 391
#
# _framework density 19.589331000000001
#
# number of rings (size 3 to 8) (size 9 to 14) (size 15 to 20)
#    0.000    1.333    5.000    0.000    4.667    1.667 
#    0.000    1.667    0.000    0.000    0.000    0.000 
#    0.000    0.000    0.000    0.000    0.000    0.000 
#
# Total GULP energy -267868.960922 kJ/mol
# GULP energy per Si atom -5580.603353 kJ/mol
# Density = 1.954474 g / cm^3
# Si number density = 19.589331 Si / 1000 Ang^3
#
#
#
# Elastic Constant Matrix: (Units=GPa)
#
#
# Indices 1 2 3 4 5 6 
#
# 1 70.4059 29.2956 -9.2958 0.0000 0.0000 0.0000
# 2 29.2956 84.6118 49.4497 0.0000 0.0001 0.0000
# 3 -9.2958 49.4497 89.8784 0.0001 0.0004 0.0000
# 4 0.0000 0.0000 0.0001 24.6349 0.0001 0.0000
# 5 0.0000 0.0001 0.0004 0.0001 93.8784 -0.0001
# 6 0.0000 0.0000 0.0000 0.0000 -0.0001 26.8750
#
#
#
# Elastic Compliance Matrix: (Units=1/GPa)
#
#
# Indices 1 2 3 4 5 6 
#
# 1 0.020484 -0.012279 0.008874 0.000000 0.000000 0.000000
# 2 -0.012279 0.024780 -0.014904 0.000000 0.000000 0.000000
# 3 0.008874 -0.014904 0.020244 0.000000 0.000000 0.000000
# 4 0.000000 0.000000 0.000000 0.040593 0.000000 0.000000
# 5 0.000000 0.000000 0.000000 0.000000 0.010652 0.000000
# 6 0.000000 0.000000 0.000000 0.000000 0.000000 0.037209
#
#
# Mechanical properties :
#
#
# Convention : Reuss Voigt Hill
#
# Bulk Modulus (GPa) = 34.61201 42.64390 38.62796
# Shear Modulus (GPa) = 24.97393 40.77410 32.87402
#
# Velocity S-wave (km/s) = 3.57441 4.56723 4.10098
# Velocity P-wave (km/s) = 5.89427 7.04479 6.49505
#
# Compressibility (1/GPa) = 0.02889170
#
# Stress axis : x y z
#
# Youngs Moduli (GPa) = 48.81836 40.35500 49.39819
#
# Poissons Ratio (x) = 0.49550 -0.43836
# Poissons Ratio (y) = 0.59942 0.73621
# Poissons Ratio (z) = -0.43322 0.60143
#
# Static dielectric constant tensor:
#      x y z
#    x 1.684690 0.000000 0.000000 
#    y 0.000000 1.697840 0.000000 
#    z 0.000000 0.000000 1.732710 
# 
# From -- ./inp_files/21910.got.cif
#   From: 2010.05.17/outbox.cif.g08.bks.cpg/sg72_11_cif.got.tgz:21910.got - 2010.06.03 17:03:01.
