data_PCOD9528887
_publ_section_title
;
Structure prediction by ZEFSAII (Michael W. Deem and Ramdas Pophale) SiO2 
 PCOD9528887
Probable space group: I B A M
;
_chemical_formula_sum "Si O2"
_cell_formula_units_Z 80
_cell_length_a 17.843047
_cell_length_b 10.889468
_cell_length_c 21.366039
_cell_angle_alpha 90.000000
_cell_angle_beta 90.000000
_cell_angle_gamma 90.000000
_cell_volume 4151.448926
_symmetry_space_group_name_H-M "I B A M"
_symmetry_group_IT_number 72
_symmetry_cell_setting 'orthorhombic'
loop_
_space_group_symop_operation_xyz
x,y,z
-x,-y,z
x,-y,1/2-z
-x,y,1/2-z
-x,-y,-z
x,y,-z
-x,y,1/2+z
x,-y,1/2+z
1/2+x,1/2+y,1/2+z
1/2-x,1/2-y,1/2+z
1/2+x,1/2-y,-z
1/2-x,1/2+y,-z
1/2-x,1/2-y,1/2-z
1/2+x,1/2+y,1/2-z
1/2-x,1/2+y,z
1/2+x,1/2-y,z
loop_
_atom_site_type_symbol
_atom_site_label
_atom_site_fract_x
_atom_site_fract_y
_atom_site_fract_z
Si Si1 0.817446 0.352871 0.500000
Si Si2 0.082220 0.356648 0.750000
Si Si3 0.840023 0.252045 0.129849
Si Si4 0.159977 0.252045 0.870151
Si Si5 0.182554 0.647129 0.000000
Si Si6 0.590157 0.500000 0.325586
O O1 0.859225 0.318385 0.564357
O O2 0.797124 0.500000 0.500000
O O3 0.750000 0.250000 0.500000
O O4 0.072638 0.500000 0.750000
O O5 0.126914 0.322959 0.688455
O O6 0.126914 0.322959 0.811545
O O7 0.000000 0.293933 0.750000
O O8 0.750000 0.250000 0.134539
O O9 0.859225 0.318385 0.064357
O O10 0.874141 0.117093 0.139699
O O11 0.125859 0.117093 0.860301
O O12 0.500000 0.500000 0.330700
O O13 0.608230 0.500000 0.250000
#
# Coordination Sequence:
#
# PCOD9528887 Si02
#       6
#     8  16  16  16   8  16
#     4  10  24  42  66  99 141 177 225 287 343 399
#     4  11  23  39  61  91 131 173 219 277 344 402
#     4  11  24  39  69  95 134 171 232 278 337 396
#     4  11  24  39  69  95 134 171 232 278 337 396
#     4  10  24  42  66  99 141 177 225 287 343 399
#     4  11  24  43  67 101 141 179 224 284 343 402
#
# _framework density 19.270381
#
# number of rings (size 3 to 8) (size 9 to 14) (size 15 to 20)
#    0.000    1.200    2.000    3.000   14.000    0.000 
#    0.000    5.000    0.000    7.200    0.000    0.000 
#    0.000    0.000    0.000    0.000    0.000    0.000 
#
# Total GULP energy -223104.901953 kJ/mol
# GULP energy per Si atom -5577.622549 kJ/mol
# Density = 1.922652 g / cm^3
# Si number density = 19.270381 Si / 1000 Ang^3
#
#
#
# Elastic Constant Matrix: (Units=GPa)
#
#
# Indices 1 2 3 4 5 6 
#
# 1 100.9293 37.1397 62.2162 0.0000 0.0000 0.0000
# 2 37.1397 174.5270 67.7681 0.0000 0.0000 0.0000
# 3 62.2162 67.7681 207.6543 0.0000 0.0000 0.0000
# 4 0.0000 0.0000 0.0000 48.6485 0.0000 0.0000
# 5 0.0000 0.0000 0.0000 0.0000 -3.4206 0.0000
# 6 0.0000 0.0000 0.0000 0.0000 0.0000 37.2026
#
#
#
# Elastic Compliance Matrix: (Units=1/GPa)
#
#
# Indices 1 2 3 4 5 6 
#
# 1 0.012433 -0.001373 -0.003277 0.000000 0.000000 0.000000
# 2 -0.001373 0.006713 -0.001779 0.000000 0.000000 0.000000
# 3 -0.003277 -0.001779 0.006378 0.000000 0.000000 0.000000
# 4 0.000000 0.000000 0.000000 0.020556 0.000000 0.000000
# 5 0.000000 0.000000 0.000000 0.000000 -0.292350 0.000000
# 6 0.000000 0.000000 0.000000 0.000000 0.000000 0.026880
#
#
# Mechanical properties :
#
#
# Convention : Reuss Voigt Hill
#
# Bulk Modulus (GPa) = 78.95694 90.81761 84.88727
# Shear Modulus (GPa) = -24.71466 37.55189 6.41862
#
# Velocity S-wave (km/s) = -3.58511 4.41918 1.82703
# Velocity P-wave (km/s) = 4.89129 8.55975 6.97116
#
# Compressibility (1/GPa) = 0.01266513
#
# Stress axis : x y z
#
# Youngs Moduli (GPa) = 80.42876 148.96647 156.78399
#
# Poissons Ratio (x) = 0.20459 0.51378
# Poissons Ratio (y) = 0.11046 0.27896
# Poissons Ratio (z) = 0.26357 0.26505
#
# Static dielectric constant tensor:
#      x y z
#    x 1.651990 0.000000 0.000000 
#    y 0.000000 1.794050 0.000000 
#    z 0.000000 0.000000 1.681470 
# 
# From -- ./inp_files/38814.got.cif
#   From: 2010.05.17/outbox.cif.g08.bks.cpg/sg72_20_cif.got.tgz:38814.got - 2010.06.03 17:03:01.
