data_PCOD9528896
_publ_section_title
;
Structure prediction by ZEFSAII (Michael W. Deem and Ramdas Pophale) SiO2 
 PCOD9528896
Probable space group: I B A M
;
_chemical_formula_sum "Si O2"
_cell_formula_units_Z 88
_cell_length_a 9.528518
_cell_length_b 22.562769
_cell_length_c 20.893776
_cell_angle_alpha 90.000000
_cell_angle_beta 90.000000
_cell_angle_gamma 90.000000
_cell_volume 4491.947690
_symmetry_space_group_name_H-M "I B A M"
_symmetry_group_IT_number 72
_symmetry_cell_setting 'orthorhombic'
loop_
_space_group_symop_operation_xyz
x,y,z
-x,-y,z
x,-y,1/2-z
-x,y,1/2-z
-x,-y,-z
x,y,-z
-x,y,1/2+z
x,-y,1/2+z
1/2+x,1/2+y,1/2+z
1/2-x,1/2-y,1/2+z
1/2+x,1/2-y,-z
1/2-x,1/2+y,-z
1/2-x,1/2-y,1/2-z
1/2+x,1/2+y,1/2-z
1/2-x,1/2+y,z
1/2+x,1/2-y,z
loop_
_atom_site_type_symbol
_atom_site_label
_atom_site_fract_x
_atom_site_fract_y
_atom_site_fract_z
Si Si1 0.225785 0.877981 0.614827
Si Si2 0.225743 0.122013 0.614826
Si Si3 0.668030 0.000000 0.825416
Si Si4 0.499976 0.195897 0.575187
Si Si5 0.500020 0.612990 0.500000
Si Si6 0.000019 0.199459 0.821638
O O1 0.362170 0.842081 0.591461
O O2 0.121601 0.886404 0.555746
O O3 0.138158 0.840338 0.666876
O O4 0.270644 0.941084 0.642740
O O5 0.270641 0.058916 0.642741
O O6 0.362109 0.157927 0.591459
O O7 0.121563 0.113578 0.555746
O O8 0.138099 0.159651 0.666874
O O9 0.500000 0.000000 0.833422
O O10 0.699410 0.000000 0.750000
O O11 0.499981 0.213676 0.500000
O O12 0.499987 0.252325 0.621776
O O13 0.000000 0.224883 0.750000
#
# Coordination Sequence:
#
# PCOD9528896 Si02
#       6
#    16  16  16  16   8  16
#     4  11  24  45  70 102 138 178 229 285 342 412
#     4  11  24  45  70 102 138 178 229 285 342 412
#     4  11  24  43  72 102 134 179 226 286 341 409
#     4  12  25  44  74 102 138 183 234 287 340 403
#     4  10  24  43  66 100 134 174 224 275 354 392
#     4  11  27  44  68 103 143 186 228 282 343 410
#
# _framework density 19.590612
#
# number of rings (size 3 to 8) (size 9 to 14) (size 15 to 20)
#    0.000    0.909    3.636    2.182    5.091   10.182 
#    0.000    6.364    0.000    0.000    0.000    0.000 
#    0.000    0.000    0.000    0.000    0.000    0.000 
#
# Total GULP energy -245067.583490 kJ/mol
# GULP energy per Si atom -5569.717807 kJ/mol
# Density = 1.954602 g / cm^3
# Si number density = 19.590612 Si / 1000 Ang^3
#
#
#
# Elastic Constant Matrix: (Units=GPa)
#
#
# Indices 1 2 3 4 5 6 
#
# 1 140.3882 55.1788 72.2323 0.0000 0.0000 0.0000
# 2 55.1788 143.0791 79.6803 0.0000 0.0000 0.0000
# 3 72.2323 79.6803 155.0475 0.0000 0.0000 0.0000
# 4 0.0000 0.0000 0.0000 22.5564 0.0000 0.0000
# 5 0.0000 0.0000 0.0000 0.0000 28.1663 0.0000
# 6 0.0000 0.0000 0.0000 0.0000 0.0000 28.3953
#
#
#
# Elastic Compliance Matrix: (Units=1/GPa)
#
#
# Indices 1 2 3 4 5 6 
#
# 1 0.009658 -0.001708 -0.003622 0.000000 0.000000 0.000000
# 2 -0.001708 0.010093 -0.004392 0.000000 0.000000 0.000000
# 3 -0.003622 -0.004392 0.010394 0.000000 0.000000 0.000000
# 4 0.000000 0.000000 0.000000 0.044333 0.000000 0.000000
# 5 0.000000 0.000000 0.000000 0.000000 0.035503 0.000000
# 6 0.000000 0.000000 0.000000 0.000000 0.000000 0.035217
#
#
# Mechanical properties :
#
#
# Convention : Reuss Voigt Hill
#
# Bulk Modulus (GPa) = 93.43095 94.74419 94.08757
# Shear Modulus (GPa) = 29.72513 31.25183 30.48848
#
# Velocity S-wave (km/s) = 3.89950 3.99839 3.94925
# Velocity P-wave (km/s) = 8.25046 8.35363 8.30220
#
# Compressibility (1/GPa) = 0.01070309
#
# Stress axis : x y z
#
# Youngs Moduli (GPa) = 103.54430 99.07564 96.21194
#
# Poissons Ratio (x) = 0.16918 0.34845
# Poissons Ratio (y) = 0.17681 0.42252
# Poissons Ratio (z) = 0.37501 0.43509
#
# Static dielectric constant tensor:
#      x y z
#    x 1.660080 0.000000 0.000000 
#    y 0.000000 1.681460 0.000000 
#    z 0.000000 0.000000 1.661420 
# 
# From -- ./inp_files/35847.got.cif
#   From: 2010.05.17/outbox.cif.g08.bks.cpg/sg72_18_cif.got.tgz:35847.got - 2010.06.03 17:03:01.
