data_PCOD9528254
_publ_section_title
;
Structure prediction by ZEFSAII (Michael W. Deem and Ramdas Pophale) SiO2 
 PCOD9528254
Probable space group: I B A M
;
_chemical_formula_sum "Si O2"
_cell_formula_units_Z 88
_cell_length_a 11.247422
_cell_length_b 26.868476
_cell_length_c 13.816107
_cell_angle_alpha 90.000000
_cell_angle_beta 90.000000
_cell_angle_gamma 90.000000
_cell_volume 4175.242568
_symmetry_space_group_name_H-M "I B A M"
_symmetry_group_IT_number 72
_symmetry_cell_setting 'orthorhombic'
loop_
_space_group_symop_operation_xyz
x,y,z
-x,-y,z
x,-y,1/2-z
-x,y,1/2-z
-x,-y,-z
x,y,-z
-x,y,1/2+z
x,-y,1/2+z
1/2+x,1/2+y,1/2+z
1/2-x,1/2-y,1/2+z
1/2+x,1/2-y,-z
1/2-x,1/2+y,-z
1/2-x,1/2-y,1/2-z
1/2+x,1/2+y,1/2-z
1/2-x,1/2+y,z
1/2+x,1/2-y,z
loop_
_atom_site_type_symbol
_atom_site_label
_atom_site_fract_x
_atom_site_fract_y
_atom_site_fract_z
Si Si1 0.058768 0.272625 0.384025
Si Si2 0.622295 0.033809 0.500000
Si Si3 0.000000 0.638005 0.750000
Si Si4 0.613590 0.606722 0.312951
Si Si5 0.320028 0.286697 0.617158
Si Si6 0.837701 0.444429 0.780907
Si Si7 0.601222 0.459152 0.000000
O O1 0.054638 0.275358 0.500000
O O2 0.037825 0.325980 0.335974
O O3 0.195780 0.258507 0.358189
O O4 0.944207 0.239706 0.354366
O O5 0.625355 0.061109 0.394829
O O6 0.764101 0.016728 0.500000
O O7 0.500000 0.000000 0.500000
O O8 0.899531 0.598959 0.779131
O O9 0.500000 0.618253 0.250000
O O10 0.679842 0.658196 0.337990
O O11 0.700516 0.567035 0.263616
O O12 0.584039 0.577752 0.410381
O O13 0.322086 0.291506 0.500000
O O14 0.867760 0.500000 0.750000
O O15 0.500000 0.500000 0.000000
#
# Coordination Sequence:
#
# PCOD9528254 Si02
#       7
#    16   8   8  16  16  16   8
#     4  10  24  41  71  95 134 171 223 276 342 401
#     4  10  22  42  72  89 127 180 218 278 334 390
#     4  12  23  40  68  96 130 170 223 278 330 406
#     4  11  24  40  69  92 131 175 222 273 338 396
#     4  10  21  46  68  96 131 177 221 278 338 408
#     4  11  25  43  63  99 135 175 224 275 333 404
#     4  10  24  42  66  97 131 174 226 274 333 405
#
# _framework density 21.076619000000001
#
# number of rings (size 3 to 8) (size 9 to 14) (size 15 to 20)
#    0.000    1.455    2.727    1.364    7.636    2.182 
#    1.636    0.000    0.000    0.000    0.000    0.000 
#    0.000    0.000    0.000    0.000    0.000    0.000 
#
# Total GULP energy -245214.251160 kJ/mol
# GULP energy per Si atom -5573.051163 kJ/mol
# Density = 2.102865 g / cm^3
# Si number density = 21.076619 Si / 1000 Ang^3
#
#
#
# Elastic Constant Matrix: (Units=GPa)
#
#
# Indices 1 2 3 4 5 6 
#
# 1 162.0679 52.1499 43.4702 0.0000 0.0000 0.0000
# 2 52.1499 102.0695 5.8869 0.0000 0.0000 0.0000
# 3 43.4702 5.8869 38.7825 0.0007 -0.0002 0.0000
# 4 0.0000 0.0000 0.0007 34.0716 -0.0001 0.0000
# 5 0.0000 0.0000 -0.0002 -0.0001 27.8551 0.0000
# 6 0.0000 0.0000 0.0000 0.0000 0.0000 38.1369
#
#
#
# Elastic Compliance Matrix: (Units=1/GPa)
#
#
# Indices 1 2 3 4 5 6 
#
# 1 0.010772 -0.004850 -0.011338 0.000000 0.000000 0.000000
# 2 -0.004850 0.012067 0.003604 0.000000 0.000000 0.000000
# 3 -0.011338 0.003604 0.037946 -0.000001 0.000000 0.000000
# 4 0.000000 0.000000 -0.000001 0.029350 0.000000 0.000000
# 5 0.000000 0.000000 0.000000 0.000000 0.035900 0.000000
# 6 0.000000 0.000000 0.000000 0.000000 0.000000 0.026221
#
#
# Mechanical properties :
#
#
# Convention : Reuss Voigt Hill
#
# Bulk Modulus (GPa) = 28.07534 56.21489 42.14512
# Shear Modulus (GPa) = 26.41376 33.44026 29.92701
#
# Velocity S-wave (km/s) = 3.54393 3.98754 3.77226
# Velocity P-wave (km/s) = 5.48593 6.92317 6.24603
#
# Compressibility (1/GPa) = 0.03561845
#
# Stress axis : x y z
#
# Youngs Moduli (GPa) = 92.83516 82.86930 26.35336
#
# Poissons Ratio (x) = 0.40189 0.29879
# Poissons Ratio (y) = 0.45022 -0.09498
# Poissons Ratio (z) = 1.05253 -0.29867
#
# Static dielectric constant tensor:
#      x y z
#    x 1.894520 0.000000 0.000000 
#    y 0.000000 1.716280 0.000000 
#    z 0.000000 0.000000 1.766540 
# 
# From -- ./inp_files/20334.got.cif
#   From: 2010.05.17/outbox.cif.g08.bks.cpg/sg72_11_cif.got.tgz:20334.got - 2010.06.03 17:03:01.
