data_PCOD9528404
_publ_section_title
;
Structure prediction by ZEFSAII (Michael W. Deem and Ramdas Pophale) SiO2 
 PCOD9528404
Probable space group: I B A M
;
_chemical_formula_sum "Si O2"
_cell_formula_units_Z 88
_cell_length_a 12.494126
_cell_length_b 23.572700
_cell_length_c 15.206563
_cell_angle_alpha 90.000000
_cell_angle_beta 90.000000
_cell_angle_gamma 90.000000
_cell_volume 4478.641253
_symmetry_space_group_name_H-M "I B A M"
_symmetry_group_IT_number 72
_symmetry_cell_setting 'orthorhombic'
loop_
_space_group_symop_operation_xyz
x,y,z
-x,-y,z
x,-y,1/2-z
-x,y,1/2-z
-x,-y,-z
x,y,-z
-x,y,1/2+z
x,-y,1/2+z
1/2+x,1/2+y,1/2+z
1/2-x,1/2-y,1/2+z
1/2+x,1/2-y,-z
1/2-x,1/2+y,-z
1/2-x,1/2-y,1/2-z
1/2+x,1/2+y,1/2-z
1/2-x,1/2+y,z
1/2+x,1/2-y,z
loop_
_atom_site_type_symbol
_atom_site_label
_atom_site_fract_x
_atom_site_fract_y
_atom_site_fract_z
Si Si1 0.708984 0.062232 0.258397
Si Si2 0.987822 0.162043 0.646280
Si Si3 0.500000 0.140915 0.250000
Si Si4 0.080187 0.282353 0.100168
Si Si5 0.400654 0.458153 0.399172
Si Si6 0.783270 0.862929 0.401973
O O1 0.607128 0.104005 0.267203
O O2 0.799457 0.049679 0.333334
O O3 0.769074 0.089033 0.172887
O O4 0.659708 0.000000 0.250000
O O5 0.916364 0.216959 0.628418
O O6 0.946912 0.105237 0.601687
O O7 0.000000 0.152547 0.750000
O O8 0.106426 0.170053 0.609876
O O9 0.491697 0.182236 0.333349
O O10 0.191650 0.315774 0.105653
O O11 0.042016 0.284963 0.000000
O O12 0.500000 0.500000 0.371723
O O13 0.371144 0.474009 0.500000
O O14 0.777414 0.888296 0.500000
#
# Coordination Sequence:
#
# PCOD9528404 Si02
#       6
#    16  16   8  16  16  16
#     4  11  23  40  65  90 124 164 210 256 316 366
#     4  12  22  38  65  91 122 160 204 249 310 373
#     4  10  23  42  62  92 123 160 212 264 302 372
#     4  10  22  40  61  87 122 162 204 253 309 367
#     4  11  25  42  63  95 131 164 207 259 312 375
#     4  10  22  40  61  87 123 163 202 252 309 367
#
# _framework density 19.648816
#
# number of rings (size 3 to 8) (size 9 to 14) (size 15 to 20)
#    0.000    1.273    2.727    3.000    0.000    5.091 
#    0.000    0.000    0.000    6.000    0.000    0.000 
#    0.000    0.000    0.000    0.000    0.000    0.000 
#
# Total GULP energy -245355.913750 kJ/mol
# GULP energy per Si atom -5576.270767 kJ/mol
# Density = 1.960409 g / cm^3
# Si number density = 19.648816 Si / 1000 Ang^3
#
#
#
# Elastic Constant Matrix: (Units=GPa)
#
#
# Indices 1 2 3 4 5 6 
#
# 1 63.8633 25.6555 43.4694 0.0000 0.0000 0.0000
# 2 25.6555 126.5048 37.2817 0.0000 0.0000 0.0000
# 3 43.4694 37.2817 85.2889 -0.0001 0.0000 -0.0001
# 4 0.0000 0.0000 -0.0001 14.7430 0.0000 0.0000
# 5 0.0000 0.0000 0.0000 0.0000 29.5495 0.0000
# 6 0.0000 0.0000 -0.0001 0.0000 0.0000 68.1505
#
#
#
# Elastic Compliance Matrix: (Units=1/GPa)
#
#
# Indices 1 2 3 4 5 6 
#
# 1 0.024209 -0.001462 -0.011700 0.000000 0.000000 0.000000
# 2 -0.001462 0.009162 -0.003260 0.000000 0.000000 0.000000
# 3 -0.011700 -0.003260 0.019113 0.000000 0.000000 0.000000
# 4 0.000000 0.000000 0.000000 0.067829 0.000000 0.000000
# 5 0.000000 0.000000 0.000000 0.000000 0.033842 0.000000
# 6 0.000000 0.000000 0.000000 0.000000 0.000000 0.014673
#
#
# Mechanical properties :
#
#
# Convention : Reuss Voigt Hill
#
# Bulk Modulus (GPa) = 50.91323 54.27447 52.59385
# Shear Modulus (GPa) = 24.01329 33.77196 28.89263
#
# Velocity S-wave (km/s) = 3.49968 4.15031 3.83881
# Velocity P-wave (km/s) = 6.50371 7.11681 6.81716
#
# Compressibility (1/GPa) = 0.01964126
#
# Stress axis : x y z
#
# Youngs Moduli (GPa) = 41.30639 109.14655 52.32054
#
# Poissons Ratio (x) = 0.15954 0.61214
# Poissons Ratio (y) = 0.06038 0.17056
# Poissons Ratio (z) = 0.48328 0.35581
#
# Static dielectric constant tensor:
#      x y z
#    x 1.707500 0.000000 0.000000 
#    y 0.000000 1.672950 0.000000 
#    z 0.000000 0.000000 1.731230 
# 
# From -- ./inp_files/20306.got.cif
#   From: 2010.05.17/outbox.cif.g08.bks.cpg/sg72_11_cif.got.tgz:20306.got - 2010.06.03 17:03:01.
