data_PCOD9528378
_publ_section_title
;
Structure prediction by ZEFSAII (Michael W. Deem and Ramdas Pophale) SiO2 
 PCOD9528378
Probable space group: I B A M
;
_chemical_formula_sum "Si O2"
_cell_formula_units_Z 116
_cell_length_a 20.377869
_cell_length_b 15.371356
_cell_length_c 19.575931
_cell_angle_alpha 90.000000
_cell_angle_beta 90.000000
_cell_angle_gamma 90.000000
_cell_volume 6131.876122
_symmetry_space_group_name_H-M "I B A M"
_symmetry_group_IT_number 72
_symmetry_cell_setting 'orthorhombic'
loop_
_space_group_symop_operation_xyz
x,y,z
-x,-y,z
x,-y,1/2-z
-x,y,1/2-z
-x,-y,-z
x,y,-z
-x,y,1/2+z
x,-y,1/2+z
1/2+x,1/2+y,1/2+z
1/2-x,1/2-y,1/2+z
1/2+x,1/2-y,-z
1/2-x,1/2+y,-z
1/2-x,1/2-y,1/2-z
1/2+x,1/2+y,1/2-z
1/2-x,1/2+y,z
1/2+x,1/2-y,z
loop_
_atom_site_type_symbol
_atom_site_label
_atom_site_fract_x
_atom_site_fract_y
_atom_site_fract_z
Si Si1 0.127351 0.099324 0.579569
Si Si2 0.601484 0.756572 0.669701
Si Si3 0.372185 0.549753 0.819170
Si Si4 0.000000 0.500000 0.250000
Si Si5 0.530897 0.240708 0.580847
Si Si6 0.596228 0.131908 0.690510
Si Si7 0.262868 0.118253 0.199002
Si Si8 0.247434 0.691392 0.350728
O O1 0.135255 0.082229 0.500000
O O2 0.067204 0.166560 0.589366
O O3 0.196521 0.142249 0.605794
O O4 0.108217 0.011420 0.618814
O O5 0.609547 0.651864 0.678960
O O6 0.537375 0.767812 0.622602
O O7 0.594655 0.799560 0.745476
O O8 0.667984 0.800442 0.637522
O O9 0.392383 0.500000 0.750000
O O10 0.293045 0.553333 0.822764
O O11 0.041674 0.561809 0.203042
O O12 0.522319 0.224740 0.500000
O O13 0.581427 0.177036 0.619084
O O14 0.664887 0.082489 0.694444
O O15 0.265607 0.206738 0.154910
O O16 0.246459 0.150292 0.275224
#
# Coordination Sequence:
#
# PCOD9528378 Si02
#       8
#    16  16  16   4  16  16  16  16
#     4  11  23  38  59  90 131 167 206 258 311 365
#     4  10  22  39  65  89 122 166 211 257 304 375
#     4  11  21  36  61  95 122 160 210 263 307 359
#     4  12  24  32  66  96 118 140 194 266 304 356
#     4  11  23  42  63  84 125 174 208 247 309 378
#     4  11  21  40  62  95 121 154 203 255 316 365
#     4   9  18  33  62  85 117 148 199 253 303 361
#     4   9  17  35  61  88 109 155 204 252 300 359
#
# _framework density 18.917538
#
# number of rings (size 3 to 8) (size 9 to 14) (size 15 to 20)
#    0.000    1.655    4.138    1.655    0.966    1.655 
#    0.000    5.172    0.000    0.000    0.000    0.000 
#    0.000    0.000    0.000    0.000    0.000    0.000 
#
# Total GULP energy -323289.738594 kJ/mol
# GULP energy per Si atom -5573.961010 kJ/mol
# Density = 1.887448 g / cm^3
# Si number density = 18.917538 Si / 1000 Ang^3
#
#
#
# Elastic Constant Matrix: (Units=GPa)
#
#
# Indices 1 2 3 4 5 6 
#
# 1 71.8194 -5.9961 24.4216 0.0000 0.0000 0.0000
# 2 -5.9961 50.9565 10.0128 0.0000 0.0000 0.0000
# 3 24.4216 10.0128 62.6677 0.0000 0.0000 0.0000
# 4 0.0000 0.0000 0.0000 -5.3934 0.0000 0.0000
# 5 0.0000 0.0000 0.0000 0.0000 13.8593 0.0000
# 6 0.0000 0.0000 0.0000 0.0000 0.0000 20.6773
#
#
#
# Elastic Compliance Matrix: (Units=1/GPa)
#
#
# Indices 1 2 3 4 5 6 
#
# 1 0.016579 0.003325 -0.006992 0.000000 0.000000 0.000000
# 2 0.003325 0.020927 -0.004639 0.000000 0.000000 0.000000
# 3 -0.006992 -0.004639 0.019423 0.000000 0.000000 0.000000
# 4 0.000000 0.000000 0.000000 -0.185412 0.000000 0.000000
# 5 0.000000 0.000000 0.000000 0.000000 0.072154 0.000000
# 6 0.000000 0.000000 0.000000 0.000000 0.000000 0.048362
#
#
# Mechanical properties :
#
#
# Convention : Reuss Voigt Hill
#
# Bulk Modulus (GPa) = 24.80383 26.92447 25.86415
# Shear Modulus (GPa) = 226.38828 16.29566 121.34197
#
# Velocity S-wave (km/s) = 10.95130 2.93815 8.01759
# Velocity P-wave (km/s) = 13.15477 5.07679 9.97050
#
# Compressibility (1/GPa) = 0.04031636
#
# Stress axis : x y z
#
# Youngs Moduli (GPa) = 60.31730 47.78418 51.48467
#
# Poissons Ratio (x) = -0.15887 0.35998
# Poissons Ratio (y) = -0.20054 0.23886
# Poissons Ratio (z) = 0.42174 0.22169
#
# Static dielectric constant tensor:
#      x y z
#    x 1.731880 0.000000 0.000000 
#    y 0.000000 1.735430 0.000000 
#    z 0.000000 0.000000 1.627250 
# 
# From -- ./inp_files/33447.got.cif
#   From: 2010.05.17/outbox.cif.g08.bks.cpg/sg72_17_cif.got.tgz:33447.got - 2010.06.03 17:03:01.
