data_PCOD9528086
_publ_section_title
;
Structure prediction by ZEFSAII (Michael W. Deem and Ramdas Pophale) SiO2 
 PCOD9528086
Probable space group: I B A M
;
_chemical_formula_sum "Si O2"
_cell_formula_units_Z 96
_cell_length_a 9.930982
_cell_length_b 21.004731
_cell_length_c 26.009618
_cell_angle_alpha 90.000000
_cell_angle_beta 90.000000
_cell_angle_gamma 90.000000
_cell_volume 5425.544034
_symmetry_space_group_name_H-M "I B A M"
_symmetry_group_IT_number 72
_symmetry_cell_setting 'orthorhombic'
loop_
_space_group_symop_operation_xyz
x,y,z
-x,-y,z
x,-y,1/2-z
-x,y,1/2-z
-x,-y,-z
x,y,-z
-x,y,1/2+z
x,-y,1/2+z
1/2+x,1/2+y,1/2+z
1/2-x,1/2-y,1/2+z
1/2+x,1/2-y,-z
1/2-x,1/2+y,-z
1/2-x,1/2-y,1/2-z
1/2+x,1/2+y,1/2-z
1/2-x,1/2+y,z
1/2+x,1/2-y,z
loop_
_atom_site_type_symbol
_atom_site_label
_atom_site_fract_x
_atom_site_fract_y
_atom_site_fract_z
Si Si1 0.465649 0.253358 0.115251
Si Si2 0.300328 0.039163 0.303173
Si Si3 0.281457 0.584907 0.146866
Si Si4 0.552441 0.364679 0.694538
Si Si5 0.479074 0.856473 0.308254
Si Si6 0.719412 0.316569 0.060944
O O1 0.417718 0.307071 0.155713
O O2 0.521734 0.195932 0.150460
O O3 0.582850 0.283050 0.080595
O O4 0.344272 0.225369 0.081638
O O5 0.179848 0.089774 0.298229
O O6 0.434373 0.079187 0.313720
O O7 0.312450 0.000000 0.250000
O O8 0.263533 0.987600 0.346455
O O9 0.429633 0.595335 0.169681
O O10 0.176087 0.626733 0.180464
O O11 0.274155 0.615738 0.090538
O O12 0.500000 0.341505 0.750000
O O13 0.500000 0.834030 0.250000
O O14 0.722528 0.322619 0.000000
#
# Coordination Sequence:
#
# PCOD9528086 Si02
#       6
#    16  16  16  16  16  16
#     4  10  22  36  58  86 110 146 190 234 286 338
#     4  12  21  33  54  80 116 157 186 213 269 340
#     4  10  22  33  53  82 109 146 192 227 273 328
#     4  11  20  34  53  82 119 150 178 225 274 340
#     4  11  20  34  53  82 119 150 178 225 274 340
#     4  10  21  40  60  79 108 149 193 246 289 321
#
# _framework density 17.694078000000001
#
# number of rings (size 3 to 8) (size 9 to 14) (size 15 to 20)
#    0.000    1.333    3.333    3.000    0.000    0.000 
#    0.000    6.667    0.000   20.000    0.000    0.000 
#    0.000    0.000    0.000    0.000    0.000    0.000 
#
# Total GULP energy -268152.819037 kJ/mol
# GULP energy per Si atom -5586.517063 kJ/mol
# Density = 1.765381 g / cm^3
# Si number density = 17.694078 Si / 1000 Ang^3
#
#
#
# Elastic Constant Matrix: (Units=GPa)
#
#
# Indices 1 2 3 4 5 6 
#
# 1 56.4992 17.3774 21.5907 0.0000 0.0000 0.0000
# 2 17.3774 90.1522 46.7450 0.0000 0.0000 0.0000
# 3 21.5907 46.7450 129.7846 0.0000 0.0000 0.0000
# 4 0.0000 0.0000 0.0000 19.2571 0.0000 0.0000
# 5 0.0000 0.0000 0.0000 0.0000 20.3409 0.0000
# 6 0.0000 0.0000 0.0000 0.0000 0.0000 24.2600
#
#
#
# Elastic Compliance Matrix: (Units=1/GPa)
#
#
# Indices 1 2 3 4 5 6 
#
# 1 0.019361 -0.002535 -0.002308 0.000000 0.000000 0.000000
# 2 -0.002535 0.013972 -0.004610 0.000000 0.000000 0.000000
# 3 -0.002308 -0.004610 0.009750 0.000000 0.000000 0.000000
# 4 0.000000 0.000000 0.000000 0.051929 0.000000 0.000000
# 5 0.000000 0.000000 0.000000 0.000000 0.049162 0.000000
# 6 0.000000 0.000000 0.000000 0.000000 0.000000 0.041220
#
#
# Mechanical properties :
#
#
# Convention : Reuss Voigt Hill
#
# Bulk Modulus (GPa) = 41.36476 49.76248 45.56362
# Shear Modulus (GPa) = 23.54506 25.48646 24.51576
#
# Velocity S-wave (km/s) = 3.65180 3.79937 3.72632
# Velocity P-wave (km/s) = 6.41945 6.88708 6.65737
#
# Compressibility (1/GPa) = 0.02417517
#
# Stress axis : x y z
#
# Youngs Moduli (GPa) = 51.65015 71.57355 102.56909
#
# Poissons Ratio (x) = 0.18147 0.23670
# Poissons Ratio (y) = 0.13095 0.47289
# Poissons Ratio (z) = 0.11919 0.32998
#
# Static dielectric constant tensor:
#      x y z
#    x 1.603420 0.000000 0.000000 
#    y 0.000000 1.610920 0.000000 
#    z 0.000000 0.000000 1.579070 
# 
# From -- ./inp_files/43455.got.cif
#   From: 2010.05.17/outbox.cif.g08.bks.cpg/sg72_22_cif.got.tgz:43455.got - 2010.06.03 17:03:01.
