data_PCOD9528551
_publ_section_title
;
Structure prediction by ZEFSAII (Michael W. Deem and Ramdas Pophale) SiO2 
 PCOD9528551
Probable space group: I B A M
;
_chemical_formula_sum "Si O2"
_cell_formula_units_Z 88
_cell_length_a 19.515943
_cell_length_b 9.893628
_cell_length_c 18.340856
_cell_angle_alpha 90.000000
_cell_angle_beta 90.000000
_cell_angle_gamma 90.000000
_cell_volume 3541.316305
_symmetry_space_group_name_H-M "I B A M"
_symmetry_group_IT_number 72
_symmetry_cell_setting 'orthorhombic'
loop_
_space_group_symop_operation_xyz
x,y,z
-x,-y,z
x,-y,1/2-z
-x,y,1/2-z
-x,-y,-z
x,y,-z
-x,y,1/2+z
x,-y,1/2+z
1/2+x,1/2+y,1/2+z
1/2-x,1/2-y,1/2+z
1/2+x,1/2-y,-z
1/2-x,1/2+y,-z
1/2-x,1/2-y,1/2-z
1/2+x,1/2+y,1/2-z
1/2-x,1/2+y,z
1/2+x,1/2-y,z
loop_
_atom_site_type_symbol
_atom_site_label
_atom_site_fract_x
_atom_site_fract_y
_atom_site_fract_z
Si Si1 0.740112 0.000000 0.750000
Si Si2 0.880980 0.313200 0.271005
Si Si3 0.639611 0.461902 0.149643
Si Si4 0.299681 0.450987 0.500000
Si Si5 0.667886 0.768625 0.000000
Si Si6 0.941555 0.615581 0.919348
Si Si7 0.061457 0.229154 0.372494
O O1 0.690178 0.127589 0.741556
O O2 0.789509 0.976667 0.681247
O O3 0.876620 0.159000 0.296340
O O4 0.897499 0.393117 0.345755
O O5 0.933040 0.311089 0.203307
O O6 0.582068 0.575155 0.143093
O O7 0.658915 0.406034 0.070997
O O8 0.300923 0.615722 0.500000
O O9 0.226221 0.380751 0.500000
O O10 0.618803 0.779671 0.070368
O O11 0.000000 0.500000 0.918525
O O12 0.987595 0.750165 0.907801
O O13 0.908999 0.611921 0.000000
#
# Coordination Sequence:
#
# PCOD9528551 Si02
#       7
#     8  16  16   8   8  16  16
#     4  12  24  44  69 105 148 178 232 302 346 434
#     4  12  25  42  73 102 138 185 237 287 356 434
#     4  11  25  43  66 105 142 184 231 291 367 432
#     4  10  24  38  63  97 145 185 242 280 367 441
#     4  10  22  42  66 103 140 198 226 307 359 429
#     4  11  26  49  70 102 138 183 243 299 358 427
#     4  11  22  46  70  98 142 184 236 294 362 421
#
# _framework density 24.849516999999999
#
# number of rings (size 3 to 8) (size 9 to 14) (size 15 to 20)
#    0.000    0.909    2.727    3.273    6.364    1.455 
#    1.636    2.727    0.000    0.000    0.000    0.000 
#    0.000    0.000    0.000    0.000    0.000    0.000 
#
# Total GULP energy -246426.339105 kJ/mol
# GULP energy per Si atom -5600.598616 kJ/mol
# Density = 2.479296 g / cm^3
# Si number density = 24.849517 Si / 1000 Ang^3
#
#
#
# Elastic Constant Matrix: (Units=GPa)
#
#
# Indices 1 2 3 4 5 6 
#
# 1 67.7834 28.4755 19.9657 0.0000 0.0000 0.0000
# 2 28.4755 77.3295 15.4136 0.0000 0.0000 0.0000
# 3 19.9657 15.4136 171.4149 0.0000 0.0000 0.0000
# 4 0.0000 0.0000 0.0000 27.7931 0.0000 0.0000
# 5 0.0000 0.0000 0.0000 0.0000 39.3180 0.0000
# 6 0.0000 0.0000 0.0000 0.0000 0.0000 43.3449
#
#
#
# Elastic Compliance Matrix: (Units=1/GPa)
#
#
# Indices 1 2 3 4 5 6 
#
# 1 0.017830 -0.006264 -0.001514 0.000000 0.000000 0.000000
# 2 -0.006264 0.015368 -0.000652 0.000000 0.000000 0.000000
# 3 -0.001514 -0.000652 0.006069 0.000000 0.000000 0.000000
# 4 0.000000 0.000000 0.000000 0.035980 0.000000 0.000000
# 5 0.000000 0.000000 0.000000 0.000000 0.025434 0.000000
# 6 0.000000 0.000000 0.000000 0.000000 0.000000 0.023071
#
#
# Mechanical properties :
#
#
# Convention : Reuss Voigt Hill
#
# Bulk Modulus (GPa) = 44.62788 49.35973 46.99381
# Shear Modulus (GPa) = 33.76538 38.93608 36.35073
#
# Velocity S-wave (km/s) = 3.69018 3.96267 3.82885
# Velocity P-wave (km/s) = 6.01289 6.39090 6.20477
#
# Compressibility (1/GPa) = 0.02240752
#
# Stress axis : x y z
#
# Youngs Moduli (GPa) = 56.08465 65.06883 164.77876
#
# Poissons Ratio (x) = 0.40759 0.24940
# Poissons Ratio (y) = 0.35132 0.10749
# Poissons Ratio (z) = 0.08489 0.04245
#
# Static dielectric constant tensor:
#      x y z
#    x 1.913870 0.000000 0.000000 
#    y 0.000000 2.046140 0.000000 
#    z 0.000000 0.000000 1.960260 
# 
# From -- ./inp_files/32527.got.cif
#   From: 2010.05.17/outbox.cif.g08.bks.cpg/sg72_17_cif.got.tgz:32527.got - 2010.06.03 17:03:01.
