data_PCOD9528813
_publ_section_title
;
Structure prediction by ZEFSAII (Michael W. Deem and Ramdas Pophale) SiO2 
 PCOD9528813
Probable space group: I B A M
;
_chemical_formula_sum "Si O2"
_cell_formula_units_Z 88
_cell_length_a 18.820133
_cell_length_b 9.034389
_cell_length_c 23.177683
_cell_angle_alpha 90.000000
_cell_angle_beta 90.000000
_cell_angle_gamma 90.000000
_cell_volume 3940.864415
_symmetry_space_group_name_H-M "I B A M"
_symmetry_group_IT_number 72
_symmetry_cell_setting 'orthorhombic'
loop_
_space_group_symop_operation_xyz
x,y,z
-x,-y,z
x,-y,1/2-z
-x,y,1/2-z
-x,-y,-z
x,y,-z
-x,y,1/2+z
x,-y,1/2+z
1/2+x,1/2+y,1/2+z
1/2-x,1/2-y,1/2+z
1/2+x,1/2-y,-z
1/2-x,1/2+y,-z
1/2-x,1/2-y,1/2-z
1/2+x,1/2+y,1/2-z
1/2-x,1/2+y,z
1/2+x,1/2-y,z
loop_
_atom_site_type_symbol
_atom_site_label
_atom_site_fract_x
_atom_site_fract_y
_atom_site_fract_z
Si Si1 0.836273 0.793987 0.434544
Si Si2 0.491536 0.338754 0.904026
Si Si3 0.000000 0.500000 0.617274
Si Si4 0.135328 0.428277 0.192406
Si Si5 0.105220 0.104823 0.804047
Si Si6 0.257276 0.534074 0.118527
O O1 0.855969 0.752060 0.500000
O O2 0.907222 0.822494 0.397908
O O3 0.787184 0.672043 0.404752
O O4 0.793851 0.947007 0.433392
O O5 0.500000 0.500000 0.937652
O O6 0.508619 0.160048 0.916660
O O7 0.542393 0.376252 0.850562
O O8 0.068924 0.496298 0.659349
O O9 0.164086 0.500000 0.250000
O O10 0.111754 0.271548 0.216608
O O11 0.199517 0.426741 0.147665
O O12 0.179365 0.068028 0.836566
O O13 0.091638 0.000000 0.750000
#
# Coordination Sequence:
#
# PCOD9528813 Si02
#       6
#    16  16   8  16  16  16
#     4  12  27  50  76 103 141 196 257 320 382 438
#     4  11  24  47  73 105 147 195 246 310 367 451
#     4  10  23  44  65 104 150 190 243 292 359 436
#     4  11  24  40  68 100 147 196 231 285 369 445
#     4  11  26  43  71 109 147 191 238 295 373 459
#     4  12  24  47  70 107 146 187 245 313 372 449
#
# _framework density 22.330126
#
# number of rings (size 3 to 8) (size 9 to 14) (size 15 to 20)
#    0.000    0.727    5.455    1.364    5.091    2.182 
#    0.000    0.455    0.000    0.000    0.000    0.000 
#    0.000    0.000    0.000    0.000    0.000    0.000 
#
# Total GULP energy -244943.530389 kJ/mol
# GULP energy per Si atom -5566.898418 kJ/mol
# Density = 2.227930 g / cm^3
# Si number density = 22.330126 Si / 1000 Ang^3
#
#
#
# Elastic Constant Matrix: (Units=GPa)
#
#
# Indices 1 2 3 4 5 6 
#
# 1 147.6390 28.6759 38.6782 0.0000 0.0000 0.0000
# 2 28.6759 148.5031 24.3623 0.0000 0.0000 0.0000
# 3 38.6782 24.3623 78.4119 0.0000 0.0000 0.0000
# 4 0.0000 0.0000 0.0000 4.4852 0.0000 0.0000
# 5 0.0000 0.0000 0.0000 0.0000 -21.5698 0.0000
# 6 0.0000 0.0000 0.0000 0.0000 0.0000 40.5616
#
#
#
# Elastic Compliance Matrix: (Units=1/GPa)
#
#
# Indices 1 2 3 4 5 6 
#
# 1 0.007899 -0.000934 -0.003606 0.000000 0.000000 0.000000
# 2 -0.000934 0.007206 -0.001778 0.000000 0.000000 0.000000
# 3 -0.003606 -0.001778 0.015085 0.000000 0.000000 0.000000
# 4 0.000000 0.000000 0.000000 0.222954 0.000000 0.000000
# 5 0.000000 0.000000 0.000000 0.000000 -0.046361 0.000000
# 6 0.000000 0.000000 0.000000 0.000000 0.000000 0.024654
#
#
# Mechanical properties :
#
#
# Convention : Reuss Voigt Hill
#
# Bulk Modulus (GPa) = 56.97008 61.99852 59.48430
# Shear Modulus (GPa) = 20.00600 23.55123 21.77861
#
# Velocity S-wave (km/s) = 2.99644 3.25111 3.12637
# Velocity P-wave (km/s) = 6.12695 6.47439 6.30307
#
# Compressibility (1/GPa) = 0.01755307
#
# Stress axis : x y z
#
# Youngs Moduli (GPa) = 126.59113 138.77514 66.29268
#
# Poissons Ratio (x) = 0.12958 0.23908
# Poissons Ratio (y) = 0.11820 0.11789
# Poissons Ratio (z) = 0.45654 0.24678
#
# Static dielectric constant tensor:
#      x y z
#    x 1.798790 0.000000 0.000000 
#    y 0.000000 1.949470 0.000000 
#    z 0.000000 0.000000 1.767060 
# 
# From -- ./inp_files/45278.got.cif
#   From: 2010.05.17/outbox.cif.g08.bks.cpg/sg72_23_cif.got.tgz:45278.got - 2010.06.03 17:03:01.
