data_PCOD9528751
_publ_section_title
;
Structure prediction by ZEFSAII (Michael W. Deem and Ramdas Pophale) SiO2 
 PCOD9528751
Probable space group: I B A M
;
_chemical_formula_sum "Si O2"
_cell_formula_units_Z 64
_cell_length_a 10.170001
_cell_length_b 17.169166
_cell_length_c 18.203152
_cell_angle_alpha 90.000000
_cell_angle_beta 90.000000
_cell_angle_gamma 90.000000
_cell_volume 3178.460296
_symmetry_space_group_name_H-M "I B A M"
_symmetry_group_IT_number 72
_symmetry_cell_setting 'orthorhombic'
loop_
_space_group_symop_operation_xyz
x,y,z
-x,-y,z
x,-y,1/2-z
-x,y,1/2-z
-x,-y,-z
x,y,-z
-x,y,1/2+z
x,-y,1/2+z
1/2+x,1/2+y,1/2+z
1/2-x,1/2-y,1/2+z
1/2+x,1/2-y,-z
1/2-x,1/2+y,-z
1/2-x,1/2-y,1/2-z
1/2+x,1/2+y,1/2-z
1/2-x,1/2+y,z
1/2+x,1/2-y,z
loop_
_atom_site_type_symbol
_atom_site_label
_atom_site_fract_x
_atom_site_fract_y
_atom_site_fract_z
Si Si1 0.118531 0.547781 0.326050
Si Si2 0.649531 0.509119 0.413313
Si Si3 0.009507 0.278922 0.830862
Si Si4 0.263343 0.312258 0.413019
O O1 0.138660 0.500000 0.250000
O O2 0.251739 0.546460 0.370977
O O3 0.070778 0.635421 0.317435
O O4 0.000000 0.500000 0.364986
O O5 0.500000 0.500000 0.387557
O O6 0.651605 0.491793 0.500000
O O7 0.704474 0.596320 0.402545
O O8 0.110593 0.233448 0.882492
O O9 0.000000 0.241006 0.750000
O O10 0.867366 0.288562 0.868514
O O11 0.244852 0.298198 0.500000
#
# Coordination Sequence:
#
# PCOD9528751 Si02
#       4
#    16  16  16  16
#     4  11  21  42  67  94 124 163 214 267 314 382
#     4  10  23  42  63  91 127 168 217 268 318 376
#     4  12  24  43  67  94 131 171 214 265 328 385
#     4  11  25  43  63  95 133 171 217 266 322 390
#
# _framework density 20.135535000000001
#
# number of rings (size 3 to 8) (size 9 to 14) (size 15 to 20)
#    0.000    1.000    5.000    1.500    3.500    3.000 
#    0.000    0.000    0.000    0.000    0.000    0.000 
#    0.000    0.000    0.000    0.000    0.000    0.000 
#
# Total GULP energy -178871.246906 kJ/mol
# GULP energy per Si atom -5589.726466 kJ/mol
# Density = 2.008971 g / cm^3
# Si number density = 20.135535 Si / 1000 Ang^3
#
#
#
# Elastic Constant Matrix: (Units=GPa)
#
#
# Indices 1 2 3 4 5 6 
#
# 1 179.9147 -0.7546 66.0448 0.0000 0.0000 0.0000
# 2 -0.7546 12.1442 11.2505 0.0000 0.0000 0.0000
# 3 66.0448 11.2505 84.4186 0.0000 0.0000 0.0000
# 4 0.0000 0.0000 0.0000 15.2068 0.0000 0.0000
# 5 0.0000 0.0000 0.0000 0.0000 40.6083 0.0000
# 6 0.0000 0.0000 0.0000 0.0000 0.0000 34.8915
#
#
#
# Elastic Compliance Matrix: (Units=1/GPa)
#
#
# Indices 1 2 3 4 5 6 
#
# 1 0.008357 0.007502 -0.007538 0.000000 0.000000 0.000000
# 2 0.007502 0.100677 -0.019287 0.000000 0.000000 0.000000
# 3 -0.007538 -0.019287 0.020313 0.000000 0.000000 0.000000
# 4 0.000000 0.000000 0.000000 0.065760 0.000000 0.000000
# 5 0.000000 0.000000 0.000000 0.000000 0.024626 0.000000
# 6 0.000000 0.000000 0.000000 0.000000 0.000000 0.028660
#
#
# Mechanical properties :
#
#
# Convention : Reuss Voigt Hill
#
# Bulk Modulus (GPa) = 11.02499 47.72875 29.37687
# Shear Modulus (GPa) = 15.75937 31.47043 23.61490
#
# Velocity S-wave (km/s) = 2.80065 3.95768 3.42833
# Velocity P-wave (km/s) = 3.99318 6.68128 5.50386
#
# Compressibility (1/GPa) = 0.09070303
#
# Stress axis : x y z
#
# Youngs Moduli (GPa) = 119.66535 9.93272 49.22929
#
# Poissons Ratio (x) = -0.07452 0.37107
# Poissons Ratio (y) = -0.89775 0.94947
# Poissons Ratio (z) = 0.90199 0.19157
#
# Static dielectric constant tensor:
#      x y z
#    x 1.693310 0.000000 0.000000 
#    y 0.000000 1.718850 0.000000 
#    z 0.000000 0.000000 1.714240 
# 
# From -- ./inp_files/22801.got.cif
#   From: 2010.05.17/outbox.cif.g08.bks.cpg/sg72_12_cif.got.tgz:22801.got - 2010.06.03 17:03:01.
