data_PCOD9528420
_publ_section_title
;
Structure prediction by ZEFSAII (Michael W. Deem and Ramdas Pophale) SiO2 
 PCOD9528420
Probable space group: I B A M
;
_chemical_formula_sum "Si O2"
_cell_formula_units_Z 96
_cell_length_a 21.031540
_cell_length_b 23.969118
_cell_length_c 8.266505
_cell_angle_alpha 90.000000
_cell_angle_beta 90.000000
_cell_angle_gamma 90.000000
_cell_volume 4167.206872
_symmetry_space_group_name_H-M "I B A M"
_symmetry_group_IT_number 72
_symmetry_cell_setting 'orthorhombic'
loop_
_space_group_symop_operation_xyz
x,y,z
-x,-y,z
x,-y,1/2-z
-x,y,1/2-z
-x,-y,-z
x,y,-z
-x,y,1/2+z
x,-y,1/2+z
1/2+x,1/2+y,1/2+z
1/2-x,1/2-y,1/2+z
1/2+x,1/2-y,-z
1/2-x,1/2+y,-z
1/2-x,1/2-y,1/2-z
1/2+x,1/2+y,1/2-z
1/2-x,1/2+y,z
1/2+x,1/2-y,z
loop_
_atom_site_type_symbol
_atom_site_label
_atom_site_fract_x
_atom_site_fract_y
_atom_site_fract_z
Si Si1 0.932149 0.087691 0.186611
Si Si2 0.735193 0.674703 0.186814
Si Si3 0.400939 0.704267 0.185748
Si Si4 0.202573 0.940273 0.313169
Si Si5 0.375998 0.179933 0.807217
Si Si6 0.573234 0.940100 0.806418
O O1 0.929895 0.155230 0.205090
O O2 0.873738 0.065163 0.292294
O O3 0.000000 0.068311 0.250000
O O4 0.921825 0.072734 0.000000
O O5 0.674902 0.695394 0.288915
O O6 0.730614 0.607965 0.201933
O O7 0.802702 0.689750 0.260572
O O8 0.729200 0.692178 0.000000
O O9 0.414594 0.767948 0.233657
O O10 0.417939 0.693749 0.000000
O O11 0.220151 0.931130 0.500000
O O12 0.222883 0.000000 0.250000
O O13 0.395300 0.117939 0.749063
O O14 0.383068 0.181825 0.000000
O O15 0.500000 0.938523 0.750000
O O16 0.600451 0.000000 0.750000
O O17 0.575579 0.940094 0.000000
#
# Coordination Sequence:
#
# PCOD9528420 Si02
#       6
#    16  16  16  16  16  16
#     4  11  22  39  60  85 116 153 194 240 290 343
#     4  11  22  38  59  85 117 154 191 237 289 342
#     4  11  22  38  59  85 117 154 191 237 289 342
#     4  11  22  39  60  85 116 153 194 240 290 343
#     4  11  23  39  59  87 117 152 193 235 281 342
#     4  10  22  40  63  85 114 148 184 230 282 335
#
# _framework density 23.037012000000001
#
# number of rings (size 3 to 8) (size 9 to 14) (size 15 to 20)
#    0.000    1.167    0.000   10.000    0.000    4.333 
#    0.000    5.000    0.000    0.000    0.000    0.000 
#    0.000    0.000    0.000    0.000    0.000    0.000 
#
# Total GULP energy -268626.233808 kJ/mol
# GULP energy per Si atom -5596.379871 kJ/mol
# Density = 2.298458 g / cm^3
# Si number density = 23.037012 Si / 1000 Ang^3
#
#
#
# Elastic Constant Matrix: (Units=GPa)
#
#
# Indices 1 2 3 4 5 6 
#
# 1 36.9189 -9.3010 -13.8515 0.0000 0.0000 0.0000
# 2 -9.3010 124.0117 -1.7270 0.0000 0.0000 0.0000
# 3 -13.8515 -1.7270 95.4659 0.0000 0.0000 0.0000
# 4 0.0000 0.0000 0.0000 30.9471 0.0000 0.0000
# 5 0.0000 0.0000 0.0000 0.0000 20.4592 0.0000
# 6 0.0000 0.0000 0.0000 0.0000 0.0000 -15.3661
#
#
#
# Elastic Compliance Matrix: (Units=1/GPa)
#
#
# Indices 1 2 3 4 5 6 
#
# 1 0.029263 0.002254 0.004287 0.000000 0.000000 0.000000
# 2 0.002254 0.008239 0.000476 0.000000 0.000000 0.000000
# 3 0.004287 0.000476 0.011106 0.000000 0.000000 0.000000
# 4 0.000000 0.000000 0.000000 0.032313 0.000000 0.000000
# 5 0.000000 0.000000 0.000000 0.000000 0.048878 0.000000
# 6 0.000000 0.000000 0.000000 0.000000 0.000000 -0.065078
#
#
# Mechanical properties :
#
#
# Convention : Reuss Voigt Hill
#
# Bulk Modulus (GPa) = 15.96373 22.95972 19.46172
# Shear Modulus (GPa) = 69.86502 25.95977 47.91239
#
# Velocity S-wave (km/s) = 5.51300 3.36053 4.56543
# Velocity P-wave (km/s) = 6.88976 5.00456 6.02140
#
# Compressibility (1/GPa) = 0.06264201
#
# Stress axis : x y z
#
# Youngs Moduli (GPa) = 34.17325 121.36703 90.04530
#
# Poissons Ratio (x) = -0.27361 -0.38599
# Poissons Ratio (y) = -0.07704 -0.04288
# Poissons Ratio (z) = -0.14649 -0.05779
#
# Static dielectric constant tensor:
#      x y z
#    x 1.872860 0.000000 0.000000 
#    y 0.000000 1.940520 0.000000 
#    z 0.000000 0.000000 1.769050 
# 
# From -- ./inp_files/6949.got.cif
#   From: 2010.05.17/outbox.cif.g08.bks.cpg/sg72_4_cif.got.tgz:6949.got - 2010.06.03 17:03:01.
