data_PCOD9528877
_publ_section_title
;
Structure prediction by ZEFSAII (Michael W. Deem and Ramdas Pophale) SiO2 
 PCOD9528877
Probable space group: I B A M
;
_chemical_formula_sum "Si O2"
_cell_formula_units_Z 56
_cell_length_a 17.514784
_cell_length_b 7.667134
_cell_length_c 15.730371
_cell_angle_alpha 90.000000
_cell_angle_beta 90.000000
_cell_angle_gamma 90.000000
_cell_volume 2112.403143
_symmetry_space_group_name_H-M "I B A M"
_symmetry_group_IT_number 72
_symmetry_cell_setting 'orthorhombic'
loop_
_space_group_symop_operation_xyz
x,y,z
-x,-y,z
x,-y,1/2-z
-x,y,1/2-z
-x,-y,-z
x,y,-z
-x,y,1/2+z
x,-y,1/2+z
1/2+x,1/2+y,1/2+z
1/2-x,1/2-y,1/2+z
1/2+x,1/2-y,-z
1/2-x,1/2+y,-z
1/2-x,1/2-y,1/2-z
1/2+x,1/2+y,1/2-z
1/2-x,1/2+y,z
1/2+x,1/2-y,z
loop_
_atom_site_type_symbol
_atom_site_label
_atom_site_fract_x
_atom_site_fract_y
_atom_site_fract_z
Si Si1 0.003566 0.788731 0.351755
Si Si2 0.227857 0.947659 0.000000
Si Si3 0.226962 0.000000 0.750000
Si Si4 0.662254 0.787631 0.147843
Si Si5 0.878609 0.291336 0.500000
O O1 0.070030 0.723092 0.414730
O O2 0.000000 0.755613 0.250000
O O3 0.924709 0.695614 0.378104
O O4 0.000000 0.000000 0.363639
O O5 0.201295 0.831084 0.078402
O O6 0.177827 0.122825 0.000000
O O7 0.320158 0.954261 0.000000
O O8 0.285303 0.947371 0.675267
O O9 0.171729 0.838079 0.768663
#
# Coordination Sequence:
#
# PCOD9528877 Si02
#       5
#    16   8   8  16   8
#     4  11  23  42  73 108 142 194 246 312 372 460
#     4  12  25  42  75 106 144 196 250 326 365 453
#     4  10  24  40  72 106 148 190 250 306 364 458
#     4  11  23  43  70 104 146 194 248 310 374 448
#     4  12  26  47  74 111 150 196 264 312 386 448
#
# _framework density 26.510092
#
# number of rings (size 3 to 8) (size 9 to 14) (size 15 to 20)
#    0.000    0.857    2.857    4.714    8.000    0.000 
#    0.000    0.714    0.000    3.429    0.000    0.000 
#    0.000    0.000    0.000    0.000    0.000    0.000 
#
# Total GULP energy -156775.400411 kJ/mol
# GULP energy per Si atom -5599.121443 kJ/mol
# Density = 2.644975 g / cm^3
# Si number density = 26.510092 Si / 1000 Ang^3
#
#
#
# Elastic Constant Matrix: (Units=GPa)
#
#
# Indices 1 2 3 4 5 6 
#
# 1 242.8219 57.0621 83.1546 0.0000 0.0000 0.0000
# 2 57.0621 102.0864 34.7595 0.0000 0.0000 0.0000
# 3 83.1546 34.7595 126.3126 0.0000 0.0000 0.0000
# 4 0.0000 0.0000 0.0000 33.5919 0.0000 0.0000
# 5 0.0000 0.0000 0.0000 0.0000 106.2781 0.0000
# 6 0.0000 0.0000 0.0000 0.0000 0.0000 46.0360
#
#
#
# Elastic Compliance Matrix: (Units=1/GPa)
#
#
# Indices 1 2 3 4 5 6 
#
# 1 0.005700 -0.002106 -0.003173 0.000000 0.000000 0.000000
# 2 -0.002106 0.011586 -0.001802 0.000000 0.000000 0.000000
# 3 -0.003173 -0.001802 0.010502 0.000000 0.000000 0.000000
# 4 0.000000 0.000000 0.000000 0.029769 0.000000 0.000000
# 5 0.000000 0.000000 0.000000 0.000000 0.009409 0.000000
# 6 0.000000 0.000000 0.000000 0.000000 0.000000 0.021722
#
#
# Mechanical properties :
#
#
# Convention : Reuss Voigt Hill
#
# Bulk Modulus (GPa) = 73.38790 91.24147 82.31469
# Shear Modulus (GPa) = 46.55893 56.93084 51.74488
#
# Velocity S-wave (km/s) = 4.19534 4.63916 4.42282
# Velocity P-wave (km/s) = 7.15618 7.94909 7.56303
#
# Compressibility (1/GPa) = 0.01362622
#
# Stress axis : x y z
#
# Youngs Moduli (GPa) = 175.45286 86.30974 95.22446
#
# Poissons Ratio (x) = 0.18173 0.30212
# Poissons Ratio (y) = 0.36942 0.17162
# Poissons Ratio (z) = 0.55666 0.15555
#
# Static dielectric constant tensor:
#      x y z
#    x 2.030300 0.000000 0.000000 
#    y 0.000000 2.061200 0.000000 
#    z 0.000000 0.000000 2.201890 
# 
# From -- ./inp_files/31116.got.cif
#   From: 2010.05.17/outbox.cif.g08.bks.cpg/sg72_16_cif.got.tgz:31116.got - 2010.06.03 17:03:01.
