data_PCOD9528409
_publ_section_title
;
Structure prediction by ZEFSAII (Michael W. Deem and Ramdas Pophale) SiO2 
 PCOD9528409
Probable space group: I B A M
;
_chemical_formula_sum "Si O2"
_cell_formula_units_Z 96
_cell_length_a 26.499056
_cell_length_b 20.777137
_cell_length_c 8.962756
_cell_angle_alpha 90.000000
_cell_angle_beta 90.000000
_cell_angle_gamma 90.000000
_cell_volume 4934.665055
_symmetry_space_group_name_H-M "I B A M"
_symmetry_group_IT_number 72
_symmetry_cell_setting 'orthorhombic'
loop_
_space_group_symop_operation_xyz
x,y,z
-x,-y,z
x,-y,1/2-z
-x,y,1/2-z
-x,-y,-z
x,y,-z
-x,y,1/2+z
x,-y,1/2+z
1/2+x,1/2+y,1/2+z
1/2-x,1/2-y,1/2+z
1/2+x,1/2-y,-z
1/2-x,1/2+y,-z
1/2-x,1/2-y,1/2-z
1/2+x,1/2+y,1/2-z
1/2-x,1/2+y,z
1/2+x,1/2-y,z
loop_
_atom_site_type_symbol
_atom_site_label
_atom_site_fract_x
_atom_site_fract_y
_atom_site_fract_z
Si Si1 0.205911 0.214843 0.666857
Si Si2 0.614779 0.185941 0.668959
Si Si3 0.944995 0.189636 0.181229
Si Si4 0.718952 0.410921 0.831389
Si Si5 0.672737 0.067596 0.821337
Si Si6 0.395267 0.564247 0.827885
O O1 0.219079 0.192879 0.500000
O O2 0.250000 0.250000 0.750000
O O3 0.161306 0.264894 0.656603
O O4 0.197164 0.155882 0.773381
O O5 0.601345 0.164286 0.500000
O O6 0.573173 0.237536 0.726467
O O7 0.637137 0.125857 0.761918
O O8 0.911443 0.129556 0.241352
O O9 0.000000 0.179665 0.250000
O O10 0.943941 0.188234 0.000000
O O11 0.768220 0.425480 0.731261
O O12 0.665662 0.447388 0.834116
O O13 0.738873 0.408468 0.000000
O O14 0.655520 0.000000 0.750000
O O15 0.671578 0.065696 0.000000
O O16 0.416877 0.500000 0.750000
O O17 0.411930 0.570371 0.000000
#
# Coordination Sequence:
#
# PCOD9528409 Si02
#       6
#    16  16  16  16  16  16
#     4  11  20  32  54  84 118 157 200 244 293 347
#     4  10  22  40  62  87 120 158 199 248 302 360
#     4  11  24  44  68  93 120 151 195 252 308 365
#     4  11  22  36  56  85 124 165 208 248 288 347
#     4  12  25  39  60  88 125 166 206 248 297 358
#     4  11  24  40  61  88 122 164 207 251 298 353
#
# _framework density 19.454208999999999
#
# number of rings (size 3 to 8) (size 9 to 14) (size 15 to 20)
#    0.000    1.000    3.333    4.000    0.000    5.667 
#    0.000    1.667    0.000    0.500    0.000    3.500 
#    0.000    0.000    0.000    0.000    0.000    0.000 
#
# Total GULP energy -267331.687465 kJ/mol
# GULP energy per Si atom -5569.410156 kJ/mol
# Density = 1.940993 g / cm^3
# Si number density = 19.454209 Si / 1000 Ang^3
#
#
#
# Elastic Constant Matrix: (Units=GPa)
#
#
# Indices 1 2 3 4 5 6 
#
# 1 62.3573 23.6464 25.7269 0.0000 0.0000 0.0000
# 2 23.6464 129.8257 68.5964 0.0000 0.0000 0.0000
# 3 25.7269 68.5964 123.8908 0.0000 0.0000 0.0000
# 4 0.0000 0.0000 0.0000 26.4339 0.0000 0.0000
# 5 0.0000 0.0000 0.0000 0.0000 -0.2721 0.0000
# 6 0.0000 0.0000 0.0000 0.0000 0.0000 8.2873
#
#
#
# Elastic Compliance Matrix: (Units=1/GPa)
#
#
# Indices 1 2 3 4 5 6 
#
# 1 0.017840 -0.001826 -0.002694 0.000000 0.000000 0.000000
# 2 -0.001826 0.011075 -0.005753 0.000000 0.000000 0.000000
# 3 -0.002694 -0.005753 0.011816 0.000000 0.000000 0.000000
# 4 0.000000 0.000000 0.000000 0.037830 0.000000 0.000000
# 5 0.000000 0.000000 0.000000 0.000000 -3.675055 0.000000
# 6 0.000000 0.000000 0.000000 0.000000 0.000000 0.120667
#
#
# Mechanical properties :
#
#
# Convention : Reuss Voigt Hill
#
# Bulk Modulus (GPa) = 49.53835 61.33480 55.43658
# Shear Modulus (GPa) = -1.44988 20.09675 9.32344
#
# Velocity S-wave (km/s) = -0.86423 3.21756 2.19155
# Velocity P-wave (km/s) = 4.95212 6.73794 5.91284
#
# Compressibility (1/GPa) = 0.02018638
#
# Stress axis : x y z
#
# Youngs Moduli (GPa) = 56.05249 90.29454 84.62981
#
# Poissons Ratio (x) = 0.16490 0.22795
# Poissons Ratio (y) = 0.10237 0.48685
# Poissons Ratio (z) = 0.15098 0.51944
#
# Static dielectric constant tensor:
#      x y z
#    x 1.696160 0.000000 0.000000 
#    y 0.000000 1.713810 0.000000 
#    z 0.000000 0.000000 1.691220 
# 
# From -- ./inp_files/8056.got.cif
#   From: 2010.05.17/outbox.cif.g08.bks.cpg/sg72_5_cif.got.tgz:8056.got - 2010.06.03 17:03:01.
