data_PCOD9528137
_publ_section_title
;
Structure prediction by ZEFSAII (Michael W. Deem and Ramdas Pophale) SiO2 
 PCOD9528137
Probable space group: I B A M
;
_chemical_formula_sum "Si O2"
_cell_formula_units_Z 104
_cell_length_a 19.958910
_cell_length_b 27.731726
_cell_length_c 9.993885
_cell_angle_alpha 90.000000
_cell_angle_beta 90.000000
_cell_angle_gamma 90.000000
_cell_volume 5531.565612
_symmetry_space_group_name_H-M "I B A M"
_symmetry_group_IT_number 72
_symmetry_cell_setting 'orthorhombic'
loop_
_space_group_symop_operation_xyz
x,y,z
-x,-y,z
x,-y,1/2-z
-x,y,1/2-z
-x,-y,-z
x,y,-z
-x,y,1/2+z
x,-y,1/2+z
1/2+x,1/2+y,1/2+z
1/2-x,1/2-y,1/2+z
1/2+x,1/2-y,-z
1/2-x,1/2+y,-z
1/2-x,1/2-y,1/2-z
1/2+x,1/2+y,1/2-z
1/2-x,1/2+y,z
1/2+x,1/2-y,z
loop_
_atom_site_type_symbol
_atom_site_label
_atom_site_fract_x
_atom_site_fract_y
_atom_site_fract_z
Si Si1 0.692496 0.272501 0.842783
Si Si2 0.719841 0.616042 0.341745
Si Si3 0.629220 0.108755 0.760658
Si Si4 0.596836 0.441871 0.247537
Si Si5 0.405277 0.957576 0.000000
Si Si6 0.063960 0.291038 0.844802
Si Si7 0.562609 0.067242 0.500000
Si Si8 0.503303 0.578499 0.000000
O O1 0.750000 0.250000 0.750000
O O2 0.691009 0.329925 0.825434
O O3 0.621048 0.248290 0.812597
O O4 0.707306 0.262560 0.000000
O O5 0.722484 0.605073 0.500000
O O6 0.794896 0.616285 0.285546
O O7 0.671299 0.578743 0.268582
O O8 0.625615 0.066077 0.868240
O O9 0.598696 0.157057 0.824464
O O10 0.584764 0.095368 0.631972
O O11 0.594974 0.500000 0.250000
O O12 0.560965 0.423756 0.381637
O O13 0.554865 0.425001 0.117934
O O14 0.483633 0.942629 0.000000
O O15 0.401837 0.015078 0.000000
O O16 0.000000 0.286694 0.750000
O O17 0.044251 0.285723 0.000000
#
# Coordination Sequence:
#
# PCOD9528137 Si02
#       8
#    16  16  16  16   8  16   8   8
#     4  10  22  44  67  91 128 169 209 262 319 386
#     4  11  24  43  64  94 132 173 211 258 324 385
#     4  12  23  40  65  90 126 170 216 259 320 386
#     4  11  21  39  66  94 129 167 216 260 311 380
#     4  11  24  41  60  91 128 164 214 279 309 379
#     4  11  24  42  69  99 127 162 217 270 317 383
#     4  11  24  41  62  89 126 170 212 259 337 373
#     4  10  21  40  66  94 124 172 214 260 314 370
#
# _framework density 18.801186999999999
#
# number of rings (size 3 to 8) (size 9 to 14) (size 15 to 20)
#    0.000    1.077    3.846    3.692    1.077    3.692 
#    4.154    0.000    0.000    0.000    0.000    0.000 
#    0.000    0.000    0.000    0.000    0.000    0.000 
#
# Total GULP energy -289624.103333 kJ/mol
# GULP energy per Si atom -5569.694295 kJ/mol
# Density = 1.875839 g / cm^3
# Si number density = 18.801187 Si / 1000 Ang^3
#
#
#
# Elastic Constant Matrix: (Units=GPa)
#
#
# Indices 1 2 3 4 5 6 
#
# 1 107.7628 16.8451 41.8854 0.0000 0.0000 0.0000
# 2 16.8451 33.9792 9.6594 0.0000 0.0000 0.0000
# 3 41.8854 9.6594 119.1602 0.0000 0.0000 0.0000
# 4 0.0000 0.0000 0.0000 8.6519 0.0000 0.0000
# 5 0.0000 0.0000 0.0000 0.0000 35.8349 0.0000
# 6 0.0000 0.0000 0.0000 0.0000 0.0000 130.1482
#
#
#
# Elastic Compliance Matrix: (Units=1/GPa)
#
#
# Indices 1 2 3 4 5 6 
#
# 1 0.011417 -0.004626 -0.003638 0.000000 0.000000 0.000000
# 2 -0.004626 0.031998 -0.000968 0.000000 0.000000 0.000000
# 3 -0.003638 -0.000968 0.009749 0.000000 0.000000 0.000000
# 4 0.000000 0.000000 0.000000 0.115581 0.000000 0.000000
# 5 0.000000 0.000000 0.000000 0.000000 0.027906 0.000000
# 6 0.000000 0.000000 0.000000 0.000000 0.000000 0.007684
#
#
# Mechanical properties :
#
#
# Convention : Reuss Voigt Hill
#
# Bulk Modulus (GPa) = 28.81767 44.18689 36.50228
# Shear Modulus (GPa) = 21.33426 47.76116 34.54771
#
# Velocity S-wave (km/s) = 3.37223 5.04563 4.29129
# Velocity P-wave (km/s) = 5.52480 7.58273 6.63405
#
# Compressibility (1/GPa) = 0.03470093
#
# Stress axis : x y z
#
# Youngs Moduli (GPa) = 87.59053 31.25185 102.57117
#
# Poissons Ratio (x) = 0.14456 0.37316
# Poissons Ratio (y) = 0.40516 0.09928
# Poissons Ratio (z) = 0.31866 0.03025
#
# Static dielectric constant tensor:
#      x y z
#    x 1.638480 0.000000 0.000000 
#    y 0.000000 1.654940 0.000000 
#    z 0.000000 0.000000 1.625320 
# 
# From -- ./inp_files/6221.got.cif
#   From: 2010.05.17/outbox.cif.g08.bks.cpg/sg72_4_cif.got.tgz:6221.got - 2010.06.03 17:03:01.
