data_PCOD9528270
_publ_section_title
;
Structure prediction by ZEFSAII (Michael W. Deem and Ramdas Pophale) SiO2 
 PCOD9528270
Probable space group: I B A M
;
_chemical_formula_sum "Si O2"
_cell_formula_units_Z 96
_cell_length_a 8.495304
_cell_length_b 25.269305
_cell_length_c 24.090352
_cell_angle_alpha 90.000000
_cell_angle_beta 90.000000
_cell_angle_gamma 90.000000
_cell_volume 5171.486171
_symmetry_space_group_name_H-M "I B A M"
_symmetry_group_IT_number 72
_symmetry_cell_setting 'orthorhombic'
loop_
_space_group_symop_operation_xyz
x,y,z
-x,-y,z
x,-y,1/2-z
-x,y,1/2-z
-x,-y,-z
x,y,-z
-x,y,1/2+z
x,-y,1/2+z
1/2+x,1/2+y,1/2+z
1/2-x,1/2-y,1/2+z
1/2+x,1/2-y,-z
1/2-x,1/2+y,-z
1/2-x,1/2-y,1/2-z
1/2+x,1/2+y,1/2-z
1/2-x,1/2+y,z
1/2+x,1/2-y,z
loop_
_atom_site_type_symbol
_atom_site_label
_atom_site_fract_x
_atom_site_fract_y
_atom_site_fract_z
Si Si1 0.534143 0.743429 0.874604
Si Si2 0.794767 0.706302 0.795544
Si Si3 0.259688 0.321513 0.565531
Si Si4 0.687750 0.597779 0.250656
Si Si5 0.861169 0.533764 0.160864
Si Si6 0.167307 0.574605 0.871087
O O1 0.667048 0.708689 0.844898
O O2 0.455463 0.777515 0.825185
O O3 0.405934 0.705691 0.902678
O O4 0.613143 0.784093 0.917273
O O5 0.750000 0.750000 0.750000
O O6 0.781581 0.650216 0.766762
O O7 0.283934 0.321286 0.500000
O O8 0.229500 0.380669 0.588054
O O9 0.500000 0.606588 0.250000
O O10 0.735559 0.555142 0.203756
O O11 0.749341 0.583506 0.311623
O O12 0.801961 0.488370 0.118260
O O13 0.000000 0.500000 0.190974
O O14 0.975230 0.577896 0.133584
#
# Coordination Sequence:
#
# PCOD9528270 Si02
#       6
#    16  16  16  16  16  16
#     4  10  22  36  52  81 115 145 186 226 275 345
#     4  11  21  34  53  85 122 153 178 217 279 350
#     4  11  21  38  58  78 104 147 192 241 283 323
#     4  12  20  30  54  84 114 145 178 221 273 341
#     4   8  21  37  51  76 108 143 181 220 280 341
#     4   9  20  35  52  74 106 140 183 221 273 330
#
# _framework density 18.563327999999998
#
# number of rings (size 3 to 8) (size 9 to 14) (size 15 to 20)
#    1.000    0.667    0.000    7.000    2.333    2.667 
#    0.000    1.667    0.000    0.000    0.000    5.833 
#    0.000    0.000    0.000    0.000    0.000    0.000 
#
# Total GULP energy -267411.651704 kJ/mol
# GULP energy per Si atom -5571.076077 kJ/mol
# Density = 1.852108 g / cm^3
# Si number density = 18.563328 Si / 1000 Ang^3
#
#
#
# Elastic Constant Matrix: (Units=GPa)
#
#
# Indices 1 2 3 4 5 6 
#
# 1 43.1410 3.9238 6.4906 0.0000 0.0000 0.0000
# 2 3.9238 67.1546 18.1296 0.0000 0.0000 0.0000
# 3 6.4906 18.1296 53.7266 0.0000 0.0000 0.0000
# 4 0.0000 0.0000 0.0000 14.6167 0.0000 0.0000
# 5 0.0000 0.0000 0.0000 0.0000 15.7430 0.0000
# 6 0.0000 0.0000 0.0000 0.0000 0.0000 18.0423
#
#
#
# Elastic Compliance Matrix: (Units=1/GPa)
#
#
# Indices 1 2 3 4 5 6 
#
# 1 0.023636 -0.000671 -0.002629 0.000000 0.000000 0.000000
# 2 -0.000671 0.016403 -0.005454 0.000000 0.000000 0.000000
# 3 -0.002629 -0.005454 0.020771 0.000000 0.000000 0.000000
# 4 0.000000 0.000000 0.000000 0.068415 0.000000 0.000000
# 5 0.000000 0.000000 0.000000 0.000000 0.063520 0.000000
# 6 0.000000 0.000000 0.000000 0.000000 0.000000 0.055425
#
#
# Mechanical properties :
#
#
# Convention : Reuss Voigt Hill
#
# Bulk Modulus (GPa) = 23.09388 24.56780 23.83084
# Shear Modulus (GPa) = 17.84999 18.71228 18.28114
#
# Velocity S-wave (km/s) = 3.10429 3.17838 3.14155
# Velocity P-wave (km/s) = 5.03154 5.17038 5.10143
#
# Compressibility (1/GPa) = 0.04330152
#
# Stress axis : x y z
#
# Youngs Moduli (GPa) = 42.30765 60.96598 48.14470
#
# Poissons Ratio (x) = 0.04093 0.12657
# Poissons Ratio (y) = 0.02840 0.26257
# Poissons Ratio (z) = 0.11122 0.33250
#
# Static dielectric constant tensor:
#      x y z
#    x 1.699340 0.000000 0.000000 
#    y 0.000000 1.707300 0.000000 
#    z 0.000000 0.000000 1.611710 
# 
# From -- ./inp_files/42455.got.cif
#   From: 2010.05.17/outbox.cif.g08.bks.cpg/sg72_22_cif.got.tgz:42455.got - 2010.06.03 17:03:01.
