data_PCOD9528565
_publ_section_title
;
Structure prediction by ZEFSAII (Michael W. Deem and Ramdas Pophale) SiO2 
 PCOD9528565
Probable space group: I B A M
;
_chemical_formula_sum "Si O2"
_cell_formula_units_Z 68
_cell_length_a 16.220193
_cell_length_b 22.865878
_cell_length_c 8.971685
_cell_angle_alpha 90.000000
_cell_angle_beta 90.000000
_cell_angle_gamma 90.000000
_cell_volume 3327.498868
_symmetry_space_group_name_H-M "I B A M"
_symmetry_group_IT_number 72
_symmetry_cell_setting 'orthorhombic'
loop_
_space_group_symop_operation_xyz
x,y,z
-x,-y,z
x,-y,1/2-z
-x,y,1/2-z
-x,-y,-z
x,y,-z
-x,y,1/2+z
x,-y,1/2+z
1/2+x,1/2+y,1/2+z
1/2-x,1/2-y,1/2+z
1/2+x,1/2-y,-z
1/2-x,1/2+y,-z
1/2-x,1/2-y,1/2-z
1/2+x,1/2+y,1/2-z
1/2-x,1/2+y,z
1/2+x,1/2-y,z
loop_
_atom_site_type_symbol
_atom_site_label
_atom_site_fract_x
_atom_site_fract_y
_atom_site_fract_z
Si Si1 0.500000 0.500000 0.250000
Si Si2 0.858238 0.090329 0.170594
Si Si3 0.190505 0.444164 0.676430
Si Si4 0.409078 0.709177 0.177986
Si Si5 0.089916 0.674967 0.176713
O O1 0.564283 0.454592 0.326038
O O2 0.777020 0.061608 0.238493
O O3 0.872273 0.147996 0.269096
O O4 0.845317 0.107810 0.000000
O O5 0.146306 0.500000 0.750000
O O6 0.203040 0.453281 0.500000
O O7 0.141756 0.383816 0.697124
O O8 0.500000 0.709051 0.250000
O O9 0.369790 0.768220 0.245213
O O10 0.412188 0.712102 0.000000
O O11 0.000000 0.666713 0.250000
O O12 0.081167 0.686247 0.000000
#
# Coordination Sequence:
#
# PCOD9528565 Si02
#       5
#     4  16  16  16  16
#     4  12  26  40  68  98 128 172 212 248 302 368
#     4  12  25  41  65  94 130 170 213 260 309 372
#     4  11  25  43  64  93 129 165 209 263 317 377
#     4  11  22  38  63  93 127 166 212 262 313 374
#     4  10  22  42  67  94 125 164 210 262 318 376
#
# _framework density 20.435769000000001
#
# number of rings (size 3 to 8) (size 9 to 14) (size 15 to 20)
#    0.000    0.941    2.353    6.000    0.000    7.059 
#    0.000    2.353    0.000    0.000    0.000    0.000 
#    0.000    0.000    0.000    0.000    0.000    0.000 
#
# Total GULP energy -189924.738892 kJ/mol
# GULP energy per Si atom -5586.021732 kJ/mol
# Density = 2.038926 g / cm^3
# Si number density = 20.435769 Si / 1000 Ang^3
#
#
#
# Elastic Constant Matrix: (Units=GPa)
#
#
# Indices 1 2 3 4 5 6 
#
# 1 46.8608 27.1910 33.0114 0.0000 0.0000 0.0000
# 2 27.1910 158.9900 85.3198 0.0000 0.0000 0.0000
# 3 33.0114 85.3198 174.9351 0.0000 0.0000 0.0000
# 4 0.0000 0.0000 0.0000 25.7724 0.0000 0.0000
# 5 0.0000 0.0000 0.0000 0.0000 15.4775 0.0000
# 6 0.0000 0.0000 0.0000 0.0000 0.0000 21.0284
#
#
#
# Elastic Compliance Matrix: (Units=1/GPa)
#
#
# Indices 1 2 3 4 5 6 
#
# 1 0.025263 -0.002387 -0.003603 0.000000 0.000000 0.000000
# 2 -0.002387 0.008745 -0.003815 0.000000 0.000000 0.000000
# 3 -0.003603 -0.003815 0.008257 0.000000 0.000000 0.000000
# 4 0.000000 0.000000 0.000000 0.038801 0.000000 0.000000
# 5 0.000000 0.000000 0.000000 0.000000 0.064610 0.000000
# 6 0.000000 0.000000 0.000000 0.000000 0.000000 0.047555
#
#
# Mechanical properties :
#
#
# Convention : Reuss Voigt Hill
#
# Bulk Modulus (GPa) = 44.13971 74.64782 59.39376
# Shear Modulus (GPa) = 22.68683 28.13991 25.41337
#
# Velocity S-wave (km/s) = 3.33551 3.71481 3.53026
# Velocity P-wave (km/s) = 6.03989 7.41668 6.76341
#
# Compressibility (1/GPa) = 0.02265534
#
# Stress axis : x y z
#
# Youngs Moduli (GPa) = 39.58338 114.35033 121.11140
#
# Poissons Ratio (x) = 0.27296 0.43638
# Poissons Ratio (y) = 0.09449 0.46201
# Poissons Ratio (z) = 0.14262 0.43621
#
# Static dielectric constant tensor:
#      x y z
#    x 1.731530 0.000000 0.000000 
#    y 0.000000 1.815760 0.000000 
#    z 0.000000 0.000000 1.685360 
# 
# From -- ./inp_files/4421.got.cif
#   From: 2010.05.17/outbox.cif.g08.bks.cpg/sg72_3_cif.got.tgz:4421.got - 2010.06.03 17:03:01.
