data_PCOD9528519
_publ_section_title
;
Structure prediction by ZEFSAII (Michael W. Deem and Ramdas Pophale) SiO2 
 PCOD9528519
Probable space group: I B A M
;
_chemical_formula_sum "Si O2"
_cell_formula_units_Z 68
_cell_length_a 20.648698
_cell_length_b 11.402433
_cell_length_c 12.385196
_cell_angle_alpha 90.000000
_cell_angle_beta 90.000000
_cell_angle_gamma 90.000000
_cell_volume 2916.037370
_symmetry_space_group_name_H-M "I B A M"
_symmetry_group_IT_number 72
_symmetry_cell_setting 'orthorhombic'
loop_
_space_group_symop_operation_xyz
x,y,z
-x,-y,z
x,-y,1/2-z
-x,y,1/2-z
-x,-y,-z
x,y,-z
-x,y,1/2+z
x,-y,1/2+z
1/2+x,1/2+y,1/2+z
1/2-x,1/2-y,1/2+z
1/2+x,1/2-y,-z
1/2-x,1/2+y,-z
1/2-x,1/2-y,1/2-z
1/2+x,1/2+y,1/2-z
1/2-x,1/2+y,z
1/2+x,1/2-y,z
loop_
_atom_site_type_symbol
_atom_site_label
_atom_site_fract_x
_atom_site_fract_y
_atom_site_fract_z
Si Si1 0.523793 0.866477 0.626069
Si Si2 0.831647 0.695251 0.828510
Si Si3 0.617202 0.441962 0.124243
Si Si4 0.000000 0.000000 0.250000
Si Si5 0.187845 0.819240 0.877767
O O1 0.500000 0.824442 0.750000
O O2 0.508166 0.818157 0.500000
O O3 0.601975 0.861479 0.634361
O O4 0.500000 0.000000 0.622483
O O5 0.836013 0.831311 0.865754
O O6 0.827036 0.710451 0.699599
O O7 0.763530 0.646895 0.868569
O O8 0.548229 0.422293 0.179689
O O9 0.647182 0.566991 0.157570
O O10 0.602690 0.457232 0.000000
O O11 0.172098 0.790715 0.000000
#
# Coordination Sequence:
#
# PCOD9528519 Si02
#       5
#    16  16  16   4  16
#     4  10  23  44  66  96 135 179 222 269 330 400
#     4  11  22  43  69  96 135 171 218 277 338 396
#     4  11  23  41  66  95 130 173 219 271 328 388
#     4  12  22  40  56  90 126 172 212 264 308 374
#     4  10  22  41  67  99 130 169 223 276 331 395
#
# _framework density 23.319317000000002
#
# number of rings (size 3 to 8) (size 9 to 14) (size 15 to 20)
#    0.000    1.412    2.353    2.471    1.647    0.941 
#   16.941    0.000    0.000    0.000    0.000    0.000 
#    0.000    0.000    0.000    0.000    0.000    0.000 
#
# Total GULP energy -189554.358830 kJ/mol
# GULP energy per Si atom -5575.128201 kJ/mol
# Density = 2.326624 g / cm^3
# Si number density = 23.319317 Si / 1000 Ang^3
#
#
#
# Elastic Constant Matrix: (Units=GPa)
#
#
# Indices 1 2 3 4 5 6 
#
# 1 112.4281 21.5556 24.2294 0.0000 0.0000 0.0000
# 2 21.5556 36.1107 7.8243 0.0000 0.0000 0.0000
# 3 24.2294 7.8243 154.7898 0.0000 0.0000 0.0000
# 4 0.0000 0.0000 0.0000 6.5221 0.0000 0.0000
# 5 0.0000 0.0000 0.0000 0.0000 10.9675 0.0000
# 6 0.0000 0.0000 0.0000 0.0000 0.0000 30.6655
#
#
#
# Elastic Compliance Matrix: (Units=1/GPa)
#
#
# Indices 1 2 3 4 5 6 
#
# 1 0.010303 -0.005865 -0.001316 0.000000 0.000000 0.000000
# 2 -0.005865 0.031338 -0.000666 0.000000 0.000000 0.000000
# 3 -0.001316 -0.000666 0.006700 0.000000 0.000000 0.000000
# 4 0.000000 0.000000 0.000000 0.153324 0.000000 0.000000
# 5 0.000000 0.000000 0.000000 0.000000 0.091178 0.000000
# 6 0.000000 0.000000 0.000000 0.000000 0.000000 0.032610
#
#
# Mechanical properties :
#
#
# Convention : Reuss Voigt Hill
#
# Bulk Modulus (GPa) = 30.63126 45.61638 38.12382
# Shear Modulus (GPa) = 14.20337 26.27898 20.24118
#
# Velocity S-wave (km/s) = 2.47064 3.36060 2.94938
# Velocity P-wave (km/s) = 4.61550 5.88747 5.28985
#
# Compressibility (1/GPa) = 0.03264639
#
# Stress axis : x y z
#
# Youngs Moduli (GPa) = 97.06214 31.91037 149.25215
#
# Poissons Ratio (x) = 0.18715 0.19645
# Poissons Ratio (y) = 0.56925 0.09941
# Poissons Ratio (z) = 0.12776 0.02125
#
# Static dielectric constant tensor:
#      x y z
#    x 1.815370 0.000000 0.000000 
#    y 0.000000 1.937010 0.000000 
#    z 0.000000 0.000000 2.043310 
# 
# From -- ./inp_files/14500.got.cif
#   From: 2010.05.17/outbox.cif.g08.bks.cpg/sg72_8_cif.got.tgz:14500.got - 2010.06.03 17:03:01.
