data_PCOD9528718
_publ_section_title
;
Structure prediction by ZEFSAII (Michael W. Deem and Ramdas Pophale) SiO2 
 PCOD9528718
Probable space group: I B A M
;
_chemical_formula_sum "Si O2"
_cell_formula_units_Z 88
_cell_length_a 31.708829
_cell_length_b 4.975006
_cell_length_c 24.171468
_cell_angle_alpha 90.000000
_cell_angle_beta 90.000000
_cell_angle_gamma 90.000000
_cell_volume 3813.088103
_symmetry_space_group_name_H-M "I B A M"
_symmetry_group_IT_number 72
_symmetry_cell_setting 'orthorhombic'
loop_
_space_group_symop_operation_xyz
x,y,z
-x,-y,z
x,-y,1/2-z
-x,y,1/2-z
-x,-y,-z
x,y,-z
-x,y,1/2+z
x,-y,1/2+z
1/2+x,1/2+y,1/2+z
1/2-x,1/2-y,1/2+z
1/2+x,1/2-y,-z
1/2-x,1/2+y,-z
1/2-x,1/2-y,1/2-z
1/2+x,1/2+y,1/2-z
1/2-x,1/2+y,z
1/2+x,1/2-y,z
loop_
_atom_site_type_symbol
_atom_site_label
_atom_site_fract_x
_atom_site_fract_y
_atom_site_fract_z
Si Si1 0.400292 0.936143 0.610368
Si Si2 0.775539 0.011935 0.373065
Si Si3 0.854044 0.436822 0.000000
Si Si4 0.048615 0.955899 0.636422
Si Si5 0.698260 0.424655 0.000000
Si Si6 0.839289 0.367299 0.302545
Si Si7 0.411094 0.500000 0.750000
O O1 0.379243 0.022251 0.553718
O O2 0.421434 0.649194 0.601158
O O3 0.435307 0.152090 0.629251
O O4 0.362265 0.931318 0.654756
O O5 0.735662 0.205324 0.359444
O O6 0.782042 0.021882 0.439485
O O7 0.813034 0.150239 0.338221
O O8 0.811444 0.608650 0.000000
O O9 0.842083 0.124031 0.000000
O O10 0.058937 0.061665 0.698348
O O11 0.000000 0.000000 0.623491
O O12 0.815806 0.500000 0.250000
O O13 0.879022 0.221361 0.273163
#
# Coordination Sequence:
#
# PCOD9528718 Si02
#       7
#    16  16   8  16   8  16   8
#     4  11  24  43  67 103 133 178 229 281 333 413
#     4  12  28  45  68 102 141 176 223 285 348 402
#     4  12  24  43  75 102 128 178 235 281 328 406
#     4  11  23  42  67 101 140 178 221 282 348 400
#     4  12  24  45  74  98 135 174 233 289 331 399
#     4  11  24  43  71  96 139 180 233 277 343 404
#     4  10  23  40  68  96 134 180 236 282 316 412
#
# _framework density 23.078406000000001
#
# number of rings (size 3 to 8) (size 9 to 14) (size 15 to 20)
#    0.000    0.727    3.636    3.545    5.091    0.727 
#    0.000    4.545    0.000    0.000    0.000    0.000 
#    0.000    0.000    0.000    0.000    0.000    0.000 
#
# Total GULP energy -246024.832628 kJ/mol
# GULP energy per Si atom -5591.473469 kJ/mol
# Density = 2.302588 g / cm^3
# Si number density = 23.078406 Si / 1000 Ang^3
#
#
#
# Elastic Constant Matrix: (Units=GPa)
#
#
# Indices 1 2 3 4 5 6 
#
# 1 73.8697 9.9137 27.5916 0.0000 0.0000 0.0000
# 2 9.9137 73.2736 4.5169 0.0000 0.0000 0.0000
# 3 27.5916 4.5169 118.4009 0.0000 0.0000 0.0000
# 4 0.0000 0.0000 0.0000 25.8687 0.0000 0.0000
# 5 0.0000 0.0000 0.0000 0.0000 17.9269 0.0000
# 6 0.0000 0.0000 0.0000 0.0000 0.0000 39.0214
#
#
#
# Elastic Compliance Matrix: (Units=1/GPa)
#
#
# Indices 1 2 3 4 5 6 
#
# 1 0.015068 -0.001827 -0.003442 0.000000 0.000000 0.000000
# 2 -0.001827 0.013901 -0.000105 0.000000 0.000000 0.000000
# 3 -0.003442 -0.000105 0.009252 0.000000 0.000000 0.000000
# 4 0.000000 0.000000 0.000000 0.038657 0.000000 0.000000
# 5 0.000000 0.000000 0.000000 0.000000 0.055782 0.000000
# 6 0.000000 0.000000 0.000000 0.000000 0.000000 0.025627
#
#
# Mechanical properties :
#
#
# Convention : Reuss Voigt Hill
#
# Bulk Modulus (GPa) = 36.39642 38.84319 37.61981
# Shear Modulus (GPa) = 28.05977 31.46486 29.76232
#
# Velocity S-wave (km/s) = 3.49068 3.69642 3.59502
# Velocity P-wave (km/s) = 5.66140 5.92330 5.79383
#
# Compressibility (1/GPa) = 0.02747523
#
# Stress axis : x y z
#
# Youngs Moduli (GPa) = 66.36573 71.93699 108.08576
#
# Poissons Ratio (x) = 0.13139 0.37200
# Poissons Ratio (y) = 0.12122 0.01131
# Poissons Ratio (z) = 0.22841 0.00753
#
# Static dielectric constant tensor:
#      x y z
#    x 1.843830 0.000000 0.000000 
#    y 0.000000 1.917890 0.000000 
#    z 0.000000 0.000000 1.893880 
# 
# From -- ./inp_files/46157.got.cif
#   From: 2010.05.17/outbox.cif.g08.bks.cpg/sg72_24_cif.got.tgz:46157.got - 2010.06.03 17:03:01.
