data_PCOD9528768
_publ_section_title
;
Structure prediction by ZEFSAII (Michael W. Deem and Ramdas Pophale) SiO2 
 PCOD9528768
Probable space group: I B A M
;
_chemical_formula_sum "Si O2"
_cell_formula_units_Z 48
_cell_length_a 17.724420
_cell_length_b 9.883856
_cell_length_c 12.403181
_cell_angle_alpha 90.000000
_cell_angle_beta 90.000000
_cell_angle_gamma 90.000000
_cell_volume 2172.858891
_symmetry_space_group_name_H-M "I B A M"
_symmetry_group_IT_number 72
_symmetry_cell_setting 'orthorhombic'
loop_
_space_group_symop_operation_xyz
x,y,z
-x,-y,z
x,-y,1/2-z
-x,y,1/2-z
-x,-y,-z
x,y,-z
-x,y,1/2+z
x,-y,1/2+z
1/2+x,1/2+y,1/2+z
1/2-x,1/2-y,1/2+z
1/2+x,1/2-y,-z
1/2-x,1/2+y,-z
1/2-x,1/2-y,1/2-z
1/2+x,1/2+y,1/2-z
1/2-x,1/2+y,z
1/2+x,1/2-y,z
loop_
_atom_site_type_symbol
_atom_site_label
_atom_site_fract_x
_atom_site_fract_y
_atom_site_fract_z
Si Si1 0.072721 0.586707 0.500000
Si Si2 0.304316 0.163810 0.379506
Si Si3 0.528753 0.344481 0.500000
Si Si4 0.859029 0.865771 0.694362
O O1 0.128045 0.558873 0.600249
O O2 0.000000 0.500000 0.500000
O O3 0.041151 0.740676 0.500000
O O4 0.298736 0.230075 0.500000
O O5 0.222903 0.101663 0.357586
O O6 0.334652 0.260281 0.286480
O O7 0.500000 0.500000 0.500000
O O8 0.581666 0.319886 0.395470
O O9 0.890352 0.000000 0.750000
#
# Coordination Sequence:
#
# PCOD9528768 Si02
#       4
#     8  16   8  16
#     4  10  23  42  67  94 136 170 208 270 323 396
#     4   9  22  44  62  95 126 165 222 267 317 385
#     4  12  25  42  65 102 138 168 214 272 333 392
#     4  11  23  41  70  93 125 175 217 274 322 388
#
# _framework density 22.090713999999998
#
# number of rings (size 3 to 8) (size 9 to 14) (size 15 to 20)
#    1.000    0.667    1.667    2.000    2.333   10.000 
#    0.000    1.667    0.000    0.000    0.000    0.000 
#    0.000    0.000    0.000    0.000    0.000    0.000 
#
# Total GULP energy -133784.141369 kJ/mol
# GULP energy per Si atom -5574.339224 kJ/mol
# Density = 2.204043 g / cm^3
# Si number density = 22.090714 Si / 1000 Ang^3
#
#
#
# Elastic Constant Matrix: (Units=GPa)
#
#
# Indices 1 2 3 4 5 6 
#
# 1 111.5214 -9.3985 25.9702 0.0000 0.0000 0.0000
# 2 -9.3985 20.8737 -3.3991 0.0000 0.0000 0.0000
# 3 25.9702 -3.3991 115.4562 0.0000 0.0000 0.0000
# 4 0.0000 0.0000 0.0000 14.4076 0.0000 0.0000
# 5 0.0000 0.0000 0.0000 0.0000 7.4828 0.0000
# 6 0.0000 0.0000 0.0000 0.0000 0.0000 32.7990
#
#
#
# Elastic Compliance Matrix: (Units=1/GPa)
#
#
# Indices 1 2 3 4 5 6 
#
# 1 0.009795 0.004071 -0.002083 0.000000 0.000000 0.000000
# 2 0.004071 0.049830 0.000551 0.000000 0.000000 0.000000
# 3 -0.002083 0.000551 0.009146 0.000000 0.000000 0.000000
# 4 0.000000 0.000000 0.000000 0.069408 0.000000 0.000000
# 5 0.000000 0.000000 0.000000 0.000000 0.133640 0.000000
# 6 0.000000 0.000000 0.000000 0.000000 0.000000 0.030489
#
#
# Mechanical properties :
#
#
# Convention : Reuss Voigt Hill
#
# Bulk Modulus (GPa) = 13.54110 30.46628 22.00369
# Shear Modulus (GPa) = 15.53536 26.58312 21.05924
#
# Velocity S-wave (km/s) = 2.65477 3.47271 3.09092
# Velocity P-wave (km/s) = 3.94210 5.46818 4.76661
#
# Compressibility (1/GPa) = 0.07384925
#
# Stress axis : x y z
#
# Youngs Moduli (GPa) = 102.09133 20.06821 109.33554
#
# Poissons Ratio (x) = -0.08170 0.22779
# Poissons Ratio (y) = -0.41562 -0.06028
# Poissons Ratio (z) = 0.21270 -0.01106
#
# Static dielectric constant tensor:
#      x y z
#    x 1.814700 0.000000 0.000000 
#    y 0.000000 1.835070 0.000000 
#    z 0.000000 0.000000 1.815980 
# 
# From -- ./inp_files/13327.got.cif
#   From: 2010.05.17/outbox.cif.g08.bks.cpg/sg72_7_cif.got.tgz:13327.got - 2010.06.03 17:03:01.
