data_PCOD9528402
_publ_section_title
;
Structure prediction by ZEFSAII (Michael W. Deem and Ramdas Pophale) SiO2 
 PCOD9528402
Probable space group: I B A M
;
_chemical_formula_sum "Si O2"
_cell_formula_units_Z 56
_cell_length_a 13.733447
_cell_length_b 7.821498
_cell_length_c 20.411392
_cell_angle_alpha 90.000000
_cell_angle_beta 90.000000
_cell_angle_gamma 90.000000
_cell_volume 2192.512701
_symmetry_space_group_name_H-M "I B A M"
_symmetry_group_IT_number 72
_symmetry_cell_setting 'orthorhombic'
loop_
_space_group_symop_operation_xyz
x,y,z
-x,-y,z
x,-y,1/2-z
-x,y,1/2-z
-x,-y,-z
x,y,-z
-x,y,1/2+z
x,-y,1/2+z
1/2+x,1/2+y,1/2+z
1/2-x,1/2-y,1/2+z
1/2+x,1/2-y,-z
1/2-x,1/2+y,-z
1/2-x,1/2-y,1/2-z
1/2+x,1/2+y,1/2-z
1/2-x,1/2+y,z
1/2+x,1/2-y,z
loop_
_atom_site_type_symbol
_atom_site_label
_atom_site_fract_x
_atom_site_fract_y
_atom_site_fract_z
Si Si1 0.500000 0.000000 0.750000
Si Si2 0.638440 0.668632 0.142537
Si Si3 0.359065 0.678902 0.500000
Si Si4 0.500000 0.500000 0.750000
Si Si5 0.135048 0.578422 0.641950
Si Si6 0.369765 0.909956 0.000000
O O1 0.432123 0.884063 0.796312
O O2 0.574161 0.591361 0.199344
O O3 0.753440 0.630142 0.151452
O O4 0.632045 0.873151 0.140360
O O5 0.608602 0.604691 0.069631
O O6 0.376571 0.883501 0.500000
O O7 0.242595 0.647518 0.500000
O O8 0.094586 0.645834 0.571985
#
# Coordination Sequence:
#
# PCOD9528402 Si02
#       6
#     4  16   8   4  16   8
#     4  12  24  34  56  88 122 154 186 226 282 348
#     4  10  22  40  61  85 114 150 192 237 284 335
#     4   8  16  35  60  82 107 143 189 237 281 327
#     4  12  24  34  56  88 122 154 186 226 282 348
#     4  10  22  40  61  85 114 150 192 237 284 335
#     4   8  16  35  60  82 107 143 189 237 281 327
#
# _framework density 25.541471999999999
#
# number of rings (size 3 to 8) (size 9 to 14) (size 15 to 20)
#    0.000    2.286    0.000    1.714    0.000    8.000 
#    0.000    0.000    0.000   10.286    0.000    0.000 
#    0.000    0.000    0.000    0.000    0.000    0.000 
#
# Total GULP energy -156671.616885 kJ/mol
# GULP energy per Si atom -5595.414889 kJ/mol
# Density = 2.548334 g / cm^3
# Si number density = 25.541472 Si / 1000 Ang^3
#
#
#
# Elastic Constant Matrix: (Units=GPa)
#
#
# Indices 1 2 3 4 5 6 
#
# 1 153.7019 24.4594 102.2288 0.0000 0.0000 0.0000
# 2 24.4594 28.1864 36.9127 0.0000 0.0000 0.0000
# 3 102.2288 36.9127 304.0103 0.0000 0.0000 0.0000
# 4 0.0000 0.0000 0.0000 15.1593 0.0000 0.0000
# 5 0.0000 0.0000 0.0000 0.0000 258.3114 0.0000
# 6 0.0000 0.0000 0.0000 0.0000 0.0000 35.9279
#
#
#
# Elastic Compliance Matrix: (Units=1/GPa)
#
#
# Indices 1 2 3 4 5 6 
#
# 1 0.008834 -0.004489 -0.002425 0.000000 0.000000 0.000000
# 2 -0.004489 0.044468 -0.003890 0.000000 0.000000 0.000000
# 3 -0.002425 -0.003890 0.004577 0.000000 0.000000 0.000000
# 4 0.000000 0.000000 0.000000 0.065966 0.000000 0.000000
# 5 0.000000 0.000000 0.000000 0.000000 0.003871 0.000000
# 6 0.000000 0.000000 0.000000 0.000000 0.000000 0.027834
#
#
# Mechanical properties :
#
#
# Convention : Reuss Voigt Hill
#
# Bulk Modulus (GPa) = 27.57109 90.34449 58.95779
# Shear Modulus (GPa) = 26.42033 83.36623 54.89328
#
# Velocity S-wave (km/s) = 3.21971 5.71930 4.64096
# Velocity P-wave (km/s) = 4.96388 8.89170 7.20078
#
# Compressibility (1/GPa) = 0.03626987
#
# Stress axis : x y z
#
# Youngs Moduli (GPa) = 113.20334 22.48824 218.47363
#
# Poissons Ratio (x) = 0.10096 0.52988
# Poissons Ratio (y) = 0.50821 0.84978
# Poissons Ratio (z) = 0.27456 0.08747
#
# Static dielectric constant tensor:
#      x y z
#    x 1.996030 0.000000 0.000000 
#    y 0.000000 2.022790 0.000000 
#    z 0.000000 0.000000 2.103670 
# 
# From -- ./inp_files/30097.got.cif
#   From: 2010.05.17/outbox.cif.g08.bks.cpg/sg72_16_cif.got.tgz:30097.got - 2010.06.03 17:03:01.
