data_PCOD9528176
_publ_section_title
;
Structure prediction by ZEFSAII (Michael W. Deem and Ramdas Pophale) SiO2 
 PCOD9528176
Probable space group: I B A M
;
_chemical_formula_sum "Si O2"
_cell_formula_units_Z 104
_cell_length_a 23.028494
_cell_length_b 23.851785
_cell_length_c 10.030045
_cell_angle_alpha 90.000000
_cell_angle_beta 90.000000
_cell_angle_gamma 90.000000
_cell_volume 5509.209715
_symmetry_space_group_name_H-M "I B A M"
_symmetry_group_IT_number 72
_symmetry_cell_setting 'orthorhombic'
loop_
_space_group_symop_operation_xyz
x,y,z
-x,-y,z
x,-y,1/2-z
-x,y,1/2-z
-x,-y,-z
x,y,-z
-x,y,1/2+z
x,-y,1/2+z
1/2+x,1/2+y,1/2+z
1/2-x,1/2-y,1/2+z
1/2+x,1/2-y,-z
1/2-x,1/2+y,-z
1/2-x,1/2-y,1/2-z
1/2+x,1/2+y,1/2-z
1/2-x,1/2+y,z
1/2+x,1/2-y,z
loop_
_atom_site_type_symbol
_atom_site_label
_atom_site_fract_x
_atom_site_fract_y
_atom_site_fract_z
Si Si1 0.302514 0.233484 0.154491
Si Si2 0.723143 0.423811 0.350333
Si Si3 0.913944 0.118464 0.500000
Si Si4 0.375734 0.664346 0.276694
Si Si5 0.449061 0.057149 0.837999
Si Si6 0.180258 0.600889 0.848443
Si Si7 0.050801 0.104707 0.500000
Si Si8 0.639273 0.503823 0.000000
O O1 0.250000 0.250000 0.250000
O O2 0.357338 0.272524 0.190453
O O3 0.313420 0.167549 0.168776
O O4 0.287633 0.244645 0.000000
O O5 0.744636 0.409272 0.500000
O O6 0.681866 0.373388 0.301207
O O7 0.776689 0.429850 0.252536
O O8 0.679856 0.475724 0.378358
O O9 0.897174 0.153967 0.628635
O O10 0.981803 0.102438 0.500000
O O11 0.877770 0.060390 0.500000
O O12 0.424071 0.638671 0.374259
O O13 0.500000 0.086498 0.750000
O O14 0.386872 0.086184 0.830536
O O15 0.441935 0.000000 0.750000
O O16 0.461716 0.050861 0.000000
O O17 0.197364 0.586014 0.000000
O O18 0.082469 0.043964 0.500000
#
# Coordination Sequence:
#
# PCOD9528176 Si02
#       8
#    16  16   8  16  16  16   8   8
#     4  11  22  38  66  90 125 161 202 259 317 382
#     4   9  19  38  58  86 126 161 195 257 328 359
#     4  12  25  38  64  90 120 175 225 258 318 386
#     4  11  22  40  61  91 123 158 213 275 320 368
#     4  10  21  41  65  92 125 162 203 247 301 368
#     4  10  22  38  64  98 122 160 211 251 313 392
#     4  10  21  44  65  82 121 173 220 273 315 370
#     4   8  21  42  61  86 127 165 218 270 314 365
#
# _framework density 18.877482000000001
#
# number of rings (size 3 to 8) (size 9 to 14) (size 15 to 20)
#    0.462    1.385    3.077    1.615    2.154    3.692 
#    2.769    4.615    1.692    0.000    0.000    0.000 
#    0.000    0.000    0.000    0.000    0.000    0.000 
#
# Total GULP energy -290035.656250 kJ/mol
# GULP energy per Si atom -5577.608774 kJ/mol
# Density = 1.883452 g / cm^3
# Si number density = 18.877482 Si / 1000 Ang^3
#
#
#
# Elastic Constant Matrix: (Units=GPa)
#
#
# Indices 1 2 3 4 5 6 
#
# 1 118.0024 32.6028 71.8088 0.0000 0.0000 0.0000
# 2 32.6028 41.6403 43.4881 0.0000 0.0000 0.0000
# 3 71.8088 43.4881 175.3470 0.0000 0.0000 0.0000
# 4 0.0000 0.0000 0.0000 21.1442 0.0000 0.0000
# 5 0.0000 0.0000 0.0000 0.0000 44.4197 0.0000
# 6 0.0000 0.0000 0.0000 0.0000 0.0000 20.5224
#
#
#
# Elastic Compliance Matrix: (Units=1/GPa)
#
#
# Indices 1 2 3 4 5 6 
#
# 1 0.012270 -0.005883 -0.003566 0.000000 0.000000 0.000000
# 2 -0.005883 0.035230 -0.006328 0.000000 0.000000 0.000000
# 3 -0.003566 -0.006328 0.008733 0.000000 0.000000 0.000000
# 4 0.000000 0.000000 0.000000 0.047294 0.000000 0.000000
# 5 0.000000 0.000000 0.000000 0.000000 0.022513 0.000000
# 6 0.000000 0.000000 0.000000 0.000000 0.000000 0.048727
#
#
# Mechanical properties :
#
#
# Convention : Reuss Voigt Hill
#
# Bulk Modulus (GPa) = 40.52022 70.08766 55.30394
# Shear Modulus (GPa) = 23.30493 29.68992 26.49743
#
# Velocity S-wave (km/s) = 3.51741 3.97012 3.75060
# Velocity P-wave (km/s) = 6.16504 7.63047 6.93656
#
# Compressibility (1/GPa) = 0.02467904
#
# Stress axis : x y z
#
# Youngs Moduli (GPa) = 81.50229 28.38460 114.51144
#
# Poissons Ratio (x) = 0.16698 0.40832
# Poissons Ratio (y) = 0.47945 0.72468
# Poissons Ratio (z) = 0.29061 0.17963
#
# Static dielectric constant tensor:
#      x y z
#    x 1.649820 0.000000 0.000000 
#    y 0.000000 1.661360 0.000000 
#    z 0.000000 0.000000 1.672310 
# 
# From -- ./inp_files/7233.got.cif
#   From: 2010.05.17/outbox.cif.g08.bks.cpg/sg72_4_cif.got.tgz:7233.got - 2010.06.03 17:03:01.
