data_PCOD9528057
_publ_section_title
;
Structure prediction by ZEFSAII (Michael W. Deem and Ramdas Pophale) SiO2 
 PCOD9528057
Probable space group: I B A M
;
_chemical_formula_sum "Si O2"
_cell_formula_units_Z 88
_cell_length_a 26.601091
_cell_length_b 5.098616
_cell_length_c 31.609600
_cell_angle_alpha 90.000000
_cell_angle_beta 90.000000
_cell_angle_gamma 90.000000
_cell_volume 4287.170479
_symmetry_space_group_name_H-M "I B A M"
_symmetry_group_IT_number 72
_symmetry_cell_setting 'orthorhombic'
loop_
_space_group_symop_operation_xyz
x,y,z
-x,-y,z
x,-y,1/2-z
-x,y,1/2-z
-x,-y,-z
x,y,-z
-x,y,1/2+z
x,-y,1/2+z
1/2+x,1/2+y,1/2+z
1/2-x,1/2-y,1/2+z
1/2+x,1/2-y,-z
1/2-x,1/2+y,-z
1/2-x,1/2-y,1/2-z
1/2+x,1/2+y,1/2-z
1/2-x,1/2+y,z
1/2+x,1/2-y,z
loop_
_atom_site_type_symbol
_atom_site_label
_atom_site_fract_x
_atom_site_fract_y
_atom_site_fract_z
Si Si1 0.000000 0.000000 0.337274
Si Si2 0.619992 0.894274 0.122407
Si Si3 0.283802 0.256452 0.917176
Si Si4 0.933459 0.130976 0.590927
Si Si5 0.057562 0.394425 0.704554
Si Si6 0.147264 0.740707 0.000000
Si Si7 0.076647 0.759408 0.500000
O O1 0.955630 0.908767 0.306074
O O2 0.025893 0.811031 0.372424
O O3 0.676961 0.799688 0.120409
O O4 0.586737 0.661712 0.100625
O O5 0.598220 0.951501 0.168792
O O6 0.611674 0.163438 0.097136
O O7 0.260441 0.544122 0.916646
O O8 0.317452 0.216203 0.959131
O O9 0.952342 0.184986 0.543689
O O10 0.073239 0.500000 0.750000
O O11 0.000000 0.500000 0.698940
O O12 0.103060 0.524259 0.000000
O O13 0.121229 0.024647 0.000000
#
# Coordination Sequence:
#
# PCOD9528057 Si02
#       7
#     8  16  16  16  16   8   8
#     4  10  22  38  60  90 128 156 204 245 295 368
#     4  11  22  41  59  87 124 160 195 251 309 362
#     4  12  23  38  60  86 118 161 207 255 303 353
#     4  11  21  37  58  82 123 167 203 243 297 349
#     4  10  21  39  65  94 122 151 192 247 309 367
#     4  12  22  37  56  87 117 152 212 262 306 337
#     4  12  20  36  58  82 121 168 205 248 293 353
#
# _framework density 20.526357999999998
#
# number of rings (size 3 to 8) (size 9 to 14) (size 15 to 20)
#    0.000    0.909    5.455    2.727    0.000    1.818 
#    0.000    0.000    0.000    5.455    0.000    0.000 
#    0.000    0.000    0.000    0.000    0.000    0.000 
#
# Total GULP energy -245459.149017 kJ/mol
# GULP energy per Si atom -5578.617023 kJ/mol
# Density = 2.047964 g / cm^3
# Si number density = 20.526358 Si / 1000 Ang^3
#
#
#
# Elastic Constant Matrix: (Units=GPa)
#
#
# Indices 1 2 3 4 5 6 
#
# 1 39.2870 -2.3676 9.5977 0.0000 0.0000 0.0000
# 2 -2.3676 63.7507 11.1220 0.0000 0.0000 0.0000
# 3 9.5977 11.1220 154.6825 0.0000 0.0000 0.0000
# 4 0.0000 0.0000 0.0000 13.7184 0.0000 0.0000
# 5 0.0000 0.0000 0.0000 0.0000 26.6452 0.0000
# 6 0.0000 0.0000 0.0000 0.0000 0.0000 29.3489
#
#
#
# Elastic Compliance Matrix: (Units=1/GPa)
#
#
# Indices 1 2 3 4 5 6 
#
# 1 0.025945 0.001260 -0.001700 0.000000 0.000000 0.000000
# 2 0.001260 0.015947 -0.001225 0.000000 0.000000 0.000000
# 3 -0.001700 -0.001225 0.006658 0.000000 0.000000 0.000000
# 4 0.000000 0.000000 0.000000 0.072895 0.000000 0.000000
# 5 0.000000 0.000000 0.000000 0.000000 0.037530 0.000000
# 6 0.000000 0.000000 0.000000 0.000000 0.000000 0.034073
#
#
# Mechanical properties :
#
#
# Convention : Reuss Voigt Hill
#
# Bulk Modulus (GPa) = 22.11407 32.71382 27.41395
# Shear Modulus (GPa) = 23.64613 29.90037 26.77325
#
# Velocity S-wave (km/s) = 3.39778 3.82079 3.61548
# Velocity P-wave (km/s) = 5.11762 5.95287 5.55098
#
# Compressibility (1/GPa) = 0.04522007
#
# Stress axis : x y z
#
# Youngs Moduli (GPa) = 38.54299 62.70932 150.18555
#
# Poissons Ratio (x) = -0.07903 0.25538
# Poissons Ratio (y) = -0.04857 0.18395
# Poissons Ratio (z) = 0.06554 0.07681
#
# Static dielectric constant tensor:
#      x y z
#    x 1.747660 0.000000 0.000000 
#    y 0.000000 1.973520 0.000000 
#    z 0.000000 0.000000 1.763600 
# 
# From -- ./inp_files/50337.got.cif
#   From: 2010.05.17/outbox.cif.g08.bks.cpg/sg72_26_cif.got.tgz:50337.got - 2010.06.03 17:03:01.
