data_PCOD9528530
_publ_section_title
;
Structure prediction by ZEFSAII (Michael W. Deem and Ramdas Pophale) SiO2 
 PCOD9528530
Probable space group: I B A M
;
_chemical_formula_sum "Si O2"
_cell_formula_units_Z 116
_cell_length_a 9.304659
_cell_length_b 22.909583
_cell_length_c 24.538210
_cell_angle_alpha 90.000000
_cell_angle_beta 90.000000
_cell_angle_gamma 90.000000
_cell_volume 5230.708580
_symmetry_space_group_name_H-M "I B A M"
_symmetry_group_IT_number 72
_symmetry_cell_setting 'orthorhombic'
loop_
_space_group_symop_operation_xyz
x,y,z
-x,-y,z
x,-y,1/2-z
-x,y,1/2-z
-x,-y,-z
x,y,-z
-x,y,1/2+z
x,-y,1/2+z
1/2+x,1/2+y,1/2+z
1/2-x,1/2-y,1/2+z
1/2+x,1/2-y,-z
1/2-x,1/2+y,-z
1/2-x,1/2-y,1/2-z
1/2+x,1/2+y,1/2-z
1/2-x,1/2+y,z
1/2+x,1/2-y,z
loop_
_atom_site_type_symbol
_atom_site_label
_atom_site_fract_x
_atom_site_fract_y
_atom_site_fract_z
Si Si1 0.500000 0.500000 0.750000
Si Si2 0.266130 0.297646 0.666736
Si Si3 0.131337 0.926682 0.348079
Si Si4 0.450542 0.807478 0.193912
Si Si5 0.364892 0.043117 0.063072
Si Si6 0.086986 0.360052 0.084061
Si Si7 0.419592 0.726887 0.942463
Si Si8 0.405617 0.385094 0.061141
O O1 0.591095 0.462082 0.793714
O O2 0.305125 0.365275 0.674966
O O3 0.351554 0.249141 0.701341
O O4 0.315339 0.287836 0.605730
O O5 0.099638 0.284607 0.670030
O O6 0.244201 0.957682 0.389743
O O7 0.994879 0.913162 0.388714
O O8 0.500000 0.835982 0.250000
O O9 0.390189 0.850851 0.148957
O O10 0.445002 0.104798 0.069960
O O11 0.500000 0.000000 0.072194
O O12 0.314022 0.035822 0.000000
O O13 0.063038 0.295774 0.060247
O O14 0.233775 0.390185 0.064302
O O15 0.556967 0.684501 0.936118
O O16 0.353033 0.710403 0.000000
O O17 0.451565 0.405032 0.000000
#
# Coordination Sequence:
#
# PCOD9528530 Si02
#       8
#     4  16  16  16  16  16  16  16
#     4  12  32  52  76  96 140 184 258 306 338 400
#     4  10  23  42  65 100 136 175 233 277 342 424
#     4  11  26  50  72 102 137 188 235 297 355 408
#     4  11  24  41  64  97 138 187 229 277 340 422
#     4  11  25  48  75 106 141 178 233 301 364 427
#     4  11  23  40  63 106 144 181 232 284 349 419
#     4   9  20  35  61  99 145 181 212 266 340 418
#     4  10  22  41  70 106 142 185 228 277 351 433
#
# _framework density 22.176729000000002
#
# number of rings (size 3 to 8) (size 9 to 14) (size 15 to 20)
#    0.000    1.517    1.379    2.069   14.483    1.655 
#    0.000    1.034    0.000    0.000    0.000    0.000 
#    0.000    0.000    0.000    0.000    0.000    0.000 
#
# Total GULP energy -323776.103855 kJ/mol
# GULP energy per Si atom -5582.346618 kJ/mol
# Density = 2.212625 g / cm^3
# Si number density = 22.176729 Si / 1000 Ang^3
#
#
#
# Elastic Constant Matrix: (Units=GPa)
#
#
# Indices 1 2 3 4 5 6 
#
# 1 99.1350 22.0597 38.0382 0.0000 0.0000 0.0000
# 2 22.0597 70.1495 32.4569 0.0000 0.0000 0.0000
# 3 38.0382 32.4569 158.3716 0.0000 0.0000 0.0000
# 4 0.0000 0.0000 0.0000 -8.2233 0.0000 0.0000
# 5 0.0000 0.0000 0.0000 0.0000 27.6582 0.0000
# 6 0.0000 0.0000 0.0000 0.0000 0.0000 22.2762
#
#
#
# Elastic Compliance Matrix: (Units=1/GPa)
#
#
# Indices 1 2 3 4 5 6 
#
# 1 0.011521 -0.002588 -0.002237 0.000000 0.000000 0.000000
# 2 -0.002588 0.016330 -0.002725 0.000000 0.000000 0.000000
# 3 -0.002237 -0.002725 0.007410 0.000000 0.000000 0.000000
# 4 0.000000 0.000000 0.000000 -0.121606 0.000000 0.000000
# 5 0.000000 0.000000 0.000000 0.000000 0.036156 0.000000
# 6 0.000000 0.000000 0.000000 0.000000 0.000000 0.044891
#
#
# Mechanical properties :
#
#
# Convention : Reuss Voigt Hill
#
# Bulk Modulus (GPa) = 49.59994 56.97397 53.28695
# Shear Modulus (GPa) = 302.60978 24.01565 163.31271
#
# Velocity S-wave (km/s) = 11.69401 3.29435 8.59077
# Velocity P-wave (km/s) = 14.30900 6.34168 11.06717
#
# Compressibility (1/GPa) = 0.02016131
#
# Stress axis : x y z
#
# Youngs Moduli (GPa) = 86.79464 61.23698 134.95296
#
# Poissons Ratio (x) = 0.15849 0.30187
# Poissons Ratio (y) = 0.22464 0.36776
# Poissons Ratio (z) = 0.19415 0.16687
#
# Static dielectric constant tensor:
#      x y z
#    x 1.818480 0.000000 0.000000 
#    y 0.000000 1.906960 0.000000 
#    z 0.000000 0.000000 1.337990 
# 
# From -- ./inp_files/47670.got.cif
#   From: 2010.05.17/outbox.cif.g08.bks.cpg/sg72_24_cif.got.tgz:47670.got - 2010.06.03 17:03:01.
