data_PCOD9528075
_publ_section_title
;
Structure prediction by ZEFSAII (Michael W. Deem and Ramdas Pophale) SiO2 
 PCOD9528075
Probable space group: I B A M
;
_chemical_formula_sum "Si O2"
_cell_formula_units_Z 116
_cell_length_a 17.377407
_cell_length_b 16.512702
_cell_length_c 19.688326
_cell_angle_alpha 90.000000
_cell_angle_beta 90.000000
_cell_angle_gamma 90.000000
_cell_volume 5649.524653
_symmetry_space_group_name_H-M "I B A M"
_symmetry_group_IT_number 72
_symmetry_cell_setting 'orthorhombic'
loop_
_space_group_symop_operation_xyz
x,y,z
-x,-y,z
x,-y,1/2-z
-x,y,1/2-z
-x,-y,-z
x,y,-z
-x,y,1/2+z
x,-y,1/2+z
1/2+x,1/2+y,1/2+z
1/2-x,1/2-y,1/2+z
1/2+x,1/2-y,-z
1/2-x,1/2+y,-z
1/2-x,1/2-y,1/2-z
1/2+x,1/2+y,1/2-z
1/2-x,1/2+y,z
1/2+x,1/2-y,z
loop_
_atom_site_type_symbol
_atom_site_label
_atom_site_fract_x
_atom_site_fract_y
_atom_site_fract_z
Si Si1 0.109579 0.130870 0.075865
Si Si2 0.921079 0.088433 0.279788
Si Si3 0.568576 0.819668 0.578319
Si Si4 0.680532 0.284455 0.705680
Si Si5 0.259854 0.123613 0.582323
Si Si6 0.000000 0.500000 0.250000
Si Si7 0.417103 0.867200 0.661577
Si Si8 0.225345 0.562239 0.921458
O O1 0.074187 0.084737 0.139231
O O2 0.083870 0.223627 0.081712
O O3 0.201582 0.121620 0.083558
O O4 0.090084 0.101061 0.000000
O O5 0.854477 0.144892 0.251893
O O6 0.000000 0.122803 0.250000
O O7 0.910530 0.000000 0.250000
O O8 0.554410 0.842028 0.500000
O O9 0.649940 0.859944 0.597981
O O10 0.493962 0.843480 0.620453
O O11 0.750000 0.250000 0.750000
O O12 0.709306 0.320819 0.632980
O O13 0.617971 0.213427 0.695493
O O14 0.247923 0.138223 0.500000
O O15 0.246987 0.028412 0.597735
O O16 0.055007 0.560563 0.209306
O O17 0.346889 0.903612 0.618269
O O18 0.202619 0.555889 0.000000
#
# Coordination Sequence:
#
# PCOD9528075 Si02
#       8
#    16  16  16  16  16   4  16  16
#     4  10  21  41  67  96 130 174 221 281 341 402
#     4  11  24  44  66  95 133 175 221 276 341 406
#     4  10  21  39  67  94 127 168 218 277 335 401
#     4  12  27  40  68  96 129 177 220 284 337 410
#     4  10  22  41  65  97 132 172 220 278 339 409
#     4  12  32  44  62  92 138 184 214 278 328 416
#     4  12  26  43  63  95 131 179 225 274 336 415
#     4  10  21  40  68  96 131 170 220 282 339 402
#
# _framework density 20.532702
#
# number of rings (size 3 to 8) (size 9 to 14) (size 15 to 20)
#    0.000    1.241    0.000    5.379    6.759    2.207 
#    1.241    4.828    0.000    0.000    0.000    0.000 
#    0.000    0.000    0.000    0.000    0.000    0.000 
#
# Total GULP energy -324160.884327 kJ/mol
# GULP energy per Si atom -5588.980764 kJ/mol
# Density = 2.048597 g / cm^3
# Si number density = 20.532702 Si / 1000 Ang^3
#
#
#
# Elastic Constant Matrix: (Units=GPa)
#
#
# Indices 1 2 3 4 5 6 
#
# 1 84.2438 38.6336 53.0581 0.0000 0.0000 0.0000
# 2 38.6336 87.5433 51.2643 0.0000 0.0000 0.0000
# 3 53.0581 51.2643 122.0118 0.0000 0.0000 0.0000
# 4 0.0000 0.0000 0.0000 35.2847 0.0000 0.0000
# 5 0.0000 0.0000 0.0000 0.0000 28.7638 0.0000
# 6 0.0000 0.0000 0.0000 0.0000 0.0000 68.8929
#
#
#
# Elastic Compliance Matrix: (Units=1/GPa)
#
#
# Indices 1 2 3 4 5 6 
#
# 1 0.017505 -0.004334 -0.005791 0.000000 0.000000 0.000000
# 2 -0.004334 0.016223 -0.004932 0.000000 0.000000 0.000000
# 3 -0.005791 -0.004932 0.012787 0.000000 0.000000 0.000000
# 4 0.000000 0.000000 0.000000 0.028341 0.000000 0.000000
# 5 0.000000 0.000000 0.000000 0.000000 0.034766 0.000000
# 6 0.000000 0.000000 0.000000 0.000000 0.000000 0.014515
#
#
# Mechanical properties :
#
#
# Convention : Reuss Voigt Hill
#
# Bulk Modulus (GPa) = 60.97145 64.41231 62.69188
# Shear Modulus (GPa) = 31.30504 36.64450 33.97477
#
# Velocity S-wave (km/s) = 3.90890 4.22914 4.07217
# Velocity P-wave (km/s) = 7.08039 7.43547 7.26010
#
# Compressibility (1/GPa) = 0.01640112
#
# Stress axis : x y z
#
# Youngs Moduli (GPa) = 57.12543 61.63906 78.20711
#
# Poissons Ratio (x) = 0.26713 0.45293
# Poissons Ratio (y) = 0.24757 0.38570
# Poissons Ratio (z) = 0.33084 0.30399
#
# Static dielectric constant tensor:
#      x y z
#    x -3.578640 0.000000 0.000000 
#    y 0.000000 1.716710 0.000000 
#    z 0.000000 0.000000 1.751770 
# 
# From -- ./inp_files/31742.got.cif
#   From: 2010.05.17/outbox.cif.g08.bks.cpg/sg72_16_cif.got.tgz:31742.got - 2010.06.03 17:03:01.
