data_PCOD9528234
_publ_section_title
;
Structure prediction by ZEFSAII (Michael W. Deem and Ramdas Pophale) SiO2 
 PCOD9528234
Probable space group: I B A M
;
_chemical_formula_sum "Si O2"
_cell_formula_units_Z 52
_cell_length_a 7.821742
_cell_length_b 14.033287
_cell_length_c 21.454921
_cell_angle_alpha 90.000000
_cell_angle_beta 90.000000
_cell_angle_gamma 90.000000
_cell_volume 2354.994047
_symmetry_space_group_name_H-M "I B A M"
_symmetry_group_IT_number 72
_symmetry_cell_setting 'orthorhombic'
loop_
_space_group_symop_operation_xyz
x,y,z
-x,-y,z
x,-y,1/2-z
-x,y,1/2-z
-x,-y,-z
x,y,-z
-x,y,1/2+z
x,-y,1/2+z
1/2+x,1/2+y,1/2+z
1/2-x,1/2-y,1/2+z
1/2+x,1/2-y,-z
1/2-x,1/2+y,-z
1/2-x,1/2-y,1/2-z
1/2+x,1/2+y,1/2-z
1/2-x,1/2+y,z
1/2+x,1/2-y,z
loop_
_atom_site_type_symbol
_atom_site_label
_atom_site_fract_x
_atom_site_fract_y
_atom_site_fract_z
Si Si1 0.000000 0.000000 0.750000
Si Si2 0.354875 0.392509 0.636308
Si Si3 0.180478 0.442084 0.068948
Si Si4 0.554369 0.228723 0.424493
O O1 0.895219 0.074737 0.706551
O O2 0.305546 0.495109 0.609025
O O3 0.504332 0.331951 0.602303
O O4 0.190754 0.326992 0.618505
O O5 0.118037 0.335767 0.082446
O O6 0.000000 0.500000 0.068347
O O7 0.252882 0.443397 0.000000
O O8 0.593988 0.226828 0.500000
#
# Coordination Sequence:
#
# PCOD9528234 Si02
#       4
#     4  16  16  16
#     4  12  32  48  60  92 150 208 246 254 324 436
#     4  11  24  45  67 100 141 187 235 281 340 419
#     4   8  16  36  66 101 135 165 214 285 356 407
#     4  10  21  42  76 111 136 170 229 304 370 399
#
# _framework density 22.080735000000001
#
# number of rings (size 3 to 8) (size 9 to 14) (size 15 to 20)
#    0.000    2.154    0.000    4.615    4.308    1.231 
#    0.000   10.769    0.000    0.000    0.000    0.000 
#    0.000    0.000    0.000    0.000    0.000    0.000 
#
# Total GULP energy -144899.884610 kJ/mol
# GULP energy per Si atom -5573.072485 kJ/mol
# Density = 2.203048 g / cm^3
# Si number density = 22.080735 Si / 1000 Ang^3
#
#
#
# Elastic Constant Matrix: (Units=GPa)
#
#
# Indices 1 2 3 4 5 6 
#
# 1 88.4005 32.3209 76.4319 0.0000 0.0000 0.0000
# 2 32.3209 169.4531 83.8404 0.0000 0.0000 0.0000
# 3 76.4319 83.8404 156.2310 0.0000 0.0000 0.0000
# 4 0.0000 0.0000 0.0000 41.9816 0.0000 0.0000
# 5 0.0000 0.0000 0.0000 0.0000 -50.8938 0.0000
# 6 0.0000 0.0000 0.0000 0.0000 0.0000 53.5645
#
#
#
# Elastic Compliance Matrix: (Units=1/GPa)
#
#
# Indices 1 2 3 4 5 6 
#
# 1 0.019841 0.001386 -0.010451 0.000000 0.000000 0.000000
# 2 0.001386 0.008132 -0.005042 0.000000 0.000000 0.000000
# 3 -0.010451 -0.005042 0.014219 0.000000 0.000000 0.000000
# 4 0.000000 0.000000 0.000000 0.023820 0.000000 0.000000
# 5 0.000000 0.000000 0.000000 0.000000 -0.019649 0.000000
# 6 0.000000 0.000000 0.000000 0.000000 0.000000 0.018669
#
#
# Mechanical properties :
#
#
# Convention : Reuss Voigt Hill
#
# Bulk Modulus (GPa) = 71.53515 88.80791 80.17153
# Shear Modulus (GPa) = 51.07034 23.69657 37.38346
#
# Velocity S-wave (km/s) = 4.81447 3.27949 4.11911
# Velocity P-wave (km/s) = 7.96071 7.39236 7.68180
#
# Compressibility (1/GPa) = 0.01397914
#
# Stress axis : x y z
#
# Youngs Moduli (GPa) = 50.40071 122.97818 70.32760
#
# Poissons Ratio (x) = -0.17048 0.73497
# Poissons Ratio (y) = -0.06987 0.35459
# Poissons Ratio (z) = 0.52672 0.62005
#
# Static dielectric constant tensor:
#      x y z
#    x 1.949080 0.000000 0.000000 
#    y 0.000000 1.908150 0.000000 
#    z 0.000000 0.000000 1.760350 
# 
# From -- ./inp_files/27449.got.cif
#   From: 2010.05.17/outbox.cif.g08.bks.cpg/sg72_14_cif.got.tgz:27449.got - 2010.06.03 17:03:01.
