data_PCOD9528682
_publ_section_title
;
Structure prediction by ZEFSAII (Michael W. Deem and Ramdas Pophale) SiO2 
 PCOD9528682
Probable space group: I B A M
;
_chemical_formula_sum "Si O2"
_cell_formula_units_Z 60
_cell_length_a 5.276963
_cell_length_b 17.415218
_cell_length_c 29.187362
_cell_angle_alpha 90.000000
_cell_angle_beta 90.000000
_cell_angle_gamma 90.000000
_cell_volume 2682.302836
_symmetry_space_group_name_H-M "I B A M"
_symmetry_group_IT_number 72
_symmetry_cell_setting 'orthorhombic'
loop_
_space_group_symop_operation_xyz
x,y,z
-x,-y,z
x,-y,1/2-z
-x,y,1/2-z
-x,-y,-z
x,y,-z
-x,y,1/2+z
x,-y,1/2+z
1/2+x,1/2+y,1/2+z
1/2-x,1/2-y,1/2+z
1/2+x,1/2-y,-z
1/2-x,1/2+y,-z
1/2-x,1/2-y,1/2-z
1/2+x,1/2+y,1/2-z
1/2-x,1/2+y,z
1/2+x,1/2-y,z
loop_
_atom_site_type_symbol
_atom_site_label
_atom_site_fract_x
_atom_site_fract_y
_atom_site_fract_z
Si Si1 0.256849 0.448118 0.568647
Si Si2 0.180199 0.572345 0.173226
Si Si3 0.000000 0.000000 0.750000
Si Si4 0.765286 0.694673 0.500000
Si Si5 0.815044 0.729938 0.302829
O O1 0.500000 0.500000 0.554753
O O2 0.289068 0.427517 0.622252
O O3 0.237041 0.367185 0.541892
O O4 0.000000 0.500000 0.562643
O O5 0.359529 0.556142 0.215603
O O6 0.040859 0.650167 0.187385
O O7 0.000000 0.500000 0.173376
O O8 0.516006 0.750367 0.500000
O O9 0.750000 0.750000 0.250000
O O10 0.533711 0.715823 0.322877
#
# Coordination Sequence:
#
# PCOD9528682 Si02
#       5
#    16  16   4   8  16
#     4  11  24  47  71 106 142 190 236 294 363 428
#     4  11  26  40  68  98 138 186 247 297 342 416
#     4  12  22  40  64  96 140 176 252 288 342 382
#     4  12  26  46  78 114 144 186 230 296 368 446
#     4  10  23  39  57  84 123 171 219 273 351 389
#
# _framework density 22.368838
#
# number of rings (size 3 to 8) (size 9 to 14) (size 15 to 20)
#    0.000    1.067    1.333    4.400   11.200    2.133 
#    0.000    0.000    0.000    0.000    0.000    0.000 
#    0.000    0.000    0.000    0.000    0.000    0.000 
#
# Total GULP energy -167081.762172 kJ/mol
# GULP energy per Si atom -5569.392072 kJ/mol
# Density = 2.231793 g / cm^3
# Si number density = 22.368838 Si / 1000 Ang^3
#
#
#
# Elastic Constant Matrix: (Units=GPa)
#
#
# Indices 1 2 3 4 5 6 
#
# 1 170.0302 47.9705 40.4016 0.0000 0.0000 0.0000
# 2 47.9705 137.4650 60.2462 0.0000 0.0000 0.0000
# 3 40.4016 60.2462 158.5328 0.0000 0.0000 0.0000
# 4 0.0000 0.0000 0.0000 54.8849 0.0000 0.0000
# 5 0.0000 0.0000 0.0000 0.0000 17.1146 0.0000
# 6 0.0000 0.0000 0.0000 0.0000 0.0000 34.7468
#
#
#
# Elastic Compliance Matrix: (Units=1/GPa)
#
#
# Indices 1 2 3 4 5 6 
#
# 1 0.006647 -0.001892 -0.000975 0.000000 0.000000 0.000000
# 2 -0.001892 0.009267 -0.003039 0.000000 0.000000 0.000000
# 3 -0.000975 -0.003039 0.007711 0.000000 0.000000 0.000000
# 4 0.000000 0.000000 0.000000 0.018220 0.000000 0.000000
# 5 0.000000 0.000000 0.000000 0.000000 0.058430 0.000000
# 6 0.000000 0.000000 0.000000 0.000000 0.000000 0.028780
#
#
# Mechanical properties :
#
#
# Convention : Reuss Voigt Hill
#
# Bulk Modulus (GPa) = 84.65906 84.80718 84.73312
# Shear Modulus (GPa) = 34.52926 42.50992 38.51959
#
# Velocity S-wave (km/s) = 3.93317 4.36410 4.15422
# Velocity P-wave (km/s) = 7.65216 7.96173 7.80848
#
# Compressibility (1/GPa) = 0.01181208
#
# Stress axis : x y z
#
# Youngs Moduli (GPa) = 150.44823 107.90983 129.67940
#
# Poissons Ratio (x) = 0.20420 0.12641
# Poissons Ratio (y) = 0.28469 0.39415
# Poissons Ratio (z) = 0.14666 0.32798
#
# Static dielectric constant tensor:
#      x y z
#    x 1.480560 0.000000 0.000000 
#    y 0.000000 1.764190 0.000000 
#    z 0.000000 0.000000 0.599270 
# 
# From -- ./inp_files/46469.got.cif
#   From: 2010.05.17/outbox.cif.g08.bks.cpg/sg72_24_cif.got.tgz:46469.got - 2010.06.03 17:03:01.
