data_PCOD9528077
_publ_section_title
;
Structure prediction by ZEFSAII (Michael W. Deem and Ramdas Pophale) SiO2 
 PCOD9528077
Probable space group: I B A M
;
_chemical_formula_sum "Si O2"
_cell_formula_units_Z 52
_cell_length_a 15.604084
_cell_length_b 7.210660
_cell_length_c 19.219266
_cell_angle_alpha 90.000000
_cell_angle_beta 90.000000
_cell_angle_gamma 90.000000
_cell_volume 2162.470020
_symmetry_space_group_name_H-M "I B A M"
_symmetry_group_IT_number 72
_symmetry_cell_setting 'orthorhombic'
loop_
_space_group_symop_operation_xyz
x,y,z
-x,-y,z
x,-y,1/2-z
-x,y,1/2-z
-x,-y,-z
x,y,-z
-x,y,1/2+z
x,-y,1/2+z
1/2+x,1/2+y,1/2+z
1/2-x,1/2-y,1/2+z
1/2+x,1/2-y,-z
1/2-x,1/2+y,-z
1/2-x,1/2-y,1/2-z
1/2+x,1/2+y,1/2-z
1/2-x,1/2+y,z
1/2+x,1/2-y,z
loop_
_atom_site_type_symbol
_atom_site_label
_atom_site_fract_x
_atom_site_fract_y
_atom_site_fract_z
Si Si1 0.942301 0.160733 0.921017
Si Si2 0.000000 0.500000 0.250000
Si Si3 0.625573 0.965623 0.362977
Si Si4 0.212490 0.890019 0.578414
O O1 0.932268 0.365213 0.891330
O O2 0.849187 0.067147 0.922113
O O3 0.974487 0.183075 0.000000
O O4 0.000000 0.000000 0.886378
O O5 0.929213 0.606041 0.202724
O O6 0.717871 0.071538 0.361335
O O7 0.652913 0.789091 0.408761
O O8 0.251177 0.878421 0.500000
#
# Coordination Sequence:
#
# PCOD9528077 Si02
#       4
#    16   4  16  16
#     4  10  21  39  68 107 141 174 226 296 369 414
#     4  12  32  48  64  96 150 210 244 258 334 440
#     4  12  24  46  68 101 144 188 238 285 342 426
#     4  11  22  41  77 111 135 172 233 311 370 400
#
# _framework density 24.046576999999999
#
# number of rings (size 3 to 8) (size 9 to 14) (size 15 to 20)
#    0.000    0.923    3.077    4.615    0.000    1.231 
#    0.000   15.385    0.000    0.000    0.000    0.000 
#    0.000    0.000    0.000    0.000    0.000    0.000 
#
# Total GULP energy -144830.697511 kJ/mol
# GULP energy per Si atom -5570.411443 kJ/mol
# Density = 2.399185 g / cm^3
# Si number density = 24.046577 Si / 1000 Ang^3
#
#
#
# Elastic Constant Matrix: (Units=GPa)
#
#
# Indices 1 2 3 4 5 6 
#
# 1 132.0012 32.9102 48.8824 0.0000 0.0000 0.0000
# 2 32.9102 161.4287 9.8112 0.0000 0.0000 0.0000
# 3 48.8824 9.8112 39.8734 0.0000 0.0000 0.0000
# 4 0.0000 0.0000 0.0000 -8.5506 0.0000 0.0000
# 5 0.0000 0.0000 0.0000 0.0000 52.9516 0.0000
# 6 0.0000 0.0000 0.0000 0.0000 0.0000 57.7728
#
#
#
# Elastic Compliance Matrix: (Units=1/GPa)
#
#
# Indices 1 2 3 4 5 6 
#
# 1 0.014423 -0.001894 -0.017216 0.000000 0.000000 0.000000
# 2 -0.001894 0.006537 0.000713 0.000000 0.000000 0.000000
# 3 -0.017216 0.000713 0.046010 0.000000 0.000000 0.000000
# 4 0.000000 0.000000 0.000000 -0.116951 0.000000 0.000000
# 5 0.000000 0.000000 0.000000 0.000000 0.018885 0.000000
# 6 0.000000 0.000000 0.000000 0.000000 0.000000 0.017309
#
#
# Mechanical properties :
#
#
# Convention : Reuss Voigt Hill
#
# Bulk Modulus (GPa) = 33.13776 57.39009 45.26393
# Shear Modulus (GPa) = 151.21121 36.54807 93.87964
#
# Velocity S-wave (km/s) = 7.93846 3.90280 6.25504
# Velocity P-wave (km/s) = 9.89121 6.65035 8.42803
#
# Compressibility (1/GPa) = 0.03017705
#
# Stress axis : x y z
#
# Youngs Moduli (GPa) = 69.33209 152.96431 21.73456
#
# Poissons Ratio (x) = 0.28973 0.37418
# Poissons Ratio (y) = 0.13132 -0.01551
# Poissons Ratio (z) = 1.19363 -0.10914
#
# Static dielectric constant tensor:
#      x y z
#    x 2.027170 0.000000 0.000000 
#    y 0.000000 1.971430 0.000000 
#    z 0.000000 0.000000 2.018600 
# 
# From -- ./inp_files/27410.got.cif
#   From: 2010.05.17/outbox.cif.g08.bks.cpg/sg72_14_cif.got.tgz:27410.got - 2010.06.03 17:03:01.
