data_PCOD9528467
_publ_section_title
;
Structure prediction by ZEFSAII (Michael W. Deem and Ramdas Pophale) SiO2 
 PCOD9528467
Probable space group: I B A M
;
_chemical_formula_sum "Si O2"
_cell_formula_units_Z 64
_cell_length_a 19.327057
_cell_length_b 5.040774
_cell_length_c 26.420513
_cell_angle_alpha 90.000000
_cell_angle_beta 90.000000
_cell_angle_gamma 90.000000
_cell_volume 2573.974262
_symmetry_space_group_name_H-M "I B A M"
_symmetry_group_IT_number 72
_symmetry_cell_setting 'orthorhombic'
loop_
_space_group_symop_operation_xyz
x,y,z
-x,-y,z
x,-y,1/2-z
-x,y,1/2-z
-x,-y,-z
x,y,-z
-x,y,1/2+z
x,-y,1/2+z
1/2+x,1/2+y,1/2+z
1/2-x,1/2-y,1/2+z
1/2+x,1/2-y,-z
1/2-x,1/2+y,-z
1/2-x,1/2-y,1/2-z
1/2+x,1/2+y,1/2-z
1/2-x,1/2+y,z
1/2+x,1/2-y,z
loop_
_atom_site_type_symbol
_atom_site_label
_atom_site_fract_x
_atom_site_fract_y
_atom_site_fract_z
Si Si1 0.705498 0.290578 0.684455
Si Si2 0.129532 0.403202 0.410677
Si Si3 0.201321 0.298863 0.000000
Si Si4 0.407999 0.000000 0.750000
Si Si5 0.950750 0.239041 0.000000
Si Si6 0.000000 0.500000 0.836307
O O1 0.769168 0.087849 0.693673
O O2 0.684692 0.229181 0.626477
O O3 0.641233 0.197370 0.718561
O O4 0.159282 0.632164 0.448029
O O5 0.097523 0.212276 0.451900
O O6 0.063246 0.459093 0.375119
O O7 0.263212 0.515199 0.000000
O O8 0.454463 0.847298 0.792492
O O9 0.000000 0.500000 0.000000
O O10 0.000000 0.000000 0.000000
#
# Coordination Sequence:
#
# PCOD9528467 Si02
#       6
#    16  16   8   8   8   8
#     4  11  23  41  68  96 130 172 222 268 330 387
#     4  10  22  40  68  94 134 171 217 272 321 396
#     4  11  24  42  65  94 130 169 217 266 324 381
#     4   9  20  38  68  94 136 169 222 280 330 393
#     4  11  24  41  64  92 132 167 213 259 325 389
#     4   9  18  41  66  98 130 175 222 269 340 390
#
# _framework density 24.864270999999999
#
# number of rings (size 3 to 8) (size 9 to 14) (size 15 to 20)
#    0.000    1.750    1.250    2.250    0.000    6.000 
#    0.000    0.000    0.000    9.000    0.000    0.000 
#    0.000    0.000    0.000    0.000    0.000    0.000 
#
# Total GULP energy -178447.664227 kJ/mol
# GULP energy per Si atom -5576.489507 kJ/mol
# Density = 2.480768 g / cm^3
# Si number density = 24.864271 Si / 1000 Ang^3
#
#
#
# Elastic Constant Matrix: (Units=GPa)
#
#
# Indices 1 2 3 4 5 6 
#
# 1 120.0334 24.0409 61.6744 0.0000 0.0000 0.0000
# 2 24.0409 76.8484 9.3860 0.0000 0.0000 0.0000
# 3 61.6744 9.3860 208.0965 0.0000 0.0000 0.0000
# 4 0.0000 0.0000 0.0000 72.0206 0.0000 0.0000
# 5 0.0000 0.0000 0.0000 0.0000 95.4930 0.0000
# 6 0.0000 0.0000 0.0000 0.0000 0.0000 33.6294
#
#
#
# Elastic Compliance Matrix: (Units=1/GPa)
#
#
# Indices 1 2 3 4 5 6 
#
# 1 0.010434 -0.002902 -0.002961 0.000000 0.000000 0.000000
# 2 -0.002902 0.013892 0.000234 0.000000 0.000000 0.000000
# 3 -0.002961 0.000234 0.005673 0.000000 0.000000 0.000000
# 4 0.000000 0.000000 0.000000 0.013885 0.000000 0.000000
# 5 0.000000 0.000000 0.000000 0.000000 0.010472 0.000000
# 6 0.000000 0.000000 0.000000 0.000000 0.000000 0.029736
#
#
# Mechanical properties :
#
#
# Convention : Reuss Voigt Hill
#
# Bulk Modulus (GPa) = 53.36702 66.13121 59.74912
# Shear Modulus (GPa) = 49.21360 60.88708 55.05034
#
# Velocity S-wave (km/s) = 4.45375 4.95388 4.71046
# Velocity P-wave (km/s) = 6.92515 7.70557 7.32576
#
# Compressibility (1/GPa) = 0.01873816
#
# Stress axis : x y z
#
# Youngs Moduli (GPa) = 95.84104 71.98350 176.28540
#
# Poissons Ratio (x) = 0.20893 0.52206
# Poissons Ratio (y) = 0.27817 -0.04118
# Poissons Ratio (z) = 0.28383 -0.01682
#
# Static dielectric constant tensor:
#      x y z
#    x 2.037600 0.000000 0.000000 
#    y 0.000000 1.946790 0.000000 
#    z 0.000000 0.000000 1.868810 
# 
# From -- ./inp_files/49263.got.cif
#   From: 2010.05.17/outbox.cif.g08.bks.cpg/sg72_25_cif.got.tgz:49263.got - 2010.06.03 17:03:01.
