data_PCOD9528791
_publ_section_title
;
Structure prediction by ZEFSAII (Michael W. Deem and Ramdas Pophale) SiO2 
 PCOD9528791
Probable space group: I B A M
;
_chemical_formula_sum "Si O2"
_cell_formula_units_Z 96
_cell_length_a 11.305465
_cell_length_b 22.358815
_cell_length_c 17.806221
_cell_angle_alpha 90.000000
_cell_angle_beta 90.000000
_cell_angle_gamma 90.000000
_cell_volume 4500.999572
_symmetry_space_group_name_H-M "I B A M"
_symmetry_group_IT_number 72
_symmetry_cell_setting 'orthorhombic'
loop_
_space_group_symop_operation_xyz
x,y,z
-x,-y,z
x,-y,1/2-z
-x,y,1/2-z
-x,-y,-z
x,y,-z
-x,y,1/2+z
x,-y,1/2+z
1/2+x,1/2+y,1/2+z
1/2-x,1/2-y,1/2+z
1/2+x,1/2-y,-z
1/2-x,1/2+y,-z
1/2-x,1/2-y,1/2-z
1/2+x,1/2+y,1/2-z
1/2-x,1/2+y,z
1/2+x,1/2-y,z
loop_
_atom_site_type_symbol
_atom_site_label
_atom_site_fract_x
_atom_site_fract_y
_atom_site_fract_z
Si Si1 0.939228 0.912181 0.677585
Si Si2 0.214629 0.199227 0.309153
Si Si3 0.554665 0.117725 0.168052
Si Si4 0.779542 0.525575 0.091304
Si Si5 0.643647 0.198056 0.410832
Si Si6 0.321962 0.399989 0.410639
O O1 0.880961 0.851337 0.709480
O O2 0.834872 0.945517 0.632578
O O3 0.000000 0.940876 0.750000
O O4 0.047879 0.904643 0.621411
O O5 0.250000 0.250000 0.250000
O O6 0.333101 0.161895 0.324281
O O7 0.157771 0.236025 0.377979
O O8 0.500000 0.103432 0.250000
O O9 0.606068 0.059612 0.124745
O O10 0.459978 0.157402 0.123070
O O11 0.764260 0.455354 0.110712
O O12 0.776031 0.532629 0.000000
O O13 0.631669 0.199685 0.500000
O O14 0.762122 0.162068 0.388983
O O15 0.329027 0.402412 0.500000
#
# Coordination Sequence:
#
# PCOD9528791 Si02
#       6
#    16  16  16  16  16  16
#     4  11  24  39  67 100 132 173 220 274 331 401
#     4  11  24  42  66  91 133 178 217 271 345 392
#     4  11  24  43  69  95 129 177 225 276 337 402
#     4  10  23  45  69  96 135 177 220 273 338 405
#     4  11  25  41  65  98 129 172 226 271 325 400
#     4  10  23  43  66  95 134 174 215 272 337 395
#
# _framework density 21.328595
#
# number of rings (size 3 to 8) (size 9 to 14) (size 15 to 20)
#    0.000    1.333    1.667    2.500    7.000    7.333 
#    0.000    3.333    0.000    0.000    0.000    0.000 
#    0.000    0.000    0.000    0.000    0.000    0.000 
#
# Total GULP energy -268141.000106 kJ/mol
# GULP energy per Si atom -5586.270836 kJ/mol
# Density = 2.128005 g / cm^3
# Si number density = 21.328595 Si / 1000 Ang^3
#
#
#
# Elastic Constant Matrix: (Units=GPa)
#
#
# Indices 1 2 3 4 5 6 
#
# 1 89.4663 17.5916 29.6282 0.0000 0.0000 0.0000
# 2 17.5916 85.1967 38.3831 0.0000 0.0000 0.0000
# 3 29.6282 38.3831 86.9331 0.0000 0.0000 0.0000
# 4 0.0000 0.0000 0.0000 26.6045 0.0000 0.0000
# 5 0.0000 0.0000 0.0000 0.0000 30.8401 0.0000
# 6 0.0000 0.0000 0.0000 0.0000 0.0000 -51.1829
#
#
#
# Elastic Compliance Matrix: (Units=1/GPa)
#
#
# Indices 1 2 3 4 5 6 
#
# 1 0.012647 -0.000836 -0.003941 0.000000 0.000000 0.000000
# 2 -0.000836 0.014707 -0.006209 0.000000 0.000000 0.000000
# 3 -0.003941 -0.006209 0.015588 0.000000 0.000000 0.000000
# 4 0.000000 0.000000 0.000000 0.037588 0.000000 0.000000
# 5 0.000000 0.000000 0.000000 0.000000 0.032425 0.000000
# 6 0.000000 0.000000 0.000000 0.000000 0.000000 -0.019538
#
#
# Mechanical properties :
#
#
# Convention : Reuss Voigt Hill
#
# Bulk Modulus (GPa) = 47.68645 48.08907 47.88776
# Shear Modulus (GPa) = 40.85673 12.98522 26.92097
#
# Velocity S-wave (km/s) = 4.38149 2.47010 3.55660
# Velocity P-wave (km/s) = 6.92843 5.54355 6.27431
#
# Compressibility (1/GPa) = 0.02097032
#
# Stress axis : x y z
#
# Youngs Moduli (GPa) = 79.07046 67.99336 64.15317
#
# Poissons Ratio (x) = 0.05682 0.25285
# Poissons Ratio (y) = 0.06608 0.39831
# Poissons Ratio (z) = 0.31164 0.42216
#
# Static dielectric constant tensor:
#      x y z
#    x 1.457820 0.000000 0.000000 
#    y 0.000000 1.909880 0.000000 
#    z 0.000000 0.000000 2.079770 
# 
# From -- ./inp_files/29423.got.cif
#   From: 2010.05.17/outbox.cif.g08.bks.cpg/sg72_15_cif.got.tgz:29423.got - 2010.06.03 17:03:01.
