data_PCOD9528223
_publ_section_title
;
Structure prediction by ZEFSAII (Michael W. Deem and Ramdas Pophale) SiO2 
 PCOD9528223
Probable space group: I B A M
;
_chemical_formula_sum "Si O2"
_cell_formula_units_Z 72
_cell_length_a 9.077912
_cell_length_b 26.269833
_cell_length_c 14.279356
_cell_angle_alpha 90.000000
_cell_angle_beta 90.000000
_cell_angle_gamma 90.000000
_cell_volume 3405.272738
_symmetry_space_group_name_H-M "I B A M"
_symmetry_group_IT_number 72
_symmetry_cell_setting 'orthorhombic'
loop_
_space_group_symop_operation_xyz
x,y,z
-x,-y,z
x,-y,1/2-z
-x,y,1/2-z
-x,-y,-z
x,y,-z
-x,y,1/2+z
x,-y,1/2+z
1/2+x,1/2+y,1/2+z
1/2-x,1/2-y,1/2+z
1/2+x,1/2-y,-z
1/2-x,1/2+y,-z
1/2-x,1/2-y,1/2-z
1/2+x,1/2+y,1/2-z
1/2-x,1/2+y,z
1/2+x,1/2-y,z
loop_
_atom_site_type_symbol
_atom_site_label
_atom_site_fract_x
_atom_site_fract_y
_atom_site_fract_z
Si Si1 0.489696 0.635301 0.000000
Si Si2 0.146172 0.662515 0.000000
Si Si3 0.437531 0.446778 0.647228
Si Si4 0.140527 0.395320 0.310875
Si Si5 0.338120 0.796376 0.794486
Si Si6 0.770231 0.221866 0.000000
O O1 0.322150 0.653593 0.000000
O O2 0.503592 0.599135 0.911330
O O3 0.601306 0.680643 0.000000
O O4 0.090253 0.634398 0.905855
O O5 0.147618 0.723543 0.000000
O O6 0.500000 0.500000 0.608134
O O7 0.500000 0.444138 0.750000
O O8 0.261162 0.436974 0.656865
O O9 0.214830 0.351365 0.245199
O O10 0.000000 0.413859 0.250000
O O11 0.500000 0.792550 0.750000
O O12 0.250000 0.750000 0.750000
O O13 0.322886 0.788050 0.905545
#
# Coordination Sequence:
#
# PCOD9528223 Si02
#       6
#     8   8  16  16  16   8
#     4  10  23  38  68  98 130 170 230 282 334 405
#     4  10  22  39  61  94 137 185 220 269 334 411
#     4  10  21  42  68  96 127 166 223 287 344 399
#     4  10  22  41  62  96 136 175 221 278 339 408
#     4  11  25  38  60  92 135 182 231 268 322 404
#     4  12  24  39  63  94 138 189 226 274 343 391
#
# _framework density 21.143681000000001
#
# number of rings (size 3 to 8) (size 9 to 14) (size 15 to 20)
#    0.000    1.556    2.222    1.667    3.111    4.444 
#    0.000    3.333    0.000    1.333    0.000   26.444 
#    0.000    0.000    0.000    0.000    0.000    0.000 
#
# Total GULP energy -200992.572262 kJ/mol
# GULP energy per Si atom -5583.127007 kJ/mol
# Density = 2.109556 g / cm^3
# Si number density = 21.143681 Si / 1000 Ang^3
#
#
#
# Elastic Constant Matrix: (Units=GPa)
#
#
# Indices 1 2 3 4 5 6 
#
# 1 87.5968 56.9373 29.6887 0.0000 0.0000 0.0000
# 2 56.9373 124.5007 29.0800 0.0000 0.0000 0.0000
# 3 29.6887 29.0800 169.6028 0.0000 0.0000 0.0000
# 4 0.0000 0.0000 0.0000 -2.9298 0.0000 0.0000
# 5 0.0000 0.0000 0.0000 0.0000 22.3399 0.0000
# 6 0.0000 0.0000 0.0000 0.0000 0.0000 34.0936
#
#
#
# Elastic Compliance Matrix: (Units=1/GPa)
#
#
# Indices 1 2 3 4 5 6 
#
# 1 0.016692 -0.007241 -0.001680 0.000000 0.000000 0.000000
# 2 -0.007241 0.011509 -0.000706 0.000000 0.000000 0.000000
# 3 -0.001680 -0.000706 0.006311 0.000000 0.000000 0.000000
# 4 0.000000 0.000000 0.000000 -0.341321 0.000000 0.000000
# 5 0.000000 0.000000 0.000000 0.000000 0.044763 0.000000
# 6 0.000000 0.000000 0.000000 0.000000 0.000000 0.029331
#
#
# Mechanical properties :
#
#
# Convention : Reuss Voigt Hill
#
# Bulk Modulus (GPa) = 65.54201 68.12360 66.83281
# Shear Modulus (GPa) = -23.99529 28.43371 2.21921
#
# Velocity S-wave (km/s) = -3.37244 3.67111 1.02560
# Velocity P-wave (km/s) = 3.98764 7.08934 5.75152
#
# Compressibility (1/GPa) = 0.01525739
#
# Stress axis : x y z
#
# Youngs Moduli (GPa) = 59.90804 86.89204 158.44681
#
# Poissons Ratio (x) = 0.62921 0.26625
# Poissons Ratio (y) = 0.43381 0.11181
# Poissons Ratio (z) = 0.10067 0.06132
#
# Static dielectric constant tensor:
#      x y z
#    x 1.801960 0.000000 0.000000 
#    y 0.000000 1.816530 0.000000 
#    z 0.000000 0.000000 1.835580 
# 
# From -- ./inp_files/18928.got.cif
#   From: 2010.05.17/outbox.cif.g08.bks.cpg/sg72_10_cif.got.tgz:18928.got - 2010.06.03 17:03:01.
