data_PCOD9528583
_publ_section_title
;
Structure prediction by ZEFSAII (Michael W. Deem and Ramdas Pophale) SiO2 
 PCOD9528583
Probable space group: I B A M
;
_chemical_formula_sum "Si O2"
_cell_formula_units_Z 64
_cell_length_a 5.098901
_cell_length_b 29.033978
_cell_length_c 18.415344
_cell_angle_alpha 90.000000
_cell_angle_beta 90.000000
_cell_angle_gamma 90.000000
_cell_volume 2726.232929
_symmetry_space_group_name_H-M "I B A M"
_symmetry_group_IT_number 72
_symmetry_cell_setting 'orthorhombic'
loop_
_space_group_symop_operation_xyz
x,y,z
-x,-y,z
x,-y,1/2-z
-x,y,1/2-z
-x,-y,-z
x,y,-z
-x,y,1/2+z
x,-y,1/2+z
1/2+x,1/2+y,1/2+z
1/2-x,1/2-y,1/2+z
1/2+x,1/2-y,-z
1/2-x,1/2+y,-z
1/2-x,1/2-y,1/2-z
1/2+x,1/2+y,1/2-z
1/2-x,1/2+y,z
1/2+x,1/2-y,z
loop_
_atom_site_type_symbol
_atom_site_label
_atom_site_fract_x
_atom_site_fract_y
_atom_site_fract_z
Si Si1 0.003008 0.445128 0.920190
Si Si2 0.250571 0.111471 0.299141
Si Si3 0.534210 0.222560 0.412134
Si Si4 0.883696 0.137206 0.417123
O O1 0.735740 0.414689 0.915410
O O2 0.000000 0.500000 0.921577
O O3 0.155826 0.430698 0.848629
O O4 0.115413 0.430835 0.000000
O O5 0.500000 0.126021 0.250000
O O6 0.000000 0.099914 0.250000
O O7 0.117867 0.143351 0.360832
O O8 0.518956 0.224348 0.500000
O O9 0.257727 0.241794 0.386200
O O10 0.650298 0.172113 0.396455
O O11 0.961919 0.148220 0.500000
#
# Coordination Sequence:
#
# PCOD9528583 Si02
#       4
#    16  16  16  16
#     4  10  23  45  71 101 134 173 225 278 333 399
#     4  12  25  45  65  96 135 179 223 272 328 403
#     4   9  19  34  60  98 131 164 216 280 339 395
#     4  10  22  42  70  99 136 179 225 282 342 397
#
# _framework density 23.475618999999998
#
# number of rings (size 3 to 8) (size 9 to 14) (size 15 to 20)
#    0.000    1.750    2.500    0.750    3.500    1.500 
#    4.500    3.750    0.000    4.500    0.000    0.000 
#    0.000    0.000    0.000    0.000    0.000    0.000 
#
# Total GULP energy -178602.952054 kJ/mol
# GULP energy per Si atom -5581.342252 kJ/mol
# Density = 2.342219 g / cm^3
# Si number density = 23.475619 Si / 1000 Ang^3
#
#
#
# Elastic Constant Matrix: (Units=GPa)
#
#
# Indices 1 2 3 4 5 6 
#
# 1 130.1429 29.7583 72.3454 0.0000 0.0000 0.0000
# 2 29.7583 103.7680 19.8796 0.0000 0.0000 0.0000
# 3 72.3454 19.8796 158.7006 0.0000 0.0000 0.0000
# 4 0.0000 0.0000 0.0000 -10.0875 0.0000 0.0000
# 5 0.0000 0.0000 0.0000 0.0000 -40.4596 0.0000
# 6 0.0000 0.0000 0.0000 0.0000 0.0000 19.8481
#
#
#
# Elastic Compliance Matrix: (Units=1/GPa)
#
#
# Indices 1 2 3 4 5 6 
#
# 1 0.010760 -0.002199 -0.004630 0.000000 0.000000 0.000000
# 2 -0.002199 0.010323 -0.000291 0.000000 0.000000 0.000000
# 3 -0.004630 -0.000291 0.008448 0.000000 0.000000 0.000000
# 4 0.000000 0.000000 0.000000 -0.099133 0.000000 0.000000
# 5 0.000000 0.000000 0.000000 0.000000 -0.024716 0.000000
# 6 0.000000 0.000000 0.000000 0.000000 0.000000 0.050383
#
#
# Mechanical properties :
#
#
# Convention : Reuss Voigt Hill
#
# Bulk Modulus (GPa) = 65.39008 70.73092 68.06050
# Shear Modulus (GPa) = -203.26527 11.90207 -95.68160
#
# Velocity S-wave (km/s) = -9.31524 2.25410 -6.39111
# Velocity P-wave (km/s) = 9.36927 6.08026 5.04052
#
# Compressibility (1/GPa) = 0.01529284
#
# Stress axis : x y z
#
# Youngs Moduli (GPa) = 92.93425 96.86949 118.36945
#
# Poissons Ratio (x) = 0.21300 0.54802
# Poissons Ratio (y) = 0.20435 0.03442
# Poissons Ratio (z) = 0.43026 0.02817
#
# Static dielectric constant tensor:
#      x y z
#    x 1.973610 0.000000 0.000000 
#    y 0.000000 1.904970 0.000000 
#    z 0.000000 0.000000 1.965450 
# 
# From -- ./inp_files/27027.got.cif
#   From: 2010.05.17/outbox.cif.g08.bks.cpg/sg72_14_cif.got.tgz:27027.got - 2010.06.03 17:03:01.
