data_PCOD9528194
_publ_section_title
;
Structure prediction by ZEFSAII (Michael W. Deem and Ramdas Pophale) SiO2 
 PCOD9528194
Probable space group: I B A M
;
_chemical_formula_sum "Si O2"
_cell_formula_units_Z 52
_cell_length_a 5.441771
_cell_length_b 33.400146
_cell_length_c 15.186396
_cell_angle_alpha 90.000000
_cell_angle_beta 90.000000
_cell_angle_gamma 90.000000
_cell_volume 2760.217770
_symmetry_space_group_name_H-M "I B A M"
_symmetry_group_IT_number 72
_symmetry_cell_setting 'orthorhombic'
loop_
_space_group_symop_operation_xyz
x,y,z
-x,-y,z
x,-y,1/2-z
-x,y,1/2-z
-x,-y,-z
x,y,-z
-x,y,1/2+z
x,-y,1/2+z
1/2+x,1/2+y,1/2+z
1/2-x,1/2-y,1/2+z
1/2+x,1/2-y,-z
1/2-x,1/2+y,-z
1/2-x,1/2-y,1/2-z
1/2+x,1/2+y,1/2-z
1/2-x,1/2+y,z
1/2+x,1/2-y,z
loop_
_atom_site_type_symbol
_atom_site_label
_atom_site_fract_x
_atom_site_fract_y
_atom_site_fract_z
Si Si1 0.003604 0.225148 0.854421
Si Si2 0.038283 0.157675 0.000000
Si Si3 0.892302 0.543094 0.153535
Si Si4 0.500000 0.500000 0.750000
Si Si5 0.460084 0.893942 0.000000
O O1 0.242530 0.253040 0.872978
O O2 0.033551 0.186374 0.914724
O O3 0.000000 0.215875 0.750000
O O4 0.285857 0.130944 0.000000
O O5 0.785034 0.132932 0.000000
O O6 0.619619 0.530961 0.180768
O O7 0.942264 0.577257 0.084708
O O8 0.000000 0.500000 0.124243
O O9 0.000000 0.552584 0.250000
#
# Coordination Sequence:
#
# PCOD9528194 Si02
#       5
#    16   8  16   4   8
#     4  10  21  41  69  89 115 160 208 248 291 357
#     4  12  26  39  58  96 131 159 194 248 319 366
#     4   9  21  40  63  87 115 163 221 257 298 356
#     4   8  18  38  68  82 108 162 222 266 290 344
#     4  12  27  38  60  92 133 167 192 254 320 373
#
# _framework density 18.839093999999999
#
# number of rings (size 3 to 8) (size 9 to 14) (size 15 to 20)
#    0.000    2.154    0.000    3.231    8.615    3.077 
#    0.000    0.000    0.000    0.000    0.000    0.000 
#    0.000    0.000    0.000    0.000    0.000    0.000 
#
# Total GULP energy -144809.009237 kJ/mol
# GULP energy per Si atom -5569.577278 kJ/mol
# Density = 1.879622 g / cm^3
# Si number density = 18.839094 Si / 1000 Ang^3
#
#
#
# Elastic Constant Matrix: (Units=GPa)
#
#
# Indices 1 2 3 4 5 6 
#
# 1 140.4364 85.8961 57.2631 0.0000 0.0000 0.0000
# 2 85.8961 152.5619 102.3409 0.0000 0.0000 0.0000
# 3 57.2631 102.3409 106.4659 0.0000 0.0000 0.0000
# 4 0.0000 0.0000 0.0000 -20.1332 0.0000 0.0000
# 5 0.0000 0.0000 0.0000 0.0000 34.7189 0.0000
# 6 0.0000 0.0000 0.0000 0.0000 0.0000 68.4656
#
#
#
# Elastic Compliance Matrix: (Units=1/GPa)
#
#
# Indices 1 2 3 4 5 6 
#
# 1 0.010861 -0.006184 0.000103 0.000000 0.000000 0.000000
# 2 -0.006184 0.021976 -0.017798 0.000000 0.000000 0.000000
# 3 0.000103 -0.017798 0.026446 0.000000 0.000000 0.000000
# 4 0.000000 0.000000 0.000000 -0.049669 0.000000 0.000000
# 5 0.000000 0.000000 0.000000 0.000000 0.028803 0.000000
# 6 0.000000 0.000000 0.000000 0.000000 0.000000 0.014606
#
#
# Mechanical properties :
#
#
# Convention : Reuss Voigt Hill
#
# Bulk Modulus (GPa) = 86.77602 98.94050 92.85826
# Shear Modulus (GPa) = 47.79054 26.87452 37.33253
#
# Velocity S-wave (km/s) = 5.04210 3.78104 4.45640
# Velocity P-wave (km/s) = 8.94756 8.46725 8.71072
#
# Compressibility (1/GPa) = 0.01152392
#
# Stress axis : x y z
#
# Youngs Moduli (GPa) = 92.07148 45.50456 37.81259
#
# Poissons Ratio (x) = 0.28140 -0.00388
# Poissons Ratio (y) = 0.56936 0.67300
# Poissons Ratio (z) = -0.00945 0.80991
#
# Static dielectric constant tensor:
#      x y z
#    x 1.723480 0.000000 0.000000 
#    y 0.000000 1.615300 0.000000 
#    z 0.000000 0.000000 1.624080 
# 
# From -- ./inp_files/17593.got.cif
#   From: 2010.05.17/outbox.cif.g08.bks.cpg/sg72_9_cif.got.tgz:17593.got - 2010.06.03 17:03:01.
