data_PCOD9528749
_publ_section_title
;
Structure prediction by ZEFSAII (Michael W. Deem and Ramdas Pophale) SiO2 
 PCOD9528749
Probable space group: I B A M
;
_chemical_formula_sum "Si O2"
_cell_formula_units_Z 68
_cell_length_a 20.989859
_cell_length_b 11.085009
_cell_length_c 14.460748
_cell_angle_alpha 90.000000
_cell_angle_beta 90.000000
_cell_angle_gamma 90.000000
_cell_volume 3364.622379
_symmetry_space_group_name_H-M "I B A M"
_symmetry_group_IT_number 72
_symmetry_cell_setting 'orthorhombic'
loop_
_space_group_symop_operation_xyz
x,y,z
-x,-y,z
x,-y,1/2-z
-x,y,1/2-z
-x,-y,-z
x,y,-z
-x,y,1/2+z
x,-y,1/2+z
1/2+x,1/2+y,1/2+z
1/2-x,1/2-y,1/2+z
1/2+x,1/2-y,-z
1/2-x,1/2+y,-z
1/2-x,1/2-y,1/2-z
1/2+x,1/2+y,1/2-z
1/2-x,1/2+y,z
1/2+x,1/2-y,z
loop_
_atom_site_type_symbol
_atom_site_label
_atom_site_fract_x
_atom_site_fract_y
_atom_site_fract_z
Si Si1 0.205621 0.492851 0.855427
Si Si2 0.437606 0.936482 0.109142
Si Si3 0.270494 0.727928 0.856378
Si Si4 0.000000 0.000000 0.750000
Si Si5 0.583300 0.341468 0.108828
O O1 0.230026 0.500000 0.750000
O O2 0.129584 0.480302 0.852261
O O3 0.226432 0.621367 0.896150
O O4 0.229664 0.364830 0.896216
O O5 0.444116 0.793422 0.118331
O O6 0.500000 0.000000 0.146754
O O7 0.433217 0.963635 0.000000
O O8 0.250000 0.750000 0.750000
O O9 0.342062 0.676045 0.866479
O O10 0.954231 0.924317 0.818959
O O11 0.578020 0.378391 0.000000
#
# Coordination Sequence:
#
# PCOD9528749 Si02
#       5
#    16  16  16   4  16
#     4   9  18  32  54  83 115 152 196 250 307 372
#     4   9  19  37  58  83 119 156 202 260 319 381
#     4   9  19  35  59  86 122 159 207 263 323 387
#     4  12  26  40  70  86 128 184 228 266 332 410
#     4  10  23  42  62  91 132 171 215 280 333 389
#
# _framework density 20.210291999999999
#
# number of rings (size 3 to 8) (size 9 to 14) (size 15 to 20)
#    0.000    2.588    0.000    0.353    4.941    7.059 
#    0.000    0.000    0.000    0.000    0.000    0.000 
#    0.000    0.000    0.000    0.000    0.000    0.000 
#
# Total GULP energy -189400.936517 kJ/mol
# GULP energy per Si atom -5570.615780 kJ/mol
# Density = 2.016429 g / cm^3
# Si number density = 20.210292 Si / 1000 Ang^3
#
#
#
# Elastic Constant Matrix: (Units=GPa)
#
#
# Indices 1 2 3 4 5 6 
#
# 1 55.7053 80.7957 44.3565 0.0000 0.0000 0.0000
# 2 80.7957 155.1437 55.7516 0.0000 0.0000 0.0000
# 3 44.3565 55.7516 143.5584 0.0000 0.0000 0.0000
# 4 0.0000 0.0000 0.0000 5.0325 0.0000 0.0000
# 5 0.0000 0.0000 0.0000 0.0000 34.4441 0.0000
# 6 0.0000 0.0000 0.0000 0.0000 0.0000 39.2847
#
#
#
# Elastic Compliance Matrix: (Units=1/GPa)
#
#
# Indices 1 2 3 4 5 6 
#
# 1 0.085266 -0.040604 -0.010577 0.000000 0.000000 0.000000
# 2 -0.040604 0.026827 0.002127 0.000000 0.000000 0.000000
# 3 -0.010577 0.002127 0.009408 0.000000 0.000000 0.000000
# 4 0.000000 0.000000 0.000000 0.198708 0.000000 0.000000
# 5 0.000000 0.000000 0.000000 0.000000 0.029033 0.000000
# 6 0.000000 0.000000 0.000000 0.000000 0.000000 0.025455
#
#
# Mechanical properties :
#
#
# Convention : Reuss Voigt Hill
#
# Bulk Modulus (GPa) = 42.74586 79.57944 61.16265
# Shear Modulus (GPa) = 10.40362 27.31917 18.86140
#
# Velocity S-wave (km/s) = 2.27131 3.68060 3.05824
# Velocity P-wave (km/s) = 5.29858 7.58443 6.54211
#
# Compressibility (1/GPa) = 0.02339408
#
# Stress axis : x y z
#
# Youngs Moduli (GPa) = 11.72795 37.27589 106.29752
#
# Poissons Ratio (x) = 1.51356 1.12427
# Poissons Ratio (y) = 0.47620 -0.22614
# Poissons Ratio (z) = 0.12404 -0.07930
#
# Static dielectric constant tensor:
#      x y z
#    x 1.686700 0.000000 0.000000 
#    y 0.000000 1.749650 0.000000 
#    z 0.000000 0.000000 1.829050 
# 
# From -- ./inp_files/19918.got.cif
#   From: 2010.05.17/outbox.cif.g08.bks.cpg/sg72_10_cif.got.tgz:19918.got - 2010.06.03 17:03:01.
