data_PCOD9528542
_publ_section_title
;
Structure prediction by ZEFSAII (Michael W. Deem and Ramdas Pophale) SiO2 
 PCOD9528542
Probable space group: I B A M
;
_chemical_formula_sum "Si O2"
_cell_formula_units_Z 96
_cell_length_a 11.277420
_cell_length_b 16.007263
_cell_length_c 24.724660
_cell_angle_alpha 90.000000
_cell_angle_beta 90.000000
_cell_angle_gamma 90.000000
_cell_volume 4463.311148
_symmetry_space_group_name_H-M "I B A M"
_symmetry_group_IT_number 72
_symmetry_cell_setting 'orthorhombic'
loop_
_space_group_symop_operation_xyz
x,y,z
-x,-y,z
x,-y,1/2-z
-x,y,1/2-z
-x,-y,-z
x,y,-z
-x,y,1/2+z
x,-y,1/2+z
1/2+x,1/2+y,1/2+z
1/2-x,1/2-y,1/2+z
1/2+x,1/2-y,-z
1/2-x,1/2+y,-z
1/2-x,1/2-y,1/2-z
1/2+x,1/2+y,1/2-z
1/2-x,1/2+y,z
1/2+x,1/2-y,z
loop_
_atom_site_type_symbol
_atom_site_label
_atom_site_fract_x
_atom_site_fract_y
_atom_site_fract_z
Si Si1 0.670063 0.443160 0.442132
Si Si2 0.980177 0.599959 0.436581
Si Si3 0.278029 0.820964 0.370492
Si Si4 0.077744 0.868809 0.441375
Si Si5 0.638374 0.185412 0.255127
Si Si6 0.812604 0.640246 0.139428
O O1 0.734387 0.428660 0.500000
O O2 0.563460 0.376765 0.438904
O O3 0.618662 0.535160 0.444655
O O4 0.746564 0.435837 0.388817
O O5 0.993993 0.616078 0.500000
O O6 0.853677 0.635392 0.417408
O O7 0.000000 0.500000 0.428015
O O8 0.072901 0.649238 0.398837
O O9 0.141836 0.837021 0.387703
O O10 0.333694 0.852691 0.313979
O O11 0.273730 0.720440 0.366293
O O12 0.109682 0.828500 0.500000
O O13 0.500000 0.216632 0.250000
O O14 0.750000 0.250000 0.250000
O O15 0.653158 0.129217 0.201615
#
# Coordination Sequence:
#
# PCOD9528542 Si02
#       6
#    16  16  16  16  16  16
#     4   9  19  37  60  86 121 163 202 250 318 385
#     4  11  24  41  61  89 130 169 201 250 323 390
#     4  11  23  38  62  89 120 158 211 261 313 368
#     4   9  19  37  60  86 121 163 202 250 318 385
#     4  10  22  42  64  87 124 168 213 262 329 379
#     4  11  23  38  62  89 120 158 211 261 313 368
#
# _framework density 21.508693999999998
#
# number of rings (size 3 to 8) (size 9 to 14) (size 15 to 20)
#    0.000    1.833    1.667    3.000    2.333    6.667 
#    0.000    4.167    0.000    2.000    0.000    0.000 
#    0.000    0.000    0.000    0.000    0.000    0.000 
#
# Total GULP energy -267285.531785 kJ/mol
# GULP energy per Si atom -5568.448579 kJ/mol
# Density = 2.145974 g / cm^3
# Si number density = 21.508694 Si / 1000 Ang^3
#
#
#
# Elastic Constant Matrix: (Units=GPa)
#
#
# Indices 1 2 3 4 5 6 
#
# 1 73.0519 2.8812 45.3397 0.0000 0.0000 0.0000
# 2 2.8812 34.8981 25.1970 0.0000 0.0000 0.0000
# 3 45.3397 25.1970 161.4563 0.0000 0.0000 0.0000
# 4 0.0000 0.0000 0.0000 10.3599 0.0000 0.0000
# 5 0.0000 0.0000 0.0000 0.0000 34.5305 0.0000
# 6 0.0000 0.0000 0.0000 0.0000 0.0000 38.9169
#
#
#
# Elastic Compliance Matrix: (Units=1/GPa)
#
#
# Indices 1 2 3 4 5 6 
#
# 1 0.016736 0.002267 -0.005054 0.000000 0.000000 0.000000
# 2 0.002267 0.032601 -0.005724 0.000000 0.000000 0.000000
# 3 -0.005054 -0.005724 0.008506 0.000000 0.000000 0.000000
# 4 0.000000 0.000000 0.000000 0.096526 0.000000 0.000000
# 5 0.000000 0.000000 0.000000 0.000000 0.028960 0.000000
# 6 0.000000 0.000000 0.000000 0.000000 0.000000 0.025696
#
#
# Mechanical properties :
#
#
# Convention : Reuss Voigt Hill
#
# Bulk Modulus (GPa) = 24.49712 46.24912 35.37312
# Shear Modulus (GPa) = 20.86349 29.82736 25.34543
#
# Velocity S-wave (km/s) = 3.11787 3.72796 3.43648
# Velocity P-wave (km/s) = 4.93716 6.33083 5.67693
#
# Compressibility (1/GPa) = 0.04082112
#
# Stress axis : x y z
#
# Youngs Moduli (GPa) = 59.75156 30.67416 117.56291
#
# Poissons Ratio (x) = -0.06954 0.59411
# Poissons Ratio (y) = -0.13546 0.67297
# Poissons Ratio (z) = 0.30196 0.17559
#
# Static dielectric constant tensor:
#      x y z
#    x 1.916690 0.000000 0.000000 
#    y 0.000000 1.793120 0.000000 
#    z 0.000000 0.000000 1.805900 
# 
# From -- ./inp_files/43352.got.cif
#   From: 2010.05.17/outbox.cif.g08.bks.cpg/sg72_22_cif.got.tgz:43352.got - 2010.06.03 17:03:01.
