data_PCOD9528977
_publ_section_title
;
Structure prediction by ZEFSAII (Michael W. Deem and Ramdas Pophale) SiO2 
 PCOD9528977
Probable space group: I B A M
;
_chemical_formula_sum "Si O2"
_cell_formula_units_Z 72
_cell_length_a 17.124221
_cell_length_b 13.841353
_cell_length_c 14.625371
_cell_angle_alpha 90.000000
_cell_angle_beta 90.000000
_cell_angle_gamma 90.000000
_cell_volume 3466.540356
_symmetry_space_group_name_H-M "I B A M"
_symmetry_group_IT_number 72
_symmetry_cell_setting 'orthorhombic'
loop_
_space_group_symop_operation_xyz
x,y,z
-x,-y,z
x,-y,1/2-z
-x,y,1/2-z
-x,-y,-z
x,y,-z
-x,y,1/2+z
x,-y,1/2+z
1/2+x,1/2+y,1/2+z
1/2-x,1/2-y,1/2+z
1/2+x,1/2-y,-z
1/2-x,1/2+y,-z
1/2-x,1/2-y,1/2-z
1/2+x,1/2+y,1/2-z
1/2-x,1/2+y,z
1/2+x,1/2-y,z
loop_
_atom_site_type_symbol
_atom_site_label
_atom_site_fract_x
_atom_site_fract_y
_atom_site_fract_z
Si Si1 0.371959 0.967395 0.152147
Si Si2 0.874231 0.151923 0.500000
Si Si3 0.511298 0.644125 0.854063
Si Si4 0.623685 0.438461 0.500000
Si Si5 0.217744 0.649832 0.500000
Si Si6 0.476426 0.143009 0.893629
O O1 0.449083 0.899469 0.160563
O O2 0.340029 0.000000 0.250000
O O3 0.407680 0.064970 0.109248
O O4 0.314044 0.909109 0.087720
O O5 0.816479 0.242223 0.500000
O O6 0.931137 0.155007 0.411527
O O7 0.838482 0.044496 0.500000
O O8 0.500000 0.614542 0.750000
O O9 0.546331 0.752670 0.856867
O O10 0.568208 0.576112 0.912362
O O11 0.689416 0.357052 0.500000
O O12 0.501627 0.152234 0.000000
#
# Coordination Sequence:
#
# PCOD9528977 Si02
#       6
#    16   8  16   8   8  16
#     4  11  20  34  60  96 134 173 213 265 323 385
#     4  11  24  46  68  89 129 178 213 267 325 380
#     4  11  21  42  72  97 125 168 228 271 306 375
#     4  11  28  45  67  97 127 171 218 265 328 389
#     4  12  24  46  62  94 141 172 205 266 341 389
#     4  11  17  33  64  98 132 170 221 269 319 370
#
# _framework density 20.769987
#
# number of rings (size 3 to 8) (size 9 to 14) (size 15 to 20)
#    0.000    0.889    6.667    4.667    0.000    3.556 
#    4.000    1.111    0.000    0.000    0.000    0.000 
#    0.000    0.000    0.000    0.000    0.000    0.000 
#
# Total GULP energy -201254.799986 kJ/mol
# GULP energy per Si atom -5590.411111 kJ/mol
# Density = 2.072271 g / cm^3
# Si number density = 20.769987 Si / 1000 Ang^3
#
#
#
# Elastic Constant Matrix: (Units=GPa)
#
#
# Indices 1 2 3 4 5 6 
#
# 1 72.6597 26.0175 34.5373 0.0000 0.0000 0.0000
# 2 26.0175 144.7436 32.5435 0.0000 0.0000 0.0000
# 3 34.5373 32.5435 161.7851 0.0000 0.0000 0.0000
# 4 0.0000 0.0000 0.0000 8.9571 0.0000 0.0000
# 5 0.0000 0.0000 0.0000 0.0000 5.6289 0.0000
# 6 0.0000 0.0000 0.0000 0.0000 0.0000 22.6206
#
#
#
# Elastic Compliance Matrix: (Units=1/GPa)
#
#
# Indices 1 2 3 4 5 6 
#
# 1 0.015960 -0.002202 -0.002964 0.000000 0.000000 0.000000
# 2 -0.002202 0.007540 -0.001047 0.000000 0.000000 0.000000
# 3 -0.002964 -0.001047 0.007024 0.000000 0.000000 0.000000
# 4 0.000000 0.000000 0.000000 0.111644 0.000000 0.000000
# 5 0.000000 0.000000 0.000000 0.000000 0.177655 0.000000
# 6 0.000000 0.000000 0.000000 0.000000 0.000000 0.044208
#
#
# Mechanical properties :
#
#
# Convention : Reuss Voigt Hill
#
# Bulk Modulus (GPa) = 55.25323 62.82054 59.03689
# Shear Modulus (GPa) = 13.07224 26.51398 19.79311
#
# Velocity S-wave (km/s) = 2.51147 3.57676 3.09036
# Velocity P-wave (km/s) = 5.92201 6.88252 6.42025
#
# Compressibility (1/GPa) = 0.01809849
#
# Stress axis : x y z
#
# Youngs Moduli (GPa) = 62.65525 132.62694 142.36250
#
# Poissons Ratio (x) = 0.29210 0.42198
# Poissons Ratio (y) = 0.13799 0.14898
# Poissons Ratio (z) = 0.18572 0.13880
#
# Static dielectric constant tensor:
#      x y z
#    x 1.718900 0.000000 0.000000 
#    y 0.000000 1.784430 0.000000 
#    z 0.000000 0.000000 1.767850 
# 
# From -- ./inp_files/23021.got.cif
#   From: 2010.05.17/outbox.cif.g08.bks.cpg/sg72_12_cif.got.tgz:23021.got - 2010.06.03 17:03:01.
