data_PCOD9528969
_publ_section_title
;
Structure prediction by ZEFSAII (Michael W. Deem and Ramdas Pophale) SiO2 
 PCOD9528969
Probable space group: I B A M
;
_chemical_formula_sum "Si O2"
_cell_formula_units_Z 72
_cell_length_a 12.976531
_cell_length_b 10.806958
_cell_length_c 25.236123
_cell_angle_alpha 90.000000
_cell_angle_beta 90.000000
_cell_angle_gamma 90.000000
_cell_volume 3539.033778
_symmetry_space_group_name_H-M "I B A M"
_symmetry_group_IT_number 72
_symmetry_cell_setting 'orthorhombic'
loop_
_space_group_symop_operation_xyz
x,y,z
-x,-y,z
x,-y,1/2-z
-x,y,1/2-z
-x,-y,-z
x,y,-z
-x,y,1/2+z
x,-y,1/2+z
1/2+x,1/2+y,1/2+z
1/2-x,1/2-y,1/2+z
1/2+x,1/2-y,-z
1/2-x,1/2+y,-z
1/2-x,1/2-y,1/2-z
1/2+x,1/2+y,1/2-z
1/2-x,1/2+y,z
1/2+x,1/2-y,z
loop_
_atom_site_type_symbol
_atom_site_label
_atom_site_fract_x
_atom_site_fract_y
_atom_site_fract_z
Si Si1 0.296215 0.000000 0.750000
Si Si2 0.234198 0.894505 0.348481
Si Si3 0.085918 0.722173 0.284680
Si Si4 0.466807 0.864258 0.612021
Si Si5 0.433110 0.624952 0.059861
O O1 0.240731 0.009584 0.692949
O O2 0.368609 0.881456 0.746516
O O3 0.179696 0.798315 0.308576
O O4 0.346232 0.865767 0.372633
O O5 0.156616 0.899026 0.397637
O O6 0.000000 0.794054 0.250000
O O7 0.031723 0.656904 0.334294
O O8 0.500695 0.746467 0.576506
O O9 0.500000 0.000000 0.590567
O O10 0.500000 0.500000 0.060673
O O11 0.393814 0.643396 0.000000
#
# Coordination Sequence:
#
# PCOD9528969 Si02
#       5
#     8  16  16  16  16
#     4  12  21  36  61  94 136 178 205 270 331 412
#     4  11  25  37  68  96 132 174 229 272 344 409
#     4  11  21  37  58  93 139 175 213 267 337 406
#     4  11  22  41  68  98 129 172 223 282 336 407
#     4  10  26  48  66  91 133 176 224 288 344 395
#
# _framework density 20.344535
#
# number of rings (size 3 to 8) (size 9 to 14) (size 15 to 20)
#    0.000    1.111    4.444    1.000    3.111    3.111 
#    0.000    2.222    0.000    0.000    0.000    0.000 
#    0.000    0.000    0.000    0.000    0.000    0.000 
#
# Total GULP energy -200672.074414 kJ/mol
# GULP energy per Si atom -5574.224289 kJ/mol
# Density = 2.029823 g / cm^3
# Si number density = 20.344535 Si / 1000 Ang^3
#
#
#
# Elastic Constant Matrix: (Units=GPa)
#
#
# Indices 1 2 3 4 5 6 
#
# 1 116.3437 35.6511 37.1251 0.0000 0.0000 0.0000
# 2 35.6511 87.4255 28.7445 0.0000 0.0000 0.0000
# 3 37.1251 28.7445 126.9087 0.0000 0.0000 0.0000
# 4 0.0000 0.0000 0.0000 25.8286 0.0000 0.0000
# 5 0.0000 0.0000 0.0000 0.0000 -19.9652 0.0000
# 6 0.0000 0.0000 0.0000 0.0000 0.0000 20.4122
#
#
#
# Elastic Compliance Matrix: (Units=1/GPa)
#
#
# Indices 1 2 3 4 5 6 
#
# 1 0.010383 -0.003496 -0.002246 0.000000 0.000000 0.000000
# 2 -0.003496 0.013536 -0.002043 0.000000 0.000000 0.000000
# 3 -0.002246 -0.002043 0.008999 0.000000 0.000000 0.000000
# 4 0.000000 0.000000 0.000000 0.038717 0.000000 0.000000
# 5 0.000000 0.000000 0.000000 0.000000 -0.050087 0.000000
# 6 0.000000 0.000000 0.000000 0.000000 0.000000 0.048990
#
#
# Mechanical properties :
#
#
# Convention : Reuss Voigt Hill
#
# Bulk Modulus (GPa) = 57.64033 59.30214 58.47123
# Shear Modulus (GPa) = 54.41303 20.53227 37.47265
#
# Velocity S-wave (km/s) = 5.17724 3.18028 4.29640
# Velocity P-wave (km/s) = 8.00825 6.53435 7.30855
#
# Compressibility (1/GPa) = 0.01734896
#
# Stress axis : x y z
#
# Youngs Moduli (GPa) = 96.31140 73.87921 111.11897
#
# Poissons Ratio (x) = 0.25826 0.24953
# Poissons Ratio (y) = 0.33668 0.22703
# Poissons Ratio (z) = 0.21628 0.15095
#
# Static dielectric constant tensor:
#      x y z
#    x 1.765140 0.000000 0.000000 
#    y 0.000000 1.783580 0.000000 
#    z 0.000000 0.000000 1.786350 
# 
# From -- ./inp_files/47907.got.cif
#   From: 2010.05.17/outbox.cif.g08.bks.cpg/sg72_24_cif.got.tgz:47907.got - 2010.06.03 17:03:01.
