data_PCOD9528635
_publ_section_title
;
Structure prediction by ZEFSAII (Michael W. Deem and Ramdas Pophale) SiO2 
 PCOD9528635
Probable space group: I B A M
;
_chemical_formula_sum "Si O2"
_cell_formula_units_Z 56
_cell_length_a 15.975158
_cell_length_b 8.739944
_cell_length_c 17.464010
_cell_angle_alpha 90.000000
_cell_angle_beta 90.000000
_cell_angle_gamma 90.000000
_cell_volume 2438.359765
_symmetry_space_group_name_H-M "I B A M"
_symmetry_group_IT_number 72
_symmetry_cell_setting 'orthorhombic'
loop_
_space_group_symop_operation_xyz
x,y,z
-x,-y,z
x,-y,1/2-z
-x,y,1/2-z
-x,-y,-z
x,y,-z
-x,y,1/2+z
x,-y,1/2+z
1/2+x,1/2+y,1/2+z
1/2-x,1/2-y,1/2+z
1/2+x,1/2-y,-z
1/2-x,1/2+y,-z
1/2-x,1/2-y,1/2-z
1/2+x,1/2+y,1/2-z
1/2-x,1/2+y,z
1/2+x,1/2-y,z
loop_
_atom_site_type_symbol
_atom_site_label
_atom_site_fract_x
_atom_site_fract_y
_atom_site_fract_z
Si Si1 0.174843 0.052215 0.416212
Si Si2 0.649675 0.800327 0.383851
Si Si3 0.000000 0.500000 0.375112
Si Si4 0.412179 0.739377 0.282269
O O1 0.146120 0.110254 0.500000
O O2 0.271897 0.096407 0.406484
O O3 0.128202 0.129530 0.344786
O O4 0.162164 0.870821 0.413822
O O5 0.643181 0.778520 0.291618
O O6 0.563838 0.879638 0.412074
O O7 0.061540 0.395196 0.324623
O O8 0.500000 0.675924 0.250000
#
# Coordination Sequence:
#
# PCOD9528635 Si02
#       4
#    16  16   8  16
#     4  12  26  44  66 100 140 180 224 281 345 405
#     4  11  23  43  70  99 133 178 228 279 337 408
#     4  10  23  44  71 100 129 170 229 286 333 392
#     4  10  22  44  71 100 132 178 232 282 335 405
#
# _framework density 22.966258
#
# number of rings (size 3 to 8) (size 9 to 14) (size 15 to 20)
#    0.000    1.143    0.000    8.143    0.000   10.286 
#    0.000   22.143    0.000    0.000    0.000    0.000 
#    0.000    0.000    0.000    0.000    0.000    0.000 
#
# Total GULP energy -156645.295285 kJ/mol
# GULP energy per Si atom -5594.474832 kJ/mol
# Density = 2.291399 g / cm^3
# Si number density = 22.966258 Si / 1000 Ang^3
#
#
#
# Elastic Constant Matrix: (Units=GPa)
#
#
# Indices 1 2 3 4 5 6 
#
# 1 92.5874 54.8211 59.3339 0.0000 0.0000 0.0000
# 2 54.8211 147.9200 49.0275 0.0000 0.0000 0.0000
# 3 59.3339 49.0275 160.6738 0.0000 0.0000 0.0000
# 4 0.0000 0.0000 0.0000 -39.1718 0.0000 0.0000
# 5 0.0000 0.0000 0.0000 0.0000 -66.3440 0.0000
# 6 0.0000 0.0000 0.0000 0.0000 0.0000 40.8929
#
#
#
# Elastic Compliance Matrix: (Units=1/GPa)
#
#
# Indices 1 2 3 4 5 6 
#
# 1 0.016519 -0.004562 -0.004708 0.000000 0.000000 0.000000
# 2 -0.004562 0.008781 -0.000995 0.000000 0.000000 0.000000
# 3 -0.004708 -0.000995 0.008266 0.000000 0.000000 0.000000
# 4 0.000000 0.000000 0.000000 -0.025529 0.000000 0.000000
# 5 0.000000 0.000000 0.000000 0.000000 -0.015073 0.000000
# 6 0.000000 0.000000 0.000000 0.000000 0.000000 0.024454
#
#
# Mechanical properties :
#
#
# Convention : Reuss Voigt Hill
#
# Bulk Modulus (GPa) = 76.70867 80.83847 78.77357
# Shear Modulus (GPa) = 118.22431 2.94200 60.58316
#
# Velocity S-wave (km/s) = 7.18256 1.13305 5.14164
# Velocity P-wave (km/s) = 10.11230 6.08169 8.34403
#
# Compressibility (1/GPa) = 0.01303634
#
# Stress axis : x y z
#
# Youngs Moduli (GPa) = 60.53748 113.88599 120.97770
#
# Poissons Ratio (x) = 0.51950 0.56958
# Poissons Ratio (y) = 0.27614 0.12035
# Poissons Ratio (z) = 0.28502 0.11330
#
# Static dielectric constant tensor:
#      x y z
#    x 1.837480 0.000000 0.000000 
#    y 0.000000 1.846570 0.000000 
#    z 0.000000 0.000000 1.871350 
# 
# From -- ./inp_files/31085.got.cif
#   From: 2010.05.17/outbox.cif.g08.bks.cpg/sg72_16_cif.got.tgz:31085.got - 2010.06.03 17:03:01.
