data_PCOD9528714
_publ_section_title
;
Structure prediction by ZEFSAII (Michael W. Deem and Ramdas Pophale) SiO2 
 PCOD9528714
Probable space group: I B A M
;
_chemical_formula_sum "Si O2"
_cell_formula_units_Z 112
_cell_length_a 31.805689
_cell_length_b 11.626568
_cell_length_c 14.647379
_cell_angle_alpha 90.000000
_cell_angle_beta 90.000000
_cell_angle_gamma 90.000000
_cell_volume 5416.469015
_symmetry_space_group_name_H-M "I B A M"
_symmetry_group_IT_number 72
_symmetry_cell_setting 'orthorhombic'
loop_
_space_group_symop_operation_xyz
x,y,z
-x,-y,z
x,-y,1/2-z
-x,y,1/2-z
-x,-y,-z
x,y,-z
-x,y,1/2+z
x,-y,1/2+z
1/2+x,1/2+y,1/2+z
1/2-x,1/2-y,1/2+z
1/2+x,1/2-y,-z
1/2-x,1/2+y,-z
1/2-x,1/2-y,1/2-z
1/2+x,1/2+y,1/2-z
1/2-x,1/2+y,z
1/2+x,1/2-y,z
loop_
_atom_site_type_symbol
_atom_site_label
_atom_site_fract_x
_atom_site_fract_y
_atom_site_fract_z
Si Si1 0.223743 0.177143 0.891676
Si Si2 0.438590 0.253327 0.602470
Si Si3 0.194264 0.285507 0.286666
Si Si4 0.033721 0.251673 0.394566
Si Si5 0.673226 0.439159 0.604091
Si Si6 0.575413 0.485494 0.358327
Si Si7 0.897804 0.633199 0.733988
O O1 0.205632 0.272436 0.820752
O O2 0.269510 0.155168 0.846833
O O3 0.195210 0.062762 0.884363
O O4 0.225740 0.207771 0.000000
O O5 0.432791 0.208860 0.500000
O O6 0.485897 0.226055 0.635322
O O7 0.434713 0.390847 0.600817
O O8 0.405371 0.202555 0.672421
O O9 0.190071 0.155916 0.326356
O O10 0.149488 0.344900 0.298293
O O11 0.036809 0.285597 0.500000
O O12 0.068460 0.316129 0.336064
O O13 0.044476 0.116238 0.387377
O O14 0.681315 0.400426 0.500000
O O15 0.623185 0.451896 0.617333
O O16 0.572492 0.500000 0.250000
O O17 0.905479 0.500000 0.750000
#
# Coordination Sequence:
#
# PCOD9528714 Si02
#       7
#    16  16  16  16  16  16  16
#     4  10  23  40  64  97 129 165 215 275 336 403
#     4  11  24  42  65  97 133 171 219 279 338 397
#     4  11  23  42  65  91 129 172 221 268 335 399
#     4  11  24  42  66  96 133 175 221 272 336 404
#     4  11  21  37  64  95 132 173 214 268 336 404
#     4  12  21  36  66 103 136 171 213 270 343 407
#     4  12  27  45  66  92 128 179 231 279 325 395
#
# _framework density 20.677679000000001
#
# number of rings (size 3 to 8) (size 9 to 14) (size 15 to 20)
#    0.000    0.857    2.857    4.714    0.000    8.000 
#    0.000    1.429    0.000    0.000    0.000    0.000 
#    0.000    0.000    0.000    0.000    0.000    0.000 
#
# Total GULP energy -313243.799346 kJ/mol
# GULP energy per Si atom -5593.639274 kJ/mol
# Density = 2.063062 g / cm^3
# Si number density = 20.677679 Si / 1000 Ang^3
#
#
#
# Elastic Constant Matrix: (Units=GPa)
#
#
# Indices 1 2 3 4 5 6 
#
# 1 58.2278 -26.4851 -5.5311 0.0000 0.0000 0.0000
# 2 -26.4851 36.6777 -4.0383 0.0000 0.0000 0.0000
# 3 -5.5311 -4.0383 108.2578 0.0000 0.0000 0.0000
# 4 0.0000 0.0000 0.0000 119.8763 0.0000 0.0000
# 5 0.0000 0.0000 0.0000 0.0000 -2.7037 0.0000
# 6 0.0000 0.0000 0.0000 0.0000 0.0000 -7.7272
#
#
#
# Elastic Compliance Matrix: (Units=1/GPa)
#
#
# Indices 1 2 3 4 5 6 
#
# 1 0.026014 0.019009 0.002038 0.000000 0.000000 0.000000
# 2 0.019009 0.041268 0.002511 0.000000 0.000000 0.000000
# 3 0.002038 0.002511 0.009435 0.000000 0.000000 0.000000
# 4 0.000000 0.000000 0.000000 0.008342 0.000000 0.000000
# 5 0.000000 0.000000 0.000000 0.000000 -0.369862 0.000000
# 6 0.000000 0.000000 0.000000 0.000000 0.000000 -0.129413
#
#
# Mechanical properties :
#
#
# Convention : Reuss Voigt Hill
#
# Bulk Modulus (GPa) = 8.07544 14.56159 11.31852
# Shear Modulus (GPa) = -11.90321 37.83692 12.96686
#
# Velocity S-wave (km/s) = -2.40188 4.28231 2.50690
# Velocity P-wave (km/s) = 1.94376 5.61323 3.72358
#
# Compressibility (1/GPa) = 0.12383226
#
# Stress axis : x y z
#
# Youngs Moduli (GPa) = 38.44101 24.23213 105.98840
#
# Poissons Ratio (x) = -0.46063 -0.21603
# Poissons Ratio (y) = -0.73073 -0.26609
# Poissons Ratio (z) = -0.07835 -0.06084
#
# Static dielectric constant tensor:
#      x y z
#    x 1.725010 0.000000 0.000000 
#    y 0.000000 1.710380 0.000000 
#    z 0.000000 0.000000 1.750290 
# 
# From -- ./inp_files/26348.got.cif
#   From: 2010.05.17/outbox.cif.g08.bks.cpg/sg72_14_cif.got.tgz:26348.got - 2010.06.03 17:03:01.
