data_PCOD9528140
_publ_section_title
;
Structure prediction by ZEFSAII (Michael W. Deem and Ramdas Pophale) SiO2 
 PCOD9528140
Probable space group: I B A M
;
_chemical_formula_sum "Si O2"
_cell_formula_units_Z 112
_cell_length_a 23.132348
_cell_length_b 16.852653
_cell_length_c 13.418910
_cell_angle_alpha 90.000000
_cell_angle_beta 90.000000
_cell_angle_gamma 90.000000
_cell_volume 5231.247116
_symmetry_space_group_name_H-M "I B A M"
_symmetry_group_IT_number 72
_symmetry_cell_setting 'orthorhombic'
loop_
_space_group_symop_operation_xyz
x,y,z
-x,-y,z
x,-y,1/2-z
-x,y,1/2-z
-x,-y,-z
x,y,-z
-x,y,1/2+z
x,-y,1/2+z
1/2+x,1/2+y,1/2+z
1/2-x,1/2-y,1/2+z
1/2+x,1/2-y,-z
1/2-x,1/2+y,-z
1/2-x,1/2-y,1/2-z
1/2+x,1/2+y,1/2-z
1/2-x,1/2+y,z
1/2+x,1/2-y,z
loop_
_atom_site_type_symbol
_atom_site_label
_atom_site_fract_x
_atom_site_fract_y
_atom_site_fract_z
Si Si1 0.870224 0.880582 0.616632
Si Si2 0.737108 0.657233 0.766518
Si Si3 0.922651 0.202953 0.618599
Si Si4 0.846923 0.937034 0.120812
Si Si5 0.431621 0.910961 0.242711
Si Si6 0.345114 0.155334 0.613859
Si Si7 0.549133 0.764033 0.121000
O O1 0.881660 0.884656 0.500000
O O2 0.808646 0.844146 0.643767
O O3 0.916953 0.815996 0.653007
O O4 0.862123 0.972290 0.647192
O O5 0.750000 0.750000 0.750000
O O6 0.707092 0.603859 0.679792
O O7 0.797681 0.624525 0.809120
O O8 0.929948 0.199208 0.500000
O O9 0.903539 0.115040 0.648481
O O10 0.864443 0.254285 0.635342
O O11 0.982095 0.245529 0.649652
O O12 0.837324 0.932456 0.000000
O O13 0.500000 0.917397 0.250000
O O14 0.406139 0.885662 0.136397
O O15 0.421793 0.840107 0.323762
O O16 0.407751 0.000000 0.250000
O O17 0.326669 0.147259 0.500000
O O18 0.552581 0.774494 0.000000
#
# Coordination Sequence:
#
# PCOD9528140 Si02
#       7
#    16  16  16  16  16  16  16
#     4  10  23  41  63  97 137 173 220 279 332 391
#     4  12  23  39  64  91 125 173 224 271 327 395
#     4   9  18  36  64  94 127 174 221 263 326 399
#     4  10  22  41  64  96 136 175 221 278 336 397
#     4  11  24  41  64  96 128 165 218 278 340 396
#     4  11  23  42  66  92 125 172 223 270 326 398
#     4  10  21  40  66  97 136 179 222 272 332 404
#
# _framework density 21.409808999999999
#
# number of rings (size 3 to 8) (size 9 to 14) (size 15 to 20)
#    0.000    1.571    2.857    1.714    0.000    2.857 
#    0.000    5.000    0.000    1.714    0.000    0.000 
#    0.000    0.000    0.000    0.000    0.000    0.000 
#
# Total GULP energy -311760.484596 kJ/mol
# GULP energy per Si atom -5567.151511 kJ/mol
# Density = 2.136108 g / cm^3
# Si number density = 21.409809 Si / 1000 Ang^3
#
#
#
# Elastic Constant Matrix: (Units=GPa)
#
#
# Indices 1 2 3 4 5 6 
#
# 1 89.6434 44.2645 32.6459 0.0000 0.0000 0.0000
# 2 44.2645 171.6908 52.4526 0.0000 0.0000 0.0000
# 3 32.6459 52.4526 96.1002 0.0000 0.0000 0.0000
# 4 0.0000 0.0000 0.0000 25.7276 0.0000 0.0000
# 5 0.0000 0.0000 0.0000 0.0000 38.5254 0.0000
# 6 0.0000 0.0000 0.0000 0.0000 0.0000 27.9793
#
#
#
# Elastic Compliance Matrix: (Units=1/GPa)
#
#
# Indices 1 2 3 4 5 6 
#
# 1 0.013575 -0.002509 -0.003242 0.000000 0.000000 0.000000
# 2 -0.002509 0.007454 -0.003216 0.000000 0.000000 0.000000
# 3 -0.003242 -0.003216 0.013262 0.000000 0.000000 0.000000
# 4 0.000000 0.000000 0.000000 0.038869 0.000000 0.000000
# 5 0.000000 0.000000 0.000000 0.000000 0.025957 0.000000
# 6 0.000000 0.000000 0.000000 0.000000 0.000000 0.035741
#
#
# Mechanical properties :
#
#
# Convention : Reuss Voigt Hill
#
# Bulk Modulus (GPa) = 61.13654 68.46227 64.79940
# Shear Modulus (GPa) = 31.59669 33.65121 32.62395
#
# Velocity S-wave (km/s) = 3.84579 3.96885 3.90780
# Velocity P-wave (km/s) = 6.95252 7.28346 7.11991
#
# Compressibility (1/GPa) = 0.01635683
#
# Stress axis : x y z
#
# Youngs Moduli (GPa) = 73.66465 134.15820 75.40132
#
# Poissons Ratio (x) = 0.33666 0.24444
# Poissons Ratio (y) = 0.18486 0.24249
# Poissons Ratio (z) = 0.23881 0.43144
#
# Static dielectric constant tensor:
#      x y z
#    x 1.785900 0.000000 0.000000 
#    y 0.000000 1.884580 0.000000 
#    z 0.000000 0.000000 1.830240 
# 
# From -- ./inp_files/25182.got.cif
#   From: 2010.05.17/outbox.cif.g08.bks.cpg/sg72_13_cif.got.tgz:25182.got - 2010.06.03 17:03:01.
