data_PCOD9528462
_publ_section_title
;
Structure prediction by ZEFSAII (Michael W. Deem and Ramdas Pophale) SiO2 
 PCOD9528462
Probable space group: I B A M
;
_chemical_formula_sum "Si O2"
_cell_formula_units_Z 112
_cell_length_a 14.385113
_cell_length_b 12.375147
_cell_length_c 29.287101
_cell_angle_alpha 90.000000
_cell_angle_beta 90.000000
_cell_angle_gamma 90.000000
_cell_volume 5213.627865
_symmetry_space_group_name_H-M "I B A M"
_symmetry_group_IT_number 72
_symmetry_cell_setting 'orthorhombic'
loop_
_space_group_symop_operation_xyz
x,y,z
-x,-y,z
x,-y,1/2-z
-x,y,1/2-z
-x,-y,-z
x,y,-z
-x,y,1/2+z
x,-y,1/2+z
1/2+x,1/2+y,1/2+z
1/2-x,1/2-y,1/2+z
1/2+x,1/2-y,-z
1/2-x,1/2+y,-z
1/2-x,1/2-y,1/2-z
1/2+x,1/2+y,1/2-z
1/2-x,1/2+y,z
1/2+x,1/2-y,z
loop_
_atom_site_type_symbol
_atom_site_label
_atom_site_fract_x
_atom_site_fract_y
_atom_site_fract_z
Si Si1 0.391238 0.466841 0.700840
Si Si2 0.376220 0.710841 0.053191
Si Si3 0.609525 0.485748 0.396321
Si Si4 0.480567 0.129116 0.102333
Si Si5 0.542829 0.119736 0.295558
Si Si6 0.752963 0.300283 0.199399
Si Si7 0.808351 0.762764 0.402417
O O1 0.500000 0.500000 0.702291
O O2 0.352292 0.500000 0.750000
O O3 0.350787 0.518844 0.655189
O O4 0.351279 0.347424 0.694314
O O5 0.364063 0.593216 0.076794
O O6 0.452617 0.791668 0.074362
O O7 0.278611 0.765103 0.064590
O O8 0.394605 0.695999 0.000000
O O9 0.500000 0.500000 0.391839
O O10 0.633200 0.369070 0.414887
O O11 0.488533 0.165350 0.155619
O O12 0.374293 0.158920 0.090355
O O13 0.500000 0.000000 0.097919
O O14 0.500000 0.174254 0.250000
O O15 0.655254 0.121827 0.296095
O O16 0.500000 0.000000 0.295692
O O17 0.750000 0.250000 0.250000
O O18 0.774845 0.241159 0.151053
#
# Coordination Sequence:
#
# PCOD9528462 Si02
#       7
#    16  16  16  16  16  16  16
#     4  10  22  40  67 102 143 188 234 286 353 430
#     4  12  28  47  75 105 137 188 240 302 370 429
#     4  11  23  47  73  99 145 184 237 300 352 428
#     4  10  24  48  72 101 145 187 233 296 359 431
#     4   9  21  38  64  97 136 185 232 279 339 415
#     4  11  23  40  65 102 140 190 235 282 358 426
#     4  11  25  46  70 105 143 184 235 297 359 428
#
# _framework density 21.482163
#
# number of rings (size 3 to 8) (size 9 to 14) (size 15 to 20)
#    0.000    1.429    2.857    0.857    6.000    2.857 
#    5.143    0.000    0.000    0.000    0.000    0.000 
#    0.000    0.000    0.000    0.000    0.000    0.000 
#
# Total GULP energy -311783.699220 kJ/mol
# GULP energy per Si atom -5567.566058 kJ/mol
# Density = 2.143327 g / cm^3
# Si number density = 21.482163 Si / 1000 Ang^3
#
#
#
# Elastic Constant Matrix: (Units=GPa)
#
#
# Indices 1 2 3 4 5 6 
#
# 1 89.7122 45.9113 35.3989 0.0000 0.0000 0.0000
# 2 45.9113 96.4604 33.7274 0.0000 0.0000 0.0000
# 3 35.3989 33.7274 102.6235 0.0000 0.0000 0.0000
# 4 0.0000 0.0000 0.0000 15.5464 0.0000 0.0000
# 5 0.0000 0.0000 0.0000 0.0000 6.2086 0.0000
# 6 0.0000 0.0000 0.0000 0.0000 0.0000 42.4379
#
#
#
# Elastic Compliance Matrix: (Units=1/GPa)
#
#
# Indices 1 2 3 4 5 6 
#
# 1 0.015689 -0.006299 -0.003342 0.000000 0.000000 0.000000
# 2 -0.006299 0.014242 -0.002508 0.000000 0.000000 0.000000
# 3 -0.003342 -0.002508 0.011721 0.000000 0.000000 0.000000
# 4 0.000000 0.000000 0.000000 0.064324 0.000000 0.000000
# 5 0.000000 0.000000 0.000000 0.000000 0.161067 0.000000
# 6 0.000000 0.000000 0.000000 0.000000 0.000000 0.023564
#
#
# Mechanical properties :
#
#
# Convention : Reuss Voigt Hill
#
# Bulk Modulus (GPa) = 57.61946 57.65237 57.63592
# Shear Modulus (GPa) = 15.59146 24.42247 20.00696
#
# Velocity S-wave (km/s) = 2.69697 3.37541 3.05508
# Velocity P-wave (km/s) = 6.04801 6.48743 6.27157
#
# Compressibility (1/GPa) = 0.01735525
#
# Stress axis : x y z
#
# Youngs Moduli (GPa) = 63.73969 70.21556 85.31545
#
# Poissons Ratio (x) = 0.44228 0.28509
# Poissons Ratio (y) = 0.40149 0.21396
# Poissons Ratio (z) = 0.21299 0.17609
#
# Static dielectric constant tensor:
#      x y z
#    x 2.013730 0.000000 0.000000 
#    y 0.000000 1.781170 0.000000 
#    z 0.000000 0.000000 1.854420 
# 
# From -- ./inp_files/51784.got.cif
#   From: 2010.05.17/outbox.cif.g08.bks.cpg/sg72_26_cif.got.tgz:51784.got - 2010.06.03 17:03:01.
