data_PCOD9528788
_publ_section_title
;
Structure prediction by ZEFSAII (Michael W. Deem and Ramdas Pophale) SiO2 
 PCOD9528788
Probable space group: I B A M
;
_chemical_formula_sum "Si O2"
_cell_formula_units_Z 96
_cell_length_a 13.601773
_cell_length_b 21.877158
_cell_length_c 15.554403
_cell_angle_alpha 90.000000
_cell_angle_beta 90.000000
_cell_angle_gamma 90.000000
_cell_volume 4628.494723
_symmetry_space_group_name_H-M "I B A M"
_symmetry_group_IT_number 72
_symmetry_cell_setting 'orthorhombic'
loop_
_space_group_symop_operation_xyz
x,y,z
-x,-y,z
x,-y,1/2-z
-x,y,1/2-z
-x,-y,-z
x,y,-z
-x,y,1/2+z
x,-y,1/2+z
1/2+x,1/2+y,1/2+z
1/2-x,1/2-y,1/2+z
1/2+x,1/2-y,-z
1/2-x,1/2+y,-z
1/2-x,1/2-y,1/2-z
1/2+x,1/2+y,1/2-z
1/2-x,1/2+y,z
1/2+x,1/2-y,z
loop_
_atom_site_type_symbol
_atom_site_label
_atom_site_fract_x
_atom_site_fract_y
_atom_site_fract_z
Si Si1 0.330514 0.362527 0.903960
Si Si2 0.539257 0.673679 0.657581
Si Si3 0.840792 0.469007 0.097028
Si Si4 0.862633 0.295147 0.401288
Si Si5 0.167652 0.935143 0.271710
Si Si6 0.466160 0.085334 0.653818
O O1 0.442748 0.340653 0.897496
O O2 0.253458 0.307330 0.892644
O O3 0.311783 0.405531 0.821761
O O4 0.313058 0.388821 0.000000
O O5 0.500000 0.695598 0.750000
O O6 0.606401 0.727004 0.621019
O O7 0.599267 0.611985 0.677105
O O8 0.762493 0.449655 0.169461
O O9 0.888770 0.534957 0.119766
O O10 0.933738 0.423044 0.100389
O O11 0.799965 0.469837 0.000000
O O12 0.889066 0.307409 0.500000
O O13 0.919330 0.347697 0.349149
O O14 0.119350 0.000000 0.250000
O O15 0.500000 0.070324 0.750000
#
# Coordination Sequence:
#
# PCOD9528788 Si02
#       6
#    16  16  16  16  16  16
#     4  10  23  43  65  90 123 163 207 258 315 377
#     4  10  24  42  63  90 123 161 208 261 318 382
#     4  11  22  37  61  95 132 168 212 265 321 381
#     4  11  22  38  62  91 125 165 208 255 315 386
#     4  11  24  43  64  91 124 163 212 266 318 377
#     4  11  21  37  61  92 131 171 211 261 320 381
#
# _framework density 20.741085000000002
#
# number of rings (size 3 to 8) (size 9 to 14) (size 15 to 20)
#    0.000    1.333    0.000    7.000    0.000   10.333 
#    0.000    2.500    0.000    0.000    0.000    0.000 
#    0.000    0.000    0.000    0.000    0.000    0.000 
#
# Total GULP energy -268212.950733 kJ/mol
# GULP energy per Si atom -5587.769807 kJ/mol
# Density = 2.069388 g / cm^3
# Si number density = 20.741085 Si / 1000 Ang^3
#
#
#
# Elastic Constant Matrix: (Units=GPa)
#
#
# Indices 1 2 3 4 5 6 
#
# 1 129.7066 73.4432 48.4616 0.0000 0.0000 0.0000
# 2 73.4432 127.8716 36.2811 0.0001 0.0000 0.0000
# 3 48.4616 36.2811 141.8671 0.0002 0.0000 0.0000
# 4 0.0000 0.0001 0.0002 -2.2389 0.0000 0.0000
# 5 0.0000 0.0000 0.0000 0.0000 28.7956 0.0000
# 6 0.0000 0.0000 0.0000 0.0000 0.0000 23.7370
#
#
#
# Elastic Compliance Matrix: (Units=1/GPa)
#
#
# Indices 1 2 3 4 5 6 
#
# 1 0.012236 -0.006299 -0.002569 0.000000 0.000000 0.000000
# 2 -0.006299 0.011675 -0.000834 0.000000 0.000000 0.000000
# 3 -0.002569 -0.000834 0.008140 0.000001 0.000000 0.000000
# 4 0.000000 0.000000 0.000001 -0.446651 0.000000 0.000000
# 5 0.000000 0.000000 0.000000 0.000000 0.034728 0.000000
# 6 0.000000 0.000000 0.000000 0.000000 0.000000 0.042128
#
#
# Mechanical properties :
#
#
# Convention : Reuss Voigt Hill
#
# Bulk Modulus (GPa) = 79.07132 79.53524 79.30328
# Shear Modulus (GPa) = -15.91723 26.14269 5.11273
#
# Velocity S-wave (km/s) = -2.77325 3.55411 1.57174
# Velocity P-wave (km/s) = 5.28689 7.43453 6.45071
#
# Compressibility (1/GPa) = 0.01264681
#
# Stress axis : x y z
#
# Youngs Moduli (GPa) = 81.72489 85.65460 122.85473
#
# Poissons Ratio (x) = 0.53954 0.31561
# Poissons Ratio (y) = 0.51478 0.10246
# Poissons Ratio (z) = 0.20995 0.07144
#
# Static dielectric constant tensor:
#      x y z
#    x 1.754470 0.000000 0.000000 
#    y 0.000000 1.713670 0.000000 
#    z 0.000000 0.000000 1.768100 
# 
# From -- ./inp_files/21795.got.cif
#   From: 2010.05.17/outbox.cif.g08.bks.cpg/sg72_11_cif.got.tgz:21795.got - 2010.06.03 17:03:01.
