data_PCOD9528019
_publ_section_title
;
Structure prediction by ZEFSAII (Michael W. Deem and Ramdas Pophale) SiO2 
 PCOD9528019
Probable space group: I B A M
;
_chemical_formula_sum "Si O2"
_cell_formula_units_Z 88
_cell_length_a 19.880758
_cell_length_b 9.145513
_cell_length_c 21.753281
_cell_angle_alpha 90.000000
_cell_angle_beta 90.000000
_cell_angle_gamma 90.000000
_cell_volume 3955.175694
_symmetry_space_group_name_H-M "I B A M"
_symmetry_group_IT_number 72
_symmetry_cell_setting 'orthorhombic'
loop_
_space_group_symop_operation_xyz
x,y,z
-x,-y,z
x,-y,1/2-z
-x,y,1/2-z
-x,-y,-z
x,y,-z
-x,y,1/2+z
x,-y,1/2+z
1/2+x,1/2+y,1/2+z
1/2-x,1/2-y,1/2+z
1/2+x,1/2-y,-z
1/2-x,1/2+y,-z
1/2-x,1/2-y,1/2-z
1/2+x,1/2+y,1/2-z
1/2-x,1/2+y,z
1/2+x,1/2-y,z
loop_
_atom_site_type_symbol
_atom_site_label
_atom_site_fract_x
_atom_site_fract_y
_atom_site_fract_z
Si Si1 0.441519 0.894545 0.863682
Si Si2 0.094596 0.561034 0.500000
Si Si3 0.303163 0.041292 0.820466
Si Si4 0.819270 0.862265 0.632045
Si Si5 0.184762 0.713440 0.000000
Si Si6 0.835719 0.845365 0.000000
Si Si7 0.929350 0.068693 0.615342
O O1 0.444706 0.901648 0.938082
O O2 0.370985 0.965129 0.844514
O O3 0.442661 0.721673 0.849673
O O4 0.500000 0.000000 0.838796
O O5 0.122818 0.398733 0.500000
O O6 0.158407 0.669333 0.500000
O O7 0.241340 0.974083 0.857865
O O8 0.293524 0.000000 0.750000
O O9 0.307508 0.214528 0.829765
O O10 0.820765 0.807845 0.561623
O O11 0.887794 0.944084 0.650825
O O12 0.256256 0.628102 0.000000
O O13 0.878230 0.895990 0.940839
O O14 0.000000 0.000000 0.594473
#
# Coordination Sequence:
#
# PCOD9528019 Si02
#       7
#    16   8  16  16   8   8  16
#     4  11  23  44  69  99 138 184 233 290 359 435
#     4  10  21  39  62  97 137 176 223 281 349 428
#     4  12  26  46  71  99 135 185 239 294 355 428
#     4  12  25  43  70 102 141 179 231 296 359 430
#     4  12  23  37  69 104 138 178 228 288 362 426
#     4  10  22  36  58  94 140 181 221 267 340 427
#     4  11  24  41  63  98 137 181 226 282 351 428
#
# _framework density 22.249328999999999
#
# number of rings (size 3 to 8) (size 9 to 14) (size 15 to 20)
#    0.000    0.727    1.818    7.091    2.545    0.364 
#    0.000    0.000    0.000    3.818    0.000    0.000 
#    0.000    0.000    0.000    0.000    0.000    0.000 
#
# Total GULP energy -246182.842591 kJ/mol
# GULP energy per Si atom -5595.064604 kJ/mol
# Density = 2.219869 g / cm^3
# Si number density = 22.249329 Si / 1000 Ang^3
#
#
#
# Elastic Constant Matrix: (Units=GPa)
#
#
# Indices 1 2 3 4 5 6 
#
# 1 112.6661 59.1396 -3.6703 0.0000 0.0000 0.0000
# 2 59.1396 178.4518 26.4347 0.0000 0.0000 0.0000
# 3 -3.6703 26.4347 44.8550 0.0000 0.0000 0.0000
# 4 0.0000 0.0000 0.0000-2193.4201 0.0000 0.0000
# 5 0.0000 0.0000 0.0000 0.0000 -35.1617 0.0000
# 6 0.0000 0.0000 0.0000 0.0000 0.0000 47.5390
#
#
#
# Elastic Compliance Matrix: (Units=1/GPa)
#
#
# Indices 1 2 3 4 5 6 
#
# 1 0.011199 -0.004215 0.003401 0.000000 0.000000 0.000000
# 2 -0.004215 0.007726 -0.004898 0.000000 0.000000 0.000000
# 3 0.003401 -0.004898 0.025459 0.000000 0.000000 0.000000
# 4 0.000000 0.000000 0.000000 -0.000456 0.000000 0.000000
# 5 0.000000 0.000000 0.000000 0.000000 -0.028440 0.000000
# 6 0.000000 0.000000 0.000000 0.000000 0.000000 0.021035
#
#
# Mechanical properties :
#
#
# Convention : Reuss Voigt Hill
#
# Bulk Modulus (GPa) = 30.34107 55.53122 42.93615
# Shear Modulus (GPa) = 84.83788 -419.27062 -167.21637
#
# Velocity S-wave (km/s) = 6.18169 -13.74231 -8.67864
# Velocity P-wave (km/s) = 8.03850 15.05950 9.00475
#
# Compressibility (1/GPa) = 0.03295862
#
# Stress axis : x y z
#
# Youngs Moduli (GPa) = 89.29250 129.42844 39.27875
#
# Poissons Ratio (x) = 0.54556 -0.13357
# Poissons Ratio (y) = 0.37638 0.19240
# Poissons Ratio (z) = -0.30364 0.63398
#
# Static dielectric constant tensor:
#      x y z
#    x 1.790180 0.000000 0.000000 
#    y 0.000000 1.864270 0.000000 
#    z 0.000000 0.000000 1.818580 
# 
# From -- ./inp_files/45283.got.cif
#   From: 2010.05.17/outbox.cif.g08.bks.cpg/sg72_23_cif.got.tgz:45283.got - 2010.06.03 17:03:01.
