data_PCOD9528020
_publ_section_title
;
Structure prediction by ZEFSAII (Michael W. Deem and Ramdas Pophale) SiO2 
 PCOD9528020
Probable space group: I B A M
;
_chemical_formula_sum "Si O2"
_cell_formula_units_Z 112
_cell_length_a 14.380849
_cell_length_b 26.451183
_cell_length_c 13.783440
_cell_angle_alpha 90.000000
_cell_angle_beta 90.000000
_cell_angle_gamma 90.000000
_cell_volume 5243.089200
_symmetry_space_group_name_H-M "I B A M"
_symmetry_group_IT_number 72
_symmetry_cell_setting 'orthorhombic'
loop_
_space_group_symop_operation_xyz
x,y,z
-x,-y,z
x,-y,1/2-z
-x,y,1/2-z
-x,-y,-z
x,y,-z
-x,y,1/2+z
x,-y,1/2+z
1/2+x,1/2+y,1/2+z
1/2-x,1/2-y,1/2+z
1/2+x,1/2-y,-z
1/2-x,1/2+y,-z
1/2-x,1/2-y,1/2-z
1/2+x,1/2+y,1/2-z
1/2-x,1/2+y,z
1/2+x,1/2-y,z
loop_
_atom_site_type_symbol
_atom_site_label
_atom_site_fract_x
_atom_site_fract_y
_atom_site_fract_z
Si Si1 0.089750 0.182577 0.608529
Si Si2 0.293148 0.221928 0.843538
Si Si3 0.889672 0.939574 0.750951
Si Si4 0.898051 0.522441 0.614758
Si Si5 0.878854 0.159017 0.338253
Si Si6 0.727244 0.925306 0.613406
Si Si7 0.108676 0.624199 0.767468
O O1 0.111832 0.160084 0.500000
O O2 0.142065 0.236885 0.604810
O O3 0.117619 0.166758 0.720083
O O4 0.977710 0.176270 0.618577
O O5 0.250000 0.250000 0.750000
O O6 0.202108 0.193002 0.884371
O O7 0.358488 0.175391 0.815443
O O8 0.858510 0.901869 0.838630
O O9 0.830228 0.925389 0.656159
O O10 0.000000 0.930329 0.750000
O O11 0.877647 0.000000 0.750000
O O12 0.900602 0.532271 0.500000
O O13 0.822881 0.478940 0.634390
O O14 0.875179 0.573793 0.669572
O O15 0.000000 0.500000 0.640978
O O16 0.723528 0.917578 0.500000
O O17 0.667015 0.883767 0.669486
O O18 0.000000 0.626286 0.750000
#
# Coordination Sequence:
#
# PCOD9528020 Si02
#       7
#    16  16  16  16  16  16  16
#     4  10  22  42  69  93 124 169 222 283 345 401
#     4  10  24  42  64  92 127 172 224 284 338 405
#     4  11  22  42  70  98 134 188 235 283 341 406
#     4  10  21  39  63 100 144 179 222 275 339 427
#     4  10  21  44  68  95 135 171 223 284 341 412
#     4  11  24  42  66 104 144 185 232 278 340 422
#     4  12  23  37  70  98 137 187 223 278 352 415
#
# _framework density 21.361453000000001
#
# number of rings (size 3 to 8) (size 9 to 14) (size 15 to 20)
#    0.000    1.429    4.286    1.286    4.000    1.714 
#    0.000    2.143    0.000    0.857    0.000    0.000 
#    0.000    0.000    0.000    0.000    0.000    0.000 
#
# Total GULP energy -312032.418167 kJ/mol
# GULP energy per Si atom -5572.007467 kJ/mol
# Density = 2.131283 g / cm^3
# Si number density = 21.361453 Si / 1000 Ang^3
#
#
#
# Elastic Constant Matrix: (Units=GPa)
#
#
# Indices 1 2 3 4 5 6 
#
# 1 107.9471 34.6856 36.0696 0.0000 0.0000 -0.0001
# 2 34.6856 99.7933 23.7020 -0.0001 0.0000 0.0000
# 3 36.0696 23.7020 103.3180 -0.0001 0.0000 -0.0003
# 4 0.0000 -0.0001 -0.0001 -14.8873 0.0000 -0.0002
# 5 0.0000 0.0000 0.0000 0.0000 15.5266 0.0000
# 6 -0.0001 0.0000 -0.0003 -0.0002 0.0000 190.3577
#
#
#
# Elastic Compliance Matrix: (Units=1/GPa)
#
#
# Indices 1 2 3 4 5 6 
#
# 1 0.011369 -0.003182 -0.003239 0.000000 0.000000 0.000000
# 2 -0.003182 0.011489 -0.001525 0.000000 0.000000 0.000000
# 3 -0.003239 -0.001525 0.011159 0.000000 0.000000 0.000000
# 4 0.000000 0.000000 0.000000 -0.067171 0.000000 0.000000
# 5 0.000000 0.000000 0.000000 0.000000 0.064405 0.000000
# 6 0.000000 0.000000 0.000000 0.000000 0.000000 0.005253
#
#
# Mechanical properties :
#
#
# Convention : Reuss Voigt Hill
#
# Bulk Modulus (GPa) = 55.17151 55.55253 55.36202
# Shear Modulus (GPa) = 85.56145 52.63948 69.10047
#
# Velocity S-wave (km/s) = 6.33570 4.96948 5.69372
# Velocity P-wave (km/s) = 8.91096 7.68050 8.31851
#
# Compressibility (1/GPa) = 0.01812530
#
# Stress axis : x y z
#
# Youngs Moduli (GPa) = 87.96207 87.04074 89.61072
#
# Poissons Ratio (x) = 0.27698 0.29024
# Poissons Ratio (y) = 0.27991 0.13663
# Poissons Ratio (z) = 0.28490 0.13271
#
# Static dielectric constant tensor:
#      x y z
#    x 1.731760 0.000000 0.000000 
#    y 0.000000 1.851020 0.000000 
#    z 0.000000 0.000000 1.740440 
# 
# From -- ./inp_files/22320.got.cif
#   From: 2010.05.17/outbox.cif.g08.bks.cpg/sg72_12_cif.got.tgz:22320.got - 2010.06.03 17:03:01.
