data_PCOD9528231
_publ_section_title
;
Structure prediction by ZEFSAII (Michael W. Deem and Ramdas Pophale) SiO2 
 PCOD9528231
Probable space group: I B A M
;
_chemical_formula_sum "Si O2"
_cell_formula_units_Z 72
_cell_length_a 4.791831
_cell_length_b 24.970353
_cell_length_c 24.527699
_cell_angle_alpha 90.000000
_cell_angle_beta 90.000000
_cell_angle_gamma 90.000000
_cell_volume 2934.830222
_symmetry_space_group_name_H-M "I B A M"
_symmetry_group_IT_number 72
_symmetry_cell_setting 'orthorhombic'
loop_
_space_group_symop_operation_xyz
x,y,z
-x,-y,z
x,-y,1/2-z
-x,y,1/2-z
-x,-y,-z
x,y,-z
-x,y,1/2+z
x,-y,1/2+z
1/2+x,1/2+y,1/2+z
1/2-x,1/2-y,1/2+z
1/2+x,1/2-y,-z
1/2-x,1/2+y,-z
1/2-x,1/2-y,1/2-z
1/2+x,1/2+y,1/2-z
1/2-x,1/2+y,z
1/2+x,1/2-y,z
loop_
_atom_site_type_symbol
_atom_site_label
_atom_site_fract_x
_atom_site_fract_y
_atom_site_fract_z
Si Si1 0.265782 0.037088 0.411632
Si Si2 0.333190 0.716696 0.920767
Si Si3 0.540688 0.670967 0.188977
Si Si4 0.054739 0.875963 0.000000
Si Si5 0.459569 0.902334 0.311493
O O1 0.174228 0.083930 0.452032
O O2 0.421672 0.060434 0.358446
O O3 0.500000 0.000000 0.438950
O O4 0.000000 0.000000 0.398475
O O5 0.516911 0.769064 0.934896
O O6 0.419928 0.707554 0.858198
O O7 0.427285 0.664916 0.953229
O O8 0.500000 0.692313 0.250000
O O9 0.359764 0.615981 0.183781
O O10 0.859229 0.652556 0.183337
O O11 0.500000 0.923207 0.250000
#
# Coordination Sequence:
#
# PCOD9528231 Si02
#       5
#    16  16  16   8  16
#     4  12  27  46  74 110 138 189 246 288 359 426
#     4  12  27  45  72 107 137 185 244 288 358 424
#     4  10  21  42  72 103 143 188 231 286 365 420
#     4  12  28  50  74  98 150 192 228 315 340 422
#     4  10  21  43  72 103 142 190 226 288 360 423
#
# _framework density 24.532933
#
# number of rings (size 3 to 8) (size 9 to 14) (size 15 to 20)
#    0.000    0.889    2.222    4.000    0.000    3.111 
#    0.000    1.111    0.000    0.000    0.000    0.000 
#    0.000    0.000    0.000    0.000    0.000    0.000 
#
# Total GULP energy -200631.335309 kJ/mol
# GULP energy per Si atom -5573.092647 kJ/mol
# Density = 2.447710 g / cm^3
# Si number density = 24.532933 Si / 1000 Ang^3
#
#
#
# Elastic Constant Matrix: (Units=GPa)
#
#
# Indices 1 2 3 4 5 6 
#
# 1 81.7720 3.3728 3.2314 0.0000 0.0000 0.0000
# 2 3.3728 63.6484 28.1268 0.0000 0.0000 0.0000
# 3 3.2314 28.1268 171.1235 0.0000 0.0000 0.0000
# 4 0.0000 0.0000 0.0000 -62.6590 0.0000 0.0000
# 5 0.0000 0.0000 0.0000 0.0000 60.9856 0.0000
# 6 0.0000 0.0000 0.0000 0.0000 0.0000 19.2770
#
#
#
# Elastic Compliance Matrix: (Units=1/GPa)
#
#
# Indices 1 2 3 4 5 6 
#
# 1 0.012259 -0.000590 -0.000134 0.000000 0.000000 0.000000
# 2 -0.000590 0.016970 -0.002778 0.000000 0.000000 0.000000
# 3 -0.000134 -0.002778 0.006303 0.000000 0.000000 0.000000
# 4 0.000000 0.000000 0.000000 -0.015959 0.000000 0.000000
# 5 0.000000 0.000000 0.000000 0.000000 0.016397 0.000000
# 6 0.000000 0.000000 0.000000 0.000000 0.000000 0.051875
#
#
# Mechanical properties :
#
#
# Convention : Reuss Voigt Hill
#
# Bulk Modulus (GPa) = 35.05537 42.88955 38.97246
# Shear Modulus (GPa) = 47.91128 22.30825 35.10977
#
# Velocity S-wave (km/s) = 4.42400 3.01876 3.78713
# Velocity P-wave (km/s) = 6.35734 5.44711 5.91975
#
# Compressibility (1/GPa) = 0.02852630
#
# Stress axis : x y z
#
# Youngs Moduli (GPa) = 81.57414 58.92649 158.65692
#
# Poissons Ratio (x) = 0.03478 0.02134
# Poissons Ratio (y) = 0.04814 0.44078
# Poissons Ratio (z) = 0.01097 0.16371
#
# Static dielectric constant tensor:
#      x y z
#    x 1.922780 0.000000 0.000000 
#    y 0.000000 1.938210 0.000000 
#    z 0.000000 0.000000 1.939310 
# 
# From -- ./inp_files/41506.got.cif
#   From: 2010.05.17/outbox.cif.g08.bks.cpg/sg72_21_cif.got.tgz:41506.got - 2010.06.03 17:03:01.
