data_PCOD9528553
_publ_section_title
;
Structure prediction by ZEFSAII (Michael W. Deem and Ramdas Pophale) SiO2 
 PCOD9528553
Probable space group: I B A M
;
_chemical_formula_sum "Si O2"
_cell_formula_units_Z 96
_cell_length_a 13.383506
_cell_length_b 18.701377
_cell_length_c 18.466369
_cell_angle_alpha 90.000000
_cell_angle_beta 90.000000
_cell_angle_gamma 90.000000
_cell_volume 4621.947336
_symmetry_space_group_name_H-M "I B A M"
_symmetry_group_IT_number 72
_symmetry_cell_setting 'orthorhombic'
loop_
_space_group_symop_operation_xyz
x,y,z
-x,-y,z
x,-y,1/2-z
-x,y,1/2-z
-x,-y,-z
x,y,-z
-x,y,1/2+z
x,-y,1/2+z
1/2+x,1/2+y,1/2+z
1/2-x,1/2-y,1/2+z
1/2+x,1/2-y,-z
1/2-x,1/2+y,-z
1/2-x,1/2-y,1/2-z
1/2+x,1/2+y,1/2-z
1/2-x,1/2+y,z
1/2+x,1/2-y,z
loop_
_atom_site_type_symbol
_atom_site_label
_atom_site_fract_x
_atom_site_fract_y
_atom_site_fract_z
Si Si1 0.554733 0.381023 0.823227
Si Si2 0.747966 0.033294 0.325873
Si Si3 0.862861 0.354440 0.914902
Si Si4 0.620639 0.422562 0.416889
Si Si5 0.043340 0.710042 0.670397
Si Si6 0.261552 0.211478 0.584144
O O1 0.500000 0.403270 0.750000
O O2 0.666820 0.406932 0.814143
O O3 0.491793 0.417214 0.887234
O O4 0.545457 0.296173 0.831617
O O5 0.664333 0.074114 0.371352
O O6 0.713933 0.000000 0.250000
O O7 0.807351 0.973366 0.370906
O O8 0.966168 0.322280 0.886603
O O9 0.781017 0.291124 0.903137
O O10 0.865352 0.369060 0.000000
O O11 0.621770 0.445050 0.500000
O O12 0.669795 0.343686 0.411099
O O13 0.000000 0.689768 0.750000
O O14 0.154543 0.690301 0.642925
O O15 0.299093 0.208475 0.500000
#
# Coordination Sequence:
#
# PCOD9528553 Si02
#       6
#    16  16  16  16  16  16
#     4  11  22  39  60  98 135 171 212 274 340 397
#     4  12  25  41  67  95 138 180 218 272 340 410
#     4  11  24  44  68  99 134 177 228 280 333 403
#     4  11  24  40  63  95 131 175 222 272 336 411
#     4  11  24  39  69 100 129 169 228 284 337 397
#     4  10  22  42  66  93 132 174 221 278 339 401
#
# _framework density 20.770465000000002
#
# number of rings (size 3 to 8) (size 9 to 14) (size 15 to 20)
#    0.000    1.000    5.000    1.500    2.333    3.333 
#    0.000    0.833    0.000    3.000    0.000    0.000 
#    0.000    0.000    0.000    0.000    0.000    0.000 
#
# Total GULP energy -268265.318707 kJ/mol
# GULP energy per Si atom -5588.860806 kJ/mol
# Density = 2.072319 g / cm^3
# Si number density = 20.770465 Si / 1000 Ang^3
#
#
#
# Elastic Constant Matrix: (Units=GPa)
#
#
# Indices 1 2 3 4 5 6 
#
# 1 59.9177 1.6822 30.0622 0.0000 0.0000 0.0000
# 2 1.6822 55.4230 23.2601 0.0000 0.0000 0.0000
# 3 30.0622 23.2601 91.8492 0.0000 0.0000 0.0000
# 4 0.0000 0.0000 0.0000 31.5738 0.0000 0.0000
# 5 0.0000 0.0000 0.0000 0.0000 34.5129 0.0000
# 6 0.0000 0.0000 0.0000 0.0000 0.0000 17.3009
#
#
#
# Elastic Compliance Matrix: (Units=1/GPa)
#
#
# Indices 1 2 3 4 5 6 
#
# 1 0.020256 0.002425 -0.007244 0.000000 0.000000 0.000000
# 2 0.002425 0.020479 -0.005980 0.000000 0.000000 0.000000
# 3 -0.007244 -0.005980 0.014773 0.000000 0.000000 0.000000
# 4 0.000000 0.000000 0.000000 0.031672 0.000000 0.000000
# 5 0.000000 0.000000 0.000000 0.000000 0.028975 0.000000
# 6 0.000000 0.000000 0.000000 0.000000 0.000000 0.057800
#
#
# Mechanical properties :
#
#
# Convention : Reuss Voigt Hill
#
# Bulk Modulus (GPa) = 29.48928 35.24432 32.36680
# Shear Modulus (GPa) = 24.17146 26.82321 25.49733
#
# Velocity S-wave (km/s) = 3.41507 3.59752 3.50748
# Velocity P-wave (km/s) = 5.45699 5.85333 5.65863
#
# Compressibility (1/GPa) = 0.03391062
#
# Stress axis : x y z
#
# Youngs Moduli (GPa) = 49.36823 48.83016 67.69220
#
# Poissons Ratio (x) = -0.11843 0.49036
# Poissons Ratio (y) = -0.11974 0.40480
# Poissons Ratio (z) = 0.35762 0.29201
#
# Static dielectric constant tensor:
#      x y z
#    x 1.753820 0.000000 0.000000 
#    y 0.000000 1.739250 0.000000 
#    z 0.000000 0.000000 1.746620 
# 
# From -- ./inp_files/21777.got.cif
#   From: 2010.05.17/outbox.cif.g08.bks.cpg/sg72_11_cif.got.tgz:21777.got - 2010.06.03 17:03:01.
