data_PCOD9528907
_publ_section_title
;
Structure prediction by ZEFSAII (Michael W. Deem and Ramdas Pophale) SiO2 
 PCOD9528907
Probable space group: I B A M
;
_chemical_formula_sum "Si O2"
_cell_formula_units_Z 88
_cell_length_a 23.613053
_cell_length_b 19.727623
_cell_length_c 10.000060
_cell_angle_alpha 90.000000
_cell_angle_beta 90.000000
_cell_angle_gamma 90.000000
_cell_volume 4658.322024
_symmetry_space_group_name_H-M "I B A M"
_symmetry_group_IT_number 72
_symmetry_cell_setting 'orthorhombic'
loop_
_space_group_symop_operation_xyz
x,y,z
-x,-y,z
x,-y,1/2-z
-x,y,1/2-z
-x,-y,-z
x,y,-z
-x,y,1/2+z
x,-y,1/2+z
1/2+x,1/2+y,1/2+z
1/2-x,1/2-y,1/2+z
1/2+x,1/2-y,-z
1/2-x,1/2+y,-z
1/2-x,1/2-y,1/2-z
1/2+x,1/2+y,1/2-z
1/2-x,1/2+y,z
1/2+x,1/2-y,z
loop_
_atom_site_type_symbol
_atom_site_label
_atom_site_fract_x
_atom_site_fract_y
_atom_site_fract_z
Si Si1 0.788224 0.489756 0.000000
Si Si2 0.869781 0.064222 0.500000
Si Si3 0.000000 0.235383 0.750000
Si Si4 0.883173 0.906454 0.500000
Si Si5 0.386956 0.792433 0.841907
Si Si6 0.672971 0.345810 0.238167
Si Si7 0.706803 0.897110 0.264106
Si Si8 0.008367 0.865475 0.500000
O O1 0.783431 0.548725 0.881976
O O2 0.795056 0.432413 0.880256
O O3 0.840303 0.096026 0.629357
O O4 0.934954 0.089459 0.500000
O O5 0.861999 0.983795 0.500000
O O6 0.944084 0.281151 0.742804
O O7 0.993976 0.184540 0.625761
O O8 0.861108 0.867000 0.629464
O O9 0.951215 0.908935 0.500000
O O10 0.350441 0.724287 0.818995
O O11 0.350237 0.855908 0.795051
O O12 0.400227 0.798190 0.000000
O O13 0.739391 0.346766 0.265976
#
# Coordination Sequence:
#
# PCOD9528907 Si02
#       8
#     8   8   8   8  16  16  16   8
#     4  10  24  44  68  99 134 167 218 254 332 420
#     4  12  24  41  61  90 136 188 220 267 320 367
#     4  12  22  42  69  89 124 170 226 270 332 380
#     4  12  26  35  61  96 130 180 228 269 312 377
#     4  12  24  46  69  97 133 174 218 279 332 382
#     4  12  24  40  64  96 135 169 226 268 317 391
#     4  11  25  43  70 100 133 174 206 272 338 399
#     4  12  21  44  58  88 134 183 222 278 312 367
#
# _framework density 18.890923000000001
#
# number of rings (size 3 to 8) (size 9 to 14) (size 15 to 20)
#    0.000    0.364    6.364    2.455    7.636    1.455 
#    0.000    2.727    0.000    3.273    0.000    0.000 
#    0.000    0.000    0.000    0.000    0.000    0.000 
#
# Total GULP energy -245017.985284 kJ/mol
# GULP energy per Si atom -5568.590575 kJ/mol
# Density = 1.884793 g / cm^3
# Si number density = 18.890923 Si / 1000 Ang^3
#
#
#
# Elastic Constant Matrix: (Units=GPa)
#
#
# Indices 1 2 3 4 5 6 
#
# 1 71.8997 22.3558 -2.6961 0.0000 0.0000 0.0000
# 2 22.3558 36.3814 5.4719 0.0000 0.0000 0.0000
# 3 -2.6961 5.4719 132.7615 0.0000 0.0000 0.0000
# 4 0.0000 0.0000 0.0000 32.4064 0.0000 0.0000
# 5 0.0000 0.0000 0.0000 0.0000 28.4775 0.0000
# 6 0.0000 0.0000 0.0000 0.0000 0.0000 -7.8112
#
#
#
# Elastic Compliance Matrix: (Units=1/GPa)
#
#
# Indices 1 2 3 4 5 6 
#
# 1 0.017276 -0.010735 0.000793 0.000000 0.000000 0.000000
# 2 -0.010735 0.034329 -0.001633 0.000000 0.000000 0.000000
# 3 0.000793 -0.001633 0.007616 0.000000 0.000000 0.000000
# 4 0.000000 0.000000 0.000000 0.030858 0.000000 0.000000
# 5 0.000000 0.000000 0.000000 0.000000 0.035115 0.000000
# 6 0.000000 0.000000 0.000000 0.000000 0.000000 -0.128022
#
#
# Mechanical properties :
#
#
# Convention : Reuss Voigt Hill
#
# Bulk Modulus (GPa) = 27.72314 32.36730 30.04522
# Shear Modulus (GPa) = 154.58211 25.00862 89.79537
#
# Velocity S-wave (km/s) = 9.05574 3.64241 6.90194
# Velocity P-wave (km/s) = 11.13773 5.90428 8.91374
#
# Compressibility (1/GPa) = 0.03607095
#
# Stress axis : x y z
#
# Youngs Moduli (GPa) = 57.88418 29.13011 131.30738
#
# Poissons Ratio (x) = 0.31271 -0.10417
# Poissons Ratio (y) = 0.62139 0.21441
# Poissons Ratio (z) = -0.04592 0.04757
#
# Static dielectric constant tensor:
#      x y z
#    x 1.697190 0.000000 0.000000 
#    y 0.000000 1.632040 0.000000 
#    z 0.000000 0.000000 1.844400 
# 
# From -- ./inp_files/6885.got.cif
#   From: 2010.05.17/outbox.cif.g08.bks.cpg/sg72_4_cif.got.tgz:6885.got - 2010.06.03 17:03:01.
