data_PCOD9528903
_publ_section_title
;
Structure prediction by ZEFSAII (Michael W. Deem and Ramdas Pophale) SiO2 
 PCOD9528903
Probable space group: I B A M
;
_chemical_formula_sum "Si O2"
_cell_formula_units_Z 68
_cell_length_a 22.475051
_cell_length_b 8.891318
_cell_length_c 15.288368
_cell_angle_alpha 90.000000
_cell_angle_beta 90.000000
_cell_angle_gamma 90.000000
_cell_volume 3055.117775
_symmetry_space_group_name_H-M "I B A M"
_symmetry_group_IT_number 72
_symmetry_cell_setting 'orthorhombic'
loop_
_space_group_symop_operation_xyz
x,y,z
-x,-y,z
x,-y,1/2-z
-x,y,1/2-z
-x,-y,-z
x,y,-z
-x,y,1/2+z
x,-y,1/2+z
1/2+x,1/2+y,1/2+z
1/2-x,1/2-y,1/2+z
1/2+x,1/2-y,-z
1/2-x,1/2+y,-z
1/2-x,1/2-y,1/2-z
1/2+x,1/2+y,1/2-z
1/2-x,1/2+y,z
1/2+x,1/2-y,z
loop_
_atom_site_type_symbol
_atom_site_label
_atom_site_fract_x
_atom_site_fract_y
_atom_site_fract_z
Si Si1 0.433989 0.024067 0.897069
Si Si2 0.315239 0.095189 0.339856
Si Si3 0.800225 0.050772 0.350929
Si Si4 0.584006 0.630877 0.100070
Si Si5 0.000000 0.000000 0.250000
O O1 0.407148 0.190939 0.885077
O O2 0.500000 0.000000 0.858494
O O3 0.383685 0.910738 0.867238
O O4 0.439820 0.001181 0.000000
O O5 0.299068 0.269840 0.344393
O O6 0.315466 0.000000 0.250000
O O7 0.261823 0.010371 0.390248
O O8 0.804822 0.000000 0.250000
O O9 0.857101 0.971871 0.395058
O O10 0.541778 0.587076 0.181012
O O11 0.559360 0.616419 0.000000
#
# Coordination Sequence:
#
# PCOD9528903 Si02
#       5
#    16  16  16  16   4
#     4  10  24  44  65  95 136 179 228 283 343 412
#     4  11  23  39  69  97 134 182 230 286 348 413
#     4  11  22  42  66 100 138 178 232 289 346 411
#     4  11  25  44  70 102 138 180 230 285 342 413
#     4  12  26  44  70  98 140 180 226 276 340 410
#
# _framework density 22.257736000000001
#
# number of rings (size 3 to 8) (size 9 to 14) (size 15 to 20)
#    0.000    1.176    1.176    6.000    3.294    2.353 
#    0.000    0.000    0.000    0.000    0.000    0.000 
#    0.000    0.000    0.000    0.000    0.000    0.000 
#
# Total GULP energy -189611.591737 kJ/mol
# GULP energy per Si atom -5576.811522 kJ/mol
# Density = 2.220708 g / cm^3
# Si number density = 22.257736 Si / 1000 Ang^3
#
#
#
# Elastic Constant Matrix: (Units=GPa)
#
#
# Indices 1 2 3 4 5 6 
#
# 1 141.5460 74.6250 12.8572 0.0000 0.0000 0.0000
# 2 74.6250 158.3656 18.4211 0.0000 0.0000 0.0000
# 3 12.8572 18.4211 74.9745 0.0000 0.0000 0.0000
# 4 0.0000 0.0000 0.0000 15.5331 0.0000 0.0000
# 5 0.0000 0.0000 0.0000 0.0000 15.3741 0.0000
# 6 0.0000 0.0000 0.0000 0.0000 0.0000 45.7660
#
#
#
# Elastic Compliance Matrix: (Units=1/GPa)
#
#
# Indices 1 2 3 4 5 6 
#
# 1 0.009421 -0.004377 -0.000540 0.000000 0.000000 0.000000
# 2 -0.004377 0.008533 -0.001346 0.000000 0.000000 0.000000
# 3 -0.000540 -0.001346 0.013761 0.000000 0.000000 0.000000
# 4 0.000000 0.000000 0.000000 0.064379 0.000000 0.000000
# 5 0.000000 0.000000 0.000000 0.000000 0.065045 0.000000
# 6 0.000000 0.000000 0.000000 0.000000 0.000000 0.021850
#
#
# Mechanical properties :
#
#
# Convention : Reuss Voigt Hill
#
# Bulk Modulus (GPa) = 52.11078 65.18808 58.64943
# Shear Modulus (GPa) = 24.76319 33.26681 29.01500
#
# Velocity S-wave (km/s) = 3.33913 3.87022 3.61445
# Velocity P-wave (km/s) = 6.19110 7.02303 6.62014
#
# Compressibility (1/GPa) = 0.01918989
#
# Stress axis : x y z
#
# Youngs Moduli (GPa) = 106.14170 117.18577 72.66779
#
# Poissons Ratio (x) = 0.51289 0.03926
# Poissons Ratio (y) = 0.46455 0.09782
# Poissons Ratio (z) = 0.05735 0.15774
#
# Static dielectric constant tensor:
#      x y z
#    x 1.938940 0.000000 0.000000 
#    y 0.000000 1.910170 0.000000 
#    z 0.000000 0.000000 1.860350 
# 
# From -- ./inp_files/32309.got.cif
#   From: 2010.05.17/outbox.cif.g08.bks.cpg/sg72_17_cif.got.tgz:32309.got - 2010.06.03 17:03:01.
