data_PCOD9528372
_publ_section_title
;
Structure prediction by ZEFSAII (Michael W. Deem and Ramdas Pophale) SiO2 
 PCOD9528372
Probable space group: I B A M
;
_chemical_formula_sum "Si O2"
_cell_formula_units_Z 56
_cell_length_a 11.279176
_cell_length_b 25.937984
_cell_length_c 9.612982
_cell_angle_alpha 90.000000
_cell_angle_beta 90.000000
_cell_angle_gamma 90.000000
_cell_volume 2812.365234
_symmetry_space_group_name_H-M "I B A M"
_symmetry_group_IT_number 72
_symmetry_cell_setting 'orthorhombic'
loop_
_space_group_symop_operation_xyz
x,y,z
-x,-y,z
x,-y,1/2-z
-x,y,1/2-z
-x,-y,-z
x,y,-z
-x,y,1/2+z
x,-y,1/2+z
1/2+x,1/2+y,1/2+z
1/2-x,1/2-y,1/2+z
1/2+x,1/2-y,-z
1/2-x,1/2+y,-z
1/2-x,1/2-y,1/2-z
1/2+x,1/2+y,1/2-z
1/2-x,1/2+y,z
1/2+x,1/2-y,z
loop_
_atom_site_type_symbol
_atom_site_label
_atom_site_fract_x
_atom_site_fract_y
_atom_site_fract_z
Si Si1 0.347024 0.453837 0.849402
Si Si2 0.265360 0.697041 0.834783
Si Si3 0.381576 0.888646 0.166112
Si Si4 0.000000 0.139015 0.750000
O O1 0.377357 0.500000 0.750000
O O2 0.213322 0.434587 0.826134
O O3 0.425593 0.401990 0.841185
O O4 0.358164 0.476903 0.000000
O O5 0.250000 0.750000 0.750000
O O6 0.179331 0.657788 0.752560
O O7 0.399504 0.674382 0.820761
O O8 0.237612 0.701794 0.000000
O O9 0.500000 0.901448 0.250000
O O10 0.399288 0.876973 0.000000
#
# Coordination Sequence:
#
# PCOD9528372 Si02
#       4
#    16  16  16   8
#     4  10  22  39  62  92 124 161 205 254 310 371
#     4  11  24  41  64  91 123 163 209 258 312 371
#     4  10  22  41  62  88 125 165 210 258 309 370
#     4  10  23  42  64  90 124 164 207 254 310 368
#
# _framework density 19.912064999999998
#
# number of rings (size 3 to 8) (size 9 to 14) (size 15 to 20)
#    0.000    1.714    0.000    3.000    2.000   12.000 
#    0.000    2.857    0.000    0.000    0.000    0.000 
#    0.000    0.000    0.000    0.000    0.000    0.000 
#
# Total GULP energy -156131.248740 kJ/mol
# GULP energy per Si atom -5576.116026 kJ/mol
# Density = 1.986674 g / cm^3
# Si number density = 19.912065 Si / 1000 Ang^3
#
#
#
# Elastic Constant Matrix: (Units=GPa)
#
#
# Indices 1 2 3 4 5 6 
#
# 1 143.2206 36.1679 75.3750 0.0000 -0.0002 0.0000
# 2 36.1679 106.5193 84.4633 -0.0001 -0.0002 0.0000
# 3 75.3750 84.4633 208.3900 -0.0005 -0.0015 -0.0001
# 4 0.0000 -0.0001 -0.0005 21.9394 0.0000 0.0000
# 5 -0.0002 -0.0002 -0.0015 0.0000 -34.5319 0.0001
# 6 0.0000 0.0000 -0.0001 0.0000 0.0001 6.9140
#
#
#
# Elastic Compliance Matrix: (Units=1/GPa)
#
#
# Indices 1 2 3 4 5 6 
#
# 1 0.008656 -0.000673 -0.002858 0.000000 0.000000 0.000000
# 2 -0.000673 0.013886 -0.005385 0.000000 0.000000 0.000000
# 3 -0.002858 -0.005385 0.008015 0.000000 0.000000 0.000000
# 4 0.000000 0.000000 0.000000 0.045580 0.000000 0.000000
# 5 0.000000 0.000000 0.000000 0.000000 -0.028959 0.000000
# 6 0.000000 0.000000 0.000000 0.000000 0.000000 0.144634
#
#
# Mechanical properties :
#
#
# Convention : Reuss Voigt Hill
#
# Bulk Modulus (GPa) = 78.58057 94.46026 86.52041
# Shear Modulus (GPa) = 23.37672 16.33920 19.85796
#
# Velocity S-wave (km/s) = 3.43008 2.86766 3.16140
# Velocity P-wave (km/s) = 7.43214 7.64894 7.54132
#
# Compressibility (1/GPa) = 0.01272579
#
# Stress axis : x y z
#
# Youngs Moduli (GPa) = 115.52084 72.01298 124.76282
#
# Poissons Ratio (x) = 0.04844 0.35662
# Poissons Ratio (y) = 0.07771 0.67185
# Poissons Ratio (z) = 0.33020 0.38779
#
# Static dielectric constant tensor:
#      x y z
#    x 1.741820 0.000000 0.000000 
#    y 0.000000 1.702980 0.000000 
#    z 0.000000 0.000000 1.693270 
# 
# From -- ./inp_files/2386.got.cif
#   From: 2010.05.17/outbox.cif.g08.bks.cpg/sg72_2_cif.got.tgz:2386.got - 2010.06.03 17:03:01.
