data_PCOD9528960
_publ_section_title
;
Structure prediction by ZEFSAII (Michael W. Deem and Ramdas Pophale) SiO2 
 PCOD9528960
Probable space group: I B A M
;
_chemical_formula_sum "Si O2"
_cell_formula_units_Z 60
_cell_length_a 5.689179
_cell_length_b 16.890011
_cell_length_c 30.780477
_cell_angle_alpha 90.000000
_cell_angle_beta 90.000000
_cell_angle_gamma 90.000000
_cell_volume 2957.705143
_symmetry_space_group_name_H-M "I B A M"
_symmetry_group_IT_number 72
_symmetry_cell_setting 'orthorhombic'
loop_
_space_group_symop_operation_xyz
x,y,z
-x,-y,z
x,-y,1/2-z
-x,y,1/2-z
-x,-y,-z
x,y,-z
-x,y,1/2+z
x,-y,1/2+z
1/2+x,1/2+y,1/2+z
1/2-x,1/2-y,1/2+z
1/2+x,1/2-y,-z
1/2-x,1/2+y,-z
1/2-x,1/2-y,1/2-z
1/2+x,1/2+y,1/2-z
1/2-x,1/2+y,z
1/2+x,1/2-y,z
loop_
_atom_site_type_symbol
_atom_site_label
_atom_site_fract_x
_atom_site_fract_y
_atom_site_fract_z
Si Si1 0.625380 0.914152 0.950359
Si Si2 0.035669 0.703638 0.622125
Si Si3 0.684570 0.068641 0.177998
Si Si4 0.000000 0.000000 0.750000
Si Si5 0.500000 0.500000 0.601967
O O1 0.488519 0.852388 0.920331
O O2 0.871933 0.934942 0.927499
O O3 0.500000 0.000000 0.950542
O O4 0.649988 0.887349 0.000000
O O5 0.286519 0.749325 0.621827
O O6 0.053250 0.648911 0.665272
O O7 0.855581 0.059033 0.218647
O O8 0.824353 0.044108 0.134513
O O9 0.500000 0.000000 0.185604
#
# Coordination Sequence:
#
# PCOD9528960 Si02
#       5
#    16  16  16   4   8
#     4  11  23  40  66 100 135 186 250 299 334 403
#     4  12  26  44  69 101 148 193 227 280 362 433
#     4  11  22  44  72 102 132 181 243 297 358 438
#     4  10  26  40  82 102 130 172 254 312 358 422
#     4  11  17  39  71  98 132 180 241 303 349 399
#
# _framework density 20.285996999999998
#
# number of rings (size 3 to 8) (size 9 to 14) (size 15 to 20)
#    0.000    0.800    5.333    2.400    3.733    1.067 
#    0.000    1.333    0.000    0.000    0.000    0.000 
#    0.000    0.000    0.000    0.000    0.000    0.000 
#
# Total GULP energy -167422.191968 kJ/mol
# GULP energy per Si atom -5580.739732 kJ/mol
# Density = 2.023983 g / cm^3
# Si number density = 20.285997 Si / 1000 Ang^3
#
#
#
# Elastic Constant Matrix: (Units=GPa)
#
#
# Indices 1 2 3 4 5 6 
#
# 1 135.6496 61.3416 73.6807 0.0000 0.0000 0.0000
# 2 61.3416 97.7593 58.1950 0.0000 0.0000 0.0000
# 3 73.6807 58.1950 165.1014 0.0000 0.0000 0.0000
# 4 0.0000 0.0000 0.0000 -23.2257 0.0000 0.0000
# 5 0.0000 0.0000 0.0000 0.0000 43.1620 0.0000
# 6 0.0000 0.0000 0.0000 0.0000 0.0000 53.2966
#
#
#
# Elastic Compliance Matrix: (Units=1/GPa)
#
#
# Indices 1 2 3 4 5 6 
#
# 1 0.011551 -0.005289 -0.003291 0.000000 0.000000 0.000000
# 2 -0.005289 0.015367 -0.003056 0.000000 0.000000 0.000000
# 3 -0.003291 -0.003056 0.008603 0.000000 0.000000 0.000000
# 4 0.000000 0.000000 0.000000 -0.043056 0.000000 0.000000
# 5 0.000000 0.000000 0.000000 0.000000 0.023169 0.000000
# 6 0.000000 0.000000 0.000000 0.000000 0.000000 0.018763
#
#
# Mechanical properties :
#
#
# Convention : Reuss Voigt Hill
#
# Bulk Modulus (GPa) = 81.63915 87.21607 84.42761
# Shear Modulus (GPa) = 80.96893 28.33279 54.65086
#
# Velocity S-wave (km/s) = 6.32458 3.74126 5.19602
# Velocity P-wave (km/s) = 9.67808 7.85807 8.81517
#
# Compressibility (1/GPa) = 0.01224903
#
# Stress axis : x y z
#
# Youngs Moduli (GPa) = 86.57181 65.07287 116.24255
#
# Poissons Ratio (x) = 0.34418 0.38251
# Poissons Ratio (y) = 0.45789 0.35527
# Poissons Ratio (z) = 0.28488 0.19888
#
# Static dielectric constant tensor:
#      x y z
#    x 1.781810 0.000000 0.000000 
#    y 0.000000 1.768080 0.000000 
#    z 0.000000 0.000000 1.709690 
# 
# From -- ./inp_files/50140.got.cif
#   From: 2010.05.17/outbox.cif.g08.bks.cpg/sg72_26_cif.got.tgz:50140.got - 2010.06.03 17:03:01.
