data_PCOD9528157
_publ_section_title
;
Structure prediction by ZEFSAII (Michael W. Deem and Ramdas Pophale) SiO2 
 PCOD9528157
Probable space group: I B A M
;
_chemical_formula_sum "Si O2"
_cell_formula_units_Z 88
_cell_length_a 23.001418
_cell_length_b 10.099746
_cell_length_c 15.809904
_cell_angle_alpha 90.000000
_cell_angle_beta 90.000000
_cell_angle_gamma 90.000000
_cell_volume 3672.774758
_symmetry_space_group_name_H-M "I B A M"
_symmetry_group_IT_number 72
_symmetry_cell_setting 'orthorhombic'
loop_
_space_group_symop_operation_xyz
x,y,z
-x,-y,z
x,-y,1/2-z
-x,y,1/2-z
-x,-y,-z
x,y,-z
-x,y,1/2+z
x,-y,1/2+z
1/2+x,1/2+y,1/2+z
1/2-x,1/2-y,1/2+z
1/2+x,1/2-y,-z
1/2-x,1/2+y,-z
1/2-x,1/2-y,1/2-z
1/2+x,1/2+y,1/2-z
1/2-x,1/2+y,z
1/2+x,1/2-y,z
loop_
_atom_site_type_symbol
_atom_site_label
_atom_site_fract_x
_atom_site_fract_y
_atom_site_fract_z
Si Si1 0.913134 0.329859 0.669995
Si Si2 0.068560 0.030041 0.846166
Si Si3 0.923391 0.161941 0.000000
Si Si4 0.282581 0.087340 0.905160
Si Si5 0.774239 0.322463 0.332547
Si Si6 0.581998 0.882125 0.136673
O O1 0.927034 0.185991 0.635730
O O2 0.843162 0.335784 0.671595
O O3 0.933794 0.463492 0.623868
O O4 0.932836 0.342641 0.767534
O O5 0.091029 0.000000 0.750000
O O6 0.000000 0.000000 0.846181
O O7 0.093610 0.944095 0.923375
O O8 0.940127 0.273396 0.072742
O O9 0.245971 0.220907 0.903869
O O10 0.347401 0.121905 0.873514
O O11 0.253732 0.971559 0.849965
O O12 0.289064 0.035312 0.000000
O O13 0.750000 0.250000 0.250000
#
# Coordination Sequence:
#
# PCOD9528157 Si02
#       6
#    16  16   8  16  16  16
#     4  10  22  44  66  95 131 184 228 277 345 413
#     4  11  25  46  71 101 140 174 223 288 353 412
#     4  12  23  44  73 102 132 176 226 288 345 416
#     4  11  22  38  56  89 134 167 215 278 318 391
#     4  11  22  38  60  87 125 174 220 262 324 393
#     4  10  21  40  70  94 133 176 227 278 337 408
#
# _framework density 23.960084999999999
#
# number of rings (size 3 to 8) (size 9 to 14) (size 15 to 20)
#    0.000    1.273    4.545    1.364    0.000    3.636 
#    6.545    1.818    0.000    0.000    0.000    0.000 
#    0.000    0.000    0.000    0.000    0.000    0.000 
#
# Total GULP energy -245018.559056 kJ/mol
# GULP energy per Si atom -5568.603615 kJ/mol
# Density = 2.390555 g / cm^3
# Si number density = 23.960085 Si / 1000 Ang^3
#
#
#
# Elastic Constant Matrix: (Units=GPa)
#
#
# Indices 1 2 3 4 5 6 
#
# 1 46.7653 3.0121 7.9026 0.0000 0.0000 0.0000
# 2 3.0121 183.9374 56.1717 0.0000 0.0000 0.0000
# 3 7.9026 56.1717 137.2548 0.0000 0.0000 0.0000
# 4 0.0000 0.0000 0.0000 35.2345 0.0000 0.0000
# 5 0.0000 0.0000 0.0000 0.0000 -9.0849 0.0000
# 6 0.0000 0.0000 0.0000 0.0000 0.0000 29.3123
#
#
#
# Elastic Compliance Matrix: (Units=1/GPa)
#
#
# Indices 1 2 3 4 5 6 
#
# 1 0.021594 0.000030 -0.001255 0.000000 0.000000 0.000000
# 2 0.000030 0.006213 -0.002544 0.000000 0.000000 0.000000
# 3 -0.001255 -0.002544 0.008399 0.000000 0.000000 0.000000
# 4 0.000000 0.000000 0.000000 0.028381 0.000000 0.000000
# 5 0.000000 0.000000 0.000000 0.000000 -0.110073 0.000000
# 6 0.000000 0.000000 0.000000 0.000000 0.000000 0.034115
#
#
# Mechanical properties :
#
#
# Convention : Reuss Voigt Hill
#
# Bulk Modulus (GPa) = 34.88472 55.79225 45.33849
# Shear Modulus (GPa) = 873.31887 31.15047 452.23467
#
# Velocity S-wave (km/s) = 19.11231 3.60960 13.75335
# Velocity P-wave (km/s) = 22.39713 6.38031 16.46724
#
# Compressibility (1/GPa) = 0.02866585
#
# Stress axis : x y z
#
# Youngs Moduli (GPa) = 46.30997 160.94807 119.05714
#
# Poissons Ratio (x) = -0.00479 0.14947
# Poissons Ratio (y) = -0.00138 0.30294
# Poissons Ratio (z) = 0.05814 0.40953
#
# Static dielectric constant tensor:
#      x y z
#    x 1.936370 0.000000 0.000000 
#    y 0.000000 1.914480 0.000000 
#    z 0.000000 0.000000 1.978260 
# 
# From -- ./inp_files/34226.got.cif
#   From: 2010.05.17/outbox.cif.g08.bks.cpg/sg72_18_cif.got.tgz:34226.got - 2010.06.03 17:03:01.
