data_PCOD9528134
_publ_section_title
;
Structure prediction by ZEFSAII (Michael W. Deem and Ramdas Pophale) SiO2 
 PCOD9528134
Probable space group: I B A M
;
_chemical_formula_sum "Si O2"
_cell_formula_units_Z 96
_cell_length_a 23.222866
_cell_length_b 12.865510
_cell_length_c 16.606553
_cell_angle_alpha 90.000000
_cell_angle_beta 90.000000
_cell_angle_gamma 90.000000
_cell_volume 4961.606511
_symmetry_space_group_name_H-M "I B A M"
_symmetry_group_IT_number 72
_symmetry_cell_setting 'orthorhombic'
loop_
_space_group_symop_operation_xyz
x,y,z
-x,-y,z
x,-y,1/2-z
-x,y,1/2-z
-x,-y,-z
x,y,-z
-x,y,1/2+z
x,-y,1/2+z
1/2+x,1/2+y,1/2+z
1/2-x,1/2-y,1/2+z
1/2+x,1/2-y,-z
1/2-x,1/2+y,-z
1/2-x,1/2-y,1/2-z
1/2+x,1/2+y,1/2-z
1/2-x,1/2+y,z
1/2+x,1/2-y,z
loop_
_atom_site_type_symbol
_atom_site_label
_atom_site_fract_x
_atom_site_fract_y
_atom_site_fract_z
Si Si1 0.589234 0.770129 0.095149
Si Si2 0.856409 0.649104 0.089668
Si Si3 0.471256 0.193889 0.672129
Si Si4 0.823186 0.554189 0.338989
Si Si5 0.786712 0.817043 0.813117
Si Si6 0.593405 0.381463 0.740287
O O1 0.521947 0.798929 0.107254
O O2 0.629999 0.856260 0.139329
O O3 0.594160 0.665894 0.149914
O O4 0.603038 0.761152 0.000000
O O5 0.914715 0.639426 0.140510
O O6 0.827820 0.537675 0.097279
O O7 0.814294 0.736186 0.124660
O O8 0.872648 0.677603 0.000000
O O9 0.500000 0.142055 0.750000
O O10 0.446353 0.304513 0.705655
O O11 0.830032 0.500000 0.250000
O O12 0.759916 0.602939 0.345362
O O13 0.750000 0.750000 0.750000
O O14 0.841368 0.871213 0.772219
O O15 0.574530 0.500000 0.750000
#
# Coordination Sequence:
#
# PCOD9528134 Si02
#       6
#    16  16  16  16  16  16
#     4  11  23  39  62  95 129 159 202 270 321 360
#     4  11  24  40  61  94 129 160 205 267 320 367
#     4   9  20  41  63  89 124 168 213 251 312 382
#     4  12  22  39  66  90 121 168 214 251 310 385
#     4  11  21  41  63  86 120 166 210 251 305 378
#     4  10  21  40  66  89 117 167 214 252 301 384
#
# _framework density 19.348572000000001
#
# number of rings (size 3 to 8) (size 9 to 14) (size 15 to 20)
#    0.000    1.333    3.333    3.500    0.000    5.000 
#    0.000   10.000    0.000    0.000    0.000    0.000 
#    0.000    0.000    0.000    0.000    0.000    0.000 
#
# Total GULP energy -267816.084085 kJ/mol
# GULP energy per Si atom -5579.501752 kJ/mol
# Density = 1.930453 g / cm^3
# Si number density = 19.348572 Si / 1000 Ang^3
#
#
#
# Elastic Constant Matrix: (Units=GPa)
#
#
# Indices 1 2 3 4 5 6 
#
# 1 146.2285 34.6454 34.1732 0.0000 0.0000 0.0000
# 2 34.6454 68.5111 34.0471 0.0000 0.0000 0.0000
# 3 34.1732 34.0471 97.5463 0.0000 0.0000 0.0000
# 4 0.0000 0.0000 0.0000 21.1550 0.0000 0.0000
# 5 0.0000 0.0000 0.0000 0.0000 15.1183 0.0000
# 6 0.0000 0.0000 0.0000 0.0000 0.0000 3.5844
#
#
#
# Elastic Compliance Matrix: (Units=1/GPa)
#
#
# Indices 1 2 3 4 5 6 
#
# 1 0.007991 -0.003206 -0.001681 0.000000 0.000000 0.000000
# 2 -0.003206 0.018945 -0.005490 0.000000 0.000000 0.000000
# 3 -0.001681 -0.005490 0.012756 0.000000 0.000000 0.000000
# 4 0.000000 0.000000 0.000000 0.047270 0.000000 0.000000
# 5 0.000000 0.000000 0.000000 0.000000 0.066145 0.000000
# 6 0.000000 0.000000 0.000000 0.000000 0.000000 0.278983
#
#
# Mechanical properties :
#
#
# Convention : Reuss Voigt Hill
#
# Bulk Modulus (GPa) = 52.79567 57.55748 55.17657
# Shear Modulus (GPa) = 10.88954 21.93290 16.41122
#
# Velocity S-wave (km/s) = 2.37493 3.37050 2.91553
# Velocity P-wave (km/s) = 5.90476 6.70517 6.31765
#
# Compressibility (1/GPa) = 0.01894095
#
# Stress axis : x y z
#
# Youngs Moduli (GPa) = 125.14282 52.78337 78.39260
#
# Poissons Ratio (x) = 0.16921 0.13174
# Poissons Ratio (y) = 0.40118 0.43034
# Poissons Ratio (z) = 0.21030 0.28976
#
# Static dielectric constant tensor:
#      x y z
#    x 1.679040 0.000000 0.000000 
#    y 0.000000 1.369630 0.000000 
#    z 0.000000 0.000000 1.682110 
# 
# From -- ./inp_files/33292.got.cif
#   From: 2010.05.17/outbox.cif.g08.bks.cpg/sg72_17_cif.got.tgz:33292.got - 2010.06.03 17:03:01.
