data_PCOD9528424
_publ_section_title
;
Structure prediction by ZEFSAII (Michael W. Deem and Ramdas Pophale) SiO2 
 PCOD9528424
Probable space group: I B A M
;
_chemical_formula_sum "Si O2"
_cell_formula_units_Z 112
_cell_length_a 13.300937
_cell_length_b 12.596070
_cell_length_c 30.200864
_cell_angle_alpha 90.000000
_cell_angle_beta 90.000000
_cell_angle_gamma 90.000000
_cell_volume 5059.838666
_symmetry_space_group_name_H-M "I B A M"
_symmetry_group_IT_number 72
_symmetry_cell_setting 'orthorhombic'
loop_
_space_group_symop_operation_xyz
x,y,z
-x,-y,z
x,-y,1/2-z
-x,y,1/2-z
-x,-y,-z
x,y,-z
-x,y,1/2+z
x,-y,1/2+z
1/2+x,1/2+y,1/2+z
1/2-x,1/2-y,1/2+z
1/2+x,1/2-y,-z
1/2-x,1/2+y,-z
1/2-x,1/2-y,1/2-z
1/2+x,1/2+y,1/2-z
1/2-x,1/2+y,z
1/2+x,1/2-y,z
loop_
_atom_site_type_symbol
_atom_site_label
_atom_site_fract_x
_atom_site_fract_y
_atom_site_fract_z
Si Si1 0.737247 0.122776 0.196509
Si Si2 0.606260 0.155553 0.416221
Si Si3 0.177652 0.086672 0.949207
Si Si4 0.609078 0.266819 0.246338
Si Si5 0.684880 0.617985 0.899543
Si Si6 0.386657 0.826458 0.948558
Si Si7 0.099151 0.427612 0.315634
O O1 0.647694 0.210927 0.201199
O O2 0.807828 0.151230 0.237464
O O3 0.802849 0.133363 0.152584
O O4 0.688987 0.007823 0.195059
O O5 0.703325 0.108632 0.441148
O O6 0.623392 0.282361 0.417653
O O7 0.496933 0.133005 0.436106
O O8 0.607842 0.115197 0.365573
O O9 0.122659 0.199047 0.942153
O O10 0.144423 0.994694 0.915815
O O11 0.162107 0.052875 0.000000
O O12 0.500000 0.317471 0.250000
O O13 0.600839 0.168898 0.281239
O O14 0.798534 0.625526 0.918746
O O15 0.365139 0.848340 0.000000
O O16 0.000000 0.500000 0.310976
#
# Coordination Sequence:
#
# PCOD9528424 Si02
#       7
#    16  16  16  16  16  16  16
#     4  11  23  39  66  98 132 169 217 274 332 390
#     4  11  23  39  65  92 128 164 221 272 328 392
#     4  10  22  40  63  90 127 173 219 271 332 395
#     4  11  24  42  67  99 131 172 220 271 330 395
#     4  11  22  41  62  92 126 174 215 273 331 397
#     4  10  23  40  60  94 131 170 222 280 333 391
#     4  12  22  40  67  99 126 170 222 268 329 399
#
# _framework density 22.135093000000001
#
# number of rings (size 3 to 8) (size 9 to 14) (size 15 to 20)
#    0.000    1.143    4.286    2.143    0.000    2.286 
#    0.000    2.857    0.000    6.857    0.000    0.000 
#    0.000    0.000    0.000    0.000    0.000    0.000 
#
# Total GULP energy -313327.252917 kJ/mol
# GULP energy per Si atom -5595.129516 kJ/mol
# Density = 2.208471 g / cm^3
# Si number density = 22.135093 Si / 1000 Ang^3
#
#
#
# Elastic Constant Matrix: (Units=GPa)
#
#
# Indices 1 2 3 4 5 6 
#
# 1 75.3719 8.6382 -18.4434 0.0000 0.0000 0.0000
# 2 8.6382 74.4414 14.8233 0.0000 0.0000 0.0000
# 3 -18.4434 14.8233 63.3249 0.0000 0.0000 0.0000
# 4 0.0000 0.0000 0.0000 23.8624 0.0000 0.0000
# 5 0.0000 0.0000 0.0000 0.0000 19.0555 0.0000
# 6 0.0000 0.0000 0.0000 0.0000 0.0000 16.4504
#
#
#
# Elastic Compliance Matrix: (Units=1/GPa)
#
#
# Indices 1 2 3 4 5 6 
#
# 1 0.014785 -0.002699 0.004938 0.000000 0.000000 0.000000
# 2 -0.002699 0.014583 -0.004200 0.000000 0.000000 0.000000
# 3 0.004938 -0.004200 0.018213 0.000000 0.000000 0.000000
# 4 0.000000 0.000000 0.000000 0.041907 0.000000 0.000000
# 5 0.000000 0.000000 0.000000 0.000000 0.052478 0.000000
# 6 0.000000 0.000000 0.000000 0.000000 0.000000 0.060789
#
#
# Mechanical properties :
#
#
# Convention : Reuss Voigt Hill
#
# Bulk Modulus (GPa) = 22.90449 24.79714 23.85081
# Shear Modulus (GPa) = 22.60098 25.74835 24.17467
#
# Velocity S-wave (km/s) = 3.19885 3.41433 3.30834
# Velocity P-wave (km/s) = 4.90037 5.17402 5.03905
#
# Compressibility (1/GPa) = 0.04365956
#
# Stress axis : x y z
#
# Youngs Moduli (GPa) = 67.63527 68.57381 54.90637
#
# Poissons Ratio (x) = 0.18508 -0.27113
# Poissons Ratio (y) = 0.18254 0.23059
# Poissons Ratio (z) = -0.33398 0.28799
#
# Static dielectric constant tensor:
#      x y z
#    x 1.833310 0.000000 0.000000 
#    y 0.000000 1.810900 0.000000 
#    z 0.000000 0.000000 1.790790 
# 
# From -- ./inp_files/51456.got.cif
#   From: 2010.05.17/outbox.cif.g08.bks.cpg/sg72_26_cif.got.tgz:51456.got - 2010.06.03 17:03:01.
