data_PCOD9528104
_publ_section_title
;
Structure prediction by ZEFSAII (Michael W. Deem and Ramdas Pophale) SiO2 
 PCOD9528104
Probable space group: I B A M
;
_chemical_formula_sum "Si O2"
_cell_formula_units_Z 96
_cell_length_a 15.799991
_cell_length_b 19.747065
_cell_length_c 15.071471
_cell_angle_alpha 90.000000
_cell_angle_beta 90.000000
_cell_angle_gamma 90.000000
_cell_volume 4702.350938
_symmetry_space_group_name_H-M "I B A M"
_symmetry_group_IT_number 72
_symmetry_cell_setting 'orthorhombic'
loop_
_space_group_symop_operation_xyz
x,y,z
-x,-y,z
x,-y,1/2-z
-x,y,1/2-z
-x,-y,-z
x,y,-z
-x,y,1/2+z
x,-y,1/2+z
1/2+x,1/2+y,1/2+z
1/2-x,1/2-y,1/2+z
1/2+x,1/2-y,-z
1/2-x,1/2+y,-z
1/2-x,1/2-y,1/2-z
1/2+x,1/2+y,1/2-z
1/2-x,1/2+y,z
1/2+x,1/2-y,z
loop_
_atom_site_type_symbol
_atom_site_label
_atom_site_fract_x
_atom_site_fract_y
_atom_site_fract_z
Si Si1 0.084678 0.960438 0.106883
Si Si2 0.058210 0.434084 0.601952
Si Si3 0.917462 0.305956 0.222513
Si Si4 0.223775 0.497937 0.855521
Si Si5 0.633421 0.311433 0.599834
Si Si6 0.828855 0.650194 0.096328
O O1 0.175310 0.996716 0.126858
O O2 0.092815 0.881721 0.136979
O O3 0.080173 0.957143 0.000000
O O4 0.000000 0.000000 0.137895
O O5 0.035407 0.418789 0.500000
O O6 0.048713 0.371620 0.668859
O O7 0.159695 0.446701 0.606426
O O8 0.000000 0.500000 0.627434
O O9 0.870940 0.256159 0.156610
O O10 0.869299 0.324008 0.312696
O O11 0.000000 0.264496 0.250000
O O12 0.213121 0.500000 0.750000
O O13 0.181806 0.430225 0.894586
O O14 0.599203 0.300392 0.500000
O O15 0.732600 0.326039 0.593630
O O16 0.868507 0.667617 0.000000
#
# Coordination Sequence:
#
# PCOD9528104 Si02
#       6
#    16  16  16  16  16  16
#     4   9  19  39  65  93 125 160 201 251 311 383
#     4  11  24  40  61  89 126 167 211 260 309 365
#     4  12  24  38  60  90 125 158 209 258 307 373
#     4  11  20  36  60  91 123 155 204 258 310 368
#     4   9  20  41  64  87 121 162 202 252 314 368
#     4  10  21  40  63  84 118 165 206 250 307 370
#
# _framework density 20.415320999999999
#
# number of rings (size 3 to 8) (size 9 to 14) (size 15 to 20)
#    0.000    1.667    1.667    4.500    0.000    3.000 
#    6.000    0.000    0.000    4.500    0.000    0.000 
#    0.000    0.667    0.000    0.000    0.000    0.000 
#
# Total GULP energy -267482.002023 kJ/mol
# GULP energy per Si atom -5572.541709 kJ/mol
# Density = 2.036885 g / cm^3
# Si number density = 20.415321 Si / 1000 Ang^3
#
#
#
# Elastic Constant Matrix: (Units=GPa)
#
#
# Indices 1 2 3 4 5 6 
#
# 1 84.3899 40.5673 20.8766 0.0000 0.0000 0.0000
# 2 40.5673 75.5318 54.4225 0.0000 0.0000 0.0000
# 3 20.8766 54.4225 126.6754 0.0000 0.0000 0.0000
# 4 0.0000 0.0000 0.0000 90.7887 0.0000 0.0000
# 5 0.0000 0.0000 0.0000 0.0000 34.6844 0.0000
# 6 0.0000 0.0000 0.0000 0.0000 0.0000 19.0127
#
#
#
# Elastic Compliance Matrix: (Units=1/GPa)
#
#
# Indices 1 2 3 4 5 6 
#
# 1 0.016180 -0.009804 0.001545 0.000000 0.000000 0.000000
# 2 -0.009804 0.025115 -0.009174 0.000000 0.000000 0.000000
# 3 0.001545 -0.009174 0.011581 0.000000 0.000000 0.000000
# 4 0.000000 0.000000 0.000000 0.011015 0.000000 0.000000
# 5 0.000000 0.000000 0.000000 0.000000 0.028831 0.000000
# 6 0.000000 0.000000 0.000000 0.000000 0.000000 0.052596
#
#
# Mechanical properties :
#
#
# Convention : Reuss Voigt Hill
#
# Bulk Modulus (GPa) = 55.52147 57.59222 56.55684
# Shear Modulus (GPa) = 26.85458 40.27920 33.56689
#
# Velocity S-wave (km/s) = 3.63080 4.44665 4.05927
# Velocity P-wave (km/s) = 6.69567 7.39156 7.05220
#
# Compressibility (1/GPa) = 0.01801105
#
# Stress axis : x y z
#
# Youngs Moduli (GPa) = 61.80381 39.81648 86.34813
#
# Poissons Ratio (x) = 0.39035 -0.13343
# Poissons Ratio (y) = 0.60590 0.79219
# Poissons Ratio (z) = -0.09550 0.36529
#
# Static dielectric constant tensor:
#      x y z
#    x 1.731180 0.000000 0.000000 
#    y 0.000000 1.734640 0.000000 
#    z 0.000000 0.000000 1.758640 
# 
# From -- ./inp_files/21823.got.cif
#   From: 2010.05.17/outbox.cif.g08.bks.cpg/sg72_11_cif.got.tgz:21823.got - 2010.06.03 17:03:01.
