data_PCOD9528696
_publ_section_title
;
Structure prediction by ZEFSAII (Michael W. Deem and Ramdas Pophale) SiO2 
 PCOD9528696
Probable space group: I B A M
;
_chemical_formula_sum "Si O2"
_cell_formula_units_Z 64
_cell_length_a 9.202098
_cell_length_b 14.128298
_cell_length_c 20.819302
_cell_angle_alpha 90.000000
_cell_angle_beta 90.000000
_cell_angle_gamma 90.000000
_cell_volume 2706.717094
_symmetry_space_group_name_H-M "I B A M"
_symmetry_group_IT_number 72
_symmetry_cell_setting 'orthorhombic'
loop_
_space_group_symop_operation_xyz
x,y,z
-x,-y,z
x,-y,1/2-z
-x,y,1/2-z
-x,-y,-z
x,y,-z
-x,y,1/2+z
x,-y,1/2+z
1/2+x,1/2+y,1/2+z
1/2-x,1/2-y,1/2+z
1/2+x,1/2-y,-z
1/2-x,1/2+y,-z
1/2-x,1/2-y,1/2-z
1/2+x,1/2+y,1/2-z
1/2-x,1/2+y,z
1/2+x,1/2-y,z
loop_
_atom_site_type_symbol
_atom_site_label
_atom_site_fract_x
_atom_site_fract_y
_atom_site_fract_z
Si Si1 0.928936 0.604217 0.568911
Si Si2 0.339733 0.369909 0.281014
Si Si3 0.338163 0.505656 0.393389
Si Si4 0.665367 0.173367 0.842070
O O1 0.959423 0.651417 0.500000
O O2 0.763555 0.571260 0.573144
O O3 0.000000 0.500000 0.569365
O O4 0.005464 0.654800 0.628963
O O5 0.500000 0.354102 0.250000
O O6 0.341518 0.466542 0.320315
O O7 0.316993 0.284673 0.331976
O O8 0.210865 0.362935 0.228899
O O9 0.500000 0.500000 0.418802
O O10 0.270597 0.611336 0.388917
#
# Coordination Sequence:
#
# PCOD9528696 Si02
#       4
#    16  16  16  16
#     4   9  21  42  64  89 126 174 226 268 314 390
#     4  11  23  39  63  97 137 166 212 276 338 411
#     4  11  22  39  64  98 136 170 215 272 342 393
#     4  10  23  39  64  93 128 177 213 269 333 403
#
# _framework density 23.644880000000001
#
# number of rings (size 3 to 8) (size 9 to 14) (size 15 to 20)
#    0.000    1.750    2.500    0.750    7.000    0.500 
#    4.500    1.250    0.000    0.000    0.000    0.000 
#    0.000    0.000    0.000    0.000    0.000    0.000 
#
# Total GULP energy -178471.371455 kJ/mol
# GULP energy per Si atom -5577.230358 kJ/mol
# Density = 2.359106 g / cm^3
# Si number density = 23.644880 Si / 1000 Ang^3
#
#
#
# Elastic Constant Matrix: (Units=GPa)
#
#
# Indices 1 2 3 4 5 6 
#
# 1 160.2186 31.5007 51.9957 0.0000 0.0000 0.0000
# 2 31.5007 98.0762 17.0430 0.0000 0.0000 0.0000
# 3 51.9957 17.0430 98.8016 0.0000 0.0000 0.0000
# 4 0.0000 0.0000 0.0000 9.6109 0.0000 0.0000
# 5 0.0000 0.0000 0.0000 0.0000 2.4540 0.0000
# 6 0.0000 0.0000 0.0000 0.0000 0.0000 27.2793
#
#
#
# Elastic Compliance Matrix: (Units=1/GPa)
#
#
# Indices 1 2 3 4 5 6 
#
# 1 0.007842 -0.001857 -0.003807 0.000000 0.000000 0.000000
# 2 -0.001857 0.010951 -0.000912 0.000000 0.000000 0.000000
# 3 -0.003807 -0.000912 0.012282 0.000000 0.000000 0.000000
# 4 0.000000 0.000000 0.000000 0.104049 0.000000 0.000000
# 5 0.000000 0.000000 0.000000 0.000000 0.407501 0.000000
# 6 0.000000 0.000000 0.000000 0.000000 0.000000 0.036658
#
#
# Mechanical properties :
#
#
# Convention : Reuss Voigt Hill
#
# Bulk Modulus (GPa) = 55.79121 62.01945 58.90533
# Shear Modulus (GPa) = 8.35550 24.97263 16.66406
#
# Velocity S-wave (km/s) = 1.88187 3.25338 2.65762
# Velocity P-wave (km/s) = 5.32622 6.35603 5.86377
#
# Compressibility (1/GPa) = 0.01792397
#
# Stress axis : x y z
#
# Youngs Moduli (GPa) = 127.51882 91.31508 81.42118
#
# Poissons Ratio (x) = 0.16960 0.30994
# Poissons Ratio (y) = 0.23683 0.07423
# Poissons Ratio (z) = 0.48541 0.08325
#
# Static dielectric constant tensor:
#      x y z
#    x 1.991560 0.000000 0.000000 
#    y 0.000000 1.849020 0.000000 
#    z 0.000000 0.000000 1.937920 
# 
# From -- ./inp_files/42036.got.cif
#   From: 2010.05.17/outbox.cif.g08.bks.cpg/sg72_22_cif.got.tgz:42036.got - 2010.06.03 17:03:01.
