data_PCOD9528929
_publ_section_title
;
Structure prediction by ZEFSAII (Michael W. Deem and Ramdas Pophale) SiO2 
 PCOD9528929
Probable space group: I B A M
;
_chemical_formula_sum "Si O2"
_cell_formula_units_Z 92
_cell_length_a 21.969035
_cell_length_b 25.667321
_cell_length_c 8.965340
_cell_angle_alpha 90.000000
_cell_angle_beta 90.000000
_cell_angle_gamma 90.000000
_cell_volume 5055.432162
_symmetry_space_group_name_H-M "I B A M"
_symmetry_group_IT_number 72
_symmetry_cell_setting 'orthorhombic'
loop_
_space_group_symop_operation_xyz
x,y,z
-x,-y,z
x,-y,1/2-z
-x,y,1/2-z
-x,-y,-z
x,y,-z
-x,y,1/2+z
x,-y,1/2+z
1/2+x,1/2+y,1/2+z
1/2-x,1/2-y,1/2+z
1/2+x,1/2-y,-z
1/2-x,1/2+y,-z
1/2-x,1/2-y,1/2-z
1/2+x,1/2+y,1/2-z
1/2-x,1/2+y,z
1/2+x,1/2-y,z
loop_
_atom_site_type_symbol
_atom_site_label
_atom_site_fract_x
_atom_site_fract_y
_atom_site_fract_z
Si Si1 0.842634 0.362581 0.174441
Si Si2 0.731949 0.306389 0.679417
Si Si3 0.500000 0.585456 0.250000
Si Si4 0.056888 0.274375 0.672264
Si Si5 0.397880 0.670873 0.177049
Si Si6 0.000000 0.000000 0.500000
Si Si7 0.564907 0.942738 0.319501
O O1 0.781510 0.347284 0.260026
O O2 0.884544 0.310924 0.175671
O O3 0.881529 0.405953 0.260138
O O4 0.832180 0.376343 0.000000
O O5 0.732572 0.301924 0.500000
O O6 0.750000 0.250000 0.750000
O O7 0.666253 0.325857 0.736487
O O8 0.442339 0.622650 0.213251
O O9 0.515163 0.544990 0.122694
O O10 0.043935 0.261517 0.500000
O O11 0.068614 0.223053 0.768132
O O12 0.000000 0.302193 0.750000
O O13 0.386867 0.672239 0.000000
O O14 0.500000 0.925554 0.250000
O O15 0.561742 0.943987 0.500000
O O16 0.574995 0.000000 0.250000
#
# Coordination Sequence:
#
# PCOD9528929 Si02
#       7
#    16  16   8  16  16   4  16
#     4  11  23  41  62  88 129 171 215 265 314 375
#     4  12  25  41  63  91 129 175 218 259 316 390
#     4  11  24  44  72 100 130 166 215 272 336 388
#     4  11  23  35  56  90 128 166 208 259 316 380
#     4  12  24  39  65  94 128 166 211 261 322 389
#     4  10  24  46  72  98 128 166 212 274 336 394
#     4  11  22  39  65  94 125 166 215 263 318 372
#
# _framework density 18.198246999999999
#
# number of rings (size 3 to 8) (size 9 to 14) (size 15 to 20)
#    0.000    0.696    3.478    5.739    2.435    3.478 
#    0.000    0.000    3.826    0.000    0.000    0.000 
#    0.000    0.000    0.000    0.000    0.000    0.000 
#
# Total GULP energy -256354.706943 kJ/mol
# GULP energy per Si atom -5572.928412 kJ/mol
# Density = 1.815683 g / cm^3
# Si number density = 18.198247 Si / 1000 Ang^3
#
#
#
# Elastic Constant Matrix: (Units=GPa)
#
#
# Indices 1 2 3 4 5 6 
#
# 1 131.7229 39.5759 59.7451 0.0000 0.0000 0.0000
# 2 39.5759 98.2414 48.7708 0.0000 0.0000 0.0000
# 3 59.7451 48.7708 205.1181 0.0000 0.0000 0.0000
# 4 0.0000 0.0000 0.0000 28.3918 0.0000 0.0000
# 5 0.0000 0.0000 0.0000 0.0000 35.7559 0.0000
# 6 0.0000 0.0000 0.0000 0.0000 0.0000 14.7170
#
#
#
# Elastic Compliance Matrix: (Units=1/GPa)
#
#
# Indices 1 2 3 4 5 6 
#
# 1 0.009355 -0.002739 -0.002074 0.000000 0.000000 0.000000
# 2 -0.002739 0.012343 -0.002137 0.000000 0.000000 0.000000
# 3 -0.002074 -0.002137 0.005987 0.000000 0.000000 0.000000
# 4 0.000000 0.000000 0.000000 0.035221 0.000000 0.000000
# 5 0.000000 0.000000 0.000000 0.000000 0.027967 0.000000
# 6 0.000000 0.000000 0.000000 0.000000 0.000000 0.067949
#
#
# Mechanical properties :
#
#
# Convention : Reuss Voigt Hill
#
# Bulk Modulus (GPa) = 72.53632 81.25177 76.89404
# Shear Modulus (GPa) = 28.19779 34.90562 31.55170
#
# Velocity S-wave (km/s) = 3.94061 4.38434 4.16838
# Velocity P-wave (km/s) = 7.78781 8.38898 8.09398
#
# Compressibility (1/GPa) = 0.01378620
#
# Stress axis : x y z
#
# Youngs Moduli (GPa) = 106.89223 81.01492 167.01921
#
# Poissons Ratio (x) = 0.22192 0.34633
# Poissons Ratio (y) = 0.29281 0.35692
# Poissons Ratio (z) = 0.22165 0.17313
#
# Static dielectric constant tensor:
#      x y z
#    x 1.797650 0.000000 0.000000 
#    y 0.000000 1.620880 0.000000 
#    z 0.000000 0.000000 1.611810 
# 
# From -- ./inp_files/6092.got.cif
#   From: 2010.05.17/outbox.cif.g08.bks.cpg/sg72_4_cif.got.tgz:6092.got - 2010.06.03 17:03:01.
