data_PCOD9528534
_publ_section_title
;
Structure prediction by ZEFSAII (Michael W. Deem and Ramdas Pophale) SiO2 
 PCOD9528534
Probable space group: I B A M
;
_chemical_formula_sum "Si O2"
_cell_formula_units_Z 88
_cell_length_a 11.605350
_cell_length_b 25.137502
_cell_length_c 15.064033
_cell_angle_alpha 90.000000
_cell_angle_beta 90.000000
_cell_angle_gamma 90.000000
_cell_volume 4394.622948
_symmetry_space_group_name_H-M "I B A M"
_symmetry_group_IT_number 72
_symmetry_cell_setting 'orthorhombic'
loop_
_space_group_symop_operation_xyz
x,y,z
-x,-y,z
x,-y,1/2-z
-x,y,1/2-z
-x,-y,-z
x,y,-z
-x,y,1/2+z
x,-y,1/2+z
1/2+x,1/2+y,1/2+z
1/2-x,1/2-y,1/2+z
1/2+x,1/2-y,-z
1/2-x,1/2+y,-z
1/2-x,1/2-y,1/2-z
1/2+x,1/2+y,1/2-z
1/2-x,1/2+y,z
1/2+x,1/2-y,z
loop_
_atom_site_type_symbol
_atom_site_label
_atom_site_fract_x
_atom_site_fract_y
_atom_site_fract_z
Si Si1 0.437101 0.114367 0.500000
Si Si2 0.032505 0.689687 0.151267
Si Si3 0.701418 0.443600 0.500000
Si Si4 0.001398 0.188501 0.103570
Si Si5 0.760892 0.869460 0.847871
Si Si6 0.166445 0.444818 0.500000
Si Si7 0.110274 0.906950 0.188318
O O1 0.469273 0.150648 0.583740
O O2 0.303565 0.099801 0.500000
O O3 0.527846 0.064746 0.500000
O O4 0.168192 0.677764 0.147603
O O5 0.000000 0.675349 0.250000
O O6 0.999725 0.750336 0.131262
O O7 0.774112 0.498038 0.500000
O O8 0.631189 0.437004 0.593869
O O9 0.120423 0.157491 0.121072
O O10 0.912848 0.154054 0.160225
O O11 0.973045 0.185138 0.000000
O O12 0.782879 0.900614 0.755453
O O13 0.715452 0.913141 0.915848
O O14 0.000000 0.925165 0.250000
#
# Coordination Sequence:
#
# PCOD9528534 Si02
#       7
#     8  16   8  16  16   8  16
#     4  10  23  40  62  96 126 160 209 255 301 372
#     4  11  22  38  61  92 124 163 205 243 302 377
#     4  12  23  42  68  92 123 161 210 268 308 356
#     4  11  21  39  60  89 125 162 205 246 305 370
#     4  10  22  42  61  84 128 166 195 255 315 363
#     4  10  23  42  66  88 123 165 205 255 323 362
#     4  10  23  41  64  93 125 161 209 254 305 369
#
# _framework density 20.024471999999999
#
# number of rings (size 3 to 8) (size 9 to 14) (size 15 to 20)
#    0.000    1.455    2.727    3.000    0.000    5.091 
#    0.000   10.000    0.000    3.273    0.000    0.000 
#    0.000    0.000    0.000    0.000    0.000    0.000 
#
# Total GULP energy -245450.365343 kJ/mol
# GULP energy per Si atom -5578.417394 kJ/mol
# Density = 1.997890 g / cm^3
# Si number density = 20.024472 Si / 1000 Ang^3
#
#
#
# Elastic Constant Matrix: (Units=GPa)
#
#
# Indices 1 2 3 4 5 6 
#
# 1 53.8172 1.9207 30.7479 0.0000 0.0000 0.0000
# 2 1.9207 52.3240 12.4785 0.0001 0.0000 0.0000
# 3 30.7479 12.4785 158.8409 0.0001 0.0000 0.0000
# 4 0.0000 0.0001 0.0001 58.7475 0.0000 -0.0001
# 5 0.0000 0.0000 0.0000 0.0000 31.3047 0.0000
# 6 0.0000 0.0000 0.0000 -0.0001 0.0000 17.8179
#
#
#
# Elastic Compliance Matrix: (Units=1/GPa)
#
#
# Indices 1 2 3 4 5 6 
#
# 1 0.020894 0.000201 -0.004060 0.000000 0.000000 0.000000
# 2 0.000201 0.019479 -0.001569 0.000000 0.000000 0.000000
# 3 -0.004060 -0.001569 0.007205 0.000000 0.000000 0.000000
# 4 0.000000 0.000000 0.000000 0.017022 0.000000 0.000000
# 5 0.000000 0.000000 0.000000 0.000000 0.031944 0.000000
# 6 0.000000 0.000000 0.000000 0.000000 0.000000 0.056123
#
#
# Mechanical properties :
#
#
# Convention : Reuss Voigt Hill
#
# Bulk Modulus (GPa) = 27.23239 39.47514 33.35377
# Shear Modulus (GPa) = 28.44728 36.22969 32.33848
#
# Velocity S-wave (km/s) = 3.77321 4.25817 4.02300
# Velocity P-wave (km/s) = 5.71068 6.62814 6.18644
#
# Compressibility (1/GPa) = 0.03672097
#
# Stress axis : x y z
#
# Youngs Moduli (GPa) = 47.86038 51.33859 138.79464
#
# Poissons Ratio (x) = -0.01034 0.56357
# Poissons Ratio (y) = -0.00964 0.21780
# Poissons Ratio (z) = 0.19433 0.08056
#
# Static dielectric constant tensor:
#      x y z
#    x 1.439680 0.000000 0.000000 
#    y 0.000000 1.688140 0.000000 
#    z 0.000000 0.000000 1.728860 
# 
# From -- ./inp_files/20339.got.cif
#   From: 2010.05.17/outbox.cif.g08.bks.cpg/sg72_11_cif.got.tgz:20339.got - 2010.06.03 17:03:01.
