data_PCOD9528010
_publ_section_title
;
Structure prediction by ZEFSAII (Michael W. Deem and Ramdas Pophale) SiO2 
 PCOD9528010
Probable space group: I B A M
;
_chemical_formula_sum "Si O2"
_cell_formula_units_Z 116
_cell_length_a 23.105740
_cell_length_b 28.254470
_cell_length_c 9.005772
_cell_angle_alpha 90.000000
_cell_angle_beta 90.000000
_cell_angle_gamma 90.000000
_cell_volume 5879.332134
_symmetry_space_group_name_H-M "I B A M"
_symmetry_group_IT_number 72
_symmetry_cell_setting 'orthorhombic'
loop_
_space_group_symop_operation_xyz
x,y,z
-x,-y,z
x,-y,1/2-z
-x,y,1/2-z
-x,-y,-z
x,y,-z
-x,y,1/2+z
x,-y,1/2+z
1/2+x,1/2+y,1/2+z
1/2-x,1/2-y,1/2+z
1/2+x,1/2-y,-z
1/2-x,1/2+y,-z
1/2-x,1/2-y,1/2-z
1/2+x,1/2+y,1/2-z
1/2-x,1/2+y,z
1/2+x,1/2-y,z
loop_
_atom_site_type_symbol
_atom_site_label
_atom_site_fract_x
_atom_site_fract_y
_atom_site_fract_z
Si Si1 0.627347 0.169073 0.322113
Si Si2 0.813990 0.888658 0.674026
Si Si3 0.758232 0.699543 0.826696
Si Si4 0.218218 0.451141 0.676588
Si Si5 0.559851 0.370864 0.321063
Si Si6 0.559232 0.261893 0.322504
Si Si7 0.597018 0.922845 0.672216
Si Si8 0.500000 0.000000 0.250000
O O1 0.629798 0.162444 0.500000
O O2 0.690935 0.169442 0.250962
O O3 0.605752 0.222017 0.287663
O O4 0.587377 0.128076 0.251105
O O5 0.805785 0.902043 0.500000
O O6 0.799057 0.832727 0.681358
O O7 0.767489 0.914709 0.774476
O O8 0.880451 0.896856 0.717719
O O9 0.750000 0.750000 0.750000
O O10 0.772305 0.706172 0.000000
O O11 0.236950 0.500000 0.750000
O O12 0.212875 0.453777 0.500000
O O13 0.154846 0.440556 0.744697
O O14 0.500000 0.388103 0.250000
O O15 0.554953 0.371626 0.500000
O O16 0.567993 0.315893 0.272587
O O17 0.500000 0.245136 0.250000
O O18 0.553847 0.263109 0.500000
O O19 0.610372 0.914635 0.500000
O O20 0.545742 0.961989 0.679540
#
# Coordination Sequence:
#
# PCOD9528010 Si02
#       8
#    16  16  16  16  16  16  16   4
#     4  11  23  39  58  85 121 161 209 263 321 380
#     4  10  21  39  62  89 124 165 207 254 315 378
#     4  11  22  36  58  87 124 167 210 261 319 380
#     4  12  25  43  69  96 125 160 204 258 317 381
#     4   9  18  35  59  87 123 164 205 250 299 360
#     4   9  19  35  54  80 116 161 207 252 301 363
#     4  12  26  45  67  91 121 160 210 265 327 386
#     4  12  30  48  72  94 126 164 220 276 338 404
#
# _framework density 19.730132000000001
#
# number of rings (size 3 to 8) (size 9 to 14) (size 15 to 20)
#    0.000    1.379    2.069    3.517    0.966    6.069 
#    0.000    2.759    0.000    0.414    0.000    2.897 
#    0.000    0.000    0.000    0.000    0.000    0.000 
#
# Total GULP energy -323597.664134 kJ/mol
# GULP energy per Si atom -5579.270071 kJ/mol
# Density = 1.968523 g / cm^3
# Si number density = 19.730132 Si / 1000 Ang^3
#
#
#
# Elastic Constant Matrix: (Units=GPa)
#
#
# Indices 1 2 3 4 5 6 
#
# 1 117.7990 18.3828 47.8320 0.0000 0.0000 0.0000
# 2 18.3828 61.4871 31.7395 0.0000 0.0000 0.0000
# 3 47.8320 31.7395 100.6965 0.0000 0.0000 0.0000
# 4 0.0000 0.0000 0.0000 14.7035 0.0000 0.0000
# 5 0.0000 0.0000 0.0000 0.0000 22.9085 0.0000
# 6 0.0000 0.0000 0.0000 0.0000 0.0000 19.9836
#
#
#
# Elastic Compliance Matrix: (Units=1/GPa)
#
#
# Indices 1 2 3 4 5 6 
#
# 1 0.010541 -0.000677 -0.004794 0.000000 0.000000 0.000000
# 2 -0.000677 0.019467 -0.005815 0.000000 0.000000 0.000000
# 3 -0.004794 -0.005815 0.014041 0.000000 0.000000 0.000000
# 4 0.000000 0.000000 0.000000 0.068011 0.000000 0.000000
# 5 0.000000 0.000000 0.000000 0.000000 0.043652 0.000000
# 6 0.000000 0.000000 0.000000 0.000000 0.000000 0.050041
#
#
# Mechanical properties :
#
#
# Convention : Reuss Voigt Hill
#
# Bulk Modulus (GPa) = 46.55784 52.87678 49.71731
# Shear Modulus (GPa) = 21.23291 23.65433 22.44362
#
# Velocity S-wave (km/s) = 3.28406 3.46626 3.37639
# Velocity P-wave (km/s) = 6.16673 6.54814 6.36030
#
# Compressibility (1/GPa) = 0.02147866
#
# Stress axis : x y z
#
# Youngs Moduli (GPa) = 94.86590 51.36792 71.22155
#
# Poissons Ratio (x) = 0.03477 0.34142
# Poissons Ratio (y) = 0.06422 0.41412
# Poissons Ratio (z) = 0.45477 0.29868
#
# Static dielectric constant tensor:
#      x y z
#    x 1.703170 0.000000 0.000000 
#    y 0.000000 1.807360 0.000000 
#    z 0.000000 0.000000 1.661820 
# 
# From -- ./inp_files/7278.got.cif
#   From: 2010.05.17/outbox.cif.g08.bks.cpg/sg72_4_cif.got.tgz:7278.got - 2010.06.03 17:03:01.
