data_PCOD9528443
_publ_section_title
;
Structure prediction by ZEFSAII (Michael W. Deem and Ramdas Pophale) SiO2 
 PCOD9528443
Probable space group: I B A M
;
_chemical_formula_sum "Si O2"
_cell_formula_units_Z 72
_cell_length_a 9.463699
_cell_length_b 14.772109
_cell_length_c 24.803046
_cell_angle_alpha 90.000000
_cell_angle_beta 90.000000
_cell_angle_gamma 90.000000
_cell_volume 3467.435898
_symmetry_space_group_name_H-M "I B A M"
_symmetry_group_IT_number 72
_symmetry_cell_setting 'orthorhombic'
loop_
_space_group_symop_operation_xyz
x,y,z
-x,-y,z
x,-y,1/2-z
-x,y,1/2-z
-x,-y,-z
x,y,-z
-x,y,1/2+z
x,-y,1/2+z
1/2+x,1/2+y,1/2+z
1/2-x,1/2-y,1/2+z
1/2+x,1/2-y,-z
1/2-x,1/2+y,-z
1/2-x,1/2-y,1/2-z
1/2+x,1/2+y,1/2-z
1/2-x,1/2+y,z
1/2+x,1/2-y,z
loop_
_atom_site_type_symbol
_atom_site_label
_atom_site_fract_x
_atom_site_fract_y
_atom_site_fract_z
Si Si1 0.340238 0.830264 0.402722
Si Si2 0.332849 0.840313 0.938697
Si Si3 0.864975 0.307266 0.779169
Si Si4 0.835048 0.989895 0.371976
Si Si5 0.751690 0.500000 0.750000
O O1 0.497772 0.840575 0.427495
O O2 0.238162 0.758821 0.432269
O O3 0.367210 0.794189 0.342441
O O4 0.254716 0.923596 0.393225
O O5 0.246868 0.904851 0.897880
O O6 0.310832 0.872001 0.000000
O O7 0.750000 0.250000 0.750000
O O8 0.842653 0.411935 0.764212
O O9 0.000000 0.271346 0.750000
O O10 0.829185 0.983237 0.306506
O O11 0.000000 0.000000 0.387665
#
# Coordination Sequence:
#
# PCOD9528443 Si02
#       5
#    16  16  16  16   8
#     4  11  24  42  65  95 128 167 215 264 319 380
#     4  12  26  45  67  91 126 170 219 271 320 376
#     4  11  22  37  62  93 129 166 204 255 316 384
#     4  11  24  42  67  98 131 168 211 261 320 385
#     4  10  22  40  64  94 132 168 204 252 316 386
#
# _framework density 20.764623
#
# number of rings (size 3 to 8) (size 9 to 14) (size 15 to 20)
#    0.000    0.889    0.000    7.333    0.000   12.000 
#    0.000    0.000    0.000    0.000    0.000    0.000 
#    0.000    0.000    0.000    0.000    0.000    0.000 
#
# Total GULP energy -201064.830774 kJ/mol
# GULP energy per Si atom -5585.134188 kJ/mol
# Density = 2.071736 g / cm^3
# Si number density = 20.764623 Si / 1000 Ang^3
#
#
#
# Elastic Constant Matrix: (Units=GPa)
#
#
# Indices 1 2 3 4 5 6 
#
# 1 174.6135 35.3896 45.1601 0.0000 0.0000 0.0000
# 2 35.3896 61.4212 42.4414 0.0000 0.0000 0.0000
# 3 45.1601 42.4414 114.4986 0.0000 0.0000 0.0000
# 4 0.0000 0.0000 0.0000 28.7573 0.0000 0.0000
# 5 0.0000 0.0000 0.0000 0.0000 20.4801 0.0000
# 6 0.0000 0.0000 0.0000 0.0000 0.0000 57.7855
#
#
#
# Elastic Compliance Matrix: (Units=1/GPa)
#
#
# Indices 1 2 3 4 5 6 
#
# 1 0.006703 -0.002736 -0.001630 0.000000 0.000000 0.000000
# 2 -0.002736 0.023004 -0.007448 0.000000 0.000000 0.000000
# 3 -0.001630 -0.007448 0.012137 0.000000 0.000000 0.000000
# 4 0.000000 0.000000 0.000000 0.034774 0.000000 0.000000
# 5 0.000000 0.000000 0.000000 0.000000 0.048828 0.000000
# 6 0.000000 0.000000 0.000000 0.000000 0.000000 0.017305
#
#
# Mechanical properties :
#
#
# Convention : Reuss Voigt Hill
#
# Bulk Modulus (GPa) = 54.89338 66.27951 60.58644
# Shear Modulus (GPa) = 28.99395 36.57407 32.78401
#
# Velocity S-wave (km/s) = 3.74078 4.20141 3.97777
# Velocity P-wave (km/s) = 6.71948 7.45148 7.09492
#
# Compressibility (1/GPa) = 0.01821713
#
# Stress axis : x y z
#
# Youngs Moduli (GPa) = 149.18883 43.47118 82.39206
#
# Poissons Ratio (x) = 0.11894 0.13426
# Poissons Ratio (y) = 0.40819 0.61363
# Poissons Ratio (z) = 0.24311 0.32376
#
# Static dielectric constant tensor:
#      x y z
#    x 1.717410 0.000000 0.000000 
#    y 0.000000 1.735920 0.000000 
#    z 0.000000 0.000000 1.715400 
# 
# From -- ./inp_files/47046.got.cif
#   From: 2010.05.17/outbox.cif.g08.bks.cpg/sg72_24_cif.got.tgz:47046.got - 2010.06.03 17:03:01.
