data_PCOD9528854
_publ_section_title
;
Structure prediction by ZEFSAII (Michael W. Deem and Ramdas Pophale) SiO2 
 PCOD9528854
Probable space group: I B A M
;
_chemical_formula_sum "Si O2"
_cell_formula_units_Z 60
_cell_length_a 10.982787
_cell_length_b 9.665563
_cell_length_c 20.683189
_cell_angle_alpha 90.000000
_cell_angle_beta 90.000000
_cell_angle_gamma 90.000000
_cell_volume 2195.620198
_symmetry_space_group_name_H-M "I B A M"
_symmetry_group_IT_number 72
_symmetry_cell_setting 'orthorhombic'
loop_
_space_group_symop_operation_xyz
x,y,z
-x,-y,z
x,-y,1/2-z
-x,y,1/2-z
-x,-y,-z
x,y,-z
-x,y,1/2+z
x,-y,1/2+z
1/2+x,1/2+y,1/2+z
1/2-x,1/2-y,1/2+z
1/2+x,1/2-y,-z
1/2-x,1/2+y,-z
1/2-x,1/2-y,1/2-z
1/2+x,1/2+y,1/2-z
1/2-x,1/2+y,z
1/2+x,1/2-y,z
loop_
_atom_site_type_symbol
_atom_site_label
_atom_site_fract_x
_atom_site_fract_y
_atom_site_fract_z
Si Si1 0.099557 0.710997 0.922817
Si Si2 0.935598 0.651081 0.190879
Si Si3 0.815855 0.012007 0.610002
Si Si4 0.500000 0.500000 0.500000
Si Si5 0.786764 0.000000 0.250000
O O1 0.185962 0.580222 0.906660
O O2 0.175964 0.846747 0.902217
O O3 0.422762 0.222147 0.000000
O O4 0.909660 0.940491 0.943737
O O5 0.979878 0.704144 0.121829
O O6 0.801531 0.615783 0.217151
O O7 0.000000 0.500000 0.189209
O O8 0.000000 0.730929 0.250000
O O9 0.849489 0.050389 0.684095
#
# Coordination Sequence:
#
# PCOD9528854 Si02
#       5
#    16  16  16   4   8
#     4  12  24  48  78 118 154 210 257 323 406 471
#     4   9  18  42  73 112 145 181 260 335 368 470
#     4  12  27  50  77 112 159 208 261 329 397 471
#     4  12  28  54  60 112 168 194 252 330 394 466
#     4  10  23  51  78 112 142 205 264 329 374 484
#
# _framework density 27.32713
#
# number of rings (size 3 to 8) (size 9 to 14) (size 15 to 20)
#    0.000    1.333    8.000    0.000    0.000    4.267 
#    7.200    0.000    0.000    0.000    0.000    0.000 
#    0.000    0.000    0.000    0.000    0.000    0.000 
#
# Total GULP energy -167266.972818 kJ/mol
# GULP energy per Si atom -5575.565761 kJ/mol
# Density = 2.726493 g / cm^3
# Si number density = 27.327130 Si / 1000 Ang^3
#
#
#
# Elastic Constant Matrix: (Units=GPa)
#
#
# Indices 1 2 3 4 5 6 
#
# 1 96.9972 48.4444 114.0296 0.0000 0.0000 0.0000
# 2 48.4444 113.1296 62.7761 0.0000 0.0000 0.0000
# 3 114.0296 62.7761 400.0367 0.0000 0.0000 0.0000
# 4 0.0000 0.0000 0.0000 39.0150 0.0000 0.0000
# 5 0.0000 0.0000 0.0000 0.0000 83.5459 0.0000
# 6 0.0000 0.0000 0.0000 0.0000 0.0000 28.0914
#
#
#
# Elastic Compliance Matrix: (Units=1/GPa)
#
#
# Indices 1 2 3 4 5 6 
#
# 1 0.018032 -0.005334 -0.004303 0.000000 0.000000 0.000000
# 2 -0.005334 0.011260 -0.000247 0.000000 0.000000 0.000000
# 3 -0.004303 -0.000247 0.003765 0.000000 0.000000 0.000000
# 4 0.000000 0.000000 0.000000 0.025631 0.000000 0.000000
# 5 0.000000 0.000000 0.000000 0.000000 0.011969 0.000000
# 6 0.000000 0.000000 0.000000 0.000000 0.000000 0.035598
#
#
# Mechanical properties :
#
#
# Convention : Reuss Voigt Hill
#
# Bulk Modulus (GPa) = 75.24225 117.85154 96.54690
# Shear Modulus (GPa) = 38.32779 55.79135 47.05957
#
# Velocity S-wave (km/s) = 3.74913 4.52332 4.15430
# Velocity P-wave (km/s) = 6.80698 8.39645 7.64315
#
# Compressibility (1/GPa) = 0.01329041
#
# Stress axis : x y z
#
# Youngs Moduli (GPa) = 55.45645 88.80688 265.60235
#
# Poissons Ratio (x) = 0.47370 1.14288
# Poissons Ratio (y) = 0.29580 0.06550
# Poissons Ratio (z) = 0.23863 0.02190
#
# Static dielectric constant tensor:
#      x y z
#    x 2.219830 0.000000 0.000000 
#    y 0.000000 2.289150 0.000000 
#    z 0.000000 0.000000 2.077770 
# 
# From -- ./inp_files/47826.got.cif
#   From: 2010.05.17/outbox.cif.g08.bks.cpg/sg72_24_cif.got.tgz:47826.got - 2010.06.03 17:03:01.
