data_PCOD9528910
_publ_section_title
;
Structure prediction by ZEFSAII (Michael W. Deem and Ramdas Pophale) SiO2 
 PCOD9528910
Probable space group: I B A M
;
_chemical_formula_sum "Si O2"
_cell_formula_units_Z 116
_cell_length_a 7.510924
_cell_length_b 23.493335
_cell_length_c 28.658596
_cell_angle_alpha 90.000000
_cell_angle_beta 90.000000
_cell_angle_gamma 90.000000
_cell_volume 5056.999950
_symmetry_space_group_name_H-M "I B A M"
_symmetry_group_IT_number 72
_symmetry_cell_setting 'orthorhombic'
loop_
_space_group_symop_operation_xyz
x,y,z
-x,-y,z
x,-y,1/2-z
-x,y,1/2-z
-x,-y,-z
x,y,-z
-x,y,1/2+z
x,-y,1/2+z
1/2+x,1/2+y,1/2+z
1/2-x,1/2-y,1/2+z
1/2+x,1/2-y,-z
1/2-x,1/2+y,-z
1/2-x,1/2-y,1/2-z
1/2+x,1/2+y,1/2-z
1/2-x,1/2+y,z
1/2+x,1/2-y,z
loop_
_atom_site_type_symbol
_atom_site_label
_atom_site_fract_x
_atom_site_fract_y
_atom_site_fract_z
Si Si1 0.936892 0.317346 0.800455
Si Si2 0.949607 0.933471 0.300450
Si Si3 0.467066 0.064423 0.682093
Si Si4 0.468654 0.631592 0.390472
Si Si5 0.000000 0.500000 0.500000
Si Si6 0.224942 0.315938 0.554470
Si Si7 0.746350 0.232968 0.860245
Si Si8 0.922780 0.403982 0.422215
O O1 0.913685 0.385180 0.796855
O O2 0.087680 0.305449 0.840014
O O3 0.000000 0.296726 0.750000
O O4 0.776938 0.281526 0.821564
O O5 0.738869 0.924376 0.306342
O O6 0.030079 0.908228 0.348046
O O7 0.000000 0.908494 0.250000
O O8 0.000000 0.000000 0.299674
O O9 0.491384 0.071606 0.626930
O O10 0.500000 0.000000 0.696762
O O11 0.620002 0.641003 0.428745
O O12 0.413596 0.690610 0.365267
O O13 0.285633 0.610485 0.414407
O O14 0.048019 0.547747 0.459996
O O15 0.239408 0.301356 0.500000
O O16 0.256247 0.262778 0.589108
O O17 0.038919 0.348367 0.563973
#
# Coordination Sequence:
#
# PCOD9528910 Si02
#       8
#    16  16  16  16   4  16  16  16
#     4  12  26  44  73 108 143 197 248 310 377 447
#     4  10  24  44  70 104 143 192 242 305 368 441
#     4  11  24  46  72 101 147 195 243 302 380 440
#     4  11  26  47  73 106 151 193 244 313 373 443
#     4  12  24  44  86 104 146 194 248 320 364 436
#     4  12  27  45  75 109 142 194 249 299 379 444
#     4  12  23  50  68 105 152 188 248 313 365 444
#     4  11  24  48  71 108 145 188 243 311 369 437
#
# _framework density 22.938502
#
# number of rings (size 3 to 8) (size 9 to 14) (size 15 to 20)
#    0.000    0.690    6.897    0.414    2.897    4.690 
#    0.000    0.690    0.000    0.000    0.000    0.000 
#    0.000    0.000    0.000    0.000    0.000    0.000 
#
# Total GULP energy -323973.373896 kJ/mol
# GULP energy per Si atom -5585.747826 kJ/mol
# Density = 2.288629 g / cm^3
# Si number density = 22.938502 Si / 1000 Ang^3
#
#
#
# Elastic Constant Matrix: (Units=GPa)
#
#
# Indices 1 2 3 4 5 6 
#
# 1 69.4681 15.6743 30.3250 0.0000 0.0000 0.0000
# 2 15.6743 122.5178 47.2779 0.0000 0.0000 0.0000
# 3 30.3250 47.2779 201.2437 0.0000 0.0000 0.0000
# 4 0.0000 0.0000 0.0000 10.1967 0.0000 0.0000
# 5 0.0000 0.0000 0.0000 0.0000 11.8825 0.0000
# 6 0.0000 0.0000 0.0000 0.0000 0.0000 24.3000
#
#
#
# Elastic Compliance Matrix: (Units=1/GPa)
#
#
# Indices 1 2 3 4 5 6 
#
# 1 0.015566 -0.001195 -0.002065 0.000000 0.000000 0.000000
# 2 -0.001195 0.009067 -0.001950 0.000000 0.000000 0.000000
# 3 -0.002065 -0.001950 0.005738 0.000000 0.000000 0.000000
# 4 0.000000 0.000000 0.000000 0.098071 0.000000 0.000000
# 5 0.000000 0.000000 0.000000 0.000000 0.084158 0.000000
# 6 0.000000 0.000000 0.000000 0.000000 0.000000 0.041152
#
#
# Mechanical properties :
#
#
# Convention : Reuss Voigt Hill
#
# Bulk Modulus (GPa) = 50.11926 64.42047 57.26986
# Shear Modulus (GPa) = 18.46222 29.27266 23.86744
#
# Velocity S-wave (km/s) = 2.84008 3.57618 3.22917
# Velocity P-wave (km/s) = 5.71415 6.72287 6.23893
#
# Compressibility (1/GPa) = 0.01995241
#
# Stress axis : x y z
#
# Youngs Moduli (GPa) = 64.24231 110.28445 174.26392
#
# Poissons Ratio (x) = 0.13175 0.35985
# Poissons Ratio (y) = 0.07674 0.33985
# Poissons Ratio (z) = 0.13266 0.21508
#
# Static dielectric constant tensor:
#      x y z
#    x 1.938590 0.000000 0.000000 
#    y 0.000000 1.894260 0.000000 
#    z 0.000000 0.000000 1.805860 
# 
# From -- ./inp_files/50990.got.cif
#   From: 2010.05.17/outbox.cif.g08.bks.cpg/sg72_26_cif.got.tgz:50990.got - 2010.06.03 17:03:01.
