data_PCOD9528273
_publ_section_title
;
Structure prediction by ZEFSAII (Michael W. Deem and Ramdas Pophale) SiO2 
 PCOD9528273
Probable space group: I B A M
;
_chemical_formula_sum "Si O2"
_cell_formula_units_Z 68
_cell_length_a 17.827374
_cell_length_b 9.033991
_cell_length_c 17.502481
_cell_angle_alpha 90.000000
_cell_angle_beta 90.000000
_cell_angle_gamma 90.000000
_cell_volume 2818.815456
_symmetry_space_group_name_H-M "I B A M"
_symmetry_group_IT_number 72
_symmetry_cell_setting 'orthorhombic'
loop_
_space_group_symop_operation_xyz
x,y,z
-x,-y,z
x,-y,1/2-z
-x,y,1/2-z
-x,-y,-z
x,y,-z
-x,y,1/2+z
x,-y,1/2+z
1/2+x,1/2+y,1/2+z
1/2-x,1/2-y,1/2+z
1/2+x,1/2-y,-z
1/2-x,1/2+y,-z
1/2-x,1/2-y,1/2-z
1/2+x,1/2+y,1/2-z
1/2-x,1/2+y,z
1/2+x,1/2-y,z
loop_
_atom_site_type_symbol
_atom_site_label
_atom_site_fract_x
_atom_site_fract_y
_atom_site_fract_z
Si Si1 0.088531 0.267303 0.691306
Si Si2 0.500000 0.500000 0.250000
Si Si3 0.642146 0.841413 0.500000
Si Si4 0.272257 0.447774 0.500000
Si Si5 0.781809 0.072075 0.833359
Si Si6 0.101804 0.581083 0.350061
O O1 0.047794 0.109146 0.695040
O O2 0.175061 0.227902 0.672454
O O3 0.071318 0.414208 0.642936
O O4 0.076400 0.331560 0.776203
O O5 0.710184 0.725600 0.500000
O O6 0.685493 0.999474 0.500000
O O7 0.591913 0.827453 0.573837
O O8 0.303606 0.503078 0.416790
O O9 0.692125 0.078202 0.837591
O O10 0.799935 0.000000 0.750000
#
# Coordination Sequence:
#
# PCOD9528273 Si02
#       6
#    16   4   8   8  16  16
#     4  11  23  41  64  93 122 174 216 276 317 393
#     4  12  28  42  68  90 120 162 242 282 328 368
#     4  10  22  36  56  99 139 176 197 255 326 411
#     4  10  24  32  58  97 146 174 204 252 327 400
#     4  11  20  36  65  97 136 164 205 259 326 403
#     4  10  23  37  67  96 134 167 208 260 338 394
#
# _framework density 24.123608999999998
#
# number of rings (size 3 to 8) (size 9 to 14) (size 15 to 20)
#    0.000    1.412    3.529    2.118   13.176    1.882 
#    0.000    0.000    0.000    7.765    0.000    0.000 
#    0.000    0.000    0.000    0.000    0.000    0.000 
#
# Total GULP energy -189662.677467 kJ/mol
# GULP energy per Si atom -5578.314043 kJ/mol
# Density = 2.406870 g / cm^3
# Si number density = 24.123609 Si / 1000 Ang^3
#
#
#
# Elastic Constant Matrix: (Units=GPa)
#
#
# Indices 1 2 3 4 5 6 
#
# 1 77.4281 45.5868 11.1365 0.0000 0.0000 0.0000
# 2 45.5868 116.0325 24.6654 0.0000 0.0000 0.0000
# 3 11.1365 24.6654 156.1360 0.0000 0.0000 0.0000
# 4 0.0000 0.0000 0.0000 18.3862 0.0000 0.0000
# 5 0.0000 0.0000 0.0000 0.0000 12.8894 0.0000
# 6 0.0000 0.0000 0.0000 0.0000 0.0000 40.6018
#
#
#
# Elastic Compliance Matrix: (Units=1/GPa)
#
#
# Indices 1 2 3 4 5 6 
#
# 1 0.016806 -0.006568 -0.000161 0.000000 0.000000 0.000000
# 2 -0.006568 0.011485 -0.001346 0.000000 0.000000 0.000000
# 3 -0.000161 -0.001346 0.006629 0.000000 0.000000 0.000000
# 4 0.000000 0.000000 0.000000 0.054389 0.000000 0.000000
# 5 0.000000 0.000000 0.000000 0.000000 0.077583 0.000000
# 6 0.000000 0.000000 0.000000 0.000000 0.000000 0.024629
#
#
# Mechanical properties :
#
#
# Convention : Reuss Voigt Hill
#
# Bulk Modulus (GPa) = 53.27977 56.93046 55.10511
# Shear Modulus (GPa) = 23.37246 32.25601 27.81424
#
# Velocity S-wave (km/s) = 3.11603 3.66062 3.39925
# Velocity P-wave (km/s) = 5.92286 6.44342 6.18861
#
# Compressibility (1/GPa) = 0.01876885
#
# Stress axis : x y z
#
# Youngs Moduli (GPa) = 59.50409 87.07068 150.85766
#
# Poissons Ratio (x) = 0.57191 0.02429
# Poissons Ratio (y) = 0.39084 0.20303
# Poissons Ratio (z) = 0.00958 0.11718
#
# Static dielectric constant tensor:
#      x y z
#    x 2.046870 0.000000 0.000000 
#    y 0.000000 1.947810 0.000000 
#    z 0.000000 0.000000 1.964750 
# 
# From -- ./inp_files/27844.got.cif
#   From: 2010.05.17/outbox.cif.g08.bks.cpg/sg72_14_cif.got.tgz:27844.got - 2010.06.03 17:03:01.
