data_PCOD9528702
_publ_section_title
;
Structure prediction by ZEFSAII (Michael W. Deem and Ramdas Pophale) SiO2 
 PCOD9528702
Probable space group: I B A M
;
_chemical_formula_sum "Si O2"
_cell_formula_units_Z 92
_cell_length_a 24.163740
_cell_length_b 9.064518
_cell_length_c 24.797832
_cell_angle_alpha 90.000000
_cell_angle_beta 90.000000
_cell_angle_gamma 90.000000
_cell_volume 5431.535010
_symmetry_space_group_name_H-M "I B A M"
_symmetry_group_IT_number 72
_symmetry_cell_setting 'orthorhombic'
loop_
_space_group_symop_operation_xyz
x,y,z
-x,-y,z
x,-y,1/2-z
-x,y,1/2-z
-x,-y,-z
x,y,-z
-x,y,1/2+z
x,-y,1/2+z
1/2+x,1/2+y,1/2+z
1/2-x,1/2-y,1/2+z
1/2+x,1/2-y,-z
1/2-x,1/2+y,-z
1/2-x,1/2-y,1/2-z
1/2+x,1/2+y,1/2-z
1/2-x,1/2+y,z
1/2+x,1/2-y,z
loop_
_atom_site_type_symbol
_atom_site_label
_atom_site_fract_x
_atom_site_fract_y
_atom_site_fract_z
Si Si1 0.480357 0.335114 0.615053
Si Si2 0.913122 0.407417 0.000000
Si Si3 0.037750 0.278923 0.000000
Si Si4 0.327482 0.229006 0.785089
Si Si5 0.500000 0.000000 0.750000
Si Si6 0.906098 0.352604 0.879163
Si Si7 0.906775 0.657802 0.815507
Si Si8 0.756146 0.000000 0.750000
O O1 0.500000 0.500000 0.625015
O O2 0.459984 0.315503 0.553890
O O3 0.531642 0.218007 0.623389
O O4 0.428077 0.297488 0.652057
O O5 0.919375 0.585094 0.000000
O O6 0.889483 0.353317 0.057572
O O7 0.976361 0.349709 0.000000
O O8 0.368407 0.232220 0.835815
O O9 0.360177 0.192595 0.728968
O O10 0.294228 0.380151 0.779181
O O11 0.283355 0.095572 0.789163
O O12 0.540412 0.896388 0.717572
O O13 0.900094 0.521181 0.857233
#
# Coordination Sequence:
#
# PCOD9528702 Si02
#       8
#    16   8   8  16   4  16  16   8
#     4  11  22  31  49  80 119 152 182 221 261 311
#     4   9  18  30  56  78 102 149 195 219 246 318
#     4   9  17  32  48  72 110 157 195 213 242 299
#     4  11  22  39  59  83 106 139 178 231 285 336
#     4  12  18  32  50  74 112 152 176 204 250 334
#     4  11  19  36  55  80 109 150 183 219 264 324
#     4  12  19  33  53  78 110 146 181 215 271 331
#     4  10  23  40  60  82 102 134 181 230 288 336
#
# _framework density 16.938122
#
# number of rings (size 3 to 8) (size 9 to 14) (size 15 to 20)
#    0.000    1.217    6.957    0.261    2.435    0.000 
#    0.000    0.870    0.000    1.043    0.000    0.000 
#    0.000    0.000    0.000    0.000    0.000    0.000 
#
# Total GULP energy -256201.127864 kJ/mol
# GULP energy per Si atom -5569.589736 kJ/mol
# Density = 1.689957 g / cm^3
# Si number density = 16.938122 Si / 1000 Ang^3
#
#
#
# Elastic Constant Matrix: (Units=GPa)
#
#
# Indices 1 2 3 4 5 6 
#
# 1 57.1002 24.6904 45.8638 0.0000 0.0000 0.0000
# 2 24.6904 80.7940 30.0890 0.0000 0.0000 0.0000
# 3 45.8638 30.0890 125.4370 0.0000 0.0000 0.0000
# 4 0.0000 0.0000 0.0000 11.1909 0.0000 0.0000
# 5 0.0000 0.0000 0.0000 0.0000 -104.3503 0.0000
# 6 0.0000 0.0000 0.0000 0.0000 0.0000 36.3761
#
#
#
# Elastic Compliance Matrix: (Units=1/GPa)
#
#
# Indices 1 2 3 4 5 6 
#
# 1 0.026466 -0.004924 -0.008496 0.000000 0.000000 0.000000
# 2 -0.004924 0.014507 -0.001680 0.000000 0.000000 0.000000
# 3 -0.008496 -0.001680 0.011481 0.000000 0.000000 0.000000
# 4 0.000000 0.000000 0.000000 0.089358 0.000000 0.000000
# 5 0.000000 0.000000 0.000000 0.000000 -0.009583 0.000000
# 6 0.000000 0.000000 0.000000 0.000000 0.000000 0.027491
#
#
# Mechanical properties :
#
#
# Convention : Reuss Voigt Hill
#
# Bulk Modulus (GPa) = 44.93120 51.62418 48.27769
# Shear Modulus (GPa) = 25.33721 -0.51080 12.41321
#
# Velocity S-wave (km/s) = 3.87184 -0.54975 2.71007
# Velocity P-wave (km/s) = 6.82440 5.49011 6.19329
#
# Compressibility (1/GPa) = 0.02225625
#
# Stress axis : x y z
#
# Youngs Moduli (GPa) = 37.78414 68.93026 87.09793
#
# Poissons Ratio (x) = 0.33941 0.73996
# Poissons Ratio (y) = 0.18605 0.14629
# Poissons Ratio (z) = 0.32100 0.11577
#
# Static dielectric constant tensor:
#      x y z
#    x 1.564060 0.000000 0.000000 
#    y 0.000000 1.564920 0.000000 
#    z 0.000000 0.000000 1.583640 
# 
# From -- ./inp_files/45705.got.cif
#   From: 2010.05.17/outbox.cif.g08.bks.cpg/sg72_23_cif.got.tgz:45705.got - 2010.06.03 17:03:01.
