data_PCOD9528607
_publ_section_title
;
Structure prediction by ZEFSAII (Michael W. Deem and Ramdas Pophale) SiO2 
 PCOD9528607
Probable space group: I B A M
;
_chemical_formula_sum "Si O2"
_cell_formula_units_Z 40
_cell_length_a 13.483418
_cell_length_b 8.660552
_cell_length_c 14.850312
_cell_angle_alpha 90.000000
_cell_angle_beta 90.000000
_cell_angle_gamma 90.000000
_cell_volume 1734.127998
_symmetry_space_group_name_H-M "I B A M"
_symmetry_group_IT_number 72
_symmetry_cell_setting 'orthorhombic'
loop_
_space_group_symop_operation_xyz
x,y,z
-x,-y,z
x,-y,1/2-z
-x,y,1/2-z
-x,-y,-z
x,y,-z
-x,y,1/2+z
x,-y,1/2+z
1/2+x,1/2+y,1/2+z
1/2-x,1/2-y,1/2+z
1/2+x,1/2-y,-z
1/2-x,1/2+y,-z
1/2-x,1/2-y,1/2-z
1/2+x,1/2+y,1/2-z
1/2-x,1/2+y,z
1/2+x,1/2-y,z
loop_
_atom_site_type_symbol
_atom_site_label
_atom_site_fract_x
_atom_site_fract_y
_atom_site_fract_z
Si Si1 0.000000 0.500000 0.250000
Si Si2 0.000000 0.000000 0.250000
Si Si3 0.820990 0.024468 0.652728
Si Si4 0.126951 0.679987 0.098886
O O1 0.933774 0.397491 0.180384
O O2 0.925678 0.902954 0.186100
O O3 0.855420 0.862152 0.613154
O O4 0.770461 0.000000 0.750000
O O5 0.739399 0.113204 0.598266
O O6 0.081483 0.652931 0.000000
#
# Coordination Sequence:
#
# PCOD9528607 Si02
#       4
#     4   4  16  16
#     4  12  26  44  70  92 142 180 214 280 330 392
#     4   8  20  36  74  88 122 182 206 262 340 382
#     4  10  22  43  68  95 133 172 216 271 332 389
#     4  12  25  43  69 101 132 176 226 271 330 398
#
# _framework density 23.066348999999999
#
# number of rings (size 3 to 8) (size 9 to 14) (size 15 to 20)
#    1.200    0.000    2.000    4.200    0.000    0.000 
#    0.000    8.000    0.000    0.000    0.000    0.000 
#    0.000    0.000    0.000    0.000    0.000    0.000 
#
# Total GULP energy -111360.065448 kJ/mol
# GULP energy per Si atom -5568.003272 kJ/mol
# Density = 2.301385 g / cm^3
# Si number density = 23.066349 Si / 1000 Ang^3
#
#
#
# Elastic Constant Matrix: (Units=GPa)
#
#
# Indices 1 2 3 4 5 6 
#
# 1 134.7815 61.3105 46.5169 0.0000 0.0000 0.0000
# 2 61.3105 91.7922 40.7507 0.0000 0.0000 0.0000
# 3 46.5169 40.7507 185.3219 0.0000 0.0000 0.0000
# 4 0.0000 0.0000 0.0000-1058.6557 0.0000 0.0000
# 5 0.0000 0.0000 0.0000 0.0000 14.3674 0.0000
# 6 0.0000 0.0000 0.0000 0.0000 0.0000 89.4838
#
#
#
# Elastic Compliance Matrix: (Units=1/GPa)
#
#
# Indices 1 2 3 4 5 6 
#
# 1 0.010917 -0.006732 -0.001260 0.000000 0.000000 0.000000
# 2 -0.006732 0.016224 -0.001878 0.000000 0.000000 0.000000
# 3 -0.001260 -0.001878 0.006125 0.000000 0.000000 0.000000
# 4 0.000000 0.000000 0.000000 -0.000945 0.000000 0.000000
# 5 0.000000 0.000000 0.000000 0.000000 0.069602 0.000000
# 6 0.000000 0.000000 0.000000 0.000000 0.000000 0.011175
#
#
# Mechanical properties :
#
#
# Convention : Reuss Voigt Hill
#
# Bulk Modulus (GPa) = 73.92834 78.78353 76.35593
# Shear Modulus (GPa) = 36.40401 -173.40639 -68.50119
#
# Velocity S-wave (km/s) = 3.97700 -8.67989 -5.45545
# Velocity P-wave (km/s) = 7.29442 8.13785 2.55107
#
# Compressibility (1/GPa) = 0.01352661
#
# Stress axis : x y z
#
# Youngs Moduli (GPa) = 91.60344 61.63533 163.26174
#
# Poissons Ratio (x) = 0.41494 0.20567
# Poissons Ratio (y) = 0.61670 0.30657
# Poissons Ratio (z) = 0.11540 0.11574
#
# Static dielectric constant tensor:
#      x y z
#    x 1.907030 0.000000 0.000000 
#    y 0.000000 1.913450 0.000000 
#    z 0.000000 0.000000 2.205750 
# 
# From -- ./inp_files/20898.got.cif
#   From: 2010.05.17/outbox.cif.g08.bks.cpg/sg72_11_cif.got.tgz:20898.got - 2010.06.03 17:03:01.
