data_PCOD9528153
_publ_section_title
;
Structure prediction by ZEFSAII (Michael W. Deem and Ramdas Pophale) SiO2 
 PCOD9528153
Probable space group: I B A M
;
_chemical_formula_sum "Si O2"
_cell_formula_units_Z 72
_cell_length_a 9.104400
_cell_length_b 13.894931
_cell_length_c 23.535456
_cell_angle_alpha 90.000000
_cell_angle_beta 90.000000
_cell_angle_gamma 90.000000
_cell_volume 2977.353092
_symmetry_space_group_name_H-M "I B A M"
_symmetry_group_IT_number 72
_symmetry_cell_setting 'orthorhombic'
loop_
_space_group_symop_operation_xyz
x,y,z
-x,-y,z
x,-y,1/2-z
-x,y,1/2-z
-x,-y,-z
x,y,-z
-x,y,1/2+z
x,-y,1/2+z
1/2+x,1/2+y,1/2+z
1/2-x,1/2-y,1/2+z
1/2+x,1/2-y,-z
1/2-x,1/2+y,-z
1/2-x,1/2-y,1/2-z
1/2+x,1/2+y,1/2-z
1/2-x,1/2+y,z
1/2+x,1/2-y,z
loop_
_atom_site_type_symbol
_atom_site_label
_atom_site_fract_x
_atom_site_fract_y
_atom_site_fract_z
Si Si1 0.885670 0.823938 0.699045
Si Si2 0.000000 0.000000 0.130007
Si Si3 0.555884 0.862830 0.311137
Si Si4 0.452398 0.859508 0.934567
Si Si5 0.304875 0.349688 0.563078
O O1 0.712469 0.819599 0.706884
O O2 0.000000 0.838315 0.750000
O O3 0.909519 0.920124 0.663531
O O4 0.941295 0.722713 0.674527
O O5 0.879995 0.932169 0.099780
O O6 0.500000 0.903967 0.250000
O O7 0.578690 0.911444 0.373424
O O8 0.367010 0.757847 0.926442
O O9 0.628719 0.849456 0.936648
O O10 0.410435 0.894474 0.000000
O O11 0.356265 0.373368 0.500000
#
# Coordination Sequence:
#
# PCOD9528153 Si02
#       5
#    16   8  16  16  16
#     4  11  24  41  65  94 124 170 211 270 321 383
#     4  12  24  38  64  86 142 162 210 258 340 386
#     4  11  22  40  72  95 123 165 224 268 314 379
#     4  10  21  40  68  97 125 165 224 270 312 379
#     4  10  22  40  66  94 126 171 218 268 321 381
#
# _framework density 24.182554
#
# number of rings (size 3 to 8) (size 9 to 14) (size 15 to 20)
#    0.000    1.333    2.222    4.667    3.111    0.000 
#    0.000    2.222    0.000    2.667    0.000    0.000 
#    0.000    0.000    0.000    0.000    0.000    0.000 
#
# Total GULP energy -200562.380337 kJ/mol
# GULP energy per Si atom -5571.177232 kJ/mol
# Density = 2.412751 g / cm^3
# Si number density = 24.182554 Si / 1000 Ang^3
#
#
#
# Elastic Constant Matrix: (Units=GPa)
#
#
# Indices 1 2 3 4 5 6 
#
# 1 124.3704 0.5941 15.2876 0.0000 0.0000 0.0000
# 2 0.5941 86.2798 18.1728 0.0000 0.0000 0.0000
# 3 15.2876 18.1728 194.0386 0.0000 0.0000 0.0000
# 4 0.0000 0.0000 0.0000 -54.2868 0.0000 0.0000
# 5 0.0000 0.0000 0.0000 0.0000 7.6689 0.0000
# 6 0.0000 0.0000 0.0000 0.0000 0.0000 6.1973
#
#
#
# Elastic Compliance Matrix: (Units=1/GPa)
#
#
# Indices 1 2 3 4 5 6 
#
# 1 0.008120 0.000080 -0.000647 0.000000 0.000000 0.000000
# 2 0.000080 0.011824 -0.001114 0.000000 0.000000 0.000000
# 3 -0.000647 -0.001114 0.005309 0.000000 0.000000 0.000000
# 4 0.000000 0.000000 0.000000 -0.018421 0.000000 0.000000
# 5 0.000000 0.000000 0.000000 0.000000 0.130397 0.000000
# 6 0.000000 0.000000 0.000000 0.000000 0.000000 0.161362
#
#
# Mechanical properties :
#
#
# Convention : Reuss Voigt Hill
#
# Bulk Modulus (GPa) = 45.67949 52.53310 49.10629
# Shear Modulus (GPa) = 16.16821 16.62482 16.39652
#
# Velocity S-wave (km/s) = 2.58852 2.62481 2.60673
# Velocity P-wave (km/s) = 5.27867 5.56389 5.42316
#
# Compressibility (1/GPa) = 0.02189167
#
# Stress axis : x y z
#
# Youngs Moduli (GPa) = 123.15765 84.57214 188.36239
#
# Poissons Ratio (x) = -0.00680 0.12192
# Poissons Ratio (y) = -0.00990 0.20979
# Poissons Ratio (z) = 0.07971 0.09419
#
# Static dielectric constant tensor:
#      x y z
#    x 1.859290 0.000000 0.000000 
#    y 0.000000 1.948010 0.000000 
#    z 0.000000 0.000000 2.092360 
# 
# From -- ./inp_files/47039.got.cif
#   From: 2010.05.17/outbox.cif.g08.bks.cpg/sg72_24_cif.got.tgz:47039.got - 2010.06.03 17:03:01.
