data_PCOD9528880
_publ_section_title
;
Structure prediction by ZEFSAII (Michael W. Deem and Ramdas Pophale) SiO2 
 PCOD9528880
Probable space group: I B A M
;
_chemical_formula_sum "Si O2"
_cell_formula_units_Z 88
_cell_length_a 27.727739
_cell_length_b 10.711249
_cell_length_c 15.566342
_cell_angle_alpha 90.000000
_cell_angle_beta 90.000000
_cell_angle_gamma 90.000000
_cell_volume 4623.183597
_symmetry_space_group_name_H-M "I B A M"
_symmetry_group_IT_number 72
_symmetry_cell_setting 'orthorhombic'
loop_
_space_group_symop_operation_xyz
x,y,z
-x,-y,z
x,-y,1/2-z
-x,y,1/2-z
-x,-y,-z
x,y,-z
-x,y,1/2+z
x,-y,1/2+z
1/2+x,1/2+y,1/2+z
1/2-x,1/2-y,1/2+z
1/2+x,1/2-y,-z
1/2-x,1/2+y,-z
1/2-x,1/2-y,1/2-z
1/2+x,1/2+y,1/2-z
1/2-x,1/2+y,z
1/2+x,1/2-y,z
loop_
_atom_site_type_symbol
_atom_site_label
_atom_site_fract_x
_atom_site_fract_y
_atom_site_fract_z
Si Si1 0.431281 0.381677 0.903736
Si Si2 0.614512 0.732358 0.740597
Si Si3 0.779124 0.797903 0.166258
Si Si4 0.352907 0.000000 0.250000
Si Si5 0.777254 0.465947 0.402233
Si Si6 0.459276 0.674131 0.095695
O O1 0.397077 0.349617 0.824400
O O2 0.483323 0.315660 0.891441
O O3 0.444771 0.527770 0.903669
O O4 0.412777 0.351225 0.000000
O O5 0.664806 0.695786 0.694171
O O6 0.571811 0.728238 0.671903
O O7 0.618523 0.875273 0.768493
O O8 0.750000 0.750000 0.250000
O O9 0.767140 0.683072 0.101992
O O10 0.761832 0.932581 0.131706
O O11 0.319888 0.978933 0.166636
O O12 0.789400 0.498546 0.500000
O O13 0.447509 0.722696 0.000000
#
# Coordination Sequence:
#
# PCOD9528880 Si02
#       6
#    16  16  16   8  16  16
#     4   9  19  37  59  88 118 150 188 239 298 356
#     4  11  21  36  61  82 116 156 192 240 292 343
#     4  11  22  42  59  86 126 156 201 253 298 350
#     4  10  24  42  55  80 120 158 199 244 282 358
#     4  11  22  41  64  83 114 165 203 245 301 351
#     4   9  19  36  59  87 120 148 189 242 298 355
#
# _framework density 19.034503000000001
#
# number of rings (size 3 to 8) (size 9 to 14) (size 15 to 20)
#    0.000    1.818    3.636    2.727    0.000    8.727 
#    0.000    3.636    0.000    2.182    0.000    0.000 
#    0.000    0.000    0.000    0.000    0.000    0.000 
#
# Total GULP energy -245262.512236 kJ/mol
# GULP energy per Si atom -5574.148005 kJ/mol
# Density = 1.899118 g / cm^3
# Si number density = 19.034503 Si / 1000 Ang^3
#
#
#
# Elastic Constant Matrix: (Units=GPa)
#
#
# Indices 1 2 3 4 5 6 
#
# 1 35.9893 24.1414 30.0610 0.0000 0.0000 0.0000
# 2 24.1414 64.1244 20.4919 0.0000 0.0000 0.0000
# 3 30.0610 20.4919 117.5070 0.0000 0.0000 0.0000
# 4 0.0000 0.0000 0.0000 18.2541 0.0000 0.0000
# 5 0.0000 0.0000 0.0000 0.0000 -17.9814 0.0000
# 6 0.0000 0.0000 0.0000 0.0000 0.0000 27.3383
#
#
#
# Elastic Compliance Matrix: (Units=1/GPa)
#
#
# Indices 1 2 3 4 5 6 
#
# 1 0.044642 -0.013934 -0.008991 0.000000 0.000000 0.000000
# 2 -0.013934 0.020864 -0.000074 0.000000 0.000000 0.000000
# 3 -0.008991 -0.000074 0.010823 0.000000 0.000000 0.000000
# 4 0.000000 0.000000 0.000000 0.054782 0.000000 0.000000
# 5 0.000000 0.000000 0.000000 0.000000 -0.055613 0.000000
# 6 0.000000 0.000000 0.000000 0.000000 0.000000 0.036579
#
#
# Mechanical properties :
#
#
# Convention : Reuss Voigt Hill
#
# Bulk Modulus (GPa) = 32.96752 40.77879 36.87316
# Shear Modulus (GPa) = 29.72913 15.05062 22.38988
#
# Velocity S-wave (km/s) = 3.95632 2.81499 3.43341
# Velocity P-wave (km/s) = 6.18283 5.66001 5.92719
#
# Compressibility (1/GPa) = 0.03033289
#
# Stress axis : x y z
#
# Youngs Moduli (GPa) = 22.40020 47.92930 92.39545
#
# Poissons Ratio (x) = 0.66784 0.83070
# Poissons Ratio (y) = 0.31212 0.00682
# Poissons Ratio (z) = 0.20139 0.00354
#
# Static dielectric constant tensor:
#      x y z
#    x 1.667260 0.000000 0.000000 
#    y 0.000000 1.551230 0.000000 
#    z 0.000000 0.000000 1.686280 
# 
# From -- ./inp_files/20319.got.cif
#   From: 2010.05.17/outbox.cif.g08.bks.cpg/sg72_11_cif.got.tgz:20319.got - 2010.06.03 17:03:01.
