data_PCOD9528286
_publ_section_title
;
Structure prediction by ZEFSAII (Michael W. Deem and Ramdas Pophale) SiO2 
 PCOD9528286
Probable space group: I B A M
;
_chemical_formula_sum "Si O2"
_cell_formula_units_Z 64
_cell_length_a 29.050404
_cell_length_b 5.138154
_cell_length_c 21.115668
_cell_angle_alpha 90.000000
_cell_angle_beta 90.000000
_cell_angle_gamma 90.000000
_cell_volume 3151.839676
_symmetry_space_group_name_H-M "I B A M"
_symmetry_group_IT_number 72
_symmetry_cell_setting 'orthorhombic'
loop_
_space_group_symop_operation_xyz
x,y,z
-x,-y,z
x,-y,1/2-z
-x,y,1/2-z
-x,-y,-z
x,y,-z
-x,y,1/2+z
x,-y,1/2+z
1/2+x,1/2+y,1/2+z
1/2-x,1/2-y,1/2+z
1/2+x,1/2-y,-z
1/2-x,1/2+y,-z
1/2-x,1/2-y,1/2-z
1/2+x,1/2+y,1/2-z
1/2-x,1/2+y,z
1/2+x,1/2-y,z
loop_
_atom_site_type_symbol
_atom_site_label
_atom_site_fract_x
_atom_site_fract_y
_atom_site_fract_z
Si Si1 0.135900 0.236634 0.571532
Si Si2 0.051672 0.573769 0.865513
Si Si3 0.275912 0.069171 0.423296
Si Si4 0.903724 0.939984 0.181869
O O1 0.145513 0.145290 0.500000
O O2 0.086220 0.378079 0.575780
O O3 0.175216 0.439123 0.591813
O O4 0.129900 0.010794 0.623475
O O5 0.075256 0.343687 0.825647
O O6 0.000000 0.500000 0.881905
O O7 0.055864 0.844236 0.827498
O O8 0.274636 0.080827 0.500000
O O9 0.237871 0.856724 0.401780
O O10 0.882459 0.000000 0.250000
#
# Coordination Sequence:
#
# PCOD9528286 Si02
#       4
#    16  16  16  16
#     4   9  22  37  58  85 118 150 184 237 292 336
#     4  10  22  37  57  84 110 151 192 235 277 333
#     4   9  18  32  53  80 108 142 186 231 278 334
#     4  10  22  38  58  82 112 152 193 236 275 332
#
# _framework density 20.305600999999999
#
# number of rings (size 3 to 8) (size 9 to 14) (size 15 to 20)
#    1.500    1.000    0.000    1.500    3.500    4.500 
#    0.000    1.250    0.000    1.500    0.000    0.000 
#    0.000    0.000    0.000    0.000    0.000    0.000 
#
# Total GULP energy -178146.081029 kJ/mol
# GULP energy per Si atom -5567.065032 kJ/mol
# Density = 2.025938 g / cm^3
# Si number density = 20.305601 Si / 1000 Ang^3
#
#
#
# Elastic Constant Matrix: (Units=GPa)
#
#
# Indices 1 2 3 4 5 6 
#
# 1 64.3170 -10.5100 18.0405 0.0000 0.0000 0.0000
# 2 -10.5100 78.1963 2.9526 0.0000 0.0000 0.0000
# 3 18.0405 2.9526 68.1862 0.0000 0.0000 0.0000
# 4 0.0000 0.0000 0.0000 15.6292 0.0000 0.0000
# 5 0.0000 0.0000 0.0000 0.0000 -5.6776 0.0000
# 6 0.0000 0.0000 0.0000 0.0000 0.0000 24.4683
#
#
#
# Elastic Compliance Matrix: (Units=1/GPa)
#
#
# Indices 1 2 3 4 5 6 
#
# 1 0.017268 0.002497 -0.004677 0.000000 0.000000 0.000000
# 2 0.002497 0.013170 -0.001231 0.000000 0.000000 0.000000
# 3 -0.004677 -0.001231 0.015956 0.000000 0.000000 0.000000
# 4 0.000000 0.000000 0.000000 0.063983 0.000000 0.000000
# 5 0.000000 0.000000 0.000000 0.000000 -0.176131 0.000000
# 6 0.000000 0.000000 0.000000 0.000000 0.000000 0.040869
#
#
# Mechanical properties :
#
#
# Convention : Reuss Voigt Hill
#
# Bulk Modulus (GPa) = 25.26912 25.74062 25.50487
# Shear Modulus (GPa) = -1026.28503 20.23176 -503.02664
#
# Velocity S-wave (km/s) = -22.50593 3.15995 -15.75645
# Velocity P-wave (km/s) = 25.74654 5.10077 17.84470
#
# Compressibility (1/GPa) = 0.03957399
#
# Stress axis : x y z
#
# Youngs Moduli (GPa) = 57.91082 75.92732 62.67074
#
# Poissons Ratio (x) = -0.18963 0.29310
# Poissons Ratio (y) = -0.14463 0.07715
# Poissons Ratio (z) = 0.27084 0.09347
#
# Static dielectric constant tensor:
#      x y z
#    x 1.742690 0.000000 0.000000 
#    y 0.000000 1.745840 0.000000 
#    z 0.000000 0.000000 1.726050 
# 
# From -- ./inp_files/27024.got.cif
#   From: 2010.05.17/outbox.cif.g08.bks.cpg/sg72_14_cif.got.tgz:27024.got - 2010.06.03 17:03:01.
