data_PCOD9528663
_publ_section_title
;
Structure prediction by ZEFSAII (Michael W. Deem and Ramdas Pophale) SiO2 
 PCOD9528663
Probable space group: I B A M
;
_chemical_formula_sum "Si O2"
_cell_formula_units_Z 48
_cell_length_a 7.897613
_cell_length_b 17.329397
_cell_length_c 15.049834
_cell_angle_alpha 90.000000
_cell_angle_beta 90.000000
_cell_angle_gamma 90.000000
_cell_volume 2059.733390
_symmetry_space_group_name_H-M "I B A M"
_symmetry_group_IT_number 72
_symmetry_cell_setting 'orthorhombic'
loop_
_space_group_symop_operation_xyz
x,y,z
-x,-y,z
x,-y,1/2-z
-x,y,1/2-z
-x,-y,-z
x,y,-z
-x,y,1/2+z
x,-y,1/2+z
1/2+x,1/2+y,1/2+z
1/2-x,1/2-y,1/2+z
1/2+x,1/2-y,-z
1/2-x,1/2+y,-z
1/2-x,1/2-y,1/2-z
1/2+x,1/2+y,1/2-z
1/2-x,1/2+y,z
1/2+x,1/2-y,z
loop_
_atom_site_type_symbol
_atom_site_label
_atom_site_fract_x
_atom_site_fract_y
_atom_site_fract_z
Si Si1 0.244495 0.514095 0.601010
Si Si2 0.431482 0.372796 0.000000
Si Si3 0.435210 0.876553 0.343401
Si Si4 0.218106 0.282979 0.500000
O O1 0.221160 0.481545 0.500000
O O2 0.404737 0.570620 0.584782
O O3 0.216044 0.440785 0.664349
O O4 0.090953 0.572362 0.620650
O O5 0.283347 0.309185 0.000000
O O6 0.600257 0.323775 0.000000
O O7 0.500000 0.844930 0.250000
O O8 0.377669 0.812594 0.412265
#
# Coordination Sequence:
#
# PCOD9528663 Si02
#       4
#    16   8  16   8
#     4   9  17  37  60  91 117 167 213 255 325 378
#     4  10  23  36  69  83 133 181 209 274 319 392
#     4  11  20  35  66  94 128 167 212 271 325 390
#     4  12  21  42  57  99 129 171 225 260 335 386
#
# _framework density 23.303988
#
# number of rings (size 3 to 8) (size 9 to 14) (size 15 to 20)
#    1.000    0.667    3.333    5.000    0.000    2.667 
#    0.000    8.333    0.000    8.000    0.000    0.000 
#    0.000    0.000    0.000    0.000    0.000    0.000 
#
# Total GULP energy -133876.599546 kJ/mol
# GULP energy per Si atom -5578.191648 kJ/mol
# Density = 2.325095 g / cm^3
# Si number density = 23.303988 Si / 1000 Ang^3
#
#
#
# Elastic Constant Matrix: (Units=GPa)
#
#
# Indices 1 2 3 4 5 6 
#
# 1 84.6876 29.2816 32.5245 0.0000 0.0000 0.0000
# 2 29.2816 123.2651 31.6611 0.0000 0.0000 0.0000
# 3 32.5245 31.6611 93.9022 0.0000 0.0000 0.0000
# 4 0.0000 0.0000 0.0000 11.0960 0.0000 0.0000
# 5 0.0000 0.0000 0.0000 0.0000 12.5857 0.0000
# 6 0.0000 0.0000 0.0000 0.0000 0.0000 44.0630
#
#
#
# Elastic Compliance Matrix: (Units=1/GPa)
#
#
# Indices 1 2 3 4 5 6 
#
# 1 0.014196 -0.002309 -0.004138 0.000000 0.000000 0.000000
# 2 -0.002309 0.009257 -0.002321 0.000000 0.000000 0.000000
# 3 -0.004138 -0.002321 0.012865 0.000000 0.000000 0.000000
# 4 0.000000 0.000000 0.000000 0.090122 0.000000 0.000000
# 5 0.000000 0.000000 0.000000 0.000000 0.079455 0.000000
# 6 0.000000 0.000000 0.000000 0.000000 0.000000 0.022695
#
#
# Mechanical properties :
#
#
# Convention : Reuss Voigt Hill
#
# Bulk Modulus (GPa) = 53.24640 54.30992 53.77816
# Shear Modulus (GPa) = 19.81064 27.44146 23.62605
#
# Velocity S-wave (km/s) = 2.91880 3.43526 3.18751
# Velocity P-wave (km/s) = 5.85299 6.25222 6.05589
#
# Compressibility (1/GPa) = 0.01878061
#
# Stress axis : x y z
#
# Youngs Moduli (GPa) = 70.44287 108.02111 77.72726
#
# Poissons Ratio (x) = 0.24945 0.32166
# Poissons Ratio (y) = 0.16267 0.18044
# Poissons Ratio (z) = 0.29152 0.25077
#
# Static dielectric constant tensor:
#      x y z
#    x 2.010560 0.000000 0.000000 
#    y 0.000000 1.876750 0.000000 
#    z 0.000000 0.000000 1.866400 
# 
# From -- ./inp_files/18238.got.cif
#   From: 2010.05.17/outbox.cif.g08.bks.cpg/sg72_10_cif.got.tgz:18238.got - 2010.06.03 17:03:01.
