data_PCOD9528850
_publ_section_title
;
Structure prediction by ZEFSAII (Michael W. Deem and Ramdas Pophale) SiO2 
 PCOD9528850
Probable space group: I B A M
;
_chemical_formula_sum "Si O2"
_cell_formula_units_Z 68
_cell_length_a 18.205807
_cell_length_b 7.974376
_cell_length_c 18.151873
_cell_angle_alpha 90.000000
_cell_angle_beta 90.000000
_cell_angle_gamma 90.000000
_cell_volume 2635.288022
_symmetry_space_group_name_H-M "I B A M"
_symmetry_group_IT_number 72
_symmetry_cell_setting 'orthorhombic'
loop_
_space_group_symop_operation_xyz
x,y,z
-x,-y,z
x,-y,1/2-z
-x,y,1/2-z
-x,-y,-z
x,y,-z
-x,y,1/2+z
x,-y,1/2+z
1/2+x,1/2+y,1/2+z
1/2-x,1/2-y,1/2+z
1/2+x,1/2-y,-z
1/2-x,1/2+y,-z
1/2-x,1/2-y,1/2-z
1/2+x,1/2+y,1/2-z
1/2-x,1/2+y,z
1/2+x,1/2-y,z
loop_
_atom_site_type_symbol
_atom_site_label
_atom_site_fract_x
_atom_site_fract_y
_atom_site_fract_z
Si Si1 0.341386 0.057340 0.829863
Si Si2 0.885909 0.956550 0.832374
Si Si3 0.000000 0.500000 0.000000
Si Si4 0.987919 0.276277 0.142382
Si Si5 0.269379 0.630480 0.586540
O O1 0.428126 0.093379 0.824983
O O2 0.303638 0.226673 0.861122
O O3 0.314723 0.000000 0.750000
O O4 0.312275 0.922522 0.889323
O O5 0.934947 0.788829 0.824733
O O6 0.859184 0.000000 0.750000
O O7 0.940614 0.104948 0.857139
O O8 0.820847 0.970128 0.891530
O O9 0.001863 0.353681 0.063391
O O10 0.275345 0.669783 0.500000
#
# Coordination Sequence:
#
# PCOD9528850 Si02
#       5
#    16  16   4  16  16
#     4  11  25  47  75 104 151 199 254 309 374 448
#     4  10  23  47  79 102 144 197 258 298 366 453
#     4  12  28  38  62 108 152 182 230 304 392 414
#     4  10  25  43  70 104 147 184 249 303 373 443
#     4  11  25  44  75 112 152 197 249 311 379 451
#
# _framework density 25.803629999999998
#
# number of rings (size 3 to 8) (size 9 to 14) (size 15 to 20)
#    0.000    1.412    0.000    3.529    9.882   10.353 
#    0.000    0.000    0.000    0.000    0.000    0.000 
#    0.000    0.000    0.000    0.000    0.000    0.000 
#
# Total GULP energy -189547.723658 kJ/mol
# GULP energy per Si atom -5574.933049 kJ/mol
# Density = 2.574490 g / cm^3
# Si number density = 25.803630 Si / 1000 Ang^3
#
#
#
# Elastic Constant Matrix: (Units=GPa)
#
#
# Indices 1 2 3 4 5 6 
#
# 1 149.5560 41.8668 44.7316 0.0000 0.0000 0.0000
# 2 41.8668 120.8676 65.6708 0.0000 0.0000 0.0000
# 3 44.7316 65.6708 200.7686 0.0000 0.0000 0.0000
# 4 0.0000 0.0000 0.0000 60.8410 0.0000 0.0000
# 5 0.0000 0.0000 0.0000 0.0000 -730.7231 0.0000
# 6 0.0000 0.0000 0.0000 0.0000 0.0000 49.7858
#
#
#
# Elastic Compliance Matrix: (Units=1/GPa)
#
#
# Indices 1 2 3 4 5 6 
#
# 1 0.007569 -0.002074 -0.001008 0.000000 0.000000 0.000000
# 2 -0.002074 0.010630 -0.003015 0.000000 0.000000 0.000000
# 3 -0.001008 -0.003015 0.006192 0.000000 0.000000 0.000000
# 4 0.000000 0.000000 0.000000 0.016436 0.000000 0.000000
# 5 0.000000 0.000000 0.000000 0.000000 -0.001369 0.000000
# 6 0.000000 0.000000 0.000000 0.000000 0.000000 0.020086
#
#
# Mechanical properties :
#
#
# Convention : Reuss Voigt Hill
#
# Bulk Modulus (GPa) = 81.99109 86.19230 84.09169
# Shear Modulus (GPa) = 65.96031 -102.75773 -18.39871
#
# Velocity S-wave (km/s) = 5.06141 -6.31739 -2.67315
# Velocity P-wave (km/s) = 8.12411 4.44262 4.80959
#
# Compressibility (1/GPa) = 0.01219645
#
# Stress axis : x y z
#
# Youngs Moduli (GPa) = 132.12637 94.07301 161.50911
#
# Poissons Ratio (x) = 0.19511 0.16278
# Poissons Ratio (y) = 0.27403 0.48694
# Poissons Ratio (z) = 0.13317 0.28363
#
# Static dielectric constant tensor:
#      x y z
#    x 2.162140 0.000000 0.000000 
#    y 0.000000 2.165370 0.000000 
#    z 0.000000 0.000000 1.916080 
# 
# From -- ./inp_files/38693.got.cif
#   From: 2010.05.17/outbox.cif.g08.bks.cpg/sg72_20_cif.got.tgz:38693.got - 2010.06.03 17:03:01.
