data_PCOD9528974
_publ_section_title
;
Structure prediction by ZEFSAII (Michael W. Deem and Ramdas Pophale) SiO2 
 PCOD9528974
Probable space group: I B A M
;
_chemical_formula_sum "Si O2"
_cell_formula_units_Z 72
_cell_length_a 8.261667
_cell_length_b 12.764219
_cell_length_c 29.346285
_cell_angle_alpha 90.000000
_cell_angle_beta 90.000000
_cell_angle_gamma 90.000000
_cell_volume 3094.675124
_symmetry_space_group_name_H-M "I B A M"
_symmetry_group_IT_number 72
_symmetry_cell_setting 'orthorhombic'
loop_
_space_group_symop_operation_xyz
x,y,z
-x,-y,z
x,-y,1/2-z
-x,y,1/2-z
-x,-y,-z
x,y,-z
-x,y,1/2+z
x,-y,1/2+z
1/2+x,1/2+y,1/2+z
1/2-x,1/2-y,1/2+z
1/2+x,1/2-y,-z
1/2-x,1/2+y,-z
1/2-x,1/2-y,1/2-z
1/2+x,1/2+y,1/2-z
1/2-x,1/2+y,z
1/2+x,1/2-y,z
loop_
_atom_site_type_symbol
_atom_site_label
_atom_site_fract_x
_atom_site_fract_y
_atom_site_fract_z
Si Si1 0.735847 0.308672 0.685187
Si Si2 0.266285 0.518917 0.051772
Si Si3 0.500000 0.821626 0.750000
Si Si4 0.956507 0.670145 0.050496
Si Si5 0.049076 0.154377 0.875824
O O1 0.616584 0.251638 0.720332
O O2 0.875319 0.372033 0.713092
O O3 0.824123 0.214562 0.657504
O O4 0.611998 0.371870 0.653021
O O5 0.200606 0.401519 0.059878
O O6 0.370240 0.566701 0.092467
O O7 0.107773 0.592248 0.050096
O O8 0.332573 0.522609 0.000000
O O9 0.990802 0.755092 0.087971
O O10 0.936812 0.716966 0.000000
#
# Coordination Sequence:
#
# PCOD9528974 Si02
#       5
#    16  16   8  16  16
#     4   9  18  28  53  76 108 134 178 226 286 345
#     4   9  18  32  49  72 110 154 191 233 286 335
#     4   8  16  34  46  78 108 136 166 222 288 368
#     4   9  18  32  49  72 110 155 192 233 284 336
#     4  11  17  31  51  84 102 142 196 240 268 341
#
# _framework density 23.265771000000001
#
# number of rings (size 3 to 8) (size 9 to 14) (size 15 to 20)
#    0.000    2.667    2.222    2.000    0.000    0.000 
#    0.000    1.111    0.000    2.667    0.000   43.556 
#    0.000    0.000    0.000    0.000    0.000    0.889 
#
# Total GULP energy -200952.103085 kJ/mol
# GULP energy per Si atom -5582.002863 kJ/mol
# Density = 2.321282 g / cm^3
# Si number density = 23.265771 Si / 1000 Ang^3
#
#
#
# Elastic Constant Matrix: (Units=GPa)
#
#
# Indices 1 2 3 4 5 6 
#
# 1 155.1078 32.1522 86.9539 0.0000 0.0000 0.0000
# 2 32.1522 28.6437 24.5579 0.0000 0.0000 0.0000
# 3 86.9539 24.5579 143.8326 0.0000 0.0000 0.0000
# 4 0.0000 0.0000 0.0000 6.6164 0.0000 0.0000
# 5 0.0000 0.0000 0.0000 0.0000 33.2518 0.0000
# 6 0.0000 0.0000 0.0000 0.0000 0.0000 27.4289
#
#
#
# Elastic Compliance Matrix: (Units=1/GPa)
#
#
# Indices 1 2 3 4 5 6 
#
# 1 0.011075 -0.007839 -0.005357 0.000000 0.000000 0.000000
# 2 -0.007839 0.046447 -0.003191 0.000000 0.000000 0.000000
# 3 -0.005357 -0.003191 0.010736 0.000000 0.000000 0.000000
# 4 0.000000 0.000000 0.000000 0.151139 0.000000 0.000000
# 5 0.000000 0.000000 0.000000 0.000000 0.030074 0.000000
# 6 0.000000 0.000000 0.000000 0.000000 0.000000 0.036458
#
#
# Mechanical properties :
#
#
# Convention : Reuss Voigt Hill
#
# Bulk Modulus (GPa) = 28.18207 68.32357 48.25282
# Shear Modulus (GPa) = 15.12718 25.72076 20.42397
#
# Velocity S-wave (km/s) = 2.55265 3.32854 2.96608
# Velocity P-wave (km/s) = 4.56371 6.64850 5.70219
#
# Compressibility (1/GPa) = 0.03548356
#
# Stress axis : x y z
#
# Youngs Moduli (GPa) = 90.29115 21.52994 93.14391
#
# Poissons Ratio (x) = 0.16877 0.49899
# Poissons Ratio (y) = 0.70778 0.29725
# Poissons Ratio (z) = 0.48370 0.06871
#
# Static dielectric constant tensor:
#      x y z
#    x 1.939030 0.000000 0.000000 
#    y 0.000000 1.825700 0.000000 
#    z 0.000000 0.000000 1.919740 
# 
# From -- ./inp_files/50705.got.cif
#   From: 2010.05.17/outbox.cif.g08.bks.cpg/sg72_26_cif.got.tgz:50705.got - 2010.06.03 17:03:01.
