data_PCOD9528035
_publ_section_title
;
Structure prediction by ZEFSAII (Michael W. Deem and Ramdas Pophale) SiO2 
 PCOD9528035
Probable space group: I B A M
;
_chemical_formula_sum "Si O2"
_cell_formula_units_Z 64
_cell_length_a 15.943726
_cell_length_b 13.446326
_cell_length_c 12.455121
_cell_angle_alpha 90.000000
_cell_angle_beta 90.000000
_cell_angle_gamma 90.000000
_cell_volume 2670.185354
_symmetry_space_group_name_H-M "I B A M"
_symmetry_group_IT_number 72
_symmetry_cell_setting 'orthorhombic'
loop_
_space_group_symop_operation_xyz
x,y,z
-x,-y,z
x,-y,1/2-z
-x,y,1/2-z
-x,-y,-z
x,y,-z
-x,y,1/2+z
x,-y,1/2+z
1/2+x,1/2+y,1/2+z
1/2-x,1/2-y,1/2+z
1/2+x,1/2-y,-z
1/2-x,1/2+y,-z
1/2-x,1/2-y,1/2-z
1/2+x,1/2+y,1/2-z
1/2-x,1/2+y,z
1/2+x,1/2-y,z
loop_
_atom_site_type_symbol
_atom_site_label
_atom_site_fract_x
_atom_site_fract_y
_atom_site_fract_z
Si Si1 0.966467 0.888393 0.616799
Si Si2 0.134967 0.803479 0.311910
Si Si3 0.193752 0.610711 0.796165
Si Si4 0.480612 0.883377 0.377862
O O1 0.928630 0.886864 0.500000
O O2 0.898540 0.849353 0.699662
O O3 0.050068 0.819913 0.621379
O O4 0.000000 0.000000 0.637123
O O5 0.172331 0.692912 0.296594
O O6 0.214881 0.868542 0.344095
O O7 0.188917 0.500000 0.750000
O O8 0.119323 0.628722 0.878858
O O9 0.500000 0.848888 0.250000
O O10 0.511367 0.854797 0.500000
O O11 0.500000 0.000000 0.371926
#
# Coordination Sequence:
#
# PCOD9528035 Si02
#       4
#    16  16  16  16
#     4  10  21  41  67  92 124 170 224 281 341 404
#     4  10  23  40  64  93 129 172 225 285 335 414
#     4  11  22  41  63  94 134 177 224 278 350 414
#     4  10  21  39  63  95 134 178 223 270 337 416
#
# _framework density 23.968374000000001
#
# number of rings (size 3 to 8) (size 9 to 14) (size 15 to 20)
#    0.000    1.750    2.500    3.000    3.500    2.000 
#    0.000    7.500    0.000    0.000    0.000    0.000 
#    0.000    0.000    0.000    0.000    0.000    0.000 
#
# Total GULP energy -178293.783660 kJ/mol
# GULP energy per Si atom -5571.680739 kJ/mol
# Density = 2.391382 g / cm^3
# Si number density = 23.968374 Si / 1000 Ang^3
#
#
#
# Elastic Constant Matrix: (Units=GPa)
#
#
# Indices 1 2 3 4 5 6 
#
# 1 113.4106 -8.4625 18.0970 0.0000 0.0000 0.0000
# 2 -8.4625 146.0981 32.8249 0.0000 0.0000 0.0000
# 3 18.0970 32.8249 169.9024 0.0000 0.0000 0.0000
# 4 0.0000 0.0000 0.0000 21.2767 0.0000 0.0000
# 5 0.0000 0.0000 0.0000 0.0000 -33.9066 0.0000
# 6 0.0000 0.0000 0.0000 0.0000 0.0000 24.4983
#
#
#
# Elastic Compliance Matrix: (Units=1/GPa)
#
#
# Indices 1 2 3 4 5 6 
#
# 1 0.009053 0.000775 -0.001114 0.000000 0.000000 0.000000
# 2 0.000775 0.007222 -0.001478 0.000000 0.000000 0.000000
# 3 -0.001114 -0.001478 0.006290 0.000000 0.000000 0.000000
# 4 0.000000 0.000000 0.000000 0.047000 0.000000 0.000000
# 5 0.000000 0.000000 0.000000 0.000000 -0.029493 0.000000
# 6 0.000000 0.000000 0.000000 0.000000 0.000000 0.040819
#
#
# Mechanical properties :
#
#
# Convention : Reuss Voigt Hill
#
# Bulk Modulus (GPa) = 52.82465 57.14777 54.98621
# Shear Modulus (GPa) = 55.04494 28.17046 41.60770
#
# Velocity S-wave (km/s) = 4.79745 3.43201 4.17098
# Velocity P-wave (km/s) = 7.26461 6.29283 6.79611
#
# Compressibility (1/GPa) = 0.01893056
#
# Stress axis : x y z
#
# Youngs Moduli (GPa) = 110.45971 138.47350 158.98559
#
# Poissons Ratio (x) = -0.10727 0.17710
# Poissons Ratio (y) = -0.08557 0.23494
# Poissons Ratio (z) = 0.12305 0.20462
#
# Static dielectric constant tensor:
#      x y z
#    x 1.945520 0.000000 0.000000 
#    y 0.000000 2.015990 0.000000 
#    z 0.000000 0.000000 1.933230 
# 
# From -- ./inp_files/22947.got.cif
#   From: 2010.05.17/outbox.cif.g08.bks.cpg/sg72_12_cif.got.tgz:22947.got - 2010.06.03 17:03:01.
