data_PCOD9528795
_publ_section_title
;
Structure prediction by ZEFSAII (Michael W. Deem and Ramdas Pophale) SiO2 
 PCOD9528795
Probable space group: I B A M
;
_chemical_formula_sum "Si O2"
_cell_formula_units_Z 48
_cell_length_a 5.572642
_cell_length_b 27.792497
_cell_length_c 14.397116
_cell_angle_alpha 90.000000
_cell_angle_beta 90.000000
_cell_angle_gamma 90.000000
_cell_volume 2229.791292
_symmetry_space_group_name_H-M "I B A M"
_symmetry_group_IT_number 72
_symmetry_cell_setting 'orthorhombic'
loop_
_space_group_symop_operation_xyz
x,y,z
-x,-y,z
x,-y,1/2-z
-x,y,1/2-z
-x,-y,-z
x,y,-z
-x,y,1/2+z
x,-y,1/2+z
1/2+x,1/2+y,1/2+z
1/2-x,1/2-y,1/2+z
1/2+x,1/2-y,-z
1/2-x,1/2+y,-z
1/2-x,1/2-y,1/2-z
1/2+x,1/2+y,1/2-z
1/2-x,1/2+y,z
1/2+x,1/2-y,z
loop_
_atom_site_type_symbol
_atom_site_label
_atom_site_fract_x
_atom_site_fract_y
_atom_site_fract_z
Si Si1 0.000000 0.093053 0.250000
Si Si2 0.484449 0.778716 0.000000
Si Si3 0.671124 0.135785 0.599988
Si Si4 0.171763 0.543680 0.604643
O O1 0.169795 0.127581 0.189496
O O2 0.126482 0.057803 0.323162
O O3 0.525718 0.814695 0.912332
O O4 0.219163 0.756054 0.000000
O O5 0.810913 0.133194 0.500000
O O6 0.490457 0.091330 0.600503
O O7 0.259711 0.533164 0.500000
O O8 0.000000 0.500000 0.633515
#
# Coordination Sequence:
#
# PCOD9528795 Si02
#       4
#     8   8  16  16
#     4  12  22  39  70 100 138 178 236 290 351 414
#     4  10  24  46  77  99 137 193 242 298 378 438
#     4   9  23  40  66  99 137 181 227 291 350 429
#     4  10  23  43  66  99 143 186 230 278 353 430
#
# _framework density 21.526679999999999
#
# number of rings (size 3 to 8) (size 9 to 14) (size 15 to 20)
#    1.000    1.000    0.000    2.000    4.667    5.333 
#    0.000    6.667    0.000    3.000    0.000    0.000 
#    0.000    0.000    0.000    0.000    0.000    0.000 
#
# Total GULP energy -133930.146020 kJ/mol
# GULP energy per Si atom -5580.422751 kJ/mol
# Density = 2.147768 g / cm^3
# Si number density = 21.526680 Si / 1000 Ang^3
#
#
#
# Elastic Constant Matrix: (Units=GPa)
#
#
# Indices 1 2 3 4 5 6 
#
# 1 26.7011 11.2416 3.3383 0.0000 0.0000 0.0000
# 2 11.2416 105.2643 -15.4634 0.0000 0.0000 0.0000
# 3 3.3383 -15.4634 73.2851 0.0000 0.0001 0.0000
# 4 0.0000 0.0000 0.0000 1.9111 0.0000 0.0000
# 5 0.0000 0.0000 0.0001 0.0000 -149.9956 0.0000
# 6 0.0000 0.0000 0.0000 0.0000 0.0000 26.5922
#
#
#
# Elastic Compliance Matrix: (Units=1/GPa)
#
#
# Indices 1 2 3 4 5 6 
#
# 1 0.039761 -0.004657 -0.002794 0.000000 0.000000 0.000000
# 2 -0.004657 0.010349 0.002396 0.000000 0.000000 0.000000
# 3 -0.002794 0.002396 0.014278 0.000000 0.000000 0.000000
# 4 0.000000 0.000000 0.000000 0.523259 0.000000 0.000000
# 5 0.000000 0.000000 0.000000 0.000000 -0.006667 0.000000
# 6 0.000000 0.000000 0.000000 0.000000 0.000000 0.037605
#
#
# Mechanical properties :
#
#
# Convention : Reuss Voigt Hill
#
# Bulk Modulus (GPa) = 18.42319 22.60927 20.51623
# Shear Modulus (GPa) = 7.73050 -10.55621 -1.41285
#
# Velocity S-wave (km/s) = 1.89708 -2.21685 -0.81102
# Velocity P-wave (km/s) = 3.65725 1.99327 2.94522
#
# Compressibility (1/GPa) = 0.05427941
#
# Stress axis : x y z
#
# Youngs Moduli (GPa) = 25.14999 96.62622 70.03713
#
# Poissons Ratio (x) = 0.44996 0.19567
# Poissons Ratio (y) = 0.11712 -0.16780
# Poissons Ratio (z) = 0.07026 -0.23150
#
# Static dielectric constant tensor:
#      x y z
#    x 1.817570 0.000000 0.000000 
#    y 0.000000 1.768080 0.000000 
#    z 0.000000 0.000000 1.829720 
# 
# From -- ./inp_files/17511.got.cif
#   From: 2010.05.17/outbox.cif.g08.bks.cpg/sg72_9_cif.got.tgz:17511.got - 2010.06.03 17:03:01.
