data_PCOD9528209
_publ_section_title
;
Structure prediction by ZEFSAII (Michael W. Deem and Ramdas Pophale) SiO2 
 PCOD9528209
Probable space group: I B A M
;
_chemical_formula_sum "Si O2"
_cell_formula_units_Z 56
_cell_length_a 20.160755
_cell_length_b 9.286978
_cell_length_c 14.342704
_cell_angle_alpha 90.000000
_cell_angle_beta 90.000000
_cell_angle_gamma 90.000000
_cell_volume 2685.420157
_symmetry_space_group_name_H-M "I B A M"
_symmetry_group_IT_number 72
_symmetry_cell_setting 'orthorhombic'
loop_
_space_group_symop_operation_xyz
x,y,z
-x,-y,z
x,-y,1/2-z
-x,y,1/2-z
-x,-y,-z
x,y,-z
-x,y,1/2+z
x,-y,1/2+z
1/2+x,1/2+y,1/2+z
1/2-x,1/2-y,1/2+z
1/2+x,1/2-y,-z
1/2-x,1/2+y,-z
1/2-x,1/2-y,1/2-z
1/2+x,1/2+y,1/2-z
1/2-x,1/2+y,z
1/2+x,1/2-y,z
loop_
_atom_site_type_symbol
_atom_site_label
_atom_site_fract_x
_atom_site_fract_y
_atom_site_fract_z
Si Si1 0.939382 0.844548 0.678863
Si Si2 0.129483 0.875451 0.356699
Si Si3 0.207199 0.942668 0.000000
Si Si4 0.905015 0.694148 0.500000
Si Si5 0.638909 0.868139 0.500000
O O1 0.874083 0.837353 0.746976
O O2 0.942115 0.734815 0.594956
O O3 0.000000 0.826291 0.750000
O O4 0.928098 0.003008 0.634113
O O5 0.118391 0.729454 0.412371
O O6 0.189659 0.956869 0.409975
O O7 0.158842 0.802995 0.000000
O O8 0.281752 0.889143 0.000000
O O9 0.889275 0.527186 0.500000
#
# Coordination Sequence:
#
# PCOD9528209 Si02
#       5
#    16  16   8   8   8
#     4  10  21  42  65  88 117 159 211 259 303 366
#     4   9  19  37  62  88 115 157 211 243 287 370
#     4   9  19  38  61  87 124 166 202 241 295 365
#     4  10  22  38  60  93 126 158 200 252 316 374
#     4  11  21  38  60  92 131 158 192 259 314 359
#
# _framework density 20.853345999999998
#
# number of rings (size 3 to 8) (size 9 to 14) (size 15 to 20)
#    0.000    2.286    0.000    4.286    0.000    3.429 
#    0.000   45.714    0.000    0.000    0.000    0.000 
#    0.000    0.000    0.000    0.000    0.000    0.000 
#
# Total GULP energy -155943.132674 kJ/mol
# GULP energy per Si atom -5569.397595 kJ/mol
# Density = 2.080588 g / cm^3
# Si number density = 20.853346 Si / 1000 Ang^3
#
#
#
# Elastic Constant Matrix: (Units=GPa)
#
#
# Indices 1 2 3 4 5 6 
#
# 1 76.5049 37.3474 58.6329 0.0000 0.0000 0.0000
# 2 37.3474 180.9921 79.4709 0.0000 0.0000 0.0000
# 3 58.6329 79.4709 143.2045 0.0000 0.0000 0.0000
# 4 0.0000 0.0000 0.0000 353.6024 0.0000 0.0000
# 5 0.0000 0.0000 0.0000 0.0000 1.3084 0.0000
# 6 0.0000 0.0000 0.0000 0.0000 0.0000 4.8739
#
#
#
# Elastic Compliance Matrix: (Units=1/GPa)
#
#
# Indices 1 2 3 4 5 6 
#
# 1 0.019110 -0.000671 -0.007452 0.000000 0.000000 0.000000
# 2 -0.000671 0.007329 -0.003792 0.000000 0.000000 0.000000
# 3 -0.007452 -0.003792 0.012138 0.000000 0.000000 0.000000
# 4 0.000000 0.000000 0.000000 0.002828 0.000000 0.000000
# 5 0.000000 0.000000 0.000000 0.000000 0.764321 0.000000
# 6 0.000000 0.000000 0.000000 0.000000 0.000000 0.205174
#
#
# Mechanical properties :
#
#
# Convention : Reuss Voigt Hill
#
# Bulk Modulus (GPa) = 67.81251 83.51154 75.66203
# Shear Modulus (GPa) = 4.80933 86.97362 45.89148
#
# Velocity S-wave (km/s) = 1.52029 6.46512 4.69623
# Velocity P-wave (km/s) = 5.97253 9.79104 8.10973
#
# Compressibility (1/GPa) = 0.01474654
#
# Stress axis : x y z
#
# Youngs Moduli (GPa) = 52.32962 136.44945 82.38313
#
# Poissons Ratio (x) = 0.09161 0.61388
# Poissons Ratio (y) = 0.03513 0.31241
# Poissons Ratio (z) = 0.38994 0.51744
#
# Static dielectric constant tensor:
#      x y z
#    x 1.823710 0.000000 0.000000 
#    y 0.000000 1.745420 0.000000 
#    z 0.000000 0.000000 1.806560 
# 
# From -- ./inp_files/23798.got.cif
#   From: 2010.05.17/outbox.cif.g08.bks.cpg/sg72_12_cif.got.tgz:23798.got - 2010.06.03 17:03:01.
