data_PCOD9528066
_publ_section_title
;
Structure prediction by ZEFSAII (Michael W. Deem and Ramdas Pophale) SiO2 
 PCOD9528066
Probable space group: I B A M
;
_chemical_formula_sum "Si O2"
_cell_formula_units_Z 112
_cell_length_a 12.274375
_cell_length_b 30.608335
_cell_length_c 14.448364
_cell_angle_alpha 90.000000
_cell_angle_beta 90.000000
_cell_angle_gamma 90.000000
_cell_volume 5428.224086
_symmetry_space_group_name_H-M "I B A M"
_symmetry_group_IT_number 72
_symmetry_cell_setting 'orthorhombic'
loop_
_space_group_symop_operation_xyz
x,y,z
-x,-y,z
x,-y,1/2-z
-x,y,1/2-z
-x,-y,-z
x,y,-z
-x,y,1/2+z
x,-y,1/2+z
1/2+x,1/2+y,1/2+z
1/2-x,1/2-y,1/2+z
1/2+x,1/2-y,-z
1/2-x,1/2+y,-z
1/2-x,1/2-y,1/2-z
1/2+x,1/2+y,1/2-z
1/2-x,1/2+y,z
1/2+x,1/2-y,z
loop_
_atom_site_type_symbol
_atom_site_label
_atom_site_fract_x
_atom_site_fract_y
_atom_site_fract_z
Si Si1 0.091979 0.306833 0.171501
Si Si2 0.873645 0.082241 0.233606
Si Si3 0.660077 0.318200 0.716875
Si Si4 0.037134 0.214342 0.895454
Si Si5 0.204676 0.429156 0.608892
Si Si6 0.027118 0.598563 0.609180
Si Si7 0.788777 0.467798 0.390579
O O1 0.214256 0.305531 0.210494
O O2 0.071699 0.264940 0.107853
O O3 0.075043 0.353663 0.124340
O O4 0.000000 0.303686 0.250000
O O5 0.857385 0.130878 0.193023
O O6 0.807960 0.082486 0.329799
O O7 0.815633 0.047162 0.167523
O O8 0.000000 0.073483 0.250000
O O9 0.584479 0.291137 0.646005
O O10 0.612613 0.309780 0.819593
O O11 0.044813 0.197556 0.000000
O O12 0.221690 0.419585 0.500000
O O13 0.186212 0.481153 0.618835
O O14 0.096056 0.405080 0.645500
O O15 0.015925 0.589767 0.500000
O O16 0.110355 0.561738 0.643542
O O17 0.771454 0.459092 0.500000
#
# Coordination Sequence:
#
# PCOD9528066 Si02
#       7
#    16  16  16  16  16  16  16
#     4  12  23  42  69  98 140 169 212 273 327 396
#     4  12  24  43  66  90 127 175 226 267 320 389
#     4  11  24  48  66  96 136 172 217 280 329 388
#     4  11  25  44  69  97 128 176 225 271 331 393
#     4  10  23  42  65  98 134 167 213 275 328 384
#     4  10  21  39  66 100 132 170 213 259 329 401
#     4  10  22  41  66  96 132 172 216 268 326 387
#
# _framework density 20.632899999999999
#
# number of rings (size 3 to 8) (size 9 to 14) (size 15 to 20)
#    0.000    1.143    4.286    2.571    0.000    5.714 
#    0.000    3.571    0.000    0.000    0.000    0.000 
#    0.000    0.000    0.000    0.000    0.000    0.000 
#
# Total GULP energy -313148.627589 kJ/mol
# GULP energy per Si atom -5591.939778 kJ/mol
# Density = 2.058594 g / cm^3
# Si number density = 20.632900 Si / 1000 Ang^3
#
#
#
# Elastic Constant Matrix: (Units=GPa)
#
#
# Indices 1 2 3 4 5 6 
#
# 1 163.0672 10.3795 44.9540 0.0001 -0.0001 0.0000
# 2 10.3795 50.4644 -3.0858 -0.0001 -0.0001 0.0000
# 3 44.9540 -3.0858 78.3500 -0.0004 0.0004 0.0000
# 4 0.0001 -0.0001 -0.0004 27.8564 0.0001 0.0000
# 5 -0.0001 -0.0001 0.0004 0.0001 19.3597 0.0000
# 6 0.0000 0.0000 0.0000 0.0000 0.0000 29.6223
#
#
#
# Elastic Compliance Matrix: (Units=1/GPa)
#
#
# Indices 1 2 3 4 5 6 
#
# 1 0.007444 -0.001796 -0.004342 0.000000 0.000000 0.000000
# 2 -0.001796 0.020297 0.001830 0.000000 0.000000 0.000000
# 3 -0.004342 0.001830 0.015326 0.000000 0.000000 0.000000
# 4 0.000000 0.000000 0.000000 0.035898 0.000000 0.000000
# 5 0.000000 0.000000 0.000000 0.000000 0.051654 0.000000
# 6 0.000000 0.000000 0.000000 0.000000 0.000000 0.033758
#
#
# Mechanical properties :
#
#
# Convention : Reuss Voigt Hill
#
# Bulk Modulus (GPa) = 29.02635 44.04191 36.53413
# Shear Modulus (GPa) = 27.10354 31.34326 29.22340
#
# Velocity S-wave (km/s) = 3.62831 3.90178 3.76753
# Velocity P-wave (km/s) = 5.62595 6.45681 6.05564
#
# Compressibility (1/GPa) = 0.03445146
#
# Stress axis : x y z
#
# Youngs Moduli (GPa) = 134.34205 49.26752 65.24697
#
# Poissons Ratio (x) = 0.08851 0.28328
# Poissons Ratio (y) = 0.24134 -0.11941
# Poissons Ratio (z) = 0.58326 -0.09017
#
# Static dielectric constant tensor:
#      x y z
#    x 1.714910 0.000000 0.000000 
#    y 0.000000 1.739440 0.000000 
#    z 0.000000 0.000000 1.740280 
# 
# From -- ./inp_files/20688.got.cif
#   From: 2010.05.17/outbox.cif.g08.bks.cpg/sg72_11_cif.got.tgz:20688.got - 2010.06.03 17:03:01.
