data_PCOD9528114
_publ_section_title
;
Structure prediction by ZEFSAII (Michael W. Deem and Ramdas Pophale) SiO2 
 PCOD9528114
Probable space group: I B A M
;
_chemical_formula_sum "Si O2"
_cell_formula_units_Z 112
_cell_length_a 12.900806
_cell_length_b 12.272336
_cell_length_c 28.321479
_cell_angle_alpha 90.000000
_cell_angle_beta 90.000000
_cell_angle_gamma 90.000000
_cell_volume 4483.942253
_symmetry_space_group_name_H-M "I B A M"
_symmetry_group_IT_number 72
_symmetry_cell_setting 'orthorhombic'
loop_
_space_group_symop_operation_xyz
x,y,z
-x,-y,z
x,-y,1/2-z
-x,y,1/2-z
-x,-y,-z
x,y,-z
-x,y,1/2+z
x,-y,1/2+z
1/2+x,1/2+y,1/2+z
1/2-x,1/2-y,1/2+z
1/2+x,1/2-y,-z
1/2-x,1/2+y,-z
1/2-x,1/2-y,1/2-z
1/2+x,1/2+y,1/2-z
1/2-x,1/2+y,z
1/2+x,1/2-y,z
loop_
_atom_site_type_symbol
_atom_site_label
_atom_site_fract_x
_atom_site_fract_y
_atom_site_fract_z
Si Si1 0.453996 0.172222 0.201329
Si Si2 0.315841 0.578452 0.057060
Si Si3 0.680267 0.797726 0.680158
Si Si4 0.594196 0.871288 0.101829
Si Si5 0.333414 0.622266 0.251811
Si Si6 0.186560 0.143672 0.410664
Si Si7 0.100141 0.310134 0.053101
O O1 0.500000 0.122784 0.250000
O O2 0.559497 0.194313 0.172835
O O3 0.394799 0.111463 0.158704
O O4 0.401058 0.286652 0.219105
O O5 0.196791 0.583132 0.076138
O O6 0.363733 0.472402 0.081349
O O7 0.377529 0.687451 0.071464
O O8 0.316791 0.574122 0.000000
O O9 0.688431 0.675691 0.701099
O O10 0.722823 0.874261 0.722282
O O11 0.749302 0.834804 0.637125
O O12 0.607600 0.742496 0.089144
O O13 0.478379 0.887873 0.081465
O O14 0.374417 0.500000 0.250000
O O15 0.280667 0.148784 0.448005
O O16 0.058695 0.304042 0.000000
#
# Coordination Sequence:
#
# PCOD9528114 Si02
#       7
#    16  16  16  16  16  16  16
#     4  10  21  41  63  92 135 170 219 277 329 393
#     4  10  24  43  68  98 132 174 226 284 347 419
#     4  10  21  40  63  93 135 171 213 278 335 380
#     4  11  22  42  68  94 131 181 221 277 349 406
#     4  10  22  41  69  96 128 181 228 274 329 397
#     4  11  22  41  64  97 129 174 217 275 332 414
#     4  10  22  41  65  94 127 168 218 282 339 400
#
# _framework density 24.978020000000001
#
# number of rings (size 3 to 8) (size 9 to 14) (size 15 to 20)
#    0.000    1.714    2.857    0.857    0.000    7.714 
#    0.000    5.714    3.143    0.000    0.000    0.000 
#    0.000    0.000    0.000    0.000    0.000    0.000 
#
# Total GULP energy -312319.624409 kJ/mol
# GULP energy per Si atom -5577.136150 kJ/mol
# Density = 2.492117 g / cm^3
# Si number density = 24.978020 Si / 1000 Ang^3
#
#
#
# Elastic Constant Matrix: (Units=GPa)
#
#
# Indices 1 2 3 4 5 6 
#
# 1 86.3476 -12.4232 0.3330 0.0000 0.0000 0.0000
# 2 -12.4232 113.9897 18.9490 0.0000 0.0000 0.0000
# 3 0.3330 18.9490 122.6935 0.0000 0.0000 0.0000
# 4 0.0000 0.0000 0.0000 15.1107 0.0000 0.0000
# 5 0.0000 0.0000 0.0000 0.0000 18.8779 0.0000
# 6 0.0000 0.0000 0.0000 0.0000 0.0000 1.8422
#
#
#
# Elastic Compliance Matrix: (Units=1/GPa)
#
#
# Indices 1 2 3 4 5 6 
#
# 1 0.011772 0.001322 -0.000236 0.000000 0.000000 0.000000
# 2 0.001322 0.009152 -0.001417 0.000000 0.000000 0.000000
# 3 -0.000236 -0.001417 0.008370 0.000000 0.000000 0.000000
# 4 0.000000 0.000000 0.000000 0.066178 0.000000 0.000000
# 5 0.000000 0.000000 0.000000 0.000000 0.052972 0.000000
# 6 0.000000 0.000000 0.000000 0.000000 0.000000 0.542825
#
#
# Mechanical properties :
#
#
# Convention : Reuss Voigt Hill
#
# Bulk Modulus (GPa) = 34.92529 37.41646 36.17088
# Shear Modulus (GPa) = 7.12783 28.24432 17.68607
#
# Velocity S-wave (km/s) = 1.69110 3.36634 2.66384
# Velocity P-wave (km/s) = 4.22207 5.48834 4.89631
#
# Compressibility (1/GPa) = 0.02863255
#
# Stress axis : x y z
#
# Youngs Moduli (GPa) = 84.94556 109.26093 119.47590
#
# Poissons Ratio (x) = -0.14447 0.02822
# Poissons Ratio (y) = -0.11232 0.16931
# Poissons Ratio (z) = 0.02006 0.15483
#
# Static dielectric constant tensor:
#      x y z
#    x 2.081690 0.000000 0.000000 
#    y 0.000000 2.030370 0.000000 
#    z 0.000000 0.000000 2.081650 
# 
# From -- ./inp_files/51755.got.cif
#   From: 2010.05.17/outbox.cif.g08.bks.cpg/sg72_26_cif.got.tgz:51755.got - 2010.06.03 17:03:01.
