data_PCOD9528367
_publ_section_title
;
Structure prediction by ZEFSAII (Michael W. Deem and Ramdas Pophale) SiO2 
 PCOD9528367
Probable space group: I B A M
;
_chemical_formula_sum "Si O2"
_cell_formula_units_Z 96
_cell_length_a 11.549993
_cell_length_b 24.459781
_cell_length_c 14.223921
_cell_angle_alpha 90.000000
_cell_angle_beta 90.000000
_cell_angle_gamma 90.000000
_cell_volume 4018.404179
_symmetry_space_group_name_H-M "I B A M"
_symmetry_group_IT_number 72
_symmetry_cell_setting 'orthorhombic'
loop_
_space_group_symop_operation_xyz
x,y,z
-x,-y,z
x,-y,1/2-z
-x,y,1/2-z
-x,-y,-z
x,y,-z
-x,y,1/2+z
x,-y,1/2+z
1/2+x,1/2+y,1/2+z
1/2-x,1/2-y,1/2+z
1/2+x,1/2-y,-z
1/2-x,1/2+y,-z
1/2-x,1/2-y,1/2-z
1/2+x,1/2+y,1/2-z
1/2-x,1/2+y,z
1/2+x,1/2-y,z
loop_
_atom_site_type_symbol
_atom_site_label
_atom_site_fract_x
_atom_site_fract_y
_atom_site_fract_z
Si Si1 0.433844 0.717141 0.892285
Si Si2 0.586183 0.839114 0.338094
Si Si3 0.452853 0.058010 0.107836
Si Si4 0.732049 0.373069 0.885289
Si Si5 0.992200 0.060420 0.388126
Si Si6 0.340239 0.343802 0.886967
O O1 0.434640 0.781974 0.890491
O O2 0.312776 0.688692 0.861203
O O3 0.555740 0.695405 0.851584
O O4 0.444112 0.697497 0.000000
O O5 0.500000 0.835320 0.250000
O O6 0.551539 0.895601 0.388322
O O7 0.723847 0.839420 0.328308
O O8 0.342420 0.091501 0.149593
O O9 0.500000 0.000000 0.146840
O O10 0.421107 0.045341 0.000000
O O11 0.619308 0.406928 0.854369
O O12 0.748826 0.371874 0.000000
O O13 0.973010 0.056715 0.500000
O O14 0.106324 0.096045 0.376194
O O15 0.000000 0.000000 0.350718
O O16 0.315811 0.334244 0.000000
#
# Coordination Sequence:
#
# PCOD9528367 Si02
#       6
#    16  16  16  16  16  16
#     4   9  19  38  62  87 117 157 208 265 317 364
#     4  12  26  39  56  86 124 170 204 249 313 385
#     4  10  22  39  62  89 117 157 210 257 307 375
#     4   8  16  32  55  87 117 146 187 248 313 360
#     4   8  14  26  53  88 117 142 180 249 315 355
#     4   9  19  36  59  87 119 156 208 262 310 368
#
# _framework density 23.890080999999999
#
# number of rings (size 3 to 8) (size 9 to 14) (size 15 to 20)
#    0.000    2.667    0.000    3.500    4.667    1.000 
#    0.000    0.000    0.000    0.000    0.000    1.167 
#    0.000    0.000    0.000    0.000    0.000    0.667 
#
# Total GULP energy -267642.051955 kJ/mol
# GULP energy per Si atom -5575.876082 kJ/mol
# Density = 2.383571 g / cm^3
# Si number density = 23.890081 Si / 1000 Ang^3
#
#
#
# Elastic Constant Matrix: (Units=GPa)
#
#
# Indices 1 2 3 4 5 6 
#
# 1 152.6303 42.2830 23.6522 0.0000 0.0000 0.0000
# 2 42.2830 162.0190 -1.1676 -0.0001 0.0000 0.0000
# 3 23.6522 -1.1676 78.7590 -0.0001 0.0000 0.0000
# 4 0.0000 -0.0001 -0.0001 -30.2320 0.0000 0.0000
# 5 0.0000 0.0000 0.0000 0.0000 25.2575 0.0000
# 6 0.0000 0.0000 0.0000 0.0000 0.0000 19.8279
#
#
#
# Elastic Compliance Matrix: (Units=1/GPa)
#
#
# Indices 1 2 3 4 5 6 
#
# 1 0.007446 -0.001959 -0.002265 0.000000 0.000000 0.000000
# 2 -0.001959 0.006688 0.000688 0.000000 0.000000 0.000000
# 3 -0.002265 0.000688 0.013387 0.000000 0.000000 0.000000
# 4 0.000000 0.000000 0.000000 -0.033078 0.000000 0.000000
# 5 0.000000 0.000000 0.000000 0.000000 0.039592 0.000000
# 6 0.000000 0.000000 0.000000 0.000000 0.000000 0.050434
#
#
# Mechanical properties :
#
#
# Convention : Reuss Voigt Hill
#
# Bulk Modulus (GPa) = 48.90539 58.10481 53.50510
# Shear Modulus (GPa) = 50.83381 24.88006 37.85694
#
# Velocity S-wave (km/s) = 4.61784 3.23063 3.98506
# Velocity P-wave (km/s) = 6.99628 6.18793 6.60449
#
# Compressibility (1/GPa) = 0.02044764
#
# Stress axis : x y z
#
# Youngs Moduli (GPa) = 134.30743 149.51174 74.69720
#
# Poissons Ratio (x) = 0.29296 0.16919
# Poissons Ratio (y) = 0.26317 -0.05136
# Poissons Ratio (z) = 0.30421 -0.10280
#
# Static dielectric constant tensor:
#      x y z
#    x 1.898260 0.000000 0.000000 
#    y 0.000000 1.838700 0.000000 
#    z 0.000000 0.000000 2.074390 
# 
# From -- ./inp_files/29412.got.cif
#   From: 2010.05.17/outbox.cif.g08.bks.cpg/sg72_15_cif.got.tgz:29412.got - 2010.06.03 17:03:01.
