data_PCOD9528820
_publ_section_title
;
Structure prediction by ZEFSAII (Michael W. Deem and Ramdas Pophale) SiO2 
 PCOD9528820
Probable space group: I B A M
;
_chemical_formula_sum "Si O2"
_cell_formula_units_Z 68
_cell_length_a 8.392756
_cell_length_b 22.815876
_cell_length_c 15.326942
_cell_angle_alpha 90.000000
_cell_angle_beta 90.000000
_cell_angle_gamma 90.000000
_cell_volume 2934.926699
_symmetry_space_group_name_H-M "I B A M"
_symmetry_group_IT_number 72
_symmetry_cell_setting 'orthorhombic'
loop_
_space_group_symop_operation_xyz
x,y,z
-x,-y,z
x,-y,1/2-z
-x,y,1/2-z
-x,-y,-z
x,y,-z
-x,y,1/2+z
x,-y,1/2+z
1/2+x,1/2+y,1/2+z
1/2-x,1/2-y,1/2+z
1/2+x,1/2-y,-z
1/2-x,1/2+y,-z
1/2-x,1/2-y,1/2-z
1/2+x,1/2+y,1/2-z
1/2-x,1/2+y,z
1/2+x,1/2-y,z
loop_
_atom_site_type_symbol
_atom_site_label
_atom_site_fract_x
_atom_site_fract_y
_atom_site_fract_z
Si Si1 0.000000 0.000000 0.250000
Si Si2 0.034226 0.435051 0.104384
Si Si3 0.599562 0.182990 0.663067
Si Si4 0.402783 0.589894 0.396730
Si Si5 0.924874 0.790287 0.903181
O O1 0.000996 0.949164 0.172004
O O2 0.216336 0.418657 0.124760
O O3 0.000000 0.500000 0.139144
O O4 0.917050 0.384848 0.137448
O O5 0.018709 0.436543 0.000000
O O6 0.500000 0.190249 0.750000
O O7 0.782111 0.202063 0.664549
O O8 0.508500 0.227750 0.599559
O O9 0.427179 0.573892 0.500000
O O10 0.449428 0.657864 0.388525
O O11 0.854414 0.799800 0.000000
#
# Coordination Sequence:
#
# PCOD9528820 Si02
#       5
#     4  16  16  16  16
#     4  12  26  40  74  94 144 176 222 288 344 406
#     4  10  23  44  68  96 137 184 230 278 341 416
#     4  12  26  41  69 102 136 172 228 292 349 421
#     4  10  25  44  69 102 136 182 235 283 343 422
#     4  11  24  45  70  96 135 181 231 283 350 421
#
# _framework density 23.169232999999998
#
# number of rings (size 3 to 8) (size 9 to 14) (size 15 to 20)
#    0.000    1.176    0.000    4.588    8.235    2.353 
#    0.000    0.000    0.000    0.000    0.000    0.000 
#    0.000    0.000    0.000    0.000    0.000    0.000 
#
# Total GULP energy -189753.038358 kJ/mol
# GULP energy per Si atom -5580.971716 kJ/mol
# Density = 2.311650 g / cm^3
# Si number density = 23.169233 Si / 1000 Ang^3
#
#
#
# Elastic Constant Matrix: (Units=GPa)
#
#
# Indices 1 2 3 4 5 6 
#
# 1 85.8419 40.9485 12.0922 0.0000 0.0000 0.0000
# 2 40.9485 162.1110 25.3256 0.0001 0.0000 0.0000
# 3 12.0922 25.3256 66.2862 0.0000 -0.0001 0.0000
# 4 0.0000 0.0001 0.0000 -29.6977 -0.0001 0.0000
# 5 0.0000 0.0000 -0.0001 -0.0001 35.0014 0.0000
# 6 0.0000 0.0000 0.0000 0.0000 0.0000 8.2970
#
#
#
# Elastic Compliance Matrix: (Units=1/GPa)
#
#
# Indices 1 2 3 4 5 6 
#
# 1 0.013337 -0.003179 -0.001219 0.000000 0.000000 0.000000
# 2 -0.003179 0.007318 -0.002216 0.000000 0.000000 0.000000
# 3 -0.001219 -0.002216 0.016155 0.000000 0.000000 0.000000
# 4 0.000000 0.000000 0.000000 -0.033673 0.000000 0.000000
# 5 0.000000 0.000000 0.000000 0.000000 0.028570 0.000000
# 6 0.000000 0.000000 0.000000 0.000000 0.000000 0.120525
#
#
# Mechanical properties :
#
#
# Convention : Reuss Voigt Hill
#
# Bulk Modulus (GPa) = 42.40223 52.33018 47.36621
# Shear Modulus (GPa) = 28.84831 18.44500 23.64665
#
# Velocity S-wave (km/s) = 3.53244 2.82458 3.19816
# Velocity P-wave (km/s) = 5.91425 5.76826 5.84171
#
# Compressibility (1/GPa) = 0.02358366
#
# Stress axis : x y z
#
# Youngs Moduli (GPa) = 74.97815 136.65515 61.90016
#
# Poissons Ratio (x) = 0.43436 0.07543
# Poissons Ratio (y) = 0.23832 0.13717
# Poissons Ratio (z) = 0.09137 0.30283
#
# Static dielectric constant tensor:
#      x y z
#    x 1.844630 0.000000 0.000000 
#    y 0.000000 1.848950 0.000000 
#    z 0.000000 0.000000 1.910200 
# 
# From -- ./inp_files/27800.got.cif
#   From: 2010.05.17/outbox.cif.g08.bks.cpg/sg72_14_cif.got.tgz:27800.got - 2010.06.03 17:03:01.
