data_PCOD9528480
_publ_section_title
;
Structure prediction by ZEFSAII (Michael W. Deem and Ramdas Pophale) SiO2 
 PCOD9528480
Probable space group: I B A M
;
_chemical_formula_sum "Si O2"
_cell_formula_units_Z 64
_cell_length_a 23.592069
_cell_length_b 13.358691
_cell_length_c 10.549603
_cell_angle_alpha 90.000000
_cell_angle_beta 90.000000
_cell_angle_gamma 90.000000
_cell_volume 3324.804018
_symmetry_space_group_name_H-M "I B A M"
_symmetry_group_IT_number 72
_symmetry_cell_setting 'orthorhombic'
loop_
_space_group_symop_operation_xyz
x,y,z
-x,-y,z
x,-y,1/2-z
-x,y,1/2-z
-x,-y,-z
x,y,-z
-x,y,1/2+z
x,-y,1/2+z
1/2+x,1/2+y,1/2+z
1/2-x,1/2-y,1/2+z
1/2+x,1/2-y,-z
1/2-x,1/2+y,-z
1/2-x,1/2-y,1/2-z
1/2+x,1/2+y,1/2-z
1/2-x,1/2+y,z
1/2+x,1/2-y,z
loop_
_atom_site_type_symbol
_atom_site_label
_atom_site_fract_x
_atom_site_fract_y
_atom_site_fract_z
Si Si1 0.196270 0.514209 0.500000
Si Si2 0.234486 0.000000 0.250000
Si Si3 0.531835 0.608633 0.861449
Si Si4 0.658526 0.778116 0.500000
Si Si5 0.350732 0.330243 0.756530
Si Si6 0.794471 0.276603 0.000000
O O1 0.230050 0.534277 0.629688
O O2 0.150043 0.601937 0.500000
O O3 0.189686 0.394391 0.500000
O O4 0.195155 0.909352 0.291771
O O5 0.500000 0.500000 0.869953
O O6 0.500000 0.665880 0.750000
O O7 0.596738 0.609038 0.817438
O O8 0.527996 0.654078 0.000000
O O9 0.634267 0.732768 0.631029
O O10 0.726991 0.750920 0.500000
O O11 0.322303 0.268793 0.871918
#
# Coordination Sequence:
#
# PCOD9528480 Si02
#       6
#     8   8  16   8  16   8
#     4  12  24  36  58  84 124 176 216 270 296 366
#     4  12  20  34  57  86 124 172 215 252 318 362
#     4  10  22  41  62  90 128 158 205 265 323 395
#     4  12  24  40  58  89 130 174 223 265 315 383
#     4  12  23  39  63  92 128 176 213 261 332 395
#     4  12  22  42  58  89 130 176 231 267 311 383
#
# _framework density 19.249253
#
# number of rings (size 3 to 8) (size 9 to 14) (size 15 to 20)
#    0.000    0.500    6.250    3.750    1.750    0.000 
#    4.500    0.000    0.000    0.000    0.000    5.250 
#    0.000    0.000    0.000    0.000    0.000    0.000 
#
# Total GULP energy -178371.336422 kJ/mol
# GULP energy per Si atom -5574.104263 kJ/mol
# Density = 1.920544 g / cm^3
# Si number density = 19.249253 Si / 1000 Ang^3
#
#
#
# Elastic Constant Matrix: (Units=GPa)
#
#
# Indices 1 2 3 4 5 6 
#
# 1 47.8492 3.9105 24.8062 0.0000 0.0000 0.0000
# 2 3.9105 89.1215 3.3941 0.0000 0.0000 0.0000
# 3 24.8062 3.3941 151.1137 0.0000 0.0000 0.0000
# 4 0.0000 0.0000 0.0000 20.6535 0.0000 0.0000
# 5 0.0000 0.0000 0.0000 0.0000 -11.4660 0.0000
# 6 0.0000 0.0000 0.0000 0.0000 0.0000 15.1211
#
#
#
# Elastic Compliance Matrix: (Units=1/GPa)
#
#
# Indices 1 2 3 4 5 6 
#
# 1 0.022909 -0.000863 -0.003741 0.000000 0.000000 0.000000
# 2 -0.000863 0.011263 -0.000111 0.000000 0.000000 0.000000
# 3 -0.003741 -0.000111 0.007234 0.000000 0.000000 0.000000
# 4 0.000000 0.000000 0.000000 0.048418 0.000000 0.000000
# 5 0.000000 0.000000 0.000000 0.000000 -0.087214 0.000000
# 6 0.000000 0.000000 0.000000 0.000000 0.000000 0.066133
#
#
# Mechanical properties :
#
#
# Convention : Reuss Voigt Hill
#
# Bulk Modulus (GPa) = 31.27414 39.14511 35.20962
# Shear Modulus (GPa) = 56.28627 21.92663 39.10645
#
# Velocity S-wave (km/s) = 5.41334 3.37870 4.51220
# Velocity P-wave (km/s) = 7.44006 5.96665 6.74372
#
# Compressibility (1/GPa) = 0.03197530
#
# Stress axis : x y z
#
# Youngs Moduli (GPa) = 43.65084 88.78841 138.23257
#
# Poissons Ratio (x) = 0.07660 0.51717
# Poissons Ratio (y) = 0.03766 0.01539
# Poissons Ratio (z) = 0.16331 0.00989
#
# Static dielectric constant tensor:
#      x y z
#    x 1.707300 0.000000 0.000000 
#    y 0.000000 1.707590 0.000000 
#    z 0.000000 0.000000 1.703920 
# 
# From -- ./inp_files/11419.got.cif
#   From: 2010.05.17/outbox.cif.g08.bks.cpg/sg72_6_cif.got.tgz:11419.got - 2010.06.03 17:03:01.
