data_PCOD9528508
_publ_section_title
;
Structure prediction by ZEFSAII (Michael W. Deem and Ramdas Pophale) SiO2 
 PCOD9528508
Probable space group: I B A M
;
_chemical_formula_sum "Si O2"
_cell_formula_units_Z 88
_cell_length_a 21.371158
_cell_length_b 16.154573
_cell_length_c 11.286325
_cell_angle_alpha 90.000000
_cell_angle_beta 90.000000
_cell_angle_gamma 90.000000
_cell_volume 3896.512648
_symmetry_space_group_name_H-M "I B A M"
_symmetry_group_IT_number 72
_symmetry_cell_setting 'orthorhombic'
loop_
_space_group_symop_operation_xyz
x,y,z
-x,-y,z
x,-y,1/2-z
-x,y,1/2-z
-x,-y,-z
x,y,-z
-x,y,1/2+z
x,-y,1/2+z
1/2+x,1/2+y,1/2+z
1/2-x,1/2-y,1/2+z
1/2+x,1/2-y,-z
1/2-x,1/2+y,-z
1/2-x,1/2-y,1/2-z
1/2+x,1/2+y,1/2-z
1/2-x,1/2+y,z
1/2+x,1/2-y,z
loop_
_atom_site_type_symbol
_atom_site_label
_atom_site_fract_x
_atom_site_fract_y
_atom_site_fract_z
Si Si1 0.149431 0.436588 0.000000
Si Si2 0.682309 0.439569 0.135887
Si Si3 0.560605 0.658736 0.696687
Si Si4 0.154516 0.750047 0.830934
Si Si5 0.039461 0.298601 0.000000
Si Si6 0.402551 0.879635 0.500000
Si Si7 0.767878 0.644795 0.186351
O O1 0.097595 0.363077 0.000000
O O2 0.113590 0.523769 0.000000
O O3 0.195804 0.424181 0.887534
O O4 0.676909 0.500000 0.250000
O O5 0.615288 0.393552 0.135407
O O6 0.739660 0.383968 0.186638
O O7 0.693836 0.467713 0.000000
O O8 0.500000 0.614035 0.750000
O O9 0.594578 0.694640 0.812594
O O10 0.542532 0.736224 0.612604
O O11 0.131650 0.667562 0.893228
O O12 0.182256 0.717200 0.707524
O O13 0.209150 0.810469 0.875692
O O14 0.975500 0.352985 0.000000
#
# Coordination Sequence:
#
# PCOD9528508 Si02
#       7
#     8  16  16  16   8   8  16
#     4  12  26  43  67 108 150 197 238 329 384 451
#     4  11  27  47  72 110 151 190 243 316 385 453
#     4  11  22  46  74  98 135 198 248 307 363 442
#     4  10  22  41  65  99 128 188 251 301 357 451
#     4  12  23  46  70  98 144 195 265 303 369 458
#     4  12  26  39  69 103 143 188 249 306 387 432
#     4  10  24  42  69  99 142 189 247 298 376 449
#
# _framework density 22.584295999999998
#
# number of rings (size 3 to 8) (size 9 to 14) (size 15 to 20)
#    0.000    1.091    4.545    0.818    5.091    0.364 
#    3.273    0.909    0.000    0.000    0.000    0.000 
#    0.000    0.000    0.000    0.000    0.000    0.000 
#
# Total GULP energy -245203.266509 kJ/mol
# GULP energy per Si atom -5572.801512 kJ/mol
# Density = 2.253289 g / cm^3
# Si number density = 22.584296 Si / 1000 Ang^3
#
#
#
# Elastic Constant Matrix: (Units=GPa)
#
#
# Indices 1 2 3 4 5 6 
#
# 1 163.0581 32.3210 45.8060 0.0000 0.0000 0.0000
# 2 32.3210 81.6660 35.5302 0.0000 0.0000 0.0000
# 3 45.8060 35.5302 111.9500 0.0000 0.0000 0.0000
# 4 0.0000 0.0000 0.0000 36.8346 0.0000 0.0000
# 5 0.0000 0.0000 0.0000 0.0000 14.0988 0.0000
# 6 0.0000 0.0000 0.0000 0.0000 0.0000 47.3875
#
#
#
# Elastic Compliance Matrix: (Units=1/GPa)
#
#
# Indices 1 2 3 4 5 6 
#
# 1 0.007152 -0.001807 -0.002353 0.000000 0.000000 0.000000
# 2 -0.001807 0.014663 -0.003914 0.000000 0.000000 0.000000
# 3 -0.002353 -0.003914 0.011138 0.000000 0.000000 0.000000
# 4 0.000000 0.000000 0.000000 0.027148 0.000000 0.000000
# 5 0.000000 0.000000 0.000000 0.000000 0.070928 0.000000
# 6 0.000000 0.000000 0.000000 0.000000 0.000000 0.021103
#
#
# Mechanical properties :
#
#
# Convention : Reuss Voigt Hill
#
# Bulk Modulus (GPa) = 59.50832 64.88761 62.19796
# Shear Modulus (GPa) = 28.75523 35.86530 32.31027
#
# Velocity S-wave (km/s) = 3.57212 3.98937 3.78650
# Velocity P-wave (km/s) = 6.58939 7.07204 6.83498
#
# Compressibility (1/GPa) = 0.01680437
#
# Stress axis : x y z
#
# Youngs Moduli (GPa) = 139.82317 68.19820 89.78595
#
# Poissons Ratio (x) = 0.12322 0.21125
# Poissons Ratio (y) = 0.25264 0.35146
# Poissons Ratio (z) = 0.32898 0.26696
#
# Static dielectric constant tensor:
#      x y z
#    x 1.821500 0.000000 0.000000 
#    y 0.000000 1.899980 0.000000 
#    z 0.000000 0.000000 1.896360 
# 
# From -- ./inp_files/14667.got.cif
#   From: 2010.05.17/outbox.cif.g08.bks.cpg/sg72_8_cif.got.tgz:14667.got - 2010.06.03 17:03:01.
