data_PCOD9528761
_publ_section_title
;
Structure prediction by ZEFSAII (Michael W. Deem and Ramdas Pophale) SiO2 
 PCOD9528761
Probable space group: I B A M
;
_chemical_formula_sum "Si O2"
_cell_formula_units_Z 56
_cell_length_a 27.063068
_cell_length_b 11.427965
_cell_length_c 8.493314
_cell_angle_alpha 90.000000
_cell_angle_beta 90.000000
_cell_angle_gamma 90.000000
_cell_volume 2626.776430
_symmetry_space_group_name_H-M "I B A M"
_symmetry_group_IT_number 72
_symmetry_cell_setting 'orthorhombic'
loop_
_space_group_symop_operation_xyz
x,y,z
-x,-y,z
x,-y,1/2-z
-x,y,1/2-z
-x,-y,-z
x,y,-z
-x,y,1/2+z
x,-y,1/2+z
1/2+x,1/2+y,1/2+z
1/2-x,1/2-y,1/2+z
1/2+x,1/2-y,-z
1/2-x,1/2+y,-z
1/2-x,1/2-y,1/2-z
1/2+x,1/2+y,1/2-z
1/2-x,1/2+y,z
1/2+x,1/2-y,z
loop_
_atom_site_type_symbol
_atom_site_label
_atom_site_fract_x
_atom_site_fract_y
_atom_site_fract_z
Si Si1 0.387221 0.626374 0.184699
Si Si2 0.803623 0.715218 0.688057
Si Si3 0.635180 0.000000 0.750000
Si Si4 0.050267 0.325926 0.325185
O O1 0.400955 0.500000 0.250000
O O2 0.340291 0.676783 0.279955
O O3 0.429547 0.721581 0.217312
O O4 0.375856 0.621202 0.000000
O O5 0.803102 0.686459 0.500000
O O6 0.750000 0.750000 0.750000
O O7 0.826642 0.605729 0.786773
O O8 0.594142 0.079047 0.661247
O O9 0.040354 0.281063 0.500000
O O10 0.000000 0.372003 0.250000
#
# Coordination Sequence:
#
# PCOD9528761 Si02
#       4
#    16  16   8  16
#     4  11  23  42  66  93 131 172 218 272 326 387
#     4  11  25  43  66  95 129 171 220 269 326 388
#     4  10  23  42  66  94 132 168 213 268 322 380
#     4  11  24  42  67  99 133 172 219 268 327 390
#
# _framework density 21.318905000000001
#
# number of rings (size 3 to 8) (size 9 to 14) (size 15 to 20)
#    0.000    1.143    0.000    7.286    2.000   15.429 
#    0.000    2.857    0.000    0.000    0.000    0.000 
#    0.000    0.000    0.000    0.000    0.000    0.000 
#
# Total GULP energy -155999.213161 kJ/mol
# GULP energy per Si atom -5571.400470 kJ/mol
# Density = 2.127038 g / cm^3
# Si number density = 21.318905 Si / 1000 Ang^3
#
#
#
# Elastic Constant Matrix: (Units=GPa)
#
#
# Indices 1 2 3 4 5 6 
#
# 1 158.7121 46.5332 18.5254 0.0000 0.0000 0.0000
# 2 46.5332 128.0074 30.4691 0.0000 0.0000 0.0000
# 3 18.5254 30.4691 83.8540 0.0000 0.0000 0.0000
# 4 0.0000 0.0000 0.0000 -42.8931 0.0000 0.0000
# 5 0.0000 0.0000 0.0000 0.0000 15.2449 0.0000
# 6 0.0000 0.0000 0.0000 0.0000 0.0000 16.4224
#
#
#
# Elastic Compliance Matrix: (Units=1/GPa)
#
#
# Indices 1 2 3 4 5 6 
#
# 1 0.007089 -0.002413 -0.000689 0.000000 0.000000 0.000000
# 2 -0.002413 0.009373 -0.002873 0.000000 0.000000 0.000000
# 3 -0.000689 -0.002873 0.013122 0.000000 0.000000 0.000000
# 4 0.000000 0.000000 0.000000 -0.023314 0.000000 0.000000
# 5 0.000000 0.000000 0.000000 0.000000 0.065596 0.000000
# 6 0.000000 0.000000 0.000000 0.000000 0.000000 0.060892
#
#
# Mechanical properties :
#
#
# Convention : Reuss Voigt Hill
#
# Bulk Modulus (GPa) = 56.71021 62.40320 59.55671
# Shear Modulus (GPa) = 33.20391 16.09125 24.64758
#
# Velocity S-wave (km/s) = 3.95078 2.75032 3.40389
# Velocity P-wave (km/s) = 6.88986 6.27858 6.59131
#
# Compressibility (1/GPa) = 0.01763351
#
# Stress axis : x y z
#
# Youngs Moduli (GPa) = 141.07193 106.69054 76.21019
#
# Poissons Ratio (x) = 0.25742 0.05254
# Poissons Ratio (y) = 0.34037 0.21893
# Poissons Ratio (z) = 0.09725 0.30649
#
# Static dielectric constant tensor:
#      x y z
#    x 1.760780 0.000000 0.000000 
#    y 0.000000 1.754580 0.000000 
#    z 0.000000 0.000000 1.708030 
# 
# From -- ./inp_files/7701.got.cif
#   From: 2010.05.17/outbox.cif.g08.bks.cpg/sg72_4_cif.got.tgz:7701.got - 2010.06.03 17:03:01.
