data_PCOD9528700
_publ_section_title
;
Structure prediction by ZEFSAII (Michael W. Deem and Ramdas Pophale) SiO2 
 PCOD9528700
Probable space group: I B A M
;
_chemical_formula_sum "Si O2"
_cell_formula_units_Z 68
_cell_length_a 12.823954
_cell_length_b 17.229211
_cell_length_c 14.000221
_cell_angle_alpha 90.000000
_cell_angle_beta 90.000000
_cell_angle_gamma 90.000000
_cell_volume 3093.301360
_symmetry_space_group_name_H-M "I B A M"
_symmetry_group_IT_number 72
_symmetry_cell_setting 'orthorhombic'
loop_
_space_group_symop_operation_xyz
x,y,z
-x,-y,z
x,-y,1/2-z
-x,y,1/2-z
-x,-y,-z
x,y,-z
-x,y,1/2+z
x,-y,1/2+z
1/2+x,1/2+y,1/2+z
1/2-x,1/2-y,1/2+z
1/2+x,1/2-y,-z
1/2-x,1/2+y,-z
1/2-x,1/2-y,1/2-z
1/2+x,1/2+y,1/2-z
1/2-x,1/2+y,z
1/2+x,1/2-y,z
loop_
_atom_site_type_symbol
_atom_site_label
_atom_site_fract_x
_atom_site_fract_y
_atom_site_fract_z
Si Si1 0.097459 0.455803 0.851356
Si Si2 0.254607 0.668934 0.111944
Si Si3 0.000000 0.000000 0.250000
Si Si4 0.898031 0.288434 0.713462
Si Si5 0.330761 0.507144 0.393816
O O1 0.108677 0.500000 0.750000
O O2 0.067102 0.367118 0.838058
O O3 0.214782 0.457140 0.890464
O O4 0.000000 0.500000 0.898682
O O5 0.167709 0.683302 0.193719
O O6 0.335122 0.736155 0.139940
O O7 0.307581 0.584347 0.125211
O O8 0.221473 0.673176 0.000000
O O9 0.083495 0.959808 0.178931
O O10 0.000000 0.244686 0.750000
O O11 0.372141 0.515975 0.500000
#
# Coordination Sequence:
#
# PCOD9528700 Si02
#       5
#    16  16   4  16  16
#     4  11  19  39  68  97 122 155 196 261 320 377
#     4  10  23  40  57  87 124 160 205 252 299 364
#     4  12  22  40  62  86 124 168 212 258 292 358
#     4  11  21  38  66  89 121 162 200 248 317 365
#     4  11  23  40  63  91 124 165 209 253 308 367
#
# _framework density 21.982987000000001
#
# number of rings (size 3 to 8) (size 9 to 14) (size 15 to 20)
#    0.000    1.176    5.882    0.353    1.647    2.353 
#    0.000    0.000    0.000    0.706    0.000    0.000 
#    0.000    0.000    0.000    0.000    0.000    0.000 
#
# Total GULP energy -189621.824256 kJ/mol
# GULP energy per Si atom -5577.112478 kJ/mol
# Density = 2.193295 g / cm^3
# Si number density = 21.982987 Si / 1000 Ang^3
#
#
#
# Elastic Constant Matrix: (Units=GPa)
#
#
# Indices 1 2 3 4 5 6 
#
# 1 121.4774 4.3341 23.8499 0.0000 0.0000 0.0000
# 2 4.3341 52.0223 -7.4901 0.0000 0.0000 0.0000
# 3 23.8499 -7.4901 111.5864 0.0000 -0.0001 0.0000
# 4 0.0000 0.0000 0.0000 33.7722 -0.0001 0.0000
# 5 0.0000 0.0000 -0.0001 -0.0001 -37.2619 0.0000
# 6 0.0000 0.0000 0.0000 0.0000 0.0000 26.3603
#
#
#
# Elastic Compliance Matrix: (Units=1/GPa)
#
#
# Indices 1 2 3 4 5 6 
#
# 1 0.008643 -0.000996 -0.001914 0.000000 0.000000 0.000000
# 2 -0.000996 0.019525 0.001523 0.000000 0.000000 0.000000
# 3 -0.001914 0.001523 0.009473 0.000000 0.000000 0.000000
# 4 0.000000 0.000000 0.000000 0.029610 0.000000 0.000000
# 5 0.000000 0.000000 0.000000 0.000000 -0.026837 0.000000
# 6 0.000000 0.000000 0.000000 0.000000 0.000000 0.037936
#
#
# Mechanical properties :
#
#
# Convention : Reuss Voigt Hill
#
# Bulk Modulus (GPa) = 28.67945 36.27486 32.47715
# Shear Modulus (GPa) = 53.91076 22.20028 38.05552
#
# Velocity S-wave (km/s) = 4.95753 3.18132 4.16520
# Velocity P-wave (km/s) = 6.77082 5.48010 6.15936
#
# Compressibility (1/GPa) = 0.03486818
#
# Stress axis : x y z
#
# Youngs Moduli (GPa) = 115.69615 51.21687 105.56258
#
# Poissons Ratio (x) = 0.05100 0.20207
# Poissons Ratio (y) = 0.11520 -0.16081
# Poissons Ratio (z) = 0.22147 -0.07802
#
# Static dielectric constant tensor:
#      x y z
#    x 1.895080 0.000000 0.000000 
#    y 0.000000 1.765690 0.000000 
#    z 0.000000 0.000000 1.845180 
# 
# From -- ./inp_files/19912.got.cif
#   From: 2010.05.17/outbox.cif.g08.bks.cpg/sg72_10_cif.got.tgz:19912.got - 2010.06.03 17:03:01.
