data_PCOD9528921
_publ_section_title
;
Structure prediction by ZEFSAII (Michael W. Deem and Ramdas Pophale) SiO2 
 PCOD9528921
Probable space group: I B A M
;
_chemical_formula_sum "Si O2"
_cell_formula_units_Z 64
_cell_length_a 13.371989
_cell_length_b 8.761037
_cell_length_c 24.781905
_cell_angle_alpha 90.000000
_cell_angle_beta 90.000000
_cell_angle_gamma 90.000000
_cell_volume 2903.261887
_symmetry_space_group_name_H-M "I B A M"
_symmetry_group_IT_number 72
_symmetry_cell_setting 'orthorhombic'
loop_
_space_group_symop_operation_xyz
x,y,z
-x,-y,z
x,-y,1/2-z
-x,y,1/2-z
-x,-y,-z
x,y,-z
-x,y,1/2+z
x,-y,1/2+z
1/2+x,1/2+y,1/2+z
1/2-x,1/2-y,1/2+z
1/2+x,1/2-y,-z
1/2-x,1/2+y,-z
1/2-x,1/2-y,1/2-z
1/2+x,1/2+y,1/2-z
1/2-x,1/2+y,z
1/2+x,1/2-y,z
loop_
_atom_site_type_symbol
_atom_site_label
_atom_site_fract_x
_atom_site_fract_y
_atom_site_fract_z
Si Si1 0.552823 0.340419 0.858177
Si Si2 0.394184 0.203415 0.938833
Si Si3 0.322991 0.144566 0.285140
Si Si4 0.263526 0.523649 0.602276
O O1 0.500000 0.500000 0.843760
O O2 0.481108 0.243036 0.896660
O O3 0.585571 0.243895 0.806901
O O4 0.653203 0.392202 0.889331
O O5 0.315601 0.343112 0.931669
O O6 0.334284 0.050782 0.923703
O O7 0.431030 0.198402 0.000000
O O8 0.250000 0.250000 0.250000
O O9 0.264539 0.085450 0.338340
O O10 0.353537 0.000000 0.250000
#
# Coordination Sequence:
#
# PCOD9528921 Si02
#       4
#    16  16  16  16
#     4  10  24  45  72 107 149 179 248 302 346 442
#     4  11  24  44  74 103 145 196 235 298 368 418
#     4  12  23  46  78 103 143 196 240 295 372 425
#     4  11  22  46  69 105 148 182 248 296 343 452
#
# _framework density 22.044170000000001
#
# number of rings (size 3 to 8) (size 9 to 14) (size 15 to 20)
#    0.000    1.000    5.000    0.750    0.000    6.500 
#    0.000   25.000    0.000    0.000    0.000    0.000 
#    0.000    0.000    0.000    0.000    0.000    0.000 
#
# Total GULP energy -179210.981830 kJ/mol
# GULP energy per Si atom -5600.343182 kJ/mol
# Density = 2.199400 g / cm^3
# Si number density = 22.044170 Si / 1000 Ang^3
#
#
#
# Elastic Constant Matrix: (Units=GPa)
#
#
# Indices 1 2 3 4 5 6 
#
# 1 103.3860 51.8541 60.4237 0.0000 0.0000 0.0000
# 2 51.8541 75.2033 59.1767 0.0000 0.0000 0.0000
# 3 60.4237 59.1767 138.6216 0.0000 0.0000 0.0000
# 4 0.0000 0.0000 0.0000 29.3853 0.0000 0.0000
# 5 0.0000 0.0000 0.0000 0.0000 20.5945 0.0000
# 6 0.0000 0.0000 0.0000 0.0000 0.0000 39.7602
#
#
#
# Elastic Compliance Matrix: (Units=1/GPa)
#
#
# Indices 1 2 3 4 5 6 
#
# 1 0.015760 -0.008224 -0.003359 0.000000 0.000000 0.000000
# 2 -0.008224 0.024315 -0.006795 0.000000 0.000000 0.000000
# 3 -0.003359 -0.006795 0.011579 0.000000 0.000000 0.000000
# 4 0.000000 0.000000 0.000000 0.034031 0.000000 0.000000
# 5 0.000000 0.000000 0.000000 0.000000 0.048557 0.000000
# 6 0.000000 0.000000 0.000000 0.000000 0.000000 0.025151
#
#
# Mechanical properties :
#
#
# Convention : Reuss Voigt Hill
#
# Bulk Modulus (GPa) = 67.12348 73.34668 70.23508
# Shear Modulus (GPa) = 24.86147 27.66510 26.26329
#
# Velocity S-wave (km/s) = 3.36192 3.54642 3.45540
# Velocity P-wave (km/s) = 6.75171 7.07914 6.91737
#
# Compressibility (1/GPa) = 0.01489792
#
# Stress axis : x y z
#
# Youngs Moduli (GPa) = 63.44989 41.12712 86.36411
#
# Poissons Ratio (x) = 0.33823 0.29010
# Poissons Ratio (y) = 0.52181 0.58686
# Poissons Ratio (z) = 0.21313 0.27946
#
# Static dielectric constant tensor:
#      x y z
#    x 1.811560 0.000000 0.000000 
#    y 0.000000 1.831000 0.000000 
#    z 0.000000 0.000000 1.766190 
# 
# From -- ./inp_files/41888.got.cif
#   From: 2010.05.17/outbox.cif.g08.bks.cpg/sg72_21_cif.got.tgz:41888.got - 2010.06.03 17:03:01.
