data_PCOD9528071
_publ_section_title
;
Structure prediction by ZEFSAII (Michael W. Deem and Ramdas Pophale) SiO2 
 PCOD9528071
Probable space group: I B A M
;
_chemical_formula_sum "Si O2"
_cell_formula_units_Z 88
_cell_length_a 18.773611
_cell_length_b 8.982383
_cell_length_c 22.423397
_cell_angle_alpha 90.000000
_cell_angle_beta 90.000000
_cell_angle_gamma 90.000000
_cell_volume 3781.296998
_symmetry_space_group_name_H-M "I B A M"
_symmetry_group_IT_number 72
_symmetry_cell_setting 'orthorhombic'
loop_
_space_group_symop_operation_xyz
x,y,z
-x,-y,z
x,-y,1/2-z
-x,y,1/2-z
-x,-y,-z
x,y,-z
-x,y,1/2+z
x,-y,1/2+z
1/2+x,1/2+y,1/2+z
1/2-x,1/2-y,1/2+z
1/2+x,1/2-y,-z
1/2-x,1/2+y,-z
1/2-x,1/2-y,1/2-z
1/2+x,1/2+y,1/2-z
1/2-x,1/2+y,z
1/2+x,1/2-y,z
loop_
_atom_site_type_symbol
_atom_site_label
_atom_site_fract_x
_atom_site_fract_y
_atom_site_fract_z
Si Si1 0.875700 0.194459 0.605407
Si Si2 0.286019 0.537675 0.318603
Si Si3 0.500000 0.500000 0.112306
Si Si4 0.614768 0.043856 0.183047
Si Si5 0.156314 0.738627 0.000000
Si Si6 0.808052 0.613446 0.000000
Si Si7 0.103229 0.759459 0.130596
O O1 0.818437 0.082815 0.635224
O O2 0.906864 0.296626 0.658466
O O3 0.842085 0.305229 0.557342
O O4 0.940481 0.097763 0.579121
O O5 0.304050 0.500000 0.250000
O O6 0.201110 0.545680 0.322731
O O7 0.323355 0.692889 0.336866
O O8 0.453302 0.383215 0.149705
O O9 0.584949 0.908979 0.144373
O O10 0.596581 0.000000 0.250000
O O11 0.179739 0.563959 0.000000
O O12 0.113550 0.770543 0.059920
O O13 0.225134 0.844719 0.000000
#
# Coordination Sequence:
#
# PCOD9528071 Si02
#       7
#    16  16   8  16   8   8  16
#     4  11  24  43  65  96 134 174 221 264 322 392
#     4  10  21  39  67 101 135 171 212 268 336 398
#     4  10  28  47  65  86 128 182 227 261 318 384
#     4  11  21  39  67  98 130 167 216 279 337 385
#     4  12  26  42  71 107 137 163 206 271 336 389
#     4  12  26  42  71 107 137 163 206 271 336 389
#     4  11  24  43  65  96 134 174 221 264 322 392
#
# _framework density 23.272438000000001
#
# number of rings (size 3 to 8) (size 9 to 14) (size 15 to 20)
#    0.000    1.091    1.818    4.364    5.091    5.091 
#    0.000   18.182    0.000    0.000    0.000    0.000 
#    0.000    0.000    0.000    0.000    0.000    0.000 
#
# Total GULP energy -246244.048614 kJ/mol
# GULP energy per Si atom -5596.455650 kJ/mol
# Density = 2.321947 g / cm^3
# Si number density = 23.272438 Si / 1000 Ang^3
#
#
#
# Elastic Constant Matrix: (Units=GPa)
#
#
# Indices 1 2 3 4 5 6 
#
# 1 69.8043 25.1494 16.9101 0.0000 0.0000 0.0000
# 2 25.1494 112.5288 6.9973 0.0000 0.0000 0.0000
# 3 16.9101 6.9973 109.7383 0.0000 0.0000 0.0000
# 4 0.0000 0.0000 0.0000 25.0681 0.0000 0.0000
# 5 0.0000 0.0000 0.0000 0.0000 15.0848 0.0000
# 6 0.0000 0.0000 0.0000 0.0000 0.0000 34.5253
#
#
#
# Elastic Compliance Matrix: (Units=1/GPa)
#
#
# Indices 1 2 3 4 5 6 
#
# 1 0.016121 -0.003462 -0.002263 0.000000 0.000000 0.000000
# 2 -0.003462 0.009666 -0.000083 0.000000 0.000000 0.000000
# 3 -0.002263 -0.000083 0.009467 0.000000 0.000000 0.000000
# 4 0.000000 0.000000 0.000000 0.039891 0.000000 0.000000
# 5 0.000000 0.000000 0.000000 0.000000 0.066292 0.000000
# 6 0.000000 0.000000 0.000000 0.000000 0.000000 0.028964
#
#
# Mechanical properties :
#
#
# Convention : Reuss Voigt Hill
#
# Bulk Modulus (GPa) = 42.30725 43.35388 42.83057
# Shear Modulus (GPa) = 26.33006 31.13663 28.73334
#
# Velocity S-wave (km/s) = 3.36725 3.66173 3.51757
# Velocity P-wave (km/s) = 5.77377 6.04541 5.91115
#
# Compressibility (1/GPa) = 0.02363661
#
# Stress axis : x y z
#
# Youngs Moduli (GPa) = 62.02899 103.46019 105.63388
#
# Poissons Ratio (x) = 0.35821 0.23910
# Poissons Ratio (y) = 0.21476 0.00874
# Poissons Ratio (z) = 0.14040 0.00856
#
# Static dielectric constant tensor:
#      x y z
#    x 1.897350 0.000000 0.000000 
#    y 0.000000 1.859490 0.000000 
#    z 0.000000 0.000000 1.858460 
# 
# From -- ./inp_files/45259.got.cif
#   From: 2010.05.17/outbox.cif.g08.bks.cpg/sg72_23_cif.got.tgz:45259.got - 2010.06.03 17:03:01.
