data_PCOD9528094
_publ_section_title
;
Structure prediction by ZEFSAII (Michael W. Deem and Ramdas Pophale) SiO2 
 PCOD9528094
Probable space group: I B A M
;
_chemical_formula_sum "Si O2"
_cell_formula_units_Z 56
_cell_length_a 9.350848
_cell_length_b 27.049881
_cell_length_c 9.686640
_cell_angle_alpha 90.000000
_cell_angle_beta 90.000000
_cell_angle_gamma 90.000000
_cell_volume 2450.132189
_symmetry_space_group_name_H-M "I B A M"
_symmetry_group_IT_number 72
_symmetry_cell_setting 'orthorhombic'
loop_
_space_group_symop_operation_xyz
x,y,z
-x,-y,z
x,-y,1/2-z
-x,y,1/2-z
-x,-y,-z
x,y,-z
-x,y,1/2+z
x,-y,1/2+z
1/2+x,1/2+y,1/2+z
1/2-x,1/2-y,1/2+z
1/2+x,1/2-y,-z
1/2-x,1/2+y,-z
1/2-x,1/2-y,1/2-z
1/2+x,1/2+y,1/2-z
1/2-x,1/2+y,z
1/2+x,1/2-y,z
loop_
_atom_site_type_symbol
_atom_site_label
_atom_site_fract_x
_atom_site_fract_y
_atom_site_fract_z
Si Si1 0.900999 0.684377 0.000000
Si Si2 0.619326 0.064539 0.500000
Si Si3 0.219536 0.457517 0.000000
Si Si4 0.000000 0.181864 0.250000
Si Si5 0.266031 0.116536 0.735165
Si Si6 0.369964 0.256067 0.000000
O O1 0.853868 0.653294 0.133966
O O2 0.064477 0.701523 0.000000
O O3 0.798903 0.733329 0.000000
O O4 0.452279 0.051158 0.500000
O O5 0.647973 0.094546 0.638459
O O6 0.723640 0.016616 0.500000
O O7 0.277846 0.428903 0.134046
O O8 0.869733 0.146386 0.292057
O O9 0.934680 0.216199 0.132077
#
# Coordination Sequence:
#
# PCOD9528094 Si02
#       6
#     8   8   8   8  16   8
#     4   9  22  43  60  88 127 156 207 250 304 355
#     4  11  21  39  64  88 120 162 196 244 309 349
#     4  10  22  40  59  90 128 152 195 255 298 349
#     4  10  22  42  63  82 128 160 193 248 314 340
#     4  10  21  40  61  89 119 159 201 244 293 369
#     4  10  21  42  61  87 121 169 195 259 300 359
#
# _framework density 22.855910000000002
#
# number of rings (size 3 to 8) (size 9 to 14) (size 15 to 20)
#    0.000    2.000    0.000    3.429    0.000    6.857 
#   25.714    4.286    0.000    0.000    0.000    0.000 
#    0.000    0.000    0.000    0.000    0.000    0.000 
#
# Total GULP energy -156706.026950 kJ/mol
# GULP energy per Si atom -5596.643820 kJ/mol
# Density = 2.280389 g / cm^3
# Si number density = 22.855910 Si / 1000 Ang^3
#
#
#
# Elastic Constant Matrix: (Units=GPa)
#
#
# Indices 1 2 3 4 5 6 
#
# 1 32.7930 23.7018 -0.6086 0.0018 0.0002 -0.0002
# 2 23.7018 95.4582 8.3939 0.0016 0.0010 -0.0002
# 3 -0.6086 8.3939 98.3910 0.0086 0.0019 -0.0008
# 4 0.0018 0.0016 0.0086 10.3031 0.0011 -0.0004
# 5 0.0002 0.0010 0.0019 0.0011 0.3543 0.0001
# 6 -0.0002 -0.0002 -0.0008 -0.0004 0.0001 33.3618
#
#
#
# Elastic Compliance Matrix: (Units=1/GPa)
#
#
# Indices 1 2 3 4 5 6 
#
# 1 0.037267 -0.009343 0.001028 -0.000006 0.000001 0.000000
# 2 -0.009343 0.012898 -0.001158 0.000001 -0.000024 0.000000
# 3 0.001028 -0.001158 0.010269 -0.000009 -0.000052 0.000000
# 4 -0.000006 0.000001 -0.000009 0.097058 -0.000294 0.000001
# 5 0.000001 -0.000024 -0.000052 -0.000294 2.822841 -0.000007
# 6 0.000000 0.000000 0.000000 0.000001 -0.000007 0.029974
#
#
# Mechanical properties :
#
#
# Convention : Reuss Voigt Hill
#
# Bulk Modulus (GPa) = 24.10516 32.17961 28.14239
# Shear Modulus (GPa) = 1.64307 21.81418 11.72862
#
# Velocity S-wave (km/s) = 0.84879 3.09272 2.26775
# Velocity P-wave (km/s) = 3.39559 5.18297 4.38139
#
# Compressibility (1/GPa) = 0.04148489
#
# Stress axis : x y z
#
# Youngs Moduli (GPa) = 26.83373 77.53403 97.38339
#
# Poissons Ratio (x) = 0.72444 -0.10007
# Poissons Ratio (y) = 0.25072 0.11278
# Poissons Ratio (z) = -0.02758 0.08979
#
# Static dielectric constant tensor:
#      x y z
#    x 1.849140 0.000000 0.000000 
#    y 0.000000 1.911400 0.000000 
#    z 0.000000 0.000000 1.795660 
# 
# From -- ./inp_files/2436.got.cif
#   From: 2010.05.17/outbox.cif.g08.bks.cpg/sg72_2_cif.got.tgz:2436.got - 2010.06.03 17:03:01.
