data_PCOD9528349
_publ_section_title
;
Structure prediction by ZEFSAII (Michael W. Deem and Ramdas Pophale) SiO2 
 PCOD9528349
Probable space group: I B A M
;
_chemical_formula_sum "Si O2"
_cell_formula_units_Z 116
_cell_length_a 13.849657
_cell_length_b 14.336591
_cell_length_c 24.320544
_cell_angle_alpha 90.000000
_cell_angle_beta 90.000000
_cell_angle_gamma 90.000000
_cell_volume 4829.011042
_symmetry_space_group_name_H-M "I B A M"
_symmetry_group_IT_number 72
_symmetry_cell_setting 'orthorhombic'
loop_
_space_group_symop_operation_xyz
x,y,z
-x,-y,z
x,-y,1/2-z
-x,y,1/2-z
-x,-y,-z
x,y,-z
-x,y,1/2+z
x,-y,1/2+z
1/2+x,1/2+y,1/2+z
1/2-x,1/2-y,1/2+z
1/2+x,1/2-y,-z
1/2-x,1/2+y,-z
1/2-x,1/2-y,1/2-z
1/2+x,1/2+y,1/2-z
1/2-x,1/2+y,z
1/2+x,1/2-y,z
loop_
_atom_site_type_symbol
_atom_site_label
_atom_site_fract_x
_atom_site_fract_y
_atom_site_fract_z
Si Si1 0.833766 0.534068 0.060770
Si Si2 0.583905 0.738924 0.937021
Si Si3 0.101306 0.397805 0.648672
Si Si4 0.000000 0.500000 0.250000
Si Si5 0.331046 0.366242 0.658022
Si Si6 0.181804 0.746503 0.557639
Si Si7 0.387243 0.397510 0.234419
Si Si8 0.626267 0.560243 0.884615
O O1 0.897237 0.482373 0.105083
O O2 0.857361 0.642392 0.056934
O O3 0.722748 0.535554 0.081458
O O4 0.840914 0.490889 0.000000
O O5 0.560263 0.810013 0.886840
O O6 0.701783 0.742660 0.938891
O O7 0.564367 0.629793 0.922383
O O8 0.552380 0.761367 0.000000
O O9 0.056765 0.432132 0.706597
O O10 0.216498 0.383282 0.656616
O O11 0.356372 0.295918 0.610631
O O12 0.349356 0.329268 0.719016
O O13 0.394835 0.458934 0.642601
O O14 0.158775 0.795299 0.500000
O O15 0.344256 0.500000 0.250000
O O16 0.500000 0.401283 0.250000
O O17 0.361096 0.379499 0.171685
#
# Coordination Sequence:
#
# PCOD9528349 Si02
#       8
#    16  16  16   4  16  16  16  16
#     4   9  17  33  59  85 110 148 199 248 293 353
#     4   9  17  34  56  83 114 147 195 245 292 351
#     4  10  22  39  58  81 112 156 195 243 306 344
#     4  12  28  44  58  80 122 150 200 270 292 348
#     4   9  18  32  58  84 118 158 190 229 286 355
#     4   8  15  29  52  87 117 142 189 240 284 342
#     4   9  18  33  51  76 114 155 191 229 272 339
#     4   9  17  29  53  87 114 148 196 235 284 343
#
# _framework density 24.021481000000001
#
# number of rings (size 3 to 8) (size 9 to 14) (size 15 to 20)
#    0.000    2.897    0.000    1.655    4.828    3.862 
#    3.724    3.448    0.000    3.310    0.000   14.483 
#    0.000    0.000    0.000    0.000    0.000    0.000 
#
# Total GULP energy -323228.830842 kJ/mol
# GULP energy per Si atom -5572.910877 kJ/mol
# Density = 2.396681 g / cm^3
# Si number density = 24.021481 Si / 1000 Ang^3
#
#
#
# Elastic Constant Matrix: (Units=GPa)
#
#
# Indices 1 2 3 4 5 6 
#
# 1 87.2026 2.0172 16.9048 0.0000 0.0000 0.0000
# 2 2.0172 57.7169 36.4221 0.0000 0.0000 0.0000
# 3 16.9048 36.4221 186.5705 0.0000 0.0000 0.0000
# 4 0.0000 0.0000 0.0000 37.9567 0.0000 0.0000
# 5 0.0000 0.0000 0.0000 0.0000 8.3062 0.0000
# 6 0.0000 0.0000 0.0000 0.0000 0.0000 9.2259
#
#
#
# Elastic Compliance Matrix: (Units=1/GPa)
#
#
# Indices 1 2 3 4 5 6 
#
# 1 0.011677 0.000296 -0.001116 0.000000 0.000000 0.000000
# 2 0.000296 0.019768 -0.003886 0.000000 0.000000 0.000000
# 3 -0.001116 -0.003886 0.006220 0.000000 0.000000 0.000000
# 4 0.000000 0.000000 0.000000 0.026346 0.000000 0.000000
# 5 0.000000 0.000000 0.000000 0.000000 0.120392 0.000000
# 6 0.000000 0.000000 0.000000 0.000000 0.000000 0.108391
#
#
# Mechanical properties :
#
#
# Convention : Reuss Voigt Hill
#
# Bulk Modulus (GPa) = 35.39442 49.13093 42.26267
# Shear Modulus (GPa) = 16.04506 29.50747 22.77627
#
# Velocity S-wave (km/s) = 2.58727 3.50863 3.08257
# Velocity P-wave (km/s) = 4.86742 6.07546 5.50468
#
# Compressibility (1/GPa) = 0.02825304
#
# Stress axis : x y z
#
# Youngs Moduli (GPa) = 85.63838 50.58741 160.78202
#
# Poissons Ratio (x) = -0.01498 0.17940
# Poissons Ratio (y) = -0.02535 0.62478
# Poissons Ratio (z) = 0.09556 0.19658
#
# Static dielectric constant tensor:
#      x y z
#    x 2.004640 0.000000 0.000000 
#    y 0.000000 1.959370 0.000000 
#    z 0.000000 0.000000 1.986650 
# 
# From -- ./inp_files/44969.got.cif
#   From: 2010.05.17/outbox.cif.g08.bks.cpg/sg72_23_cif.got.tgz:44969.got - 2010.06.03 17:03:01.
