data_PCOD9528040
_publ_section_title
;
Structure prediction by ZEFSAII (Michael W. Deem and Ramdas Pophale) SiO2 
 PCOD9528040
Probable space group: I B A M
;
_chemical_formula_sum "Si O2"
_cell_formula_units_Z 112
_cell_length_a 20.115342
_cell_length_b 11.726189
_cell_length_c 24.767881
_cell_angle_alpha 90.000000
_cell_angle_beta 90.000000
_cell_angle_gamma 90.000000
_cell_volume 5842.156181
_symmetry_space_group_name_H-M "I B A M"
_symmetry_group_IT_number 72
_symmetry_cell_setting 'orthorhombic'
loop_
_space_group_symop_operation_xyz
x,y,z
-x,-y,z
x,-y,1/2-z
-x,y,1/2-z
-x,-y,-z
x,y,-z
-x,y,1/2+z
x,-y,1/2+z
1/2+x,1/2+y,1/2+z
1/2-x,1/2-y,1/2+z
1/2+x,1/2-y,-z
1/2-x,1/2+y,-z
1/2-x,1/2-y,1/2-z
1/2+x,1/2+y,1/2-z
1/2-x,1/2+y,z
1/2+x,1/2-y,z
loop_
_atom_site_type_symbol
_atom_site_label
_atom_site_fract_x
_atom_site_fract_y
_atom_site_fract_z
Si Si1 0.929079 0.537227 0.061774
Si Si2 0.845618 0.146645 0.862235
Si Si3 0.617138 0.763717 0.639344
Si Si4 0.687090 0.893041 0.904597
Si Si5 0.990714 0.132259 0.185638
Si Si6 0.330803 0.565078 0.938449
Si Si7 0.285872 0.064577 0.306751
O O1 0.899991 0.638108 0.096926
O O2 0.879350 0.431556 0.065629
O O3 0.000000 0.500000 0.083962
O O4 0.937128 0.574067 0.000000
O O5 0.817363 0.262262 0.887804
O O6 0.916881 0.166004 0.834019
O O7 0.789989 0.100955 0.820164
O O8 0.851418 0.053001 0.909878
O O9 0.549270 0.711932 0.663024
O O10 0.649482 0.663195 0.604098
O O11 0.666519 0.824845 0.682697
O O12 0.751067 0.925772 0.939330
O O13 0.693970 0.970468 0.851152
O O14 0.000000 0.135265 0.250000
O O15 0.000000 0.000000 0.168252
O O16 0.356202 0.577407 0.000000
O O17 0.291829 0.000000 0.250000
#
# Coordination Sequence:
#
# PCOD9528040 Si02
#       7
#    16  16  16  16  16  16  16
#     4  10  21  39  64  88 121 168 210 260 324 385
#     4  11  23  43  63  97 131 168 220 270 318 393
#     4  11  22  45  62  95 130 165 215 269 324 386
#     4  10  22  40  62  95 128 162 217 273 313 389
#     4  11  25  41  65  92 131 175 212 265 333 395
#     4  11  23  40  64  95 129 169 210 267 331 379
#     4  10  24  40  67  96 127 169 217 269 326 383
#
# _framework density 19.171004
#
# number of rings (size 3 to 8) (size 9 to 14) (size 15 to 20)
#    0.000    1.429    2.857    1.714    4.000    1.714 
#    0.000    2.143    0.000    0.000    0.000    0.000 
#    0.000    0.000    0.000    0.000    0.000    0.000 
#
# Total GULP energy -312579.672243 kJ/mol
# GULP energy per Si atom -5581.779861 kJ/mol
# Density = 1.912737 g / cm^3
# Si number density = 19.171004 Si / 1000 Ang^3
#
#
#
# Elastic Constant Matrix: (Units=GPa)
#
#
# Indices 1 2 3 4 5 6 
#
# 1 105.2695 19.0968 38.3930 0.0000 0.0000 0.0000
# 2 19.0968 101.2634 44.4239 0.0000 0.0000 0.0000
# 3 38.3930 44.4239 90.9484 0.0000 0.0000 0.0000
# 4 0.0000 0.0000 0.0000 12.9963 0.0000 0.0000
# 5 0.0000 0.0000 0.0000 0.0000 10.5294 0.0000
# 6 0.0000 0.0000 0.0000 0.0000 0.0000 31.8614
#
#
#
# Elastic Compliance Matrix: (Units=1/GPa)
#
#
# Indices 1 2 3 4 5 6 
#
# 1 0.011228 -0.000049 -0.004716 0.000000 0.000000 0.000000
# 2 -0.000049 0.012569 -0.006119 0.000000 0.000000 0.000000
# 3 -0.004716 -0.006119 0.015975 0.000000 0.000000 0.000000
# 4 0.000000 0.000000 0.000000 0.076945 0.000000 0.000000
# 5 0.000000 0.000000 0.000000 0.000000 0.094972 0.000000
# 6 0.000000 0.000000 0.000000 0.000000 0.000000 0.031386
#
#
# Mechanical properties :
#
#
# Convention : Reuss Voigt Hill
#
# Bulk Modulus (GPa) = 55.54038 55.70097 55.62068
# Shear Modulus (GPa) = 18.46085 24.11526 21.28806
#
# Velocity S-wave (km/s) = 3.10652 3.55054 3.33593
# Velocity P-wave (km/s) = 6.47312 6.77690 6.62675
#
# Compressibility (1/GPa) = 0.01800492
#
# Stress axis : x y z
#
# Youngs Moduli (GPa) = 89.06076 79.56315 62.59841
#
# Poissons Ratio (x) = 0.00386 0.29523
# Poissons Ratio (y) = 0.00432 0.38302
# Poissons Ratio (z) = 0.42003 0.48682
#
# Static dielectric constant tensor:
#      x y z
#    x 1.690110 0.000000 0.000000 
#    y 0.000000 1.676320 0.000000 
#    z 0.000000 0.000000 1.669260 
# 
# From -- ./inp_files/43510.got.cif
#   From: 2010.05.17/outbox.cif.g08.bks.cpg/sg72_22_cif.got.tgz:43510.got - 2010.06.03 17:03:01.
