data_PCOD9528073
_publ_section_title
;
Structure prediction by ZEFSAII (Michael W. Deem and Ramdas Pophale) SiO2 
 PCOD9528073
Probable space group: I B A M
;
_chemical_formula_sum "Si O2"
_cell_formula_units_Z 96
_cell_length_a 13.986737
_cell_length_b 21.356503
_cell_length_c 14.745893
_cell_angle_alpha 90.000000
_cell_angle_beta 90.000000
_cell_angle_gamma 90.000000
_cell_volume 4404.713120
_symmetry_space_group_name_H-M "I B A M"
_symmetry_group_IT_number 72
_symmetry_cell_setting 'orthorhombic'
loop_
_space_group_symop_operation_xyz
x,y,z
-x,-y,z
x,-y,1/2-z
-x,y,1/2-z
-x,-y,-z
x,y,-z
-x,y,1/2+z
x,-y,1/2+z
1/2+x,1/2+y,1/2+z
1/2-x,1/2-y,1/2+z
1/2+x,1/2-y,-z
1/2-x,1/2+y,-z
1/2-x,1/2-y,1/2-z
1/2+x,1/2+y,1/2-z
1/2-x,1/2+y,z
1/2+x,1/2-y,z
loop_
_atom_site_type_symbol
_atom_site_label
_atom_site_fract_x
_atom_site_fract_y
_atom_site_fract_z
Si Si1 0.331843 0.312445 0.500000
Si Si2 0.091675 0.894496 0.198988
Si Si3 0.000000 0.665484 0.250000
Si Si4 0.021829 0.426396 0.897265
Si Si5 0.799829 0.047747 0.500000
Si Si6 0.782598 0.465773 0.663897
Si Si7 0.995570 0.897214 0.500000
Si Si8 0.845974 0.232851 0.699507
O O1 0.275393 0.378592 0.500000
O O2 0.442803 0.333692 0.500000
O O3 0.319299 0.278496 0.405183
O O4 0.191302 0.930297 0.204339
O O5 0.109466 0.828697 0.251286
O O6 0.000000 0.923470 0.250000
O O7 0.064605 0.895671 0.092313
O O8 0.033041 0.618653 0.170889
O O9 0.919608 0.710672 0.210638
O O10 0.135811 0.422103 0.878745
O O11 0.000000 0.500000 0.885925
O O12 0.999510 0.409536 0.000000
O O13 0.757077 0.012803 0.412878
O O14 0.917276 0.050997 0.500000
O O15 0.828249 0.500000 0.750000
O O16 0.750000 0.250000 0.750000
#
# Coordination Sequence:
#
# PCOD9528073 Si02
#       8
#     8  16   8  16   8  16   8  16
#     4  10  22  47  67  96 152 183 237 306 358 425
#     4  12  23  43  66 103 148 191 239 305 362 430
#     4  12  25  48  78 100 141 186 248 292 374 430
#     4  11  26  49  73 105 146 184 238 311 366 440
#     4  10  23  42  66 106 142 196 237 291 366 446
#     4  12  23  40  71 106 146 192 245 293 368 439
#     4  10  21  39  67  88 144 191 228 284 369 420
#     4  12  26  47  72 106 139 192 246 301 363 439
#
# _framework density 21.794837000000001
#
# number of rings (size 3 to 8) (size 9 to 14) (size 15 to 20)
#    0.500    0.167    3.333    4.750    1.167    5.000 
#    3.000    0.000    0.000    0.000    0.000    0.000 
#    0.000    0.000    0.000    0.000    0.000    0.000 
#
# Total GULP energy -268331.730935 kJ/mol
# GULP energy per Si atom -5590.244394 kJ/mol
# Density = 2.174523 g / cm^3
# Si number density = 21.794837 Si / 1000 Ang^3
#
#
#
# Elastic Constant Matrix: (Units=GPa)
#
#
# Indices 1 2 3 4 5 6 
#
# 1 52.0406 9.7620 8.4052 0.0000 0.0000 0.0000
# 2 9.7620 96.1409 63.6879 0.0005 -0.0001 -0.0001
# 3 8.4052 63.6879 179.0741 0.0011 -0.0003 -0.0004
# 4 0.0000 0.0005 0.0011 35.1959 -0.0002 -0.0003
# 5 0.0000 -0.0001 -0.0003 -0.0002 34.0626 0.0002
# 6 0.0000 -0.0001 -0.0004 -0.0003 0.0002 23.1588
#
#
#
# Elastic Compliance Matrix: (Units=1/GPa)
#
#
# Indices 1 2 3 4 5 6 
#
# 1 0.019599 -0.001806 -0.000278 0.000000 0.000000 0.000000
# 2 -0.001806 0.013774 -0.004814 0.000000 0.000000 0.000000
# 3 -0.000278 -0.004814 0.007309 0.000000 0.000000 0.000000
# 4 0.000000 0.000000 0.000000 0.028412 0.000000 0.000000
# 5 0.000000 0.000000 0.000000 0.000000 0.029358 0.000000
# 6 0.000000 0.000000 0.000000 0.000000 0.000000 0.043180
#
#
# Mechanical properties :
#
#
# Convention : Reuss Voigt Hill
#
# Bulk Modulus (GPa) = 37.19239 54.55175 45.87207
# Shear Modulus (GPa) = 30.41539 34.84348 32.62943
#
# Velocity S-wave (km/s) = 3.73973 4.00272 3.87346
# Velocity P-wave (km/s) = 5.97907 6.81515 6.41076
#
# Compressibility (1/GPa) = 0.02688722
#
# Stress axis : x y z
#
# Youngs Moduli (GPa) = 51.02192 72.60212 136.81086
#
# Poissons Ratio (x) = 0.13114 0.03797
# Poissons Ratio (y) = 0.09216 0.65859
# Poissons Ratio (z) = 0.01416 0.34950
#
# Static dielectric constant tensor:
#      x y z
#    x 1.794410 0.000000 0.000000 
#    y 0.000000 1.852700 0.000000 
#    z 0.000000 0.000000 0.714660 
# 
# From -- ./inp_files/21941.got.cif
#   From: 2010.05.17/outbox.cif.g08.bks.cpg/sg72_11_cif.got.tgz:21941.got - 2010.06.03 17:03:01.
