data_PCOD9528323
_publ_section_title
;
Structure prediction by ZEFSAII (Michael W. Deem and Ramdas Pophale) SiO2 
 PCOD9528323
Probable space group: I B A M
;
_chemical_formula_sum "Si O2"
_cell_formula_units_Z 64
_cell_length_a 13.983917
_cell_length_b 10.727053
_cell_length_c 15.414772
_cell_angle_alpha 90.000000
_cell_angle_beta 90.000000
_cell_angle_gamma 90.000000
_cell_volume 2312.311661
_symmetry_space_group_name_H-M "I B A M"
_symmetry_group_IT_number 72
_symmetry_cell_setting 'orthorhombic'
loop_
_space_group_symop_operation_xyz
x,y,z
-x,-y,z
x,-y,1/2-z
-x,y,1/2-z
-x,-y,-z
x,y,-z
-x,y,1/2+z
x,-y,1/2+z
1/2+x,1/2+y,1/2+z
1/2-x,1/2-y,1/2+z
1/2+x,1/2-y,-z
1/2-x,1/2+y,-z
1/2-x,1/2-y,1/2-z
1/2+x,1/2+y,1/2-z
1/2-x,1/2+y,z
1/2+x,1/2-y,z
loop_
_atom_site_type_symbol
_atom_site_label
_atom_site_fract_x
_atom_site_fract_y
_atom_site_fract_z
Si Si1 0.858103 0.734049 0.717514
Si Si2 0.617158 0.738292 0.595319
Si Si3 0.615108 0.016002 0.593350
Si Si4 0.888606 0.981901 0.353353
O O1 0.750000 0.750000 0.750000
O O2 0.921825 0.754836 0.805159
O O3 0.866019 0.599968 0.675572
O O4 0.872010 0.835068 0.640917
O O5 0.567558 0.738302 0.500000
O O6 0.662594 0.598531 0.600142
O O7 0.661616 0.877911 0.595600
O O8 0.639536 0.073548 0.500000
O O9 0.500000 0.000000 0.593607
O O10 0.873278 0.000000 0.250000
O O11 0.000000 0.000000 0.375829
#
# Coordination Sequence:
#
# PCOD9528323 Si02
#       4
#    16  16  16  16
#     4  11  24  41  63  96 134 176 223 281 355 422
#     4  10  22  38  59  90 128 171 222 278 340 415
#     4  10  22  41  67  98 131 175 232 289 345 409
#     4   9  19  37  61  88 122 168 221 275 333 404
#
# _framework density 27.677928999999999
#
# number of rings (size 3 to 8) (size 9 to 14) (size 15 to 20)
#    0.000    2.000    0.000    2.250    0.000   12.500 
#    0.000    2.500    0.000    0.000    0.000    0.000 
#    0.000    0.000    0.000    0.000    0.000    0.000 
#
# Total GULP energy -178320.735280 kJ/mol
# GULP energy per Si atom -5572.522978 kJ/mol
# Density = 2.761493 g / cm^3
# Si number density = 27.677929 Si / 1000 Ang^3
#
#
#
# Elastic Constant Matrix: (Units=GPa)
#
#
# Indices 1 2 3 4 5 6 
#
# 1 90.9305 5.9202 40.8894 0.0000 0.0000 0.0000
# 2 5.9202 234.2634 91.9897 0.0000 0.0000 0.0000
# 3 40.8894 91.9897 203.1280 0.0000 0.0000 0.0000
# 4 0.0000 0.0000 0.0000 45.7129 0.0000 0.0000
# 5 0.0000 0.0000 0.0000 0.0000 28.3467 0.0000
# 6 0.0000 0.0000 0.0000 0.0000 0.0000 21.3234
#
#
#
# Elastic Compliance Matrix: (Units=1/GPa)
#
#
# Indices 1 2 3 4 5 6 
#
# 1 0.012214 0.000799 -0.002820 0.000000 0.000000 0.000000
# 2 0.000799 0.005244 -0.002536 0.000000 0.000000 0.000000
# 3 -0.002820 -0.002536 0.006639 0.000000 0.000000 0.000000
# 4 0.000000 0.000000 0.000000 0.021876 0.000000 0.000000
# 5 0.000000 0.000000 0.000000 0.000000 0.035277 0.000000
# 6 0.000000 0.000000 0.000000 0.000000 0.000000 0.046897
#
#
# Mechanical properties :
#
#
# Convention : Reuss Voigt Hill
#
# Bulk Modulus (GPa) = 66.74476 89.54673 78.14574
# Shear Modulus (GPa) = 35.14800 45.04478 40.09639
#
# Velocity S-wave (km/s) = 3.56742 4.03856 3.81028
# Velocity P-wave (km/s) = 6.41372 7.36002 6.90311
#
# Compressibility (1/GPa) = 0.01498245
#
# Stress axis : x y z
#
# Youngs Moduli (GPa) = 81.87555 190.68559 150.62315
#
# Poissons Ratio (x) = -0.15233 0.42481
# Poissons Ratio (y) = -0.06540 0.38194
# Poissons Ratio (z) = 0.23092 0.48353
#
# Static dielectric constant tensor:
#      x y z
#    x 2.342350 0.000000 0.000000 
#    y 0.000000 2.272250 0.000000 
#    z 0.000000 0.000000 2.121930 
# 
# From -- ./inp_files/22788.got.cif
#   From: 2010.05.17/outbox.cif.g08.bks.cpg/sg72_12_cif.got.tgz:22788.got - 2010.06.03 17:03:01.
