data_PCOD9528671
_publ_section_title
;
Structure prediction by ZEFSAII (Michael W. Deem and Ramdas Pophale) SiO2 
 PCOD9528671
Probable space group: I B A M
;
_chemical_formula_sum "Si O2"
_cell_formula_units_Z 56
_cell_length_a 32.734323
_cell_length_b 5.170434
_cell_length_c 14.735399
_cell_angle_alpha 90.000000
_cell_angle_beta 90.000000
_cell_angle_gamma 90.000000
_cell_volume 2493.975956
_symmetry_space_group_name_H-M "I B A M"
_symmetry_group_IT_number 72
_symmetry_cell_setting 'orthorhombic'
loop_
_space_group_symop_operation_xyz
x,y,z
-x,-y,z
x,-y,1/2-z
-x,y,1/2-z
-x,-y,-z
x,y,-z
-x,y,1/2+z
x,-y,1/2+z
1/2+x,1/2+y,1/2+z
1/2-x,1/2-y,1/2+z
1/2+x,1/2-y,-z
1/2-x,1/2+y,-z
1/2-x,1/2-y,1/2-z
1/2+x,1/2+y,1/2-z
1/2-x,1/2+y,z
1/2+x,1/2-y,z
loop_
_atom_site_type_symbol
_atom_site_label
_atom_site_fract_x
_atom_site_fract_y
_atom_site_fract_z
Si Si1 0.528534 0.247016 0.500000
Si Si2 0.267565 0.271440 0.352467
Si Si3 0.858707 0.926882 0.106558
Si Si4 0.408341 0.088063 0.151989
O O1 0.500000 0.500000 0.500000
O O2 0.557679 0.213753 0.412801
O O3 0.500000 0.000000 0.500000
O O4 0.250000 0.250000 0.250000
O O5 0.240732 0.496117 0.395964
O O6 0.314526 0.346874 0.356714
O O7 0.887934 0.674620 0.113404
O O8 0.875267 0.180511 0.158415
O O9 0.855614 0.996949 0.000000
O O10 0.424328 0.000000 0.250000
#
# Coordination Sequence:
#
# PCOD9528671 Si02
#       4
#     8  16  16  16
#     4  12  26  52  84 114 160 192 238 324 382 462
#     4  10  23  38  60  97 142 194 255 309 387 420
#     4  12  24  45  73 104 156 202 263 325 376 458
#     4  12  27  47  78 117 148 203 258 303 390 467
#
# _framework density 22.454105999999999
#
# number of rings (size 3 to 8) (size 9 to 14) (size 15 to 20)
#    0.000    0.571    2.857    4.286   12.000    1.714 
#    0.000    1.429    0.000    0.000    0.000    0.000 
#    0.000    0.000    0.000    0.000    0.000    0.000 
#
# Total GULP energy -156619.223424 kJ/mol
# GULP energy per Si atom -5593.543694 kJ/mol
# Density = 2.240300 g / cm^3
# Si number density = 22.454106 Si / 1000 Ang^3
#
#
#
# Elastic Constant Matrix: (Units=GPa)
#
#
# Indices 1 2 3 4 5 6 
#
# 1 113.7881 38.4042 48.8066 0.0000 0.0000 0.0000
# 2 38.4042 178.2426 29.2367 0.0000 0.0000 0.0000
# 3 48.8066 29.2367 149.8621 0.0000 0.0000 0.0000
# 4 0.0000 0.0000 0.0000 18.0200 0.0000 0.0000
# 5 0.0000 0.0000 0.0000 0.0000 28.2585 0.0000
# 6 0.0000 0.0000 0.0000 0.0000 0.0000 53.5835
#
#
#
# Elastic Compliance Matrix: (Units=1/GPa)
#
#
# Indices 1 2 3 4 5 6 
#
# 1 0.010746 -0.001799 -0.003149 0.000000 0.000000 0.000000
# 2 -0.001799 0.006097 -0.000604 0.000000 0.000000 0.000000
# 3 -0.003149 -0.000604 0.007816 0.000000 0.000000 0.000000
# 4 0.000000 0.000000 0.000000 0.055494 0.000000 0.000000
# 5 0.000000 0.000000 0.000000 0.000000 0.035388 0.000000
# 6 0.000000 0.000000 0.000000 0.000000 0.000000 0.018662
#
#
# Mechanical properties :
#
#
# Convention : Reuss Voigt Hill
#
# Bulk Modulus (GPa) = 73.76549 74.97643 74.37096
# Shear Modulus (GPa) = 33.37244 41.66874 37.52059
#
# Velocity S-wave (km/s) = 3.85937 4.31249 4.09221
# Velocity P-wave (km/s) = 7.26517 7.63284 7.45127
#
# Compressibility (1/GPa) = 0.01355648
#
# Stress axis : x y z
#
# Youngs Moduli (GPa) = 93.05806 164.01721 127.94202
#
# Poissons Ratio (x) = 0.29504 0.40286
# Poissons Ratio (y) = 0.16740 0.07723
# Poissons Ratio (z) = 0.29302 0.09900
#
# Static dielectric constant tensor:
#      x y z
#    x 1.789480 0.000000 0.000000 
#    y 0.000000 1.993120 0.000000 
#    z 0.000000 0.000000 1.797770 
# 
# From -- ./inp_files/26138.got.cif
#   From: 2010.05.17/outbox.cif.g08.bks.cpg/sg72_14_cif.got.tgz:26138.got - 2010.06.03 17:03:01.
