data_PCOD9528279
_publ_section_title
;
Structure prediction by ZEFSAII (Michael W. Deem and Ramdas Pophale) SiO2 
 PCOD9528279
Probable space group: I B A M
;
_chemical_formula_sum "Si O2"
_cell_formula_units_Z 72
_cell_length_a 9.465943
_cell_length_b 26.945900
_cell_length_c 14.611057
_cell_angle_alpha 90.000000
_cell_angle_beta 90.000000
_cell_angle_gamma 90.000000
_cell_volume 3726.818252
_symmetry_space_group_name_H-M "I B A M"
_symmetry_group_IT_number 72
_symmetry_cell_setting 'orthorhombic'
loop_
_space_group_symop_operation_xyz
x,y,z
-x,-y,z
x,-y,1/2-z
-x,y,1/2-z
-x,-y,-z
x,y,-z
-x,y,1/2+z
x,-y,1/2+z
1/2+x,1/2+y,1/2+z
1/2-x,1/2-y,1/2+z
1/2+x,1/2-y,-z
1/2-x,1/2+y,-z
1/2-x,1/2-y,1/2-z
1/2+x,1/2+y,1/2-z
1/2-x,1/2+y,z
1/2+x,1/2-y,z
loop_
_atom_site_type_symbol
_atom_site_label
_atom_site_fract_x
_atom_site_fract_y
_atom_site_fract_z
Si Si1 0.723090 0.075518 0.000000
Si Si2 0.607162 0.292222 0.900626
Si Si3 0.960878 0.886829 0.000000
Si Si4 0.596813 0.790448 0.839409
Si Si5 0.508595 0.898900 0.140013
Si Si6 0.305382 0.957407 0.500000
O O1 0.641552 0.096022 0.089475
O O2 0.883917 0.091725 0.000000
O O3 0.709985 0.016137 0.000000
O O4 0.561623 0.349159 0.914273
O O5 0.473352 0.257035 0.887250
O O6 0.734569 0.285815 0.830040
O O7 0.672679 0.278700 0.000000
O O8 0.843323 0.929017 0.000000
O O9 0.500000 0.794015 0.750000
O O10 0.570823 0.844416 0.884055
O O11 0.500000 0.905089 0.250000
O O12 0.607415 0.938780 0.088808
#
# Coordination Sequence:
#
# PCOD9528279 Si02
#       6
#     8  16   8  16  16   8
#     4  11  25  38  68  91 112 166 206 256 308 373
#     4  10  22  36  60  86 121 164 194 243 294 361
#     4  10  23  40  60  87 126 155 202 254 305 361
#     4  11  22  37  59  89 124 158 197 243 295 365
#     4  10  22  40  65  94 123 156 203 255 304 364
#     4  11  21  44  64  86 124 157 207 256 315 357
#
# _framework density 19.319429
#
# number of rings (size 3 to 8) (size 9 to 14) (size 15 to 20)
#    0.667    0.889    2.222    3.000    7.778    1.778 
#    0.000    1.111    0.000    2.667    0.000    0.000 
#    0.000    0.000    0.000    0.000    0.000    0.000 
#
# Total GULP energy -200669.404882 kJ/mol
# GULP energy per Si atom -5574.150136 kJ/mol
# Density = 1.927546 g / cm^3
# Si number density = 19.319429 Si / 1000 Ang^3
#
#
#
# Elastic Constant Matrix: (Units=GPa)
#
#
# Indices 1 2 3 4 5 6 
#
# 1 129.7307 14.2539 10.1788 0.0000 0.0001 0.0000
# 2 14.2539 67.5073 -6.9790 -0.0001 0.0001 0.0000
# 3 10.1788 -6.9790 77.5362 -0.0002 0.0002 0.0000
# 4 0.0000 -0.0001 -0.0002 8.7571 0.0000 0.0000
# 5 0.0001 0.0001 0.0002 0.0000 8.4338 0.0000
# 6 0.0000 0.0000 0.0000 0.0000 0.0000 37.9915
#
#
#
# Elastic Compliance Matrix: (Units=1/GPa)
#
#
# Indices 1 2 3 4 5 6 
#
# 1 0.008003 -0.001815 -0.001214 0.000000 0.000000 0.000000
# 2 -0.001815 0.015364 0.001621 0.000000 0.000000 0.000000
# 3 -0.001214 0.001621 0.013202 0.000000 0.000000 0.000000
# 4 0.000000 0.000000 0.000000 0.114193 0.000000 0.000000
# 5 0.000000 0.000000 0.000000 0.000000 0.118571 0.000000
# 6 0.000000 0.000000 0.000000 0.000000 0.000000 0.026322
#
#
# Mechanical properties :
#
#
# Convention : Reuss Voigt Hill
#
# Bulk Modulus (GPa) = 29.62662 34.40905 32.01783
# Shear Modulus (GPa) = 16.14348 28.19117 22.16732
#
# Velocity S-wave (km/s) = 2.89383 3.82411 3.39102
# Velocity P-wave (km/s) = 5.15112 6.11127 5.65163
#
# Compressibility (1/GPa) = 0.03375343
#
# Stress axis : x y z
#
# Youngs Moduli (GPa) = 124.95341 65.08674 75.74325
#
# Poissons Ratio (x) = 0.11815 0.09195
# Poissons Ratio (y) = 0.22683 -0.12280
# Poissons Ratio (z) = 0.15169 -0.10552
#
# Static dielectric constant tensor:
#      x y z
#    x 1.652560 0.000000 0.000000 
#    y 0.000000 1.684100 0.000000 
#    z 0.000000 0.000000 1.767730 
# 
# From -- ./inp_files/19020.got.cif
#   From: 2010.05.17/outbox.cif.g08.bks.cpg/sg72_10_cif.got.tgz:19020.got - 2010.06.03 17:03:01.
