data_PCOD9528912
_publ_section_title
;
Structure prediction by ZEFSAII (Michael W. Deem and Ramdas Pophale) SiO2 
 PCOD9528912
Probable space group: I B A M
;
_chemical_formula_sum "Si O2"
_cell_formula_units_Z 64
_cell_length_a 8.360762
_cell_length_b 23.069906
_cell_length_c 14.298899
_cell_angle_alpha 90.000000
_cell_angle_beta 90.000000
_cell_angle_gamma 90.000000
_cell_volume 2758.000143
_symmetry_space_group_name_H-M "I B A M"
_symmetry_group_IT_number 72
_symmetry_cell_setting 'orthorhombic'
loop_
_space_group_symop_operation_xyz
x,y,z
-x,-y,z
x,-y,1/2-z
-x,y,1/2-z
-x,-y,-z
x,y,-z
-x,y,1/2+z
x,-y,1/2+z
1/2+x,1/2+y,1/2+z
1/2-x,1/2-y,1/2+z
1/2+x,1/2-y,-z
1/2-x,1/2+y,-z
1/2-x,1/2-y,1/2-z
1/2+x,1/2+y,1/2-z
1/2-x,1/2+y,z
1/2+x,1/2-y,z
loop_
_atom_site_type_symbol
_atom_site_label
_atom_site_fract_x
_atom_site_fract_y
_atom_site_fract_z
Si Si1 0.141356 0.117398 0.825888
Si Si2 0.161405 0.335697 0.825642
Si Si3 0.751848 0.453707 0.000000
Si Si4 0.032310 0.770004 0.110024
Si Si5 0.874208 0.581396 0.000000
O O1 0.304465 0.127660 0.767568
O O2 0.165711 0.070715 0.907241
O O3 0.095799 0.178538 0.874783
O O4 0.000000 0.103867 0.750000
O O5 0.021201 0.290685 0.847521
O O6 0.314910 0.293937 0.836257
O O7 0.166639 0.380899 0.909918
O O8 0.772392 0.522629 0.000000
O O9 0.935743 0.430969 0.000000
O O10 0.064733 0.763314 0.000000
#
# Coordination Sequence:
#
# PCOD9528912 Si02
#       5
#    16  16   8  16   8
#     4  10  24  44  72 107 143 184 242 296 362 438
#     4  11  24  42  69 108 146 185 238 296 360 431
#     4  11  26  50  74 101 142 196 246 294 364 409
#     4  11  20  39  66 103 145 186 231 289 360 437
#     4  11  26  46  74 103 140 195 251 294 341 439
#
# _framework density 23.205219
#
# number of rings (size 3 to 8) (size 9 to 14) (size 15 to 20)
#    0.000    1.250    3.750    0.750    3.500    2.000 
#    0.000   16.250    0.000    0.000    0.000    0.000 
#    0.000    0.000    0.000    0.000    0.000    0.000 
#
# Total GULP energy -179211.038698 kJ/mol
# GULP energy per Si atom -5600.344959 kJ/mol
# Density = 2.315240 g / cm^3
# Si number density = 23.205219 Si / 1000 Ang^3
#
#
#
# Elastic Constant Matrix: (Units=GPa)
#
#
# Indices 1 2 3 4 5 6 
#
# 1 45.3774 48.2750 22.3330 0.0015 0.0000 0.0000
# 2 48.2750 162.2715 66.2949 0.0019 0.0000 0.0000
# 3 22.3330 66.2949 152.9133 0.0112 0.0000 0.0000
# 4 0.0015 0.0019 0.0112 1110.7934 0.0002 0.0010
# 5 0.0000 0.0000 0.0000 0.0002 31.0907 0.0000
# 6 0.0000 0.0000 0.0000 0.0010 0.0000 31.5470
#
#
#
# Elastic Compliance Matrix: (Units=1/GPa)
#
#
# Indices 1 2 3 4 5 6 
#
# 1 0.032298 -0.009335 -0.000670 0.000000 0.000000 0.000000
# 2 -0.009335 0.010187 -0.003053 0.000000 0.000000 0.000000
# 3 -0.000670 -0.003053 0.007961 0.000000 0.000000 0.000000
# 4 0.000000 0.000000 0.000000 0.000900 0.000000 0.000000
# 5 0.000000 0.000000 0.000000 0.000000 0.032164 0.000000
# 6 0.000000 0.000000 0.000000 0.000000 0.000000 0.031699
#
#
# Mechanical properties :
#
#
# Convention : Reuss Voigt Hill
#
# Bulk Modulus (GPa) = 41.10123 70.48535 55.79329
# Shear Modulus (GPa) = 33.45931 249.59683 141.52807
#
# Velocity S-wave (km/s) = 3.80134 10.38240 7.81807
# Velocity P-wave (km/s) = 6.08419 13.19721 10.27579
#
# Compressibility (1/GPa) = 0.02433017
#
# Stress axis : x y z
#
# Youngs Moduli (GPa) = 30.96159 98.16522 125.60920
#
# Poissons Ratio (x) = 0.91635 0.08417
# Poissons Ratio (y) = 0.28902 0.38350
# Poissons Ratio (z) = 0.02075 0.29971
#
# Static dielectric constant tensor:
#      x y z
#    x 2.944790 0.000000 0.000000 
#    y 0.000000 1.806780 0.000000 
#    z 0.000000 0.000000 1.858320 
# 
# From -- ./inp_files/18698.got.cif
#   From: 2010.05.17/outbox.cif.g08.bks.cpg/sg72_10_cif.got.tgz:18698.got - 2010.06.03 17:03:01.
