data_PCOD9528785
_publ_section_title
;
Structure prediction by ZEFSAII (Michael W. Deem and Ramdas Pophale) SiO2 
 PCOD9528785
Probable space group: I B A M
;
_chemical_formula_sum "Si O2"
_cell_formula_units_Z 112
_cell_length_a 31.262093
_cell_length_b 11.969480
_cell_length_c 15.116078
_cell_angle_alpha 90.000000
_cell_angle_beta 90.000000
_cell_angle_gamma 90.000000
_cell_volume 5656.300296
_symmetry_space_group_name_H-M "I B A M"
_symmetry_group_IT_number 72
_symmetry_cell_setting 'orthorhombic'
loop_
_space_group_symop_operation_xyz
x,y,z
-x,-y,z
x,-y,1/2-z
-x,y,1/2-z
-x,-y,-z
x,y,-z
-x,y,1/2+z
x,-y,1/2+z
1/2+x,1/2+y,1/2+z
1/2-x,1/2-y,1/2+z
1/2+x,1/2-y,-z
1/2-x,1/2+y,-z
1/2-x,1/2-y,1/2-z
1/2+x,1/2+y,1/2-z
1/2-x,1/2+y,z
1/2+x,1/2-y,z
loop_
_atom_site_type_symbol
_atom_site_label
_atom_site_fract_x
_atom_site_fract_y
_atom_site_fract_z
Si Si1 0.413445 0.711647 0.899983
Si Si2 0.151558 0.022485 0.851136
Si Si3 0.892680 0.376379 0.752536
Si Si4 0.224899 0.799791 0.396166
Si Si5 0.707577 0.123605 0.260726
Si Si6 0.504318 0.632340 0.851964
Si Si7 0.401836 0.695470 0.597291
O O1 0.388993 0.605619 0.857930
O O2 0.401639 0.816635 0.840275
O O3 0.463827 0.687746 0.899094
O O4 0.397756 0.723844 0.000000
O O5 0.191016 0.095818 0.890458
O O6 0.163037 0.000000 0.750000
O O7 0.133356 0.903493 0.886919
O O8 0.912188 0.500000 0.750000
O O9 0.842568 0.387636 0.772241
O O10 0.905028 0.290027 0.828554
O O11 0.228327 0.768666 0.500000
O O12 0.269727 0.830557 0.348923
O O13 0.211461 0.701104 0.327241
O O14 0.726700 0.000000 0.250000
O O15 0.500000 0.500000 0.849964
O O16 0.500000 0.672504 0.750000
O O17 0.550109 0.648541 0.896569
O O18 0.393467 0.742128 0.500000
#
# Coordination Sequence:
#
# PCOD9528785 Si02
#       7
#    16  16  16  16  16  16  16
#     4  12  23  39  65  97 129 170 219 267 323 393
#     4  12  21  39  64  97 137 168 205 259 331 398
#     4  11  25  46  66  87 123 175 227 273 323 382
#     4  11  23  40  65  99 131 167 217 273 331 398
#     4  10  23  43  64  89 127 174 218 272 328 390
#     4  11  21  37  62  97 136 171 208 259 329 403
#     4  12  24  40  65 100 134 168 210 268 332 394
#
# _framework density 19.800927999999999
#
# number of rings (size 3 to 8) (size 9 to 14) (size 15 to 20)
#    0.000    0.714    5.714    2.143    0.000    3.429 
#    0.000    4.286    0.000    1.714    0.000    0.000 
#    0.000    0.000    0.000    0.000    0.000    0.000 
#
# Total GULP energy -312202.328872 kJ/mol
# GULP energy per Si atom -5575.041587 kJ/mol
# Density = 1.975586 g / cm^3
# Si number density = 19.800928 Si / 1000 Ang^3
#
#
#
# Elastic Constant Matrix: (Units=GPa)
#
#
# Indices 1 2 3 4 5 6 
#
# 1 74.6842 9.4348 14.4552 0.0000 0.0000 0.0000
# 2 9.4348 93.0100 26.0749 0.0000 0.0000 0.0000
# 3 14.4552 26.0749 104.8206 0.0000 0.0000 0.0000
# 4 0.0000 0.0000 0.0000 11.0290 0.0000 0.0000
# 5 0.0000 0.0000 0.0000 0.0000 62.8528 0.0000
# 6 0.0000 0.0000 0.0000 0.0000 0.0000 11.6030
#
#
#
# Elastic Compliance Matrix: (Units=1/GPa)
#
#
# Indices 1 2 3 4 5 6 
#
# 1 0.013832 -0.000933 -0.001675 0.000000 0.000000 0.000000
# 2 -0.000933 0.011621 -0.002762 0.000000 0.000000 0.000000
# 3 -0.001675 -0.002762 0.010458 0.000000 0.000000 0.000000
# 4 0.000000 0.000000 0.000000 0.090670 0.000000 0.000000
# 5 0.000000 0.000000 0.000000 0.000000 0.015910 0.000000
# 6 0.000000 0.000000 0.000000 0.000000 0.000000 0.086185
#
#
# Mechanical properties :
#
#
# Convention : Reuss Voigt Hill
#
# Bulk Modulus (GPa) = 39.73100 41.38272 40.55686
# Shear Modulus (GPa) = 20.17703 31.93363 26.05533
#
# Velocity S-wave (km/s) = 3.19563 4.02024 3.63142
# Velocity P-wave (km/s) = 5.80731 6.51878 6.17331
#
# Compressibility (1/GPa) = 0.02516926
#
# Stress axis : x y z
#
# Youngs Moduli (GPa) = 72.29674 86.05462 95.61880
#
# Poissons Ratio (x) = 0.08033 0.16019
# Poissons Ratio (y) = 0.06748 0.26410
# Poissons Ratio (z) = 0.12112 0.23768
#
# Static dielectric constant tensor:
#      x y z
#    x 1.712810 0.000000 0.000000 
#    y 0.000000 1.784990 0.000000 
#    z 0.000000 0.000000 1.704970 
# 
# From -- ./inp_files/26370.got.cif
#   From: 2010.05.17/outbox.cif.g08.bks.cpg/sg72_14_cif.got.tgz:26370.got - 2010.06.03 17:03:01.
