data_PCOD9528172
_publ_section_title
;
Structure prediction by ZEFSAII (Michael W. Deem and Ramdas Pophale) SiO2 
 PCOD9528172
Probable space group: I B A M
;
_chemical_formula_sum "Si O2"
_cell_formula_units_Z 96
_cell_length_a 14.826936
_cell_length_b 21.614434
_cell_length_c 14.268567
_cell_angle_alpha 90.000000
_cell_angle_beta 90.000000
_cell_angle_gamma 90.000000
_cell_volume 4572.730846
_symmetry_space_group_name_H-M "I B A M"
_symmetry_group_IT_number 72
_symmetry_cell_setting 'orthorhombic'
loop_
_space_group_symop_operation_xyz
x,y,z
-x,-y,z
x,-y,1/2-z
-x,y,1/2-z
-x,-y,-z
x,y,-z
-x,y,1/2+z
x,-y,1/2+z
1/2+x,1/2+y,1/2+z
1/2-x,1/2-y,1/2+z
1/2+x,1/2-y,-z
1/2-x,1/2+y,-z
1/2-x,1/2-y,1/2-z
1/2+x,1/2+y,1/2-z
1/2-x,1/2+y,z
1/2+x,1/2-y,z
loop_
_atom_site_type_symbol
_atom_site_label
_atom_site_fract_x
_atom_site_fract_y
_atom_site_fract_z
Si Si1 0.400930 0.904870 0.244280
Si Si2 0.754891 0.094584 0.610048
Si Si3 0.104885 0.707998 0.605543
Si Si4 0.091506 0.173167 0.787493
Si Si5 0.743166 0.952899 0.605659
Si Si6 0.815885 0.182708 0.103418
O O1 0.500000 0.932066 0.250000
O O2 0.341628 0.895340 0.338292
O O3 0.416120 0.842351 0.184147
O O4 0.335965 0.945202 0.179102
O O5 0.750936 0.111593 0.500000
O O6 0.831758 0.131456 0.665619
O O7 0.780734 0.021684 0.615915
O O8 0.075779 0.691331 0.500000
O O9 0.068712 0.773979 0.637615
O O10 0.214431 0.709074 0.604276
O O11 0.133667 0.205304 0.695102
O O12 0.000000 0.141614 0.750000
O O13 0.706224 0.947970 0.500000
O O14 0.806541 0.892466 0.615456
O O15 0.854665 0.195058 0.000000
#
# Coordination Sequence:
#
# PCOD9528172 Si02
#       6
#    16  16  16  16  16  16
#     4  11  22  38  65  96 126 166 215 260 322 390
#     4  11  24  40  61  93 133 170 210 265 319 375
#     4  10  21  41  64  88 126 164 204 262 320 384
#     4  12  24  40  62  90 127 169 218 267 315 376
#     4   9  19  39  63  86 124 167 205 258 318 376
#     4   9  19  37  64  87 114 163 211 254 317 379
#
# _framework density 20.994019000000002
#
# number of rings (size 3 to 8) (size 9 to 14) (size 15 to 20)
#    0.000    1.667    3.333    3.500    0.000    4.000 
#    0.000    3.333    0.000    3.000    0.000    0.000 
#    0.000    0.000    0.000    0.000    0.000    0.000 
#
# Total GULP energy -267846.246032 kJ/mol
# GULP energy per Si atom -5580.130126 kJ/mol
# Density = 2.094624 g / cm^3
# Si number density = 20.994019 Si / 1000 Ang^3
#
#
#
# Elastic Constant Matrix: (Units=GPa)
#
#
# Indices 1 2 3 4 5 6 
#
# 1 70.5943 10.0183 39.7978 0.0000 0.0000 0.0000
# 2 10.0183 51.8269 22.7387 0.0000 0.0000 0.0000
# 3 39.7978 22.7387 144.0421 0.0000 0.0001 0.0000
# 4 0.0000 0.0000 0.0000 27.2022 0.0000 0.0000
# 5 0.0000 0.0000 0.0001 0.0000 3.4069 0.0000
# 6 0.0000 0.0000 0.0000 0.0000 0.0000 -7.7828
#
#
#
# Elastic Compliance Matrix: (Units=1/GPa)
#
#
# Indices 1 2 3 4 5 6 
#
# 1 0.016861 -0.001306 -0.004452 0.000000 0.000000 0.000000
# 2 -0.001306 0.020832 -0.002928 0.000000 0.000000 0.000000
# 3 -0.004452 -0.002928 0.008635 0.000000 0.000000 0.000000
# 4 0.000000 0.000000 0.000000 0.036762 0.000000 0.000000
# 5 0.000000 0.000000 0.000000 0.000000 0.293521 0.000000
# 6 0.000000 0.000000 0.000000 0.000000 0.000000 -0.128489
#
#
# Mechanical properties :
#
#
# Convention : Reuss Voigt Hill
#
# Bulk Modulus (GPa) = 34.53565 45.73034 40.13300
# Shear Modulus (GPa) = 18.17225 17.49251 17.83238
#
# Velocity S-wave (km/s) = 2.94529 2.88968 2.91761
# Velocity P-wave (km/s) = 5.29644 5.74138 5.52339
#
# Compressibility (1/GPa) = 0.02895559
#
# Stress axis : x y z
#
# Youngs Moduli (GPa) = 59.30912 48.00317 115.81097
#
# Poissons Ratio (x) = 0.06268 0.51564
# Poissons Ratio (y) = 0.07745 0.33907
# Poissons Ratio (z) = 0.26407 0.14054
#
# Static dielectric constant tensor:
#      x y z
#    x 1.755990 0.000000 0.000000 
#    y 0.000000 1.800690 0.000000 
#    z 0.000000 0.000000 1.783900 
# 
# From -- ./inp_files/21803.got.cif
#   From: 2010.05.17/outbox.cif.g08.bks.cpg/sg72_11_cif.got.tgz:21803.got - 2010.06.03 17:03:01.
