data_PCOD9528776
_publ_section_title
;
Structure prediction by ZEFSAII (Michael W. Deem and Ramdas Pophale) SiO2 
 PCOD9528776
Probable space group: I B A M
;
_chemical_formula_sum "Si O2"
_cell_formula_units_Z 96
_cell_length_a 14.591381
_cell_length_b 18.820136
_cell_length_c 15.045627
_cell_angle_alpha 90.000000
_cell_angle_beta 90.000000
_cell_angle_gamma 90.000000
_cell_volume 4131.706334
_symmetry_space_group_name_H-M "I B A M"
_symmetry_group_IT_number 72
_symmetry_cell_setting 'orthorhombic'
loop_
_space_group_symop_operation_xyz
x,y,z
-x,-y,z
x,-y,1/2-z
-x,y,1/2-z
-x,-y,-z
x,y,-z
-x,y,1/2+z
x,-y,1/2+z
1/2+x,1/2+y,1/2+z
1/2-x,1/2-y,1/2+z
1/2+x,1/2-y,-z
1/2-x,1/2+y,-z
1/2-x,1/2-y,1/2-z
1/2+x,1/2+y,1/2-z
1/2-x,1/2+y,z
1/2+x,1/2-y,z
loop_
_atom_site_type_symbol
_atom_site_label
_atom_site_fract_x
_atom_site_fract_y
_atom_site_fract_z
Si Si1 0.983059 0.643126 0.855863
Si Si2 0.302006 0.634001 0.763656
Si Si3 0.042023 0.076803 0.102205
Si Si4 0.288574 0.925753 0.901051
Si Si5 0.834595 0.591243 0.595433
Si Si6 0.061097 0.790822 0.162073
O O1 0.056305 0.590242 0.896974
O O2 0.023118 0.720298 0.884892
O O3 0.000000 0.639553 0.750000
O O4 0.880556 0.620844 0.881400
O O5 0.379086 0.601264 0.829227
O O6 0.278505 0.584286 0.681035
O O7 0.212526 0.635526 0.825799
O O8 0.339339 0.702541 0.708830
O O9 0.964816 0.138324 0.108589
O O10 0.076002 0.072960 0.000000
O O11 0.000000 0.000000 0.125150
O O12 0.307350 0.009391 0.900547
O O13 0.254920 0.906055 0.000000
O O14 0.806614 0.621716 0.500000
O O15 0.000000 0.794142 0.250000
#
# Coordination Sequence:
#
# PCOD9528776 Si02
#       6
#    16  16  16  16  16  16
#     4  11  22  44  68  94 135 187 232 279 345 417
#     4  11  23  43  69  99 138 177 224 286 352 405
#     4  10  23  42  69 101 135 178 227 277 337 412
#     4  11  25  42  67 103 140 178 231 289 344 413
#     4  11  24  40  67 104 139 179 230 281 345 419
#     4   9  23  42  67  94 129 179 230 275 337 415
#
# _framework density 23.234950999999999
#
# number of rings (size 3 to 8) (size 9 to 14) (size 15 to 20)
#    0.000    1.500    1.667    2.000    4.667    7.000 
#    3.000    0.000    0.000    0.500    0.000    0.000 
#    0.000    0.000    0.000    0.000    0.000    0.000 
#
# Total GULP energy -267858.570368 kJ/mol
# GULP energy per Si atom -5580.386883 kJ/mol
# Density = 2.318207 g / cm^3
# Si number density = 23.234951 Si / 1000 Ang^3
#
#
#
# Elastic Constant Matrix: (Units=GPa)
#
#
# Indices 1 2 3 4 5 6 
#
# 1 73.8895 15.3020 35.0512 0.0000 0.0000 0.0000
# 2 15.3020 62.8035 34.5442 -0.0001 0.0000 0.0000
# 3 35.0512 34.5442 148.2837 -0.0001 0.0000 0.0000
# 4 0.0000 -0.0001 -0.0001 13.7192 0.0000 0.0000
# 5 0.0000 0.0000 0.0000 0.0000 25.8413 0.0000
# 6 0.0000 0.0000 0.0000 0.0000 0.0000 18.7000
#
#
#
# Elastic Compliance Matrix: (Units=1/GPa)
#
#
# Indices 1 2 3 4 5 6 
#
# 1 0.015462 -0.002015 -0.003185 0.000000 0.000000 0.000000
# 2 -0.002015 0.018525 -0.003839 0.000000 0.000000 0.000000
# 3 -0.003185 -0.003839 0.008391 0.000000 0.000000 0.000000
# 4 0.000000 0.000000 0.000000 0.072890 0.000000 0.000000
# 5 0.000000 0.000000 0.000000 0.000000 0.038698 0.000000
# 6 0.000000 0.000000 0.000000 0.000000 0.000000 0.053476
#
#
# Mechanical properties :
#
#
# Convention : Reuss Voigt Hill
#
# Bulk Modulus (GPa) = 41.15433 50.53019 45.84226
# Shear Modulus (GPa) = 21.40204 24.99072 23.19638
#
# Velocity S-wave (km/s) = 3.03828 3.28314 3.16308
# Velocity P-wave (km/s) = 5.48260 6.01388 5.75437
#
# Compressibility (1/GPa) = 0.02429878
#
# Stress axis : x y z
#
# Youngs Moduli (GPa) = 64.67399 53.97974 119.17212
#
# Poissons Ratio (x) = 0.10878 0.37962
# Poissons Ratio (y) = 0.13033 0.45754
# Poissons Ratio (z) = 0.20602 0.20725
#
# Static dielectric constant tensor:
#      x y z
#    x 1.939740 0.000000 0.000000 
#    y 0.000000 1.940880 0.000000 
#    z 0.000000 0.000000 1.870190 
# 
# From -- ./inp_files/21851.got.cif
#   From: 2010.05.17/outbox.cif.g08.bks.cpg/sg72_11_cif.got.tgz:21851.got - 2010.06.03 17:03:01.
