data_PCOD9528479
_publ_section_title
;
Structure prediction by ZEFSAII (Michael W. Deem and Ramdas Pophale) SiO2 
 PCOD9528479
Probable space group: I B A M
;
_chemical_formula_sum "Si O2"
_cell_formula_units_Z 88
_cell_length_a 26.383758
_cell_length_b 4.981458
_cell_length_c 30.419230
_cell_angle_alpha 90.000000
_cell_angle_beta 90.000000
_cell_angle_gamma 90.000000
_cell_volume 3997.986695
_symmetry_space_group_name_H-M "I B A M"
_symmetry_group_IT_number 72
_symmetry_cell_setting 'orthorhombic'
loop_
_space_group_symop_operation_xyz
x,y,z
-x,-y,z
x,-y,1/2-z
-x,y,1/2-z
-x,-y,-z
x,y,-z
-x,y,1/2+z
x,-y,1/2+z
1/2+x,1/2+y,1/2+z
1/2-x,1/2-y,1/2+z
1/2+x,1/2-y,-z
1/2-x,1/2+y,-z
1/2-x,1/2-y,1/2-z
1/2+x,1/2+y,1/2-z
1/2-x,1/2+y,z
1/2+x,1/2-y,z
loop_
_atom_site_type_symbol
_atom_site_label
_atom_site_fract_x
_atom_site_fract_y
_atom_site_fract_z
Si Si1 0.060594 0.003101 0.138390
Si Si2 0.883815 0.740420 0.221172
Si Si3 0.216379 0.672714 0.432373
Si Si4 0.628569 0.006609 0.500000
Si Si5 0.061246 0.498622 0.583841
Si Si6 0.283910 0.838815 0.171371
O O1 0.083134 0.131808 0.182094
O O2 0.075197 0.201560 0.098633
O O3 0.075987 0.706133 0.123115
O O4 0.000000 0.000000 0.142775
O O5 0.908150 0.500000 0.250000
O O6 0.833600 0.615597 0.199563
O O7 0.870303 0.000000 0.250000
O O8 0.263696 0.472487 0.441150
O O9 0.169897 0.587080 0.462032
O O10 0.204053 0.644628 0.380677
O O11 0.587713 0.081434 0.461056
O O12 0.000000 0.500000 0.579389
O O13 0.260468 0.548850 0.180489
#
# Coordination Sequence:
#
# PCOD9528479 Si02
#       6
#    16  16  16   8  16  16
#     4  10  23  46  66  88 128 171 206 255 320 381
#     4  12  25  40  66 100 126 158 215 268 317 386
#     4  10  23  40  59  88 124 165 210 249 301 372
#     4  12  23  38  66  96 130 162 207 270 312 348
#     4  10  23  41  65  93 125 167 213 254 310 380
#     4  10  22  41  62  87 127 171 206 252 315 377
#
# _framework density 22.011078000000001
#
# number of rings (size 3 to 8) (size 9 to 14) (size 15 to 20)
#    0.000    1.455    0.000    4.091    0.000   10.545 
#    0.000    3.636    0.000    0.000    0.000    0.000 
#    0.000    0.000    0.000    0.000    0.000    0.000 
#
# Total GULP energy -245054.159135 kJ/mol
# GULP energy per Si atom -5569.412708 kJ/mol
# Density = 2.196098 g / cm^3
# Si number density = 22.011078 Si / 1000 Ang^3
#
#
#
# Elastic Constant Matrix: (Units=GPa)
#
#
# Indices 1 2 3 4 5 6 
#
# 1 47.5572 6.3376 43.0731 0.0000 0.0000 0.0000
# 2 6.3376 60.5664 22.2787 0.0000 0.0000 0.0000
# 3 43.0731 22.2787 110.0106 0.0000 0.0000 0.0000
# 4 0.0000 0.0000 0.0000 -40.9878 0.0000 0.0000
# 5 0.0000 0.0000 0.0000 0.0000 56.2358 0.0000
# 6 0.0000 0.0000 0.0000 0.0000 0.0000 11.0366
#
#
#
# Elastic Compliance Matrix: (Units=1/GPa)
#
#
# Indices 1 2 3 4 5 6 
#
# 1 0.032689 0.001391 -0.013081 0.000000 0.000000 0.000000
# 2 0.001391 0.017899 -0.004169 0.000000 0.000000 0.000000
# 3 -0.013081 -0.004169 0.015056 0.000000 0.000000 0.000000
# 4 0.000000 0.000000 0.000000 -0.024398 0.000000 0.000000
# 5 0.000000 0.000000 0.000000 0.000000 0.017782 0.000000
# 6 0.000000 0.000000 0.000000 0.000000 0.000000 0.090607
#
#
# Mechanical properties :
#
#
# Convention : Reuss Voigt Hill
#
# Bulk Modulus (GPa) = 29.47595 40.16810 34.82202
# Shear Modulus (GPa) = 25.95206 15.01993 20.48599
#
# Velocity S-wave (km/s) = 3.43745 2.61507 3.05407
# Velocity P-wave (km/s) = 5.40141 5.23515 5.31893
#
# Compressibility (1/GPa) = 0.03392597
#
# Stress axis : x y z
#
# Youngs Moduli (GPa) = 30.59110 55.86925 66.41890
#
# Poissons Ratio (x) = -0.07772 0.86881
# Poissons Ratio (y) = -0.04255 0.27693
# Poissons Ratio (z) = 0.40015 0.23294
#
# Static dielectric constant tensor:
#      x y z
#    x 1.788130 0.000000 0.000000 
#    y 0.000000 1.795440 0.000000 
#    z 0.000000 0.000000 1.802970 
# 
# From -- ./inp_files/52362.got.cif
#   From: 2010.05.17/outbox.cif.g08.bks.cpg/sg72_27_cif.got.tgz:52362.got - 2010.06.03 17:03:01.
