data_PCOD9528528
_publ_section_title
;
Structure prediction by ZEFSAII (Michael W. Deem and Ramdas Pophale) SiO2 
 PCOD9528528
Probable space group: I B A M
;
_chemical_formula_sum "Si O2"
_cell_formula_units_Z 64
_cell_length_a 8.776472
_cell_length_b 12.865124
_cell_length_c 22.707004
_cell_angle_alpha 90.000000
_cell_angle_beta 90.000000
_cell_angle_gamma 90.000000
_cell_volume 2563.856917
_symmetry_space_group_name_H-M "I B A M"
_symmetry_group_IT_number 72
_symmetry_cell_setting 'orthorhombic'
loop_
_space_group_symop_operation_xyz
x,y,z
-x,-y,z
x,-y,1/2-z
-x,y,1/2-z
-x,-y,-z
x,y,-z
-x,y,1/2+z
x,-y,1/2+z
1/2+x,1/2+y,1/2+z
1/2-x,1/2-y,1/2+z
1/2+x,1/2-y,-z
1/2-x,1/2+y,-z
1/2-x,1/2-y,1/2-z
1/2+x,1/2+y,1/2-z
1/2-x,1/2+y,z
1/2+x,1/2-y,z
loop_
_atom_site_type_symbol
_atom_site_label
_atom_site_fract_x
_atom_site_fract_y
_atom_site_fract_z
Si Si1 0.331985 0.121741 0.266719
Si Si2 0.185696 0.377310 0.435519
Si Si3 0.103187 0.900310 0.668913
Si Si4 0.382858 0.798150 0.891520
O O1 0.500000 0.160863 0.250000
O O2 0.308893 0.349506 0.275452
O O3 0.313350 0.143822 0.335298
O O4 0.336496 0.000000 0.250000
O O5 0.218682 0.421264 0.500000
O O6 0.269232 0.430713 0.380273
O O7 0.259813 0.260967 0.431398
O O8 0.006472 0.367577 0.424086
O O9 0.026895 0.801722 0.636919
O O10 0.000000 0.000000 0.681992
#
# Coordination Sequence:
#
# PCOD9528528 Si02
#       4
#    16  16  16  16
#     4  11  22  41  66  95 136 181 227 289 351 420
#     4  10  22  41  69  98 137 187 237 282 341 407
#     4  10  24  40  65 104 141 181 232 288 359 413
#     4  10  22  42  69  96 139 180 235 283 350 409
#
# _framework density 24.962389999999999
#
# number of rings (size 3 to 8) (size 9 to 14) (size 15 to 20)
#    1.500    0.250    2.500    1.500    3.500    1.000 
#    0.000    0.000    0.000    1.500    0.000    0.000 
#    0.000    0.000    0.000    0.000    0.000    0.000 
#
# Total GULP energy -178599.730133 kJ/mol
# GULP energy per Si atom -5581.241567 kJ/mol
# Density = 2.490557 g / cm^3
# Si number density = 24.962390 Si / 1000 Ang^3
#
#
#
# Elastic Constant Matrix: (Units=GPa)
#
#
# Indices 1 2 3 4 5 6 
#
# 1 98.8313 14.1094 38.4654 0.0000 0.0000 0.0000
# 2 14.1094 75.1753 22.5418 0.0000 0.0000 0.0000
# 3 38.4654 22.5418 148.3934 0.0000 0.0000 0.0000
# 4 0.0000 0.0000 0.0000 15.7786 0.0000 0.0000
# 5 0.0000 0.0000 0.0000 0.0000 22.1530 0.0000
# 6 0.0000 0.0000 0.0000 0.0000 0.0000 36.1643
#
#
#
# Elastic Compliance Matrix: (Units=1/GPa)
#
#
# Indices 1 2 3 4 5 6 
#
# 1 0.011375 -0.001311 -0.002750 0.000000 0.000000 0.000000
# 2 -0.001311 0.014088 -0.001800 0.000000 0.000000 0.000000
# 3 -0.002750 -0.001800 0.007725 0.000000 0.000000 0.000000
# 4 0.000000 0.000000 0.000000 0.063377 0.000000 0.000000
# 5 0.000000 0.000000 0.000000 0.000000 0.045141 0.000000
# 6 0.000000 0.000000 0.000000 0.000000 0.000000 0.027652
#
#
# Mechanical properties :
#
#
# Convention : Reuss Voigt Hill
#
# Bulk Modulus (GPa) = 46.58174 52.51481 49.54827
# Shear Modulus (GPa) = 26.56261 31.30475 28.93368
#
# Velocity S-wave (km/s) = 3.26560 3.54514 3.40824
# Velocity P-wave (km/s) = 5.73761 6.15147 5.94814
#
# Compressibility (1/GPa) = 0.02146764
#
# Stress axis : x y z
#
# Youngs Moduli (GPa) = 87.90827 70.98214 129.44894
#
# Poissons Ratio (x) = 0.09303 0.35593
# Poissons Ratio (y) = 0.11521 0.23305
# Poissons Ratio (z) = 0.24171 0.12779
#
# Static dielectric constant tensor:
#      x y z
#    x 1.985030 0.000000 0.000000 
#    y 0.000000 2.080730 0.000000 
#    z 0.000000 0.000000 1.924760 
# 
# From -- ./inp_files/44647.got.cif
#   From: 2010.05.17/outbox.cif.g08.bks.cpg/sg72_23_cif.got.tgz:44647.got - 2010.06.03 17:03:01.
