data_PCOD9528119
_publ_section_title
;
Structure prediction by ZEFSAII (Michael W. Deem and Ramdas Pophale) SiO2 
 PCOD9528119
Probable space group: I B A M
;
_chemical_formula_sum "Si O2"
_cell_formula_units_Z 80
_cell_length_a 24.728816
_cell_length_b 10.786663
_cell_length_c 14.310044
_cell_angle_alpha 90.000000
_cell_angle_beta 90.000000
_cell_angle_gamma 90.000000
_cell_volume 3817.081236
_symmetry_space_group_name_H-M "I B A M"
_symmetry_group_IT_number 72
_symmetry_cell_setting 'orthorhombic'
loop_
_space_group_symop_operation_xyz
x,y,z
-x,-y,z
x,-y,1/2-z
-x,y,1/2-z
-x,-y,-z
x,y,-z
-x,y,1/2+z
x,-y,1/2+z
1/2+x,1/2+y,1/2+z
1/2-x,1/2-y,1/2+z
1/2+x,1/2-y,-z
1/2-x,1/2+y,-z
1/2-x,1/2-y,1/2-z
1/2+x,1/2+y,1/2-z
1/2-x,1/2+y,z
1/2+x,1/2-y,z
loop_
_atom_site_type_symbol
_atom_site_label
_atom_site_fract_x
_atom_site_fract_y
_atom_site_fract_z
Si Si1 0.128362 0.861384 0.781457
Si Si2 0.976435 0.133012 0.893472
Si Si3 0.143964 0.678726 0.608682
Si Si4 0.755751 0.125322 0.811509
Si Si5 0.029266 0.616965 0.648854
O O1 0.074699 0.820707 0.834253
O O2 0.139852 0.786480 0.686447
O O3 0.182250 0.863099 0.845661
O O4 0.117836 0.000000 0.750000
O O5 0.019163 0.245305 0.890936
O O6 0.958872 0.112539 0.000000
O O7 0.000000 0.000000 0.860910
O O8 0.136945 0.713977 0.500000
O O9 0.204051 0.622476 0.621094
O O10 0.093385 0.593458 0.640470
O O11 0.750000 0.250000 0.750000
O O12 0.753949 0.000000 0.750000
O O13 0.000000 0.500000 0.602174
O O14 0.000000 0.623164 0.750000
#
# Coordination Sequence:
#
# PCOD9528119 Si02
#       5
#    16  16  16  16  16
#     4  10  21  40  64  92 129 169 210 263 317 381
#     4  11  24  40  63  95 129 167 214 263 319 384
#     4  11  23  40  64  94 129 167 213 266 322 384
#     4   9  21  40  63  89 122 164 210 258 313 373
#     4  11  24  40  62  90 124 165 210 259 314 376
#
# _framework density 20.958423
#
# number of rings (size 3 to 8) (size 9 to 14) (size 15 to 20)
#    0.000    1.600    2.000    1.800    2.800    4.800 
#    0.000    8.000    0.000    0.600    0.000    0.000 
#    0.000    0.000    0.000    0.000    0.000    0.000 
#
# Total GULP energy -222862.708021 kJ/mol
# GULP energy per Si atom -5571.567701 kJ/mol
# Density = 2.091072 g / cm^3
# Si number density = 20.958423 Si / 1000 Ang^3
#
#
#
# Elastic Constant Matrix: (Units=GPa)
#
#
# Indices 1 2 3 4 5 6 
#
# 1 171.3721 18.5814 48.0879 0.0000 0.0000 0.0000
# 2 18.5814 104.3900 4.8970 0.0000 0.0000 0.0000
# 3 48.0879 4.8970 113.1891 0.0000 0.0000 0.0000
# 4 0.0000 0.0000 0.0000 42.2989 0.0000 0.0000
# 5 0.0000 0.0000 0.0000 0.0000 -189.2252 0.0000
# 6 0.0000 0.0000 0.0000 0.0000 0.0000 16.9835
#
#
#
# Elastic Compliance Matrix: (Units=1/GPa)
#
#
# Indices 1 2 3 4 5 6 
#
# 1 0.006742 -0.001068 -0.002818 0.000000 0.000000 0.000000
# 2 -0.001068 0.009768 0.000031 0.000000 0.000000 0.000000
# 3 -0.002818 0.000031 0.010031 0.000000 0.000000 0.000000
# 4 0.000000 0.000000 0.000000 0.023641 0.000000 0.000000
# 5 0.000000 0.000000 0.000000 0.000000 -0.005285 0.000000
# 6 0.000000 0.000000 0.000000 0.000000 0.000000 0.058881
#
#
# Mechanical properties :
#
#
# Convention : Reuss Voigt Hill
#
# Bulk Modulus (GPa) = 53.10416 59.12044 56.11230
# Shear Modulus (GPa) = 42.45764 -4.82956 18.81404
#
# Velocity S-wave (km/s) = 4.50578 -1.51966 2.99939
# Velocity P-wave (km/s) = 7.24308 5.01902 6.23108
#
# Compressibility (1/GPa) = 0.01883092
#
# Stress axis : x y z
#
# Youngs Moduli (GPa) = 148.32860 102.37425 99.69443
#
# Poissons Ratio (x) = 0.10932 0.28094
# Poissons Ratio (y) = 0.15839 -0.00310
# Poissons Ratio (z) = 0.41799 -0.00318
#
# Static dielectric constant tensor:
#      x y z
#    x 1.822700 0.000000 0.000000 
#    y 0.000000 1.758960 0.000000 
#    z 0.000000 0.000000 1.775940 
# 
# From -- ./inp_files/24904.got.cif
#   From: 2010.05.17/outbox.cif.g08.bks.cpg/sg72_13_cif.got.tgz:24904.got - 2010.06.03 17:03:01.
