data_PCOD9528957
_publ_section_title
;
Structure prediction by ZEFSAII (Michael W. Deem and Ramdas Pophale) SiO2 
 PCOD9528957
Probable space group: I B A M
;
_chemical_formula_sum "Si O2"
_cell_formula_units_Z 64
_cell_length_a 8.856406
_cell_length_b 9.776060
_cell_length_c 31.361614
_cell_angle_alpha 90.000000
_cell_angle_beta 90.000000
_cell_angle_gamma 90.000000
_cell_volume 2715.312263
_symmetry_space_group_name_H-M "I B A M"
_symmetry_group_IT_number 72
_symmetry_cell_setting 'orthorhombic'
loop_
_space_group_symop_operation_xyz
x,y,z
-x,-y,z
x,-y,1/2-z
-x,y,1/2-z
-x,-y,-z
x,y,-z
-x,y,1/2+z
x,-y,1/2+z
1/2+x,1/2+y,1/2+z
1/2-x,1/2-y,1/2+z
1/2+x,1/2-y,-z
1/2-x,1/2+y,-z
1/2-x,1/2-y,1/2-z
1/2+x,1/2+y,1/2-z
1/2-x,1/2+y,z
1/2+x,1/2-y,z
loop_
_atom_site_type_symbol
_atom_site_label
_atom_site_fract_x
_atom_site_fract_y
_atom_site_fract_z
Si Si1 0.429371 0.275005 0.663357
Si Si2 0.160570 0.579397 0.949918
Si Si3 0.179715 0.367567 0.720646
Si Si4 0.811740 0.855865 0.396844
O O1 0.309489 0.377964 0.684705
O O2 0.529005 0.187996 0.697447
O O3 0.332799 0.174442 0.633345
O O4 0.547832 0.352980 0.634476
O O5 0.162216 0.727727 0.928519
O O6 0.281285 0.488853 0.924513
O O7 0.000000 0.500000 0.945624
O O8 0.194669 0.589213 0.000000
O O9 0.165801 0.500000 0.750000
O O10 0.250000 0.250000 0.750000
#
# Coordination Sequence:
#
# PCOD9528957 Si02
#       4
#    16  16  16  16
#     4  10  25  44  73 104 138 188 235 293 353 424
#     4  11  24  44  71 107 149 190 235 295 357 417
#     4  11  26  45  69 101 142 180 236 291 357 417
#     4  11  23  46  72 105 144 188 241 288 358 419
#
# _framework density 23.570034
#
# number of rings (size 3 to 8) (size 9 to 14) (size 15 to 20)
#    0.000    1.250    2.500    1.500    0.000   17.000 
#    0.000    5.000    0.000    0.000    0.000    0.000 
#    0.000    0.000    0.000    0.000    0.000    0.000 
#
# Total GULP energy -179435.261864 kJ/mol
# GULP energy per Si atom -5607.351933 kJ/mol
# Density = 2.351639 g / cm^3
# Si number density = 23.570034 Si / 1000 Ang^3
#
#
#
# Elastic Constant Matrix: (Units=GPa)
#
#
# Indices 1 2 3 4 5 6 
#
# 1 135.3772 18.5228 62.6802 0.0000 0.0000 0.0000
# 2 18.5228 110.9862 47.8301 0.0000 0.0000 0.0000
# 3 62.6802 47.8301 145.1609 0.0000 0.0000 0.0000
# 4 0.0000 0.0000 0.0000 36.6468 0.0000 0.0000
# 5 0.0000 0.0000 0.0000 0.0000 49.4629 0.0000
# 6 0.0000 0.0000 0.0000 0.0000 0.0000 25.6704
#
#
#
# Elastic Compliance Matrix: (Units=1/GPa)
#
#
# Indices 1 2 3 4 5 6 
#
# 1 0.009237 0.000207 -0.004056 0.000000 0.000000 0.000000
# 2 0.000207 0.010506 -0.003551 0.000000 0.000000 0.000000
# 3 -0.004056 -0.003551 0.009810 0.000000 0.000000 0.000000
# 4 0.000000 0.000000 0.000000 0.027288 0.000000 0.000000
# 5 0.000000 0.000000 0.000000 0.000000 0.020217 0.000000
# 6 0.000000 0.000000 0.000000 0.000000 0.000000 0.038955
#
#
# Mechanical properties :
#
#
# Convention : Reuss Voigt Hill
#
# Bulk Modulus (GPa) = 67.78917 72.17672 69.98294
# Shear Modulus (GPa) = 36.83738 39.85544 38.34641
#
# Velocity S-wave (km/s) = 3.95763 4.11656 4.03788
# Velocity P-wave (km/s) = 7.05032 7.29955 7.17602
#
# Compressibility (1/GPa) = 0.01475162
#
# Stress axis : x y z
#
# Youngs Moduli (GPa) = 108.26442 95.18437 101.93182
#
# Poissons Ratio (x) = -0.01967 0.41348
# Poissons Ratio (y) = -0.02237 0.36195
# Poissons Ratio (z) = 0.43917 0.33799
#
# Static dielectric constant tensor:
#      x y z
#    x 1.923820 0.000000 0.000000 
#    y 0.000000 1.854930 0.000000 
#    z 0.000000 0.000000 1.917100 
# 
# From -- ./inp_files/50590.got.cif
#   From: 2010.05.17/outbox.cif.g08.bks.cpg/sg72_26_cif.got.tgz:50590.got - 2010.06.03 17:03:01.
