data_PCOD9528549
_publ_section_title
;
Structure prediction by ZEFSAII (Michael W. Deem and Ramdas Pophale) SiO2 
 PCOD9528549
Probable space group: I B A M
;
_chemical_formula_sum "Si O2"
_cell_formula_units_Z 88
_cell_length_a 12.036640
_cell_length_b 9.753551
_cell_length_c 30.056857
_cell_angle_alpha 90.000000
_cell_angle_beta 90.000000
_cell_angle_gamma 90.000000
_cell_volume 3528.674474
_symmetry_space_group_name_H-M "I B A M"
_symmetry_group_IT_number 72
_symmetry_cell_setting 'orthorhombic'
loop_
_space_group_symop_operation_xyz
x,y,z
-x,-y,z
x,-y,1/2-z
-x,y,1/2-z
-x,-y,-z
x,y,-z
-x,y,1/2+z
x,-y,1/2+z
1/2+x,1/2+y,1/2+z
1/2-x,1/2-y,1/2+z
1/2+x,1/2-y,-z
1/2-x,1/2+y,-z
1/2-x,1/2-y,1/2-z
1/2+x,1/2+y,1/2-z
1/2-x,1/2+y,z
1/2+x,1/2-y,z
loop_
_atom_site_type_symbol
_atom_site_label
_atom_site_fract_x
_atom_site_fract_y
_atom_site_fract_z
Si Si1 0.804482 0.000000 0.250000
Si Si2 0.130805 0.527320 0.829431
Si Si3 0.042947 0.766171 0.207358
Si Si4 0.059565 0.147342 0.877228
Si Si5 0.107763 0.245108 0.450349
Si Si6 0.735196 0.997561 0.081255
O O1 0.719428 0.000910 0.208613
O O2 0.888779 0.882121 0.266586
O O3 0.127675 0.693369 0.826612
O O4 0.165155 0.458566 0.875495
O O5 0.000000 0.500000 0.822632
O O6 0.000000 0.681372 0.250000
O O7 0.943405 0.802565 0.173692
O O8 0.176745 0.109442 0.897671
O O9 0.987190 0.231258 0.912950
O O10 0.000000 0.000000 0.873363
O O11 0.063119 0.219303 0.500000
O O12 0.159535 0.397465 0.448195
O O13 0.199154 0.124626 0.440394
#
# Coordination Sequence:
#
# PCOD9528549 Si02
#       6
#     8  16  16  16  16  16
#     4  12  24  42  66 100 134 188 244 290 342 424
#     4  12  27  43  64  98 146 187 231 292 360 421
#     4  12  23  42  68  98 134 187 240 291 343 424
#     4  10  22  42  65  97 137 179 234 290 347 419
#     4  11  24  45  72 106 139 181 236 300 368 438
#     4  11  25  44  72 102 139 188 232 292 364 437
#
# _framework density 24.938542999999999
#
# number of rings (size 3 to 8) (size 9 to 14) (size 15 to 20)
#    0.000    0.727    1.818    7.091    2.545    4.000 
#    0.000    0.000    0.000    3.273    0.000    0.000 
#    0.000    0.000    0.000    0.000    0.000    0.000 
#
# Total GULP energy -245747.841263 kJ/mol
# GULP energy per Si atom -5585.178211 kJ/mol
# Density = 2.488178 g / cm^3
# Si number density = 24.938543 Si / 1000 Ang^3
#
#
#
# Elastic Constant Matrix: (Units=GPa)
#
#
# Indices 1 2 3 4 5 6 
#
# 1 99.5434 7.3497 36.8110 0.0000 0.0000 0.0000
# 2 7.3497 44.4196 13.8742 0.0000 0.0000 0.0000
# 3 36.8110 13.8742 184.8928 0.0000 0.0000 0.0000
# 4 0.0000 0.0000 0.0000 19.9475 0.0000 0.0000
# 5 0.0000 0.0000 0.0000 0.0000 26.5442 0.0000
# 6 0.0000 0.0000 0.0000 0.0000 0.0000 30.0946
#
#
#
# Elastic Compliance Matrix: (Units=1/GPa)
#
#
# Indices 1 2 3 4 5 6 
#
# 1 0.010902 -0.001153 -0.002084 0.000000 0.000000 0.000000
# 2 -0.001153 0.023175 -0.001509 0.000000 0.000000 0.000000
# 3 -0.002084 -0.001509 0.005937 0.000000 0.000000 0.000000
# 4 0.000000 0.000000 0.000000 0.050132 0.000000 0.000000
# 5 0.000000 0.000000 0.000000 0.000000 0.037673 0.000000
# 6 0.000000 0.000000 0.000000 0.000000 0.000000 0.033229
#
#
# Mechanical properties :
#
#
# Convention : Reuss Voigt Hill
#
# Bulk Modulus (GPa) = 32.76479 49.43619 41.10049
# Shear Modulus (GPa) = 27.66826 33.37198 30.52012
#
# Velocity S-wave (km/s) = 3.33447 3.66207 3.50210
# Velocity P-wave (km/s) = 5.29071 6.14388 5.73319
#
# Compressibility (1/GPa) = 0.03052057
#
# Stress axis : x y z
#
# Youngs Moduli (GPa) = 91.72944 43.15023 168.44350
#
# Poissons Ratio (x) = 0.04975 0.35103
# Poissons Ratio (y) = 0.10575 0.25426
# Poissons Ratio (z) = 0.19116 0.06514
#
# Static dielectric constant tensor:
#      x y z
#    x 2.031570 0.000000 0.000000 
#    y 0.000000 2.199090 0.000000 
#    z 0.000000 0.000000 1.981390 
# 
# From -- ./inp_files/51311.got.cif
#   From: 2010.05.17/outbox.cif.g08.bks.cpg/sg72_26_cif.got.tgz:51311.got - 2010.06.03 17:03:01.
