data_PCOD9528143
_publ_section_title
;
Structure prediction by ZEFSAII (Michael W. Deem and Ramdas Pophale) SiO2 
 PCOD9528143
Probable space group: I B A M
;
_chemical_formula_sum "Si O2"
_cell_formula_units_Z 112
_cell_length_a 13.468657
_cell_length_b 26.058975
_cell_length_c 14.888893
_cell_angle_alpha 90.000000
_cell_angle_beta 90.000000
_cell_angle_gamma 90.000000
_cell_volume 5225.694673
_symmetry_space_group_name_H-M "I B A M"
_symmetry_group_IT_number 72
_symmetry_cell_setting 'orthorhombic'
loop_
_space_group_symop_operation_xyz
x,y,z
-x,-y,z
x,-y,1/2-z
-x,y,1/2-z
-x,-y,-z
x,y,-z
-x,y,1/2+z
x,-y,1/2+z
1/2+x,1/2+y,1/2+z
1/2-x,1/2-y,1/2+z
1/2+x,1/2-y,-z
1/2-x,1/2+y,-z
1/2-x,1/2-y,1/2-z
1/2+x,1/2+y,1/2-z
1/2-x,1/2+y,z
1/2+x,1/2-y,z
loop_
_atom_site_type_symbol
_atom_site_label
_atom_site_fract_x
_atom_site_fract_y
_atom_site_fract_z
Si Si1 0.000000 0.085752 0.250000
Si Si2 0.648418 0.500000 0.750000
Si Si3 0.517906 0.667343 0.891670
Si Si4 0.250387 0.842810 0.109684
Si Si5 0.046043 0.621749 0.153544
Si Si6 0.865353 0.439218 0.400295
Si Si7 0.702511 0.954875 0.892828
Si Si8 0.940449 0.278554 0.391972
O O1 0.970633 0.122260 0.332610
O O2 0.917303 0.046800 0.213891
O O3 0.707442 0.525744 0.667937
O O4 0.636115 0.668040 0.868486
O O5 0.467587 0.721162 0.865277
O O6 0.508901 0.660277 0.000000
O O7 0.290483 0.898191 0.144366
O O8 0.334712 0.801923 0.139951
O O9 0.255349 0.843067 0.000000
O O10 0.153314 0.598176 0.138602
O O11 0.000000 0.610362 0.250000
O O12 0.969552 0.589393 0.093376
O O13 0.026681 0.681412 0.135510
O O14 0.823081 0.445308 0.500000
O O15 0.872816 0.497610 0.369502
O O16 0.720482 0.950772 0.000000
O O17 0.937361 0.278923 0.500000
#
# Coordination Sequence:
#
# PCOD9528143 Si02
#       8
#     8   8  16  16  16  16  16  16
#     4  11  26  46  68  88 120 160 215 276 340 406
#     4  11  26  46  63  90 126 162 207 280 342 401
#     4  10  21  40  67  93 121 164 217 269 324 395
#     4   8  15  32  58  86 115 155 202 254 315 374
#     4  11  21  32  53  87 132 173 207 256 312 381
#     4   9  17  31  54  81 115 158 205 247 296 366
#     4  11  22  38  62  92 127 170 218 265 325 394
#     4   9  19  37  59  88 126 165 210 265 321 382
#
# _framework density 21.432556999999999
#
# number of rings (size 3 to 8) (size 9 to 14) (size 15 to 20)
#    0.000    2.143    0.000    4.286    1.000    5.143 
#    2.571    2.143    0.000    0.000    0.000    0.000 
#    0.000    0.000    0.000    0.000    0.000    0.000 
#
# Total GULP energy -312124.793345 kJ/mol
# GULP energy per Si atom -5573.657024 kJ/mol
# Density = 2.138378 g / cm^3
# Si number density = 21.432557 Si / 1000 Ang^3
#
#
#
# Elastic Constant Matrix: (Units=GPa)
#
#
# Indices 1 2 3 4 5 6 
#
# 1 46.8522 15.2182 4.0296 0.0000 0.0000 0.0000
# 2 15.2182 108.7108 15.7663 0.0000 0.0000 0.0000
# 3 4.0296 15.7663 74.6886 0.0000 0.0000 0.0000
# 4 0.0000 0.0000 0.0000 17.4758 0.0000 0.0000
# 5 0.0000 0.0000 0.0000 0.0000 23.8748 0.0000
# 6 0.0000 0.0000 0.0000 0.0000 0.0000 32.0170
#
#
#
# Elastic Compliance Matrix: (Units=1/GPa)
#
#
# Indices 1 2 3 4 5 6 
#
# 1 0.022383 -0.003052 -0.000563 0.000000 0.000000 0.000000
# 2 -0.003052 0.009905 -0.001926 0.000000 0.000000 0.000000
# 3 -0.000563 -0.001926 0.013826 0.000000 0.000000 0.000000
# 4 0.000000 0.000000 0.000000 0.057222 0.000000 0.000000
# 5 0.000000 0.000000 0.000000 0.000000 0.041885 0.000000
# 6 0.000000 0.000000 0.000000 0.000000 0.000000 0.031233
#
#
# Mechanical properties :
#
#
# Convention : Reuss Voigt Hill
#
# Bulk Modulus (GPa) = 28.54550 33.36442 30.95496
# Shear Modulus (GPa) = 25.09847 27.68934 26.39391
#
# Velocity S-wave (km/s) = 3.42576 3.59824 3.51306
# Velocity P-wave (km/s) = 5.38475 5.73272 5.56146
#
# Compressibility (1/GPa) = 0.03503179
#
# Stress axis : x y z
#
# Youngs Moduli (GPa) = 44.67595 100.95611 72.32774
#
# Poissons Ratio (x) = 0.30809 0.04075
# Poissons Ratio (y) = 0.13634 0.13932
# Poissons Ratio (z) = 0.02517 0.19447
#
# Static dielectric constant tensor:
#      x y z
#    x 1.856100 0.000000 0.000000 
#    y 0.000000 1.792830 0.000000 
#    z 0.000000 0.000000 -6.741230 
# 
# From -- ./inp_files/22338.got.cif
#   From: 2010.05.17/outbox.cif.g08.bks.cpg/sg72_12_cif.got.tgz:22338.got - 2010.06.03 17:03:01.
