data_PCOD9528744
_publ_section_title
;
Structure prediction by ZEFSAII (Michael W. Deem and Ramdas Pophale) SiO2 
 PCOD9528744
Probable space group: I B A M
;
_chemical_formula_sum "Si O2"
_cell_formula_units_Z 96
_cell_length_a 24.292794
_cell_length_b 11.073419
_cell_length_c 16.447370
_cell_angle_alpha 90.000000
_cell_angle_beta 90.000000
_cell_angle_gamma 90.000000
_cell_volume 4424.413034
_symmetry_space_group_name_H-M "I B A M"
_symmetry_group_IT_number 72
_symmetry_cell_setting 'orthorhombic'
loop_
_space_group_symop_operation_xyz
x,y,z
-x,-y,z
x,-y,1/2-z
-x,y,1/2-z
-x,-y,-z
x,y,-z
-x,y,1/2+z
x,-y,1/2+z
1/2+x,1/2+y,1/2+z
1/2-x,1/2-y,1/2+z
1/2+x,1/2-y,-z
1/2-x,1/2+y,-z
1/2-x,1/2-y,1/2-z
1/2+x,1/2+y,1/2-z
1/2-x,1/2+y,z
1/2+x,1/2-y,z
loop_
_atom_site_type_symbol
_atom_site_label
_atom_site_fract_x
_atom_site_fract_y
_atom_site_fract_z
Si Si1 0.629522 0.962020 0.655729
Si Si2 0.480389 0.172334 0.340131
Si Si3 0.402870 0.797943 0.408962
Si Si4 0.051444 0.909004 0.589717
Si Si5 0.241067 0.374271 0.802034
Si Si6 0.858897 0.067619 0.836799
O O1 0.572348 0.901610 0.631294
O O2 0.682516 0.875102 0.652219
O O3 0.622193 0.000000 0.750000
O O4 0.635336 0.086428 0.606865
O O5 0.500000 0.138613 0.250000
O O6 0.534005 0.163974 0.396155
O O7 0.459708 0.309847 0.342648
O O8 0.395174 0.749863 0.500000
O O9 0.390288 0.695105 0.342885
O O10 0.051438 0.851932 0.500000
O O11 0.107855 0.979708 0.604061
O O12 0.000000 0.000000 0.592503
O O13 0.237670 0.500000 0.750000
O O14 0.250000 0.250000 0.750000
O O15 0.295760 0.397404 0.854734
O O16 0.860352 0.000000 0.750000
#
# Coordination Sequence:
#
# PCOD9528744 Si02
#       6
#    16  16  16  16  16  16
#     4  11  24  43  68  98 134 173 236 280 340 408
#     4  12  24  39  68  99 131 173 231 280 340 422
#     4  12  25  44  68  99 144 182 217 285 366 424
#     4  11  24  40  60  91 134 175 216 279 346 406
#     4  10  23  41  70 100 136 176 230 299 348 394
#     4  11  23  41  70  98 128 179 234 278 343 417
#
# _framework density 21.697793000000001
#
# number of rings (size 3 to 8) (size 9 to 14) (size 15 to 20)
#    0.000    0.833    3.333    4.500    4.667    2.000 
#    0.000    1.667    0.000    0.000    0.000    0.000 
#    0.000    0.000    0.000    0.000    0.000    0.000 
#
# Total GULP energy -268058.129658 kJ/mol
# GULP energy per Si atom -5584.544368 kJ/mol
# Density = 2.164841 g / cm^3
# Si number density = 21.697793 Si / 1000 Ang^3
#
#
#
# Elastic Constant Matrix: (Units=GPa)
#
#
# Indices 1 2 3 4 5 6 
#
# 1 146.4450 44.7482 13.1027 0.0000 0.0000 0.0000
# 2 44.7482 119.8649 18.1625 0.0000 0.0000 0.0000
# 3 13.1027 18.1625 49.0652 0.0000 0.0000 0.0000
# 4 0.0000 0.0000 0.0000 16.7838 0.0000 0.0000
# 5 0.0000 0.0000 0.0000 0.0000 2.4806 0.0000
# 6 0.0000 0.0000 0.0000 0.0000 0.0000 34.6823
#
#
#
# Elastic Compliance Matrix: (Units=1/GPa)
#
#
# Indices 1 2 3 4 5 6 
#
# 1 0.007759 -0.002736 -0.001059 0.000000 0.000000 0.000000
# 2 -0.002736 0.009803 -0.002898 0.000000 0.000000 0.000000
# 3 -0.001059 -0.002898 0.021737 0.000000 0.000000 0.000000
# 4 0.000000 0.000000 0.000000 0.059581 0.000000 0.000000
# 5 0.000000 0.000000 0.000000 0.000000 0.403130 0.000000
# 6 0.000000 0.000000 0.000000 0.000000 0.000000 0.028833
#
#
# Mechanical properties :
#
#
# Convention : Reuss Voigt Hill
#
# Bulk Modulus (GPa) = 38.59203 51.93357 45.26280
# Shear Modulus (GPa) = 9.04374 26.74678 17.89526
#
# Velocity S-wave (km/s) = 2.04379 3.51479 2.87496
# Velocity P-wave (km/s) = 4.83676 6.36070 5.65034
#
# Compressibility (1/GPa) = 0.02591209
#
# Stress axis : x y z
#
# Youngs Moduli (GPa) = 128.87646 102.00568 46.00503
#
# Poissons Ratio (x) = 0.27911 0.04873
# Poissons Ratio (y) = 0.35264 0.13333
# Poissons Ratio (z) = 0.13651 0.29564
#
# Static dielectric constant tensor:
#      x y z
#    x 1.828470 0.000000 0.000000 
#    y 0.000000 1.870640 0.000000 
#    z 0.000000 0.000000 1.768690 
# 
# From -- ./inp_files/33286.got.cif
#   From: 2010.05.17/outbox.cif.g08.bks.cpg/sg72_17_cif.got.tgz:33286.got - 2010.06.03 17:03:01.
