data_PCOD9528557
_publ_section_title
;
Structure prediction by ZEFSAII (Michael W. Deem and Ramdas Pophale) SiO2 
 PCOD9528557
Probable space group: I B A M
;
_chemical_formula_sum "Si O2"
_cell_formula_units_Z 80
_cell_length_a 10.473482
_cell_length_b 24.578963
_cell_length_c 15.061941
_cell_angle_alpha 90.000000
_cell_angle_beta 90.000000
_cell_angle_gamma 90.000000
_cell_volume 3877.355204
_symmetry_space_group_name_H-M "I B A M"
_symmetry_group_IT_number 72
_symmetry_cell_setting 'orthorhombic'
loop_
_space_group_symop_operation_xyz
x,y,z
-x,-y,z
x,-y,1/2-z
-x,y,1/2-z
-x,-y,-z
x,y,-z
-x,y,1/2+z
x,-y,1/2+z
1/2+x,1/2+y,1/2+z
1/2-x,1/2-y,1/2+z
1/2+x,1/2-y,-z
1/2-x,1/2+y,-z
1/2-x,1/2-y,1/2-z
1/2+x,1/2+y,1/2-z
1/2-x,1/2+y,z
1/2+x,1/2-y,z
loop_
_atom_site_type_symbol
_atom_site_label
_atom_site_fract_x
_atom_site_fract_y
_atom_site_fract_z
Si Si1 0.376382 0.528670 0.397217
Si Si2 0.374079 0.027767 0.846996
Si Si3 0.238131 0.860221 0.893875
Si Si4 0.465049 0.855828 0.392996
Si Si5 0.124433 0.244011 0.690101
O O1 0.500000 0.500000 0.356675
O O2 0.408930 0.540880 0.500000
O O3 0.256004 0.488532 0.394347
O O4 0.328054 0.585404 0.356288
O O5 0.398778 0.091862 0.848904
O O6 0.500000 0.000000 0.889593
O O7 0.365145 0.000000 0.750000
O O8 0.385698 0.855123 0.864358
O O9 0.155857 0.807602 0.870823
O O10 0.246227 0.865855 0.000000
O O11 0.458410 0.861717 0.500000
O O12 0.401706 0.799430 0.363493
O O13 0.250000 0.250000 0.750000
O O14 0.000000 0.233870 0.750000
#
# Coordination Sequence:
#
# PCOD9528557 Si02
#       5
#    16  16  16  16  16
#     4  10  22  42  66  96 132 170 217 273 336 401
#     4  11  24  38  67 100 134 170 218 274 330 404
#     4  10  22  44  69  95 135 178 223 278 339 406
#     4  11  24  44  71  99 133 180 232 276 335 412
#     4  12  26  43  68  98 136 174 225 287 343 394
#
# _framework density 20.632621
#
# number of rings (size 3 to 8) (size 9 to 14) (size 15 to 20)
#    0.000    1.200    4.000    1.200    5.600    2.800 
#    0.000    2.000    0.000    0.000    0.000    0.000 
#    0.000    0.000    0.000    0.000    0.000    0.000 
#
# Total GULP energy -223579.645969 kJ/mol
# GULP energy per Si atom -5589.491149 kJ/mol
# Density = 2.058566 g / cm^3
# Si number density = 20.632621 Si / 1000 Ang^3
#
#
#
# Elastic Constant Matrix: (Units=GPa)
#
#
# Indices 1 2 3 4 5 6 
#
# 1 143.5888 79.1092 16.9540 0.0000 0.0000 0.0000
# 2 79.1092 211.0082 27.5604 0.0000 0.0000 0.0000
# 3 16.9540 27.5604 55.3061 0.0001 0.0000 0.0000
# 4 0.0000 0.0000 0.0001 4.9079 0.0000 0.0000
# 5 0.0000 0.0000 0.0000 0.0000 22.6396 0.0000
# 6 0.0000 0.0000 0.0000 0.0000 0.0000 39.1885
#
#
#
# Elastic Compliance Matrix: (Units=1/GPa)
#
#
# Indices 1 2 3 4 5 6 
#
# 1 0.008843 -0.003167 -0.001132 0.000000 0.000000 0.000000
# 2 -0.003167 0.006204 -0.002120 0.000000 0.000000 0.000000
# 3 -0.001132 -0.002120 0.019485 0.000000 0.000000 0.000000
# 4 0.000000 0.000000 0.000000 0.203753 0.000000 0.000000
# 5 0.000000 0.000000 0.000000 0.000000 0.044170 0.000000
# 6 0.000000 0.000000 0.000000 0.000000 0.000000 0.025518
#
#
# Mechanical properties :
#
#
# Convention : Reuss Voigt Hill
#
# Bulk Modulus (GPa) = 46.10185 73.01671 59.55928
# Shear Modulus (GPa) = 15.24187 32.43249 23.83718
#
# Velocity S-wave (km/s) = 2.72090 3.96903 3.40268
# Velocity P-wave (km/s) = 5.68012 7.51465 6.66085
#
# Compressibility (1/GPa) = 0.02169110
#
# Stress axis : x y z
#
# Youngs Moduli (GPa) = 113.08202 161.19589 51.32152
#
# Poissons Ratio (x) = 0.51058 0.05812
# Poissons Ratio (y) = 0.35819 0.10882
# Poissons Ratio (z) = 0.12806 0.34181
#
# Static dielectric constant tensor:
#      x y z
#    x 1.709880 0.000000 0.000000 
#    y 0.000000 1.730510 0.000000 
#    z 0.000000 0.000000 1.792850 
# 
# From -- ./inp_files/20175.got.cif
#   From: 2010.05.17/outbox.cif.g08.bks.cpg/sg72_11_cif.got.tgz:20175.got - 2010.06.03 17:03:01.
