data_PCOD9528399
_publ_section_title
;
Structure prediction by ZEFSAII (Michael W. Deem and Ramdas Pophale) SiO2 
 PCOD9528399
Probable space group: I B A M
;
_chemical_formula_sum "Si O2"
_cell_formula_units_Z 100
_cell_length_a 21.284276
_cell_length_b 26.636547
_cell_length_c 9.191764
_cell_angle_alpha 90.000000
_cell_angle_beta 90.000000
_cell_angle_gamma 90.000000
_cell_volume 5211.175171
_symmetry_space_group_name_H-M "I B A M"
_symmetry_group_IT_number 72
_symmetry_cell_setting 'orthorhombic'
loop_
_space_group_symop_operation_xyz
x,y,z
-x,-y,z
x,-y,1/2-z
-x,y,1/2-z
-x,-y,-z
x,y,-z
-x,y,1/2+z
x,-y,1/2+z
1/2+x,1/2+y,1/2+z
1/2-x,1/2-y,1/2+z
1/2+x,1/2-y,-z
1/2-x,1/2+y,-z
1/2-x,1/2-y,1/2-z
1/2+x,1/2+y,1/2-z
1/2-x,1/2+y,z
1/2+x,1/2-y,z
loop_
_atom_site_type_symbol
_atom_site_label
_atom_site_fract_x
_atom_site_fract_y
_atom_site_fract_z
Si Si1 0.935445 0.693161 0.825430
Si Si2 0.816163 0.759757 0.827051
Si Si3 0.774616 0.449911 0.829550
Si Si4 0.932241 0.050962 0.825391
Si Si5 0.000000 0.500000 0.250000
Si Si6 0.339751 0.376834 0.670523
Si Si7 0.600963 0.079368 0.164028
O O1 0.873667 0.724109 0.778406
O O2 0.924579 0.634170 0.793812
O O3 0.000000 0.709803 0.750000
O O4 0.941686 0.698723 0.000000
O O5 0.750000 0.750000 0.750000
O O6 0.834796 0.817700 0.805096
O O7 0.807951 0.751553 0.000000
O O8 0.751494 0.500000 0.750000
O O9 0.727185 0.403898 0.806436
O O10 0.843065 0.436878 0.768634
O O11 0.778488 0.460244 0.000000
O O12 0.888432 0.096499 0.776979
O O13 0.000000 0.058243 0.750000
O O14 0.906760 0.000000 0.750000
O O15 0.936918 0.045665 0.000000
O O16 0.046308 0.537866 0.333430
O O17 0.357370 0.385468 0.500000
O O18 0.626336 0.083282 0.000000
#
# Coordination Sequence:
#
# PCOD9528399 Si02
#       7
#    16  16  16  16   4  16  16
#     4  10  22  40  61  88 119 155 197 248 300 355
#     4  10  22  41  64  88 119 157 205 257 308 363
#     4  11  23  37  57  84 118 155 195 240 293 348
#     4  11  22  38  62  91 124 162 198 243 299 365
#     4  12  22  36  60  86 118 156 192 232 288 340
#     4  10  22  40  60  87 120 157 201 253 302 357
#     4  11  23  38  58  86 120 155 197 241 289 350
#
# _framework density 19.189529
#
# number of rings (size 3 to 8) (size 9 to 14) (size 15 to 20)
#    0.000    1.440    1.600    4.080    0.000    5.760 
#    0.000    1.600    0.000    0.000    0.000    0.000 
#    0.000    0.000    0.000    0.000    0.000    0.000 
#
# Total GULP energy -279351.873237 kJ/mol
# GULP energy per Si atom -5587.037465 kJ/mol
# Density = 1.914585 g / cm^3
# Si number density = 19.189529 Si / 1000 Ang^3
#
#
#
# Elastic Constant Matrix: (Units=GPa)
#
#
# Indices 1 2 3 4 5 6 
#
# 1 128.1895 67.3008 60.4360 0.0000 0.0000 0.0000
# 2 67.3008 118.2895 54.5339 0.0000 0.0000 0.0000
# 3 60.4360 54.5339 90.0136 0.0000 0.0000 0.0000
# 4 0.0000 0.0000 0.0000 25.7011 0.0000 0.0000
# 5 0.0000 0.0000 0.0000 0.0000 27.3266 0.0000
# 6 0.0000 0.0000 0.0000 0.0000 0.0000 25.3317
#
#
#
# Elastic Compliance Matrix: (Units=1/GPa)
#
#
# Indices 1 2 3 4 5 6 
#
# 1 0.013061 -0.004701 -0.005921 0.000000 0.000000 0.000000
# 2 -0.004701 0.013422 -0.004975 0.000000 0.000000 0.000000
# 3 -0.005921 -0.004975 0.018099 0.000000 0.000000 0.000000
# 4 0.000000 0.000000 0.000000 0.038909 0.000000 0.000000
# 5 0.000000 0.000000 0.000000 0.000000 0.036594 0.000000
# 6 0.000000 0.000000 0.000000 0.000000 0.000000 0.039476
#
#
# Mechanical properties :
#
#
# Convention : Reuss Voigt Hill
#
# Bulk Modulus (GPa) = 74.69852 77.89268 76.29560
# Shear Modulus (GPa) = 25.61234 25.95334 25.78284
#
# Velocity S-wave (km/s) = 3.65732 3.68159 3.66948
# Velocity P-wave (km/s) = 7.53962 7.66495 7.60255
#
# Compressibility (1/GPa) = 0.01338715
#
# Stress axis : x y z
#
# Youngs Moduli (GPa) = 76.56659 74.50276 55.25161
#
# Poissons Ratio (x) = 0.35025 0.32713
# Poissons Ratio (y) = 0.35995 0.27490
# Poissons Ratio (z) = 0.45334 0.37068
#
# Static dielectric constant tensor:
#      x y z
#    x 1.656010 0.000000 0.000000 
#    y 0.000000 1.666590 0.000000 
#    z 0.000000 0.000000 1.662170 
# 
# From -- ./inp_files/6192.got.cif
#   From: 2010.05.17/outbox.cif.g08.bks.cpg/sg72_4_cif.got.tgz:6192.got - 2010.06.03 17:03:01.
