data_PCOD9528282
_publ_section_title
;
Structure prediction by ZEFSAII (Michael W. Deem and Ramdas Pophale) SiO2 
 PCOD9528282
Probable space group: I B A M
;
_chemical_formula_sum "Si O2"
_cell_formula_units_Z 56
_cell_length_a 27.311474
_cell_length_b 10.703890
_cell_length_c 9.621064
_cell_angle_alpha 90.000000
_cell_angle_beta 90.000000
_cell_angle_gamma 90.000000
_cell_volume 2812.612358
_symmetry_space_group_name_H-M "I B A M"
_symmetry_group_IT_number 72
_symmetry_cell_setting 'orthorhombic'
loop_
_space_group_symop_operation_xyz
x,y,z
-x,-y,z
x,-y,1/2-z
-x,y,1/2-z
-x,-y,-z
x,y,-z
-x,y,1/2+z
x,-y,1/2+z
1/2+x,1/2+y,1/2+z
1/2-x,1/2-y,1/2+z
1/2+x,1/2-y,-z
1/2-x,1/2+y,-z
1/2-x,1/2-y,1/2-z
1/2+x,1/2+y,1/2-z
1/2-x,1/2+y,z
1/2+x,1/2-y,z
loop_
_atom_site_type_symbol
_atom_site_label
_atom_site_fract_x
_atom_site_fract_y
_atom_site_fract_z
Si Si1 0.214414 0.573073 0.000000
Si Si2 0.546107 0.869521 0.165988
Si Si3 0.685839 0.704867 0.500000
Si Si4 0.346251 0.217202 0.793993
Si Si5 0.807441 0.078793 0.000000
O O1 0.180271 0.600939 0.869198
O O2 0.255845 0.682210 0.000000
O O3 0.249368 0.453666 0.000000
O O4 0.500000 0.812522 0.250000
O O5 0.596149 0.793235 0.180328
O O6 0.554237 0.000000 0.250000
O O7 0.536603 0.887072 0.000000
O O8 0.667028 0.774085 0.634714
O O9 0.668454 0.559121 0.500000
O O10 0.324387 0.340761 0.868215
#
# Coordination Sequence:
#
# PCOD9528282 Si02
#       5
#     8  16   8  16   8
#     4   9  21  40  60  91 131 181 215 269 307 391
#     4  11  24  44  71  98 128 163 213 280 334 390
#     4  10  22  36  65  92 133 178 217 264 312 389
#     4  11  21  44  62  98 131 174 218 266 327 387
#     4   9  21  40  63  86 135 178 215 258 322 377
#
# _framework density 19.910316000000002
#
# number of rings (size 3 to 8) (size 9 to 14) (size 15 to 20)
#    0.857    0.857    2.857    3.429    4.000    0.000 
#   15.429    0.000    0.000    5.143    0.000    0.000 
#    0.000    0.000    0.000    0.000    0.000    0.000 
#
# Total GULP energy -156272.666084 kJ/mol
# GULP energy per Si atom -5581.166646 kJ/mol
# Density = 1.986500 g / cm^3
# Si number density = 19.910316 Si / 1000 Ang^3
#
#
#
# Elastic Constant Matrix: (Units=GPa)
#
#
# Indices 1 2 3 4 5 6 
#
# 1 173.4917 46.3598 73.2546 0.0000 0.0000 0.0000
# 2 46.3598 79.0527 38.3802 0.0000 0.0000 0.0000
# 3 73.2546 38.3802 220.8126 0.0000 0.0000 0.0000
# 4 0.0000 0.0000 0.0000 42.1298 0.0000 0.0000
# 5 0.0000 0.0000 0.0000 0.0000 38.8071 0.0000
# 6 0.0000 0.0000 0.0000 0.0000 0.0000 22.6816
#
#
#
# Elastic Compliance Matrix: (Units=1/GPa)
#
#
# Indices 1 2 3 4 5 6 
#
# 1 0.007487 -0.003478 -0.001879 0.000000 0.000000 0.000000
# 2 -0.003478 0.015432 -0.001528 0.000000 0.000000 0.000000
# 3 -0.001879 -0.001528 0.005418 0.000000 0.000000 0.000000
# 4 0.000000 0.000000 0.000000 0.023736 0.000000 0.000000
# 5 0.000000 0.000000 0.000000 0.000000 0.025768 0.000000
# 6 0.000000 0.000000 0.000000 0.000000 0.000000 0.044089
#
#
# Mechanical properties :
#
#
# Convention : Reuss Voigt Hill
#
# Bulk Modulus (GPa) = 68.65911 87.70515 78.18213
# Shear Modulus (GPa) = 35.57303 41.74787 38.66045
#
# Velocity S-wave (km/s) = 4.23148 4.58405 4.41129
# Velocity P-wave (km/s) = 7.64414 8.49492 8.08074
#
# Compressibility (1/GPa) = 0.01456471
#
# Stress axis : x y z
#
# Youngs Moduli (GPa) = 133.56689 64.80218 184.57702
#
# Poissons Ratio (x) = 0.22540 0.34686
# Poissons Ratio (y) = 0.46458 0.28209
# Poissons Ratio (z) = 0.25100 0.09904
#
# Static dielectric constant tensor:
#      x y z
#    x 1.697380 0.000000 0.000000 
#    y 0.000000 1.757790 0.000000 
#    z 0.000000 0.000000 1.691970 
# 
# From -- ./inp_files/7702.got.cif
#   From: 2010.05.17/outbox.cif.g08.bks.cpg/sg72_4_cif.got.tgz:7702.got - 2010.06.03 17:03:01.
