data_PCOD9528585
_publ_section_title
;
Structure prediction by ZEFSAII (Michael W. Deem and Ramdas Pophale) SiO2 
 PCOD9528585
Probable space group: I B A M
;
_chemical_formula_sum "Si O2"
_cell_formula_units_Z 76
_cell_length_a 9.044602
_cell_length_b 17.191497
_cell_length_c 19.211816
_cell_angle_alpha 90.000000
_cell_angle_beta 90.000000
_cell_angle_gamma 90.000000
_cell_volume 2987.250037
_symmetry_space_group_name_H-M "I B A M"
_symmetry_group_IT_number 72
_symmetry_cell_setting 'orthorhombic'
loop_
_space_group_symop_operation_xyz
x,y,z
-x,-y,z
x,-y,1/2-z
-x,y,1/2-z
-x,-y,-z
x,y,-z
-x,y,1/2+z
x,-y,1/2+z
1/2+x,1/2+y,1/2+z
1/2-x,1/2-y,1/2+z
1/2+x,1/2-y,-z
1/2-x,1/2+y,-z
1/2-x,1/2-y,1/2-z
1/2+x,1/2+y,1/2-z
1/2-x,1/2+y,z
1/2+x,1/2-y,z
loop_
_atom_site_type_symbol
_atom_site_label
_atom_site_fract_x
_atom_site_fract_y
_atom_site_fract_z
Si Si1 0.919758 0.401638 0.643947
Si Si2 0.619347 0.610217 0.500000
Si Si3 0.707392 0.733389 0.381217
Si Si4 0.500000 0.500000 0.750000
Si Si5 0.199254 0.550539 0.500000
Si Si6 0.235645 0.401088 0.710810
Si Si7 0.652192 0.690615 0.000000
O O1 0.890862 0.309010 0.633309
O O2 0.871067 0.450485 0.577066
O O3 0.911935 0.582359 0.666244
O O4 0.814002 0.417112 0.710161
O O5 0.651483 0.665485 0.433807
O O6 0.703526 0.529813 0.500000
O O7 0.440173 0.609844 0.500000
O O8 0.735635 0.688167 0.310085
O O9 0.847403 0.763844 0.428029
O O10 0.390691 0.446712 0.703487
O O11 0.192761 0.647996 0.500000
#
# Coordination Sequence:
#
# PCOD9528585 Si02
#       7
#    16   8  16   4   8  16   8
#     4  10  24  49  82 110 158 213 269 318 396 481
#     4  11  22  38  68 112 166 203 257 328 392 451
#     4  10  22  42  73 116 151 212 270 325 383 477
#     4  12  32  50  72 118 160 194 258 342 420 470
#     4  10  23  43  72 122 153 209 264 316 395 482
#     4  11  26  49  77 107 160 205 266 327 403 470
#     4   9  20  41  70 110 166 207 262 325 392 461
#
# _framework density 25.441458999999998
#
# number of rings (size 3 to 8) (size 9 to 14) (size 15 to 20)
#    0.000    1.684    0.000    2.842    2.947   10.105 
#    0.000    1.053    0.000    4.421    0.000    0.000 
#    0.000    0.000    0.000    0.000    0.000    0.000 
#
# Total GULP energy -211582.321760 kJ/mol
# GULP energy per Si atom -5567.955836 kJ/mol
# Density = 2.538355 g / cm^3
# Si number density = 25.441459 Si / 1000 Ang^3
#
#
#
# Elastic Constant Matrix: (Units=GPa)
#
#
# Indices 1 2 3 4 5 6 
#
# 1 414.4514 173.2118 186.8780 0.0000 0.0000 0.0000
# 2 173.2118 205.6974 121.7817 0.0000 0.0000 0.0000
# 3 186.8780 121.7817 201.5440 0.0000 0.0000 0.0000
# 4 0.0000 0.0000 0.0000 36.2716 0.0000 0.0000
# 5 0.0000 0.0000 0.0000 0.0000 12.7300 0.0000
# 6 0.0000 0.0000 0.0000 0.0000 0.0000 -12.8777
#
#
#
# Elastic Compliance Matrix: (Units=1/GPa)
#
#
# Indices 1 2 3 4 5 6 
#
# 1 0.004680 -0.002136 -0.003049 0.000000 0.000000 0.000000
# 2 -0.002136 0.008544 -0.003182 0.000000 0.000000 0.000000
# 3 -0.003049 -0.003182 0.009712 0.000000 0.000000 0.000000
# 4 0.000000 0.000000 0.000000 0.027570 0.000000 0.000000
# 5 0.000000 0.000000 0.000000 0.000000 0.078554 0.000000
# 6 0.000000 0.000000 0.000000 0.000000 0.000000 -0.077654
#
#
# Mechanical properties :
#
#
# Convention : Reuss Voigt Hill
#
# Bulk Modulus (GPa) = 161.24699 198.38176 179.81437
# Shear Modulus (GPa) = 71.21632 29.87955 50.54794
#
# Velocity S-wave (km/s) = 5.29651 3.43073 4.46223
# Velocity P-wave (km/s) = 10.04595 9.68702 9.86812
#
# Compressibility (1/GPa) = 0.00620167
#
# Stress axis : x y z
#
# Youngs Moduli (GPa) = 213.65665 117.03886 102.96772
#
# Poissons Ratio (x) = 0.25000 0.31396
# Poissons Ratio (y) = 0.45637 0.32766
# Poissons Ratio (z) = 0.65147 0.37244
#
# Static dielectric constant tensor:
#      x y z
#    x 2.087000 0.000000 0.000000 
#    y 0.000000 2.006580 0.000000 
#    z 0.000000 0.000000 2.065190 
# 
# From -- ./inp_files/37897.got.cif
#   From: 2010.05.17/outbox.cif.g08.bks.cpg/sg72_19_cif.got.tgz:37897.got - 2010.06.03 17:03:01.
