data_PCOD9528328
_publ_section_title
;
Structure prediction by ZEFSAII (Michael W. Deem and Ramdas Pophale) SiO2 
 PCOD9528328
Probable space group: I B A M
;
_chemical_formula_sum "Si O2"
_cell_formula_units_Z 72
_cell_length_a 25.244186
_cell_length_b 4.984415
_cell_length_c 28.624702
_cell_angle_alpha 90.000000
_cell_angle_beta 90.000000
_cell_angle_gamma 90.000000
_cell_volume 3601.774673
_symmetry_space_group_name_H-M "I B A M"
_symmetry_group_IT_number 72
_symmetry_cell_setting 'orthorhombic'
loop_
_space_group_symop_operation_xyz
x,y,z
-x,-y,z
x,-y,1/2-z
-x,y,1/2-z
-x,-y,-z
x,y,-z
-x,y,1/2+z
x,-y,1/2+z
1/2+x,1/2+y,1/2+z
1/2-x,1/2-y,1/2+z
1/2+x,1/2-y,-z
1/2-x,1/2+y,-z
1/2-x,1/2-y,1/2-z
1/2+x,1/2+y,1/2-z
1/2-x,1/2+y,z
1/2+x,1/2-y,z
loop_
_atom_site_type_symbol
_atom_site_label
_atom_site_fract_x
_atom_site_fract_y
_atom_site_fract_z
Si Si1 0.073310 0.000000 0.750000
Si Si2 0.036219 0.748223 0.160132
Si Si3 0.131867 0.388266 0.173573
Si Si4 0.788381 0.869734 0.897067
Si Si5 0.215688 0.236985 0.000000
Si Si6 0.287872 0.000000 0.750000
O O1 0.042471 0.805595 0.784803
O O2 0.103094 0.810370 0.711466
O O3 0.094435 0.615512 0.150006
O O4 0.000000 0.500000 0.149704
O O5 0.000000 0.000000 0.142010
O O6 0.164089 0.205943 0.137237
O O7 0.175335 0.532216 0.205181
O O8 0.740251 0.654962 0.890934
O O9 0.809170 0.836851 0.950376
O O10 0.231395 0.549310 0.000000
O O11 0.250000 0.250000 0.750000
#
# Coordination Sequence:
#
# PCOD9528328 Si02
#       6
#     8  16  16  16   8   8
#     4  12  24  38  55  78 112 147 196 235 281 330
#     4  12  26  39  59  78 106 152 199 251 290 323
#     4  12  25  38  56  83 117 154 194 238 284 346
#     4  10  22  38  61  86 119 154 191 234 287 343
#     4   8  16  36  60  86 110 145 192 239 280 336
#     4  12  25  36  50  72 113 155 186 213 268 340
#
# _framework density 19.990147
#
# number of rings (size 3 to 8) (size 9 to 14) (size 15 to 20)
#    0.000    0.889    4.444    2.333    6.222    0.000 
#    0.000    0.000    0.000    0.000    0.000    1.556 
#    0.000    0.222    0.000    0.000    0.000    0.000 
#
# Total GULP energy -200556.210172 kJ/mol
# GULP energy per Si atom -5571.005838 kJ/mol
# Density = 1.994465 g / cm^3
# Si number density = 19.990147 Si / 1000 Ang^3
#
#
#
# Elastic Constant Matrix: (Units=GPa)
#
#
# Indices 1 2 3 4 5 6 
#
# 1 82.4082 33.5032 8.9804 0.0000 0.0000 0.0000
# 2 33.5032 125.7635 -3.2584 0.0000 0.0000 0.0000
# 3 8.9804 -3.2584 58.8784 0.0000 0.0000 0.0000
# 4 0.0000 0.0000 0.0000 18.4284 0.0000 0.0000
# 5 0.0000 0.0000 0.0000 0.0000 12.4956 0.0000
# 6 0.0000 0.0000 0.0000 0.0000 0.0000 11.2742
#
#
#
# Elastic Compliance Matrix: (Units=1/GPa)
#
#
# Indices 1 2 3 4 5 6 
#
# 1 0.013921 -0.003769 -0.002332 0.000000 0.000000 0.000000
# 2 -0.003769 0.008983 0.001072 0.000000 0.000000 0.000000
# 3 -0.002332 0.001072 0.017399 0.000000 0.000000 0.000000
# 4 0.000000 0.000000 0.000000 0.054264 0.000000 0.000000
# 5 0.000000 0.000000 0.000000 0.000000 0.080028 0.000000
# 6 0.000000 0.000000 0.000000 0.000000 0.000000 0.088698
#
#
# Mechanical properties :
#
#
# Convention : Reuss Voigt Hill
#
# Bulk Modulus (GPa) = 33.06244 38.38893 35.72568
# Shear Modulus (GPa) = 17.64083 23.62797 20.63440
#
# Velocity S-wave (km/s) = 2.97387 3.44172 3.21632
# Velocity P-wave (km/s) = 5.32608 5.91942 5.63057
#
# Compressibility (1/GPa) = 0.03024580
#
# Stress axis : x y z
#
# Youngs Moduli (GPa) = 71.83329 111.31818 57.47403
#
# Poissons Ratio (x) = 0.41956 0.13402
# Poissons Ratio (y) = 0.27074 -0.06161
# Poissons Ratio (z) = 0.16751 -0.11933
#
# Static dielectric constant tensor:
#      x y z
#    x 1.868500 0.000000 0.000000 
#    y 0.000000 1.770380 0.000000 
#    z 0.000000 0.000000 1.712360 
# 
# From -- ./inp_files/52320.got.cif
#   From: 2010.05.17/outbox.cif.g08.bks.cpg/sg72_27_cif.got.tgz:52320.got - 2010.06.03 17:03:01.
