data_PCOD9528200
_publ_section_title
;
Structure prediction by ZEFSAII (Michael W. Deem and Ramdas Pophale) SiO2 
 PCOD9528200
Probable space group: I B A M
;
_chemical_formula_sum "Si O2"
_cell_formula_units_Z 64
_cell_length_a 34.425057
_cell_length_b 5.221264
_cell_length_c 15.898109
_cell_angle_alpha 90.000000
_cell_angle_beta 90.000000
_cell_angle_gamma 90.000000
_cell_volume 2857.562849
_symmetry_space_group_name_H-M "I B A M"
_symmetry_group_IT_number 72
_symmetry_cell_setting 'orthorhombic'
loop_
_space_group_symop_operation_xyz
x,y,z
-x,-y,z
x,-y,1/2-z
-x,y,1/2-z
-x,-y,-z
x,y,-z
-x,y,1/2+z
x,-y,1/2+z
1/2+x,1/2+y,1/2+z
1/2-x,1/2-y,1/2+z
1/2+x,1/2-y,-z
1/2-x,1/2+y,-z
1/2-x,1/2-y,1/2-z
1/2+x,1/2+y,1/2-z
1/2-x,1/2+y,z
1/2+x,1/2-y,z
loop_
_atom_site_type_symbol
_atom_site_label
_atom_site_fract_x
_atom_site_fract_y
_atom_site_fract_z
Si Si1 0.608912 0.094074 0.155841
Si Si2 0.650305 0.608442 0.902876
Si Si3 0.525234 0.257267 0.901286
Si Si4 0.266829 0.742414 0.345378
O O1 0.635088 0.336088 0.130051
O O2 0.565243 0.197857 0.145179
O O3 0.615737 0.000000 0.250000
O O4 0.618702 0.837726 0.103052
O O5 0.687635 0.693648 0.849318
O O6 0.661777 0.580734 0.000000
O O7 0.500000 0.500000 0.870840
O O8 0.500000 0.000000 0.896488
O O9 0.534713 0.307069 0.000000
O O10 0.250000 0.750000 0.250000
O O11 0.244379 0.508115 0.386897
#
# Coordination Sequence:
#
# PCOD9528200 Si02
#       4
#    16  16  16  16
#     4  12  27  44  71 105 144 191 239 294 360 427
#     4  12  26  45  71 102 143 188 244 300 356 428
#     4  10  21  41  70 100 136 180 226 282 346 411
#     4  10  23  40  67  97 133 180 224 297 351 432
#
# _framework density 22.396706999999999
#
# number of rings (size 3 to 8) (size 9 to 14) (size 15 to 20)
#    0.000    1.000    0.000    6.000   10.500    3.500 
#    0.000    1.250    0.000    0.000    0.000    0.000 
#    0.000    0.000    0.000    0.000    0.000    0.000 
#
# Total GULP energy -178998.276874 kJ/mol
# GULP energy per Si atom -5593.696152 kJ/mol
# Density = 2.234573 g / cm^3
# Si number density = 22.396707 Si / 1000 Ang^3
#
#
#
# Elastic Constant Matrix: (Units=GPa)
#
#
# Indices 1 2 3 4 5 6 
#
# 1 82.7729 30.0983 46.0442 0.0000 0.0000 0.0000
# 2 30.0983 184.8341 37.8222 0.0000 0.0000 0.0000
# 3 46.0442 37.8222 91.8471 0.0000 0.0000 0.0000
# 4 0.0000 0.0000 0.0000 21.8697 0.0000 0.0000
# 5 0.0000 0.0000 0.0000 0.0000 -52.4583 0.0000
# 6 0.0000 0.0000 0.0000 0.0000 0.0000 41.5590
#
#
#
# Elastic Compliance Matrix: (Units=1/GPa)
#
#
# Indices 1 2 3 4 5 6 
#
# 1 0.016961 -0.001116 -0.008043 0.000000 0.000000 0.000000
# 2 -0.001116 0.005982 -0.001904 0.000000 0.000000 0.000000
# 3 -0.008043 -0.001904 0.015704 0.000000 0.000000 0.000000
# 4 0.000000 0.000000 0.000000 0.045725 0.000000 0.000000
# 5 0.000000 0.000000 0.000000 0.000000 -0.019063 0.000000
# 6 0.000000 0.000000 0.000000 0.000000 0.000000 0.024062
#
#
# Mechanical properties :
#
#
# Convention : Reuss Voigt Hill
#
# Bulk Modulus (GPa) = 60.53077 65.26481 62.89779
# Shear Modulus (GPa) = 42.73336 18.56004 30.64670
#
# Velocity S-wave (km/s) = 4.37283 2.88183 3.70314
# Velocity P-wave (km/s) = 7.25126 6.34641 6.81387
#
# Compressibility (1/GPa) = 0.01652052
#
# Stress axis : x y z
#
# Youngs Moduli (GPa) = 58.95749 167.18103 63.67876
#
# Poissons Ratio (x) = 0.18659 0.51219
# Poissons Ratio (y) = 0.06580 0.12122
# Poissons Ratio (z) = 0.47422 0.31826
#
# Static dielectric constant tensor:
#      x y z
#    x 1.819980 0.000000 0.000000 
#    y 0.000000 1.537850 0.000000 
#    z 0.000000 0.000000 1.821080 
# 
# From -- ./inp_files/34110.got.cif
#   From: 2010.05.17/outbox.cif.g08.bks.cpg/sg72_18_cif.got.tgz:34110.got - 2010.06.03 17:03:01.
