data_PCOD9528550
_publ_section_title
;
Structure prediction by ZEFSAII (Michael W. Deem and Ramdas Pophale) SiO2 
 PCOD9528550
Probable space group: I B A M
;
_chemical_formula_sum "Si O2"
_cell_formula_units_Z 60
_cell_length_a 13.955976
_cell_length_b 14.438612
_cell_length_c 14.015709
_cell_angle_alpha 90.000000
_cell_angle_beta 90.000000
_cell_angle_gamma 90.000000
_cell_volume 2824.234356
_symmetry_space_group_name_H-M "I B A M"
_symmetry_group_IT_number 72
_symmetry_cell_setting 'orthorhombic'
loop_
_space_group_symop_operation_xyz
x,y,z
-x,-y,z
x,-y,1/2-z
-x,y,1/2-z
-x,-y,-z
x,y,-z
-x,y,1/2+z
x,-y,1/2+z
1/2+x,1/2+y,1/2+z
1/2-x,1/2-y,1/2+z
1/2+x,1/2-y,-z
1/2-x,1/2+y,-z
1/2-x,1/2-y,1/2-z
1/2+x,1/2+y,1/2-z
1/2-x,1/2+y,z
1/2+x,1/2-y,z
loop_
_atom_site_type_symbol
_atom_site_label
_atom_site_fract_x
_atom_site_fract_y
_atom_site_fract_z
Si Si1 0.756842 0.599705 0.795145
Si Si2 0.989542 0.715377 0.000000
Si Si3 0.645033 0.771790 0.162271
Si Si4 0.794588 0.827158 0.000000
Si Si5 0.213595 0.479742 0.000000
Si Si6 0.000000 0.500000 0.500000
O O1 0.736817 0.500000 0.750000
O O2 0.671331 0.674137 0.789456
O O3 0.847488 0.646995 0.741157
O O4 0.776097 0.579926 0.905331
O O5 0.052638 0.732183 0.095504
O O6 0.897543 0.780566 0.000000
O O7 0.962840 0.607221 0.000000
O O8 0.733570 0.794926 0.091586
O O9 0.793165 0.938714 0.000000
O O10 0.112640 0.534396 0.000000
#
# Coordination Sequence:
#
# PCOD9528550 Si02
#       6
#    16   8  16   8   8   4
#     4  11  21  41  70  93 138 186 233 296 356 432
#     4  11  22  41  71 106 139 181 235 300 359 434
#     4  10  22  42  66 101 138 179 234 289 362 427
#     4  11  21  42  69 100 145 178 225 297 365 423
#     4  12  23  41  70 100 135 187 235 298 363 422
#     4  12  20  40  68 104 134 176 246 290 346 428
#
# _framework density 21.244695
#
# number of rings (size 3 to 8) (size 9 to 14) (size 15 to 20)
#    0.000    1.067    5.333    3.200    0.000    0.000 
#    0.000   22.000    5.867    0.000    0.000    0.000 
#    0.000    0.000    0.000    0.000    0.000    0.000 
#
# Total GULP energy -167266.025903 kJ/mol
# GULP energy per Si atom -5575.534197 kJ/mol
# Density = 2.119634 g / cm^3
# Si number density = 21.244695 Si / 1000 Ang^3
#
#
#
# Elastic Constant Matrix: (Units=GPa)
#
#
# Indices 1 2 3 4 5 6 
#
# 1 106.7459 45.4154 35.6072 0.0000 0.0000 0.0000
# 2 45.4154 151.8953 51.8099 0.0000 0.0000 0.0000
# 3 35.6072 51.8099 131.1139 0.0000 0.0000 0.0000
# 4 0.0000 0.0000 0.0000 23.0233 0.0000 0.0000
# 5 0.0000 0.0000 0.0000 0.0000 73.8556 0.0000
# 6 0.0000 0.0000 0.0000 0.0000 0.0000 28.2460
#
#
#
# Elastic Compliance Matrix: (Units=1/GPa)
#
#
# Indices 1 2 3 4 5 6 
#
# 1 0.011161 -0.002662 -0.001979 0.000000 0.000000 0.000000
# 2 -0.002662 0.008244 -0.002535 0.000000 0.000000 0.000000
# 3 -0.001979 -0.002535 0.009166 0.000000 0.000000 0.000000
# 4 0.000000 0.000000 0.000000 0.043434 0.000000 0.000000
# 5 0.000000 0.000000 0.000000 0.000000 0.013540 0.000000
# 6 0.000000 0.000000 0.000000 0.000000 0.000000 0.035403
#
#
# Mechanical properties :
#
#
# Convention : Reuss Voigt Hill
#
# Bulk Modulus (GPa) = 70.32719 72.82444 71.57581
# Shear Modulus (GPa) = 35.70429 42.15316 38.92872
#
# Velocity S-wave (km/s) = 4.10399 4.45924 4.28529
# Velocity P-wave (km/s) = 7.45870 7.80169 7.63212
#
# Compressibility (1/GPa) = 0.01421925
#
# Stress axis : x y z
#
# Youngs Moduli (GPa) = 89.59982 121.30139 109.09855
#
# Poissons Ratio (x) = 0.32289 0.21592
# Poissons Ratio (y) = 0.23851 0.27653
# Poissons Ratio (z) = 0.17733 0.30746
#
# Static dielectric constant tensor:
#      x y z
#    x 1.782140 0.000000 0.000000 
#    y 0.000000 1.789040 0.000000 
#    z 0.000000 0.000000 1.824200 
# 
# From -- ./inp_files/21285.got.cif
#   From: 2010.05.17/outbox.cif.g08.bks.cpg/sg72_11_cif.got.tgz:21285.got - 2010.06.03 17:03:01.
