data_PCOD9528012
_publ_section_title
;
Structure prediction by ZEFSAII (Michael W. Deem and Ramdas Pophale) SiO2 
 PCOD9528012
Probable space group: I B A M
;
_chemical_formula_sum "Si O2"
_cell_formula_units_Z 112
_cell_length_a 15.175884
_cell_length_b 22.961687
_cell_length_c 14.176746
_cell_angle_alpha 90.000000
_cell_angle_beta 90.000000
_cell_angle_gamma 90.000000
_cell_volume 4940.084177
_symmetry_space_group_name_H-M "I B A M"
_symmetry_group_IT_number 72
_symmetry_cell_setting 'orthorhombic'
loop_
_space_group_symop_operation_xyz
x,y,z
-x,-y,z
x,-y,1/2-z
-x,y,1/2-z
-x,-y,-z
x,y,-z
-x,y,1/2+z
x,-y,1/2+z
1/2+x,1/2+y,1/2+z
1/2-x,1/2-y,1/2+z
1/2+x,1/2-y,-z
1/2-x,1/2+y,-z
1/2-x,1/2-y,1/2-z
1/2+x,1/2+y,1/2-z
1/2-x,1/2+y,z
1/2+x,1/2-y,z
loop_
_atom_site_type_symbol
_atom_site_label
_atom_site_fract_x
_atom_site_fract_y
_atom_site_fract_z
Si Si1 0.054676 0.445977 0.606612
Si Si2 0.856181 0.133961 0.748132
Si Si3 0.250399 0.535002 0.845624
Si Si4 0.779547 0.770867 0.388992
Si Si5 0.071580 0.317244 0.385793
Si Si6 0.583873 0.458946 0.604182
Si Si7 0.580907 0.274108 0.890308
O O1 0.018584 0.439093 0.500000
O O2 0.157924 0.461151 0.602720
O O3 0.053204 0.381791 0.652244
O O4 0.000000 0.500000 0.647731
O O5 0.788279 0.097886 0.683036
O O6 0.807287 0.176720 0.821379
O O7 0.905560 0.086882 0.812525
O O8 0.917048 0.171427 0.679071
O O9 0.231366 0.500000 0.750000
O O10 0.328974 0.499316 0.893902
O O11 0.799120 0.783560 0.500000
O O12 0.838113 0.715034 0.358861
O O13 0.677119 0.755229 0.382525
O O14 0.076345 0.323001 0.500000
O O15 0.993227 0.272550 0.364640
O O16 0.500000 0.500000 0.619121
O O17 0.576147 0.431603 0.500000
O O18 0.567790 0.291178 0.000000
#
# Coordination Sequence:
#
# PCOD9528012 Si02
#       7
#    16  16  16  16  16  16  16
#     4  10  21  40  66  90 118 164 215 260 312 374
#     4  11  23  40  64  93 124 165 215 259 314 385
#     4  10  23  39  59  91 130 164 205 261 318 381
#     4  10  21  39  62  90 127 165 205 259 318 378
#     4   9  20  38  59  89 123 155 202 258 308 367
#     4  10  23  43  66  94 129 167 211 268 326 382
#     4  10  22  39  61  91 127 166 206 256 320 383
#
# _framework density 22.671679000000001
#
# number of rings (size 3 to 8) (size 9 to 14) (size 15 to 20)
#    0.000    2.000    0.000    2.143    0.000   10.286 
#    0.000    8.571    0.000    0.429    0.000    0.000 
#    0.000    0.000    0.000    0.000    0.000    0.000 
#
# Total GULP energy -313344.838370 kJ/mol
# GULP energy per Si atom -5595.443542 kJ/mol
# Density = 2.262008 g / cm^3
# Si number density = 22.671679 Si / 1000 Ang^3
#
#
#
# Elastic Constant Matrix: (Units=GPa)
#
#
# Indices 1 2 3 4 5 6 
#
# 1 92.2972 13.1560 15.1837 0.0000 0.0000 0.0000
# 2 13.1560 66.3321 11.9706 0.0001 0.0000 0.0000
# 3 15.1837 11.9706 92.8859 0.0001 0.0000 0.0000
# 4 0.0000 0.0001 0.0001 17.2788 0.0000 0.0000
# 5 0.0000 0.0000 0.0000 0.0000 17.6010 0.0000
# 6 0.0000 0.0000 0.0000 0.0000 0.0000 26.1193
#
#
#
# Elastic Compliance Matrix: (Units=1/GPa)
#
#
# Indices 1 2 3 4 5 6 
#
# 1 0.011379 -0.001967 -0.001607 0.000000 0.000000 0.000000
# 2 -0.001967 0.015775 -0.001711 0.000000 0.000000 0.000000
# 3 -0.001607 -0.001711 0.011249 0.000000 0.000000 0.000000
# 4 0.000000 0.000000 0.000000 0.057874 0.000000 0.000000
# 5 0.000000 0.000000 0.000000 0.000000 0.056815 0.000000
# 6 0.000000 0.000000 0.000000 0.000000 0.000000 0.038286
#
#
# Mechanical properties :
#
#
# Convention : Reuss Voigt Hill
#
# Bulk Modulus (GPa) = 35.92866 36.90399 36.41632
# Shear Modulus (GPa) = 23.67137 26.28016 24.97577
#
# Velocity S-wave (km/s) = 3.23475 3.40834 3.32268
# Velocity P-wave (km/s) = 5.46198 5.63932 5.55136
#
# Compressibility (1/GPa) = 0.02783293
#
# Stress axis : x y z
#
# Youngs Moduli (GPa) = 87.87937 63.39290 88.89616
#
# Poissons Ratio (x) = 0.12469 0.14282
# Poissons Ratio (y) = 0.17286 0.15214
# Poissons Ratio (z) = 0.14119 0.10849
#
# Static dielectric constant tensor:
#      x y z
#    x 1.807480 0.000000 0.000000 
#    y 0.000000 1.825880 0.000000 
#    z 0.000000 0.000000 1.903010 
# 
# From -- ./inp_files/22159.got.cif
#   From: 2010.05.17/outbox.cif.g08.bks.cpg/sg72_12_cif.got.tgz:22159.got - 2010.06.03 17:03:01.
