data_PCOD9528808
_publ_section_title
;
Structure prediction by ZEFSAII (Michael W. Deem and Ramdas Pophale) SiO2 
 PCOD9528808
Probable space group: I B A M
;
_chemical_formula_sum "Si O2"
_cell_formula_units_Z 80
_cell_length_a 8.688529
_cell_length_b 24.967516
_cell_length_c 15.845098
_cell_angle_alpha 90.000000
_cell_angle_beta 90.000000
_cell_angle_gamma 90.000000
_cell_volume 3437.292745
_symmetry_space_group_name_H-M "I B A M"
_symmetry_group_IT_number 72
_symmetry_cell_setting 'orthorhombic'
loop_
_space_group_symop_operation_xyz
x,y,z
-x,-y,z
x,-y,1/2-z
-x,y,1/2-z
-x,-y,-z
x,y,-z
-x,y,1/2+z
x,-y,1/2+z
1/2+x,1/2+y,1/2+z
1/2-x,1/2-y,1/2+z
1/2+x,1/2-y,-z
1/2-x,1/2+y,-z
1/2-x,1/2-y,1/2-z
1/2+x,1/2+y,1/2-z
1/2-x,1/2+y,z
1/2+x,1/2-y,z
loop_
_atom_site_type_symbol
_atom_site_label
_atom_site_fract_x
_atom_site_fract_y
_atom_site_fract_z
Si Si1 0.887647 0.680989 0.903555
Si Si2 0.342366 0.381119 0.398071
Si Si3 0.180020 0.089293 0.400941
Si Si4 0.330100 0.985600 0.348699
Si Si5 0.799764 0.728669 0.341262
O O1 0.819726 0.625765 0.865854
O O2 0.744548 0.722057 0.901781
O O3 0.026005 0.708615 0.852975
O O4 0.942874 0.672885 0.000000
O O5 0.339341 0.382259 0.500000
O O6 0.512962 0.396223 0.366646
O O7 0.221759 0.425379 0.365755
O O8 0.300070 0.322714 0.366084
O O9 0.178270 0.102848 0.500000
O O10 0.212841 0.026973 0.390985
O O11 0.500000 0.000000 0.381398
O O12 0.327135 0.000000 0.250000
O O13 0.750000 0.750000 0.250000
#
# Coordination Sequence:
#
# PCOD9528808 Si02
#       5
#    16  16  16  16  16
#     4  11  23  43  69  97 137 183 233 284 349 428
#     4  11  24  45  72 101 140 187 238 289 354 431
#     4  10  23  43  71 103 136 179 234 288 346 425
#     4  11  25  43  67 101 145 184 230 287 352 421
#     4  12  26  43  67 100 138 180 234 295 352 412
#
# _framework density 23.274128999999999
#
# number of rings (size 3 to 8) (size 9 to 14) (size 15 to 20)
#    0.000    1.000    0.000    6.000    2.800    8.000 
#    0.000    0.000    0.000    0.000    0.000    0.000 
#    0.000    0.000    0.000    0.000    0.000    0.000 
#
# Total GULP energy -223959.182132 kJ/mol
# GULP energy per Si atom -5598.979553 kJ/mol
# Density = 2.322116 g / cm^3
# Si number density = 23.274129 Si / 1000 Ang^3
#
#
#
# Elastic Constant Matrix: (Units=GPa)
#
#
# Indices 1 2 3 4 5 6 
#
# 1 71.8373 -21.5518 9.9119 0.0000 0.0000 0.0000
# 2 -21.5518 83.9371 5.2994 0.0000 0.0000 0.0000
# 3 9.9119 5.2994 82.0530 -0.0001 0.0000 0.0000
# 4 0.0000 0.0000 -0.0001 36.9172 0.0000 0.0000
# 5 0.0000 0.0000 0.0000 0.0000 22.2282 0.0000
# 6 0.0000 0.0000 0.0000 0.0000 0.0000 49.6145
#
#
#
# Elastic Compliance Matrix: (Units=1/GPa)
#
#
# Indices 1 2 3 4 5 6 
#
# 1 0.015444 0.004100 -0.002130 0.000000 0.000000 0.000000
# 2 0.004100 0.013051 -0.001338 0.000000 0.000000 0.000000
# 3 -0.002130 -0.001338 0.012531 0.000000 0.000000 0.000000
# 4 0.000000 0.000000 0.000000 0.027088 0.000000 0.000000
# 5 0.000000 0.000000 0.000000 0.000000 0.044988 0.000000
# 6 0.000000 0.000000 0.000000 0.000000 0.000000 0.020155
#
#
# Mechanical properties :
#
#
# Convention : Reuss Voigt Hill
#
# Bulk Modulus (GPa) = 23.64679 25.01627 24.33153
# Shear Modulus (GPa) = 34.22529 38.02985 36.12757
#
# Velocity S-wave (km/s) = 3.83891 4.04666 3.94415
# Velocity P-wave (km/s) = 5.46185 5.71015 5.58738
#
# Compressibility (1/GPa) = 0.04228904
#
# Stress axis : x y z
#
# Youngs Moduli (GPa) = 64.74867 76.62309 79.80193
#
# Poissons Ratio (x) = -0.31416 0.17001
# Poissons Ratio (y) = -0.26547 0.10679
# Poissons Ratio (z) = 0.13794 0.10254
#
# Static dielectric constant tensor:
#      x y z
#    x 1.901950 0.000000 0.000000 
#    y 0.000000 1.813600 0.000000 
#    z 0.000000 0.000000 1.804870 
# 
# From -- ./inp_files/28088.got.cif
#   From: 2010.05.17/outbox.cif.g08.bks.cpg/sg72_15_cif.got.tgz:28088.got - 2010.06.03 17:03:01.
