data_PCOD9528792
_publ_section_title
;
Structure prediction by ZEFSAII (Michael W. Deem and Ramdas Pophale) SiO2 
 PCOD9528792
Probable space group: I B A M
;
_chemical_formula_sum "Si O2"
_cell_formula_units_Z 64
_cell_length_a 12.497410
_cell_length_b 9.439469
_cell_length_c 24.588625
_cell_angle_alpha 90.000000
_cell_angle_beta 90.000000
_cell_angle_gamma 90.000000
_cell_volume 2900.693395
_symmetry_space_group_name_H-M "I B A M"
_symmetry_group_IT_number 72
_symmetry_cell_setting 'orthorhombic'
loop_
_space_group_symop_operation_xyz
x,y,z
-x,-y,z
x,-y,1/2-z
-x,y,1/2-z
-x,-y,-z
x,y,-z
-x,y,1/2+z
x,-y,1/2+z
1/2+x,1/2+y,1/2+z
1/2-x,1/2-y,1/2+z
1/2+x,1/2-y,-z
1/2-x,1/2+y,-z
1/2-x,1/2-y,1/2-z
1/2+x,1/2+y,1/2-z
1/2-x,1/2+y,z
1/2+x,1/2-y,z
loop_
_atom_site_type_symbol
_atom_site_label
_atom_site_fract_x
_atom_site_fract_y
_atom_site_fract_z
Si Si1 0.113094 0.921942 0.802771
Si Si2 0.604560 0.753852 0.441019
Si Si3 0.553543 0.146184 0.653567
Si Si4 0.250363 0.494839 0.594453
O O1 0.086784 0.755759 0.799735
O O2 0.159871 0.000000 0.750000
O O3 0.188887 0.940460 0.853909
O O4 0.000000 0.000000 0.812177
O O5 0.549096 0.763609 0.500000
O O6 0.527456 0.778883 0.389384
O O7 0.665495 0.604870 0.435998
O O8 0.692402 0.879354 0.437505
O O9 0.656658 0.103292 0.618535
O O10 0.500000 0.000000 0.672690
#
# Coordination Sequence:
#
# PCOD9528792 Si02
#       4
#    16  16  16  16
#     4  11  23  43  69  96 131 178 220 283 335 389
#     4  11  23  40  67  99 135 178 223 277 337 396
#     4  10  23  43  66  95 137 173 220 279 327 399
#     4  11  22  42  66  96 137 173 228 275 328 404
#
# _framework density 22.063690000000001
#
# number of rings (size 3 to 8) (size 9 to 14) (size 15 to 20)
#    0.000    1.250    5.000    0.750    0.000    6.500 
#    0.000    3.750    0.000    0.000    0.000    0.000 
#    0.000    0.000    0.000    0.000    0.000    0.000 
#
# Total GULP energy -178866.537910 kJ/mol
# GULP energy per Si atom -5589.579310 kJ/mol
# Density = 2.201347 g / cm^3
# Si number density = 22.063690 Si / 1000 Ang^3
#
#
#
# Elastic Constant Matrix: (Units=GPa)
#
#
# Indices 1 2 3 4 5 6 
#
# 1 39.8301 -4.7141 -4.1343 0.0000 0.0000 0.0000
# 2 -4.7141 112.0164 47.8657 0.0000 0.0000 0.0000
# 3 -4.1343 47.8657 82.0343 0.0000 0.0000 0.0000
# 4 0.0000 0.0000 0.0000 39.1536 0.0000 0.0000
# 5 0.0000 0.0000 0.0000 0.0000 16.0350 0.0000
# 6 0.0000 0.0000 0.0000 0.0000 0.0000 16.0572
#
#
#
# Elastic Compliance Matrix: (Units=1/GPa)
#
#
# Indices 1 2 3 4 5 6 
#
# 1 0.025279 0.000692 0.000870 0.000000 0.000000 0.000000
# 2 0.000692 0.011911 -0.006915 0.000000 0.000000 0.000000
# 3 0.000870 -0.006915 0.016269 0.000000 0.000000 0.000000
# 4 0.000000 0.000000 0.000000 0.025540 0.000000 0.000000
# 5 0.000000 0.000000 0.000000 0.000000 0.062364 0.000000
# 6 0.000000 0.000000 0.000000 0.000000 0.000000 0.062277
#
#
# Mechanical properties :
#
#
# Convention : Reuss Voigt Hill
#
# Bulk Modulus (GPa) = 23.39017 34.65727 29.02372
# Shear Modulus (GPa) = 21.87252 27.24005 24.55629
#
# Velocity S-wave (km/s) = 3.15196 3.51751 3.33974
# Velocity P-wave (km/s) = 4.88577 5.67795 5.29669
#
# Compressibility (1/GPa) = 0.04275300
#
# Stress axis : x y z
#
# Youngs Moduli (GPa) = 39.55871 83.95384 61.46743
#
# Poissons Ratio (x) = -0.05810 -0.05349
# Poissons Ratio (y) = -0.02737 0.42506
# Poissons Ratio (z) = -0.03442 0.58056
#
# Static dielectric constant tensor:
#      x y z
#    x 1.786650 0.000000 0.000000 
#    y 0.000000 1.866300 0.000000 
#    z 0.000000 0.000000 1.863960 
# 
# From -- ./inp_files/41891.got.cif
#   From: 2010.05.17/outbox.cif.g08.bks.cpg/sg72_21_cif.got.tgz:41891.got - 2010.06.03 17:03:01.
