data_PCOD9528629
_publ_section_title
;
Structure prediction by ZEFSAII (Michael W. Deem and Ramdas Pophale) SiO2 
 PCOD9528629
Probable space group: I B A M
;
_chemical_formula_sum "Si O2"
_cell_formula_units_Z 96
_cell_length_a 13.540571
_cell_length_b 15.264918
_cell_length_c 20.952117
_cell_angle_alpha 90.000000
_cell_angle_beta 90.000000
_cell_angle_gamma 90.000000
_cell_volume 4330.712615
_symmetry_space_group_name_H-M "I B A M"
_symmetry_group_IT_number 72
_symmetry_cell_setting 'orthorhombic'
loop_
_space_group_symop_operation_xyz
x,y,z
-x,-y,z
x,-y,1/2-z
-x,y,1/2-z
-x,-y,-z
x,y,-z
-x,y,1/2+z
x,-y,1/2+z
1/2+x,1/2+y,1/2+z
1/2-x,1/2-y,1/2+z
1/2+x,1/2-y,-z
1/2-x,1/2+y,-z
1/2-x,1/2-y,1/2-z
1/2+x,1/2+y,1/2-z
1/2-x,1/2+y,z
1/2+x,1/2-y,z
loop_
_atom_site_type_symbol
_atom_site_label
_atom_site_fract_x
_atom_site_fract_y
_atom_site_fract_z
Si Si1 0.123146 0.604628 0.500000
Si Si2 0.856109 0.075669 0.000000
Si Si3 0.000000 0.500000 0.896966
Si Si4 0.262770 0.592974 0.766712
Si Si5 0.394586 0.429257 0.392451
Si Si6 0.429764 0.158466 0.811000
Si Si7 0.054929 0.196263 0.000000
Si Si8 0.060667 0.151694 0.315909
O O1 0.243041 0.610663 0.500000
O O2 0.082106 0.548939 0.560066
O O3 0.069176 0.699454 0.500000
O O4 0.871141 0.009824 0.939782
O O5 0.944264 0.149524 0.000000
O O6 0.051495 0.575438 0.855198
O O7 0.214052 0.500000 0.750000
O O8 0.323328 0.577697 0.831753
O O9 0.179292 0.661732 0.781881
O O10 0.333332 0.619779 0.708293
O O11 0.389579 0.344647 0.438697
O O12 0.501847 0.414401 0.359864
O O13 0.500000 0.151329 0.750000
O O14 0.443096 0.251609 0.845512
O O15 0.000000 0.157591 0.250000
#
# Coordination Sequence:
#
# PCOD9528629 Si02
#       8
#     8   8   8  16  16  16   8  16
#     4  11  26  50  68 108 131 186 241 284 378 417
#     4  11  25  44  76  99 137 180 231 299 355 440
#     4  11  23  44  74  88 149 181 232 294 336 435
#     4  11  23  36  64 100 137 184 228 282 341 424
#     4  10  22  44  67 102 135 176 231 288 361 407
#     4  11  22  42  64  98 139 188 231 278 343 411
#     4  11  25  46  70  95 142 172 229 306 346 429
#     4   9  21  38  64  97 140 175 226 286 340 412
#
# _framework density 22.167252999999999
#
# number of rings (size 3 to 8) (size 9 to 14) (size 15 to 20)
#    0.000    1.500    0.000    4.750    4.667    2.333 
#   12.000    0.000    0.000    0.000    0.000    0.000 
#    0.000    0.000    0.000    0.000    0.000    0.000 
#
# Total GULP energy -268069.674787 kJ/mol
# GULP energy per Si atom -5584.784891 kJ/mol
# Density = 2.211680 g / cm^3
# Si number density = 22.167253 Si / 1000 Ang^3
#
#
#
# Elastic Constant Matrix: (Units=GPa)
#
#
# Indices 1 2 3 4 5 6 
#
# 1 114.6284 43.3032 34.1381 0.0000 0.0000 0.0000
# 2 43.3032 175.9295 44.5647 0.0000 0.0000 0.0000
# 3 34.1381 44.5647 103.6063 0.0000 0.0000 0.0000
# 4 0.0000 0.0000 0.0000 28.3881 0.0000 0.0000
# 5 0.0000 0.0000 0.0000 0.0000 20.7581 0.0000
# 6 0.0000 0.0000 0.0000 0.0000 0.0000 2.4207
#
#
#
# Elastic Compliance Matrix: (Units=1/GPa)
#
#
# Indices 1 2 3 4 5 6 
#
# 1 0.010188 -0.001860 -0.002557 0.000000 0.000000 0.000000
# 2 -0.001860 0.006719 -0.002277 0.000000 0.000000 0.000000
# 3 -0.002557 -0.002277 0.011474 0.000000 0.000000 0.000000
# 4 0.000000 0.000000 0.000000 0.035226 0.000000 0.000000
# 5 0.000000 0.000000 0.000000 0.000000 0.048174 0.000000
# 6 0.000000 0.000000 0.000000 0.000000 0.000000 0.413099
#
#
# Mechanical properties :
#
#
# Convention : Reuss Voigt Hill
#
# Bulk Modulus (GPa) = 66.69936 70.90849 68.80392
# Shear Modulus (GPa) = 9.20362 28.45725 18.83043
#
# Velocity S-wave (km/s) = 2.03983 3.58684 2.91773
# Velocity P-wave (km/s) = 5.97514 7.01507 6.51589
#
# Compressibility (1/GPa) = 0.01499265
#
# Stress axis : x y z
#
# Youngs Moduli (GPa) = 98.15506 148.83782 87.15455
#
# Poissons Ratio (x) = 0.27684 0.22284
# Poissons Ratio (y) = 0.18257 0.19846
# Poissons Ratio (z) = 0.25097 0.33892
#
# Static dielectric constant tensor:
#      x y z
#    x 1.841320 0.000000 0.000000 
#    y 0.000000 1.820990 0.000000 
#    z 0.000000 0.000000 1.779460 
# 
# From -- ./inp_files/38117.got.cif
#   From: 2010.05.17/outbox.cif.g08.bks.cpg/sg72_20_cif.got.tgz:38117.got - 2010.06.03 17:03:01.
