data_PCOD9528159
_publ_section_title
;
Structure prediction by ZEFSAII (Michael W. Deem and Ramdas Pophale) SiO2 
 PCOD9528159
Probable space group: I B A M
;
_chemical_formula_sum "Si O2"
_cell_formula_units_Z 112
_cell_length_a 13.414543
_cell_length_b 13.996337
_cell_length_c 26.164816
_cell_angle_alpha 90.000000
_cell_angle_beta 90.000000
_cell_angle_gamma 90.000000
_cell_volume 4912.561018
_symmetry_space_group_name_H-M "I B A M"
_symmetry_group_IT_number 72
_symmetry_cell_setting 'orthorhombic'
loop_
_space_group_symop_operation_xyz
x,y,z
-x,-y,z
x,-y,1/2-z
-x,y,1/2-z
-x,-y,-z
x,y,-z
-x,y,1/2+z
x,-y,1/2+z
1/2+x,1/2+y,1/2+z
1/2-x,1/2-y,1/2+z
1/2+x,1/2-y,-z
1/2-x,1/2+y,-z
1/2-x,1/2-y,1/2-z
1/2+x,1/2+y,1/2-z
1/2-x,1/2+y,z
1/2+x,1/2-y,z
loop_
_atom_site_type_symbol
_atom_site_label
_atom_site_fract_x
_atom_site_fract_y
_atom_site_fract_z
Si Si1 0.776911 0.963961 0.192248
Si Si2 0.253708 0.326487 0.557913
Si Si3 0.901060 0.438899 0.120771
Si Si4 0.416526 0.621899 0.337113
Si Si5 0.483633 0.612359 0.944372
Si Si6 0.984798 0.704300 0.193567
Si Si7 0.771422 0.258329 0.663494
O O1 0.776396 0.848949 0.186073
O O2 0.664801 0.898637 0.073814
O O3 0.763956 0.000000 0.250000
O O4 0.879514 0.013498 0.171342
O O5 0.241324 0.293297 0.500000
O O6 0.365254 0.370781 0.562598
O O7 0.255948 0.248835 0.602545
O O8 0.943008 0.349701 0.154126
O O9 0.817663 0.490036 0.156209
O O10 0.000000 0.500000 0.108325
O O11 0.451308 0.641164 0.395429
O O12 0.499226 0.680958 0.306692
O O13 0.319987 0.679944 0.317673
O O14 0.500000 0.500000 0.947578
O O15 0.511389 0.655686 0.000000
O O16 0.000000 0.665099 0.250000
O O17 0.873183 0.691221 0.176264
#
# Coordination Sequence:
#
# PCOD9528159 Si02
#       7
#    16  16  16  16  16  16  16
#     4  11  25  42  67  95 132 181 230 283 341 406
#     4  10  21  42  68  94 132 172 218 284 341 406
#     4  11  25  43  65 102 137 181 233 282 344 425
#     4  12  24  42  67  95 138 175 223 293 337 408
#     4  10  21  40  70  99 126 172 226 280 347 408
#     4  12  26  41  67  96 137 187 228 283 347 406
#     4  11  24  45  62 103 135 171 237 279 342 421
#
# _framework density 22.798698999999999
#
# number of rings (size 3 to 8) (size 9 to 14) (size 15 to 20)
#    0.000    1.000    4.286    3.429    4.000    2.000 
#    0.000    2.143    0.000    5.143    0.000    0.000 
#    0.000    0.000    0.000    0.000    0.000    0.000 
#
# Total GULP energy -312695.015229 kJ/mol
# GULP energy per Si atom -5583.839558 kJ/mol
# Density = 2.274681 g / cm^3
# Si number density = 22.798699 Si / 1000 Ang^3
#
#
#
# Elastic Constant Matrix: (Units=GPa)
#
#
# Indices 1 2 3 4 5 6 
#
# 1 120.8513 8.8271 16.3139 0.0000 0.0000 0.0000
# 2 8.8271 73.9052 7.5081 0.0000 0.0000 0.0000
# 3 16.3139 7.5081 130.5173 0.0000 0.0000 0.0000
# 4 0.0000 0.0000 0.0000 -12.7646 0.0000 0.0000
# 5 0.0000 0.0000 0.0000 0.0000 -235.7005 0.0000
# 6 0.0000 0.0000 0.0000 0.0000 0.0000 17.2761
#
#
#
# Elastic Compliance Matrix: (Units=1/GPa)
#
#
# Indices 1 2 3 4 5 6 
#
# 1 0.008477 -0.000910 -0.001007 0.000000 0.000000 0.000000
# 2 -0.000910 0.013708 -0.000675 0.000000 0.000000 0.000000
# 3 -0.001007 -0.000675 0.007827 0.000000 0.000000 0.000000
# 4 0.000000 0.000000 0.000000 -0.078342 0.000000 0.000000
# 5 0.000000 0.000000 0.000000 0.000000 -0.004243 0.000000
# 6 0.000000 0.000000 0.000000 0.000000 0.000000 0.057883
#
#
# Mechanical properties :
#
#
# Convention : Reuss Voigt Hill
#
# Bulk Modulus (GPa) = 40.27818 43.39689 41.83754
# Shear Modulus (GPa) = 266.36620 -26.72949 119.81835
#
# Velocity S-wave (km/s) = 10.82070 -3.42777 7.25734
# Velocity P-wave (km/s) = 13.18416 1.84662 9.41361
#
# Compressibility (1/GPa) = 0.02482734
#
# Stress axis : x y z
#
# Youngs Moduli (GPa) = 117.96522 72.94949 127.77048
#
# Poissons Ratio (x) = 0.06640 0.12869
# Poissons Ratio (y) = 0.10737 0.08622
# Poissons Ratio (z) = 0.11882 0.04923
#
# Static dielectric constant tensor:
#      x y z
#    x 1.871970 0.000000 0.000000 
#    y 0.000000 1.904820 0.000000 
#    z 0.000000 0.000000 1.844910 
# 
# From -- ./inp_files/44326.got.cif
#   From: 2010.05.17/outbox.cif.g08.bks.cpg/sg72_23_cif.got.tgz:44326.got - 2010.06.03 17:03:01.
