data_PCOD9528965
_publ_section_title
;
Structure prediction by ZEFSAII (Michael W. Deem and Ramdas Pophale) SiO2 
 PCOD9528965
Probable space group: I B A M
;
_chemical_formula_sum "Si O2"
_cell_formula_units_Z 68
_cell_length_a 19.202758
_cell_length_b 15.509747
_cell_length_c 9.805629
_cell_angle_alpha 90.000000
_cell_angle_beta 90.000000
_cell_angle_gamma 90.000000
_cell_volume 2920.409684
_symmetry_space_group_name_H-M "I B A M"
_symmetry_group_IT_number 72
_symmetry_cell_setting 'orthorhombic'
loop_
_space_group_symop_operation_xyz
x,y,z
-x,-y,z
x,-y,1/2-z
-x,y,1/2-z
-x,-y,-z
x,y,-z
-x,y,1/2+z
x,-y,1/2+z
1/2+x,1/2+y,1/2+z
1/2-x,1/2-y,1/2+z
1/2+x,1/2-y,-z
1/2-x,1/2+y,-z
1/2-x,1/2-y,1/2-z
1/2+x,1/2+y,1/2-z
1/2-x,1/2+y,z
1/2+x,1/2-y,z
loop_
_atom_site_type_symbol
_atom_site_label
_atom_site_fract_x
_atom_site_fract_y
_atom_site_fract_z
Si Si1 0.406722 0.996032 0.500000
Si Si2 0.750337 0.060057 0.500000
Si Si3 0.383420 0.319590 0.204797
Si Si4 0.266999 0.732589 0.500000
Si Si5 0.000000 0.500000 0.250000
Si Si6 0.153722 0.000000 0.750000
Si Si7 0.462851 0.200378 0.000000
Si Si8 0.117017 0.743590 0.500000
O O1 0.323453 0.990229 0.500000
O O2 0.443115 0.033469 0.637469
O O3 0.428318 0.893476 0.500000
O O4 0.737040 0.163345 0.500000
O O5 0.795767 0.035058 0.631539
O O6 0.310422 0.297560 0.131045
O O7 0.392248 0.421692 0.191727
O O8 0.437274 0.257307 0.128188
O O9 0.382293 0.298380 0.362815
O O10 0.189913 0.693855 0.500000
O O11 0.545032 0.194634 0.000000
#
# Coordination Sequence:
#
# PCOD9528965 Si02
#       8
#     8   8  16   8   4   8   8   8
#     4  11  24  47  68  99 145 181 231 280 348 413
#     4  12  23  43  70 102 131 180 226 290 337 418
#     4  11  24  47  67 102 137 180 231 288 342 418
#     4  11  23  43  71  98 137 170 233 281 338 414
#     4  10  26  46  64 102 146 188 220 288 348 424
#     4  12  25  44  71 101 141 174 226 294 358 393
#     4  11  26  44  73  98 141 184 242 276 337 414
#     4  12  24  41  70 103 131 180 232 283 335 404
#
# _framework density 23.284403999999999
#
# number of rings (size 3 to 8) (size 9 to 14) (size 15 to 20)
#    0.000    0.706    4.706    3.529    3.294    0.000 
#    8.471    3.529    0.000    0.000    0.000    0.000 
#    0.000    0.000    0.000    0.000    0.000    0.000 
#
# Total GULP energy -190017.822106 kJ/mol
# GULP energy per Si atom -5588.759474 kJ/mol
# Density = 2.323141 g / cm^3
# Si number density = 23.284404 Si / 1000 Ang^3
#
#
#
# Elastic Constant Matrix: (Units=GPa)
#
#
# Indices 1 2 3 4 5 6 
#
# 1 120.1246 17.3385 18.3543 0.0000 0.0000 0.0000
# 2 17.3385 156.9255 43.2269 0.0000 0.0000 0.0000
# 3 18.3543 43.2269 170.3368 0.0000 0.0000 0.0000
# 4 0.0000 0.0000 0.0000 29.6676 0.0000 0.0000
# 5 0.0000 0.0000 0.0000 0.0000 73.2320 0.0000
# 6 0.0000 0.0000 0.0000 0.0000 0.0000 15.0773
#
#
#
# Elastic Compliance Matrix: (Units=1/GPa)
#
#
# Indices 1 2 3 4 5 6 
#
# 1 0.008544 -0.000742 -0.000732 0.000000 0.000000 0.000000
# 2 -0.000742 0.006916 -0.001675 0.000000 0.000000 0.000000
# 3 -0.000732 -0.001675 0.006375 0.000000 0.000000 0.000000
# 4 0.000000 0.000000 0.000000 0.033707 0.000000 0.000000
# 5 0.000000 0.000000 0.000000 0.000000 0.013655 0.000000
# 6 0.000000 0.000000 0.000000 0.000000 0.000000 0.066325
#
#
# Mechanical properties :
#
#
# Convention : Reuss Voigt Hill
#
# Bulk Modulus (GPa) = 64.37035 67.24738 65.80886
# Shear Modulus (GPa) = 34.01387 48.15986 41.08686
#
# Velocity S-wave (km/s) = 3.82619 4.55282 4.20523
# Velocity P-wave (km/s) = 6.87204 7.52205 7.20438
#
# Compressibility (1/GPa) = 0.01553510
#
# Stress axis : x y z
#
# Youngs Moduli (GPa) = 117.04513 144.59465 156.86984
#
# Poissons Ratio (x) = 0.10733 0.11487
# Poissons Ratio (y) = 0.08688 0.26277
# Poissons Ratio (z) = 0.08571 0.24221
#
# Static dielectric constant tensor:
#      x y z
#    x 1.889820 0.000000 0.000000 
#    y 0.000000 1.930440 0.000000 
#    z 0.000000 0.000000 1.838540 
# 
# From -- ./inp_files/5529.got.cif
#   From: 2010.05.17/outbox.cif.g08.bks.cpg/sg72_3_cif.got.tgz:5529.got - 2010.06.03 17:03:01.
