data_PCOD9528739
_publ_section_title
;
Structure prediction by ZEFSAII (Michael W. Deem and Ramdas Pophale) SiO2 
 PCOD9528739
Probable space group: I B A M
;
_chemical_formula_sum "Si O2"
_cell_formula_units_Z 96
_cell_length_a 20.769018
_cell_length_b 15.491443
_cell_length_c 15.352496
_cell_angle_alpha 90.000000
_cell_angle_beta 90.000000
_cell_angle_gamma 90.000000
_cell_volume 4939.543666
_symmetry_space_group_name_H-M "I B A M"
_symmetry_group_IT_number 72
_symmetry_cell_setting 'orthorhombic'
loop_
_space_group_symop_operation_xyz
x,y,z
-x,-y,z
x,-y,1/2-z
-x,y,1/2-z
-x,-y,-z
x,y,-z
-x,y,1/2+z
x,-y,1/2+z
1/2+x,1/2+y,1/2+z
1/2-x,1/2-y,1/2+z
1/2+x,1/2-y,-z
1/2-x,1/2+y,-z
1/2-x,1/2-y,1/2-z
1/2+x,1/2+y,1/2-z
1/2-x,1/2+y,z
1/2+x,1/2-y,z
loop_
_atom_site_type_symbol
_atom_site_label
_atom_site_fract_x
_atom_site_fract_y
_atom_site_fract_z
Si Si1 0.465273 0.579419 0.656054
Si Si2 0.453992 0.230658 0.831632
Si Si3 0.804077 0.269395 0.823135
Si Si4 0.610031 0.032963 0.000000
Si Si5 0.324931 0.415550 0.101595
Si Si6 0.203014 0.527556 0.151599
Si Si7 0.987202 0.623806 0.500000
O O1 0.500000 0.500000 0.609111
O O2 0.500000 0.584048 0.750000
O O3 0.470636 0.676920 0.624485
O O4 0.388957 0.565512 0.657195
O O5 0.500000 0.213865 0.750000
O O6 0.380115 0.230562 0.797827
O O7 0.464553 0.166511 0.910361
O O8 0.750000 0.250000 0.750000
O O9 0.801815 0.183843 0.884217
O O10 0.793435 0.367831 0.857108
O O11 0.653505 0.015509 0.915860
O O12 0.565121 0.117400 0.000000
O O13 0.555154 0.961748 0.000000
O O14 0.270668 0.482503 0.130057
O O15 0.340710 0.426406 0.000000
O O16 0.185456 0.500000 0.250000
#
# Coordination Sequence:
#
# PCOD9528739 Si02
#       7
#    16  16  16   8  16  16   8
#     4   9  21  39  65  90 127 169 218 269 330 399
#     4  10  23  41  66  95 131 174 220 275 339 397
#     4  11  24  42  69  96 131 177 225 269 343 404
#     4  11  26  44  63  99 134 175 224 277 333 405
#     4  11  25  41  66  99 132 177 221 279 342 402
#     4  12  25  43  69  97 137 177 227 280 339 405
#     4  11  24  42  68  95 133 177 223 271 337 404
#
# _framework density 19.434994
#
# number of rings (size 3 to 8) (size 9 to 14) (size 15 to 20)
#    0.000    1.333    4.167    0.000   10.500    1.667 
#    0.000    1.667    0.000    0.000    0.000    0.000 
#    0.000    0.000    0.000    0.000    0.000    0.000 
#
# Total GULP energy -267339.786931 kJ/mol
# GULP energy per Si atom -5569.578894 kJ/mol
# Density = 1.939076 g / cm^3
# Si number density = 19.434994 Si / 1000 Ang^3
#
#
#
# Elastic Constant Matrix: (Units=GPa)
#
#
# Indices 1 2 3 4 5 6 
#
# 1 145.6588 36.1108 63.5053 0.0000 0.0000 0.0000
# 2 36.1108 72.5678 5.3239 0.0000 0.0000 0.0000
# 3 63.5053 5.3239 97.9601 0.0000 0.0000 0.0000
# 4 0.0000 0.0000 0.0000 -17.2417 0.0000 0.0000
# 5 0.0000 0.0000 0.0000 0.0000 22.8674 0.0000
# 6 0.0000 0.0000 0.0000 0.0000 0.0000 33.5448
#
#
#
# Elastic Compliance Matrix: (Units=1/GPa)
#
#
# Indices 1 2 3 4 5 6 
#
# 1 0.011144 -0.005036 -0.006951 0.000000 0.000000 0.000000
# 2 -0.005036 0.016111 0.002389 0.000000 0.000000 0.000000
# 3 -0.006951 0.002389 0.014585 0.000000 0.000000 0.000000
# 4 0.000000 0.000000 0.000000 -0.057999 0.000000 0.000000
# 5 0.000000 0.000000 0.000000 0.000000 0.043730 0.000000
# 6 0.000000 0.000000 0.000000 0.000000 0.000000 0.029811
#
#
# Mechanical properties :
#
#
# Convention : Reuss Voigt Hill
#
# Bulk Modulus (GPa) = 44.16120 58.45185 51.30653
# Shear Modulus (GPa) = 59.43532 21.91721 40.67627
#
# Velocity S-wave (km/s) = 5.53606 3.36180 4.57983
# Velocity P-wave (km/s) = 7.97721 6.72382 7.37718
#
# Compressibility (1/GPa) = 0.02264431
#
# Stress axis : x y z
#
# Youngs Moduli (GPa) = 89.73240 62.07034 68.56588
#
# Poissons Ratio (x) = 0.31256 0.47659
# Poissons Ratio (y) = 0.45186 -0.16380
# Poissons Ratio (z) = 0.62372 -0.14828
#
# Static dielectric constant tensor:
#      x y z
#    x 1.716870 0.000000 0.000000 
#    y 0.000000 1.858220 0.000000 
#    z 0.000000 0.000000 1.731010 
# 
# From -- ./inp_files/24197.got.cif
#   From: 2010.05.17/outbox.cif.g08.bks.cpg/sg72_13_cif.got.tgz:24197.got - 2010.06.03 17:03:01.
