data_PCOD9528330
_publ_section_title
;
Structure prediction by ZEFSAII (Michael W. Deem and Ramdas Pophale) SiO2 
 PCOD9528330
Probable space group: I B A M
;
_chemical_formula_sum "Si O2"
_cell_formula_units_Z 116
_cell_length_a 12.129431
_cell_length_b 29.036282
_cell_length_c 14.804381
_cell_angle_alpha 90.000000
_cell_angle_beta 90.000000
_cell_angle_gamma 90.000000
_cell_volume 5214.007929
_symmetry_space_group_name_H-M "I B A M"
_symmetry_group_IT_number 72
_symmetry_cell_setting 'orthorhombic'
loop_
_space_group_symop_operation_xyz
x,y,z
-x,-y,z
x,-y,1/2-z
-x,y,1/2-z
-x,-y,-z
x,y,-z
-x,y,1/2+z
x,-y,1/2+z
1/2+x,1/2+y,1/2+z
1/2-x,1/2-y,1/2+z
1/2+x,1/2-y,-z
1/2-x,1/2+y,-z
1/2-x,1/2-y,1/2-z
1/2+x,1/2+y,1/2-z
1/2-x,1/2+y,z
1/2+x,1/2-y,z
loop_
_atom_site_type_symbol
_atom_site_label
_atom_site_fract_x
_atom_site_fract_y
_atom_site_fract_z
Si Si1 0.232921 0.273166 0.152172
Si Si2 0.568939 0.339633 0.608767
Si Si3 0.328517 0.325058 0.397517
Si Si4 0.736332 0.416318 0.607245
Si Si5 0.930234 0.356841 0.335656
Si Si6 0.842049 0.602820 0.393213
Si Si7 0.500000 0.500000 0.250000
Si Si8 0.321483 0.523149 0.892100
O O1 0.250000 0.250000 0.250000
O O2 0.346501 0.299214 0.132818
O O3 0.204031 0.227835 0.097042
O O4 0.137178 0.311260 0.134941
O O5 0.561563 0.338332 0.500000
O O6 0.446974 0.332424 0.647317
O O7 0.626814 0.387802 0.631881
O O8 0.339940 0.342325 0.500000
O O9 0.231026 0.354907 0.354681
O O10 0.761328 0.406293 0.500000
O O11 0.834736 0.395395 0.666808
O O12 0.716899 0.470270 0.615213
O O13 0.000000 0.340472 0.250000
O O14 0.030216 0.384592 0.382560
O O15 0.830102 0.600819 0.500000
O O16 0.779738 0.556296 0.364126
O O17 0.578818 0.472015 0.179735
O O18 0.351656 0.530917 0.000000
#
# Coordination Sequence:
#
# PCOD9528330 Si02
#       8
#    16  16  16  16  16  16   4  16
#     4  11  24  40  59  87 124 169 213 268 338 403
#     4   9  20  39  62  88 117 159 219 271 321 394
#     4  10  22  38  62  88 120 163 214 270 327 392
#     4   9  20  42  68  94 126 173 222 274 333 398
#     4  11  24  40  64  91 132 171 219 278 335 407
#     4  10  23  43  65  96 133 172 221 279 341 402
#     4  12  26  40  72 100 140 184 234 276 350 398
#     4  10  24  45  70 103 141 181 232 282 340 417
#
# _framework density 22.247761000000001
#
# number of rings (size 3 to 8) (size 9 to 14) (size 15 to 20)
#    0.000    1.931    0.000    1.862    7.724    2.207 
#    0.000    2.759    0.000    0.000    0.000    0.000 
#    0.000    0.000    0.000    0.000    0.000    0.000 
#
# Total GULP energy -323296.336286 kJ/mol
# GULP energy per Si atom -5574.074764 kJ/mol
# Density = 2.219712 g / cm^3
# Si number density = 22.247761 Si / 1000 Ang^3
#
#
#
# Elastic Constant Matrix: (Units=GPa)
#
#
# Indices 1 2 3 4 5 6 
#
# 1 134.0848 58.9301 39.9797 0.0001 0.0000 0.0000
# 2 58.9301 132.5430 15.9299 -0.0001 0.0001 0.0000
# 3 39.9797 15.9299 50.7121 0.0004 0.0001 0.0000
# 4 0.0001 -0.0001 0.0004 36.3032 0.0004 0.0000
# 5 0.0000 0.0001 0.0001 0.0004 23.1471 0.0000
# 6 0.0000 0.0000 0.0000 0.0000 0.0000 25.7913
#
#
#
# Elastic Compliance Matrix: (Units=1/GPa)
#
#
# Indices 1 2 3 4 5 6 
#
# 1 0.011668 -0.004242 -0.007866 0.000000 0.000000 0.000000
# 2 -0.004242 0.009383 0.000397 0.000000 0.000000 0.000000
# 3 -0.007866 0.000397 0.025796 0.000000 0.000000 0.000000
# 4 0.000000 0.000000 0.000000 0.027546 0.000000 0.000000
# 5 0.000000 0.000000 0.000000 0.000000 0.043202 0.000000
# 6 0.000000 0.000000 0.000000 0.000000 0.000000 0.038773
#
#
# Mechanical properties :
#
#
# Convention : Reuss Voigt Hill
#
# Bulk Modulus (GPa) = 42.69078 60.77992 51.73535
# Shear Modulus (GPa) = 26.65278 30.54831 28.60055
#
# Velocity S-wave (km/s) = 3.46497 3.70955 3.58934
# Velocity P-wave (km/s) = 5.93620 6.76214 6.36259
#
# Compressibility (1/GPa) = 0.02342426
#
# Stress axis : x y z
#
# Youngs Moduli (GPa) = 85.70610 106.57381 38.76623
#
# Poissons Ratio (x) = 0.45211 0.30493
# Poissons Ratio (y) = 0.36359 -0.01539
# Poissons Ratio (z) = 0.67415 -0.04231
#
# Static dielectric constant tensor:
#      x y z
#    x 1.861820 0.000000 0.000000 
#    y 0.000000 1.872090 0.000000 
#    z 0.000000 0.000000 2.025040 
# 
# From -- ./inp_files/29730.got.cif
#   From: 2010.05.17/outbox.cif.g08.bks.cpg/sg72_15_cif.got.tgz:29730.got - 2010.06.03 17:03:01.
