data_PCOD9528333
_publ_section_title
;
Structure prediction by ZEFSAII (Michael W. Deem and Ramdas Pophale) SiO2 
 PCOD9528333
Probable space group: I B A M
;
_chemical_formula_sum "Si O2"
_cell_formula_units_Z 96
_cell_length_a 9.900685
_cell_length_b 22.527341
_cell_length_c 19.201409
_cell_angle_alpha 90.000000
_cell_angle_beta 90.000000
_cell_angle_gamma 90.000000
_cell_volume 4282.607515
_symmetry_space_group_name_H-M "I B A M"
_symmetry_group_IT_number 72
_symmetry_cell_setting 'orthorhombic'
loop_
_space_group_symop_operation_xyz
x,y,z
-x,-y,z
x,-y,1/2-z
-x,y,1/2-z
-x,-y,-z
x,y,-z
-x,y,1/2+z
x,-y,1/2+z
1/2+x,1/2+y,1/2+z
1/2-x,1/2-y,1/2+z
1/2+x,1/2-y,-z
1/2-x,1/2+y,-z
1/2-x,1/2-y,1/2-z
1/2+x,1/2+y,1/2-z
1/2-x,1/2+y,z
1/2+x,1/2-y,z
loop_
_atom_site_type_symbol
_atom_site_label
_atom_site_fract_x
_atom_site_fract_y
_atom_site_fract_z
Si Si1 0.085269 0.240865 0.417564
Si Si2 0.851554 0.403796 0.745008
Si Si3 0.353661 0.000529 0.630570
Si Si4 0.817382 0.177497 0.582695
Si Si5 0.846748 0.802516 0.276764
Si Si6 0.591892 0.550258 0.578953
O O1 0.110250 0.229259 0.500000
O O2 0.165310 0.301850 0.398672
O O3 0.148680 0.196865 0.360756
O O4 0.924501 0.231386 0.406818
O O5 0.853903 0.452132 0.806628
O O6 0.836195 0.437948 0.671621
O O7 0.726964 0.360407 0.751028
O O8 0.000000 0.373891 0.750000
O O9 0.500000 0.000000 0.596751
O O10 0.236963 0.980911 0.579806
O O11 0.809331 0.167544 0.500000
O O12 0.883657 0.116138 0.609095
O O13 0.750000 0.750000 0.250000
O O14 0.000000 0.795705 0.250000
O O15 0.500000 0.500000 0.615619
O O16 0.538832 0.558419 0.500000
#
# Coordination Sequence:
#
# PCOD9528333 Si02
#       6
#    16  16  16  16  16  16
#     4  10  22  42  65  89 127 172 217 260 317 390
#     4   9  21  42  63  86 121 163 208 259 322 384
#     4   9  20  40  64  86 117 163 209 258 314 389
#     4   9  20  40  63  90 124 167 213 260 316 383
#     4  12  26  40  62  97 131 166 211 272 327 380
#     4  10  22  38  62  94 130 164 206 270 327 377
#
# _framework density 22.416250999999999
#
# number of rings (size 3 to 8) (size 9 to 14) (size 15 to 20)
#    0.000    2.167    0.000    2.500    7.000    0.333 
#    3.000    1.667    0.000    0.000    0.000    0.000 
#    0.000    0.000    0.000    0.000    0.000    0.000 
#
# Total GULP energy -267471.211656 kJ/mol
# GULP energy per Si atom -5572.316910 kJ/mol
# Density = 2.236523 g / cm^3
# Si number density = 22.416251 Si / 1000 Ang^3
#
#
#
# Elastic Constant Matrix: (Units=GPa)
#
#
# Indices 1 2 3 4 5 6 
#
# 1 149.9510 77.8233 5.6201 0.0000 0.0000 0.0000
# 2 77.8233 101.7328 -4.1492 0.0000 0.0000 0.0000
# 3 5.6201 -4.1492 86.0609 0.0000 0.0000 0.0000
# 4 0.0000 0.0000 0.0000 9.1836 0.0000 0.0000
# 5 0.0000 0.0000 0.0000 0.0000 25.2143 0.0000
# 6 0.0000 0.0000 0.0000 0.0000 0.0000 37.4461
#
#
#
# Elastic Compliance Matrix: (Units=1/GPa)
#
#
# Indices 1 2 3 4 5 6 
#
# 1 0.011171 -0.008592 -0.001144 0.000000 0.000000 0.000000
# 2 -0.008592 0.016458 0.001355 0.000000 0.000000 0.000000
# 3 -0.001144 0.001355 0.011760 0.000000 0.000000 0.000000
# 4 0.000000 0.000000 0.000000 0.108890 0.000000 0.000000
# 5 0.000000 0.000000 0.000000 0.000000 0.039660 0.000000
# 6 0.000000 0.000000 0.000000 0.000000 0.000000 0.026705
#
#
# Mechanical properties :
#
#
# Convention : Reuss Voigt Hill
#
# Bulk Modulus (GPa) = 44.19766 55.14814 49.67290
# Shear Modulus (GPa) = 20.92507 31.59884 26.26195
#
# Velocity S-wave (km/s) = 3.05860 3.75859 3.42652
# Velocity P-wave (km/s) = 5.67741 6.59479 6.15322
#
# Compressibility (1/GPa) = 0.02262563
#
# Stress axis : x y z
#
# Youngs Moduli (GPa) = 89.51754 60.76163 85.03638
#
# Poissons Ratio (x) = 0.52208 0.09726
# Poissons Ratio (y) = 0.76915 -0.11519
# Poissons Ratio (z) = 0.10239 -0.08231
#
# Static dielectric constant tensor:
#      x y z
#    x 1.833450 0.000000 0.000000 
#    y 0.000000 1.870440 0.000000 
#    z 0.000000 0.000000 1.865440 
# 
# From -- ./inp_files/42428.got.cif
#   From: 2010.05.17/outbox.cif.g08.bks.cpg/sg72_22_cif.got.tgz:42428.got - 2010.06.03 17:03:01.
