data_PCOD9528146
_publ_section_title
;
Structure prediction by ZEFSAII (Michael W. Deem and Ramdas Pophale) SiO2 
 PCOD9528146
Probable space group: I B A M
;
_chemical_formula_sum "Si O2"
_cell_formula_units_Z 68
_cell_length_a 16.147186
_cell_length_b 9.015174
_cell_length_c 22.611188
_cell_angle_alpha 90.000000
_cell_angle_beta 90.000000
_cell_angle_gamma 90.000000
_cell_volume 3291.503659
_symmetry_space_group_name_H-M "I B A M"
_symmetry_group_IT_number 72
_symmetry_cell_setting 'orthorhombic'
loop_
_space_group_symop_operation_xyz
x,y,z
-x,-y,z
x,-y,1/2-z
-x,y,1/2-z
-x,-y,-z
x,y,-z
-x,y,1/2+z
x,-y,1/2+z
1/2+x,1/2+y,1/2+z
1/2-x,1/2-y,1/2+z
1/2+x,1/2-y,-z
1/2-x,1/2+y,-z
1/2-x,1/2-y,1/2-z
1/2+x,1/2+y,1/2-z
1/2-x,1/2+y,z
1/2+x,1/2-y,z
loop_
_atom_site_type_symbol
_atom_site_label
_atom_site_fract_x
_atom_site_fract_y
_atom_site_fract_z
Si Si1 0.349341 0.388289 0.326836
Si Si2 0.323034 0.957595 0.186422
Si Si3 0.591909 0.564075 0.936052
Si Si4 0.411374 0.084028 0.930788
Si Si5 0.000000 0.000000 0.750000
O O1 0.270088 0.483049 0.308058
O O2 0.364310 0.455015 0.391243
O O3 0.435267 0.411418 0.291109
O O4 0.325660 0.218045 0.321574
O O5 0.360596 0.024026 0.125684
O O6 0.364611 0.000000 0.250000
O O7 0.500000 0.500000 0.939803
O O8 0.584410 0.738054 0.920613
O O9 0.633302 0.556432 0.000000
O O10 0.500000 0.000000 0.928312
O O11 0.382001 0.062621 0.000000
#
# Coordination Sequence:
#
# PCOD9528146 Si02
#       5
#    16  16  16  16   4
#     4  12  26  46  70 101 141 183 230 289 352 422
#     4  12  27  44  71 102 142 181 230 294 352 415
#     4  10  21  40  67  98 134 182 235 285 343 415
#     4  10  23  43  68 102 144 186 235 290 351 420
#     4  12  28  44  72  96 138 184 230 270 348 420
#
# _framework density 20.659251999999999
#
# number of rings (size 3 to 8) (size 9 to 14) (size 15 to 20)
#    0.000    0.941    2.353    3.529    3.294    4.235 
#    0.000    0.000    0.000    0.000    0.000    0.000 
#    0.000    0.000    0.000    0.000    0.000    0.000 
#
# Total GULP energy -189583.014602 kJ/mol
# GULP energy per Si atom -5575.971018 kJ/mol
# Density = 2.061223 g / cm^3
# Si number density = 20.659252 Si / 1000 Ang^3
#
#
#
# Elastic Constant Matrix: (Units=GPa)
#
#
# Indices 1 2 3 4 5 6 
#
# 1 89.6929 71.5300 80.2998 0.0000 0.0000 0.0000
# 2 71.5300 209.9245 89.1861 0.0000 0.0000 0.0000
# 3 80.2998 89.1861 163.0611 0.0000 0.0000 0.0000
# 4 0.0000 0.0000 0.0000 40.9920 0.0000 0.0000
# 5 0.0000 0.0000 0.0000 0.0000 -8.5019 0.0000
# 6 0.0000 0.0000 0.0000 0.0000 0.0000 31.2068
#
#
#
# Elastic Compliance Matrix: (Units=1/GPa)
#
#
# Indices 1 2 3 4 5 6 
#
# 1 0.022017 -0.003772 -0.008779 0.000000 0.000000 0.000000
# 2 -0.003772 0.006852 -0.001890 0.000000 0.000000 0.000000
# 3 -0.008779 -0.001890 0.011490 0.000000 0.000000 0.000000
# 4 0.000000 0.000000 0.000000 0.024395 0.000000 0.000000
# 5 0.000000 0.000000 0.000000 0.000000 -0.117621 0.000000
# 6 0.000000 0.000000 0.000000 0.000000 0.000000 0.032044
#
#
# Mechanical properties :
#
#
# Convention : Reuss Voigt Hill
#
# Bulk Modulus (GPa) = 87.13852 104.96780 96.05316
# Shear Modulus (GPa) = 420.65972 27.51689 224.08830
#
# Velocity S-wave (km/s) = 14.28496 3.65353 10.42613
# Velocity P-wave (km/s) = 17.72994 8.28958 13.83958
#
# Compressibility (1/GPa) = 0.01147598
#
# Stress axis : x y z
#
# Youngs Moduli (GPa) = 45.41850 145.94328 87.03438
#
# Poissons Ratio (x) = 0.55056 0.76409
# Poissons Ratio (y) = 0.17134 0.16449
# Poissons Ratio (z) = 0.39874 0.27582
#
# Static dielectric constant tensor:
#      x y z
#    x 1.682350 0.000000 0.000000 
#    y 0.000000 1.685110 0.000000 
#    z 0.000000 0.000000 1.878180 
# 
# From -- ./inp_files/38704.got.cif
#   From: 2010.05.17/outbox.cif.g08.bks.cpg/sg72_20_cif.got.tgz:38704.got - 2010.06.03 17:03:01.
