data_PCOD9528631
_publ_section_title
;
Structure prediction by ZEFSAII (Michael W. Deem and Ramdas Pophale) SiO2 
 PCOD9528631
Probable space group: I B A M
;
_chemical_formula_sum "Si O2"
_cell_formula_units_Z 64
_cell_length_a 23.214943
_cell_length_b 8.115582
_cell_length_c 16.276501
_cell_angle_alpha 90.000000
_cell_angle_beta 90.000000
_cell_angle_gamma 90.000000
_cell_volume 3066.537932
_symmetry_space_group_name_H-M "I B A M"
_symmetry_group_IT_number 72
_symmetry_cell_setting 'orthorhombic'
loop_
_space_group_symop_operation_xyz
x,y,z
-x,-y,z
x,-y,1/2-z
-x,y,1/2-z
-x,-y,-z
x,y,-z
-x,y,1/2+z
x,-y,1/2+z
1/2+x,1/2+y,1/2+z
1/2-x,1/2-y,1/2+z
1/2+x,1/2-y,-z
1/2-x,1/2+y,-z
1/2-x,1/2-y,1/2-z
1/2+x,1/2+y,1/2-z
1/2-x,1/2+y,z
1/2+x,1/2-y,z
loop_
_atom_site_type_symbol
_atom_site_label
_atom_site_fract_x
_atom_site_fract_y
_atom_site_fract_z
Si Si1 0.666811 0.883231 0.859657
Si Si2 0.058255 0.411093 0.094544
Si Si3 0.627615 0.328588 0.794555
Si Si4 0.277298 0.213561 0.404758
O O1 0.646333 0.800083 0.775969
O O2 0.710111 0.754785 0.901494
O O3 0.609646 0.954004 0.902142
O O4 0.707412 0.044533 0.858717
O O5 0.077948 0.260658 0.152382
O O6 0.000000 0.500000 0.122547
O O7 0.050824 0.357193 0.000000
O O8 0.613506 0.500000 0.750000
O O9 0.681840 0.342712 0.856937
O O10 0.294907 0.200144 0.500000
#
# Coordination Sequence:
#
# PCOD9528631 Si02
#       4
#    16  16  16  16
#     4  11  22  37  61  92 125 165 210 259 316 374
#     4  10  22  44  69  91 122 166 214 260 311 372
#     4  11  23  39  63  94 128 162 203 257 315 378
#     4  11  21  37  59  88 128 167 209 256 311 373
#
# _framework density 20.870442000000001
#
# number of rings (size 3 to 8) (size 9 to 14) (size 15 to 20)
#    0.000    1.250    0.000    9.750    0.000    4.000 
#    0.000    8.750    0.000    3.000    0.000    0.000 
#    0.000    0.000    0.000    0.000    0.000    0.000 
#
# Total GULP energy -178555.283830 kJ/mol
# GULP energy per Si atom -5579.852620 kJ/mol
# Density = 2.082294 g / cm^3
# Si number density = 20.870442 Si / 1000 Ang^3
#
#
#
# Elastic Constant Matrix: (Units=GPa)
#
#
# Indices 1 2 3 4 5 6 
#
# 1 129.6540 70.3944 18.4278 0.0000 0.0000 0.0000
# 2 70.3944 121.9290 74.1077 0.0000 0.0000 0.0000
# 3 18.4278 74.1077 126.0685 0.0000 0.0000 0.0000
# 4 0.0000 0.0000 0.0000 6.2945 0.0000 0.0000
# 5 0.0000 0.0000 0.0000 0.0000 10.3562 0.0000
# 6 0.0000 0.0000 0.0000 0.0000 0.0000 33.8261
#
#
#
# Elastic Compliance Matrix: (Units=1/GPa)
#
#
# Indices 1 2 3 4 5 6 
#
# 1 0.012241 -0.009304 0.003680 0.000000 0.000000 0.000000
# 2 -0.009304 0.019832 -0.010298 0.000000 0.000000 0.000000
# 3 0.003680 -0.010298 0.013448 0.000000 0.000000 0.000000
# 4 0.000000 0.000000 0.000000 0.158869 0.000000 0.000000
# 5 0.000000 0.000000 0.000000 0.000000 0.096560 0.000000
# 6 0.000000 0.000000 0.000000 0.000000 0.000000 0.029563
#
#
# Mechanical properties :
#
#
# Convention : Reuss Voigt Hill
#
# Bulk Modulus (GPa) = 73.11558 78.16792 75.64175
# Shear Modulus (GPa) = 13.62705 24.41013 19.01859
#
# Velocity S-wave (km/s) = 2.55803 3.42366 3.02200
# Velocity P-wave (km/s) = 6.62071 7.29135 6.96411
#
# Compressibility (1/GPa) = 0.01367698
#
# Stress axis : x y z
#
# Youngs Moduli (GPa) = 81.69046 50.42309 74.36110
#
# Poissons Ratio (x) = 0.46914 -0.27364
# Poissons Ratio (y) = 0.76005 0.76578
# Poissons Ratio (z) = -0.30061 0.51926
#
# Static dielectric constant tensor:
#      x y z
#    x 1.754660 0.000000 0.000000 
#    y 0.000000 1.799730 0.000000 
#    z 0.000000 0.000000 1.775850 
# 
# From -- ./inp_files/24754.got.cif
#   From: 2010.05.17/outbox.cif.g08.bks.cpg/sg72_13_cif.got.tgz:24754.got - 2010.06.03 17:03:01.
