data_PCOD9528958
_publ_section_title
;
Structure prediction by ZEFSAII (Michael W. Deem and Ramdas Pophale) SiO2 
 PCOD9528958
Probable space group: I B A M
;
_chemical_formula_sum "Si O2"
_cell_formula_units_Z 48
_cell_length_a 11.484670
_cell_length_b 8.959393
_cell_length_c 20.001996
_cell_angle_alpha 90.000000
_cell_angle_beta 90.000000
_cell_angle_gamma 90.000000
_cell_volume 2058.118820
_symmetry_space_group_name_H-M "I B A M"
_symmetry_group_IT_number 72
_symmetry_cell_setting 'orthorhombic'
loop_
_space_group_symop_operation_xyz
x,y,z
-x,-y,z
x,-y,1/2-z
-x,y,1/2-z
-x,-y,-z
x,y,-z
-x,y,1/2+z
x,-y,1/2+z
1/2+x,1/2+y,1/2+z
1/2-x,1/2-y,1/2+z
1/2+x,1/2-y,-z
1/2-x,1/2+y,-z
1/2-x,1/2-y,1/2-z
1/2+x,1/2+y,1/2-z
1/2-x,1/2+y,z
1/2+x,1/2-y,z
loop_
_atom_site_type_symbol
_atom_site_label
_atom_site_fract_x
_atom_site_fract_y
_atom_site_fract_z
Si Si1 0.087779 0.705291 0.311330
Si Si2 0.261023 0.545283 0.856544
Si Si3 0.902552 0.217965 0.922090
O O1 0.164283 0.559279 0.323217
O O2 0.172108 0.848090 0.304742
O O3 0.000000 0.694919 0.250000
O O4 0.012993 0.735273 0.378092
O O5 0.195813 0.657097 0.907227
O O6 0.350713 0.436496 0.893856
O O7 0.928899 0.208340 0.000000
#
# Coordination Sequence:
#
# PCOD9528958 Si02
#       3
#    16  16  16
#     4  11  26  46  70 100 137 181 227 280 344 407
#     4  10  25  45  68 100 139 175 228 288 335 399
#     4  11  24  43  70 102 138 182 228 277 338 404
#
# _framework density 23.32227
#
# number of rings (size 3 to 8) (size 9 to 14) (size 15 to 20)
#    0.000    1.333    0.000    3.000    0.000   24.000 
#    0.000    5.000    0.000    0.000    0.000    0.000 
#    0.000    0.000    0.000    0.000    0.000    0.000 
#
# Total GULP energy -134709.816960 kJ/mol
# GULP energy per Si atom -5612.909040 kJ/mol
# Density = 2.326919 g / cm^3
# Si number density = 23.322270 Si / 1000 Ang^3
#
#
#
# Elastic Constant Matrix: (Units=GPa)
#
#
# Indices 1 2 3 4 5 6 
#
# 1 105.7508 49.9583 54.9088 0.0000 0.0000 0.0000
# 2 49.9583 142.8584 47.3413 0.0000 0.0000 0.0000
# 3 54.9088 47.3413 157.9418 0.0000 0.0000 0.0000
# 4 0.0000 0.0000 0.0000 17.9760 0.0000 0.0000
# 5 0.0000 0.0000 0.0000 0.0000 36.1188 0.0000
# 6 0.0000 0.0000 0.0000 0.0000 0.0000 56.2605
#
#
#
# Elastic Compliance Matrix: (Units=1/GPa)
#
#
# Indices 1 2 3 4 5 6 
#
# 1 0.012830 -0.003341 -0.003459 0.000000 0.000000 0.000000
# 2 -0.003341 0.008642 -0.001429 0.000000 0.000000 0.000000
# 3 -0.003459 -0.001429 0.007962 0.000000 0.000000 0.000000
# 4 0.000000 0.000000 0.000000 0.055630 0.000000 0.000000
# 5 0.000000 0.000000 0.000000 0.000000 0.027686 0.000000
# 6 0.000000 0.000000 0.000000 0.000000 0.000000 0.017774
#
#
# Mechanical properties :
#
#
# Convention : Reuss Voigt Hill
#
# Bulk Modulus (GPa) = 77.05871 78.99642 78.02756
# Shear Modulus (GPa) = 33.04516 39.02724 36.03620
#
# Velocity S-wave (km/s) = 3.76825 4.09515 3.93509
# Velocity P-wave (km/s) = 7.21425 7.50370 7.36040
#
# Compressibility (1/GPa) = 0.01297712
#
# Stress axis : x y z
#
# Youngs Moduli (GPa) = 77.93958 115.71860 125.59099
#
# Poissons Ratio (x) = 0.38656 0.43445
# Poissons Ratio (y) = 0.26036 0.17946
# Poissons Ratio (z) = 0.26961 0.16535
#
# Static dielectric constant tensor:
#      x y z
#    x 1.893470 0.000000 0.000000 
#    y 0.000000 1.867360 0.000000 
#    z 0.000000 0.000000 1.814400 
# 
# From -- ./inp_files/41732.got.cif
#   From: 2010.05.17/outbox.cif.g08.bks.cpg/sg72_21_cif.got.tgz:41732.got - 2010.06.03 17:03:01.
