data_PCOD9528314
_publ_section_title
;
Structure prediction by ZEFSAII (Michael W. Deem and Ramdas Pophale) SiO2 
 PCOD9528314
Probable space group: I B A M
;
_chemical_formula_sum "Si O2"
_cell_formula_units_Z 56
_cell_length_a 22.896554
_cell_length_b 13.364496
_cell_length_c 9.412237
_cell_angle_alpha 90.000000
_cell_angle_beta 90.000000
_cell_angle_gamma 90.000000
_cell_volume 2880.153034
_symmetry_space_group_name_H-M "I B A M"
_symmetry_group_IT_number 72
_symmetry_cell_setting 'orthorhombic'
loop_
_space_group_symop_operation_xyz
x,y,z
-x,-y,z
x,-y,1/2-z
-x,y,1/2-z
-x,-y,-z
x,y,-z
-x,y,1/2+z
x,-y,1/2+z
1/2+x,1/2+y,1/2+z
1/2-x,1/2-y,1/2+z
1/2+x,1/2-y,-z
1/2-x,1/2+y,-z
1/2-x,1/2-y,1/2-z
1/2+x,1/2+y,1/2-z
1/2-x,1/2+y,z
1/2+x,1/2-y,z
loop_
_atom_site_type_symbol
_atom_site_label
_atom_site_fract_x
_atom_site_fract_y
_atom_site_fract_z
Si Si1 0.592804 0.903701 0.341677
Si Si2 0.500000 0.252730 0.750000
Si Si3 0.099328 0.899831 0.835716
Si Si4 0.188113 0.757843 0.327428
O O1 0.601475 0.940505 0.500000
O O2 0.541513 0.821630 0.337381
O O3 0.650787 0.843037 0.298346
O O4 0.579144 0.000000 0.250000
O O5 0.544264 0.324559 0.666717
O O6 0.150929 0.845957 0.747108
O O7 0.083886 0.000000 0.750000
O O8 0.115369 0.919680 0.000000
O O9 0.191788 0.770186 0.500000
O O10 0.250000 0.750000 0.250000
#
# Coordination Sequence:
#
# PCOD9528314 Si02
#       4
#    16   8  16  16
#     4  10  22  38  58  86 117 151 191 236 286 343
#     4  10  22  38  60  86 118 154 196 242 288 346
#     4  11  23  39  61  88 119 156 197 243 297 354
#     4  10  22  41  62  86 118 154 197 245 294 350
#
# _framework density 19.44341
#
# number of rings (size 3 to 8) (size 9 to 14) (size 15 to 20)
#    0.000    1.714    0.000    3.429    0.000   13.714 
#    0.000    2.857    0.000    0.000    0.000    0.000 
#    0.000    0.000    0.000    0.000    0.000    0.000 
#
# Total GULP energy -156266.570533 kJ/mol
# GULP energy per Si atom -5580.948948 kJ/mol
# Density = 1.939916 g / cm^3
# Si number density = 19.443410 Si / 1000 Ang^3
#
#
#
# Elastic Constant Matrix: (Units=GPa)
#
#
# Indices 1 2 3 4 5 6 
#
# 1 135.5962 46.2111 43.0922 0.0000 0.0000 0.0000
# 2 46.2111 133.1262 66.8422 0.0000 0.0000 0.0000
# 3 43.0922 66.8422 113.7752 0.0000 0.0000 0.0000
# 4 0.0000 0.0000 0.0000 21.7570 0.0000 0.0000
# 5 0.0000 0.0000 0.0000 0.0000 10.0786 0.0000
# 6 0.0000 0.0000 0.0000 0.0000 0.0000 8.2437
#
#
#
# Elastic Compliance Matrix: (Units=1/GPa)
#
#
# Indices 1 2 3 4 5 6 
#
# 1 0.008724 -0.001942 -0.002163 0.000000 0.000000 0.000000
# 2 -0.001942 0.011087 -0.005778 0.000000 0.000000 0.000000
# 3 -0.002163 -0.005778 0.013003 0.000000 0.000000 0.000000
# 4 0.000000 0.000000 0.000000 0.045962 0.000000 0.000000
# 5 0.000000 0.000000 0.000000 0.000000 0.099220 0.000000
# 6 0.000000 0.000000 0.000000 0.000000 0.000000 0.121304
#
#
# Mechanical properties :
#
#
# Convention : Reuss Voigt Hill
#
# Bulk Modulus (GPa) = 76.64299 77.19872 76.92086
# Shear Modulus (GPa) = 15.45992 23.10599 19.28295
#
# Velocity S-wave (km/s) = 2.82285 3.45102 3.15262
# Velocity P-wave (km/s) = 7.08016 7.46122 7.27319
#
# Compressibility (1/GPa) = 0.01304751
#
# Stress axis : x y z
#
# Youngs Moduli (GPa) = 114.62342 90.19642 76.90498
#
# Poissons Ratio (x) = 0.17518 0.16636
# Poissons Ratio (y) = 0.22262 0.44435
# Poissons Ratio (z) = 0.24796 0.52114
#
# Static dielectric constant tensor:
#      x y z
#    x 1.680430 0.000000 0.000000 
#    y 0.000000 1.685020 0.000000 
#    z 0.000000 0.000000 1.670830 
# 
# From -- ./inp_files/3222.got.cif
#   From: 2010.05.17/outbox.cif.g08.bks.cpg/sg72_2_cif.got.tgz:3222.got - 2010.06.03 17:03:01.
