data_PCOD9528999
_publ_section_title
;
Structure prediction by ZEFSAII (Michael W. Deem and Ramdas Pophale) SiO2 
 PCOD9528999
Probable space group: I B A M
;
_chemical_formula_sum "Si O2"
_cell_formula_units_Z 72
_cell_length_a 9.108351
_cell_length_b 23.704975
_cell_length_c 14.111294
_cell_angle_alpha 90.000000
_cell_angle_beta 90.000000
_cell_angle_gamma 90.000000
_cell_volume 3046.815106
_symmetry_space_group_name_H-M "I B A M"
_symmetry_group_IT_number 72
_symmetry_cell_setting 'orthorhombic'
loop_
_space_group_symop_operation_xyz
x,y,z
-x,-y,z
x,-y,1/2-z
-x,y,1/2-z
-x,-y,-z
x,y,-z
-x,y,1/2+z
x,-y,1/2+z
1/2+x,1/2+y,1/2+z
1/2-x,1/2-y,1/2+z
1/2+x,1/2-y,-z
1/2-x,1/2+y,-z
1/2-x,1/2-y,1/2-z
1/2+x,1/2+y,1/2-z
1/2-x,1/2+y,z
1/2+x,1/2-y,z
loop_
_atom_site_type_symbol
_atom_site_label
_atom_site_fract_x
_atom_site_fract_y
_atom_site_fract_z
Si Si1 0.673269 0.996162 0.637751
Si Si2 0.928268 0.803475 0.000000
Si Si3 0.021175 0.319669 0.500000
Si Si4 0.631109 0.878368 0.675551
Si Si5 0.662373 0.697988 0.710486
Si Si6 0.711534 0.588421 0.500000
O O1 0.700524 0.930417 0.618316
O O2 0.500000 0.000000 0.613150
O O3 0.692421 0.000000 0.750000
O O4 0.763419 0.045118 0.586737
O O5 0.843901 0.796572 0.098426
O O6 0.540778 0.750647 0.000000
O O7 0.936451 0.873047 0.000000
O O8 0.932811 0.335191 0.403013
O O9 0.153117 0.366157 0.500000
O O10 0.500000 0.894311 0.750000
O O11 0.753038 0.854350 0.745593
O O12 0.500000 0.698495 0.750000
O O13 0.750000 0.750000 0.750000
#
# Coordination Sequence:
#
# PCOD9528999 Si02
#       6
#    16   8   8  16  16   8
#     4  11  19  36  66 103 142 180 238 303 363 418
#     4  12  28  43  71  99 149 193 238 305 369 443
#     4  12  23  36  66  97 148 188 234 309 364 431
#     4  12  23  42  70 111 147 188 245 309 376 441
#     4  12  28  48  72 105 149 199 249 301 376 445
#     4  12  24  42  68 113 146 192 253 307 367 444
#
# _framework density 23.631233000000002
#
# number of rings (size 3 to 8) (size 9 to 14) (size 15 to 20)
#    0.000    0.222    6.667    4.333    3.111    0.889 
#    0.000    0.000    0.000    7.333    0.000    0.000 
#    0.000    0.000    0.000    0.000    0.000    0.000 
#
# Total GULP energy -200961.083713 kJ/mol
# GULP energy per Si atom -5582.252325 kJ/mol
# Density = 2.357745 g / cm^3
# Si number density = 23.631233 Si / 1000 Ang^3
#
#
#
# Elastic Constant Matrix: (Units=GPa)
#
#
# Indices 1 2 3 4 5 6 
#
# 1 80.5482 45.7773 31.3970 0.0000 0.0000 0.0000
# 2 45.7773 176.5194 39.8319 0.0000 0.0000 0.0000
# 3 31.3970 39.8319 178.8916 -0.0003 0.0000 0.0000
# 4 0.0000 0.0000 -0.0003 47.5344 0.0000 0.0000
# 5 0.0000 0.0000 0.0000 0.0000 14.7887 0.0000
# 6 0.0000 0.0000 0.0000 0.0000 0.0000 30.7092
#
#
#
# Elastic Compliance Matrix: (Units=1/GPa)
#
#
# Indices 1 2 3 4 5 6 
#
# 1 0.015137 -0.003502 -0.001877 0.000000 0.000000 0.000000
# 2 -0.003502 0.006775 -0.000894 0.000000 0.000000 0.000000
# 3 -0.001877 -0.000894 0.006118 0.000000 0.000000 0.000000
# 4 0.000000 0.000000 0.000000 0.021037 0.000000 0.000000
# 5 0.000000 0.000000 0.000000 0.000000 0.067619 0.000000
# 6 0.000000 0.000000 0.000000 0.000000 0.000000 0.032563
#
#
# Mechanical properties :
#
#
# Convention : Reuss Voigt Hill
#
# Bulk Modulus (GPa) = 64.57984 74.44129 69.51057
# Shear Modulus (GPa) = 29.94776 39.86999 34.90887
#
# Velocity S-wave (km/s) = 3.56377 4.11198 3.84765
# Velocity P-wave (km/s) = 6.65744 7.35623 7.01554
#
# Compressibility (1/GPa) = 0.01548471
#
# Stress axis : x y z
#
# Youngs Moduli (GPa) = 66.06440 147.60203 163.44088
#
# Poissons Ratio (x) = 0.51689 0.30676
# Poissons Ratio (y) = 0.23135 0.14610
# Poissons Ratio (z) = 0.12400 0.13194
#
# Static dielectric constant tensor:
#      x y z
#    x 1.919600 0.000000 0.000000 
#    y 0.000000 2.003600 0.000000 
#    z 0.000000 0.000000 1.895040 
# 
# From -- ./inp_files/18923.got.cif
#   From: 2010.05.17/outbox.cif.g08.bks.cpg/sg72_10_cif.got.tgz:18923.got - 2010.06.03 17:03:01.
