data_PCOD9528464
_publ_section_title
;
Structure prediction by ZEFSAII (Michael W. Deem and Ramdas Pophale) SiO2 
 PCOD9528464
Probable space group: I B A M
;
_chemical_formula_sum "Si O2"
_cell_formula_units_Z 80
_cell_length_a 23.866886
_cell_length_b 11.267757
_cell_length_c 14.100046
_cell_angle_alpha 90.000000
_cell_angle_beta 90.000000
_cell_angle_gamma 90.000000
_cell_volume 3791.872803
_symmetry_space_group_name_H-M "I B A M"
_symmetry_group_IT_number 72
_symmetry_cell_setting 'orthorhombic'
loop_
_space_group_symop_operation_xyz
x,y,z
-x,-y,z
x,-y,1/2-z
-x,y,1/2-z
-x,-y,-z
x,y,-z
-x,y,1/2+z
x,-y,1/2+z
1/2+x,1/2+y,1/2+z
1/2-x,1/2-y,1/2+z
1/2+x,1/2-y,-z
1/2-x,1/2+y,-z
1/2-x,1/2-y,1/2-z
1/2+x,1/2+y,1/2-z
1/2-x,1/2+y,z
1/2+x,1/2-y,z
loop_
_atom_site_type_symbol
_atom_site_label
_atom_site_fract_x
_atom_site_fract_y
_atom_site_fract_z
Si Si1 0.178464 0.709155 0.241491
Si Si2 0.234575 0.138573 0.108513
Si Si3 0.044414 0.894402 0.000000
Si Si4 0.441664 0.866572 0.714929
Si Si5 0.965726 0.373312 0.000000
Si Si6 0.359217 0.555330 0.348922
O O1 0.207945 0.746834 0.338788
O O2 0.212635 0.614279 0.178457
O O3 0.113995 0.683791 0.260329
O O4 0.175024 0.826492 0.175884
O O5 0.185934 0.038934 0.111370
O O6 0.251447 0.157789 0.000000
O O7 0.013192 0.765663 0.000000
O O8 0.087728 0.910658 0.087470
O O9 0.000000 0.000000 0.000000
O O10 0.500000 0.808235 0.750000
O O11 0.435247 0.872010 0.601382
O O12 0.444548 0.000000 0.750000
O O13 0.000000 0.500000 0.000000
O O14 0.379786 0.500000 0.250000
#
# Coordination Sequence:
#
# PCOD9528464 Si02
#       6
#    16  16   8  16   8  16
#     4  10  23  42  67  96 136 186 228 291 372 421
#     4  10  22  40  67  96 135 176 238 296 355 438
#     4  12  26  44  73 107 142 192 244 292 369 433
#     4  11  24  44  67  97 139 182 237 294 349 434
#     4  12  24  48  71  99 138 202 232 295 357 434
#     4  10  22  44  65  96 142 182 233 303 359 432
#
# _framework density 21.097753999999998
#
# number of rings (size 3 to 8) (size 9 to 14) (size 15 to 20)
#    0.000    1.400    5.000    0.000    2.800    7.600 
#    3.600    0.000    0.000    0.000    0.000    0.000 
#    0.000    0.000    0.000    0.000    0.000    0.000 
#
# Total GULP energy -222842.429713 kJ/mol
# GULP energy per Si atom -5571.060743 kJ/mol
# Density = 2.104973 g / cm^3
# Si number density = 21.097754 Si / 1000 Ang^3
#
#
#
# Elastic Constant Matrix: (Units=GPa)
#
#
# Indices 1 2 3 4 5 6 
#
# 1 125.9614 32.0201 7.2320 0.0000 0.0000 0.0000
# 2 32.0201 91.6355 12.2511 0.0000 0.0000 0.0000
# 3 7.2320 12.2511 92.0250 0.0000 0.0000 0.0000
# 4 0.0000 0.0000 0.0000 6.3356 0.0000 0.0000
# 5 0.0000 0.0000 0.0000 0.0000 26.5597 0.0000
# 6 0.0000 0.0000 0.0000 0.0000 0.0000 14.3173
#
#
#
# Elastic Compliance Matrix: (Units=1/GPa)
#
#
# Indices 1 2 3 4 5 6 
#
# 1 0.008720 -0.003009 -0.000285 0.000000 0.000000 0.000000
# 2 -0.003009 0.012149 -0.001381 0.000000 0.000000 0.000000
# 3 -0.000285 -0.001381 0.011073 0.000000 0.000000 0.000000
# 4 0.000000 0.000000 0.000000 0.157838 0.000000 0.000000
# 5 0.000000 0.000000 0.000000 0.000000 0.037651 0.000000
# 6 0.000000 0.000000 0.000000 0.000000 0.000000 0.069846
#
#
# Mechanical properties :
#
#
# Convention : Reuss Voigt Hill
#
# Bulk Modulus (GPa) = 44.26219 45.84758 45.05489
# Shear Modulus (GPa) = 15.91562 26.65042 21.28302
#
# Velocity S-wave (km/s) = 2.74957 3.55799 3.17958
# Velocity P-wave (km/s) = 5.57721 6.21750 5.90604
#
# Compressibility (1/GPa) = 0.02259264
#
# Stress axis : x y z
#
# Youngs Moduli (GPa) = 114.67631 82.31223 90.31123
#
# Poissons Ratio (x) = 0.24768 0.02571
# Poissons Ratio (y) = 0.34506 0.12471
# Poissons Ratio (z) = 0.03265 0.11366
#
# Static dielectric constant tensor:
#      x y z
#    x 1.845660 0.000000 0.000000 
#    y 0.000000 1.806540 0.000000 
#    z 0.000000 0.000000 1.938600 
# 
# From -- ./inp_files/24950.got.cif
#   From: 2010.05.17/outbox.cif.g08.bks.cpg/sg72_13_cif.got.tgz:24950.got - 2010.06.03 17:03:01.
