data_PCOD9528441
_publ_section_title
;
Structure prediction by ZEFSAII (Michael W. Deem and Ramdas Pophale) SiO2 
 PCOD9528441
Probable space group: I B A M
;
_chemical_formula_sum "Si O2"
_cell_formula_units_Z 56
_cell_length_a 27.241035
_cell_length_b 8.942872
_cell_length_c 11.361780
_cell_angle_alpha 90.000000
_cell_angle_beta 90.000000
_cell_angle_gamma 90.000000
_cell_volume 2767.878324
_symmetry_space_group_name_H-M "I B A M"
_symmetry_group_IT_number 72
_symmetry_cell_setting 'orthorhombic'
loop_
_space_group_symop_operation_xyz
x,y,z
-x,-y,z
x,-y,1/2-z
-x,y,1/2-z
-x,-y,-z
x,y,-z
-x,y,1/2+z
x,-y,1/2+z
1/2+x,1/2+y,1/2+z
1/2-x,1/2-y,1/2+z
1/2+x,1/2-y,-z
1/2-x,1/2+y,-z
1/2-x,1/2-y,1/2-z
1/2+x,1/2+y,1/2-z
1/2-x,1/2+y,z
1/2+x,1/2-y,z
loop_
_atom_site_type_symbol
_atom_site_label
_atom_site_fract_x
_atom_site_fract_y
_atom_site_fract_z
Si Si1 0.729809 0.105008 0.868223
Si Si2 0.000000 0.500000 0.750000
Si Si3 0.500000 0.500000 0.250000
Si Si4 0.433159 0.247450 0.137193
Si Si5 0.169231 0.173936 0.265316
O O1 0.785136 0.168802 0.856246
O O2 0.692525 0.242131 0.846810
O O3 0.723912 0.000000 0.750000
O O4 0.723084 0.040558 0.000000
O O5 0.034488 0.394481 0.672478
O O6 0.464714 0.391982 0.175464
O O7 0.380224 0.244692 0.198256
O O8 0.424412 0.252989 0.000000
O O9 0.156530 0.000000 0.250000
#
# Coordination Sequence:
#
# PCOD9528441 Si02
#       5
#    16   4   4  16  16
#     4  10  23  42  65  97 134 172 215 264 321 389
#     4  10  26  42  60  94 124 162 222 262 318 388
#     4  10  22  42  64  98 120 150 218 266 328 386
#     4  11  22  42  66  90 126 167 208 267 326 380
#     4  10  22  40  64  94 129 167 216 261 317 383
#
# _framework density 20.232104
#
# number of rings (size 3 to 8) (size 9 to 14) (size 15 to 20)
#    0.000    1.714    1.429    1.714    2.000   12.571 
#    0.000    1.429    0.000    0.000    0.000    0.000 
#    0.000    0.000    0.000    0.000    0.000    0.000 
#
# Total GULP energy -156238.480813 kJ/mol
# GULP energy per Si atom -5579.945743 kJ/mol
# Density = 2.018605 g / cm^3
# Si number density = 20.232104 Si / 1000 Ang^3
#
#
#
# Elastic Constant Matrix: (Units=GPa)
#
#
# Indices 1 2 3 4 5 6 
#
# 1 148.2792 41.5963 38.3324 0.0000 0.0000 0.0000
# 2 41.5963 90.9456 23.3535 0.0000 0.0000 0.0000
# 3 38.3324 23.3535 107.0283 0.0000 0.0000 0.0000
# 4 0.0000 0.0000 0.0000 8.7652 0.0000 0.0000
# 5 0.0000 0.0000 0.0000 0.0000 -0.3757 0.0000
# 6 0.0000 0.0000 0.0000 0.0000 0.0000 23.0156
#
#
#
# Elastic Compliance Matrix: (Units=1/GPa)
#
#
# Indices 1 2 3 4 5 6 
#
# 1 0.008218 -0.003181 -0.002249 0.000000 0.000000 0.000000
# 2 -0.003181 0.012880 -0.001671 0.000000 0.000000 0.000000
# 3 -0.002249 -0.001671 0.010513 0.000000 0.000000 0.000000
# 4 0.000000 0.000000 0.000000 0.114087 0.000000 0.000000
# 5 0.000000 0.000000 0.000000 0.000000 -2.662038 0.000000
# 6 0.000000 0.000000 0.000000 0.000000 0.000000 0.043449
#
#
# Mechanical properties :
#
#
# Convention : Reuss Voigt Hill
#
# Bulk Modulus (GPa) = 57.44329 61.42418 59.43374
# Shear Modulus (GPa) = -2.03842 22.47910 10.22034
#
# Velocity S-wave (km/s) = -1.00484 3.33687 2.25000
# Velocity P-wave (km/s) = 5.20649 6.72845 6.01579
#
# Compressibility (1/GPa) = 0.01740847
#
# Stress axis : x y z
#
# Youngs Moduli (GPa) = 121.68631 77.64198 95.11615
#
# Poissons Ratio (x) = 0.24699 0.21393
# Poissons Ratio (y) = 0.38710 0.15894
# Poissons Ratio (z) = 0.27369 0.12974
#
# Static dielectric constant tensor:
#      x y z
#    x 1.674620 0.000000 0.000000 
#    y 0.000000 1.774700 0.000000 
#    z 0.000000 0.000000 1.707980 
# 
# From -- ./inp_files/10393.got.cif
#   From: 2010.05.17/outbox.cif.g08.bks.cpg/sg72_6_cif.got.tgz:10393.got - 2010.06.03 17:03:01.
