data_PCOD9528941
_publ_section_title
;
Structure prediction by ZEFSAII (Michael W. Deem and Ramdas Pophale) SiO2 
 PCOD9528941
Probable space group: I B A M
;
_chemical_formula_sum "Si O2"
_cell_formula_units_Z 88
_cell_length_a 14.475156
_cell_length_b 11.349577
_cell_length_c 26.748165
_cell_angle_alpha 90.000000
_cell_angle_beta 90.000000
_cell_angle_gamma 90.000000
_cell_volume 4394.373045
_symmetry_space_group_name_H-M "I B A M"
_symmetry_group_IT_number 72
_symmetry_cell_setting 'orthorhombic'
loop_
_space_group_symop_operation_xyz
x,y,z
-x,-y,z
x,-y,1/2-z
-x,y,1/2-z
-x,-y,-z
x,y,-z
-x,y,1/2+z
x,-y,1/2+z
1/2+x,1/2+y,1/2+z
1/2-x,1/2-y,1/2+z
1/2+x,1/2-y,-z
1/2-x,1/2+y,-z
1/2-x,1/2-y,1/2-z
1/2+x,1/2+y,1/2-z
1/2-x,1/2+y,z
1/2+x,1/2-y,z
loop_
_atom_site_type_symbol
_atom_site_label
_atom_site_fract_x
_atom_site_fract_y
_atom_site_fract_z
Si Si1 0.731821 0.346840 0.919962
Si Si2 0.095964 0.953036 0.896671
Si Si3 0.133793 0.437779 0.500000
Si Si4 0.112102 0.358857 0.757331
Si Si5 0.220133 0.209630 0.674247
Si Si6 0.643015 0.797519 0.500000
Si Si7 0.045233 0.182386 0.500000
O O1 0.645173 0.429051 0.913764
O O2 0.804022 0.422515 0.951097
O O3 0.766381 0.310605 0.866494
O O4 0.706028 0.230740 0.952010
O O5 0.159748 0.887478 0.855856
O O6 0.077565 0.878648 0.948117
O O7 0.000000 0.000000 0.874294
O O8 0.101311 0.572084 0.500000
O O9 0.076828 0.317887 0.500000
O O10 0.124813 0.500000 0.750000
O O11 0.160297 0.270451 0.717808
O O12 0.177977 0.331582 0.806179
O O13 0.000000 0.339802 0.750000
O O14 0.564683 0.697898 0.500000
#
# Coordination Sequence:
#
# PCOD9528941 Si02
#       7
#    16  16   8  16  16   8   8
#     4  11  23  39  65  92 132 173 226 279 337 402
#     4  12  24  41  67  99 139 182 230 283 337 404
#     4  11  23  38  60  90 131 180 227 278 330 393
#     4  10  24  47  72  96 132 172 215 283 355 415
#     4  11  24  44  70 102 131 171 229 277 347 420
#     4  11  23  38  59  92 131 185 230 274 326 401
#     4  12  22  43  57  95 141 185 227 280 331 395
#
# _framework density 20.025611000000001
#
# number of rings (size 3 to 8) (size 9 to 14) (size 15 to 20)
#    0.000    0.909    3.636    3.818    5.091    0.000 
#    0.000    1.818    0.000    0.000    0.000    0.000 
#    0.000    0.000    0.000    0.000    0.000    0.000 
#
# Total GULP energy -245103.308699 kJ/mol
# GULP energy per Si atom -5570.529743 kJ/mol
# Density = 1.998003 g / cm^3
# Si number density = 20.025611 Si / 1000 Ang^3
#
#
#
# Elastic Constant Matrix: (Units=GPa)
#
#
# Indices 1 2 3 4 5 6 
#
# 1 115.9482 25.7450 38.9550 0.0000 0.0000 0.0000
# 2 25.7450 88.3659 21.1136 0.0000 0.0000 0.0000
# 3 38.9550 21.1136 96.5835 0.0000 0.0000 0.0000
# 4 0.0000 0.0000 0.0000 -30.0834 0.0000 0.0000
# 5 0.0000 0.0000 0.0000 0.0000 39.6100 0.0000
# 6 0.0000 0.0000 0.0000 0.0000 0.0000 24.5356
#
#
#
# Elastic Compliance Matrix: (Units=1/GPa)
#
#
# Indices 1 2 3 4 5 6 
#
# 1 0.010342 -0.002128 -0.003706 0.000000 0.000000 0.000000
# 2 -0.002128 0.012378 -0.001848 0.000000 0.000000 0.000000
# 3 -0.003706 -0.001848 0.012252 0.000000 0.000000 0.000000
# 4 0.000000 0.000000 0.000000 -0.033241 0.000000 0.000000
# 5 0.000000 0.000000 0.000000 0.000000 0.025246 0.000000
# 6 0.000000 0.000000 0.000000 0.000000 0.000000 0.040757
#
#
# Mechanical properties :
#
#
# Convention : Reuss Voigt Hill
#
# Bulk Modulus (GPa) = 50.99577 52.50276 51.74927
# Shear Modulus (GPa) = 55.78212 21.15137 38.46674
#
# Velocity S-wave (km/s) = 5.28355 3.25347 4.38754
# Velocity P-wave (km/s) = 7.92097 6.35517 7.18087
#
# Compressibility (1/GPa) = 0.01960947
#
# Stress axis : x y z
#
# Youngs Moduli (GPa) = 96.69203 80.78891 81.61615
#
# Poissons Ratio (x) = 0.17189 0.30248
# Poissons Ratio (y) = 0.20572 0.15081
# Poissons Ratio (z) = 0.35836 0.14928
#
# Static dielectric constant tensor:
#      x y z
#    x 1.860690 0.000000 0.000000 
#    y 0.000000 1.679780 0.000000 
#    z 0.000000 0.000000 1.702390 
# 
# From -- ./inp_files/44181.got.cif
#   From: 2010.05.17/outbox.cif.g08.bks.cpg/sg72_23_cif.got.tgz:44181.got - 2010.06.03 17:03:01.
