data_PCOD9528656
_publ_section_title
;
Structure prediction by ZEFSAII (Michael W. Deem and Ramdas Pophale) SiO2 
 PCOD9528656
Probable space group: I B A M
;
_chemical_formula_sum "Si O2"
_cell_formula_units_Z 88
_cell_length_a 10.584483
_cell_length_b 13.401989
_cell_length_c 31.271193
_cell_angle_alpha 90.000000
_cell_angle_beta 90.000000
_cell_angle_gamma 90.000000
_cell_volume 4435.916441
_symmetry_space_group_name_H-M "I B A M"
_symmetry_group_IT_number 72
_symmetry_cell_setting 'orthorhombic'
loop_
_space_group_symop_operation_xyz
x,y,z
-x,-y,z
x,-y,1/2-z
-x,y,1/2-z
-x,-y,-z
x,y,-z
-x,y,1/2+z
x,-y,1/2+z
1/2+x,1/2+y,1/2+z
1/2-x,1/2-y,1/2+z
1/2+x,1/2-y,-z
1/2-x,1/2+y,-z
1/2-x,1/2-y,1/2-z
1/2+x,1/2+y,1/2-z
1/2-x,1/2+y,z
1/2+x,1/2-y,z
loop_
_atom_site_type_symbol
_atom_site_label
_atom_site_fract_x
_atom_site_fract_y
_atom_site_fract_z
Si Si1 0.305156 0.407230 0.723774
Si Si2 0.743821 0.761965 0.926411
Si Si3 0.650635 0.390394 0.000000
Si Si4 0.000331 0.784047 0.875629
Si Si5 0.085572 0.266562 0.284529
Si Si6 0.500000 0.500000 0.844803
Si Si7 0.643199 0.373656 0.500000
O O1 0.249631 0.500000 0.750000
O O2 0.203303 0.334224 0.703226
O O3 0.370097 0.334100 0.759451
O O4 0.392686 0.458505 0.687754
O O5 0.616897 0.769834 0.898840
O O6 0.713860 0.670919 0.958717
O O7 0.867954 0.755067 0.896950
O O8 0.775723 0.852248 0.958366
O O9 0.644466 0.508242 0.000000
O O10 0.507040 0.345587 0.000000
O O11 0.004562 0.756552 0.825863
O O12 0.027053 0.903894 0.874570
O O13 0.000000 0.322330 0.250000
#
# Coordination Sequence:
#
# PCOD9528656 Si02
#       7
#    16  16   8  16  16   8   8
#     4  11  21  40  64  91 122 182 239 273 323 391
#     4  11  25  43  69 105 137 166 215 285 330 397
#     4  10  22  47  78  97 128 179 221 254 334 426
#     4  12  25  41  67  99 138 174 227 277 329 386
#     4  11  23  40  63  91 136 182 223 282 337 377
#     4  12  23  40  70  93 126 184 240 273 312 408
#     4  10  22  47  78 101 128 173 219 264 332 420
#
# _framework density 19.838065
#
# number of rings (size 3 to 8) (size 9 to 14) (size 15 to 20)
#    0.000    0.909    5.455    1.364    5.091    0.364 
#    0.000    1.818    0.000    0.000    0.000    0.000 
#    0.000    0.000    0.000    0.000    0.000    0.000 
#
# Total GULP energy -245506.920540 kJ/mol
# GULP energy per Si atom -5579.702740 kJ/mol
# Density = 1.979291 g / cm^3
# Si number density = 19.838065 Si / 1000 Ang^3
#
#
#
# Elastic Constant Matrix: (Units=GPa)
#
#
# Indices 1 2 3 4 5 6 
#
# 1 99.2796 33.2232 38.3562 0.0000 0.0000 0.0000
# 2 33.2232 73.9928 9.4060 0.0000 0.0000 0.0000
# 3 38.3562 9.4060 94.2350 0.0000 0.0000 0.0000
# 4 0.0000 0.0000 0.0000 -2.6455 0.0000 0.0000
# 5 0.0000 0.0000 0.0000 0.0000 300.5934 0.0000
# 6 0.0000 0.0000 0.0000 0.0000 0.0000 26.9809
#
#
#
# Elastic Compliance Matrix: (Units=1/GPa)
#
#
# Indices 1 2 3 4 5 6 
#
# 1 0.013920 -0.005601 -0.005107 0.000000 0.000000 0.000000
# 2 -0.005601 0.015942 0.000688 0.000000 0.000000 0.000000
# 3 -0.005107 0.000688 0.012622 0.000000 0.000000 0.000000
# 4 0.000000 0.000000 0.000000 -0.378005 0.000000 0.000000
# 5 0.000000 0.000000 0.000000 0.000000 0.003327 0.000000
# 6 0.000000 0.000000 0.000000 0.000000 0.000000 0.037063
#
#
# Mechanical properties :
#
#
# Convention : Reuss Voigt Hill
#
# Bulk Modulus (GPa) = 44.55272 47.71978 46.13625
# Shear Modulus (GPa) = -18.68378 77.42056 29.36839
#
# Velocity S-wave (km/s) = -3.07223 6.25388 3.85178
# Velocity P-wave (km/s) = 3.14995 8.73240 6.56418
#
# Compressibility (1/GPa) = 0.02244532
#
# Stress axis : x y z
#
# Youngs Moduli (GPa) = 71.83999 62.72681 79.22914
#
# Poissons Ratio (x) = 0.35133 0.40460
# Poissons Ratio (y) = 0.40237 -0.05455
# Poissons Ratio (z) = 0.36687 -0.04319
#
# Static dielectric constant tensor:
#      x y z
#    x 1.733840 0.000000 0.000000 
#    y 0.000000 1.700880 0.000000 
#    z 0.000000 0.000000 1.731460 
# 
# From -- ./inp_files/51319.got.cif
#   From: 2010.05.17/outbox.cif.g08.bks.cpg/sg72_26_cif.got.tgz:51319.got - 2010.06.03 17:03:01.
