data_PCOD9528937
_publ_section_title
;
Structure prediction by ZEFSAII (Michael W. Deem and Ramdas Pophale) SiO2 
 PCOD9528937
Probable space group: I B A M
;
_chemical_formula_sum "Si O2"
_cell_formula_units_Z 112
_cell_length_a 14.850974
_cell_length_b 21.877239
_cell_length_c 17.388459
_cell_angle_alpha 90.000000
_cell_angle_beta 90.000000
_cell_angle_gamma 90.000000
_cell_volume 5649.480901
_symmetry_space_group_name_H-M "I B A M"
_symmetry_group_IT_number 72
_symmetry_cell_setting 'orthorhombic'
loop_
_space_group_symop_operation_xyz
x,y,z
-x,-y,z
x,-y,1/2-z
-x,y,1/2-z
-x,-y,-z
x,y,-z
-x,y,1/2+z
x,-y,1/2+z
1/2+x,1/2+y,1/2+z
1/2-x,1/2-y,1/2+z
1/2+x,1/2-y,-z
1/2-x,1/2+y,-z
1/2-x,1/2-y,1/2-z
1/2+x,1/2+y,1/2-z
1/2-x,1/2+y,z
1/2+x,1/2-y,z
loop_
_atom_site_type_symbol
_atom_site_label
_atom_site_fract_x
_atom_site_fract_y
_atom_site_fract_z
Si Si1 0.662428 0.225641 0.091524
Si Si2 0.906526 0.613079 0.656297
Si Si3 0.128974 0.256005 0.590395
Si Si4 0.721307 0.014810 0.590493
Si Si5 0.887983 0.404303 0.662115
Si Si6 0.521504 0.679005 0.339861
Si Si7 0.576747 0.450118 0.907841
O O1 0.766024 0.243902 0.104713
O O2 0.645501 0.157341 0.121303
O O3 0.596965 0.271836 0.135871
O O4 0.644125 0.229328 0.000000
O O5 0.903888 0.684550 0.636343
O O6 0.833394 0.576878 0.606797
O O7 0.885181 0.603772 0.746047
O O8 0.006700 0.587681 0.641178
O O9 0.116322 0.267709 0.500000
O O10 0.068713 0.198742 0.615230
O O11 0.718718 0.000293 0.500000
O O12 0.824910 0.024506 0.613493
O O13 0.671586 0.961258 0.636276
O O14 0.500000 0.681844 0.250000
O O15 0.554692 0.612492 0.364915
O O16 0.500000 0.500000 0.892273
O O17 0.578023 0.438123 0.000000
#
# Coordination Sequence:
#
# PCOD9528937 Si02
#       7
#    16  16  16  16  16  16  16
#     4  11  24  42  66  97 133 173 223 275 325 391
#     4  11  23  42  64  96 135 174 212 268 334 391
#     4  11  24  41  68  98 129 175 225 269 326 396
#     4  11  24  42  67  94 126 175 224 270 328 391
#     4  11  24  41  64  97 135 172 216 271 333 391
#     4  12  25  43  67 100 135 174 216 275 338 395
#     4  10  24  47  69  91 128 174 224 277 328 391
#
# _framework density 19.824829999999999
#
# number of rings (size 3 to 8) (size 9 to 14) (size 15 to 20)
#    0.000    1.000    1.429    4.714    2.000    9.429 
#    2.571    0.000    0.000    0.000    0.000    0.000 
#    0.000    0.000    0.000    0.000    0.000    0.000 
#
# Total GULP energy -313443.052937 kJ/mol
# GULP energy per Si atom -5597.197374 kJ/mol
# Density = 1.977971 g / cm^3
# Si number density = 19.824830 Si / 1000 Ang^3
#
#
#
# Elastic Constant Matrix: (Units=GPa)
#
#
# Indices 1 2 3 4 5 6 
#
# 1 145.5210 53.8774 67.4453 0.0001 0.0000 0.0000
# 2 53.8774 90.1153 33.5896 -0.0003 0.0000 0.0000
# 3 67.4453 33.5896 62.1067 -0.0009 0.0000 0.0000
# 4 0.0001 -0.0003 -0.0009 16.2750 -0.0001 0.0000
# 5 0.0000 0.0000 0.0000 -0.0001 41.4186 0.0000
# 6 0.0000 0.0000 0.0000 0.0000 0.0000 29.1681
#
#
#
# Elastic Compliance Matrix: (Units=1/GPa)
#
#
# Indices 1 2 3 4 5 6 
#
# 1 0.014691 -0.003553 -0.014032 -0.000001 0.000000 0.000000
# 2 -0.003553 0.014758 -0.004123 0.000000 0.000000 0.000000
# 3 -0.014032 -0.004123 0.033570 0.000002 0.000000 0.000000
# 4 -0.000001 0.000000 0.000002 0.061444 0.000000 0.000000
# 5 0.000000 0.000000 0.000000 0.000000 0.024144 0.000000
# 6 0.000000 0.000000 0.000000 0.000000 0.000000 0.034284
#
#
# Mechanical properties :
#
#
# Convention : Reuss Voigt Hill
#
# Bulk Modulus (GPa) = 51.01580 67.50752 59.26166
# Shear Modulus (GPa) = 21.47392 26.89439 24.18416
#
# Velocity S-wave (km/s) = 3.29475 3.68720 3.49648
# Velocity P-wave (km/s) = 6.34531 7.22864 6.80133
#
# Compressibility (1/GPa) = 0.01960177
#
# Stress axis : x y z
#
# Youngs Moduli (GPa) = 68.06992 67.75975 29.78881
#
# Poissons Ratio (x) = 0.24074 0.41800
# Poissons Ratio (y) = 0.24184 0.12283
# Poissons Ratio (z) = 0.95516 0.27940
#
# Static dielectric constant tensor:
#      x y z
#    x 1.684760 0.000000 0.000000 
#    y 0.000000 1.655890 0.000000 
#    z 0.000000 0.000000 1.678740 
# 
# From -- ./inp_files/22100.got.cif
#   From: 2010.05.17/outbox.cif.g08.bks.cpg/sg72_12_cif.got.tgz:22100.got - 2010.06.03 17:03:01.
