data_PCOD9528488
_publ_section_title
;
Structure prediction by ZEFSAII (Michael W. Deem and Ramdas Pophale) SiO2 
 PCOD9528488
Probable space group: I B A M
;
_chemical_formula_sum "Si O2"
_cell_formula_units_Z 112
_cell_length_a 12.517509
_cell_length_b 15.394425
_cell_length_c 26.517422
_cell_angle_alpha 90.000000
_cell_angle_beta 90.000000
_cell_angle_gamma 90.000000
_cell_volume 5109.903334
_symmetry_space_group_name_H-M "I B A M"
_symmetry_group_IT_number 72
_symmetry_cell_setting 'orthorhombic'
loop_
_space_group_symop_operation_xyz
x,y,z
-x,-y,z
x,-y,1/2-z
-x,y,1/2-z
-x,-y,-z
x,y,-z
-x,y,1/2+z
x,-y,1/2+z
1/2+x,1/2+y,1/2+z
1/2-x,1/2-y,1/2+z
1/2+x,1/2-y,-z
1/2-x,1/2+y,-z
1/2-x,1/2-y,1/2-z
1/2+x,1/2+y,1/2-z
1/2-x,1/2+y,z
1/2+x,1/2-y,z
loop_
_atom_site_type_symbol
_atom_site_label
_atom_site_fract_x
_atom_site_fract_y
_atom_site_fract_z
Si Si1 0.440074 0.589618 0.362482
Si Si2 0.300956 0.853041 0.441350
Si Si3 0.259901 0.546621 0.557920
Si Si4 0.037322 0.378572 0.056862
Si Si5 0.895301 0.719240 0.216276
Si Si6 0.310231 0.394338 0.760867
Si Si7 0.612851 0.270698 0.892006
O O1 0.500000 0.500000 0.351134
O O2 0.351073 0.580736 0.405760
O O3 0.378789 0.617763 0.311910
O O4 0.533160 0.651371 0.381895
O O5 0.309253 0.821180 0.500000
O O6 0.418695 0.876381 0.421199
O O7 0.235515 0.793224 0.403078
O O8 0.235670 0.942671 0.443255
O O9 0.269556 0.578600 0.500000
O O10 0.140624 0.570780 0.576820
O O11 0.074040 0.279504 0.058890
O O12 0.023047 0.409927 0.000000
O O13 0.806493 0.648867 0.232626
O O14 0.861453 0.822129 0.222802
O O15 0.905444 0.709536 0.156302
O O16 0.000000 0.706685 0.250000
O O17 0.309442 0.500000 0.750000
#
# Coordination Sequence:
#
# PCOD9528488 Si02
#       7
#    16  16  16  16  16  16  16
#     4  12  24  42  67  99 132 178 224 276 342 410
#     4  10  22  41  65  93 131 178 224 277 337 400
#     4  10  22  41  63  94 133 174 230 281 331 406
#     4  10  23  40  64  92 130 179 222 275 340 403
#     4  11  25  47  70 101 138 177 221 286 349 407
#     4  11  26  45  73 102 133 177 231 279 343 416
#     4  12  24  40  65  97 137 168 221 276 336 412
#
# _framework density 21.918222
#
# number of rings (size 3 to 8) (size 9 to 14) (size 15 to 20)
#    0.000    1.143    2.857    2.571    4.000    3.429 
#    0.000    0.000    0.000    0.000    0.000    0.000 
#    0.000    0.000    0.000    0.000    0.000    0.000 
#
# Total GULP energy -312368.917524 kJ/mol
# GULP energy per Si atom -5578.016384 kJ/mol
# Density = 2.186834 g / cm^3
# Si number density = 21.918222 Si / 1000 Ang^3
#
#
#
# Elastic Constant Matrix: (Units=GPa)
#
#
# Indices 1 2 3 4 5 6 
#
# 1 144.9791 11.7752 44.3642 0.0000 0.0000 0.0000
# 2 11.7752 77.3707 12.6629 0.0000 0.0000 0.0000
# 3 44.3642 12.6629 86.3291 0.0000 0.0000 0.0000
# 4 0.0000 0.0000 0.0000 21.0678 0.0000 0.0000
# 5 0.0000 0.0000 0.0000 0.0000 36.4415 0.0000
# 6 0.0000 0.0000 0.0000 0.0000 0.0000 30.8177
#
#
#
# Elastic Compliance Matrix: (Units=1/GPa)
#
#
# Indices 1 2 3 4 5 6 
#
# 1 0.008209 -0.000573 -0.004135 0.000000 0.000000 0.000000
# 2 -0.000573 0.013283 -0.001654 0.000000 0.000000 0.000000
# 3 -0.004135 -0.001654 0.013951 0.000000 0.000000 0.000000
# 4 0.000000 0.000000 0.000000 0.047466 0.000000 0.000000
# 5 0.000000 0.000000 0.000000 0.000000 0.027441 0.000000
# 6 0.000000 0.000000 0.000000 0.000000 0.000000 0.032449
#
#
# Mechanical properties :
#
#
# Convention : Reuss Voigt Hill
#
# Bulk Modulus (GPa) = 44.01388 49.58706 46.80047
# Shear Modulus (GPa) = 30.65695 33.65716 32.15705
#
# Velocity S-wave (km/s) = 3.74397 3.92290 3.83448
# Velocity P-wave (km/s) = 6.23011 6.57203 6.40336
#
# Compressibility (1/GPa) = 0.02272011
#
# Stress axis : x y z
#
# Youngs Moduli (GPa) = 121.81302 75.28616 71.67933
#
# Poissons Ratio (x) = 0.04311 0.29637
# Poissons Ratio (y) = 0.06976 0.11856
# Poissons Ratio (z) = 0.50366 0.12453
#
# Static dielectric constant tensor:
#      x y z
#    x 1.794920 0.000000 0.000000 
#    y 0.000000 1.835400 0.000000 
#    z 0.000000 0.000000 1.811740 
# 
# From -- ./inp_files/51460.got.cif
#   From: 2010.05.17/outbox.cif.g08.bks.cpg/sg72_26_cif.got.tgz:51460.got - 2010.06.03 17:03:01.
