data_PCOD9528342
_publ_section_title
;
Structure prediction by ZEFSAII (Michael W. Deem and Ramdas Pophale) SiO2 
 PCOD9528342
Probable space group: I B A M
;
_chemical_formula_sum "Si O2"
_cell_formula_units_Z 60
_cell_length_a 16.565514
_cell_length_b 16.770756
_cell_length_c 10.034271
_cell_angle_alpha 90.000000
_cell_angle_beta 90.000000
_cell_angle_gamma 90.000000
_cell_volume 2787.682972
_symmetry_space_group_name_H-M "I B A M"
_symmetry_group_IT_number 72
_symmetry_cell_setting 'orthorhombic'
loop_
_space_group_symop_operation_xyz
x,y,z
-x,-y,z
x,-y,1/2-z
-x,y,1/2-z
-x,-y,-z
x,y,-z
-x,y,1/2+z
x,-y,1/2+z
1/2+x,1/2+y,1/2+z
1/2-x,1/2-y,1/2+z
1/2+x,1/2-y,-z
1/2-x,1/2+y,-z
1/2-x,1/2-y,1/2-z
1/2+x,1/2+y,1/2-z
1/2-x,1/2+y,z
1/2+x,1/2-y,z
loop_
_atom_site_type_symbol
_atom_site_label
_atom_site_fract_x
_atom_site_fract_y
_atom_site_fract_z
Si Si1 0.000000 0.500000 0.250000
Si Si2 0.565377 0.206370 0.000000
Si Si3 0.500000 0.305589 0.750000
Si Si4 0.846347 0.905670 0.263962
Si Si5 0.224166 0.404552 0.000000
Si Si6 0.421809 0.916088 0.500000
Si Si7 0.248703 0.596359 0.000000
O O1 0.937661 0.460876 0.141876
O O2 0.545017 0.256140 0.866330
O O3 0.647621 0.154260 0.000000
O O4 0.497212 0.140856 0.000000
O O5 0.427911 0.361106 0.802904
O O6 0.778216 0.889086 0.371825
O O7 0.863142 0.000000 0.250000
O O8 0.804299 0.883942 0.124675
O O9 0.217207 0.502557 0.000000
O O10 0.339447 0.865385 0.500000
#
# Coordination Sequence:
#
# PCOD9528342 Si02
#       7
#     4   8   8  16   8   8   8
#     4  10  22  38  68  92 136 188 226 286 316 400
#     4  12  28  42  63  98 146 186 213 264 346 437
#     4  12  26  48  66  98 138 186 228 268 348 414
#     4  10  23  45  74 100 126 173 235 302 329 385
#     4  10  23  43  66 102 134 170 225 283 346 400
#     4  11  24  39  63  99 138 183 223 276 337 406
#     4  10  23  39  71 101 130 165 235 292 339 377
#
# _framework density 21.523251999999999
#
# number of rings (size 3 to 8) (size 9 to 14) (size 15 to 20)
#    0.000    1.333    0.000    4.400   13.067    1.067 
#    4.800    5.333    0.000    0.000    0.000    0.000 
#    0.000    0.000    0.000    0.000    0.000    0.000 
#
# Total GULP energy -167267.364569 kJ/mol
# GULP energy per Si atom -5575.578819 kJ/mol
# Density = 2.147426 g / cm^3
# Si number density = 21.523252 Si / 1000 Ang^3
#
#
#
# Elastic Constant Matrix: (Units=GPa)
#
#
# Indices 1 2 3 4 5 6 
#
# 1 136.5715 57.8491 16.8524 0.0000 0.0000 0.0000
# 2 57.8491 59.6031 29.3555 0.0000 0.0000 0.0000
# 3 16.8524 29.3555 110.2256 0.0000 0.0000 0.0000
# 4 0.0000 0.0000 0.0000 27.9819 0.0000 0.0000
# 5 0.0000 0.0000 0.0000 0.0000 43.4134 0.0000
# 6 0.0000 0.0000 0.0000 0.0000 0.0000 66.2648
#
#
#
# Elastic Compliance Matrix: (Units=1/GPa)
#
#
# Indices 1 2 3 4 5 6 
#
# 1 0.012657 -0.013042 0.001538 0.000000 0.000000 0.000000
# 2 -0.013042 0.032749 -0.006728 0.000000 0.000000 0.000000
# 3 0.001538 -0.006728 0.010629 0.000000 0.000000 0.000000
# 4 0.000000 0.000000 0.000000 0.035737 0.000000 0.000000
# 5 0.000000 0.000000 0.000000 0.000000 0.023034 0.000000
# 6 0.000000 0.000000 0.000000 0.000000 0.000000 0.015091
#
#
# Mechanical properties :
#
#
# Convention : Reuss Voigt Hill
#
# Bulk Modulus (GPa) = 51.09358 57.16822 54.13090
# Shear Modulus (GPa) = 28.92109 41.02155 34.97132
#
# Velocity S-wave (km/s) = 3.66965 4.37042 4.03527
# Velocity P-wave (km/s) = 6.46107 7.21708 6.84951
#
# Compressibility (1/GPa) = 0.01957193
#
# Stress axis : x y z
#
# Youngs Moduli (GPa) = 79.01026 30.53510 94.08305
#
# Poissons Ratio (x) = 0.39823 -0.14472
# Poissons Ratio (y) = 1.03043 0.63298
# Poissons Ratio (z) = -0.12154 0.20544
#
# Static dielectric constant tensor:
#      x y z
#    x 1.792380 0.000000 0.000000 
#    y 0.000000 2.091170 0.000000 
#    z 0.000000 0.000000 1.684330 
# 
# From -- ./inp_files/4239.got.cif
#   From: 2010.05.17/outbox.cif.g08.bks.cpg/sg72_3_cif.got.tgz:4239.got - 2010.06.03 17:03:01.
