data_PCOD9528496
_publ_section_title
;
Structure prediction by ZEFSAII (Michael W. Deem and Ramdas Pophale) SiO2 
 PCOD9528496
Probable space group: I B A M
;
_chemical_formula_sum "Si O2"
_cell_formula_units_Z 52
_cell_length_a 14.966640
_cell_length_b 10.079085
_cell_length_c 13.315815
_cell_angle_alpha 90.000000
_cell_angle_beta 90.000000
_cell_angle_gamma 90.000000
_cell_volume 2008.691182
_symmetry_space_group_name_H-M "I B A M"
_symmetry_group_IT_number 72
_symmetry_cell_setting 'orthorhombic'
loop_
_space_group_symop_operation_xyz
x,y,z
-x,-y,z
x,-y,1/2-z
-x,y,1/2-z
-x,-y,-z
x,y,-z
-x,y,1/2+z
x,-y,1/2+z
1/2+x,1/2+y,1/2+z
1/2-x,1/2-y,1/2+z
1/2+x,1/2-y,-z
1/2-x,1/2+y,-z
1/2-x,1/2-y,1/2-z
1/2+x,1/2+y,1/2-z
1/2-x,1/2+y,z
1/2+x,1/2-y,z
loop_
_atom_site_type_symbol
_atom_site_label
_atom_site_fract_x
_atom_site_fract_y
_atom_site_fract_z
Si Si1 0.946160 0.265019 0.380379
Si Si2 0.220384 0.924573 0.622202
Si Si3 0.647720 0.296596 0.378555
Si Si4 0.500000 0.000000 0.750000
O O1 0.942767 0.289610 0.500000
O O2 0.866114 0.166242 0.355734
O O3 0.042770 0.201267 0.355791
O O4 0.944150 0.403548 0.322526
O O5 0.225752 0.932918 0.500000
O O6 0.305969 0.839712 0.654187
O O7 0.201984 0.074300 0.656523
O O8 0.652521 0.298494 0.500000
#
# Coordination Sequence:
#
# PCOD9528496 Si02
#       4
#    16  16  16   4
#     4  10  22  41  65  89 128 169 204 258 316 366
#     4   9  18  34  62  96 126 163 209 253 309 376
#     4   9  18  34  62  96 126 163 209 253 309 376
#     4  12  26  40  62  98 124 162 220 264 300 382
#
# _framework density 25.887502000000001
#
# number of rings (size 3 to 8) (size 9 to 14) (size 15 to 20)
#    0.000    2.462    0.000    1.385    4.308    3.692 
#    0.000    4.615    0.000    0.000    0.000    0.000 
#    0.000    0.000    0.000    0.000    0.000    0.000 
#
# Total GULP energy -145840.051874 kJ/mol
# GULP energy per Si atom -5609.232764 kJ/mol
# Density = 2.582858 g / cm^3
# Si number density = 25.887502 Si / 1000 Ang^3
#
#
#
# Elastic Constant Matrix: (Units=GPa)
#
#
# Indices 1 2 3 4 5 6 
#
# 1 108.5831 31.2682 20.8978 0.0000 0.0000 0.0000
# 2 31.2682 146.6508 37.1399 0.0000 0.0000 0.0000
# 3 20.8978 37.1399 115.3792 0.0000 0.0000 0.0000
# 4 0.0000 0.0000 0.0000 59.0822 0.0000 0.0000
# 5 0.0000 0.0000 0.0000 0.0000 39.6052 0.0000
# 6 0.0000 0.0000 0.0000 0.0000 0.0000 25.5586
#
#
#
# Elastic Compliance Matrix: (Units=1/GPa)
#
#
# Indices 1 2 3 4 5 6 
#
# 1 0.009967 -0.001816 -0.001221 0.000000 0.000000 0.000000
# 2 -0.001816 0.007755 -0.002167 0.000000 0.000000 0.000000
# 3 -0.001221 -0.002167 0.009586 0.000000 0.000000 0.000000
# 4 0.000000 0.000000 0.000000 0.016926 0.000000 0.000000
# 5 0.000000 0.000000 0.000000 0.000000 0.025249 0.000000
# 6 0.000000 0.000000 0.000000 0.000000 0.000000 0.039126
#
#
# Mechanical properties :
#
#
# Convention : Reuss Voigt Hill
#
# Bulk Modulus (GPa) = 59.17173 61.02498 60.09836
# Shear Modulus (GPa) = 40.11213 43.60302 41.85757
#
# Velocity S-wave (km/s) = 3.94061 4.10851 4.02544
# Velocity P-wave (km/s) = 6.60390 6.79196 6.69859
#
# Compressibility (1/GPa) = 0.01689996
#
# Stress axis : x y z
#
# Youngs Moduli (GPa) = 100.32667 128.94868 104.32051
#
# Poissons Ratio (x) = 0.23418 0.12735
# Poissons Ratio (y) = 0.18220 0.22610
# Poissons Ratio (z) = 0.12247 0.27948
#
# Static dielectric constant tensor:
#      x y z
#    x 1.965290 0.000000 0.000000 
#    y 0.000000 1.931760 0.000000 
#    z 0.000000 0.000000 2.121460 
# 
# From -- ./inp_files/18294.got.cif
#   From: 2010.05.17/outbox.cif.g08.bks.cpg/sg72_10_cif.got.tgz:18294.got - 2010.06.03 17:03:01.
