data_PCOD9528984
_publ_section_title
;
Structure prediction by ZEFSAII (Michael W. Deem and Ramdas Pophale) SiO2 
 PCOD9528984
Probable space group: I B A M
;
_chemical_formula_sum "Si O2"
_cell_formula_units_Z 96
_cell_length_a 19.892550
_cell_length_b 19.787696
_cell_length_c 13.456537
_cell_angle_alpha 90.000000
_cell_angle_beta 90.000000
_cell_angle_gamma 90.000000
_cell_volume 5296.866141
_symmetry_space_group_name_H-M "I B A M"
_symmetry_group_IT_number 72
_symmetry_cell_setting 'orthorhombic'
loop_
_space_group_symop_operation_xyz
x,y,z
-x,-y,z
x,-y,1/2-z
-x,y,1/2-z
-x,-y,-z
x,y,-z
-x,y,1/2+z
x,-y,1/2+z
1/2+x,1/2+y,1/2+z
1/2-x,1/2-y,1/2+z
1/2+x,1/2-y,-z
1/2-x,1/2+y,-z
1/2-x,1/2-y,1/2-z
1/2+x,1/2+y,1/2-z
1/2-x,1/2+y,z
1/2+x,1/2-y,z
loop_
_atom_site_type_symbol
_atom_site_label
_atom_site_fract_x
_atom_site_fract_y
_atom_site_fract_z
Si Si1 0.784274 0.821010 0.779911
Si Si2 0.072337 0.226025 0.277520
Si Si3 0.093664 0.730942 0.000000
Si Si4 0.228099 0.652648 0.000000
Si Si5 0.703152 0.061558 0.806769
Si Si6 0.995127 0.405662 0.000000
Si Si7 0.566872 0.118311 0.203162
Si Si8 0.354690 0.987569 0.500000
O O1 0.750000 0.750000 0.750000
O O2 0.863567 0.812809 0.764389
O O3 0.752134 0.875310 0.703658
O O4 0.767127 0.840030 0.894707
O O5 0.077982 0.232688 0.396448
O O6 0.073023 0.302267 0.230038
O O7 0.000000 0.196424 0.250000
O O8 0.171705 0.710929 0.000000
O O9 0.050240 0.662167 0.000000
O O10 0.187416 0.582292 0.000000
O O11 0.633787 0.085152 0.754053
O O12 0.736593 0.000000 0.750000
O O13 0.673450 0.031339 0.907759
O O14 0.047074 0.396933 0.090725
O O15 0.935150 0.464153 0.000000
O O16 0.500000 0.089029 0.250000
#
# Coordination Sequence:
#
# PCOD9528984 Si02
#       8
#    16  16   8   8  16   8  16   8
#     4  12  24  42  67  97 125 171 228 280 332 403
#     4  11  23  39  63  95 130 169 217 279 341 394
#     4  11  18  35  60  87 134 167 206 264 336 380
#     4  11  22  40  65  93 132 170 206 280 339 383
#     4  12  24  40  60  88 128 172 222 266 327 395
#     4  11  21  35  56  87 133 180 216 258 310 394
#     4  11  21  34  55  87 127 171 215 257 310 392
#     4  11  25  40  61  89 131 184 217 261 336 397
#
# _framework density 18.123923999999999
#
# number of rings (size 3 to 8) (size 9 to 14) (size 15 to 20)
#    0.000    0.667    8.333    1.500    0.000    5.667 
#    0.000    0.000    0.000    0.500    0.000    1.167 
#    0.000    0.000    0.000    0.000    0.000    0.000 
#
# Total GULP energy -267527.772845 kJ/mol
# GULP energy per Si atom -5573.495268 kJ/mol
# Density = 1.808267 g / cm^3
# Si number density = 18.123924 Si / 1000 Ang^3
#
#
#
# Elastic Constant Matrix: (Units=GPa)
#
#
# Indices 1 2 3 4 5 6 
#
# 1 145.4819 45.5997 46.8370 0.0000 0.0000 0.0000
# 2 45.5997 79.8845 29.2248 0.0000 0.0000 0.0000
# 3 46.8370 29.2248 129.7064 0.0000 0.0000 0.0000
# 4 0.0000 0.0000 0.0000 21.2181 0.0000 0.0000
# 5 0.0000 0.0000 0.0000 0.0000 118.3880 0.0000
# 6 0.0000 0.0000 0.0000 0.0000 0.0000 27.4056
#
#
#
# Elastic Compliance Matrix: (Units=1/GPa)
#
#
# Indices 1 2 3 4 5 6 
#
# 1 0.008944 -0.004276 -0.002266 0.000000 0.000000 0.000000
# 2 -0.004276 0.015687 -0.001990 0.000000 0.000000 0.000000
# 3 -0.002266 -0.001990 0.008976 0.000000 0.000000 0.000000
# 4 0.000000 0.000000 0.000000 0.047129 0.000000 0.000000
# 5 0.000000 0.000000 0.000000 0.000000 0.008447 0.000000
# 6 0.000000 0.000000 0.000000 0.000000 0.000000 0.036489
#
#
# Mechanical properties :
#
#
# Convention : Reuss Voigt Hill
#
# Bulk Modulus (GPa) = 60.45244 66.48841 63.47043
# Shear Modulus (GPa) = 33.72645 48.96310 41.34478
#
# Velocity S-wave (km/s) = 4.31847 5.20330 4.78140
# Velocity P-wave (km/s) = 7.63499 8.53606 8.09807
#
# Compressibility (1/GPa) = 0.01654193
#
# Stress axis : x y z
#
# Youngs Moduli (GPa) = 111.81225 63.74639 111.40244
#
# Poissons Ratio (x) = 0.27259 0.25244
# Poissons Ratio (y) = 0.47813 0.22174
# Poissons Ratio (z) = 0.25337 0.12688
#
# Static dielectric constant tensor:
#      x y z
#    x 1.623300 0.000000 0.000000 
#    y 0.000000 1.633860 0.000000 
#    z 0.000000 0.000000 2.877850 
# 
# From -- ./inp_files/14826.got.cif
#   From: 2010.05.17/outbox.cif.g08.bks.cpg/sg72_8_cif.got.tgz:14826.got - 2010.06.03 17:03:01.
