data_PCOD9528417
_publ_section_title
;
Structure prediction by ZEFSAII (Michael W. Deem and Ramdas Pophale) SiO2 
 PCOD9528417
Probable space group: I B A M
;
_chemical_formula_sum "Si O2"
_cell_formula_units_Z 84
_cell_length_a 8.440539
_cell_length_b 23.314837
_cell_length_c 21.096600
_cell_angle_alpha 90.000000
_cell_angle_beta 90.000000
_cell_angle_gamma 90.000000
_cell_volume 4151.595504
_symmetry_space_group_name_H-M "I B A M"
_symmetry_group_IT_number 72
_symmetry_cell_setting 'orthorhombic'
loop_
_space_group_symop_operation_xyz
x,y,z
-x,-y,z
x,-y,1/2-z
-x,y,1/2-z
-x,-y,-z
x,y,-z
-x,y,1/2+z
x,-y,1/2+z
1/2+x,1/2+y,1/2+z
1/2-x,1/2-y,1/2+z
1/2+x,1/2-y,-z
1/2-x,1/2+y,-z
1/2-x,1/2-y,1/2-z
1/2+x,1/2+y,1/2-z
1/2-x,1/2+y,z
1/2+x,1/2-y,z
loop_
_atom_site_type_symbol
_atom_site_label
_atom_site_fract_x
_atom_site_fract_y
_atom_site_fract_z
Si Si1 0.256582 0.014194 0.500000
Si Si2 0.000000 0.648889 0.250000
Si Si3 0.665346 0.755436 0.819270
Si Si4 0.732838 0.923408 0.194752
Si Si5 0.500000 0.500000 0.750000
Si Si6 0.458526 0.400680 0.500000
Si Si7 0.416470 0.324442 0.623264
Si Si8 0.000000 0.500000 0.610637
O O1 0.365533 0.023066 0.562174
O O2 0.113184 0.059063 0.500000
O O3 0.184660 0.948570 0.500000
O O4 0.041963 0.691872 0.192754
O O5 0.148544 0.605933 0.255393
O O6 0.750000 0.750000 0.750000
O O7 0.568067 0.699648 0.839284
O O8 0.790530 0.771953 0.873785
O O9 0.877313 0.964852 0.208263
O O10 0.818362 0.871313 0.161209
O O11 0.595432 0.954760 0.154490
O O12 0.454744 0.357332 0.559135
#
# Coordination Sequence:
#
# PCOD9528417 Si02
#       8
#     8   8  16  16   4   8  16   8
#     4  10  24  44  72  95 129 177 231 284 326 417
#     4  10  22  40  62  92 132 174 214 272 334 418
#     4  11  22  42  68  98 131 172 225 273 344 416
#     4  11  25  39  66  96 139 177 222 275 350 405
#     4  12  28  36  60 106 140 172 224 292 334 420
#     4  11  24  48  68 101 131 175 239 282 350 402
#     4  11  25  41  68  96 131 182 221 287 337 414
#     4  11  22  45  66  98 132 179 226 275 336 416
#
# _framework density 20.233184000000001
#
# number of rings (size 3 to 8) (size 9 to 14) (size 15 to 20)
#    0.000    1.143    3.810    1.143    8.000    2.286 
#    0.000    0.000    0.000    0.000    0.000    0.000 
#    0.000    0.000    0.000    0.000    0.000    0.000 
#
# Total GULP energy -233972.737263 kJ/mol
# GULP energy per Si atom -5570.779459 kJ/mol
# Density = 2.018713 g / cm^3
# Si number density = 20.233184 Si / 1000 Ang^3
#
#
#
# Elastic Constant Matrix: (Units=GPa)
#
#
# Indices 1 2 3 4 5 6 
#
# 1 146.6381 84.9267 71.4189 0.0000 0.0000 0.0000
# 2 84.9267 114.2897 59.4298 0.0000 0.0000 0.0000
# 3 71.4189 59.4298 86.8313 0.0000 0.0000 0.0000
# 4 0.0000 0.0000 0.0000 35.2445 0.0000 0.0000
# 5 0.0000 0.0000 0.0000 0.0000 33.2143 0.0000
# 6 0.0000 0.0000 0.0000 0.0000 0.0000 -1.6737
#
#
#
# Elastic Compliance Matrix: (Units=1/GPa)
#
#
# Indices 1 2 3 4 5 6 
#
# 1 0.014236 -0.006971 -0.006938 0.000000 0.000000 0.000000
# 2 -0.006971 0.016997 -0.005900 0.000000 0.000000 0.000000
# 3 -0.006938 -0.005900 0.021261 0.000000 0.000000 0.000000
# 4 0.000000 0.000000 0.000000 0.028373 0.000000 0.000000
# 5 0.000000 0.000000 0.000000 0.000000 0.030107 0.000000
# 6 0.000000 0.000000 0.000000 0.000000 0.000000 -0.597464
#
#
# Mechanical properties :
#
#
# Convention : Reuss Voigt Hill
#
# Bulk Modulus (GPa) = 77.65843 86.59000 82.12421
# Shear Modulus (GPa) = -11.29741 22.15594 5.42926
#
# Velocity S-wave (km/s) = -2.36553 3.31271 1.63987
# Velocity P-wave (km/s) = 5.56813 7.58426 6.65301
#
# Compressibility (1/GPa) = 0.01287690
#
# Stress axis : x y z
#
# Youngs Moduli (GPa) = 70.24605 58.83223 47.03351
#
# Poissons Ratio (x) = 0.41009 0.32632
# Poissons Ratio (y) = 0.48965 0.27751
# Poissons Ratio (z) = 0.48737 0.34713
#
# Static dielectric constant tensor:
#      x y z
#    x 1.652170 0.000000 0.000000 
#    y 0.000000 1.995130 0.000000 
#    z 0.000000 0.000000 1.695350 
# 
# From -- ./inp_files/35821.got.cif
#   From: 2010.05.17/outbox.cif.g08.bks.cpg/sg72_18_cif.got.tgz:35821.got - 2010.06.03 17:03:01.
