data_PCOD9528985
_publ_section_title
;
Structure prediction by ZEFSAII (Michael W. Deem and Ramdas Pophale) SiO2 
 PCOD9528985
Probable space group: I B A M
;
_chemical_formula_sum "Si O2"
_cell_formula_units_Z 80
_cell_length_a 10.934876
_cell_length_b 23.941359
_cell_length_c 14.575513
_cell_angle_alpha 90.000000
_cell_angle_beta 90.000000
_cell_angle_gamma 90.000000
_cell_volume 3815.807969
_symmetry_space_group_name_H-M "I B A M"
_symmetry_group_IT_number 72
_symmetry_cell_setting 'orthorhombic'
loop_
_space_group_symop_operation_xyz
x,y,z
-x,-y,z
x,-y,1/2-z
-x,y,1/2-z
-x,-y,-z
x,y,-z
-x,y,1/2+z
x,-y,1/2+z
1/2+x,1/2+y,1/2+z
1/2-x,1/2-y,1/2+z
1/2+x,1/2-y,-z
1/2-x,1/2+y,-z
1/2-x,1/2-y,1/2-z
1/2+x,1/2+y,1/2-z
1/2-x,1/2+y,z
1/2+x,1/2-y,z
loop_
_atom_site_type_symbol
_atom_site_label
_atom_site_fract_x
_atom_site_fract_y
_atom_site_fract_z
Si Si1 0.247958 0.910669 0.901572
Si Si2 0.021719 0.866773 0.641565
Si Si3 0.703326 0.724396 0.604639
Si Si4 0.643383 0.828256 0.267161
Si Si5 0.367102 0.481719 0.643027
O O1 0.316113 0.886417 0.813176
O O2 0.109157 0.886205 0.896404
O O3 0.233745 0.977762 0.898277
O O4 0.302320 0.894057 0.000000
O O5 0.075577 0.809640 0.604066
O O6 0.123686 0.915624 0.629378
O O7 0.000000 0.860561 0.750000
O O8 0.747042 0.730311 0.500000
O O9 0.683655 0.782802 0.656289
O O10 0.789693 0.688785 0.672906
O O11 0.500000 0.826086 0.250000
O O12 0.500000 0.500000 0.606568
O O13 0.367395 0.500000 0.750000
#
# Coordination Sequence:
#
# PCOD9528985 Si02
#       5
#    16  16  16  16  16
#     4  11  22  36  61  94 128 164 206 257 314 375
#     4  11  18  36  62  96 130 162 200 260 321 375
#     4  11  24  40  64  93 123 165 213 261 315 373
#     4  11  25  44  62  86 126 172 213 259 309 373
#     4   9  15  30  55  87 125 158 192 240 308 367
#
# _framework density 20.965415
#
# number of rings (size 3 to 8) (size 9 to 14) (size 15 to 20)
#    0.000    1.400    6.000    1.800    2.800    6.000 
#    0.000    0.000    0.000    5.400    0.000    7.000 
#    0.000    0.000    0.000    0.000    0.000    0.000 
#
# Total GULP energy -223231.769255 kJ/mol
# GULP energy per Si atom -5580.794231 kJ/mol
# Density = 2.091770 g / cm^3
# Si number density = 20.965415 Si / 1000 Ang^3
#
#
#
# Elastic Constant Matrix: (Units=GPa)
#
#
# Indices 1 2 3 4 5 6 
#
# 1 55.6514 2.4181 27.9188 0.0000 0.0000 0.0000
# 2 2.4181 64.5486 17.1174 -0.0001 0.0000 0.0000
# 3 27.9188 17.1174 165.9716 0.0000 0.0000 0.0000
# 4 0.0000 -0.0001 0.0000 8.0796 0.0000 0.0000
# 5 0.0000 0.0000 0.0000 0.0000 -8.4291 0.0000
# 6 0.0000 0.0000 0.0000 0.0000 0.0000 17.7932
#
#
#
# Elastic Compliance Matrix: (Units=1/GPa)
#
#
# Indices 1 2 3 4 5 6 
#
# 1 0.019626 0.000144 -0.003316 0.000000 0.000000 0.000000
# 2 0.000144 0.015929 -0.001667 0.000000 0.000000 0.000000
# 3 -0.003316 -0.001667 0.006755 0.000000 0.000000 0.000000
# 4 0.000000 0.000000 0.000000 0.123768 0.000000 0.000000
# 5 0.000000 0.000000 0.000000 0.000000 -0.118637 0.000000
# 6 0.000000 0.000000 0.000000 0.000000 0.000000 0.056201
#
#
# Mechanical properties :
#
#
# Convention : Reuss Voigt Hill
#
# Bulk Modulus (GPa) = 30.64492 42.34226 36.49359
# Shear Modulus (GPa) = 40.25813 19.40322 29.83068
#
# Velocity S-wave (km/s) = 4.38678 3.04548 3.77616
# Velocity P-wave (km/s) = 6.34879 5.71023 6.03795
#
# Compressibility (1/GPa) = 0.03263184
#
# Stress axis : x y z
#
# Youngs Moduli (GPa) = 50.95164 62.77905 148.04039
#
# Poissons Ratio (x) = -0.00905 0.49095
# Poissons Ratio (y) = -0.00735 0.24679
# Poissons Ratio (z) = 0.16897 0.10466
#
# Static dielectric constant tensor:
#      x y z
#    x 1.721010 0.000000 0.000000 
#    y 0.000000 1.792330 0.000000 
#    z 0.000000 0.000000 1.820750 
# 
# From -- ./inp_files/20197.got.cif
#   From: 2010.05.17/outbox.cif.g08.bks.cpg/sg72_11_cif.got.tgz:20197.got - 2010.06.03 17:03:01.
