data_PCOD9528494
_publ_section_title
;
Structure prediction by ZEFSAII (Michael W. Deem and Ramdas Pophale) SiO2 
 PCOD9528494
Probable space group: I B A M
;
_chemical_formula_sum "Si O2"
_cell_formula_units_Z 60
_cell_length_a 13.743727
_cell_length_b 21.205476
_cell_length_c 10.233860
_cell_angle_alpha 90.000000
_cell_angle_beta 90.000000
_cell_angle_gamma 90.000000
_cell_volume 2982.579420
_symmetry_space_group_name_H-M "I B A M"
_symmetry_group_IT_number 72
_symmetry_cell_setting 'orthorhombic'
loop_
_space_group_symop_operation_xyz
x,y,z
-x,-y,z
x,-y,1/2-z
-x,y,1/2-z
-x,-y,-z
x,y,-z
-x,y,1/2+z
x,-y,1/2+z
1/2+x,1/2+y,1/2+z
1/2-x,1/2-y,1/2+z
1/2+x,1/2-y,-z
1/2-x,1/2+y,-z
1/2-x,1/2-y,1/2-z
1/2+x,1/2+y,1/2-z
1/2-x,1/2+y,z
1/2+x,1/2-y,z
loop_
_atom_site_type_symbol
_atom_site_label
_atom_site_fract_x
_atom_site_fract_y
_atom_site_fract_z
Si Si1 0.863864 0.555847 0.847656
Si Si2 0.000000 0.337595 0.250000
Si Si3 0.658552 0.739842 0.154287
Si Si4 0.347381 0.400812 0.847371
Si Si5 0.000000 0.000000 0.250000
O O1 0.893555 0.500000 0.750000
O O2 0.757905 0.578527 0.794374
O O3 0.936175 0.615151 0.838374
O O4 0.858490 0.535051 0.000000
O O5 0.923723 0.292128 0.177449
O O6 0.750000 0.750000 0.250000
O O7 0.622074 0.669495 0.192185
O O8 0.686220 0.741029 0.000000
O O9 0.428413 0.453206 0.825619
O O10 0.329115 0.396301 0.000000
#
# Coordination Sequence:
#
# PCOD9528494 Si02
#       5
#    16   8  16  16   4
#     4  11  24  44  67  97 135 174 219 274 330 395
#     4  12  24  42  72 100 128 180 224 270 336 406
#     4  11  24  44  69  99 134 175 223 278 336 401
#     4  10  22  41  64  94 131 167 214 273 327 386
#     4  12  20  40  68  94 120 176 220 264 326 400
#
# _framework density 20.116816
#
# number of rings (size 3 to 8) (size 9 to 14) (size 15 to 20)
#    0.000    1.067    4.000    2.400    0.000    4.267 
#    0.000    2.667    0.000    0.000    0.000    0.000 
#    0.000    0.000    0.000    0.000    0.000    0.000 
#
# Total GULP energy -167344.804670 kJ/mol
# GULP energy per Si atom -5578.160156 kJ/mol
# Density = 2.007103 g / cm^3
# Si number density = 20.116816 Si / 1000 Ang^3
#
#
#
# Elastic Constant Matrix: (Units=GPa)
#
#
# Indices 1 2 3 4 5 6 
#
# 1 131.5617 63.7184 34.6496 0.0000 0.0000 0.0000
# 2 63.7184 170.8815 49.6622 0.0000 0.0000 -0.0001
# 3 34.6496 49.6622 89.1869 -0.0001 0.0002 -0.0002
# 4 0.0000 0.0000 -0.0001 20.1219 0.0001 -0.0001
# 5 0.0000 0.0000 0.0002 0.0001 -6.3618 0.0001
# 6 0.0000 -0.0001 -0.0002 -0.0001 0.0001 103.5772
#
#
#
# Elastic Compliance Matrix: (Units=1/GPa)
#
#
# Indices 1 2 3 4 5 6 
#
# 1 0.009586 -0.002973 -0.002069 0.000000 0.000000 0.000000
# 2 -0.002973 0.007904 -0.003246 0.000000 0.000000 0.000000
# 3 -0.002069 -0.003246 0.013824 0.000000 0.000000 0.000000
# 4 0.000000 0.000000 0.000000 0.049697 0.000000 0.000000
# 5 0.000000 0.000000 0.000000 0.000000 -0.157188 0.000000
# 6 0.000000 0.000000 0.000000 0.000000 0.000000 0.009655
#
#
# Mechanical properties :
#
#
# Convention : Reuss Voigt Hill
#
# Bulk Modulus (GPa) = 67.85326 76.41004 72.13165
# Shear Modulus (GPa) = -111.02528 39.70745 -35.65891
#
# Velocity S-wave (km/s) = -7.43708 4.44762 -4.21478
# Velocity P-wave (km/s) = 6.32012 8.02749 3.49977
#
# Compressibility (1/GPa) = 0.01473769
#
# Stress axis : x y z
#
# Youngs Moduli (GPa) = 104.32120 126.51730 72.33998
#
# Poissons Ratio (x) = 0.37616 0.14964
# Poissons Ratio (y) = 0.31017 0.23483
# Poissons Ratio (z) = 0.21579 0.41069
#
# Static dielectric constant tensor:
#      x y z
#    x -5.249710 0.000000 0.000000 
#    y 0.000000 1.744830 0.000000 
#    z 0.000000 0.000000 1.689260 
# 
# From -- ./inp_files/11216.got.cif
#   From: 2010.05.17/outbox.cif.g08.bks.cpg/sg72_6_cif.got.tgz:11216.got - 2010.06.03 17:03:01.
