data_PCOD9528036
_publ_section_title
;
Structure prediction by ZEFSAII (Michael W. Deem and Ramdas Pophale) SiO2 
 PCOD9528036
Probable space group: I B A M
;
_chemical_formula_sum "Si O2"
_cell_formula_units_Z 112
_cell_length_a 27.900029
_cell_length_b 11.465271
_cell_length_c 17.653249
_cell_angle_alpha 90.000000
_cell_angle_beta 90.000000
_cell_angle_gamma 90.000000
_cell_volume 5646.945888
_symmetry_space_group_name_H-M "I B A M"
_symmetry_group_IT_number 72
_symmetry_cell_setting 'orthorhombic'
loop_
_space_group_symop_operation_xyz
x,y,z
-x,-y,z
x,-y,1/2-z
-x,y,1/2-z
-x,-y,-z
x,y,-z
-x,y,1/2+z
x,-y,1/2+z
1/2+x,1/2+y,1/2+z
1/2-x,1/2-y,1/2+z
1/2+x,1/2-y,-z
1/2-x,1/2+y,-z
1/2-x,1/2-y,1/2-z
1/2+x,1/2+y,1/2-z
1/2-x,1/2+y,z
1/2+x,1/2-y,z
loop_
_atom_site_type_symbol
_atom_site_label
_atom_site_fract_x
_atom_site_fract_y
_atom_site_fract_z
Si Si1 0.413205 0.316546 0.146632
Si Si2 0.655688 0.506982 0.414547
Si Si3 0.608267 0.690808 0.682521
Si Si4 0.759013 0.820777 0.411033
Si Si5 0.171498 0.585158 0.322634
Si Si6 0.013230 0.865206 0.409641
Si Si7 0.838972 0.638337 0.411690
O O1 0.389192 0.419136 0.096743
O O2 0.407246 0.349602 0.234115
O O3 0.467435 0.296458 0.122296
O O4 0.380580 0.204202 0.132622
O O5 0.655247 0.554623 0.500000
O O6 0.648919 0.607538 0.353374
O O7 0.702427 0.426409 0.405680
O O8 0.629427 0.820930 0.687461
O O9 0.562100 0.675891 0.629058
O O10 0.742996 0.816175 0.500000
O O11 0.718296 0.844880 0.349987
O O12 0.788725 0.702957 0.394062
O O13 0.177938 0.500000 0.250000
O O14 0.161760 0.495705 0.390815
O O15 0.016763 0.854651 0.500000
O O16 0.000000 0.000000 0.391322
O O17 0.847205 0.658690 0.500000
#
# Coordination Sequence:
#
# PCOD9528036 Si02
#       7
#    16  16  16  16  16  16  16
#     4  11  21  41  66  94 130 171 209 271 335 402
#     4  10  21  39  63  97 134 170 218 273 330 393
#     4  12  25  39  65  98 138 170 216 273 336 392
#     4   9  22  41  66  94 125 175 228 272 324 389
#     4  12  26  44  62  93 137 177 222 275 328 390
#     4  11  23  40  67 103 134 164 209 267 332 403
#     4  10  22  43  67  90 126 178 226 268 324 391
#
# _framework density 19.833731
#
# number of rings (size 3 to 8) (size 9 to 14) (size 15 to 20)
#    0.000    1.286    2.857    3.857    2.000    5.714 
#    0.000    0.714    0.000    1.714    0.000    0.000 
#    0.000    0.000    0.000    0.000    0.000    0.000 
#
# Total GULP energy -312986.915359 kJ/mol
# GULP energy per Si atom -5589.052060 kJ/mol
# Density = 1.978859 g / cm^3
# Si number density = 19.833731 Si / 1000 Ang^3
#
#
#
# Elastic Constant Matrix: (Units=GPa)
#
#
# Indices 1 2 3 4 5 6 
#
# 1 86.8621 22.6974 42.1719 0.0000 0.0000 0.0000
# 2 22.6974 64.4466 17.9018 0.0000 0.0000 0.0000
# 3 42.1719 17.9018 88.6481 0.0000 0.0000 0.0000
# 4 0.0000 0.0000 0.0000 28.6340 0.0000 0.0000
# 5 0.0000 0.0000 0.0000 0.0000 22.6843 0.0000
# 6 0.0000 0.0000 0.0000 0.0000 0.0000 12.7264
#
#
#
# Elastic Compliance Matrix: (Units=1/GPa)
#
#
# Indices 1 2 3 4 5 6 
#
# 1 0.015750 -0.003672 -0.006751 0.000000 0.000000 0.000000
# 2 -0.003672 0.017295 -0.001746 0.000000 0.000000 0.000000
# 3 -0.006751 -0.001746 0.014845 0.000000 0.000000 0.000000
# 4 0.000000 0.000000 0.000000 0.034924 0.000000 0.000000
# 5 0.000000 0.000000 0.000000 0.000000 0.044083 0.000000
# 6 0.000000 0.000000 0.000000 0.000000 0.000000 0.078577
#
#
# Mechanical properties :
#
#
# Convention : Reuss Voigt Hill
#
# Bulk Modulus (GPa) = 42.45894 45.05546 43.75720
# Shear Modulus (GPa) = 21.03843 23.28798 22.16321
#
# Velocity S-wave (km/s) = 3.26043 3.43032 3.34646
# Velocity P-wave (km/s) = 5.96890 6.20124 6.08618
#
# Compressibility (1/GPa) = 0.02355217
#
# Stress axis : x y z
#
# Youngs Moduli (GPa) = 63.49405 57.82094 67.36407
#
# Poissons Ratio (x) = 0.21229 0.45477
# Poissons Ratio (y) = 0.23312 0.11761
# Poissons Ratio (z) = 0.42865 0.10095
#
# Static dielectric constant tensor:
#      x y z
#    x 1.708310 0.000000 0.000000 
#    y 0.000000 1.703150 0.000000 
#    z 0.000000 0.000000 1.704410 
# 
# From -- ./inp_files/26377.got.cif
#   From: 2010.05.17/outbox.cif.g08.bks.cpg/sg72_14_cif.got.tgz:26377.got - 2010.06.03 17:03:01.
