data_PCOD9528149
_publ_section_title
;
Structure prediction by ZEFSAII (Michael W. Deem and Ramdas Pophale) SiO2 
 PCOD9528149
Probable space group: I B A M
;
_chemical_formula_sum "Si O2"
_cell_formula_units_Z 116
_cell_length_a 19.832711
_cell_length_b 15.534421
_cell_length_c 15.590894
_cell_angle_alpha 90.000000
_cell_angle_beta 90.000000
_cell_angle_gamma 90.000000
_cell_volume 4803.393578
_symmetry_space_group_name_H-M "I B A M"
_symmetry_group_IT_number 72
_symmetry_cell_setting 'orthorhombic'
loop_
_space_group_symop_operation_xyz
x,y,z
-x,-y,z
x,-y,1/2-z
-x,y,1/2-z
-x,-y,-z
x,y,-z
-x,y,1/2+z
x,-y,1/2+z
1/2+x,1/2+y,1/2+z
1/2-x,1/2-y,1/2+z
1/2+x,1/2-y,-z
1/2-x,1/2+y,-z
1/2-x,1/2-y,1/2-z
1/2+x,1/2+y,1/2-z
1/2-x,1/2+y,z
1/2+x,1/2-y,z
loop_
_atom_site_type_symbol
_atom_site_label
_atom_site_fract_x
_atom_site_fract_y
_atom_site_fract_z
Si Si1 0.386047 0.704411 0.166928
Si Si2 0.728337 0.997416 0.102617
Si Si3 0.380033 0.482076 0.348208
Si Si4 0.588788 0.955882 0.840889
Si Si5 0.108840 0.827795 0.869180
Si Si6 0.734342 0.802224 0.599501
Si Si7 0.996081 0.689557 0.405501
Si Si8 0.500000 0.000000 0.500000
O O1 0.403383 0.612182 0.123527
O O2 0.432450 0.778369 0.126547
O O3 0.398918 0.687736 0.267050
O O4 0.309414 0.735286 0.153558
O O5 0.667171 0.941688 0.138536
O O6 0.714847 0.098758 0.120655
O O7 0.798986 0.975834 0.146228
O O8 0.735070 0.986961 0.000000
O O9 0.400601 0.500000 0.250000
O O10 0.397842 0.571571 0.393329
O O11 0.582492 0.000000 0.750000
O O12 0.544493 0.870427 0.841482
O O13 0.184870 0.798460 0.890993
O O14 0.051292 0.772278 0.911829
O O15 0.717497 0.786359 0.500000
O O16 0.996670 0.642990 0.500000
O O17 0.058938 0.507101 0.421827
#
# Coordination Sequence:
#
# PCOD9528149 Si02
#       8
#    16  16  16  16  16  16  16   4
#     4  11  24  41  71 101 137 184 242 300 361 433
#     4  10  21  40  68 100 139 186 235 290 352 429
#     4   9  21  43  68 103 138 180 244 303 361 428
#     4  12  28  46  73  99 144 193 236 289 360 432
#     4  10  23  44  70  96 139 186 239 300 362 429
#     4  10  22  39  65  99 136 178 227 295 358 421
#     4  12  27  47  68 104 144 186 243 299 358 434
#     4  12  26  48  64  98 136 190 234 294 344 424
#
# _framework density 24.149592999999999
#
# number of rings (size 3 to 8) (size 9 to 14) (size 15 to 20)
#    0.000    1.379    1.379    2.276    5.793    3.310 
#    0.000    2.759    0.000    0.000    0.000    0.000 
#    0.000    0.000    0.000    0.000    0.000    0.000 
#
# Total GULP energy -324294.246188 kJ/mol
# GULP energy per Si atom -5591.280107 kJ/mol
# Density = 2.409463 g / cm^3
# Si number density = 24.149593 Si / 1000 Ang^3
#
#
#
# Elastic Constant Matrix: (Units=GPa)
#
#
# Indices 1 2 3 4 5 6 
#
# 1 47.9759 4.8516 -7.1075 0.0000 0.0000 0.0000
# 2 4.8516 70.8958 14.4397 0.0000 0.0000 0.0000
# 3 -7.1075 14.4397 95.0180 0.0000 0.0000 0.0000
# 4 0.0000 0.0000 0.0000 -23.5983 0.0000 0.0000
# 5 0.0000 0.0000 0.0000 0.0000 23.8709 0.0000
# 6 0.0000 0.0000 0.0000 0.0000 0.0000 40.3070
#
#
#
# Elastic Compliance Matrix: (Units=1/GPa)
#
#
# Indices 1 2 3 4 5 6 
#
# 1 0.021307 -0.001840 0.001873 0.000000 0.000000 0.000000
# 2 -0.001840 0.014715 -0.002374 0.000000 0.000000 0.000000
# 3 0.001873 -0.002374 0.011025 0.000000 0.000000 0.000000
# 4 0.000000 0.000000 0.000000 -0.042376 0.000000 0.000000
# 5 0.000000 0.000000 0.000000 0.000000 0.041892 0.000000
# 6 0.000000 0.000000 0.000000 0.000000 0.000000 0.024810
#
#
# Mechanical properties :
#
#
# Convention : Reuss Voigt Hill
#
# Bulk Modulus (GPa) = 23.60323 26.47302 25.03812
# Shear Modulus (GPa) = 55.44756 21.56297 38.50526
#
# Velocity S-wave (km/s) = 4.79686 2.99137 3.99739
# Velocity P-wave (km/s) = 6.36198 4.78717 5.62991
#
# Compressibility (1/GPa) = 0.04236709
#
# Stress axis : x y z
#
# Youngs Moduli (GPa) = 46.93207 67.95981 90.70138
#
# Poissons Ratio (x) = 0.12502 -0.16992
# Poissons Ratio (y) = 0.08634 0.21530
# Poissons Ratio (z) = -0.08792 0.16132
#
# Static dielectric constant tensor:
#      x y z
#    x 1.885980 0.000000 0.000000 
#    y 0.000000 1.901400 0.000000 
#    z 0.000000 0.000000 1.981390 
# 
# From -- ./inp_files/33418.got.cif
#   From: 2010.05.17/outbox.cif.g08.bks.cpg/sg72_17_cif.got.tgz:33418.got - 2010.06.03 17:03:01.
