data_PCOD9528131
_publ_section_title
;
Structure prediction by ZEFSAII (Michael W. Deem and Ramdas Pophale) SiO2 
 PCOD9528131
Probable space group: I B A M
;
_chemical_formula_sum "Si O2"
_cell_formula_units_Z 96
_cell_length_a 17.823744
_cell_length_b 8.901376
_cell_length_c 23.536479
_cell_angle_alpha 90.000000
_cell_angle_beta 90.000000
_cell_angle_gamma 90.000000
_cell_volume 3734.200013
_symmetry_space_group_name_H-M "I B A M"
_symmetry_group_IT_number 72
_symmetry_cell_setting 'orthorhombic'
loop_
_space_group_symop_operation_xyz
x,y,z
-x,-y,z
x,-y,1/2-z
-x,y,1/2-z
-x,-y,-z
x,y,-z
-x,y,1/2+z
x,-y,1/2+z
1/2+x,1/2+y,1/2+z
1/2-x,1/2-y,1/2+z
1/2+x,1/2-y,-z
1/2-x,1/2+y,-z
1/2-x,1/2-y,1/2-z
1/2+x,1/2+y,1/2-z
1/2-x,1/2+y,z
1/2+x,1/2-y,z
loop_
_atom_site_type_symbol
_atom_site_label
_atom_site_fract_x
_atom_site_fract_y
_atom_site_fract_z
Si Si1 0.300960 0.938129 0.000000
Si Si2 0.556520 0.811137 0.877590
Si Si3 0.567606 0.180701 0.500000
Si Si4 0.202104 0.472433 0.876251
Si Si5 0.939818 0.753919 0.788602
Si Si6 0.370741 0.481771 0.500000
Si Si7 0.840569 0.500000 0.250000
Si Si8 0.377328 0.524432 0.121593
O O1 0.306681 0.871011 0.065176
O O2 0.219942 0.021647 0.000000
O O3 0.367314 0.057557 0.000000
O O4 0.524644 0.829787 0.941200
O O5 0.632609 0.910559 0.877717
O O6 0.488198 0.839598 0.834685
O O7 0.584914 0.638720 0.869271
O O8 0.609975 0.340939 0.500000
O O9 0.201348 0.446358 0.807382
O O10 0.288016 0.518290 0.882627
O O11 0.894149 0.645834 0.746362
O O12 0.894101 0.866749 0.826730
O O13 0.000000 0.835243 0.750000
O O14 0.403587 0.422675 0.441001
#
# Coordination Sequence:
#
# PCOD9528131 Si02
#       8
#     8  16   8  16  16   8   8  16
#     4   8  16  36  61  94 125 165 211 258 325 389
#     4  10  21  40  65  95 129 168 214 262 330 385
#     4   8  16  33  61  89 127 163 202 266 316 385
#     4  10  22  41  68  96 130 170 216 270 325 390
#     4  12  26  44  62  85 128 175 213 264 328 388
#     4   8  16  37  60  97 133 160 197 266 335 383
#     4  12  27  46  64  88 131 176 224 268 335 390
#     4  10  23  40  69 101 130 165 217 270 326 390
#
# _framework density 25.708316
#
# number of rings (size 3 to 8) (size 9 to 14) (size 15 to 20)
#    0.000    2.000    1.667    0.750    2.333    4.000 
#    3.000    3.333    0.000    3.000    0.000    0.000 
#    0.000    0.000    0.000    0.000    0.000    0.000 
#
# Total GULP energy -267486.705344 kJ/mol
# GULP energy per Si atom -5572.639695 kJ/mol
# Density = 2.564980 g / cm^3
# Si number density = 25.708316 Si / 1000 Ang^3
#
#
#
# Elastic Constant Matrix: (Units=GPa)
#
#
# Indices 1 2 3 4 5 6 
#
# 1 58.5988 20.5675 15.7936 0.0000 0.0000 0.0000
# 2 20.5675 78.1486 2.7403 0.0000 0.0000 0.0000
# 3 15.7936 2.7403 179.0985 0.0000 0.0000 0.0000
# 4 0.0000 0.0000 0.0000 -4.9237 0.0000 0.0000
# 5 0.0000 0.0000 0.0000 0.0000 57.2684 0.0000
# 6 0.0000 0.0000 0.0000 0.0000 0.0000 7.2080
#
#
#
# Elastic Compliance Matrix: (Units=1/GPa)
#
#
# Indices 1 2 3 4 5 6 
#
# 1 0.019262 -0.005013 -0.001622 0.000000 0.000000 0.000000
# 2 -0.005013 0.014107 0.000226 0.000000 0.000000 0.000000
# 3 -0.001622 0.000226 0.005723 0.000000 0.000000 0.000000
# 4 0.000000 0.000000 0.000000 -0.203099 0.000000 0.000000
# 5 0.000000 0.000000 0.000000 0.000000 0.017462 0.000000
# 6 0.000000 0.000000 0.000000 0.000000 0.000000 0.138734
#
#
# Mechanical properties :
#
#
# Convention : Reuss Voigt Hill
#
# Bulk Modulus (GPa) = 38.05791 43.78319 40.92055
# Shear Modulus (GPa) = 363.25485 30.36016 196.80751
#
# Velocity S-wave (km/s) = 11.89980 3.44022 8.75901
# Velocity P-wave (km/s) = 14.27035 5.73131 10.87407
#
# Compressibility (1/GPa) = 0.02627574
#
# Stress axis : x y z
#
# Youngs Moduli (GPa) = 51.91658 70.88463 174.73098
#
# Poissons Ratio (x) = 0.35531 0.28339
# Poissons Ratio (y) = 0.26023 -0.03952
# Poissons Ratio (z) = 0.08420 -0.01603
#
# Static dielectric constant tensor:
#      x y z
#    x 2.001020 0.000000 0.000000 
#    y 0.000000 2.062800 0.000000 
#    z 0.000000 0.000000 2.209990 
# 
# From -- ./inp_files/44858.got.cif
#   From: 2010.05.17/outbox.cif.g08.bks.cpg/sg72_23_cif.got.tgz:44858.got - 2010.06.03 17:03:01.
