data_PCOD9528536
_publ_section_title
;
Structure prediction by ZEFSAII (Michael W. Deem and Ramdas Pophale) SiO2 
 PCOD9528536
Probable space group: I B A M
;
_chemical_formula_sum "Si O2"
_cell_formula_units_Z 96
_cell_length_a 25.354351
_cell_length_b 10.055250
_cell_length_c 19.772576
_cell_angle_alpha 90.000000
_cell_angle_beta 90.000000
_cell_angle_gamma 90.000000
_cell_volume 5040.906297
_symmetry_space_group_name_H-M "I B A M"
_symmetry_group_IT_number 72
_symmetry_cell_setting 'orthorhombic'
loop_
_space_group_symop_operation_xyz
x,y,z
-x,-y,z
x,-y,1/2-z
-x,y,1/2-z
-x,-y,-z
x,y,-z
-x,y,1/2+z
x,-y,1/2+z
1/2+x,1/2+y,1/2+z
1/2-x,1/2-y,1/2+z
1/2+x,1/2-y,-z
1/2-x,1/2+y,-z
1/2-x,1/2-y,1/2-z
1/2+x,1/2+y,1/2-z
1/2-x,1/2+y,z
1/2+x,1/2-y,z
loop_
_atom_site_type_symbol
_atom_site_label
_atom_site_fract_x
_atom_site_fract_y
_atom_site_fract_z
Si Si1 0.839988 0.133272 0.420646
Si Si2 0.538144 0.622603 0.420032
Si Si3 0.795428 0.928842 0.319707
Si Si4 0.173234 0.385607 0.830914
Si Si5 0.987945 0.654714 0.670927
Si Si6 0.634347 0.173476 0.682803
O O1 0.828647 0.131445 0.500000
O O2 0.900551 0.087958 0.409454
O O3 0.835700 0.280742 0.389952
O O4 0.802185 0.036405 0.378705
O O5 0.500000 0.500000 0.402474
O O6 0.531385 0.651643 0.500000
O O7 0.522193 0.748789 0.375487
O O8 0.734891 0.885007 0.311457
O O9 0.831242 0.801483 0.334847
O O10 0.812490 0.000000 0.250000
O O11 0.157389 0.536513 0.847131
O O12 0.140082 0.343866 0.764373
O O13 0.926128 0.684613 0.661678
O O14 0.000000 0.500000 0.656491
O O15 0.000000 0.677165 0.750000
#
# Coordination Sequence:
#
# PCOD9528536 Si02
#       6
#    16  16  16  16  16  16
#     4  11  24  41  61  88 127 165 201 252 314 371
#     4  10  22  42  62  84 119 163 203 244 303 371
#     4  12  22  38  65  93 119 159 210 256 306 367
#     4  11  21  39  62  88 121 160 201 251 313 367
#     4  11  22  37  57  88 123 153 196 256 302 351
#     4  11  21  36  61  92 116 152 206 260 299 364
#
# _framework density 19.044194000000001
#
# number of rings (size 3 to 8) (size 9 to 14) (size 15 to 20)
#    0.000    1.000    3.333    6.500    0.000    1.333 
#    0.000    1.667    0.000    0.000    0.000    0.000 
#    0.000    0.000    0.000    0.000    0.000    0.000 
#
# Total GULP energy -268375.410926 kJ/mol
# GULP energy per Si atom -5591.154394 kJ/mol
# Density = 1.900085 g / cm^3
# Si number density = 19.044194 Si / 1000 Ang^3
#
#
#
# Elastic Constant Matrix: (Units=GPa)
#
#
# Indices 1 2 3 4 5 6 
#
# 1 45.2624 -15.8027 -9.8164 0.0000 0.0000 0.0000
# 2 -15.8027 60.9401 22.5098 0.0000 0.0000 0.0000
# 3 -9.8164 22.5098 64.1444 0.0000 0.0000 0.0000
# 4 0.0000 0.0000 0.0000 28.4658 0.0000 0.0000
# 5 0.0000 0.0000 0.0000 0.0000 16.4150 0.0000
# 6 0.0000 0.0000 0.0000 0.0000 0.0000 32.0363
#
#
#
# Elastic Compliance Matrix: (Units=1/GPa)
#
#
# Indices 1 2 3 4 5 6 
#
# 1 0.024461 0.005699 0.001743 0.000000 0.000000 0.000000
# 2 0.005699 0.020181 -0.006210 0.000000 0.000000 0.000000
# 3 0.001743 -0.006210 0.018036 0.000000 0.000000 0.000000
# 4 0.000000 0.000000 0.000000 0.035130 0.000000 0.000000
# 5 0.000000 0.000000 0.000000 0.000000 0.060920 0.000000
# 6 0.000000 0.000000 0.000000 0.000000 0.000000 0.031215
#
#
# Mechanical properties :
#
#
# Convention : Reuss Voigt Hill
#
# Bulk Modulus (GPa) = 15.35062 18.23647 16.79355
# Shear Modulus (GPa) = 23.90150 26.94717 25.42433
#
# Velocity S-wave (km/s) = 3.54652 3.76570 3.65775
# Velocity P-wave (km/s) = 4.98482 5.33892 5.16490
#
# Compressibility (1/GPa) = 0.06514395
#
# Stress axis : x y z
#
# Youngs Moduli (GPa) = 40.88089 49.55105 55.44521
#
# Poissons Ratio (x) = -0.28240 -0.09667
# Poissons Ratio (y) = -0.23299 0.34431
# Poissons Ratio (z) = -0.07128 0.30771
#
# Static dielectric constant tensor:
#      x y z
#    x 1.660920 0.000000 0.000000 
#    y 0.000000 1.649800 0.000000 
#    z 0.000000 0.000000 1.628270 
# 
# From -- ./inp_files/40680.got.cif
#   From: 2010.05.17/outbox.cif.g08.bks.cpg/sg72_21_cif.got.tgz:40680.got - 2010.06.03 17:03:01.
