data_PCOD9528105
_publ_section_title
;
Structure prediction by ZEFSAII (Michael W. Deem and Ramdas Pophale) SiO2 
 PCOD9528105
Probable space group: I B A M
;
_chemical_formula_sum "Si O2"
_cell_formula_units_Z 48
_cell_length_a 16.533584
_cell_length_b 5.014541
_cell_length_c 29.255529
_cell_angle_alpha 90.000000
_cell_angle_beta 90.000000
_cell_angle_gamma 90.000000
_cell_volume 2425.527194
_symmetry_space_group_name_H-M "I B A M"
_symmetry_group_IT_number 72
_symmetry_cell_setting 'orthorhombic'
loop_
_space_group_symop_operation_xyz
x,y,z
-x,-y,z
x,-y,1/2-z
-x,y,1/2-z
-x,-y,-z
x,y,-z
-x,y,1/2+z
x,-y,1/2+z
1/2+x,1/2+y,1/2+z
1/2-x,1/2-y,1/2+z
1/2+x,1/2-y,-z
1/2-x,1/2+y,-z
1/2-x,1/2-y,1/2-z
1/2+x,1/2+y,1/2-z
1/2-x,1/2+y,z
1/2+x,1/2-y,z
loop_
_atom_site_type_symbol
_atom_site_label
_atom_site_fract_x
_atom_site_fract_y
_atom_site_fract_z
Si Si1 0.557340 0.241441 0.423050
Si Si2 0.942857 0.251700 0.819561
Si Si3 0.191176 0.222848 0.500000
Si Si4 0.811683 0.000000 0.250000
O O1 0.500000 0.500000 0.423793
O O2 0.585583 0.177438 0.371012
O O3 0.632606 0.279813 0.456171
O O4 0.500000 0.000000 0.438531
O O5 0.873354 0.126550 0.787799
O O6 0.000000 0.500000 0.803317
O O7 0.000000 0.000000 0.825335
O O8 0.247495 0.479521 0.500000
O O9 0.750000 0.250000 0.250000
#
# Coordination Sequence:
#
# PCOD9528105 Si02
#       4
#    16  16   8   8
#     4  10  21  40  63  85 115 160 209 249 290 356
#     4  10  22  41  64  86 115 162 211 251 297 365
#     4  12  24  36  58  92 126 158 192 248 312 360
#     4  12  25  38  59  92 126 156 192 254 323 370
#
# _framework density 19.789511999999998
#
# number of rings (size 3 to 8) (size 9 to 14) (size 15 to 20)
#    0.000    1.333    0.000    5.500    0.000    4.000 
#    0.000    0.000    0.000    0.000    0.000    0.000 
#    0.000    0.000    0.000    0.000    0.000    0.000 
#
# Total GULP energy -133638.608406 kJ/mol
# GULP energy per Si atom -5568.275350 kJ/mol
# Density = 1.974447 g / cm^3
# Si number density = 19.789512 Si / 1000 Ang^3
#
#
#
# Elastic Constant Matrix: (Units=GPa)
#
#
# Indices 1 2 3 4 5 6 
#
# 1 164.5756 69.4810 105.4845 0.0000 0.0000 0.0000
# 2 69.4810 179.9554 38.1558 0.0000 0.0000 0.0000
# 3 105.4845 38.1558 141.0425 0.0000 0.0000 0.0000
# 4 0.0000 0.0000 0.0000 24.7280 0.0000 0.0000
# 5 0.0000 0.0000 0.0000 0.0000 -38.4251 0.0000
# 6 0.0000 0.0000 0.0000 0.0000 0.0000 59.6128
#
#
#
# Elastic Compliance Matrix: (Units=1/GPa)
#
#
# Indices 1 2 3 4 5 6 
#
# 1 0.013192 -0.003184 -0.009005 0.000000 0.000000 0.000000
# 2 -0.003184 0.006664 0.000579 0.000000 0.000000 0.000000
# 3 -0.009005 0.000579 0.013668 0.000000 0.000000 0.000000
# 4 0.000000 0.000000 0.000000 0.040440 0.000000 0.000000
# 5 0.000000 0.000000 0.000000 0.000000 -0.026025 0.000000
# 6 0.000000 0.000000 0.000000 0.000000 0.000000 0.016775
#
#
# Mechanical properties :
#
#
# Convention : Reuss Voigt Hill
#
# Bulk Modulus (GPa) = 97.05647 101.31289 99.18468
# Shear Modulus (GPa) = 54.72260 27.34660 41.03460
#
# Velocity S-wave (km/s) = 5.26425 3.72139 4.55857
# Velocity P-wave (km/s) = 9.27905 8.35293 8.82814
#
# Compressibility (1/GPa) = 0.01030328
#
# Stress axis : x y z
#
# Youngs Moduli (GPa) = 75.80174 150.06772 73.16226
#
# Poissons Ratio (x) = 0.47785 0.65883
# Poissons Ratio (y) = 0.24137 -0.04234
# Poissons Ratio (z) = 0.68259 -0.08686
#
# Static dielectric constant tensor:
#      x y z
#    x 1.643950 0.000000 0.000000 
#    y 0.000000 1.864330 0.000000 
#    z 0.000000 0.000000 1.796560 
# 
# From -- ./inp_files/51600.got.cif
#   From: 2010.05.17/outbox.cif.g08.bks.cpg/sg72_26_cif.got.tgz:51600.got - 2010.06.03 17:03:01.
