data_PCOD9528392
_publ_section_title
;
Structure prediction by ZEFSAII (Michael W. Deem and Ramdas Pophale) SiO2 
 PCOD9528392
Probable space group: I B A M
;
_chemical_formula_sum "Si O2"
_cell_formula_units_Z 116
_cell_length_a 22.799912
_cell_length_b 8.862811
_cell_length_c 31.557003
_cell_angle_alpha 90.000000
_cell_angle_beta 90.000000
_cell_angle_gamma 90.000000
_cell_volume 6376.764963
_symmetry_space_group_name_H-M "I B A M"
_symmetry_group_IT_number 72
_symmetry_cell_setting 'orthorhombic'
loop_
_space_group_symop_operation_xyz
x,y,z
-x,-y,z
x,-y,1/2-z
-x,y,1/2-z
-x,-y,-z
x,y,-z
-x,y,1/2+z
x,-y,1/2+z
1/2+x,1/2+y,1/2+z
1/2-x,1/2-y,1/2+z
1/2+x,1/2-y,-z
1/2-x,1/2+y,-z
1/2-x,1/2-y,1/2-z
1/2+x,1/2+y,1/2-z
1/2-x,1/2+y,z
1/2+x,1/2-y,z
loop_
_atom_site_type_symbol
_atom_site_label
_atom_site_fract_x
_atom_site_fract_y
_atom_site_fract_z
Si Si1 0.899298 0.279592 0.757714
Si Si2 0.110894 0.893094 0.885601
Si Si3 0.505009 0.819350 0.384457
Si Si4 0.291847 0.923469 0.207634
Si Si5 0.500000 0.000000 0.750000
Si Si6 0.556149 0.393234 0.182124
Si Si7 0.809164 0.729946 0.668915
Si Si8 0.059195 0.101768 0.048293
O O1 0.852704 0.360680 0.726149
O O2 0.953315 0.386422 0.771585
O O3 0.923236 0.148015 0.728529
O O4 0.861723 0.234216 0.798017
O O5 0.169935 0.803437 0.874655
O O6 0.057540 0.770268 0.885248
O O7 0.100192 0.017278 0.848564
O O8 0.105530 0.993585 0.927834
O O9 0.537741 0.760153 0.342242
O O10 0.542405 0.747013 0.423317
O O11 0.500000 0.000000 0.386012
O O12 0.249557 0.800195 0.188146
O O13 0.263650 0.000000 0.250000
O O14 0.303162 0.050807 0.172659
O O15 0.500000 0.500000 0.183806
O O16 0.074555 0.138197 0.000000
O O17 0.000000 0.000000 0.048217
#
# Coordination Sequence:
#
# PCOD9528392 Si02
#       8
#    16  16  16  16   4  16  16  16
#     4  11  23  36  53  72 108 151 187 236 285 343
#     4   9  20  34  50  79 102 141 186 224 276 331
#     4   9  18  30  49  77 114 147 179 231 266 328
#     4  10  22  40  54  74  96 144 193 245 287 321
#     4  12  24  36  46  84 112 144 188 230 308 336
#     4   9  21  34  45  70 105 148 185 215 275 331
#     4  11  23  39  55  74 103 138 197 245 283 330
#     4   8  15  33  54  78 115 148 175 209 275 359
#
# _framework density 18.191043000000001
#
# number of rings (size 3 to 8) (size 9 to 14) (size 15 to 20)
#    0.000    2.345    2.069    3.310   10.621    0.276 
#    0.000    0.000    0.000    0.000    0.000    0.966 
#    0.000    0.000    0.000    0.000    0.000    0.000 
#
# Total GULP energy -323416.966665 kJ/mol
# GULP energy per Si atom -5576.154598 kJ/mol
# Density = 1.814964 g / cm^3
# Si number density = 18.191043 Si / 1000 Ang^3
#
#
#
# Elastic Constant Matrix: (Units=GPa)
#
#
# Indices 1 2 3 4 5 6 
#
# 1 57.8941 21.1814 23.8131 0.0000 0.0000 0.0000
# 2 21.1814 119.3730 48.5944 0.0000 0.0000 0.0000
# 3 23.8131 48.5944 49.5141 0.0000 0.0000 0.0000
# 4 0.0000 0.0000 0.0000 19.4702 0.0000 0.0000
# 5 0.0000 0.0000 0.0000 0.0000 12.9181 0.0000
# 6 0.0000 0.0000 0.0000 0.0000 0.0000 16.0245
#
#
#
# Elastic Compliance Matrix: (Units=1/GPa)
#
#
# Indices 1 2 3 4 5 6 
#
# 1 0.021563 0.000659 -0.011017 0.000000 0.000000 0.000000
# 2 0.000659 0.013971 -0.014028 0.000000 0.000000 0.000000
# 3 -0.011017 -0.014028 0.039262 0.000000 0.000000 0.000000
# 4 0.000000 0.000000 0.000000 0.051360 0.000000 0.000000
# 5 0.000000 0.000000 0.000000 0.000000 0.077411 0.000000
# 6 0.000000 0.000000 0.000000 0.000000 0.000000 0.062404
#
#
# Mechanical properties :
#
#
# Convention : Reuss Voigt Hill
#
# Bulk Modulus (GPa) = 38.42665 45.99544 42.21104
# Shear Modulus (GPa) = 15.45978 18.56205 17.01092
#
# Velocity S-wave (km/s) = 2.91839 3.19783 3.06130
# Velocity P-wave (km/s) = 5.70314 6.24294 5.97914
#
# Compressibility (1/GPa) = 0.02602361
#
# Stress axis : x y z
#
# Youngs Moduli (GPa) = 46.37471 71.57792 25.46975
#
# Poissons Ratio (x) = -0.04714 0.28060
# Poissons Ratio (y) = -0.03054 0.35729
# Poissons Ratio (z) = 0.51091 1.00410
#
# Static dielectric constant tensor:
#      x y z
#    x 1.652130 0.000000 0.000000 
#    y 0.000000 1.693550 0.000000 
#    z 0.000000 0.000000 1.638460 
# 
# From -- ./inp_files/52433.got.cif
#   From: 2010.05.17/outbox.cif.g08.bks.cpg/sg72_27_cif.got.tgz:52433.got - 2010.06.03 17:03:01.
