data_PCOD9528014
_publ_section_title
;
Structure prediction by ZEFSAII (Michael W. Deem and Ramdas Pophale) SiO2 
 PCOD9528014
Probable space group: I B A M
;
_chemical_formula_sum "Si O2"
_cell_formula_units_Z 96
_cell_length_a 22.641797
_cell_length_b 12.095942
_cell_length_c 17.046582
_cell_angle_alpha 90.000000
_cell_angle_beta 90.000000
_cell_angle_gamma 90.000000
_cell_volume 4668.613268
_symmetry_space_group_name_H-M "I B A M"
_symmetry_group_IT_number 72
_symmetry_cell_setting 'orthorhombic'
loop_
_space_group_symop_operation_xyz
x,y,z
-x,-y,z
x,-y,1/2-z
-x,y,1/2-z
-x,-y,-z
x,y,-z
-x,y,1/2+z
x,-y,1/2+z
1/2+x,1/2+y,1/2+z
1/2-x,1/2-y,1/2+z
1/2+x,1/2-y,-z
1/2-x,1/2+y,-z
1/2-x,1/2-y,1/2-z
1/2+x,1/2+y,1/2-z
1/2-x,1/2+y,z
1/2+x,1/2-y,z
loop_
_atom_site_type_symbol
_atom_site_label
_atom_site_fract_x
_atom_site_fract_y
_atom_site_fract_z
Si Si1 0.853196 0.288307 0.670843
Si Si2 0.045096 0.910604 0.089208
Si Si3 0.931878 0.509005 0.154211
Si Si4 0.733200 0.639754 0.092459
Si Si5 0.840031 0.062525 0.587877
Si Si6 0.877861 0.719379 0.645025
O O1 0.900513 0.374921 0.636142
O O2 0.788354 0.325798 0.644258
O O3 0.858714 0.164761 0.639425
O O4 0.861210 0.285225 0.763754
O O5 0.064902 0.798760 0.132172
O O6 0.105241 0.979610 0.082734
O O7 0.024256 0.884099 0.000000
O O8 0.000000 0.000000 0.125270
O O9 0.931110 0.500000 0.250000
O O10 0.895237 0.404808 0.121279
O O11 0.000000 0.500000 0.129538
O O12 0.712229 0.516633 0.117091
O O13 0.678304 0.724621 0.102836
O O14 0.747790 0.636093 0.000000
O O15 0.825151 0.102214 0.500000
#
# Coordination Sequence:
#
# PCOD9528014 Si02
#       6
#    16  16  16  16  16  16
#     4  11  22  37  62  91 120 159 208 259 308 366
#     4   9  19  37  61  86 119 161 199 249 314 369
#     4   9  21  40  60  86 127 164 196 245 313 372
#     4  10  22  40  61  86 121 163 201 252 319 373
#     4   9  20  38  57  84 119 155 201 253 309 369
#     4  10  21  39  62  92 121 158 207 255 306 372
#
# _framework density 20.562850000000001
#
# number of rings (size 3 to 8) (size 9 to 14) (size 15 to 20)
#    0.000    2.333    0.000    2.500    4.667    2.667 
#    3.000    3.333    0.000    4.000    0.000    0.000 
#    0.000    0.000    0.000    0.000    0.000    0.000 
#
# Total GULP energy -267801.609059 kJ/mol
# GULP energy per Si atom -5579.200189 kJ/mol
# Density = 2.051605 g / cm^3
# Si number density = 20.562850 Si / 1000 Ang^3
#
#
#
# Elastic Constant Matrix: (Units=GPa)
#
#
# Indices 1 2 3 4 5 6 
#
# 1 66.1817 23.3878 14.7849 0.0000 0.0000 0.0000
# 2 23.3878 114.3822 34.7071 0.0000 0.0000 0.0000
# 3 14.7849 34.7071 43.5034 0.0000 0.0000 0.0000
# 4 0.0000 0.0000 0.0000 23.9825 0.0000 0.0000
# 5 0.0000 0.0000 0.0000 0.0000 13.7097 0.0000
# 6 0.0000 0.0000 0.0000 0.0000 0.0000 32.9434
#
#
#
# Elastic Compliance Matrix: (Units=1/GPa)
#
#
# Indices 1 2 3 4 5 6 
#
# 1 0.016777 -0.002243 -0.003912 0.000000 0.000000 0.000000
# 2 -0.002243 0.011835 -0.008680 0.000000 0.000000 0.000000
# 3 -0.003912 -0.008680 0.031241 0.000000 0.000000 0.000000
# 4 0.000000 0.000000 0.000000 0.041697 0.000000 0.000000
# 5 0.000000 0.000000 0.000000 0.000000 0.072941 0.000000
# 6 0.000000 0.000000 0.000000 0.000000 0.000000 0.030355
#
#
# Mechanical properties :
#
#
# Convention : Reuss Voigt Hill
#
# Bulk Modulus (GPa) = 33.13149 41.09187 37.11168
# Shear Modulus (GPa) = 20.44356 24.20628 22.32492
#
# Velocity S-wave (km/s) = 3.15651 3.43474 3.29856
# Velocity P-wave (km/s) = 5.42513 5.97970 5.70915
#
# Compressibility (1/GPa) = 0.03018276
#
# Stress axis : x y z
#
# Youngs Moduli (GPa) = 59.60681 84.49544 32.00950
#
# Poissons Ratio (x) = 0.18955 0.12522
# Poissons Ratio (y) = 0.13372 0.27783
# Poissons Ratio (z) = 0.23318 0.73338
#
# Static dielectric constant tensor:
#      x y z
#    x 1.764120 0.000000 0.000000 
#    y 0.000000 1.747420 0.000000 
#    z 0.000000 0.000000 1.732740 
# 
# From -- ./inp_files/33267.got.cif
#   From: 2010.05.17/outbox.cif.g08.bks.cpg/sg72_17_cif.got.tgz:33267.got - 2010.06.03 17:03:01.
