data_PCOD9528188
_publ_section_title
;
Structure prediction by ZEFSAII (Michael W. Deem and Ramdas Pophale) SiO2 
 PCOD9528188
Probable space group: I B A M
;
_chemical_formula_sum "Si O2"
_cell_formula_units_Z 96
_cell_length_a 15.173746
_cell_length_b 11.885876
_cell_length_c 23.379033
_cell_angle_alpha 90.000000
_cell_angle_beta 90.000000
_cell_angle_gamma 90.000000
_cell_volume 4216.484897
_symmetry_space_group_name_H-M "I B A M"
_symmetry_group_IT_number 72
_symmetry_cell_setting 'orthorhombic'
loop_
_space_group_symop_operation_xyz
x,y,z
-x,-y,z
x,-y,1/2-z
-x,y,1/2-z
-x,-y,-z
x,y,-z
-x,y,1/2+z
x,-y,1/2+z
1/2+x,1/2+y,1/2+z
1/2-x,1/2-y,1/2+z
1/2+x,1/2-y,-z
1/2-x,1/2+y,-z
1/2-x,1/2-y,1/2-z
1/2+x,1/2+y,1/2-z
1/2-x,1/2+y,z
1/2+x,1/2-y,z
loop_
_atom_site_type_symbol
_atom_site_label
_atom_site_fract_x
_atom_site_fract_y
_atom_site_fract_z
Si Si1 0.295776 0.310348 0.834770
Si Si2 0.871376 0.295219 0.069036
Si Si3 0.447326 0.237890 0.639083
Si Si4 0.374603 0.864290 0.242340
Si Si5 0.602386 0.041441 0.063610
Si Si6 0.396862 0.475201 0.684403
O O1 0.291295 0.262760 0.898585
O O2 0.352436 0.218146 0.796548
O O3 0.211480 0.339349 0.797062
O O4 0.344890 0.427971 0.846578
O O5 0.854013 0.426524 0.082655
O O6 0.961869 0.253595 0.101749
O O7 0.879447 0.282756 0.000000
O O8 0.454379 0.176753 0.700807
O O9 0.393183 0.148495 0.602501
O O10 0.396309 0.352595 0.655845
O O11 0.380587 0.000000 0.250000
O O12 0.500000 0.000000 0.061984
O O13 0.630288 0.070066 0.000000
O O14 0.500000 0.500000 0.684637
O O15 0.367498 0.500000 0.750000
#
# Coordination Sequence:
#
# PCOD9528188 Si02
#       6
#    16  16  16  16  16  16
#     4  11  23  42  62  92 131 172 217 261 333 395
#     4  10  21  41  67  96 131 171 217 274 327 384
#     4  11  20  37  62  97 124 166 218 265 327 392
#     4  11  25  40  63  96 130 169 218 273 329 400
#     4   8  16  33  58  86 121 160 200 258 318 365
#     4  11  21  37  59  90 129 170 208 264 330 391
#
# _framework density 22.767779000000001
#
# number of rings (size 3 to 8) (size 9 to 14) (size 15 to 20)
#    0.000    1.667    3.333    3.000    2.333    0.667 
#    0.000    5.000    0.000    1.000    0.000    0.000 
#    0.000    0.000    0.000    0.000    0.000    0.000 
#
# Total GULP energy -267465.133434 kJ/mol
# GULP energy per Si atom -5572.190280 kJ/mol
# Density = 2.271596 g / cm^3
# Si number density = 22.767779 Si / 1000 Ang^3
#
#
#
# Elastic Constant Matrix: (Units=GPa)
#
#
# Indices 1 2 3 4 5 6 
#
# 1 60.1359 18.7305 35.2754 0.0000 0.0000 0.0000
# 2 18.7305 194.0790 88.5614 0.0000 0.0000 0.0000
# 3 35.2754 88.5614 107.5469 0.0000 0.0000 0.0000
# 4 0.0000 0.0000 0.0000 34.7673 0.0000 0.0000
# 5 0.0000 0.0000 0.0000 0.0000 22.3624 0.0000
# 6 0.0000 0.0000 0.0000 0.0000 0.0000 2.7256
#
#
#
# Elastic Compliance Matrix: (Units=1/GPa)
#
#
# Indices 1 2 3 4 5 6 
#
# 1 0.020970 0.001786 -0.008349 0.000000 0.000000 0.000000
# 2 0.001786 0.008406 -0.007508 0.000000 0.000000 0.000000
# 3 -0.008349 -0.007508 0.018219 0.000000 0.000000 0.000000
# 4 0.000000 0.000000 0.000000 0.028763 0.000000 0.000000
# 5 0.000000 0.000000 0.000000 0.000000 0.044718 0.000000
# 6 0.000000 0.000000 0.000000 0.000000 0.000000 0.366895
#
#
# Mechanical properties :
#
#
# Convention : Reuss Voigt Hill
#
# Bulk Modulus (GPa) = 51.40402 71.87737 61.64069
# Shear Modulus (GPa) = 9.56758 26.58403 18.07581
#
# Velocity S-wave (km/s) = 2.05216 3.42075 2.82072
# Velocity P-wave (km/s) = 5.31429 6.87316 6.14337
#
# Compressibility (1/GPa) = 0.01945373
#
# Stress axis : x y z
#
# Youngs Moduli (GPa) = 47.68687 118.95965 54.88691
#
# Poissons Ratio (x) = -0.21245 0.45824
# Poissons Ratio (y) = -0.08516 0.41209
# Poissons Ratio (z) = 0.39813 0.89315
#
# Static dielectric constant tensor:
#      x y z
#    x 1.992280 0.000000 0.000000 
#    y 0.000000 1.835490 0.000000 
#    z 0.000000 0.000000 1.554300 
# 
# From -- ./inp_files/44803.got.cif
#   From: 2010.05.17/outbox.cif.g08.bks.cpg/sg72_23_cif.got.tgz:44803.got - 2010.06.03 17:03:01.
