data_PCOD9528237
_publ_section_title
;
Structure prediction by ZEFSAII (Michael W. Deem and Ramdas Pophale) SiO2 
 PCOD9528237
Probable space group: I B A M
;
_chemical_formula_sum "Si O2"
_cell_formula_units_Z 116
_cell_length_a 27.162538
_cell_length_b 23.762411
_cell_length_c 7.942673
_cell_angle_alpha 90.000000
_cell_angle_beta 90.000000
_cell_angle_gamma 90.000000
_cell_volume 5126.577571
_symmetry_space_group_name_H-M "I B A M"
_symmetry_group_IT_number 72
_symmetry_cell_setting 'orthorhombic'
loop_
_space_group_symop_operation_xyz
x,y,z
-x,-y,z
x,-y,1/2-z
-x,y,1/2-z
-x,-y,-z
x,y,-z
-x,y,1/2+z
x,-y,1/2+z
1/2+x,1/2+y,1/2+z
1/2-x,1/2-y,1/2+z
1/2+x,1/2-y,-z
1/2-x,1/2+y,-z
1/2-x,1/2-y,1/2-z
1/2+x,1/2+y,1/2-z
1/2-x,1/2+y,z
1/2+x,1/2-y,z
loop_
_atom_site_type_symbol
_atom_site_label
_atom_site_fract_x
_atom_site_fract_y
_atom_site_fract_z
Si Si1 0.556213 0.332262 0.796320
Si Si2 0.693199 0.936608 0.699887
Si Si3 0.094091 0.713583 0.696041
Si Si4 0.305923 0.255998 0.192151
Si Si5 0.500000 0.000000 0.250000
Si Si6 0.882679 0.060988 0.701345
Si Si7 0.709685 0.378115 0.198832
Si Si8 0.919859 0.411542 0.291589
O O1 0.500000 0.340198 0.750000
O O2 0.573446 0.271432 0.728001
O O3 0.586594 0.385949 0.733309
O O4 0.562326 0.330469 0.000000
O O5 0.694140 0.931209 0.500000
O O6 0.733831 0.893261 0.767613
O O7 0.636590 0.926873 0.752128
O O8 0.707259 0.000000 0.750000
O O9 0.080792 0.712787 0.500000
O O10 0.153189 0.720806 0.708830
O O11 0.075035 0.653768 0.760762
O O12 0.250000 0.250000 0.250000
O O13 0.312163 0.322863 0.213638
O O14 0.310633 0.238737 0.000000
O O15 0.458456 0.952806 0.298742
O O16 0.884296 0.063354 0.500000
O O17 0.825844 0.070856 0.751919
O O18 0.901311 0.000000 0.750000
O O19 0.704234 0.367763 0.000000
O O20 0.925927 0.417374 0.500000
#
# Coordination Sequence:
#
# PCOD9528237 Si02
#       8
#    16  16  16  16   4  16  16  16
#     4  10  22  41  64  91 127 167 214 273 331 389
#     4  11  22  39  59  91 130 172 222 274 335 400
#     4  10  21  43  67  92 131 173 217 273 331 395
#     4  12  24  39  63  97 133 173 217 267 326 395
#     4  12  22  44  68  98 132 168 224 280 340 404
#     4  10  22  40  62  91 127 168 212 264 322 380
#     4  11  22  40  64  93 131 174 217 269 328 394
#     4  10  23  41  65  92 125 170 216 270 336 397
#
# _framework density 22.627181
#
# number of rings (size 3 to 8) (size 9 to 14) (size 15 to 20)
#    0.000    1.379    2.069    3.517    0.966    4.690 
#    0.000    3.448    0.000    0.000    0.000    0.000 
#    0.000    0.000    0.000    0.000    0.000    0.000 
#
# Total GULP energy -323794.409461 kJ/mol
# GULP energy per Si atom -5582.662232 kJ/mol
# Density = 2.257568 g / cm^3
# Si number density = 22.627181 Si / 1000 Ang^3
#
#
#
# Elastic Constant Matrix: (Units=GPa)
#
#
# Indices 1 2 3 4 5 6 
#
# 1 124.2946 59.4938 -1.6341 0.0000 0.0000 0.0000
# 2 59.4938 174.9919 6.4361 0.0000 0.0000 0.0000
# 3 -1.6341 6.4361 28.8928 0.0000 0.0000 0.0000
# 4 0.0000 0.0000 0.0000 10.0401 0.0000 0.0000
# 5 0.0000 0.0000 0.0000 0.0000 5.2483 0.0000
# 6 0.0000 0.0000 0.0000 0.0000 0.0000 40.9154
#
#
#
# Elastic Compliance Matrix: (Units=1/GPa)
#
#
# Indices 1 2 3 4 5 6 
#
# 1 0.009656 -0.003330 0.001288 0.000000 0.000000 0.000000
# 2 -0.003330 0.006910 -0.001728 0.000000 0.000000 0.000000
# 3 0.001288 -0.001728 0.035068 0.000000 0.000000 0.000000
# 4 0.000000 0.000000 0.000000 0.099601 0.000000 0.000000
# 5 0.000000 0.000000 0.000000 0.000000 0.190539 0.000000
# 6 0.000000 0.000000 0.000000 0.000000 0.000000 0.024441
#
#
# Mechanical properties :
#
#
# Convention : Reuss Voigt Hill
#
# Bulk Modulus (GPa) = 22.67827 50.75231 36.71529
# Shear Modulus (GPa) = 12.87153 28.83300 20.85226
#
# Velocity S-wave (km/s) = 2.38765 3.57356 3.03901
# Velocity P-wave (km/s) = 4.20066 6.28534 5.34561
#
# Compressibility (1/GPa) = 0.04409507
#
# Stress axis : x y z
#
# Youngs Moduli (GPa) = 103.55809 144.71042 28.51572
#
# Poissons Ratio (x) = 0.48194 -0.03673
# Poissons Ratio (y) = 0.34489 0.04927
# Poissons Ratio (z) = -0.13338 0.25001
#
# Static dielectric constant tensor:
#      x y z
#    x 1.828780 0.000000 0.000000 
#    y 0.000000 1.838590 0.000000 
#    z 0.000000 0.000000 1.854620 
# 
# From -- ./inp_files/8377.got.cif
#   From: 2010.05.17/outbox.cif.g08.bks.cpg/sg72_5_cif.got.tgz:8377.got - 2010.06.03 17:03:01.
