data_PCOD9528592
_publ_section_title
;
Structure prediction by ZEFSAII (Michael W. Deem and Ramdas Pophale) SiO2 
 PCOD9528592
Probable space group: I B A M
;
_chemical_formula_sum "Si O2"
_cell_formula_units_Z 68
_cell_length_a 18.174086
_cell_length_b 7.400418
_cell_length_c 27.897902
_cell_angle_alpha 90.000000
_cell_angle_beta 90.000000
_cell_angle_gamma 90.000000
_cell_volume 3752.151573
_symmetry_space_group_name_H-M "I B A M"
_symmetry_group_IT_number 72
_symmetry_cell_setting 'orthorhombic'
loop_
_space_group_symop_operation_xyz
x,y,z
-x,-y,z
x,-y,1/2-z
-x,y,1/2-z
-x,-y,-z
x,y,-z
-x,y,1/2+z
x,-y,1/2+z
1/2+x,1/2+y,1/2+z
1/2-x,1/2-y,1/2+z
1/2+x,1/2-y,-z
1/2-x,1/2+y,-z
1/2-x,1/2-y,1/2-z
1/2+x,1/2+y,1/2-z
1/2-x,1/2+y,z
1/2+x,1/2-y,z
loop_
_atom_site_type_symbol
_atom_site_label
_atom_site_fract_x
_atom_site_fract_y
_atom_site_fract_z
Si Si1 0.500000 0.500000 0.250000
Si Si2 0.411163 0.809662 0.000000
Si Si3 0.340162 0.262056 0.099015
Si Si4 0.578817 0.449521 0.156632
Si Si5 0.578709 0.751058 0.000000
Si Si6 0.166605 0.335493 0.097613
O O1 0.554926 0.409486 0.211436
O O2 0.365840 0.767162 0.047291
O O3 0.491217 0.718545 0.000000
O O4 0.417503 0.028856 0.000000
O O5 0.373392 0.374641 0.143278
O O6 0.253734 0.304976 0.096829
O O7 0.349399 0.047195 0.104496
O O8 0.380441 0.311723 0.048612
O O9 0.500000 0.500000 0.132740
O O10 0.623345 0.282018 0.136311
#
# Coordination Sequence:
#
# PCOD9528592 Si02
#       6
#     4   8  16  16   8  16
#     4   8  24  48  66  90 124 138 210 288 306 370
#     4   9  19  33  53  90 129 170 208 244 282 364
#     4  11  21  37  62  92 130 167 203 249 304 361
#     4  10  22  43  66  88 119 155 204 265 313 369
#     4   9  19  33  53  90 129 170 208 244 282 364
#     4  11  21  37  62  92 130 167 203 249 304 361
#
# _framework density 18.122934999999998
#
# number of rings (size 3 to 8) (size 9 to 14) (size 15 to 20)
#    0.706    1.176    2.353    2.118    0.000    3.765 
#    0.000    5.882    0.000    0.000    0.000    0.000 
#    0.000    0.000    0.000    0.000    0.000    0.000 
#
# Total GULP energy -189353.175686 kJ/mol
# GULP energy per Si atom -5569.211050 kJ/mol
# Density = 1.808169 g / cm^3
# Si number density = 18.122935 Si / 1000 Ang^3
#
#
#
# Elastic Constant Matrix: (Units=GPa)
#
#
# Indices 1 2 3 4 5 6 
#
# 1 154.4045 28.5596 57.4958 0.0000 0.0000 0.0000
# 2 28.5596 100.2252 34.5985 0.0000 0.0000 0.0000
# 3 57.4958 34.5985 114.9214 0.0000 0.0000 0.0000
# 4 0.0000 0.0000 0.0000 1.9170 0.0000 0.0000
# 5 0.0000 0.0000 0.0000 0.0000 72.6076 0.0000
# 6 0.0000 0.0000 0.0000 0.0000 0.0000 -12.2650
#
#
#
# Elastic Compliance Matrix: (Units=1/GPa)
#
#
# Indices 1 2 3 4 5 6 
#
# 1 0.008050 -0.001008 -0.003724 0.000000 0.000000 0.000000
# 2 -0.001008 0.011261 -0.002886 0.000000 0.000000 0.000000
# 3 -0.003724 -0.002886 0.011433 0.000000 0.000000 0.000000
# 4 0.000000 0.000000 0.000000 0.521639 0.000000 0.000000
# 5 0.000000 0.000000 0.000000 0.000000 0.013773 0.000000
# 6 0.000000 0.000000 0.000000 0.000000 0.000000 -0.081533
#
#
# Mechanical properties :
#
#
# Convention : Reuss Voigt Hill
#
# Bulk Modulus (GPa) = 64.48119 67.87322 66.17720
# Shear Modulus (GPa) = 9.90044 29.04505 19.47274
#
# Velocity S-wave (km/s) = 2.33983 4.00768 3.28148
# Velocity P-wave (km/s) = 6.55415 7.67777 7.13810
#
# Compressibility (1/GPa) = 0.01550840
#
# Stress axis : x y z
#
# Youngs Moduli (GPa) = 124.22978 88.80161 87.46306
#
# Poissons Ratio (x) = 0.08954 0.32569
# Poissons Ratio (y) = 0.12526 0.25240
# Poissons Ratio (z) = 0.46259 0.25626
#
# Static dielectric constant tensor:
#      x y z
#    x 1.617310 0.000000 0.000000 
#    y 0.000000 1.654080 0.000000 
#    z 0.000000 0.000000 1.630860 
# 
# From -- ./inp_files/51988.got.cif
#   From: 2010.05.17/outbox.cif.g08.bks.cpg/sg72_26_cif.got.tgz:51988.got - 2010.06.03 17:03:01.
