data_PCOD9528365
_publ_section_title
;
Structure prediction by ZEFSAII (Michael W. Deem and Ramdas Pophale) SiO2 
 PCOD9528365
Probable space group: I B A M
;
_chemical_formula_sum "Si O2"
_cell_formula_units_Z 64
_cell_length_a 9.061776
_cell_length_b 21.525976
_cell_length_c 15.956360
_cell_angle_alpha 90.000000
_cell_angle_beta 90.000000
_cell_angle_gamma 90.000000
_cell_volume 3112.504589
_symmetry_space_group_name_H-M "I B A M"
_symmetry_group_IT_number 72
_symmetry_cell_setting 'orthorhombic'
loop_
_space_group_symop_operation_xyz
x,y,z
-x,-y,z
x,-y,1/2-z
-x,y,1/2-z
-x,-y,-z
x,y,-z
-x,y,1/2+z
x,-y,1/2+z
1/2+x,1/2+y,1/2+z
1/2-x,1/2-y,1/2+z
1/2+x,1/2-y,-z
1/2-x,1/2+y,-z
1/2-x,1/2-y,1/2-z
1/2+x,1/2+y,1/2-z
1/2-x,1/2+y,z
1/2+x,1/2-y,z
loop_
_atom_site_type_symbol
_atom_site_label
_atom_site_fract_x
_atom_site_fract_y
_atom_site_fract_z
Si Si1 0.432704 0.690341 0.842288
Si Si2 0.113127 0.305415 0.404824
Si Si3 0.066414 0.437234 0.343290
Si Si4 0.108107 0.943637 0.401268
O O1 0.500000 0.689111 0.750000
O O2 0.255753 0.698523 0.844966
O O3 0.506057 0.748156 0.889267
O O4 0.462795 0.623752 0.885041
O O5 0.169312 0.304850 0.500000
O O6 0.036706 0.371829 0.388356
O O7 0.242830 0.445599 0.347044
O O8 0.000000 0.500000 0.382330
O O9 0.000000 0.432541 0.250000
O O10 0.147471 0.948274 0.500000
O O11 0.000000 0.000000 0.380419
#
# Coordination Sequence:
#
# PCOD9528365 Si02
#       4
#    16  16  16  16
#     4  11  23  39  62  90 122 157 200 252 304 360
#     4  11  23  41  62  87 122 160 203 250 301 362
#     4  10  22  39  61  91 125 159 201 250 304 363
#     4  10  23  43  65  91 124 162 206 254 305 363
#
# _framework density 20.562218000000001
#
# number of rings (size 3 to 8) (size 9 to 14) (size 15 to 20)
#    0.000    1.500    0.000    6.000    0.000   14.500 
#    0.000    2.500    0.000    0.000    0.000    0.000 
#    0.000    0.000    0.000    0.000    0.000    0.000 
#
# Total GULP energy -178794.022071 kJ/mol
# GULP energy per Si atom -5587.313190 kJ/mol
# Density = 2.051542 g / cm^3
# Si number density = 20.562218 Si / 1000 Ang^3
#
#
#
# Elastic Constant Matrix: (Units=GPa)
#
#
# Indices 1 2 3 4 5 6 
#
# 1 74.6516 78.6282 37.7975 0.0000 0.0000 0.0000
# 2 78.6282 209.1154 18.3558 0.0000 0.0000 0.0000
# 3 37.7975 18.3558 84.9406 0.0000 0.0000 0.0000
# 4 0.0000 0.0000 0.0000 34.0146 0.0000 0.0000
# 5 0.0000 0.0000 0.0000 0.0000 22.3514 0.0000
# 6 0.0000 0.0000 0.0000 0.0000 0.0000 43.3419
#
#
#
# Elastic Compliance Matrix: (Units=1/GPa)
#
#
# Indices 1 2 3 4 5 6 
#
# 1 0.029734 -0.010212 -0.011024 0.000000 0.000000 0.000000
# 2 -0.010212 0.008382 0.002733 0.000000 0.000000 0.000000
# 3 -0.011024 0.002733 0.016088 0.000000 0.000000 0.000000
# 4 0.000000 0.000000 0.000000 0.029399 0.000000 0.000000
# 5 0.000000 0.000000 0.000000 0.000000 0.044740 0.000000
# 6 0.000000 0.000000 0.000000 0.000000 0.000000 0.023072
#
#
# Mechanical properties :
#
#
# Convention : Reuss Voigt Hill
#
# Bulk Modulus (GPa) = 58.15109 70.91895 64.53502
# Shear Modulus (GPa) = 25.75277 35.53667 30.64472
#
# Velocity S-wave (km/s) = 3.54281 4.16173 3.86468
# Velocity P-wave (km/s) = 6.71396 7.59330 7.16713
#
# Compressibility (1/GPa) = 0.01719658
#
# Stress axis : x y z
#
# Youngs Moduli (GPa) = 33.63207 119.30341 62.15828
#
# Poissons Ratio (x) = 1.21835 0.68524
# Poissons Ratio (y) = 0.34346 -0.16988
# Poissons Ratio (z) = 0.37077 -0.32605
#
# Static dielectric constant tensor:
#      x y z
#    x 1.712950 0.000000 0.000000 
#    y 0.000000 1.743260 0.000000 
#    z 0.000000 0.000000 1.729400 
# 
# From -- ./inp_files/18650.got.cif
#   From: 2010.05.17/outbox.cif.g08.bks.cpg/sg72_10_cif.got.tgz:18650.got - 2010.06.03 17:03:01.
