data_PCOD9528881
_publ_section_title
;
Structure prediction by ZEFSAII (Michael W. Deem and Ramdas Pophale) SiO2 
 PCOD9528881
Probable space group: I B A M
;
_chemical_formula_sum "Si O2"
_cell_formula_units_Z 68
_cell_length_a 11.772082
_cell_length_b 16.665110
_cell_length_c 18.212191
_cell_angle_alpha 90.000000
_cell_angle_beta 90.000000
_cell_angle_gamma 90.000000
_cell_volume 3572.923022
_symmetry_space_group_name_H-M "I B A M"
_symmetry_group_IT_number 72
_symmetry_cell_setting 'orthorhombic'
loop_
_space_group_symop_operation_xyz
x,y,z
-x,-y,z
x,-y,1/2-z
-x,y,1/2-z
-x,-y,-z
x,y,-z
-x,y,1/2+z
x,-y,1/2+z
1/2+x,1/2+y,1/2+z
1/2-x,1/2-y,1/2+z
1/2+x,1/2-y,-z
1/2-x,1/2+y,-z
1/2-x,1/2-y,1/2-z
1/2+x,1/2+y,1/2-z
1/2-x,1/2+y,z
1/2+x,1/2-y,z
loop_
_atom_site_type_symbol
_atom_site_label
_atom_site_fract_x
_atom_site_fract_y
_atom_site_fract_z
Si Si1 0.518813 0.598367 0.000000
Si Si2 0.643822 0.679607 0.383015
Si Si3 0.000000 0.500000 0.250000
Si Si4 0.266143 0.811078 0.000000
Si Si5 0.500000 0.745022 0.250000
Si Si6 0.617453 0.126730 0.351310
Si Si7 0.990257 0.595277 0.000000
O O1 0.500000 0.500000 0.000000
O O2 0.450291 0.635362 0.068528
O O3 0.643908 0.642970 0.000000
O O4 0.701249 0.753821 0.429690
O O5 0.583525 0.701778 0.306884
O O6 0.750473 0.623154 0.367580
O O7 0.076489 0.552476 0.196556
O O8 0.360057 0.880156 0.000000
O O9 0.418782 0.797945 0.302153
O O10 0.550528 0.129748 0.427874
O O11 0.000000 0.500000 0.000000
#
# Coordination Sequence:
#
# PCOD9528881 Si02
#       7
#     8  16   4   8   8  16   8
#     4  11  27  45  64 100 139 175 221 276 342 395
#     4  11  24  44  70  93 135 176 227 271 328 409
#     4  10  24  42  60 102 134 166 218 276 332 398
#     4  11  24  43  72  96 131 176 226 279 322 399
#     4  11  22  43  63 104 123 174 218 280 327 402
#     4  11  23  41  67  95 131 166 221 275 335 381
#     4  12  23  40  69  99 128 172 224 276 336 392
#
# _framework density 19.032036999999999
#
# number of rings (size 3 to 8) (size 9 to 14) (size 15 to 20)
#    0.000    0.941    3.529    3.529    6.588    0.000 
#    4.235    0.000    0.000    0.000    0.000    0.000 
#    0.000    0.000    0.000    0.000    0.000    0.000 
#
# Total GULP energy -189734.339380 kJ/mol
# GULP energy per Si atom -5580.421746 kJ/mol
# Density = 1.898872 g / cm^3
# Si number density = 19.032037 Si / 1000 Ang^3
#
#
#
# Elastic Constant Matrix: (Units=GPa)
#
#
# Indices 1 2 3 4 5 6 
#
# 1 202.7425 71.8909 85.4283 0.0000 0.0000 0.0000
# 2 71.8909 100.9157 55.3060 0.0000 0.0000 0.0000
# 3 85.4283 55.3060 171.9736 0.0000 0.0000 0.0000
# 4 0.0000 0.0000 0.0000 26.4408 0.0000 0.0000
# 5 0.0000 0.0000 0.0000 0.0000 50.9537 0.0000
# 6 0.0000 0.0000 0.0000 0.0000 0.0000 161.2838
#
#
#
# Elastic Compliance Matrix: (Units=1/GPa)
#
#
# Indices 1 2 3 4 5 6 
#
# 1 0.007322 -0.003912 -0.002379 0.000000 0.000000 0.000000
# 2 -0.003912 0.014120 -0.002597 0.000000 0.000000 0.000000
# 3 -0.002379 -0.002597 0.007832 0.000000 0.000000 0.000000
# 4 0.000000 0.000000 0.000000 0.037820 0.000000 0.000000
# 5 0.000000 0.000000 0.000000 0.000000 0.019626 0.000000
# 6 0.000000 0.000000 0.000000 0.000000 0.000000 0.006200
#
#
# Mechanical properties :
#
#
# Convention : Reuss Voigt Hill
#
# Bulk Modulus (GPa) = 86.98482 100.09802 93.54142
# Shear Modulus (GPa) = 43.65672 65.26944 54.46308
#
# Velocity S-wave (km/s) = 4.79462 5.86250 5.35525
# Velocity P-wave (km/s) = 8.74384 9.92643 9.35384
#
# Compressibility (1/GPa) = 0.01149626
#
# Stress axis : x y z
#
# Youngs Moduli (GPa) = 136.57277 70.82233 127.68156
#
# Poissons Ratio (x) = 0.27708 0.30377
# Poissons Ratio (y) = 0.53432 0.33164
# Poissons Ratio (z) = 0.32492 0.18396
#
# Static dielectric constant tensor:
#      x y z
#    x 1.647780 0.000000 0.000000 
#    y 0.000000 1.682340 0.000000 
#    z 0.000000 0.000000 1.699550 
# 
# From -- ./inp_files/35541.got.cif
#   From: 2010.05.17/outbox.cif.g08.bks.cpg/sg72_18_cif.got.tgz:35541.got - 2010.06.03 17:03:01.
