data_PCOD9528710
_publ_section_title
;
Structure prediction by ZEFSAII (Michael W. Deem and Ramdas Pophale) SiO2 
 PCOD9528710
Probable space group: I B A M
;
_chemical_formula_sum "Si O2"
_cell_formula_units_Z 64
_cell_length_a 21.175949
_cell_length_b 9.787959
_cell_length_c 16.178510
_cell_angle_alpha 90.000000
_cell_angle_beta 90.000000
_cell_angle_gamma 90.000000
_cell_volume 3353.308776
_symmetry_space_group_name_H-M "I B A M"
_symmetry_group_IT_number 72
_symmetry_cell_setting 'orthorhombic'
loop_
_space_group_symop_operation_xyz
x,y,z
-x,-y,z
x,-y,1/2-z
-x,y,1/2-z
-x,-y,-z
x,y,-z
-x,y,1/2+z
x,-y,1/2+z
1/2+x,1/2+y,1/2+z
1/2-x,1/2-y,1/2+z
1/2+x,1/2-y,-z
1/2-x,1/2+y,-z
1/2-x,1/2-y,1/2-z
1/2+x,1/2+y,1/2-z
1/2-x,1/2+y,z
1/2+x,1/2-y,z
loop_
_atom_site_type_symbol
_atom_site_label
_atom_site_fract_x
_atom_site_fract_y
_atom_site_fract_z
Si Si1 0.389895 0.000000 0.250000
Si Si2 0.000000 0.697272 0.750000
Si Si3 0.775739 0.338281 0.673073
Si Si4 0.546744 0.627757 0.405728
Si Si5 0.691432 0.434071 0.906198
O O1 0.440410 0.109388 0.215703
O O2 0.341967 0.085440 0.307803
O O3 0.974283 0.779192 0.829102
O O4 0.750000 0.250000 0.750000
O O5 0.727171 0.457138 0.650165
O O6 0.784075 0.220563 0.605221
O O7 0.500000 0.500000 0.407374
O O8 0.546742 0.688518 0.500000
O O9 0.617181 0.574055 0.388755
O O10 0.701224 0.478518 0.000000
#
# Coordination Sequence:
#
# PCOD9528710 Si02
#       5
#     8   8  16  16  16
#     4  11  24  40  62  94 123 166 226 258 331 406
#     4  11  23  42  66  88 131 175 210 274 333 388
#     4  12  23  41  65  95 129 168 217 267 322 398
#     4  10  23  40  63  95 127 167 221 271 330 403
#     4  11  24  42  64  95 131 168 214 270 332 393
#
# _framework density 19.085626000000001
#
# number of rings (size 3 to 8) (size 9 to 14) (size 15 to 20)
#    0.000    1.000    5.000    1.125    3.500    2.000 
#    0.000    5.000    0.000    0.000    0.000    0.000 
#    0.000    0.000    0.000    0.000    0.000    0.000 
#
# Total GULP energy -178410.435579 kJ/mol
# GULP energy per Si atom -5575.326112 kJ/mol
# Density = 1.904219 g / cm^3
# Si number density = 19.085626 Si / 1000 Ang^3
#
#
#
# Elastic Constant Matrix: (Units=GPa)
#
#
# Indices 1 2 3 4 5 6 
#
# 1 132.6514 69.0430 77.9029 0.0000 0.0000 0.0000
# 2 69.0430 120.0404 58.3356 0.0000 0.0000 0.0000
# 3 77.9029 58.3356 90.4320 0.0000 0.0000 0.0000
# 4 0.0000 0.0000 0.0000 27.4500 0.0000 0.0000
# 5 0.0000 0.0000 0.0000 0.0000 31.8084 0.0000
# 6 0.0000 0.0000 0.0000 0.0000 0.0000 24.2055
#
#
#
# Elastic Compliance Matrix: (Units=1/GPa)
#
#
# Indices 1 2 3 4 5 6 
#
# 1 0.016324 -0.003722 -0.011662 0.000000 0.000000 0.000000
# 2 -0.003722 0.012983 -0.005169 0.000000 0.000000 0.000000
# 3 -0.011662 -0.005169 0.024438 0.000000 0.000000 0.000000
# 4 0.000000 0.000000 0.000000 0.036430 0.000000 0.000000
# 5 0.000000 0.000000 0.000000 0.000000 0.031438 0.000000
# 6 0.000000 0.000000 0.000000 0.000000 0.000000 0.041313
#
#
# Mechanical properties :
#
#
# Convention : Reuss Voigt Hill
#
# Bulk Modulus (GPa) = 79.10876 83.74298 81.42587
# Shear Modulus (GPa) = 24.01008 25.88227 24.94617
#
# Velocity S-wave (km/s) = 3.55070 3.68654 3.61926
# Velocity P-wave (km/s) = 7.63868 7.87994 7.76025
#
# Compressibility (1/GPa) = 0.01264083
#
# Stress axis : x y z
#
# Youngs Moduli (GPa) = 61.25765 77.02282 40.91924
#
# Poissons Ratio (x) = 0.28668 0.47719
# Poissons Ratio (y) = 0.22800 0.21150
# Poissons Ratio (z) = 0.71437 0.39812
#
# Static dielectric constant tensor:
#      x y z
#    x 1.787670 0.000000 0.000000 
#    y 0.000000 1.674330 0.000000 
#    z 0.000000 0.000000 1.691130 
# 
# From -- ./inp_files/32240.got.cif
#   From: 2010.05.17/outbox.cif.g08.bks.cpg/sg72_17_cif.got.tgz:32240.got - 2010.06.03 17:03:01.
