data_PCOD9528374
_publ_section_title
;
Structure prediction by ZEFSAII (Michael W. Deem and Ramdas Pophale) SiO2 
 PCOD9528374
Probable space group: I B A M
;
_chemical_formula_sum "Si O2"
_cell_formula_units_Z 116
_cell_length_a 18.382415
_cell_length_b 17.481776
_cell_length_c 18.660808
_cell_angle_alpha 90.000000
_cell_angle_beta 90.000000
_cell_angle_gamma 90.000000
_cell_volume 5996.786154
_symmetry_space_group_name_H-M "I B A M"
_symmetry_group_IT_number 72
_symmetry_cell_setting 'orthorhombic'
loop_
_space_group_symop_operation_xyz
x,y,z
-x,-y,z
x,-y,1/2-z
-x,y,1/2-z
-x,-y,-z
x,y,-z
-x,y,1/2+z
x,-y,1/2+z
1/2+x,1/2+y,1/2+z
1/2-x,1/2-y,1/2+z
1/2+x,1/2-y,-z
1/2-x,1/2+y,-z
1/2-x,1/2-y,1/2-z
1/2+x,1/2+y,1/2-z
1/2-x,1/2+y,z
1/2+x,1/2-y,z
loop_
_atom_site_type_symbol
_atom_site_label
_atom_site_fract_x
_atom_site_fract_y
_atom_site_fract_z
Si Si1 0.478234 0.087775 0.917709
Si Si2 0.675238 0.762929 0.210391
Si Si3 0.443595 0.205938 0.311708
Si Si4 0.000000 0.000000 0.250000
Si Si5 0.403906 0.612527 0.345427
Si Si6 0.170374 0.024464 0.085517
Si Si7 0.309119 0.875815 0.416342
Si Si8 0.051863 0.845664 0.583907
O O1 0.519024 0.140820 0.860098
O O2 0.391105 0.092788 0.910580
O O3 0.500000 0.000000 0.908769
O O4 0.496288 0.111826 0.000000
O O5 0.750000 0.750000 0.250000
O O6 0.626475 0.814228 0.264298
O O7 0.632214 0.684566 0.193576
O O8 0.691059 0.803574 0.135396
O O9 0.500000 0.230889 0.250000
O O10 0.426563 0.276032 0.364616
O O11 0.948385 0.942996 0.293364
O O12 0.343791 0.557868 0.380661
O O13 0.466410 0.639091 0.401362
O O14 0.245659 0.065563 0.106474
O O15 0.102241 0.081061 0.102089
O O16 0.171423 0.015748 0.000000
O O17 0.295771 0.856649 0.500000
O O18 0.063133 0.828536 0.500000
#
# Coordination Sequence:
#
# PCOD9528374 Si02
#       8
#    16  16  16   4  16  16  16  16
#     4  10  22  42  69  95 120 163 221 273 322 381
#     4  12  27  43  63  95 132 172 216 266 320 399
#     4  12  22  41  62  94 127 166 213 264 320 380
#     4  12  24  36  62  96 128 172 202 264 340 388
#     4  12  23  39  62  90 130 170 216 266 326 397
#     4  10  22  39  63  94 127 163 211 272 327 383
#     4  10  22  44  65  88 126 170 213 265 327 387
#     4  11  21  38  65  96 130 170 217 263 321 400
#
# _framework density 19.343693999999999
#
# number of rings (size 3 to 8) (size 9 to 14) (size 15 to 20)
#    0.000    0.966    4.138    2.483    1.931    4.690 
#    0.000    2.069    0.000    0.000    0.000    0.000 
#    0.000    0.000    0.000    0.000    0.000    0.000 
#
# Total GULP energy -323967.138947 kJ/mol
# GULP energy per Si atom -5585.640327 kJ/mol
# Density = 1.929967 g / cm^3
# Si number density = 19.343694 Si / 1000 Ang^3
#
#
#
# Elastic Constant Matrix: (Units=GPa)
#
#
# Indices 1 2 3 4 5 6 
#
# 1 107.9188 34.5199 39.7769 0.0000 0.0000 0.0000
# 2 34.5199 81.3236 45.4001 0.0000 0.0000 0.0000
# 3 39.7769 45.4001 89.1196 0.0000 0.0000 0.0000
# 4 0.0000 0.0000 0.0000 30.4374 0.0000 0.0000
# 5 0.0000 0.0000 0.0000 0.0000 20.2985 0.0000
# 6 0.0000 0.0000 0.0000 0.0000 0.0000 27.7007
#
#
#
# Elastic Compliance Matrix: (Units=1/GPa)
#
#
# Indices 1 2 3 4 5 6 
#
# 1 0.011538 -0.002826 -0.003710 0.000000 0.000000 0.000000
# 2 -0.002826 0.017876 -0.007845 0.000000 0.000000 0.000000
# 3 -0.003710 -0.007845 0.016873 0.000000 0.000000 0.000000
# 4 0.000000 0.000000 0.000000 0.032854 0.000000 0.000000
# 5 0.000000 0.000000 0.000000 0.000000 0.049265 0.000000
# 6 0.000000 0.000000 0.000000 0.000000 0.000000 0.036100
#
#
# Mechanical properties :
#
#
# Convention : Reuss Voigt Hill
#
# Bulk Modulus (GPa) = 57.06349 57.52843 57.29596
# Shear Modulus (GPa) = 25.11179 26.26499 25.68839
#
# Velocity S-wave (km/s) = 3.60695 3.68884 3.64812
# Velocity P-wave (km/s) = 6.84913 6.92446 6.88690
#
# Compressibility (1/GPa) = 0.01752434
#
# Stress axis : x y z
#
# Youngs Moduli (GPa) = 86.67267 55.94128 59.26591
#
# Poissons Ratio (x) = 0.15811 0.21986
# Poissons Ratio (y) = 0.24498 0.46494
# Poissons Ratio (z) = 0.32153 0.43886
#
# Static dielectric constant tensor:
#      x y z
#    x 1.691040 0.000000 0.000000 
#    y 0.000000 1.652040 0.000000 
#    z 0.000000 0.000000 1.680760 
# 
# From -- ./inp_files/31752.got.cif
#   From: 2010.05.17/outbox.cif.g08.bks.cpg/sg72_16_cif.got.tgz:31752.got - 2010.06.03 17:03:01.
