data_PCOD9528193
_publ_section_title
;
Structure prediction by ZEFSAII (Michael W. Deem and Ramdas Pophale) SiO2 
 PCOD9528193
Probable space group: I B A M
;
_chemical_formula_sum "Si O2"
_cell_formula_units_Z 112
_cell_length_a 20.174686
_cell_length_b 14.187248
_cell_length_c 18.253411
_cell_angle_alpha 90.000000
_cell_angle_beta 90.000000
_cell_angle_gamma 90.000000
_cell_volume 5224.551051
_symmetry_space_group_name_H-M "I B A M"
_symmetry_group_IT_number 72
_symmetry_cell_setting 'orthorhombic'
loop_
_space_group_symop_operation_xyz
x,y,z
-x,-y,z
x,-y,1/2-z
-x,y,1/2-z
-x,-y,-z
x,y,-z
-x,y,1/2+z
x,-y,1/2+z
1/2+x,1/2+y,1/2+z
1/2-x,1/2-y,1/2+z
1/2+x,1/2-y,-z
1/2-x,1/2+y,-z
1/2-x,1/2-y,1/2-z
1/2+x,1/2+y,1/2-z
1/2-x,1/2+y,z
1/2+x,1/2-y,z
loop_
_atom_site_type_symbol
_atom_site_label
_atom_site_fract_x
_atom_site_fract_y
_atom_site_fract_z
Si Si1 0.707757 0.146734 0.920823
Si Si2 0.152309 0.152815 0.371562
Si Si3 0.548308 0.190623 0.585007
Si Si4 0.889529 0.606019 0.720565
Si Si5 0.910303 0.248950 0.352250
Si Si6 0.926477 0.025480 0.664054
Si Si7 0.248966 0.401238 0.229274
O O1 0.785049 0.174708 0.922714
O O2 0.657550 0.227195 0.894994
O O3 0.710463 0.081968 0.848418
O O4 0.688205 0.108595 0.000000
O O5 0.092110 0.219302 0.390330
O O6 0.189601 0.164496 0.292117
O O7 0.125945 0.045334 0.374072
O O8 0.559334 0.168151 0.500000
O O9 0.573649 0.114379 0.643467
O O10 0.472201 0.215967 0.599734
O O11 0.899473 0.500000 0.750000
O O12 0.913446 0.686865 0.778106
O O13 0.809665 0.623567 0.715843
O O14 0.914951 0.136972 0.341698
O O15 0.927166 0.000000 0.750000
O O16 0.000000 0.000000 0.635101
O O17 0.279026 0.500000 0.250000
#
# Coordination Sequence:
#
# PCOD9528193 Si02
#       7
#    16  16  16  16  16  16  16
#     4   9  20  41  64  90 133 183 231 286 345 412
#     4  10  21  41  68  97 146 178 235 278 353 424
#     4  12  25  42  69 104 141 181 231 295 362 428
#     4  10  23  46  70  99 135 183 248 300 356 418
#     4  11  23  44  71 102 137 192 239 291 354 434
#     4  11  22  39  67 108 146 185 231 288 356 429
#     4   8  18  38  65  96 127 172 232 283 340 411
#
# _framework density 21.437248
#
# number of rings (size 3 to 8) (size 9 to 14) (size 15 to 20)
#    0.857    1.000    1.429    2.571    2.000    1.714 
#    7.714   11.429    0.000    0.000    0.000    0.000 
#    0.000    0.000    0.000    0.000    0.000    0.000 
#
# Total GULP energy -311912.323666 kJ/mol
# GULP energy per Si atom -5569.862923 kJ/mol
# Density = 2.138846 g / cm^3
# Si number density = 21.437248 Si / 1000 Ang^3
#
#
#
# Elastic Constant Matrix: (Units=GPa)
#
#
# Indices 1 2 3 4 5 6 
#
# 1 138.8751 48.5293 38.4293 0.0000 0.0000 0.0000
# 2 48.5293 138.9859 50.0467 0.0000 0.0000 0.0000
# 3 38.4293 50.0467 77.3368 0.0000 0.0000 0.0000
# 4 0.0000 0.0000 0.0000 9.6835 0.0000 0.0000
# 5 0.0000 0.0000 0.0000 0.0000 -23.1860 0.0000
# 6 0.0000 0.0000 0.0000 0.0000 0.0000 28.8966
#
#
#
# Elastic Compliance Matrix: (Units=1/GPa)
#
#
# Indices 1 2 3 4 5 6 
#
# 1 0.008732 -0.001938 -0.003085 0.000000 0.000000 0.000000
# 2 -0.001938 0.009811 -0.005386 0.000000 0.000000 0.000000
# 3 -0.003085 -0.005386 0.017949 0.000000 0.000000 0.000000
# 4 0.000000 0.000000 0.000000 0.103268 0.000000 0.000000
# 5 0.000000 0.000000 0.000000 0.000000 -0.043129 0.000000
# 6 0.000000 0.000000 0.000000 0.000000 0.000000 0.034606
#
#
# Mechanical properties :
#
#
# Convention : Reuss Voigt Hill
#
# Bulk Modulus (GPa) = 63.80000 69.91203 66.85602
# Shear Modulus (GPa) = 31.79077 17.62499 24.70788
#
# Velocity S-wave (km/s) = 3.85511 2.87046 3.39863
# Velocity P-wave (km/s) = 7.04569 6.60827 6.83048
#
# Compressibility (1/GPa) = 0.01567398
#
# Stress axis : x y z
#
# Youngs Moduli (GPa) = 114.52757 101.92547 55.71448
#
# Poissons Ratio (x) = 0.19754 0.17186
# Poissons Ratio (y) = 0.22196 0.30008
# Poissons Ratio (z) = 0.35327 0.54897
#
# Static dielectric constant tensor:
#      x y z
#    x 1.836940 0.000000 0.000000 
#    y 0.000000 1.775910 0.000000 
#    z 0.000000 0.000000 1.810290 
# 
# From -- ./inp_files/40359.got.cif
#   From: 2010.05.17/outbox.cif.g08.bks.cpg/sg72_21_cif.got.tgz:40359.got - 2010.06.03 17:03:01.
