data_PCOD9528042
_publ_section_title
;
Structure prediction by ZEFSAII (Michael W. Deem and Ramdas Pophale) SiO2 
 PCOD9528042
Probable space group: I B A M
;
_chemical_formula_sum "Si O2"
_cell_formula_units_Z 64
_cell_length_a 35.234995
_cell_length_b 5.022946
_cell_length_c 15.855791
_cell_angle_alpha 90.000000
_cell_angle_beta 90.000000
_cell_angle_gamma 90.000000
_cell_volume 2806.213025
_symmetry_space_group_name_H-M "I B A M"
_symmetry_group_IT_number 72
_symmetry_cell_setting 'orthorhombic'
loop_
_space_group_symop_operation_xyz
x,y,z
-x,-y,z
x,-y,1/2-z
-x,y,1/2-z
-x,-y,-z
x,y,-z
-x,y,1/2+z
x,-y,1/2+z
1/2+x,1/2+y,1/2+z
1/2-x,1/2-y,1/2+z
1/2+x,1/2-y,-z
1/2-x,1/2+y,-z
1/2-x,1/2-y,1/2-z
1/2+x,1/2+y,1/2-z
1/2-x,1/2+y,z
1/2+x,1/2-y,z
loop_
_atom_site_type_symbol
_atom_site_label
_atom_site_fract_x
_atom_site_fract_y
_atom_site_fract_z
Si Si1 0.350563 0.144499 0.403335
Si Si2 0.525840 0.239264 0.598942
Si Si3 0.227900 0.102299 0.897082
Si Si4 0.108305 0.871167 0.840675
O O1 0.343552 0.059398 0.500000
O O2 0.312057 0.277728 0.368875
O O3 0.380945 0.384360 0.401923
O O4 0.365540 0.885583 0.355770
O O5 0.500000 0.500000 0.603127
O O6 0.534934 0.184856 0.500000
O O7 0.565214 0.279847 0.646011
O O8 0.500000 0.000000 0.631718
O O9 0.261076 0.306165 0.870882
O O10 0.226488 0.098086 0.000000
O O11 0.113767 0.000000 0.750000
#
# Coordination Sequence:
#
# PCOD9528042 Si02
#       4
#    16  16  16  16
#     4  11  22  39  65  91 121 165 212 257 308 371
#     4  10  21  39  64  90 116 150 195 245 295 355
#     4   9  17  31  55  88 118 148 200 264 311 352
#     4  12  25  41  61  91 130 165 203 254 312 372
#
# _framework density 22.806535
#
# number of rings (size 3 to 8) (size 9 to 14) (size 15 to 20)
#    0.000    1.500    0.000    6.000    0.000    6.500 
#    0.000    1.250    0.000   15.000    0.000    0.000 
#    0.000    0.000    0.000    0.000    0.000    0.000 
#
# Total GULP energy -179109.690942 kJ/mol
# GULP energy per Si atom -5597.177842 kJ/mol
# Density = 2.275463 g / cm^3
# Si number density = 22.806535 Si / 1000 Ang^3
#
#
#
# Elastic Constant Matrix: (Units=GPa)
#
#
# Indices 1 2 3 4 5 6 
#
# 1 74.9797 8.5328 9.7497 0.0000 0.0000 0.0000
# 2 8.5328 108.2166 4.0481 0.0000 0.0000 0.0000
# 3 9.7497 4.0481 36.4684 0.0000 0.0000 0.0000
# 4 0.0000 0.0000 0.0000 24.7446 0.0000 0.0000
# 5 0.0000 0.0000 0.0000 0.0000 -7.5322 0.0000
# 6 0.0000 0.0000 0.0000 0.0000 0.0000 43.8426
#
#
#
# Elastic Compliance Matrix: (Units=1/GPa)
#
#
# Indices 1 2 3 4 5 6 
#
# 1 0.013916 -0.000962 -0.003614 0.000000 0.000000 0.000000
# 2 -0.000962 0.009346 -0.000780 0.000000 0.000000 0.000000
# 3 -0.003614 -0.000780 0.028474 0.000000 0.000000 0.000000
# 4 0.000000 0.000000 0.000000 0.040413 0.000000 0.000000
# 5 0.000000 0.000000 0.000000 0.000000 -0.132763 0.000000
# 6 0.000000 0.000000 0.000000 0.000000 0.000000 0.022809
#
#
# Mechanical properties :
#
#
# Convention : Reuss Voigt Hill
#
# Bulk Modulus (GPa) = 24.37605 29.36953 26.87279
# Shear Modulus (GPa) = 759.74238 25.36659 392.55449
#
# Velocity S-wave (km/s) = 18.27151 3.33866 13.13382
# Velocity P-wave (km/s) = 21.35046 5.26952 15.55008
#
# Compressibility (1/GPa) = 0.04102387
#
# Stress axis : x y z
#
# Youngs Moduli (GPa) = 71.85804 107.00019 35.12011
#
# Poissons Ratio (x) = 0.10295 0.12691
# Poissons Ratio (y) = 0.06914 0.02740
# Poissons Ratio (z) = 0.25967 0.08348
#
# Static dielectric constant tensor:
#      x y z
#    x 1.825410 0.000000 0.000000 
#    y 0.000000 1.795730 0.000000 
#    z 0.000000 0.000000 1.899700 
# 
# From -- ./inp_files/34108.got.cif
#   From: 2010.05.17/outbox.cif.g08.bks.cpg/sg72_18_cif.got.tgz:34108.got - 2010.06.03 17:03:01.
