data_PCOD9528203
_publ_section_title
;
Structure prediction by ZEFSAII (Michael W. Deem and Ramdas Pophale) SiO2 
 PCOD9528203
Probable space group: I B A M
;
_chemical_formula_sum "Si O2"
_cell_formula_units_Z 64
_cell_length_a 8.653638
_cell_length_b 23.755678
_cell_length_c 14.247890
_cell_angle_alpha 90.000000
_cell_angle_beta 90.000000
_cell_angle_gamma 90.000000
_cell_volume 2928.982030
_symmetry_space_group_name_H-M "I B A M"
_symmetry_group_IT_number 72
_symmetry_cell_setting 'orthorhombic'
loop_
_space_group_symop_operation_xyz
x,y,z
-x,-y,z
x,-y,1/2-z
-x,y,1/2-z
-x,-y,-z
x,y,-z
-x,y,1/2+z
x,-y,1/2+z
1/2+x,1/2+y,1/2+z
1/2-x,1/2-y,1/2+z
1/2+x,1/2-y,-z
1/2-x,1/2+y,-z
1/2-x,1/2-y,1/2-z
1/2+x,1/2+y,1/2-z
1/2-x,1/2+y,z
1/2+x,1/2-y,z
loop_
_atom_site_type_symbol
_atom_site_label
_atom_site_fract_x
_atom_site_fract_y
_atom_site_fract_z
Si Si1 0.259146 0.768204 0.000000
Si Si2 0.073120 0.332298 0.500000
Si Si3 0.863889 0.608123 0.310341
Si Si4 0.634248 0.328910 0.684097
Si Si5 0.554634 0.562945 0.611813
O O1 0.435476 0.787478 0.000000
O O2 0.180895 0.793129 0.093864
O O3 0.234397 0.701494 0.000000
O O4 0.064967 0.368139 0.406095
O O5 0.783376 0.657219 0.247855
O O6 0.720163 0.570412 0.340152
O O7 0.000000 0.581327 0.250000
O O8 0.500000 0.302841 0.750000
O O9 0.560430 0.388376 0.648718
O O10 0.500000 0.500000 0.630635
O O11 0.569923 0.570324 0.500000
#
# Coordination Sequence:
#
# PCOD9528203 Si02
#       5
#     8   8  16  16  16
#     4  12  26  44  64  95 135 177 236 277 337 393
#     4  12  28  42  68  97 137 181 228 284 339 390
#     4  11  23  44  66  99 139 178 220 278 337 402
#     4  10  23  40  67  93 137 175 221 277 340 396
#     4  10  21  41  73 103 134 173 223 272 341 411
#
# _framework density 21.850595999999999
#
# number of rings (size 3 to 8) (size 9 to 14) (size 15 to 20)
#    0.000    1.250    5.000    0.000    7.000    6.500 
#    0.000    2.500    0.000    4.500    0.000    0.000 
#    0.000    0.000    0.000    0.000    0.000    0.000 
#
# Total GULP energy -179101.780843 kJ/mol
# GULP energy per Si atom -5596.930651 kJ/mol
# Density = 2.180086 g / cm^3
# Si number density = 21.850596 Si / 1000 Ang^3
#
#
#
# Elastic Constant Matrix: (Units=GPa)
#
#
# Indices 1 2 3 4 5 6 
#
# 1 68.5400 3.3428 35.2103 0.0000 0.0000 0.0000
# 2 3.3428 45.5950 20.9620 0.0000 0.0000 0.0000
# 3 35.2103 20.9620 159.0815 -0.0001 0.0000 0.0000
# 4 0.0000 0.0000 -0.0001 5.4966 0.0000 0.0000
# 5 0.0000 0.0000 0.0000 0.0000 21.8471 0.0000
# 6 0.0000 0.0000 0.0000 0.0000 0.0000 23.6272
#
#
#
# Elastic Compliance Matrix: (Units=1/GPa)
#
#
# Indices 1 2 3 4 5 6 
#
# 1 0.016472 0.000499 -0.003712 0.000000 0.000000 0.000000
# 2 0.000499 0.023362 -0.003189 0.000000 0.000000 0.000000
# 3 -0.003712 -0.003189 0.007528 0.000000 0.000000 0.000000
# 4 0.000000 0.000000 0.000000 0.181931 0.000000 0.000000
# 5 0.000000 0.000000 0.000000 0.000000 0.045773 0.000000
# 6 0.000000 0.000000 0.000000 0.000000 0.000000 0.042324
#
#
# Mechanical properties :
#
#
# Convention : Reuss Voigt Hill
#
# Bulk Modulus (GPa) = 28.93639 43.58299 36.25969
# Shear Modulus (GPa) = 14.63220 24.44093 19.53656
#
# Velocity S-wave (km/s) = 2.59056 3.34810 2.99339
# Velocity P-wave (km/s) = 4.71377 5.91063 5.34580
#
# Compressibility (1/GPa) = 0.03455856
#
# Stress axis : x y z
#
# Youngs Moduli (GPa) = 60.70747 42.80520 132.84135
#
# Poissons Ratio (x) = -0.02135 0.49306
# Poissons Ratio (y) = -0.03028 0.42360
# Poissons Ratio (z) = 0.22532 0.13649
#
# Static dielectric constant tensor:
#      x y z
#    x 1.798060 0.000000 0.000000 
#    y 0.000000 1.753410 0.000000 
#    z 0.000000 0.000000 1.799190 
# 
# From -- ./inp_files/18709.got.cif
#   From: 2010.05.17/outbox.cif.g08.bks.cpg/sg72_10_cif.got.tgz:18709.got - 2010.06.03 17:03:01.
