data_PCOD9528408
_publ_section_title
;
Structure prediction by ZEFSAII (Michael W. Deem and Ramdas Pophale) SiO2 
 PCOD9528408
Probable space group: I B A M
;
_chemical_formula_sum "Si O2"
_cell_formula_units_Z 112
_cell_length_a 11.994552
_cell_length_b 20.405799
_cell_length_c 25.023005
_cell_angle_alpha 90.000000
_cell_angle_beta 90.000000
_cell_angle_gamma 90.000000
_cell_volume 6124.591098
_symmetry_space_group_name_H-M "I B A M"
_symmetry_group_IT_number 72
_symmetry_cell_setting 'orthorhombic'
loop_
_space_group_symop_operation_xyz
x,y,z
-x,-y,z
x,-y,1/2-z
-x,y,1/2-z
-x,-y,-z
x,y,-z
-x,y,1/2+z
x,-y,1/2+z
1/2+x,1/2+y,1/2+z
1/2-x,1/2-y,1/2+z
1/2+x,1/2-y,-z
1/2-x,1/2+y,-z
1/2-x,1/2-y,1/2-z
1/2+x,1/2+y,1/2-z
1/2-x,1/2+y,z
1/2+x,1/2-y,z
loop_
_atom_site_type_symbol
_atom_site_label
_atom_site_fract_x
_atom_site_fract_y
_atom_site_fract_z
Si Si1 0.763548 0.603143 0.636064
Si Si2 0.874653 0.204382 0.438974
Si Si3 0.575669 0.312176 0.366378
Si Si4 0.867465 0.509473 0.062753
Si Si5 0.541791 0.432267 0.810561
Si Si6 0.525387 0.174122 0.687102
Si Si7 0.326493 0.845046 0.104737
O O1 0.704507 0.660923 0.600424
O O2 0.801013 0.543630 0.597843
O O3 0.672225 0.577661 0.678496
O O4 0.871574 0.630202 0.666821
O O5 0.856994 0.184255 0.500000
O O6 0.852893 0.281904 0.431954
O O7 0.002793 0.196044 0.420205
O O8 0.518492 0.371980 0.337151
O O9 0.558705 0.247620 0.330647
O O10 0.702814 0.329992 0.375289
O O11 0.835687 0.584164 0.077265
O O12 0.000000 0.500000 0.072522
O O13 0.846976 0.497845 0.000000
O O14 0.500000 0.500000 0.835899
O O15 0.500000 0.432742 0.750000
O O16 0.500000 0.169440 0.750000
O O17 0.415462 0.156344 0.653074
#
# Coordination Sequence:
#
# PCOD9528408 Si02
#       7
#    16  16  16  16  16  16  16
#     4  11  22  44  61  92 130 163 213 264 313 388
#     4  10  22  40  64  91 123 163 207 262 321 369
#     4  10  22  40  61  92 125 159 210 266 306 384
#     4  11  23  40  63  92 131 170 205 257 327 383
#     4  10  22  40  63  89 119 166 207 254 314 369
#     4  11  24  40  62  94 128 173 211 264 327 371
#     4  11  22  41  62  94 128 160 215 261 308 388
#
# _framework density 18.286935
#
# number of rings (size 3 to 8) (size 9 to 14) (size 15 to 20)
#    0.000    1.429    2.857    2.143    2.000    1.714 
#    0.000    0.714    0.000    4.714    0.000    0.000 
#    0.000    0.000    0.000    0.000    0.000    0.000 
#
# Total GULP energy -312548.067557 kJ/mol
# GULP energy per Si atom -5581.215492 kJ/mol
# Density = 1.824531 g / cm^3
# Si number density = 18.286935 Si / 1000 Ang^3
#
#
#
# Elastic Constant Matrix: (Units=GPa)
#
#
# Indices 1 2 3 4 5 6 
#
# 1 167.6685 53.1172 63.6915 0.0000 0.0000 0.0000
# 2 53.1172 135.0990 39.7488 0.0000 0.0000 0.0000
# 3 63.6915 39.7488 115.0041 0.0000 0.0000 0.0000
# 4 0.0000 0.0000 0.0000 14.5961 0.0000 0.0000
# 5 0.0000 0.0000 0.0000 0.0000 8.3428 0.0000
# 6 0.0000 0.0000 0.0000 0.0000 0.0000 32.2618
#
#
#
# Elastic Compliance Matrix: (Units=1/GPa)
#
#
# Indices 1 2 3 4 5 6 
#
# 1 0.008037 -0.002060 -0.003739 0.000000 0.000000 0.000000
# 2 -0.002060 0.008768 -0.001890 0.000000 0.000000 0.000000
# 3 -0.003739 -0.001890 0.011419 0.000000 0.000000 0.000000
# 4 0.000000 0.000000 0.000000 0.068512 0.000000 0.000000
# 5 0.000000 0.000000 0.000000 0.000000 0.119865 0.000000
# 6 0.000000 0.000000 0.000000 0.000000 0.000000 0.030996
#
#
# Mechanical properties :
#
#
# Convention : Reuss Voigt Hill
#
# Bulk Modulus (GPa) = 77.83962 81.20959 79.52461
# Shear Modulus (GPa) = 18.70864 28.45440 23.58152
#
# Velocity S-wave (km/s) = 3.20200 3.94889 3.59490
# Velocity P-wave (km/s) = 7.50523 8.08063 7.79824
#
# Compressibility (1/GPa) = 0.01284693
#
# Stress axis : x y z
#
# Youngs Moduli (GPa) = 124.42337 114.05354 87.57122
#
# Poissons Ratio (x) = 0.23493 0.32744
# Poissons Ratio (y) = 0.25629 0.16548
# Poissons Ratio (z) = 0.46524 0.21552
#
# Static dielectric constant tensor:
#      x y z
#    x 1.625090 0.000000 0.000000 
#    y 0.000000 1.630310 0.000000 
#    z 0.000000 0.000000 1.671090 
# 
# From -- ./inp_files/43535.got.cif
#   From: 2010.05.17/outbox.cif.g08.bks.cpg/sg72_22_cif.got.tgz:43535.got - 2010.06.03 17:03:01.
