data_PCOD9528339
_publ_section_title
;
Structure prediction by ZEFSAII (Michael W. Deem and Ramdas Pophale) SiO2 
 PCOD9528339
Probable space group: I B A M
;
_chemical_formula_sum "Si O2"
_cell_formula_units_Z 80
_cell_length_a 10.272065
_cell_length_b 13.944742
_cell_length_c 27.207265
_cell_angle_alpha 90.000000
_cell_angle_beta 90.000000
_cell_angle_gamma 90.000000
_cell_volume 3897.203906
_symmetry_space_group_name_H-M "I B A M"
_symmetry_group_IT_number 72
_symmetry_cell_setting 'orthorhombic'
loop_
_space_group_symop_operation_xyz
x,y,z
-x,-y,z
x,-y,1/2-z
-x,y,1/2-z
-x,-y,-z
x,y,-z
-x,y,1/2+z
x,-y,1/2+z
1/2+x,1/2+y,1/2+z
1/2-x,1/2-y,1/2+z
1/2+x,1/2-y,-z
1/2-x,1/2+y,-z
1/2-x,1/2-y,1/2-z
1/2+x,1/2+y,1/2-z
1/2-x,1/2+y,z
1/2+x,1/2-y,z
loop_
_atom_site_type_symbol
_atom_site_label
_atom_site_fract_x
_atom_site_fract_y
_atom_site_fract_z
Si Si1 0.403969 0.907175 0.057409
Si Si2 0.951463 0.869624 0.805758
Si Si3 0.193030 0.874551 0.129699
Si Si4 0.322037 0.978300 0.305595
Si Si5 0.541516 0.192742 0.356927
O O1 0.256505 0.914232 0.079367
O O2 0.467330 0.826368 0.092235
O O3 0.500000 0.000000 0.062523
O O4 0.400060 0.883626 0.000000
O O5 0.812482 0.918114 0.807825
O O6 0.000000 0.884630 0.750000
O O7 0.053402 0.905953 0.847472
O O8 0.959034 0.756874 0.818681
O O9 0.167934 0.760127 0.130938
O O10 0.292925 0.921301 0.168106
O O11 0.419276 0.907903 0.333425
O O12 0.356012 0.000000 0.250000
#
# Coordination Sequence:
#
# PCOD9528339 Si02
#       5
#    16  16  16  16  16
#     4  11  23  45  66  86 122 165 210 268 324 360
#     4  10  22  38  64  91 133 167 201 249 307 373
#     4  10  23  39  67  93 124 163 216 249 308 380
#     4  12  21  39  64  92 133 176 203 247 313 375
#     4  10  24  39  63  94 128 161 214 257 306 376
#
# _framework density 20.527538
#
# number of rings (size 3 to 8) (size 9 to 14) (size 15 to 20)
#    1.200    0.200    4.000    1.800    0.000    5.600 
#    0.000    1.000    0.000    2.400    0.000    0.000 
#    0.000    0.000    0.000    0.000    0.000    0.000 
#
# Total GULP energy -222764.659362 kJ/mol
# GULP energy per Si atom -5569.116484 kJ/mol
# Density = 2.048082 g / cm^3
# Si number density = 20.527538 Si / 1000 Ang^3
#
#
#
# Elastic Constant Matrix: (Units=GPa)
#
#
# Indices 1 2 3 4 5 6 
#
# 1 126.0802 31.7073 48.0234 0.0000 0.0000 0.0000
# 2 31.7073 95.6880 37.5874 0.0000 0.0000 0.0000
# 3 48.0234 37.5874 155.1584 0.0000 0.0000 0.0000
# 4 0.0000 0.0000 0.0000 -1.2695 0.0000 0.0000
# 5 0.0000 0.0000 0.0000 0.0000 29.5368 0.0000
# 6 0.0000 0.0000 0.0000 0.0000 0.0000 22.6078
#
#
#
# Elastic Compliance Matrix: (Units=1/GPa)
#
#
# Indices 1 2 3 4 5 6 
#
# 1 0.009384 -0.002176 -0.002377 0.000000 0.000000 0.000000
# 2 -0.002176 0.012054 -0.002247 0.000000 0.000000 0.000000
# 3 -0.002377 -0.002247 0.007725 0.000000 0.000000 0.000000
# 4 0.000000 0.000000 0.000000 -0.787733 0.000000 0.000000
# 5 0.000000 0.000000 0.000000 0.000000 0.033856 0.000000
# 6 0.000000 0.000000 0.000000 0.000000 0.000000 0.044232
#
#
# Mechanical properties :
#
#
# Convention : Reuss Voigt Hill
#
# Bulk Modulus (GPa) = 64.25196 67.95142 66.10169
# Shear Modulus (GPa) = -7.55636 27.48228 9.96296
#
# Velocity S-wave (km/s) = -1.92070 3.66293 2.20545
# Velocity P-wave (km/s) = 5.14291 7.14590 6.22549
#
# Compressibility (1/GPa) = 0.01556373
#
# Stress axis : x y z
#
# Youngs Moduli (GPa) = 106.56247 82.95931 129.44725
#
# Poissons Ratio (x) = 0.18049 0.30776
# Poissons Ratio (y) = 0.23184 0.29083
# Poissons Ratio (z) = 0.25335 0.18639
#
# Static dielectric constant tensor:
#      x y z
#    x 1.893350 0.000000 0.000000 
#    y 0.000000 1.794990 0.000000 
#    z 0.000000 0.000000 1.687850 
# 
# From -- ./inp_files/43120.got.cif
#   From: 2010.05.17/outbox.cif.g08.bks.cpg/sg72_22_cif.got.tgz:43120.got - 2010.06.03 17:03:01.
