data_PCOD9528291
_publ_section_title
;
Structure prediction by ZEFSAII (Michael W. Deem and Ramdas Pophale) SiO2 
 PCOD9528291
Probable space group: I B A M
;
_chemical_formula_sum "Si O2"
_cell_formula_units_Z 96
_cell_length_a 8.558803
_cell_length_b 20.272048
_cell_length_c 25.030661
_cell_angle_alpha 90.000000
_cell_angle_beta 90.000000
_cell_angle_gamma 90.000000
_cell_volume 4342.931451
_symmetry_space_group_name_H-M "I B A M"
_symmetry_group_IT_number 72
_symmetry_cell_setting 'orthorhombic'
loop_
_space_group_symop_operation_xyz
x,y,z
-x,-y,z
x,-y,1/2-z
-x,y,1/2-z
-x,-y,-z
x,y,-z
-x,y,1/2+z
x,-y,1/2+z
1/2+x,1/2+y,1/2+z
1/2-x,1/2-y,1/2+z
1/2+x,1/2-y,-z
1/2-x,1/2+y,-z
1/2-x,1/2-y,1/2-z
1/2+x,1/2+y,1/2-z
1/2-x,1/2+y,z
1/2+x,1/2-y,z
loop_
_atom_site_type_symbol
_atom_site_label
_atom_site_fract_x
_atom_site_fract_y
_atom_site_fract_z
Si Si1 0.309433 0.668605 0.595957
Si Si2 0.624586 0.278811 0.709350
Si Si3 0.179107 0.974069 0.306581
Si Si4 0.633987 0.141214 0.655733
Si Si5 0.620975 0.950766 0.393482
Si Si6 0.663442 0.303715 0.938259
O O1 0.323894 0.674173 0.660890
O O2 0.231336 0.600943 0.577005
O O3 0.484337 0.679075 0.574625
O O4 0.199628 0.727840 0.576183
O O5 0.500000 0.308804 0.750000
O O6 0.750000 0.250000 0.750000
O O7 0.573901 0.210509 0.679708
O O8 0.233539 0.897622 0.310381
O O9 0.240116 0.000000 0.250000
O O10 0.266824 0.006292 0.356394
O O11 0.000000 0.000000 0.309741
O O12 0.488491 0.094135 0.644682
O O13 0.720301 0.156837 0.600160
O O14 0.500000 0.000000 0.422526
O O15 0.696534 0.315533 0.000000
#
# Coordination Sequence:
#
# PCOD9528291 Si02
#       6
#    16  16  16  16  16  16
#     4  11  22  40  61  96 127 164 222 268 327 404
#     4  11  22  34  55  87 128 168 197 257 326 384
#     4  10  22  37  59  90 125 175 219 261 319 388
#     4  10  22  39  59  91 126 165 222 264 316 399
#     4  10  22  40  64  86 128 172 211 268 319 385
#     4  11  23  42  69  94 126 169 216 282 338 385
#
# _framework density 22.104883999999998
#
# number of rings (size 3 to 8) (size 9 to 14) (size 15 to 20)
#    0.000    1.500    0.000    6.500    4.667    2.333 
#    0.000    0.833    0.000   23.000    0.000    0.000 
#    0.000    0.000    0.000    0.000    0.000    0.000 
#
# Total GULP energy -268080.235201 kJ/mol
# GULP energy per Si atom -5585.004900 kJ/mol
# Density = 2.205457 g / cm^3
# Si number density = 22.104884 Si / 1000 Ang^3
#
#
#
# Elastic Constant Matrix: (Units=GPa)
#
#
# Indices 1 2 3 4 5 6 
#
# 1 81.9990 16.0852 12.2426 0.0000 0.0000 0.0000
# 2 16.0852 76.0249 8.4444 0.0000 0.0000 0.0000
# 3 12.2426 8.4444 105.6916 0.0000 0.0000 0.0000
# 4 0.0000 0.0000 0.0000 4.8335 0.0000 0.0000
# 5 0.0000 0.0000 0.0000 0.0000 9.5811 0.0000
# 6 0.0000 0.0000 0.0000 0.0000 0.0000 26.2036
#
#
#
# Elastic Compliance Matrix: (Units=1/GPa)
#
#
# Indices 1 2 3 4 5 6 
#
# 1 0.012895 -0.002585 -0.001287 0.000000 0.000000 0.000000
# 2 -0.002585 0.013790 -0.000802 0.000000 0.000000 0.000000
# 3 -0.001287 -0.000802 0.009675 0.000000 0.000000 0.000000
# 4 0.000000 0.000000 0.000000 0.206889 0.000000 0.000000
# 5 0.000000 0.000000 0.000000 0.000000 0.104372 0.000000
# 6 0.000000 0.000000 0.000000 0.000000 0.000000 0.038163
#
#
# Mechanical properties :
#
#
# Convention : Reuss Voigt Hill
#
# Bulk Modulus (GPa) = 37.02371 37.47331 37.24851
# Shear Modulus (GPa) = 12.37208 23.25320 17.81264
#
# Velocity S-wave (km/s) = 2.36836 3.24689 2.84178
# Velocity P-wave (km/s) = 4.92588 5.57187 5.25880
#
# Compressibility (1/GPa) = 0.02700972
#
# Stress axis : x y z
#
# Youngs Moduli (GPa) = 77.55212 72.51801 103.36263
#
# Poissons Ratio (x) = 0.18748 0.13303
# Poissons Ratio (y) = 0.20049 0.08293
# Poissons Ratio (z) = 0.09981 0.05818
#
# Static dielectric constant tensor:
#      x y z
#    x 1.851700 0.000000 0.000000 
#    y 0.000000 1.887120 0.000000 
#    z 0.000000 0.000000 1.780250 
# 
# From -- ./inp_files/47332.got.cif
#   From: 2010.05.17/outbox.cif.g08.bks.cpg/sg72_24_cif.got.tgz:47332.got - 2010.06.03 17:03:01.
