data_PCOD9528944
_publ_section_title
;
Structure prediction by ZEFSAII (Michael W. Deem and Ramdas Pophale) SiO2 
 PCOD9528944
Probable space group: I B A M
;
_chemical_formula_sum "Si O2"
_cell_formula_units_Z 84
_cell_length_a 8.065632
_cell_length_b 23.523589
_cell_length_c 22.258919
_cell_angle_alpha 90.000000
_cell_angle_beta 90.000000
_cell_angle_gamma 90.000000
_cell_volume 4223.242846
_symmetry_space_group_name_H-M "I B A M"
_symmetry_group_IT_number 72
_symmetry_cell_setting 'orthorhombic'
loop_
_space_group_symop_operation_xyz
x,y,z
-x,-y,z
x,-y,1/2-z
-x,y,1/2-z
-x,-y,-z
x,y,-z
-x,y,1/2+z
x,-y,1/2+z
1/2+x,1/2+y,1/2+z
1/2-x,1/2-y,1/2+z
1/2+x,1/2-y,-z
1/2-x,1/2+y,-z
1/2-x,1/2-y,1/2-z
1/2+x,1/2+y,1/2-z
1/2-x,1/2+y,z
1/2+x,1/2-y,z
loop_
_atom_site_type_symbol
_atom_site_label
_atom_site_fract_x
_atom_site_fract_y
_atom_site_fract_z
Si Si1 0.250274 0.009858 0.500000
Si Si2 0.000000 0.646341 0.250000
Si Si3 0.782308 0.723598 0.817871
Si Si4 0.741071 0.924446 0.183470
Si Si5 0.500000 0.500000 0.750000
Si Si6 0.462639 0.396052 0.500000
Si Si7 0.452024 0.326398 0.622334
Si Si8 0.000000 0.500000 0.604917
O O1 0.358690 0.021443 0.559326
O O2 0.106121 0.056339 0.500000
O O3 0.192635 0.942412 0.500000
O O4 0.944476 0.684796 0.194178
O O5 0.845152 0.606623 0.261358
O O6 0.750000 0.750000 0.750000
O O7 0.623731 0.689024 0.842755
O O8 0.838038 0.770833 0.865944
O O9 0.845100 0.876205 0.151494
O O10 0.876011 0.967657 0.206451
O O11 0.594858 0.953866 0.145546
O O12 0.475933 0.353077 0.556396
#
# Coordination Sequence:
#
# PCOD9528944 Si02
#       8
#     8   8  16  16   4   8  16   8
#     4  10  24  48  68 101 131 179 241 286 336 431
#     4  12  24  42  68 100 140 174 224 278 362 424
#     4  12  23  44  71 103 136 177 233 287 352 429
#     4  12  25  41  68 100 141 184 224 284 358 414
#     4  12  28  40  60 106 152 172 236 288 342 440
#     4  11  26  46  74  99 135 189 235 288 362 416
#     4  12  25  44  70 101 135 188 231 290 351 426
#     4  11  24  43  70 100 136 175 236 289 340 422
#
# _framework density 19.889928000000001
#
# number of rings (size 3 to 8) (size 9 to 14) (size 15 to 20)
#    0.000    0.381    5.714    2.286    5.333    0.762 
#    0.000    0.000    0.000    0.000    0.000    0.000 
#    0.000    0.000    0.000    0.000    0.000    0.000 
#
# Total GULP energy -234162.782825 kJ/mol
# GULP energy per Si atom -5575.304353 kJ/mol
# Density = 1.984466 g / cm^3
# Si number density = 19.889928 Si / 1000 Ang^3
#
#
#
# Elastic Constant Matrix: (Units=GPa)
#
#
# Indices 1 2 3 4 5 6 
#
# 1 119.7704 66.1971 47.5277 0.0000 0.0000 0.0000
# 2 66.1971 123.8415 60.9121 0.0000 0.0000 0.0000
# 3 47.5277 60.9121 92.1693 0.0000 0.0000 0.0000
# 4 0.0000 0.0000 0.0000 418.1471 0.0000 0.0000
# 5 0.0000 0.0000 0.0000 0.0000 24.5654 0.0000
# 6 0.0000 0.0000 0.0000 0.0000 0.0000 41.4507
#
#
#
# Elastic Compliance Matrix: (Units=1/GPa)
#
#
# Indices 1 2 3 4 5 6 
#
# 1 0.012379 -0.005152 -0.002978 0.000000 0.000000 0.000000
# 2 -0.005152 0.014108 -0.006667 0.000000 0.000000 0.000000
# 3 -0.002978 -0.006667 0.016791 0.000000 0.000000 0.000000
# 4 0.000000 0.000000 0.000000 0.002392 0.000000 0.000000
# 5 0.000000 0.000000 0.000000 0.000000 0.040708 0.000000
# 6 0.000000 0.000000 0.000000 0.000000 0.000000 0.024125
#
#
# Mechanical properties :
#
#
# Convention : Reuss Voigt Hill
#
# Bulk Modulus (GPa) = 73.08031 76.11722 74.59876
# Shear Modulus (GPa) = 34.56445 107.57560 71.07002
#
# Velocity S-wave (km/s) = 4.17320 7.36226 5.98408
# Velocity P-wave (km/s) = 7.74874 10.51774 9.23758
#
# Compressibility (1/GPa) = 0.01368358
#
# Stress axis : x y z
#
# Youngs Moduli (GPa) = 80.78451 70.88305 59.55432
#
# Poissons Ratio (x) = 0.36517 0.17738
# Poissons Ratio (y) = 0.41618 0.39704
# Poissons Ratio (z) = 0.24061 0.47257
#
# Static dielectric constant tensor:
#      x y z
#    x 1.685340 0.000000 0.000000 
#    y 0.000000 1.697690 0.000000 
#    z 0.000000 0.000000 1.667030 
# 
# From -- ./inp_files/35822.got.cif
#   From: 2010.05.17/outbox.cif.g08.bks.cpg/sg72_18_cif.got.tgz:35822.got - 2010.06.03 17:03:01.
