data_PCOD9528022
_publ_section_title
;
Structure prediction by ZEFSAII (Michael W. Deem and Ramdas Pophale) SiO2 
 PCOD9528022
Probable space group: I B A M
;
_chemical_formula_sum "Si O2"
_cell_formula_units_Z 72
_cell_length_a 9.107171
_cell_length_b 14.066578
_cell_length_c 27.657529
_cell_angle_alpha 90.000000
_cell_angle_beta 90.000000
_cell_angle_gamma 90.000000
_cell_volume 3543.115634
_symmetry_space_group_name_H-M "I B A M"
_symmetry_group_IT_number 72
_symmetry_cell_setting 'orthorhombic'
loop_
_space_group_symop_operation_xyz
x,y,z
-x,-y,z
x,-y,1/2-z
-x,y,1/2-z
-x,-y,-z
x,y,-z
-x,y,1/2+z
x,-y,1/2+z
1/2+x,1/2+y,1/2+z
1/2-x,1/2-y,1/2+z
1/2+x,1/2-y,-z
1/2-x,1/2+y,-z
1/2-x,1/2-y,1/2-z
1/2+x,1/2+y,1/2-z
1/2-x,1/2+y,z
1/2+x,1/2-y,z
loop_
_atom_site_type_symbol
_atom_site_label
_atom_site_fract_x
_atom_site_fract_y
_atom_site_fract_z
Si Si1 0.170898 0.404127 0.403535
Si Si2 0.000000 0.256234 0.750000
Si Si3 0.669694 0.628149 0.000000
Si Si4 0.247316 0.212713 0.820872
Si Si5 0.835344 0.367152 0.399579
Si Si6 0.161491 0.896597 0.500000
O O1 0.269417 0.366884 0.360488
O O2 0.169112 0.517764 0.397825
O O3 0.245815 0.374446 0.452952
O O4 0.011672 0.353497 0.401001
O O5 0.878967 0.203481 0.718600
O O6 0.898823 0.303924 0.791429
O O7 0.754302 0.656356 0.950564
O O8 0.657895 0.512423 0.000000
O O9 0.497106 0.653176 0.000000
O O10 0.231963 0.310276 0.853256
#
# Coordination Sequence:
#
# PCOD9528022 Si02
#       6
#    16   8   8  16  16   8
#     4  10  21  39  63  89 120 160 196 232 290 361
#     4  10  24  42  62  82 122 152 196 256 312 328
#     4   9  19  34  57  92 128 152 188 242 287 341
#     4  11  22  43  62  88 116 157 194 255 296 352
#     4  10  21  39  63  89 120 160 196 232 290 361
#     4   9  19  34  57  92 128 152 188 242 287 341
#
# _framework density 20.321097999999999
#
# number of rings (size 3 to 8) (size 9 to 14) (size 15 to 20)
#    0.000    2.000    2.222    0.667    3.111    3.556 
#    0.000    6.667    0.000    0.000    0.000    0.000 
#    0.000    0.000    0.000    0.000    0.000    0.000 
#
# Total GULP energy -200471.436706 kJ/mol
# GULP energy per Si atom -5568.651020 kJ/mol
# Density = 2.027485 g / cm^3
# Si number density = 20.321098 Si / 1000 Ang^3
#
#
#
# Elastic Constant Matrix: (Units=GPa)
#
#
# Indices 1 2 3 4 5 6 
#
# 1 53.2905 12.0595 28.6087 0.0000 0.0000 0.0000
# 2 12.0595 56.2729 20.6426 0.0000 0.0000 0.0000
# 3 28.6087 20.6426 150.2259 0.0000 0.0000 0.0000
# 4 0.0000 0.0000 0.0000 0.0548 0.0000 0.0000
# 5 0.0000 0.0000 0.0000 0.0000 27.5579 0.0000
# 6 0.0000 0.0000 0.0000 0.0000 0.0000 1.7490
#
#
#
# Elastic Compliance Matrix: (Units=1/GPa)
#
#
# Indices 1 2 3 4 5 6 
#
# 1 0.021457 -0.003264 -0.003638 0.000000 0.000000 0.000000
# 2 -0.003264 0.019210 -0.002018 0.000000 0.000000 0.000000
# 3 -0.003638 -0.002018 0.007627 0.000000 0.000000 0.000000
# 4 0.000000 0.000000 0.000000 18.242892 0.000000 -0.000002
# 5 0.000000 0.000000 0.000000 0.000000 0.036287 0.000000
# 6 0.000000 0.000000 0.000000 -0.000002 0.000000 0.571739
#
#
# Mechanical properties :
#
#
# Convention : Reuss Voigt Hill
#
# Bulk Modulus (GPa) = 32.83607 42.49010 37.66308
# Shear Modulus (GPa) = 0.26417 19.10426 9.68422
#
# Velocity S-wave (km/s) = 0.36094 3.06946 2.18539
# Velocity P-wave (km/s) = 4.04566 5.78938 4.99421
#
# Compressibility (1/GPa) = 0.03045432
#
# Stress axis : x y z
#
# Youngs Moduli (GPa) = 46.60590 52.05541 131.11826
#
# Poissons Ratio (x) = 0.16990 0.47696
# Poissons Ratio (y) = 0.15211 0.26462
# Poissons Ratio (z) = 0.16954 0.10506
#
# Static dielectric constant tensor:
#      x y z
#    x 1.773190 0.000000 0.000000 
#    y 0.000000 1.744680 0.000000 
#    z 0.000000 0.000000 0.856190 
# 
# From -- ./inp_files/42120.got.cif
#   From: 2010.05.17/outbox.cif.g08.bks.cpg/sg72_22_cif.got.tgz:42120.got - 2010.06.03 17:03:01.
