data_PCOD9528308
_publ_section_title
;
Structure prediction by ZEFSAII (Michael W. Deem and Ramdas Pophale) SiO2 
 PCOD9528308
Probable space group: I B A M
;
_chemical_formula_sum "Si O2"
_cell_formula_units_Z 72
_cell_length_a 15.745443
_cell_length_b 17.617694
_cell_length_c 14.298510
_cell_angle_alpha 90.000000
_cell_angle_beta 90.000000
_cell_angle_gamma 90.000000
_cell_volume 3966.383749
_symmetry_space_group_name_H-M "I B A M"
_symmetry_group_IT_number 72
_symmetry_cell_setting 'orthorhombic'
loop_
_space_group_symop_operation_xyz
x,y,z
-x,-y,z
x,-y,1/2-z
-x,y,1/2-z
-x,-y,-z
x,y,-z
-x,y,1/2+z
x,-y,1/2+z
1/2+x,1/2+y,1/2+z
1/2-x,1/2-y,1/2+z
1/2+x,1/2-y,-z
1/2-x,1/2+y,-z
1/2-x,1/2-y,1/2-z
1/2+x,1/2+y,1/2-z
1/2-x,1/2+y,z
1/2+x,1/2-y,z
loop_
_atom_site_type_symbol
_atom_site_label
_atom_site_fract_x
_atom_site_fract_y
_atom_site_fract_z
Si Si1 0.083115 0.157012 0.813758
Si Si2 0.917933 0.664193 0.184824
Si Si3 0.075923 0.941580 0.500000
Si Si4 0.766392 0.541721 0.500000
Si Si5 0.072500 0.435277 0.000000
Si Si6 0.238789 0.413720 0.288457
O O1 0.093537 0.246373 0.833111
O O2 0.169721 0.124057 0.769478
O O3 0.000000 0.146334 0.750000
O O4 0.071377 0.110888 0.909063
O O5 0.933464 0.616855 0.091107
O O6 0.835885 0.631182 0.237362
O O7 0.000000 0.654677 0.250000
O O8 0.167709 0.982852 0.500000
O O9 0.000000 0.000000 0.500000
O O10 0.835963 0.476096 0.500000
O O11 0.776513 0.585641 0.401154
O O12 0.000000 0.500000 0.000000
O O13 0.238923 0.500000 0.250000
#
# Coordination Sequence:
#
# PCOD9528308 Si02
#       6
#    16  16   8   8   8  16
#     4  10  24  41  62  91 124 163 201 253 313 366
#     4  11  24  41  61  90 126 162 203 252 311 368
#     4  10  23  39  63  91 124 156 206 255 300 361
#     4  10  22  38  56  96 116 154 201 253 304 348
#     4  12  23  37  63  89 122 162 206 251 300 357
#     4  11  22  39  65  89 122 158 208 253 304 370
#
# _framework density 18.152556000000001
#
# number of rings (size 3 to 8) (size 9 to 14) (size 15 to 20)
#    0.000    1.333    2.222    2.667    6.222    0.000 
#    0.000    1.111    0.000    2.667    0.000    0.000 
#    0.000    0.000    0.000    0.000    0.000    0.000 
#
# Total GULP energy -201120.216392 kJ/mol
# GULP energy per Si atom -5586.672678 kJ/mol
# Density = 1.811124 g / cm^3
# Si number density = 18.152556 Si / 1000 Ang^3
#
#
#
# Elastic Constant Matrix: (Units=GPa)
#
#
# Indices 1 2 3 4 5 6 
#
# 1 163.2254 115.4163 68.7370 0.0000 0.0000 0.0000
# 2 115.4163 139.0442 62.9552 0.0000 0.0000 0.0000
# 3 68.7370 62.9552 109.6329 0.0000 0.0000 0.0000
# 4 0.0000 0.0000 0.0000 18.3581 0.0000 0.0000
# 5 0.0000 0.0000 0.0000 0.0000 25.2703 0.0000
# 6 0.0000 0.0000 0.0000 0.0000 0.0000 39.8173
#
#
#
# Elastic Compliance Matrix: (Units=1/GPa)
#
#
# Indices 1 2 3 4 5 6 
#
# 1 0.015607 -0.011519 -0.003170 0.000000 0.000000 0.000000
# 2 -0.011519 0.018221 -0.003241 0.000000 0.000000 0.000000
# 3 -0.003170 -0.003241 0.012970 0.000000 0.000000 0.000000
# 4 0.000000 0.000000 0.000000 0.054472 0.000000 0.000000
# 5 0.000000 0.000000 0.000000 0.000000 0.039572 0.000000
# 6 0.000000 0.000000 0.000000 0.000000 0.000000 0.025115
#
#
# Mechanical properties :
#
#
# Convention : Reuss Voigt Hill
#
# Bulk Modulus (GPa) = 91.43247 100.67993 96.05620
# Shear Modulus (GPa) = 24.33521 27.67543 26.00532
#
# Velocity S-wave (km/s) = 3.66538 3.90885 3.78907
# Velocity P-wave (km/s) = 8.26993 8.71526 8.49551
#
# Compressibility (1/GPa) = 0.01093703
#
# Stress axis : x y z
#
# Youngs Moduli (GPa) = 64.07441 54.88103 77.10051
#
# Poissons Ratio (x) = 0.63219 0.24443
# Poissons Ratio (y) = 0.73810 0.24988
# Poissons Ratio (z) = 0.20313 0.17787
#
# Static dielectric constant tensor:
#      x y z
#    x 1.606460 0.000000 0.000000 
#    y 0.000000 1.589090 0.000000 
#    z 0.000000 0.000000 1.621150 
# 
# From -- ./inp_files/21510.got.cif
#   From: 2010.05.17/outbox.cif.g08.bks.cpg/sg72_11_cif.got.tgz:21510.got - 2010.06.03 17:03:01.
