data_PCOD9528523
_publ_section_title
;
Structure prediction by ZEFSAII (Michael W. Deem and Ramdas Pophale) SiO2 
 PCOD9528523
Probable space group: I B A M
;
_chemical_formula_sum "Si O2"
_cell_formula_units_Z 84
_cell_length_a 16.764988
_cell_length_b 9.039383
_cell_length_c 24.194425
_cell_angle_alpha 90.000000
_cell_angle_beta 90.000000
_cell_angle_gamma 90.000000
_cell_volume 3666.547706
_symmetry_space_group_name_H-M "I B A M"
_symmetry_group_IT_number 72
_symmetry_cell_setting 'orthorhombic'
loop_
_space_group_symop_operation_xyz
x,y,z
-x,-y,z
x,-y,1/2-z
-x,y,1/2-z
-x,-y,-z
x,y,-z
-x,y,1/2+z
x,-y,1/2+z
1/2+x,1/2+y,1/2+z
1/2-x,1/2-y,1/2+z
1/2+x,1/2-y,-z
1/2-x,1/2+y,-z
1/2-x,1/2-y,1/2-z
1/2+x,1/2+y,1/2-z
1/2-x,1/2+y,z
1/2+x,1/2-y,z
loop_
_atom_site_type_symbol
_atom_site_label
_atom_site_fract_x
_atom_site_fract_y
_atom_site_fract_z
Si Si1 0.298832 0.465800 0.686143
Si Si2 0.736082 0.851266 0.000000
Si Si3 0.427658 0.347122 0.881583
Si Si4 0.080962 0.280483 0.837878
Si Si5 0.850161 0.464533 0.892185
Si Si6 0.869886 0.941013 0.500000
Si Si7 0.000000 0.500000 0.750000
O O1 0.292280 0.500000 0.750000
O O2 0.358700 0.579365 0.655478
O O3 0.340174 0.306572 0.679426
O O4 0.213934 0.469077 0.656867
O O5 0.699208 0.929175 0.946549
O O6 0.828882 0.897206 0.000000
O O7 0.702043 0.683614 0.000000
O O8 0.514797 0.341479 0.854100
O O9 0.408424 0.172521 0.884302
O O10 0.418072 0.411221 0.943548
O O11 0.102676 0.382585 0.890098
O O12 0.050308 0.390647 0.789837
#
# Coordination Sequence:
#
# PCOD9528523 Si02
#       7
#    16   8  16  16  16   8   4
#     4  12  27  42  66 100 138 174 228 285 340 405
#     4  10  22  41  68  98 136 173 219 282 345 389
#     4  11  23  46  66 102 139 175 231 278 343 412
#     4  12  26  44  69  97 133 185 224 282 345 404
#     4  11  24  44  70  99 133 179 230 277 338 413
#     4  10  22  41  73  99 139 181 222 287 336 406
#     4  12  24  48  70  90 144 180 232 276 346 416
#
# _framework density 22.909835000000001
#
# number of rings (size 3 to 8) (size 9 to 14) (size 15 to 20)
#    0.000    0.762    3.810    2.857    4.000    3.048 
#    0.000    5.714    0.000    0.000    0.000    0.000 
#    0.000    0.000    0.000    0.000    0.000    0.000 
#
# Total GULP energy -235187.165836 kJ/mol
# GULP energy per Si atom -5599.694425 kJ/mol
# Density = 2.285769 g / cm^3
# Si number density = 22.909835 Si / 1000 Ang^3
#
#
#
# Elastic Constant Matrix: (Units=GPa)
#
#
# Indices 1 2 3 4 5 6 
#
# 1 83.2271 12.4733 9.3120 0.0000 0.0000 0.0000
# 2 12.4733 79.5791 6.0712 0.0000 0.0000 0.0000
# 3 9.3120 6.0712 117.1346 0.0000 0.0000 0.0000
# 4 0.0000 0.0000 0.0000 29.4944 0.0000 0.0000
# 5 0.0000 0.0000 0.0000 0.0000 -1.6946 0.0000
# 6 0.0000 0.0000 0.0000 0.0000 0.0000 39.4830
#
#
#
# Elastic Compliance Matrix: (Units=1/GPa)
#
#
# Indices 1 2 3 4 5 6 
#
# 1 0.012396 -0.001875 -0.000888 0.000000 0.000000 0.000000
# 2 -0.001875 0.012900 -0.000520 0.000000 0.000000 0.000000
# 3 -0.000888 -0.000520 0.008635 0.000000 0.000000 0.000000
# 4 0.000000 0.000000 0.000000 0.033905 0.000000 0.000000
# 5 0.000000 0.000000 0.000000 0.000000 -0.590121 0.000000
# 6 0.000000 0.000000 0.000000 0.000000 0.000000 0.025327
#
#
# Mechanical properties :
#
#
# Convention : Reuss Voigt Hill
#
# Bulk Modulus (GPa) = 36.54403 37.29488 36.91945
# Shear Modulus (GPa) = -10.38916 30.26219 9.93651
#
# Velocity S-wave (km/s) = -2.13182 3.63840 2.08486
# Velocity P-wave (km/s) = 3.15061 5.82794 4.68462
#
# Compressibility (1/GPa) = 0.02736425
#
# Stress axis : x y z
#
# Youngs Moduli (GPa) = 80.67293 77.52141 115.81142
#
# Poissons Ratio (x) = 0.14536 0.10287
# Poissons Ratio (y) = 0.15127 0.06017
# Poissons Ratio (z) = 0.07166 0.04027
#
# Static dielectric constant tensor:
#      x y z
#    x 1.845990 0.000000 0.000000 
#    y 0.000000 1.915200 0.000000 
#    z 0.000000 0.000000 1.802950 
# 
# From -- ./inp_files/45230.got.cif
#   From: 2010.05.17/outbox.cif.g08.bks.cpg/sg72_23_cif.got.tgz:45230.got - 2010.06.03 17:03:01.
