data_PCOD9528182
_publ_section_title
;
Structure prediction by ZEFSAII (Michael W. Deem and Ramdas Pophale) SiO2 
 PCOD9528182
Probable space group: I B A M
;
_chemical_formula_sum "Si O2"
_cell_formula_units_Z 64
_cell_length_a 7.889588
_cell_length_b 19.512747
_cell_length_c 17.948625
_cell_angle_alpha 90.000000
_cell_angle_beta 90.000000
_cell_angle_gamma 90.000000
_cell_volume 2763.146568
_symmetry_space_group_name_H-M "I B A M"
_symmetry_group_IT_number 72
_symmetry_cell_setting 'orthorhombic'
loop_
_space_group_symop_operation_xyz
x,y,z
-x,-y,z
x,-y,1/2-z
-x,y,1/2-z
-x,-y,-z
x,y,-z
-x,y,1/2+z
x,-y,1/2+z
1/2+x,1/2+y,1/2+z
1/2-x,1/2-y,1/2+z
1/2+x,1/2-y,-z
1/2-x,1/2+y,-z
1/2-x,1/2-y,1/2-z
1/2+x,1/2+y,1/2-z
1/2-x,1/2+y,z
1/2+x,1/2-y,z
loop_
_atom_site_type_symbol
_atom_site_label
_atom_site_fract_x
_atom_site_fract_y
_atom_site_fract_z
Si Si1 0.299612 0.328210 0.089274
Si Si2 0.383220 0.292282 0.678686
Si Si3 0.816547 0.934416 0.789767
Si Si4 0.694815 0.981324 0.587791
O O1 0.492399 0.323930 0.116450
O O2 0.206152 0.270192 0.137653
O O3 0.230662 0.403146 0.110081
O O4 0.281349 0.317798 0.000000
O O5 0.500000 0.273196 0.750000
O O6 0.261803 0.355226 0.705324
O O7 0.000000 0.929782 0.750000
O O8 0.726236 0.000000 0.750000
O O9 0.815690 0.964441 0.872458
O O10 0.719914 0.985290 0.500000
O O11 0.500000 0.000000 0.603992
#
# Coordination Sequence:
#
# PCOD9528182 Si02
#       4
#    16  16  16  16
#     4  11  24  42  64  98 133 176 226 274 336 405
#     4  11  24  42  67  95 136 175 223 274 338 399
#     4  10  21  41  66  94 127 170 224 270 330 394
#     4  10  23  42  66  97 134 176 225 280 338 399
#
# _framework density 23.162001
#
# number of rings (size 3 to 8) (size 9 to 14) (size 15 to 20)
#    0.000    1.500    0.000    6.000    3.500    2.500 
#    0.000    5.000    0.000    0.000    0.000    0.000 
#    0.000    0.000    0.000    0.000    0.000    0.000 
#
# Total GULP energy -178729.567152 kJ/mol
# GULP energy per Si atom -5585.298973 kJ/mol
# Density = 2.310928 g / cm^3
# Si number density = 23.162001 Si / 1000 Ang^3
#
#
#
# Elastic Constant Matrix: (Units=GPa)
#
#
# Indices 1 2 3 4 5 6 
#
# 1 45.8000 63.1297 33.3540 0.0000 0.0000 0.0000
# 2 63.1297 194.0671 88.8156 0.0000 0.0000 0.0000
# 3 33.3540 88.8156 104.9105 0.0000 0.0000 0.0000
# 4 0.0000 0.0000 0.0000 47.0561 0.0000 0.0000
# 5 0.0000 0.0000 0.0000 0.0000 39.9686 0.0000
# 6 0.0000 0.0000 0.0000 0.0000 0.0000 37.9062
#
#
#
# Elastic Compliance Matrix: (Units=1/GPa)
#
#
# Indices 1 2 3 4 5 6 
#
# 1 0.040074 -0.011762 -0.002783 0.000000 0.000000 0.000000
# 2 -0.011762 0.011865 -0.006305 0.000000 0.000000 0.000000
# 3 -0.002783 -0.006305 0.015754 0.000000 0.000000 0.000000
# 4 0.000000 0.000000 0.000000 0.021251 0.000000 0.000000
# 5 0.000000 0.000000 0.000000 0.000000 0.025020 0.000000
# 6 0.000000 0.000000 0.000000 0.000000 0.000000 0.026381
#
#
# Mechanical properties :
#
#
# Convention : Reuss Voigt Hill
#
# Bulk Modulus (GPa) = 38.47245 79.48624 58.97934
# Shear Modulus (GPa) = 26.21815 35.61807 30.91811
#
# Velocity S-wave (km/s) = 3.36809 3.92571 3.65754
# Velocity P-wave (km/s) = 5.63663 7.41217 6.58452
#
# Compressibility (1/GPa) = 0.02599263
#
# Stress axis : x y z
#
# Youngs Moduli (GPa) = 24.95414 84.28495 63.47555
#
# Poissons Ratio (x) = 0.99139 0.17663
# Poissons Ratio (y) = 0.29352 0.40020
# Poissons Ratio (z) = 0.06944 0.53139
#
# Static dielectric constant tensor:
#      x y z
#    x 1.898540 0.000000 0.000000 
#    y 0.000000 1.890920 0.000000 
#    z 0.000000 0.000000 1.933500 
# 
# From -- ./inp_files/27682.got.cif
#   From: 2010.05.17/outbox.cif.g08.bks.cpg/sg72_14_cif.got.tgz:27682.got - 2010.06.03 17:03:01.
