data_PCOD9528577
_publ_section_title
;
Structure prediction by ZEFSAII (Michael W. Deem and Ramdas Pophale) SiO2 
 PCOD9528577
Probable space group: I B A M
;
_chemical_formula_sum "Si O2"
_cell_formula_units_Z 64
_cell_length_a 16.473670
_cell_length_b 9.215168
_cell_length_c 18.110826
_cell_angle_alpha 90.000000
_cell_angle_beta 90.000000
_cell_angle_gamma 90.000000
_cell_volume 2749.361692
_symmetry_space_group_name_H-M "I B A M"
_symmetry_group_IT_number 72
_symmetry_cell_setting 'orthorhombic'
loop_
_space_group_symop_operation_xyz
x,y,z
-x,-y,z
x,-y,1/2-z
-x,y,1/2-z
-x,-y,-z
x,y,-z
-x,y,1/2+z
x,-y,1/2+z
1/2+x,1/2+y,1/2+z
1/2-x,1/2-y,1/2+z
1/2+x,1/2-y,-z
1/2-x,1/2+y,-z
1/2-x,1/2-y,1/2-z
1/2+x,1/2+y,1/2-z
1/2-x,1/2+y,z
1/2+x,1/2-y,z
loop_
_atom_site_type_symbol
_atom_site_label
_atom_site_fract_x
_atom_site_fract_y
_atom_site_fract_z
Si Si1 0.312623 0.061219 0.666506
Si Si2 0.120174 0.068689 0.328692
Si Si3 0.053710 0.368961 0.634245
Si Si4 0.595202 0.296253 0.081806
O O1 0.362369 0.949816 0.613764
O O2 0.327259 0.000000 0.750000
O O3 0.216791 0.072917 0.657417
O O4 0.350512 0.215914 0.644142
O O5 0.083048 0.228188 0.322837
O O6 0.104610 0.000000 0.250000
O O7 0.086025 0.960903 0.391057
O O8 0.000000 0.500000 0.668329
O O9 0.988933 0.294110 0.580021
O O10 0.631874 0.290717 0.000000
#
# Coordination Sequence:
#
# PCOD9528577 Si02
#       4
#    16  16  16  16
#     4  10  22  42  69 100 133 175 229 286 345 413
#     4  11  23  42  69 100 136 181 234 287 343 413
#     4  10  23  40  63  94 135 175 222 280 343 405
#     4  11  25  42  64  99 140 181 228 285 347 412
#
# _framework density 23.278130999999998
#
# number of rings (size 3 to 8) (size 9 to 14) (size 15 to 20)
#    0.000    1.500    0.000    3.750    0.000   22.000 
#    0.000    2.500    0.000    0.000    0.000    0.000 
#    0.000    0.000    0.000    0.000    0.000    0.000 
#
# Total GULP energy -178466.848951 kJ/mol
# GULP energy per Si atom -5577.089030 kJ/mol
# Density = 2.322515 g / cm^3
# Si number density = 23.278131 Si / 1000 Ang^3
#
#
#
# Elastic Constant Matrix: (Units=GPa)
#
#
# Indices 1 2 3 4 5 6 
#
# 1 132.5041 64.5727 42.5199 0.0000 0.0000 0.0000
# 2 64.5727 194.4502 42.5596 0.0000 0.0000 0.0000
# 3 42.5199 42.5596 89.6536 0.0000 0.0000 0.0000
# 4 0.0000 0.0000 0.0000 4.3481 0.0000 0.0000
# 5 0.0000 0.0000 0.0000 0.0000 7.4769 0.0000
# 6 0.0000 0.0000 0.0000 0.0000 0.0000 27.1422
#
#
#
# Elastic Compliance Matrix: (Units=1/GPa)
#
#
# Indices 1 2 3 4 5 6 
#
# 1 0.009898 -0.002521 -0.003497 0.000000 0.000000 0.000000
# 2 -0.002521 0.006381 -0.001833 0.000000 0.000000 0.000000
# 3 -0.003497 -0.001833 0.013683 0.000000 0.000000 0.000000
# 4 0.000000 0.000000 0.000000 0.229986 0.000000 0.000000
# 5 0.000000 0.000000 0.000000 0.000000 0.133745 0.000000
# 6 0.000000 0.000000 0.000000 0.000000 0.000000 0.036843
#
#
# Mechanical properties :
#
#
# Convention : Reuss Voigt Hill
#
# Bulk Modulus (GPa) = 70.13649 79.54581 74.84115
# Shear Modulus (GPa) = 11.08663 25.59049 18.33856
#
# Velocity S-wave (km/s) = 2.18472 3.31922 2.80983
# Velocity P-wave (km/s) = 6.04642 6.99541 6.53815
#
# Compressibility (1/GPa) = 0.01425791
#
# Stress axis : x y z
#
# Youngs Moduli (GPa) = 101.03074 156.70768 73.08296
#
# Poissons Ratio (x) = 0.39513 0.25560
# Poissons Ratio (y) = 0.25474 0.13399
# Poissons Ratio (z) = 0.35334 0.28731
#
# Static dielectric constant tensor:
#      x y z
#    x 1.917010 0.000000 0.000000 
#    y 0.000000 1.899520 0.000000 
#    z 0.000000 0.000000 1.871910 
# 
# From -- ./inp_files/38629.got.cif
#   From: 2010.05.17/outbox.cif.g08.bks.cpg/sg72_20_cif.got.tgz:38629.got - 2010.06.03 17:03:01.
