data_PCOD9528588
_publ_section_title
;
Structure prediction by ZEFSAII (Michael W. Deem and Ramdas Pophale) SiO2 
 PCOD9528588
Probable space group: I B A M
;
_chemical_formula_sum "Si O2"
_cell_formula_units_Z 88
_cell_length_a 9.690333
_cell_length_b 13.739187
_cell_length_c 28.551805
_cell_angle_alpha 90.000000
_cell_angle_beta 90.000000
_cell_angle_gamma 90.000000
_cell_volume 3801.310147
_symmetry_space_group_name_H-M "I B A M"
_symmetry_group_IT_number 72
_symmetry_cell_setting 'orthorhombic'
loop_
_space_group_symop_operation_xyz
x,y,z
-x,-y,z
x,-y,1/2-z
-x,y,1/2-z
-x,-y,-z
x,y,-z
-x,y,1/2+z
x,-y,1/2+z
1/2+x,1/2+y,1/2+z
1/2-x,1/2-y,1/2+z
1/2+x,1/2-y,-z
1/2-x,1/2+y,-z
1/2-x,1/2-y,1/2-z
1/2+x,1/2+y,1/2-z
1/2-x,1/2+y,z
1/2+x,1/2-y,z
loop_
_atom_site_type_symbol
_atom_site_label
_atom_site_fract_x
_atom_site_fract_y
_atom_site_fract_z
Si Si1 0.481904 0.819220 0.086180
Si Si2 0.169300 0.417285 0.000000
Si Si3 0.789681 0.977573 0.304810
Si Si4 0.000000 0.500000 0.853945
Si Si5 0.500000 0.500000 0.572836
Si Si6 0.304391 0.405886 0.500000
Si Si7 0.507137 0.362375 0.150194
Si Si8 0.143000 0.769567 0.000000
O O1 0.379291 0.873704 0.049527
O O2 0.445637 0.739222 0.126579
O O3 0.546546 0.909032 0.114195
O O4 0.575220 0.764716 0.047868
O O5 0.330348 0.383481 0.000000
O O6 0.161109 0.533986 0.000000
O O7 0.868716 0.069997 0.329762
O O8 0.784895 0.000000 0.250000
O O9 0.635269 0.968613 0.324925
O O10 0.883514 0.879793 0.312574
O O11 0.387130 0.440481 0.544665
O O12 0.563540 0.419829 0.606854
O O13 0.284795 0.291958 0.500000
#
# Coordination Sequence:
#
# PCOD9528588 Si02
#       8
#    16   8  16   8   8   8  16   8
#     4  11  26  41  58 102 129 185 222 260 329 373
#     4  11  24  37  62  84 143 172 227 272 303 376
#     4  10  24  48  73 102 126 161 211 282 348 400
#     4  12  27  41  70  98 142 172 214 271 329 414
#     4   9  20  34  59  96 118 172 241 266 324 371
#     4  11  20  35  58  86 132 185 218 279 316 371
#     4  10  22  42  74  93 126 172 222 274 313 412
#     4  11  24  37  62  84 143 172 227 272 303 376
#
# _framework density 23.149913999999999
#
# number of rings (size 3 to 8) (size 9 to 14) (size 15 to 20)
#    0.000    1.636    0.000    4.636   15.273    4.364 
#    0.000    5.455    0.000    0.000    0.000    0.000 
#    0.000    0.000    0.000    0.000    0.000    0.000 
#
# Total GULP energy -245267.450171 kJ/mol
# GULP energy per Si atom -5574.260231 kJ/mol
# Density = 2.309722 g / cm^3
# Si number density = 23.149914 Si / 1000 Ang^3
#
#
#
# Elastic Constant Matrix: (Units=GPa)
#
#
# Indices 1 2 3 4 5 6 
#
# 1 82.4322 4.2806 26.1646 0.0000 0.0000 0.0000
# 2 4.2806 102.4042 34.2001 0.0000 0.0000 0.0000
# 3 26.1646 34.2001 122.7153 0.0000 0.0000 0.0000
# 4 0.0000 0.0000 0.0000 21.1850 0.0000 0.0000
# 5 0.0000 0.0000 0.0000 0.0000 16.7937 0.0000
# 6 0.0000 0.0000 0.0000 0.0000 0.0000 30.0122
#
#
#
# Elastic Compliance Matrix: (Units=1/GPa)
#
#
# Indices 1 2 3 4 5 6 
#
# 1 0.013028 0.000422 -0.002896 0.000000 0.000000 0.000000
# 2 0.000422 0.010781 -0.003095 0.000000 0.000000 0.000000
# 3 -0.002896 -0.003095 0.009629 0.000000 0.000000 0.000000
# 4 0.000000 0.000000 0.000000 0.047203 0.000000 0.000000
# 5 0.000000 0.000000 0.000000 0.000000 0.059546 0.000000
# 6 0.000000 0.000000 0.000000 0.000000 0.000000 0.033320
#
#
# Mechanical properties :
#
#
# Convention : Reuss Voigt Hill
#
# Bulk Modulus (GPa) = 44.83786 48.53803 46.68795
# Shear Modulus (GPa) = 26.03123 29.79196 27.91159
#
# Velocity S-wave (km/s) = 3.35694 3.59125 3.47607
# Velocity P-wave (km/s) = 5.86821 6.18130 6.02679
#
# Compressibility (1/GPa) = 0.02230258
#
# Stress axis : x y z
#
# Youngs Moduli (GPa) = 76.75594 92.75480 103.85522
#
# Poissons Ratio (x) = -0.03918 0.30072
# Poissons Ratio (y) = -0.03242 0.32140
# Poissons Ratio (z) = 0.22225 0.28705
#
# Static dielectric constant tensor:
#      x y z
#    x 1.990760 0.000000 0.000000 
#    y 0.000000 1.897890 0.000000 
#    z 0.000000 0.000000 1.869850 
# 
# From -- ./inp_files/48073.got.cif
#   From: 2010.05.17/outbox.cif.g08.bks.cpg/sg72_25_cif.got.tgz:48073.got - 2010.06.03 17:03:01.
