data_PCOD9528893
_publ_section_title
;
Structure prediction by ZEFSAII (Michael W. Deem and Ramdas Pophale) SiO2 
 PCOD9528893
Probable space group: I B A M
;
_chemical_formula_sum "Si O2"
_cell_formula_units_Z 68
_cell_length_a 24.069971
_cell_length_b 7.346006
_cell_length_c 15.070414
_cell_angle_alpha 90.000000
_cell_angle_beta 90.000000
_cell_angle_gamma 90.000000
_cell_volume 2664.722744
_symmetry_space_group_name_H-M "I B A M"
_symmetry_group_IT_number 72
_symmetry_cell_setting 'orthorhombic'
loop_
_space_group_symop_operation_xyz
x,y,z
-x,-y,z
x,-y,1/2-z
-x,y,1/2-z
-x,-y,-z
x,y,-z
-x,y,1/2+z
x,-y,1/2+z
1/2+x,1/2+y,1/2+z
1/2-x,1/2-y,1/2+z
1/2+x,1/2-y,-z
1/2-x,1/2+y,-z
1/2-x,1/2-y,1/2-z
1/2+x,1/2+y,1/2-z
1/2-x,1/2+y,z
1/2+x,1/2-y,z
loop_
_atom_site_type_symbol
_atom_site_label
_atom_site_fract_x
_atom_site_fract_y
_atom_site_fract_z
Si Si1 0.823228 0.434245 0.894474
Si Si2 0.500000 0.500000 0.000000
Si Si3 0.413981 0.456503 0.351473
Si Si4 0.439511 0.030967 0.645764
Si Si5 0.297952 0.344258 0.607745
O O1 0.887768 0.399083 0.876336
O O2 0.765472 0.354083 0.859151
O O3 0.817122 0.644076 0.866342
O O4 0.818165 0.418312 0.000000
O O5 0.546215 0.550512 0.921976
O O6 0.428484 0.500000 0.250000
O O7 0.425625 0.242138 0.372978
O O8 0.346967 0.480607 0.362553
O O9 0.500000 0.000000 0.604116
O O10 0.444670 0.000000 0.750000
O O11 0.297638 0.357410 0.500000
#
# Coordination Sequence:
#
# PCOD9528893 Si02
#       5
#    16   4  16  16  16
#     4   9  19  37  63  89 127 169 212 271 324 385
#     4  12  26  44  70  98 132 172 226 264 334 400
#     4  11  25  45  70  96 135 175 220 277 329 391
#     4  10  24  43  61  92 136 171 219 271 332 397
#     4   9  18  39  61  93 127 165 216 268 325 386
#
# _framework density 25.518602000000001
#
# number of rings (size 3 to 8) (size 9 to 14) (size 15 to 20)
#    0.000    2.118    1.176    0.353    8.235    3.294 
#    0.000    4.706    0.000    0.000    0.000    0.000 
#    0.000    0.000    0.000    0.000    0.000    0.000 
#
# Total GULP energy -189284.335816 kJ/mol
# GULP energy per Si atom -5567.186348 kJ/mol
# Density = 2.546052 g / cm^3
# Si number density = 25.518602 Si / 1000 Ang^3
#
#
#
# Elastic Constant Matrix: (Units=GPa)
#
#
# Indices 1 2 3 4 5 6 
#
# 1 283.2560 35.8096 61.7469 0.0000 0.0000 0.0000
# 2 35.8096 36.6862 -33.6863 0.0000 0.0000 0.0000
# 3 61.7469 -33.6863 184.6755 0.0000 0.0000 0.0000
# 4 0.0000 0.0000 0.0000 6.9083 0.0000 0.0000
# 5 0.0000 0.0000 0.0000 0.0000 36.5919 0.0000
# 6 0.0000 0.0000 0.0000 0.0000 0.0000 41.9506
#
#
#
# Elastic Compliance Matrix: (Units=1/GPa)
#
#
# Indices 1 2 3 4 5 6 
#
# 1 0.005262 -0.008109 -0.003238 0.000000 0.000000 0.000000
# 2 -0.008109 0.045241 0.010964 0.000000 0.000000 0.000000
# 3 -0.003238 0.010964 0.008498 0.000000 0.000000 0.000000
# 4 0.000000 0.000000 0.000000 0.144754 0.000000 0.000000
# 5 0.000000 0.000000 0.000000 0.000000 0.027328 0.000000
# 6 0.000000 0.000000 0.000000 0.000000 0.000000 0.023838
#
#
# Mechanical properties :
#
#
# Convention : Reuss Voigt Hill
#
# Bulk Modulus (GPa) = 17.17268 70.26201 43.71734
# Shear Modulus (GPa) = 18.17527 46.47333 32.32430
#
# Velocity S-wave (km/s) = 2.67167 4.27213 3.56293
# Velocity P-wave (km/s) = 4.03252 7.20612 5.83907
#
# Compressibility (1/GPa) = 0.05823204
#
# Stress axis : x y z
#
# Youngs Moduli (GPa) = 190.05895 22.10377 117.68077
#
# Poissons Ratio (x) = 0.17925 0.38110
# Poissons Ratio (y) = 1.54127 -1.29022
# Poissons Ratio (z) = 0.61549 -0.24234
#
# Static dielectric constant tensor:
#      x y z
#    x 2.170030 0.000000 0.000000 
#    y 0.000000 2.115890 0.000000 
#    z 0.000000 0.000000 1.937080 
# 
# From -- ./inp_files/32294.got.cif
#   From: 2010.05.17/outbox.cif.g08.bks.cpg/sg72_17_cif.got.tgz:32294.got - 2010.06.03 17:03:01.
