data_PCOD9528962
_publ_section_title
;
Structure prediction by ZEFSAII (Michael W. Deem and Ramdas Pophale) SiO2 
 PCOD9528962
Probable space group: I B A M
;
_chemical_formula_sum "Si O2"
_cell_formula_units_Z 88
_cell_length_a 30.120464
_cell_length_b 5.640590
_cell_length_c 24.329102
_cell_angle_alpha 90.000000
_cell_angle_beta 90.000000
_cell_angle_gamma 90.000000
_cell_volume 4133.446017
_symmetry_space_group_name_H-M "I B A M"
_symmetry_group_IT_number 72
_symmetry_cell_setting 'orthorhombic'
loop_
_space_group_symop_operation_xyz
x,y,z
-x,-y,z
x,-y,1/2-z
-x,y,1/2-z
-x,-y,-z
x,y,-z
-x,y,1/2+z
x,-y,1/2+z
1/2+x,1/2+y,1/2+z
1/2-x,1/2-y,1/2+z
1/2+x,1/2-y,-z
1/2-x,1/2+y,-z
1/2-x,1/2-y,1/2-z
1/2+x,1/2+y,1/2-z
1/2-x,1/2+y,z
1/2+x,1/2-y,z
loop_
_atom_site_type_symbol
_atom_site_label
_atom_site_fract_x
_atom_site_fract_y
_atom_site_fract_z
Si Si1 0.226594 0.732830 0.123362
Si Si2 0.140850 0.212093 0.000000
Si Si3 0.304956 0.785140 0.500000
Si Si4 0.442846 0.634266 0.694106
Si Si5 0.588274 0.244701 0.887984
Si Si6 0.854727 0.431966 0.190911
Si Si7 0.000000 0.500000 0.138185
O O1 0.251194 0.484852 0.138498
O O2 0.179263 0.715082 0.153673
O O3 0.221541 0.722759 0.057234
O O4 0.110706 0.213304 0.054079
O O5 0.168552 0.461551 0.000000
O O6 0.167578 0.963224 0.000000
O O7 0.450148 0.500000 0.750000
O O8 0.430310 0.475202 0.641925
O O9 0.399430 0.791747 0.704926
O O10 0.484761 0.788274 0.677157
O O11 0.626237 0.141863 0.847353
O O12 0.545150 0.072632 0.893031
O O13 0.834327 0.500000 0.250000
#
# Coordination Sequence:
#
# PCOD9528962 Si02
#       7
#    16   8   8  16  16  16   8
#     4  12  27  45  74 109 145 183 235 298 364 426
#     4  12  26  44  81 103 140 192 245 291 356 436
#     4  12  24  49  74 106 139 182 247 298 350 429
#     4  11  23  43  71  99 142 192 243 299 356 425
#     4  11  24  45  68 104 137 195 236 300 357 429
#     4  11  24  44  69 101 144 188 241 286 361 437
#     4  10  26  42  64 106 146 181 247 300 364 418
#
# _framework density 21.289742
#
# number of rings (size 3 to 8) (size 9 to 14) (size 15 to 20)
#    0.000    0.727    3.636    3.273    5.091    3.273 
#    0.000    1.818    0.000    0.000    0.000    0.000 
#    0.000    0.000    0.000    0.000    0.000    0.000 
#
# Total GULP energy -246005.909083 kJ/mol
# GULP energy per Si atom -5591.043388 kJ/mol
# Density = 2.124129 g / cm^3
# Si number density = 21.289742 Si / 1000 Ang^3
#
#
#
# Elastic Constant Matrix: (Units=GPa)
#
#
# Indices 1 2 3 4 5 6 
#
# 1 72.8262 37.5398 20.0468 0.0000 0.0000 0.0000
# 2 37.5398 132.4606 35.0874 0.0000 0.0000 0.0000
# 3 20.0468 35.0874 94.8713 0.0000 0.0000 0.0000
# 4 0.0000 0.0000 0.0000 13.2731 0.0000 0.0000
# 5 0.0000 0.0000 0.0000 0.0000 10.5368 0.0000
# 6 0.0000 0.0000 0.0000 0.0000 0.0000 44.8459
#
#
#
# Elastic Compliance Matrix: (Units=1/GPa)
#
#
# Indices 1 2 3 4 5 6 
#
# 1 0.016395 -0.004134 -0.001936 0.000000 0.000000 0.000000
# 2 -0.004134 0.009412 -0.002607 0.000000 0.000000 0.000000
# 3 -0.001936 -0.002607 0.011914 0.000000 0.000000 0.000000
# 4 0.000000 0.000000 0.000000 0.075341 0.000000 0.000000
# 5 0.000000 0.000000 0.000000 0.000000 0.094906 0.000000
# 6 0.000000 0.000000 0.000000 0.000000 0.000000 0.022299
#
#
# Mechanical properties :
#
#
# Convention : Reuss Voigt Hill
#
# Bulk Modulus (GPa) = 49.09833 53.94515 51.52174
# Shear Modulus (GPa) = 19.65353 27.56341 23.60847
#
# Velocity S-wave (km/s) = 3.04163 3.60207 3.33365
# Velocity P-wave (km/s) = 5.95377 6.53402 6.25063
#
# Compressibility (1/GPa) = 0.02036729
#
# Stress axis : x y z
#
# Youngs Moduli (GPa) = 60.99456 106.25217 83.93573
#
# Poissons Ratio (x) = 0.43921 0.16246
# Poissons Ratio (y) = 0.25213 0.21885
# Poissons Ratio (z) = 0.11806 0.27703
#
# Static dielectric constant tensor:
#      x y z
#    x 1.770410 0.000000 0.000000 
#    y 0.000000 1.839160 0.000000 
#    z 0.000000 0.000000 1.731980 
# 
# From -- ./inp_files/46155.got.cif
#   From: 2010.05.17/outbox.cif.g08.bks.cpg/sg72_24_cif.got.tgz:46155.got - 2010.06.03 17:03:01.
