data_PCOD9528610
_publ_section_title
;
Structure prediction by ZEFSAII (Michael W. Deem and Ramdas Pophale) SiO2 
 PCOD9528610
Probable space group: I B A M
;
_chemical_formula_sum "Si O2"
_cell_formula_units_Z 64
_cell_length_a 9.994122
_cell_length_b 8.851383
_cell_length_c 31.787333
_cell_angle_alpha 90.000000
_cell_angle_beta 90.000000
_cell_angle_gamma 90.000000
_cell_volume 2811.964744
_symmetry_space_group_name_H-M "I B A M"
_symmetry_group_IT_number 72
_symmetry_cell_setting 'orthorhombic'
loop_
_space_group_symop_operation_xyz
x,y,z
-x,-y,z
x,-y,1/2-z
-x,y,1/2-z
-x,-y,-z
x,y,-z
-x,y,1/2+z
x,-y,1/2+z
1/2+x,1/2+y,1/2+z
1/2-x,1/2-y,1/2+z
1/2+x,1/2-y,-z
1/2-x,1/2+y,-z
1/2-x,1/2-y,1/2-z
1/2+x,1/2+y,1/2-z
1/2-x,1/2+y,z
1/2+x,1/2-y,z
loop_
_atom_site_type_symbol
_atom_site_label
_atom_site_fract_x
_atom_site_fract_y
_atom_site_fract_z
Si Si1 0.373880 0.889378 0.048146
Si Si2 0.700102 0.387158 0.099959
Si Si3 0.556606 0.843085 0.297593
Si Si4 0.842116 0.841271 0.659369
O O1 0.388526 0.741154 0.077336
O O2 0.500000 0.000000 0.049982
O O3 0.256793 0.997811 0.065225
O O4 0.350355 0.842463 0.000000
O O5 0.808974 0.285179 0.124267
O O6 0.650261 0.500819 0.135632
O O7 0.500000 0.842256 0.250000
O O8 0.714672 0.839130 0.308013
O O9 0.477430 0.706861 0.318472
O O10 0.500000 0.000000 0.316443
#
# Coordination Sequence:
#
# PCOD9528610 Si02
#       4
#    16  16  16  16
#     4  10  22  43  69  99 138 180 229 286 352 420
#     4  10  23  39  68  98 136 178 226 287 343 417
#     4  11  24  45  69 101 143 184 234 293 353 421
#     4  11  23  43  69 103 137 187 235 288 352 419
#
# _framework density 22.759886999999999
#
# number of rings (size 3 to 8) (size 9 to 14) (size 15 to 20)
#    0.000    1.500    2.500    1.500    7.000    1.000 
#    4.500    1.250    0.000    7.500    0.000    0.000 
#    0.000    0.000    0.000    0.000    0.000    0.000 
#
# Total GULP energy -178739.585435 kJ/mol
# GULP energy per Si atom -5585.612045 kJ/mol
# Density = 2.270808 g / cm^3
# Si number density = 22.759887 Si / 1000 Ang^3
#
#
#
# Elastic Constant Matrix: (Units=GPa)
#
#
# Indices 1 2 3 4 5 6 
#
# 1 97.1210 41.9732 46.1077 0.0000 0.0000 0.0000
# 2 41.9732 174.6271 70.0307 0.0000 0.0000 0.0000
# 3 46.1077 70.0307 127.1219 0.0000 0.0000 0.0000
# 4 0.0000 0.0000 0.0000 45.9087 0.0000 0.0000
# 5 0.0000 0.0000 0.0000 0.0000 -22.5428 0.0000
# 6 0.0000 0.0000 0.0000 0.0000 0.0000 23.9991
#
#
#
# Elastic Compliance Matrix: (Units=1/GPa)
#
#
# Indices 1 2 3 4 5 6 
#
# 1 0.012759 -0.001554 -0.003771 0.000000 0.000000 0.000000
# 2 -0.001554 0.007540 -0.003590 0.000000 0.000000 0.000000
# 3 -0.003771 -0.003590 0.011212 0.000000 0.000000 0.000000
# 4 0.000000 0.000000 0.000000 0.021782 0.000000 0.000000
# 5 0.000000 0.000000 0.000000 0.000000 -0.044360 0.000000
# 6 0.000000 0.000000 0.000000 0.000000 0.000000 0.041668
#
#
# Mechanical properties :
#
#
# Convention : Reuss Voigt Hill
#
# Bulk Modulus (GPa) = 73.10282 79.45482 76.27882
# Shear Modulus (GPa) = 68.50119 25.52356 47.01237
#
# Velocity S-wave (km/s) = 5.49206 3.35240 4.54980
# Velocity P-wave (km/s) = 8.50916 7.06899 7.82229
#
# Compressibility (1/GPa) = 0.01367936
#
# Stress axis : x y z
#
# Youngs Moduli (GPa) = 78.37864 132.63130 89.19008
#
# Poissons Ratio (x) = 0.20614 0.33637
# Poissons Ratio (y) = 0.12182 0.32018
# Poissons Ratio (z) = 0.29560 0.47613
#
# Static dielectric constant tensor:
#      x y z
#    x 2.222140 0.000000 0.000000 
#    y 0.000000 1.858970 0.000000 
#    z 0.000000 0.000000 1.889030 
# 
# From -- ./inp_files/51123.got.cif
#   From: 2010.05.17/outbox.cif.g08.bks.cpg/sg72_26_cif.got.tgz:51123.got - 2010.06.03 17:03:01.
