data_PCOD9528767
_publ_section_title
;
Structure prediction by ZEFSAII (Michael W. Deem and Ramdas Pophale) SiO2 
 PCOD9528767
Probable space group: I B A M
;
_chemical_formula_sum "Si O2"
_cell_formula_units_Z 96
_cell_length_a 23.533158
_cell_length_b 8.609918
_cell_length_c 23.153088
_cell_angle_alpha 90.000000
_cell_angle_beta 90.000000
_cell_angle_gamma 90.000000
_cell_volume 4691.245365
_symmetry_space_group_name_H-M "I B A M"
_symmetry_group_IT_number 72
_symmetry_cell_setting 'orthorhombic'
loop_
_space_group_symop_operation_xyz
x,y,z
-x,-y,z
x,-y,1/2-z
-x,y,1/2-z
-x,-y,-z
x,y,-z
-x,y,1/2+z
x,-y,1/2+z
1/2+x,1/2+y,1/2+z
1/2-x,1/2-y,1/2+z
1/2+x,1/2-y,-z
1/2-x,1/2+y,-z
1/2-x,1/2-y,1/2-z
1/2+x,1/2+y,1/2-z
1/2-x,1/2+y,z
1/2+x,1/2-y,z
loop_
_atom_site_type_symbol
_atom_site_label
_atom_site_fract_x
_atom_site_fract_y
_atom_site_fract_z
Si Si1 0.640609 0.410474 0.696040
Si Si2 0.674388 0.243450 0.589648
Si Si3 0.946194 0.815704 0.000000
Si Si4 0.066113 0.330327 0.764199
Si Si5 0.384964 0.289534 0.620946
Si Si6 0.289341 0.107697 0.565108
Si Si7 0.576200 0.314121 0.500000
O O1 0.670093 0.500000 0.750000
O O2 0.671628 0.282830 0.657266
O O3 0.591797 0.312421 0.727900
O O4 0.621206 0.538719 0.648741
O O5 0.722369 0.360840 0.566717
O O6 0.615189 0.267900 0.555132
O O7 0.695502 0.069799 0.577947
O O8 0.916983 0.771748 0.939682
O O9 0.011298 0.754178 0.000000
O O10 0.936357 0.002244 0.000000
O O11 0.090721 0.500000 0.750000
O O12 0.080068 0.301595 0.830755
O O13 0.000000 0.333168 0.750000
O O14 0.322832 0.217416 0.609569
O O15 0.308457 0.145170 0.500000
#
# Coordination Sequence:
#
# PCOD9528767 Si02
#       7
#    16  16   8  16  16  16   8
#     4  10  23  42  67  94 132 173 231 274 334 402
#     4  12  24  43  66  97 134 173 231 276 343 403
#     4  11  24  40  66 103 144 171 222 275 346 401
#     4  10  23  43  66  95 133 184 229 277 331 402
#     4  11  23  42  67  99 136 176 225 277 334 403
#     4  12  24  42  69 100 135 181 220 285 338 408
#     4  11  24  38  64  99 136 179 212 282 334 414
#
# _framework density 20.463650000000001
#
# number of rings (size 3 to 8) (size 9 to 14) (size 15 to 20)
#    0.000    1.000    4.167    2.000    2.333    3.000 
#    0.000    9.167    0.000    0.000    0.000    0.000 
#    0.000    0.000    0.000    0.000    0.000    0.000 
#
# Total GULP energy -267765.825526 kJ/mol
# GULP energy per Si atom -5578.454698 kJ/mol
# Density = 2.041707 g / cm^3
# Si number density = 20.463650 Si / 1000 Ang^3
#
#
#
# Elastic Constant Matrix: (Units=GPa)
#
#
# Indices 1 2 3 4 5 6 
#
# 1 79.2913 10.4578 33.7610 0.0000 0.0000 0.0000
# 2 10.4578 59.4558 19.3787 0.0000 0.0000 0.0000
# 3 33.7610 19.3787 145.2788 0.0000 0.0000 0.0000
# 4 0.0000 0.0000 0.0000 41.6919 0.0000 0.0000
# 5 0.0000 0.0000 0.0000 0.0000 20.9038 0.0000
# 6 0.0000 0.0000 0.0000 0.0000 0.0000 27.6013
#
#
#
# Elastic Compliance Matrix: (Units=1/GPa)
#
#
# Indices 1 2 3 4 5 6 
#
# 1 0.014120 -0.001478 -0.003084 0.000000 0.000000 0.000000
# 2 -0.001478 0.017738 -0.002023 0.000000 0.000000 0.000000
# 3 -0.003084 -0.002023 0.007870 0.000000 0.000000 0.000000
# 4 0.000000 0.000000 0.000000 0.023985 0.000000 0.000000
# 5 0.000000 0.000000 0.000000 0.000000 0.047838 0.000000
# 6 0.000000 0.000000 0.000000 0.000000 0.000000 0.036230
#
#
# Mechanical properties :
#
#
# Convention : Reuss Voigt Hill
#
# Bulk Modulus (GPa) = 37.65328 45.69121 41.67224
# Shear Modulus (GPa) = 29.44559 32.73462 31.09011
#
# Velocity S-wave (km/s) = 3.79743 4.00390 3.90203
# Velocity P-wave (km/s) = 6.13737 6.61448 6.38039
#
# Compressibility (1/GPa) = 0.02655811
#
# Stress axis : x y z
#
# Youngs Moduli (GPa) = 70.82223 56.37462 127.06784
#
# Poissons Ratio (x) = 0.08334 0.39189
# Poissons Ratio (y) = 0.10470 0.25700
# Poissons Ratio (z) = 0.21842 0.11402
#
# Static dielectric constant tensor:
#      x y z
#    x 1.722500 0.000000 0.000000 
#    y 0.000000 1.750850 0.000000 
#    z 0.000000 0.000000 1.754700 
# 
# From -- ./inp_files/45676.got.cif
#   From: 2010.05.17/outbox.cif.g08.bks.cpg/sg72_23_cif.got.tgz:45676.got - 2010.06.03 17:03:01.
