data_PCOD9528491
_publ_section_title
;
Structure prediction by ZEFSAII (Michael W. Deem and Ramdas Pophale) SiO2 
 PCOD9528491
Probable space group: I B A M
;
_chemical_formula_sum "Si O2"
_cell_formula_units_Z 96
_cell_length_a 9.577056
_cell_length_b 24.885213
_cell_length_c 21.043751
_cell_angle_alpha 90.000000
_cell_angle_beta 90.000000
_cell_angle_gamma 90.000000
_cell_volume 5015.295696
_symmetry_space_group_name_H-M "I B A M"
_symmetry_group_IT_number 72
_symmetry_cell_setting 'orthorhombic'
loop_
_space_group_symop_operation_xyz
x,y,z
-x,-y,z
x,-y,1/2-z
-x,y,1/2-z
-x,-y,-z
x,y,-z
-x,y,1/2+z
x,-y,1/2+z
1/2+x,1/2+y,1/2+z
1/2-x,1/2-y,1/2+z
1/2+x,1/2-y,-z
1/2-x,1/2+y,-z
1/2-x,1/2-y,1/2-z
1/2+x,1/2+y,1/2-z
1/2-x,1/2+y,z
1/2+x,1/2-y,z
loop_
_atom_site_type_symbol
_atom_site_label
_atom_site_fract_x
_atom_site_fract_y
_atom_site_fract_z
Si Si1 0.512160 0.559676 0.073749
Si Si2 0.228060 0.869947 0.627138
Si Si3 0.760792 0.866634 0.360367
Si Si4 0.334149 0.060843 0.243742
Si Si5 0.000479 0.214766 0.324242
Si Si6 0.000425 0.688154 0.575131
O O1 0.500000 0.500000 0.102611
O O2 0.372498 0.594230 0.083522
O O3 0.636200 0.593767 0.103087
O O4 0.542104 0.553512 0.000000
O O5 0.291211 0.910648 0.678722
O O6 0.127851 0.826256 0.662081
O O7 0.353640 0.841142 0.590077
O O8 0.713407 0.899613 0.299233
O O9 0.630992 0.848649 0.403521
O O10 0.854747 0.816344 0.338028
O O11 0.500000 0.057477 0.250000
O O12 0.277116 0.000000 0.250000
O O13 0.000000 0.232268 0.250000
O O14 0.991085 0.261737 0.376262
O O15 0.009094 0.701991 0.500000
#
# Coordination Sequence:
#
# PCOD9528491 Si02
#       6
#    16  16  16  16  16  16
#     4  10  22  41  64  91 127 170 212 263 324 385
#     4  11  23  42  66  94 129 167 216 265 323 377
#     4  11  23  42  66  94 129 167 216 265 323 377
#     4  11  22  39  66 100 129 162 211 269 327 380
#     4  11  25  41  67  96 128 170 218 266 320 379
#     4  12  27  43  64  94 133 175 219 266 317 382
#
# _framework density 19.141442999999999
#
# number of rings (size 3 to 8) (size 9 to 14) (size 15 to 20)
#    0.000    1.000    3.333    3.000    2.333    6.667 
#    0.000    2.500    0.000    4.000    0.000    0.000 
#    0.000    0.000    0.000    0.000    0.000    0.000 
#
# Total GULP energy -268171.561604 kJ/mol
# GULP energy per Si atom -5586.907533 kJ/mol
# Density = 1.909788 g / cm^3
# Si number density = 19.141443 Si / 1000 Ang^3
#
#
#
# Elastic Constant Matrix: (Units=GPa)
#
#
# Indices 1 2 3 4 5 6 
#
# 1 90.9451 21.8080 5.3384 0.0000 0.0000 0.0000
# 2 21.8080 100.6919 24.3210 0.0000 0.0000 0.0000
# 3 5.3384 24.3210 94.0939 0.0000 0.0000 0.0000
# 4 0.0000 0.0000 0.0000 30.9600 0.0000 0.0000
# 5 0.0000 0.0000 0.0000 0.0000 22.5582 0.0000
# 6 0.0000 0.0000 0.0000 0.0000 0.0000 33.3315
#
#
#
# Elastic Compliance Matrix: (Units=1/GPa)
#
#
# Indices 1 2 3 4 5 6 
#
# 1 0.011598 -0.002510 -0.000009 0.000000 0.000000 0.000000
# 2 -0.002510 0.011136 -0.002736 0.000000 0.000000 0.000000
# 3 -0.000009 -0.002736 0.011335 0.000000 0.000000 0.000000
# 4 0.000000 0.000000 0.000000 0.032300 0.000000 0.000000
# 5 0.000000 0.000000 0.000000 0.000000 0.044330 0.000000
# 6 0.000000 0.000000 0.000000 0.000000 0.000000 0.030002
#
#
# Mechanical properties :
#
#
# Convention : Reuss Voigt Hill
#
# Bulk Modulus (GPa) = 42.44621 43.18509 42.81565
# Shear Modulus (GPa) = 31.43408 32.98751 32.21080
#
# Velocity S-wave (km/s) = 4.05680 4.15584 4.10662
# Velocity P-wave (km/s) = 6.64580 6.75559 6.70092
#
# Compressibility (1/GPa) = 0.02355923
#
# Stress axis : x y z
#
# Youngs Moduli (GPa) = 86.22179 89.80163 88.21943
#
# Poissons Ratio (x) = 0.22537 0.00082
# Poissons Ratio (y) = 0.21639 0.24136
# Poissons Ratio (z) = 0.00080 0.24569
#
# Static dielectric constant tensor:
#      x y z
#    x 1.639980 0.000000 0.000000 
#    y 0.000000 1.695440 0.000000 
#    z 0.000000 0.000000 1.683560 
# 
# From -- ./inp_files/42404.got.cif
#   From: 2010.05.17/outbox.cif.g08.bks.cpg/sg72_22_cif.got.tgz:42404.got - 2010.06.03 17:03:01.
