data_PCOD9528240
_publ_section_title
;
Structure prediction by ZEFSAII (Michael W. Deem and Ramdas Pophale) SiO2 
 PCOD9528240
Probable space group: I B A M
;
_chemical_formula_sum "Si O2"
_cell_formula_units_Z 116
_cell_length_a 27.672061
_cell_length_b 12.123272
_cell_length_c 15.411336
_cell_angle_alpha 90.000000
_cell_angle_beta 90.000000
_cell_angle_gamma 90.000000
_cell_volume 5170.132159
_symmetry_space_group_name_H-M "I B A M"
_symmetry_group_IT_number 72
_symmetry_cell_setting 'orthorhombic'
loop_
_space_group_symop_operation_xyz
x,y,z
-x,-y,z
x,-y,1/2-z
-x,y,1/2-z
-x,-y,-z
x,y,-z
-x,y,1/2+z
x,-y,1/2+z
1/2+x,1/2+y,1/2+z
1/2-x,1/2-y,1/2+z
1/2+x,1/2-y,-z
1/2-x,1/2+y,-z
1/2-x,1/2-y,1/2-z
1/2+x,1/2+y,1/2-z
1/2-x,1/2+y,z
1/2+x,1/2-y,z
loop_
_atom_site_type_symbol
_atom_site_label
_atom_site_fract_x
_atom_site_fract_y
_atom_site_fract_z
Si Si1 0.005165 0.844633 0.151475
Si Si2 0.855706 0.790371 0.144334
Si Si3 0.446202 0.853165 0.901938
Si Si4 0.887013 0.804645 0.660214
Si Si5 0.000000 0.000000 0.500000
Si Si6 0.688838 0.482948 0.354608
Si Si7 0.886732 0.553599 0.604659
Si Si8 0.204354 0.594639 0.602626
O O1 0.061594 0.847842 0.128000
O O2 0.000000 0.882304 0.250000
O O3 0.984979 0.720357 0.147257
O O4 0.980087 0.916348 0.077425
O O5 0.896812 0.719994 0.095897
O O6 0.881018 0.815977 0.236307
O O7 0.810280 0.706539 0.152693
O O8 0.834993 0.905087 0.108717
O O9 0.429289 0.971062 0.865271
O O10 0.463985 0.868842 0.000000
O O11 0.844418 0.878563 0.621801
O O12 0.886211 0.675815 0.640218
O O13 0.689079 0.500000 0.250000
O O14 0.743136 0.454917 0.381166
O O15 0.890306 0.558153 0.500000
O O16 0.836258 0.494719 0.626714
O O17 0.199695 0.619429 0.500000
#
# Coordination Sequence:
#
# PCOD9528240 Si02
#       8
#    16  16  16  16   4  16  16  16
#     4  12  26  47  71 106 139 187 243 293 348 432
#     4  10  22  42  66  96 133 180 228 290 347 425
#     4  10  21  43  69  97 137 185 232 283 355 418
#     4  11  25  41  67 102 137 174 232 286 352 412
#     4  12  30  44  76 100 144 192 234 292 370 410
#     4  10  25  40  63  93 132 175 223 287 351 415
#     4   9  22  42  66  96 139 180 224 286 342 420
#     4  10  23  42  64  95 127 177 227 277 348 418
#
# _framework density 22.436564000000001
#
# number of rings (size 3 to 8) (size 9 to 14) (size 15 to 20)
#    0.000    1.655    2.069    1.448    6.759    6.069 
#    0.000    2.069    0.000    0.000    0.000    0.000 
#    0.000    0.000    0.000    0.000    0.000    0.000 
#
# Total GULP energy -323640.279412 kJ/mol
# GULP energy per Si atom -5580.004817 kJ/mol
# Density = 2.238550 g / cm^3
# Si number density = 22.436564 Si / 1000 Ang^3
#
#
#
# Elastic Constant Matrix: (Units=GPa)
#
#
# Indices 1 2 3 4 5 6 
#
# 1 72.2028 20.5078 3.5002 0.0000 0.0000 0.0000
# 2 20.5078 112.3030 13.8896 0.0000 0.0000 0.0000
# 3 3.5002 13.8896 58.4125 0.0000 0.0000 0.0000
# 4 0.0000 0.0000 0.0000 22.6123 0.0000 0.0000
# 5 0.0000 0.0000 0.0000 0.0000 608.4095 0.0000
# 6 0.0000 0.0000 0.0000 0.0000 0.0000 27.0706
#
#
#
# Elastic Compliance Matrix: (Units=1/GPa)
#
#
# Indices 1 2 3 4 5 6 
#
# 1 0.014611 -0.002637 -0.000248 0.000000 0.000000 0.000000
# 2 -0.002637 0.009650 -0.002137 0.000000 0.000000 0.000000
# 3 -0.000248 -0.002137 0.017643 0.000000 0.000000 0.000000
# 4 0.000000 0.000000 0.000000 0.044224 0.000000 0.000000
# 5 0.000000 0.000000 0.000000 0.000000 0.001644 0.000000
# 6 0.000000 0.000000 0.000000 0.000000 0.000000 0.036940
#
#
# Mechanical properties :
#
#
# Convention : Reuss Voigt Hill
#
# Bulk Modulus (GPa) = 31.38830 35.41261 33.40045
# Shear Modulus (GPa) = 34.39349 145.28652 89.84001
#
# Velocity S-wave (km/s) = 3.91950 8.05574 6.33472
# Velocity P-wave (km/s) = 5.87397 10.11653 8.27187
#
# Compressibility (1/GPa) = 0.03185901
#
# Stress axis : x y z
#
# Youngs Moduli (GPa) = 68.44150 103.62297 56.68110
#
# Poissons Ratio (x) = 0.27330 0.01408
# Poissons Ratio (y) = 0.18051 0.12111
# Poissons Ratio (z) = 0.01700 0.22141
#
# Static dielectric constant tensor:
#      x y z
#    x 1.822450 0.000000 0.000000 
#    y 0.000000 1.861510 0.000000 
#    z 0.000000 0.000000 1.850330 
# 
# From -- ./inp_files/34003.got.cif
#   From: 2010.05.17/outbox.cif.g08.bks.cpg/sg72_18_cif.got.tgz:34003.got - 2010.06.03 17:03:01.
