data_PCOD9528090
_publ_section_title
;
Structure prediction by ZEFSAII (Michael W. Deem and Ramdas Pophale) SiO2 
 PCOD9528090
Probable space group: I B A M
;
_chemical_formula_sum "Si O2"
_cell_formula_units_Z 80
_cell_length_a 12.285393
_cell_length_b 34.105521
_cell_length_c 10.545413
_cell_angle_alpha 90.000000
_cell_angle_beta 90.000000
_cell_angle_gamma 90.000000
_cell_volume 4418.525189
_symmetry_space_group_name_H-M "I B A M"
_symmetry_group_IT_number 72
_symmetry_cell_setting 'orthorhombic'
loop_
_space_group_symop_operation_xyz
x,y,z
-x,-y,z
x,-y,1/2-z
-x,y,1/2-z
-x,-y,-z
x,y,-z
-x,y,1/2+z
x,-y,1/2+z
1/2+x,1/2+y,1/2+z
1/2-x,1/2-y,1/2+z
1/2+x,1/2-y,-z
1/2-x,1/2+y,-z
1/2-x,1/2-y,1/2-z
1/2+x,1/2+y,1/2-z
1/2-x,1/2+y,z
1/2+x,1/2-y,z
loop_
_atom_site_type_symbol
_atom_site_label
_atom_site_fract_x
_atom_site_fract_y
_atom_site_fract_z
Si Si1 0.655668 0.889295 0.147641
Si Si2 0.904527 0.284921 0.500000
Si Si3 0.670599 0.326021 0.500000
Si Si4 0.616493 0.022320 0.361515
Si Si5 0.070949 0.805163 0.500000
Si Si6 0.120447 0.864559 0.268951
Si Si7 0.500000 0.175847 0.250000
O O1 0.604759 0.931989 0.170639
O O2 0.783330 0.891248 0.178169
O O3 0.599787 0.853889 0.222679
O O4 0.639598 0.880219 0.000000
O O5 0.786010 0.304904 0.500000
O O6 0.884217 0.238478 0.500000
O O7 0.969390 0.298685 0.626351
O O8 0.560198 0.300328 0.500000
O O9 0.658898 0.349979 0.630833
O O10 0.668462 0.019992 0.500000
O O11 0.500000 0.000000 0.371352
O O12 0.677800 0.000000 0.250000
O O13 0.104991 0.829764 0.374219
O O14 0.000000 0.881995 0.250000
#
# Coordination Sequence:
#
# PCOD9528090 Si02
#       7
#    16   8   8  16   8  16   8
#     4  11  21  38  62  87 123 160 193 248 290 360
#     4  12  26  38  56  84 119 157 201 255 316 358
#     4  10  22  40  56  82 113 146 200 252 303 351
#     4   9  18  34  55  85 118 153 184 218 283 352
#     4  10  24  40  60  82 111 157 202 257 306 364
#     4  10  21  40  61  84 111 151 207 248 296 348
#     4  12  24  38  53  88 122 152 206 248 311 348
#
# _framework density 18.105588000000001
#
# number of rings (size 3 to 8) (size 9 to 14) (size 15 to 20)
#    0.000    1.600    4.000    1.200    4.200    2.400 
#    3.600    0.000    0.000    0.600    0.000    2.800 
#    0.000    0.000    0.000    0.000    0.000    0.000 
#
# Total GULP energy -222840.203658 kJ/mol
# GULP energy per Si atom -5571.005091 kJ/mol
# Density = 1.806438 g / cm^3
# Si number density = 18.105588 Si / 1000 Ang^3
#
#
#
# Elastic Constant Matrix: (Units=GPa)
#
#
# Indices 1 2 3 4 5 6 
#
# 1 89.5074 25.5427 12.7729 0.0017 0.0011 0.0001
# 2 25.5427 58.6212 31.1407 -0.0017 -0.0003 0.0000
# 3 12.7729 31.1407 132.2833 0.0056 0.0071 -0.0003
# 4 0.0017 -0.0017 0.0056 -54.5890 0.0097 0.0014
# 5 0.0011 -0.0003 0.0071 0.0097 16.7228 0.0007
# 6 0.0001 0.0000 -0.0003 0.0014 0.0007 15.7790
#
#
#
# Elastic Compliance Matrix: (Units=1/GPa)
#
#
# Indices 1 2 3 4 5 6 
#
# 1 0.012760 -0.005606 0.000088 0.000001 -0.000001 0.000000
# 2 -0.005606 0.021960 -0.004628 -0.000001 0.000003 0.000000
# 3 0.000088 -0.004628 0.008641 0.000001 -0.000004 0.000000
# 4 0.000001 -0.000001 0.000001 -0.018319 0.000011 0.000002
# 5 -0.000001 0.000003 -0.000004 0.000011 0.059799 -0.000003
# 6 0.000000 0.000000 0.000000 0.000002 -0.000003 0.063376
#
#
# Mechanical properties :
#
#
# Convention : Reuss Voigt Hill
#
# Bulk Modulus (GPa) = 43.35263 46.59162 44.97213
# Shear Modulus (GPa) = 28.37709 9.64624 19.01166
#
# Velocity S-wave (km/s) = 3.96322 2.31070 3.24395
# Velocity P-wave (km/s) = 6.70367 5.73657 6.23889
#
# Compressibility (1/GPa) = 0.02306665
#
# Stress axis : x y z
#
# Youngs Moduli (GPa) = 78.37234 45.53709 115.73267
#
# Poissons Ratio (x) = 0.25529 -0.01015
# Poissons Ratio (y) = 0.43938 0.53564
# Poissons Ratio (z) = -0.00688 0.21076
#
# Static dielectric constant tensor:
#      x y z
#    x 1.640120 0.000000 0.000000 
#    y 0.000000 1.601800 0.000000 
#    z 0.000000 0.000000 1.691550 
# 
# From -- ./inp_files/11711.got.cif
#   From: 2010.05.17/outbox.cif.g08.bks.cpg/sg72_6_cif.got.tgz:11711.got - 2010.06.03 17:03:01.
