data_PCOD9528127
_publ_section_title
;
Structure prediction by ZEFSAII (Michael W. Deem and Ramdas Pophale) SiO2 
 PCOD9528127
Probable space group: I B A M
;
_chemical_formula_sum "Si O2"
_cell_formula_units_Z 116
_cell_length_a 22.077312
_cell_length_b 18.510664
_cell_length_c 14.978324
_cell_angle_alpha 90.000000
_cell_angle_beta 90.000000
_cell_angle_gamma 90.000000
_cell_volume 6121.127329
_symmetry_space_group_name_H-M "I B A M"
_symmetry_group_IT_number 72
_symmetry_cell_setting 'orthorhombic'
loop_
_space_group_symop_operation_xyz
x,y,z
-x,-y,z
x,-y,1/2-z
-x,y,1/2-z
-x,-y,-z
x,y,-z
-x,y,1/2+z
x,-y,1/2+z
1/2+x,1/2+y,1/2+z
1/2-x,1/2-y,1/2+z
1/2+x,1/2-y,-z
1/2-x,1/2+y,-z
1/2-x,1/2-y,1/2-z
1/2+x,1/2+y,1/2-z
1/2-x,1/2+y,z
1/2+x,1/2-y,z
loop_
_atom_site_type_symbol
_atom_site_label
_atom_site_fract_x
_atom_site_fract_y
_atom_site_fract_z
Si Si1 0.303912 0.136269 0.599431
Si Si2 0.594511 0.028651 0.154531
Si Si3 0.817913 0.769619 0.213426
Si Si4 0.943793 0.753788 0.680831
Si Si5 0.426106 0.592954 0.396253
Si Si6 0.306622 0.419023 0.786439
Si Si7 0.500000 0.500000 0.250000
Si Si8 0.479854 0.896365 0.399624
O O1 0.278715 0.138229 0.500000
O O2 0.358369 0.079601 0.606081
O O3 0.323441 0.217068 0.628471
O O4 0.255581 0.105596 0.669040
O O5 0.534246 0.077462 0.163795
O O6 0.616858 0.000000 0.250000
O O7 0.571656 0.957454 0.104290
O O8 0.750000 0.750000 0.250000
O O9 0.877093 0.750546 0.273316
O O10 0.820605 0.857173 0.211743
O O11 0.944331 0.823636 0.617460
O O12 0.954594 0.680119 0.628512
O O13 0.000000 0.761449 0.750000
O O14 0.435080 0.571049 0.500000
O O15 0.356817 0.586236 0.364140
O O16 0.461217 0.548291 0.319101
O O17 0.305013 0.500000 0.750000
O O18 0.504728 0.894301 0.500000
#
# Coordination Sequence:
#
# PCOD9528127 Si02
#       8
#    16  16  16  16  16  16   4  16
#     4  11  21  37  59  87 119 159 208 256 300 366
#     4  11  21  35  54  80 117 164 202 243 305 360
#     4   9  21  39  59  83 117 160 196 244 311 369
#     4  11  21  37  61  86 118 159 204 251 309 369
#     4  11  23  41  64  91 120 158 200 250 317 385
#     4  10  21  40  65  87 119 157 202 257 312 374
#     4  12  22  44  64  90 124 154 186 254 324 378
#     4  11  21  34  53  84 120 155 198 256 300 356
#
# _framework density 18.950758
#
# number of rings (size 3 to 8) (size 9 to 14) (size 15 to 20)
#    0.000    1.379    1.379    6.414    0.000    1.103 
#    0.000    2.759    0.000    0.000    0.000    0.000 
#    0.000    0.000    0.000    0.000    0.000    0.000 
#
# Total GULP energy -323344.952425 kJ/mol
# GULP energy per Si atom -5574.912973 kJ/mol
# Density = 1.890763 g / cm^3
# Si number density = 18.950758 Si / 1000 Ang^3
#
#
#
# Elastic Constant Matrix: (Units=GPa)
#
#
# Indices 1 2 3 4 5 6 
#
# 1 77.4735 27.1553 20.5202 0.0000 0.0000 0.0000
# 2 27.1553 159.6234 43.9219 0.0000 0.0000 0.0000
# 3 20.5202 43.9219 83.9685 0.0000 0.0000 0.0000
# 4 0.0000 0.0000 0.0000 12.8906 0.0000 0.0000
# 5 0.0000 0.0000 0.0000 0.0000 14.3235 0.0000
# 6 0.0000 0.0000 0.0000 0.0000 0.0000 21.9871
#
#
#
# Elastic Compliance Matrix: (Units=1/GPa)
#
#
# Indices 1 2 3 4 5 6 
#
# 1 0.014187 -0.001705 -0.002575 0.000000 0.000000 0.000000
# 2 -0.001705 0.007523 -0.003518 0.000000 0.000000 0.000000
# 3 -0.002575 -0.003518 0.014379 0.000000 0.000000 0.000000
# 4 0.000000 0.000000 0.000000 0.077576 0.000000 0.000000
# 5 0.000000 0.000000 0.000000 0.000000 0.069815 0.000000
# 6 0.000000 0.000000 0.000000 0.000000 0.000000 0.045481
#
#
# Mechanical properties :
#
#
# Convention : Reuss Voigt Hill
#
# Bulk Modulus (GPa) = 48.79960 56.02889 52.41424
# Shear Modulus (GPa) = 19.88944 25.13811 22.51377
#
# Velocity S-wave (km/s) = 3.24316 3.64606 3.45050
# Velocity P-wave (km/s) = 6.31116 6.88148 6.60248
#
# Compressibility (1/GPa) = 0.02049197
#
# Stress axis : x y z
#
# Youngs Moduli (GPa) = 70.48529 132.92722 69.54605
#
# Poissons Ratio (x) = 0.22663 0.17910
# Poissons Ratio (y) = 0.12017 0.24469
# Poissons Ratio (z) = 0.18152 0.46769
#
# Static dielectric constant tensor:
#      x y z
#    x 1.699530 0.000000 0.000000 
#    y 0.000000 1.657050 0.000000 
#    z 0.000000 0.000000 1.648670 
# 
# From -- ./inp_files/25386.got.cif
#   From: 2010.05.17/outbox.cif.g08.bks.cpg/sg72_13_cif.got.tgz:25386.got - 2010.06.03 17:03:01.
