data_PCOD9528482
_publ_section_title
;
Structure prediction by ZEFSAII (Michael W. Deem and Ramdas Pophale) SiO2 
 PCOD9528482
Probable space group: I B A M
;
_chemical_formula_sum "Si O2"
_cell_formula_units_Z 64
_cell_length_a 32.305728
_cell_length_b 9.100649
_cell_length_c 10.972424
_cell_angle_alpha 90.000000
_cell_angle_beta 90.000000
_cell_angle_gamma 90.000000
_cell_volume 3225.926574
_symmetry_space_group_name_H-M "I B A M"
_symmetry_group_IT_number 72
_symmetry_cell_setting 'orthorhombic'
loop_
_space_group_symop_operation_xyz
x,y,z
-x,-y,z
x,-y,1/2-z
-x,y,1/2-z
-x,-y,-z
x,y,-z
-x,y,1/2+z
x,-y,1/2+z
1/2+x,1/2+y,1/2+z
1/2-x,1/2-y,1/2+z
1/2+x,1/2-y,-z
1/2-x,1/2+y,-z
1/2-x,1/2-y,1/2-z
1/2+x,1/2+y,1/2-z
1/2-x,1/2+y,z
1/2+x,1/2-y,z
loop_
_atom_site_type_symbol
_atom_site_label
_atom_site_fract_x
_atom_site_fract_y
_atom_site_fract_z
Si Si1 0.019286 0.834354 0.868768
Si Si2 0.273560 0.606989 0.133959
Si Si3 0.616681 0.392967 0.636292
Si Si4 0.682781 0.835321 0.781565
O O1 0.068547 0.847952 0.855699
O O2 0.000000 0.760769 0.750000
O O3 0.009518 0.765929 0.000000
O O4 0.000000 0.000000 0.872482
O O5 0.279717 0.500000 0.250000
O O6 0.302583 0.746288 0.161077
O O7 0.225588 0.654762 0.142675
O O8 0.281318 0.542950 0.000000
O O9 0.624822 0.500000 0.750000
O O10 0.622394 0.457739 0.500000
O O11 0.647341 0.256281 0.652729
O O12 0.669833 0.000000 0.750000
#
# Coordination Sequence:
#
# PCOD9528482 Si02
#       4
#    16  16  16  16
#     4   9  16  30  53  82 111 141 181 232 286 336
#     4  10  22  41  63  84 111 152 201 246 289 341
#     4  11  22  36  58  88 119 150 191 241 290 344
#     4  10  23  38  57  84 118 156 195 238 290 347
#
# _framework density 19.839262000000002
#
# number of rings (size 3 to 8) (size 9 to 14) (size 15 to 20)
#    0.000    2.000    2.500    1.500    0.000   15.000 
#    0.000    0.000    0.000    0.750    0.000    3.500 
#    0.000    0.000    0.000    0.000    0.000    0.000 
#
# Total GULP energy -178530.433176 kJ/mol
# GULP energy per Si atom -5579.076037 kJ/mol
# Density = 1.979411 g / cm^3
# Si number density = 19.839262 Si / 1000 Ang^3
#
#
#
# Elastic Constant Matrix: (Units=GPa)
#
#
# Indices 1 2 3 4 5 6 
#
# 1 124.6124 25.5324 42.9194 0.0000 0.0000 0.0000
# 2 25.5324 73.2383 53.3226 0.0000 0.0000 0.0000
# 3 42.9194 53.3226 212.2058 0.0000 0.0000 0.0000
# 4 0.0000 0.0000 0.0000 15.0531 0.0000 0.0000
# 5 0.0000 0.0000 0.0000 0.0000 -37.2995 0.0000
# 6 0.0000 0.0000 0.0000 0.0000 0.0000 19.1846
#
#
#
# Elastic Compliance Matrix: (Units=1/GPa)
#
#
# Indices 1 2 3 4 5 6 
#
# 1 0.008905 -0.002195 -0.001250 0.000000 0.000000 0.000000
# 2 -0.002195 0.017252 -0.003891 0.000000 0.000000 0.000000
# 3 -0.001250 -0.003891 0.005943 0.000000 0.000000 0.000000
# 4 0.000000 0.000000 0.000000 0.066431 0.000000 0.000000
# 5 0.000000 0.000000 0.000000 0.000000 -0.026810 0.000000
# 6 0.000000 0.000000 0.000000 0.000000 0.000000 0.052125
#
#
# Mechanical properties :
#
#
# Convention : Reuss Voigt Hill
#
# Bulk Modulus (GPa) = 57.37515 72.62282 64.99899
# Shear Modulus (GPa) = 34.64346 18.60645 26.62496
#
# Velocity S-wave (km/s) = 4.18330 3.06577 3.66735
# Velocity P-wave (km/s) = 7.23299 7.01548 7.12507
#
# Compressibility (1/GPa) = 0.01742915
#
# Stress axis : x y z
#
# Youngs Moduli (GPa) = 112.29717 57.96346 168.26750
#
# Poissons Ratio (x) = 0.12721 0.21026
# Poissons Ratio (y) = 0.24646 0.65477
# Poissons Ratio (z) = 0.14032 0.22555
#
# Static dielectric constant tensor:
#      x y z
#    x 1.694030 0.000000 0.000000 
#    y 0.000000 1.701030 0.000000 
#    z 0.000000 0.000000 1.768870 
# 
# From -- ./inp_files/16596.got.cif
#   From: 2010.05.17/outbox.cif.g08.bks.cpg/sg72_9_cif.got.tgz:16596.got - 2010.06.03 17:03:01.
