data_PCOD9528076
_publ_section_title
;
Structure prediction by ZEFSAII (Michael W. Deem and Ramdas Pophale) SiO2 
 PCOD9528076
Probable space group: I B A M
;
_chemical_formula_sum "Si O2"
_cell_formula_units_Z 88
_cell_length_a 5.228525
_cell_length_b 25.048887
_cell_length_c 29.755815
_cell_angle_alpha 90.000000
_cell_angle_beta 90.000000
_cell_angle_gamma 90.000000
_cell_volume 3897.081357
_symmetry_space_group_name_H-M "I B A M"
_symmetry_group_IT_number 72
_symmetry_cell_setting 'orthorhombic'
loop_
_space_group_symop_operation_xyz
x,y,z
-x,-y,z
x,-y,1/2-z
-x,y,1/2-z
-x,-y,-z
x,y,-z
-x,y,1/2+z
x,-y,1/2+z
1/2+x,1/2+y,1/2+z
1/2-x,1/2-y,1/2+z
1/2+x,1/2-y,-z
1/2-x,1/2+y,-z
1/2-x,1/2-y,1/2-z
1/2+x,1/2+y,1/2-z
1/2-x,1/2+y,z
1/2+x,1/2-y,z
loop_
_atom_site_type_symbol
_atom_site_label
_atom_site_fract_x
_atom_site_fract_y
_atom_site_fract_z
Si Si1 0.868873 0.895069 0.142451
Si Si2 0.516278 0.284418 0.195589
Si Si3 0.253432 0.036533 0.500000
Si Si4 0.848551 0.718827 0.946116
Si Si5 0.246634 0.560113 0.768912
Si Si6 0.647549 0.895758 0.589312
O O1 0.908783 0.838271 0.168221
O O2 0.758845 0.936918 0.178343
O O3 0.649977 0.895235 0.104006
O O4 0.148671 0.913558 0.126659
O O5 0.500000 0.292465 0.250000
O O6 0.239306 0.258831 0.184456
O O7 0.283831 0.071959 0.544577
O O8 0.500000 0.000000 0.500000
O O9 0.000000 0.000000 0.500000
O O10 0.633655 0.762267 0.935334
O O11 0.782422 0.665290 0.920806
O O12 0.836224 0.709523 0.000000
O O13 0.244223 0.500000 0.750000
O O14 0.500000 0.586064 0.750000
O O15 0.000000 0.589188 0.750000
#
# Coordination Sequence:
#
# PCOD9528076 Si02
#       6
#    16  16   8  16  16  16
#     4  12  25  41  70 106 138 175 233 296 339 404
#     4  10  22  40  64  97 143 196 231 266 336 424
#     4  12  28  56  74  94 136 196 236 290 366 422
#     4  10  21  39  67  98 135 180 221 269 340 411
#     4  10  22  44  66  92 130 172 211 277 351 402
#     4  12  26  46  70 105 141 180 237 289 346 422
#
# _framework density 22.581002000000002
#
# number of rings (size 3 to 8) (size 9 to 14) (size 15 to 20)
#    0.000    1.091    0.909    4.909    0.000    6.545 
#   19.636    0.000    0.000    0.000    0.000    0.000 
#    0.000    0.000    0.000    0.000    0.000    0.000 
#
# Total GULP energy -245967.855946 kJ/mol
# GULP energy per Si atom -5590.178544 kJ/mol
# Density = 2.252961 g / cm^3
# Si number density = 22.581002 Si / 1000 Ang^3
#
#
#
# Elastic Constant Matrix: (Units=GPa)
#
#
# Indices 1 2 3 4 5 6 
#
# 1 152.1196 3.7948 18.4866 0.0000 0.0000 0.0000
# 2 3.7948 61.4847 32.5773 0.0000 0.0000 0.0000
# 3 18.4866 32.5773 75.0588 0.0000 0.0000 0.0000
# 4 0.0000 0.0000 0.0000 8.2753 0.0000 0.0000
# 5 0.0000 0.0000 0.0000 0.0000 44.0547 0.0000
# 6 0.0000 0.0000 0.0000 0.0000 0.0000 5.1624
#
#
#
# Elastic Compliance Matrix: (Units=1/GPa)
#
#
# Indices 1 2 3 4 5 6 
#
# 1 0.006794 0.000607 -0.001937 0.000000 0.000000 0.000000
# 2 0.000607 0.021176 -0.009340 0.000000 0.000000 0.000000
# 3 -0.001937 -0.009340 0.017854 0.000000 0.000000 0.000000
# 4 0.000000 0.000000 0.000000 0.120842 0.000000 0.000000
# 5 0.000000 0.000000 0.000000 0.000000 0.022699 0.000000
# 6 0.000000 0.000000 0.000000 0.000000 0.000000 0.193708
#
#
# Mechanical properties :
#
#
# Convention : Reuss Voigt Hill
#
# Bulk Modulus (GPa) = 40.84427 44.26451 42.55439
# Shear Modulus (GPa) = 12.11905 27.08543 19.60224
#
# Velocity S-wave (km/s) = 2.31918 3.46711 2.94953
# Velocity P-wave (km/s) = 5.02977 5.97268 5.52139
#
# Compressibility (1/GPa) = 0.02448324
#
# Stress axis : x y z
#
# Youngs Moduli (GPa) = 147.18877 47.22422 56.01073
#
# Poissons Ratio (x) = -0.02866 0.10848
# Poissons Ratio (y) = -0.08932 0.52315
# Poissons Ratio (z) = 0.28506 0.44108
#
# Static dielectric constant tensor:
#      x y z
#    x 1.849860 0.000000 0.000000 
#    y 0.000000 1.770520 0.000000 
#    z 0.000000 0.000000 1.994490 
# 
# From -- ./inp_files/50303.got.cif
#   From: 2010.05.17/outbox.cif.g08.bks.cpg/sg72_26_cif.got.tgz:50303.got - 2010.06.03 17:03:01.
