data_PCOD9528906
_publ_section_title
;
Structure prediction by ZEFSAII (Michael W. Deem and Ramdas Pophale) SiO2 
 PCOD9528906
Probable space group: I B A M
;
_chemical_formula_sum "Si O2"
_cell_formula_units_Z 80
_cell_length_a 12.755370
_cell_length_b 14.560633
_cell_length_c 22.214668
_cell_angle_alpha 90.000000
_cell_angle_beta 90.000000
_cell_angle_gamma 90.000000
_cell_volume 4125.847235
_symmetry_space_group_name_H-M "I B A M"
_symmetry_group_IT_number 72
_symmetry_cell_setting 'orthorhombic'
loop_
_space_group_symop_operation_xyz
x,y,z
-x,-y,z
x,-y,1/2-z
-x,y,1/2-z
-x,-y,-z
x,y,-z
-x,y,1/2+z
x,-y,1/2+z
1/2+x,1/2+y,1/2+z
1/2-x,1/2-y,1/2+z
1/2+x,1/2-y,-z
1/2-x,1/2+y,-z
1/2-x,1/2-y,1/2-z
1/2+x,1/2+y,1/2-z
1/2-x,1/2+y,z
1/2+x,1/2-y,z
loop_
_atom_site_type_symbol
_atom_site_label
_atom_site_fract_x
_atom_site_fract_y
_atom_site_fract_z
Si Si1 0.929511 0.092836 0.201794
Si Si2 0.722078 0.662043 0.000000
Si Si3 0.742092 0.044026 0.500000
Si Si4 0.392248 0.942936 0.374212
Si Si5 0.399678 0.718370 0.000000
Si Si6 0.075672 0.765663 0.901682
Si Si7 0.271399 0.000000 0.750000
O O1 0.921496 0.152303 0.144134
O O2 0.000000 0.145799 0.250000
O O3 0.813975 0.075074 0.227686
O O4 0.000000 0.000000 0.190587
O O5 0.698401 0.554396 0.000000
O O6 0.674956 0.716304 0.943927
O O7 0.843880 0.682689 0.000000
O O8 0.675118 0.044707 0.436896
O O9 0.820889 0.131365 0.500000
O O10 0.418773 0.834690 0.373212
O O11 0.500000 0.000000 0.379137
O O12 0.335124 0.971172 0.310654
O O13 0.473875 0.719084 0.942366
#
# Coordination Sequence:
#
# PCOD9528906 Si02
#       7
#    16   8   8  16   8  16   8
#     4   9  22  40  63  92 131 168 226 289 338 396
#     4  11  23  40  62 102 128 176 221 275 337 419
#     4  12  24  42  74  93 143 182 221 290 347 398
#     4  12  25  45  67  99 140 183 226 283 342 411
#     4  11  24  41  66 101 136 177 227 272 354 415
#     4  11  24  40  65  98 133 170 229 282 336 404
#     4  10  24  44  68  96 136 190 232 272 356 412
#
# _framework density 19.389956999999999
#
# number of rings (size 3 to 8) (size 9 to 14) (size 15 to 20)
#    0.000    1.400    2.000    3.600    8.400    3.200 
#    0.000    0.000    0.000    0.000    0.000    0.000 
#    0.000    0.000    0.000    0.000    0.000    0.000 
#
# Total GULP energy -222851.849767 kJ/mol
# GULP energy per Si atom -5571.296244 kJ/mol
# Density = 1.934582 g / cm^3
# Si number density = 19.389957 Si / 1000 Ang^3
#
#
#
# Elastic Constant Matrix: (Units=GPa)
#
#
# Indices 1 2 3 4 5 6 
#
# 1 104.9629 31.9612 66.0794 0.0000 0.0000 0.0000
# 2 31.9612 80.3821 34.6909 0.0000 0.0000 0.0000
# 3 66.0794 34.6909 156.7448 0.0000 0.0000 0.0000
# 4 0.0000 0.0000 0.0000 36.5255 0.0000 0.0000
# 5 0.0000 0.0000 0.0000 0.0000 43.7295 0.0000
# 6 0.0000 0.0000 0.0000 0.0000 0.0000 20.4532
#
#
#
# Elastic Compliance Matrix: (Units=1/GPa)
#
#
# Indices 1 2 3 4 5 6 
#
# 1 0.013704 -0.003268 -0.005054 0.000000 0.000000 0.000000
# 2 -0.003268 0.014534 -0.001839 0.000000 0.000000 0.000000
# 3 -0.005054 -0.001839 0.008917 0.000000 0.000000 0.000000
# 4 0.000000 0.000000 0.000000 0.027378 0.000000 0.000000
# 5 0.000000 0.000000 0.000000 0.000000 0.022868 0.000000
# 6 0.000000 0.000000 0.000000 0.000000 0.000000 0.048892
#
#
# Mechanical properties :
#
#
# Convention : Reuss Voigt Hill
#
# Bulk Modulus (GPa) = 59.40537 67.50585 63.45561
# Shear Modulus (GPa) = 30.82129 34.09887 32.46008
#
# Velocity S-wave (km/s) = 3.99124 4.19810 4.09597
# Velocity P-wave (km/s) = 7.20720 7.64128 7.42741
#
# Compressibility (1/GPa) = 0.01683349
#
# Stress axis : x y z
#
# Youngs Moduli (GPa) = 72.97169 68.80633 112.13983
#
# Poissons Ratio (x) = 0.22484 0.56675
# Poissons Ratio (y) = 0.23845 0.20622
# Poissons Ratio (z) = 0.36880 0.12653
#
# Static dielectric constant tensor:
#      x y z
#    x 1.672940 0.000000 0.000000 
#    y 0.000000 1.665200 0.000000 
#    z 0.000000 0.000000 1.734320 
# 
# From -- ./inp_files/43189.got.cif
#   From: 2010.05.17/outbox.cif.g08.bks.cpg/sg72_22_cif.got.tgz:43189.got - 2010.06.03 17:03:01.
