data_PCOD9528079
_publ_section_title
;
Structure prediction by ZEFSAII (Michael W. Deem and Ramdas Pophale) SiO2 
 PCOD9528079
Probable space group: I B A M
;
_chemical_formula_sum "Si O2"
_cell_formula_units_Z 56
_cell_length_a 16.324926
_cell_length_b 17.016424
_cell_length_c 9.756050
_cell_angle_alpha 90.000000
_cell_angle_beta 90.000000
_cell_angle_gamma 90.000000
_cell_volume 2710.151301
_symmetry_space_group_name_H-M "I B A M"
_symmetry_group_IT_number 72
_symmetry_cell_setting 'orthorhombic'
loop_
_space_group_symop_operation_xyz
x,y,z
-x,-y,z
x,-y,1/2-z
-x,y,1/2-z
-x,-y,-z
x,y,-z
-x,y,1/2+z
x,-y,1/2+z
1/2+x,1/2+y,1/2+z
1/2-x,1/2-y,1/2+z
1/2+x,1/2-y,-z
1/2-x,1/2+y,-z
1/2-x,1/2-y,1/2-z
1/2+x,1/2+y,1/2-z
1/2-x,1/2+y,z
1/2+x,1/2-y,z
loop_
_atom_site_type_symbol
_atom_site_label
_atom_site_fract_x
_atom_site_fract_y
_atom_site_fract_z
Si Si1 0.500000 0.000000 0.250000
Si Si2 0.000000 0.000000 0.750000
Si Si3 0.765476 0.834038 0.000000
Si Si4 0.036387 0.253675 0.500000
Si Si5 0.875146 0.630173 0.302282
Si Si6 0.645969 0.823179 0.500000
Si Si7 0.945901 0.899806 0.000000
O O1 0.561457 0.940978 0.169748
O O2 0.950492 0.947552 0.858303
O O3 0.712445 0.867008 0.874607
O O4 0.857358 0.862027 0.000000
O O5 0.779037 0.739340 0.000000
O O6 0.081001 0.292088 0.367562
O O7 0.943158 0.282446 0.500000
O O8 0.023329 0.160448 0.500000
O O9 0.857238 0.630326 0.141499
#
# Coordination Sequence:
#
# PCOD9528079 Si02
#       7
#     4   4   8   8  16   8   8
#     4  12  24  42  68  98 148 178 232 274 348 426
#     4  10  24  46  72  98 124 174 224 286 352 418
#     4  10  25  41  65  94 138 170 225 283 345 399
#     4  10  21  39  68  96 127 173 226 277 331 407
#     4  11  24  41  65 102 135 183 228 282 347 409
#     4  11  20  40  63  95 127 176 233 286 312 404
#     4  10  24  45  72  96 132 169 228 289 346 412
#
# _framework density 20.663053000000001
#
# number of rings (size 3 to 8) (size 9 to 14) (size 15 to 20)
#    0.000    1.429    2.857    0.857    8.000    6.286 
#    0.000    1.429    0.000    0.000    0.000    0.000 
#    0.000    0.000    0.000    0.000    0.000    0.000 
#
# Total GULP energy -155985.060922 kJ/mol
# GULP energy per Si atom -5570.895033 kJ/mol
# Density = 2.061602 g / cm^3
# Si number density = 20.663053 Si / 1000 Ang^3
#
#
#
# Elastic Constant Matrix: (Units=GPa)
#
#
# Indices 1 2 3 4 5 6 
#
# 1 110.7048 46.9854 41.1776 0.0000 0.0000 0.0000
# 2 46.9854 93.3775 45.0480 0.0000 0.0000 0.0000
# 3 41.1776 45.0480 175.6239 0.0000 0.0000 0.0000
# 4 0.0000 0.0000 0.0000 8.1720 0.0000 0.0000
# 5 0.0000 0.0000 0.0000 0.0000 58.2835 0.0000
# 6 0.0000 0.0000 0.0000 0.0000 0.0000 40.1889
#
#
#
# Elastic Compliance Matrix: (Units=1/GPa)
#
#
# Indices 1 2 3 4 5 6 
#
# 1 0.011787 -0.005247 -0.001418 0.000000 0.000000 0.000000
# 2 -0.005247 0.014557 -0.002504 0.000000 0.000000 0.000000
# 3 -0.001418 -0.002504 0.006669 0.000000 0.000000 0.000000
# 4 0.000000 0.000000 0.000000 0.122368 0.000000 0.000000
# 5 0.000000 0.000000 0.000000 0.000000 0.017158 0.000000
# 6 0.000000 0.000000 0.000000 0.000000 0.000000 0.024882
#
#
# Mechanical properties :
#
#
# Convention : Reuss Voigt Hill
#
# Bulk Modulus (GPa) = 68.13860 71.79202 69.96531
# Shear Modulus (GPa) = 22.66021 37.76192 30.21106
#
# Velocity S-wave (km/s) = 3.31517 4.27958 3.82787
# Velocity P-wave (km/s) = 6.90662 7.69670 7.31234
#
# Compressibility (1/GPa) = 0.01467597
#
# Stress axis : x y z
#
# Youngs Moduli (GPa) = 84.83639 68.69389 149.95595
#
# Poissons Ratio (x) = 0.36045 0.21261
# Poissons Ratio (y) = 0.44515 0.37545
# Poissons Ratio (z) = 0.12028 0.17199
#
# Static dielectric constant tensor:
#      x y z
#    x 1.702620 0.000000 0.000000 
#    y 0.000000 1.828460 0.000000 
#    z 0.000000 0.000000 1.639290 
# 
# From -- ./inp_files/13566.got.cif
#   From: 2010.05.17/outbox.cif.g08.bks.cpg/sg72_7_cif.got.tgz:13566.got - 2010.06.03 17:03:01.
