data_PCOD9528024
_publ_section_title
;
Structure prediction by ZEFSAII (Michael W. Deem and Ramdas Pophale) SiO2 
 PCOD9528024
Probable space group: I B A M
;
_chemical_formula_sum "Si O2"
_cell_formula_units_Z 96
_cell_length_a 25.864728
_cell_length_b 8.759074
_cell_length_c 23.708211
_cell_angle_alpha 90.000000
_cell_angle_beta 90.000000
_cell_angle_gamma 90.000000
_cell_volume 5371.120488
_symmetry_space_group_name_H-M "I B A M"
_symmetry_group_IT_number 72
_symmetry_cell_setting 'orthorhombic'
loop_
_space_group_symop_operation_xyz
x,y,z
-x,-y,z
x,-y,1/2-z
-x,y,1/2-z
-x,-y,-z
x,y,-z
-x,y,1/2+z
x,-y,1/2+z
1/2+x,1/2+y,1/2+z
1/2-x,1/2-y,1/2+z
1/2+x,1/2-y,-z
1/2-x,1/2+y,-z
1/2-x,1/2-y,1/2-z
1/2+x,1/2+y,1/2-z
1/2-x,1/2+y,z
1/2+x,1/2-y,z
loop_
_atom_site_type_symbol
_atom_site_label
_atom_site_fract_x
_atom_site_fract_y
_atom_site_fract_z
Si Si1 0.096041 0.180453 0.366152
Si Si2 0.598350 0.684178 0.369801
Si Si3 0.308580 0.816480 0.566013
Si Si4 0.804786 0.318317 0.566049
Si Si5 0.561410 0.816967 0.748595
Si Si6 0.999531 0.319943 0.567210
O O1 0.147670 0.246107 0.394577
O O2 0.087755 0.243526 0.303250
O O3 0.047495 0.240243 0.402418
O O4 0.097010 0.998046 0.366768
O O5 0.652542 0.741605 0.394656
O O6 0.586013 0.752790 0.308483
O O7 0.553158 0.745954 0.410606
O O8 0.320968 0.784664 0.500000
O O9 0.252465 0.744811 0.577706
O O10 0.306271 0.999064 0.572870
O O11 0.816332 0.284024 0.500000
O O12 0.500000 0.780382 0.750000
O O13 0.566405 0.000000 0.750000
O O14 0.003767 0.305639 0.500000
O O15 0.000000 0.500000 0.581853
#
# Coordination Sequence:
#
# PCOD9528024 Si02
#       6
#    16  16  16  16  16  16
#     4  12  24  38  60  89 121 155 198 247 299 356
#     4  12  24  38  60  89 121 155 198 247 299 356
#     4  10  21  39  63  90 122 160 201 245 296 354
#     4  10  21  39  63  90 122 160 201 245 296 354
#     4  11  23  41  64  85 115 160 204 245 297 357
#     4  11  23  38  57  84 119 157 197 243 296 353
#
# _framework density 17.873366000000001
#
# number of rings (size 3 to 8) (size 9 to 14) (size 15 to 20)
#    0.000    1.000    1.667    6.000    0.000    8.000 
#    0.000    0.833    0.000    0.000    0.000    0.000 
#    0.000    0.000    0.000    0.000    0.000    0.000 
#
# Total GULP energy -268537.088108 kJ/mol
# GULP energy per Si atom -5594.522669 kJ/mol
# Density = 1.783269 g / cm^3
# Si number density = 17.873366 Si / 1000 Ang^3
#
#
#
# Elastic Constant Matrix: (Units=GPa)
#
#
# Indices 1 2 3 4 5 6 
#
# 1 59.8412 7.1427 13.6037 0.0000 0.0000 0.0000
# 2 7.1427 75.2815 14.1086 0.0000 0.0000 0.0000
# 3 13.6037 14.1086 42.9532 0.0000 0.0000 0.0000
# 4 0.0000 0.0000 0.0000 -29.8209 0.0000 0.0000
# 5 0.0000 0.0000 0.0000 0.0000 -51.6693 0.0000
# 6 0.0000 0.0000 0.0000 0.0000 0.0000 35.6955
#
#
#
# Elastic Compliance Matrix: (Units=1/GPa)
#
#
# Indices 1 2 3 4 5 6 
#
# 1 0.018040 -0.000683 -0.005489 0.000000 0.000000 0.000000
# 2 -0.000683 0.014181 -0.004442 0.000000 0.000000 0.000000
# 3 -0.005489 -0.004442 0.026479 0.000000 0.000000 0.000000
# 4 0.000000 0.000000 0.000000 -0.033534 0.000000 0.000000
# 5 0.000000 0.000000 0.000000 0.000000 -0.019354 0.000000
# 6 0.000000 0.000000 0.000000 0.000000 0.000000 0.028015
#
#
# Mechanical properties :
#
#
# Convention : Reuss Voigt Hill
#
# Bulk Modulus (GPa) = 26.68653 27.53178 27.10916
# Shear Modulus (GPa) = 74.02467 0.38910 37.20688
#
# Velocity S-wave (km/s) = 6.44252 0.46709 4.56751
# Velocity P-wave (km/s) = 8.38479 3.96587 6.55869
#
# Compressibility (1/GPa) = 0.03747208
#
# Stress axis : x y z
#
# Youngs Moduli (GPa) = 55.43150 70.51856 37.76639
#
# Poissons Ratio (x) = 0.04816 0.20731
# Poissons Ratio (y) = 0.03786 0.16774
# Poissons Ratio (z) = 0.30428 0.31321
#
# Static dielectric constant tensor:
#      x y z
#    x 1.576850 0.000000 0.000000 
#    y 0.000000 1.542200 0.000000 
#    z 0.000000 0.000000 1.588230 
# 
# From -- ./inp_files/42445.got.cif
#   From: 2010.05.17/outbox.cif.g08.bks.cpg/sg72_22_cif.got.tgz:42445.got - 2010.06.03 17:03:01.
