data_PCOD9528810
_publ_section_title
;
Structure prediction by ZEFSAII (Michael W. Deem and Ramdas Pophale) SiO2 
 PCOD9528810
Probable space group: I B A M
;
_chemical_formula_sum "Si O2"
_cell_formula_units_Z 68
_cell_length_a 21.169062
_cell_length_b 9.909174
_cell_length_c 14.557465
_cell_angle_alpha 90.000000
_cell_angle_beta 90.000000
_cell_angle_gamma 90.000000
_cell_volume 3053.689136
_symmetry_space_group_name_H-M "I B A M"
_symmetry_group_IT_number 72
_symmetry_cell_setting 'orthorhombic'
loop_
_space_group_symop_operation_xyz
x,y,z
-x,-y,z
x,-y,1/2-z
-x,y,1/2-z
-x,-y,-z
x,y,-z
-x,y,1/2+z
x,-y,1/2+z
1/2+x,1/2+y,1/2+z
1/2-x,1/2-y,1/2+z
1/2+x,1/2-y,-z
1/2-x,1/2+y,-z
1/2-x,1/2-y,1/2-z
1/2+x,1/2+y,1/2-z
1/2-x,1/2+y,z
1/2+x,1/2-y,z
loop_
_atom_site_type_symbol
_atom_site_label
_atom_site_fract_x
_atom_site_fract_y
_atom_site_fract_z
Si Si1 0.767927 0.451442 0.611260
Si Si2 0.115638 0.637667 0.898931
Si Si3 0.500000 0.000000 0.000000
Si Si4 0.573013 0.662025 0.252865
Si Si5 0.177150 0.822433 0.389677
O O1 0.766314 0.450027 0.500000
O O2 0.831053 0.534758 0.635813
O O3 0.776204 0.297937 0.640207
O O4 0.707768 0.536967 0.641263
O O5 0.105610 0.761473 0.831316
O O6 0.137824 0.688684 0.000000
O O7 0.050582 0.558283 0.921492
O O8 0.575605 0.500000 0.250000
O O9 0.500000 0.701571 0.250000
O O10 0.609588 0.702814 0.344991
O O11 0.171739 0.820776 0.500000
#
# Coordination Sequence:
#
# PCOD9528810 Si02
#       5
#    16  16   4  16  16
#     4   9  20  40  66 102 132 172 229 285 344 415
#     4   9  21  41  69  97 132 173 235 293 343 408
#     4   8  20  40  74  94 130 180 236 304 348 386
#     4  11  27  44  61  98 141 181 232 283 349 428
#     4  10  23  43  71  99 138 180 229 285 355 418
#
# _framework density 22.268148
#
# number of rings (size 3 to 8) (size 9 to 14) (size 15 to 20)
#    0.706    1.647    0.000    0.000    6.588    3.765 
#    0.000    2.353    0.000    0.000    0.000    0.000 
#    0.000    0.000    0.000    0.000    0.000    0.000 
#
# Total GULP energy -189431.089253 kJ/mol
# GULP energy per Si atom -5571.502625 kJ/mol
# Density = 2.221746 g / cm^3
# Si number density = 22.268148 Si / 1000 Ang^3
#
#
#
# Elastic Constant Matrix: (Units=GPa)
#
#
# Indices 1 2 3 4 5 6 
#
# 1 111.8164 30.1140 28.0109 0.0000 0.0000 0.0000
# 2 30.1140 67.7599 31.2892 0.0000 0.0000 0.0000
# 3 28.0109 31.2892 81.2437 0.0000 0.0000 0.0000
# 4 0.0000 0.0000 0.0000 31.6817 0.0000 0.0000
# 5 0.0000 0.0000 0.0000 0.0000 22.4016 0.0000
# 6 0.0000 0.0000 0.0000 0.0000 0.0000 9.5467
#
#
#
# Elastic Compliance Matrix: (Units=1/GPa)
#
#
# Indices 1 2 3 4 5 6 
#
# 1 0.010476 -0.003634 -0.002212 0.000000 0.000000 0.000000
# 2 -0.003634 0.019211 -0.006146 0.000000 0.000000 0.000000
# 3 -0.002212 -0.006146 0.015438 0.000000 0.000000 0.000000
# 4 0.000000 0.000000 0.000000 0.031564 0.000000 0.000000
# 5 0.000000 0.000000 0.000000 0.000000 0.044640 0.000000
# 6 0.000000 0.000000 0.000000 0.000000 0.000000 0.104748
#
#
# Mechanical properties :
#
#
# Convention : Reuss Voigt Hill
#
# Bulk Modulus (GPa) = 47.30153 48.84981 48.07567
# Shear Modulus (GPa) = 19.44701 24.15305 21.80003
#
# Velocity S-wave (km/s) = 2.95839 3.29697 3.13226
# Velocity P-wave (km/s) = 5.74085 6.03971 5.89217
#
# Compressibility (1/GPa) = 0.02114097
#
# Stress axis : x y z
#
# Youngs Moduli (GPa) = 95.45442 52.05338 64.77416
#
# Poissons Ratio (x) = 0.18918 0.14330
# Poissons Ratio (y) = 0.34691 0.39808
# Poissons Ratio (z) = 0.21117 0.31990
#
# Static dielectric constant tensor:
#      x y z
#    x 1.811770 0.000000 0.000000 
#    y 0.000000 1.826530 0.000000 
#    z 0.000000 0.000000 1.825390 
# 
# From -- ./inp_files/32311.got.cif
#   From: 2010.05.17/outbox.cif.g08.bks.cpg/sg72_17_cif.got.tgz:32311.got - 2010.06.03 17:03:01.
