data_PCOD9528166
_publ_section_title
;
Structure prediction by ZEFSAII (Michael W. Deem and Ramdas Pophale) SiO2 
 PCOD9528166
Probable space group: I B A M
;
_chemical_formula_sum "Si O2"
_cell_formula_units_Z 68
_cell_length_a 7.158463
_cell_length_b 22.928935
_cell_length_c 15.688387
_cell_angle_alpha 90.000000
_cell_angle_beta 90.000000
_cell_angle_gamma 90.000000
_cell_volume 2575.028035
_symmetry_space_group_name_H-M "I B A M"
_symmetry_group_IT_number 72
_symmetry_cell_setting 'orthorhombic'
loop_
_space_group_symop_operation_xyz
x,y,z
-x,-y,z
x,-y,1/2-z
-x,y,1/2-z
-x,-y,-z
x,y,-z
-x,y,1/2+z
x,-y,1/2+z
1/2+x,1/2+y,1/2+z
1/2-x,1/2-y,1/2+z
1/2+x,1/2-y,-z
1/2-x,1/2+y,-z
1/2-x,1/2-y,1/2-z
1/2+x,1/2+y,1/2-z
1/2-x,1/2+y,z
1/2+x,1/2-y,z
loop_
_atom_site_type_symbol
_atom_site_label
_atom_site_fract_x
_atom_site_fract_y
_atom_site_fract_z
Si Si1 0.605566 0.941533 0.900786
Si Si2 0.529815 0.697295 0.405226
Si Si3 0.500000 0.500000 0.750000
Si Si4 0.091505 0.315645 0.662534
Si Si5 0.560760 0.574123 0.902393
O O1 0.536972 0.881306 0.860174
O O2 0.833706 0.936674 0.898428
O O3 0.500000 0.000000 0.868976
O O4 0.557484 0.938104 0.000000
O O5 0.612897 0.687274 0.500000
O O6 0.685406 0.686850 0.334715
O O7 0.457280 0.762418 0.400181
O O8 0.392076 0.642560 0.395807
O O9 0.616392 0.541295 0.815199
O O10 0.000000 0.299266 0.750000
O O11 0.617217 0.555800 0.000000
#
# Coordination Sequence:
#
# PCOD9528166 Si02
#       5
#    16  16   4  16  16
#     4   9  19  39  62  84 115 153 193 239 295 353
#     4  10  21  41  61  82 118 158 194 240 297 355
#     4  12  22  36  62  82 116 160 200 234 288 366
#     4  11  22  36  60  90 120 150 194 249 298 348
#     4   9  21  39  59  85 119 155 192 244 297 347
#
# _framework density 26.407482000000002
#
# number of rings (size 3 to 8) (size 9 to 14) (size 15 to 20)
#    0.000    2.118    0.000    4.588    1.647    4.235 
#    4.235    0.000    0.000    0.000    0.000    0.000 
#    0.000    0.000    0.000    0.000    0.000    0.000 
#
# Total GULP energy -189923.370173 kJ/mol
# GULP energy per Si atom -5585.981476 kJ/mol
# Density = 2.634738 g / cm^3
# Si number density = 26.407482 Si / 1000 Ang^3
#
#
#
# Elastic Constant Matrix: (Units=GPa)
#
#
# Indices 1 2 3 4 5 6 
#
# 1 87.7460 5.5717 10.2746 0.0000 0.0000 0.0000
# 2 5.5717 235.1035 53.6396 0.0000 0.0000 0.0000
# 3 10.2746 53.6396 133.8171 0.0000 0.0001 0.0000
# 4 0.0000 0.0000 0.0000 26.0829 0.0000 0.0000
# 5 0.0000 0.0000 0.0001 0.0000 -9.3858 0.0000
# 6 0.0000 0.0000 0.0000 0.0000 0.0000 20.9957
#
#
#
# Elastic Compliance Matrix: (Units=1/GPa)
#
#
# Indices 1 2 3 4 5 6 
#
# 1 0.011501 -0.000078 -0.000852 0.000000 0.000000 0.000000
# 2 -0.000078 0.004682 -0.001871 0.000000 0.000000 0.000000
# 3 -0.000852 -0.001871 0.008288 0.000000 0.000000 0.000000
# 4 0.000000 0.000000 0.000000 0.038339 0.000000 0.000000
# 5 0.000000 0.000000 0.000000 0.000000 -0.106544 0.000000
# 6 0.000000 0.000000 0.000000 0.000000 0.000000 0.047629
#
#
# Mechanical properties :
#
#
# Convention : Reuss Voigt Hill
#
# Bulk Modulus (GPa) = 52.99408 66.18206 59.58807
# Shear Modulus (GPa) = 316.70827 33.35060 175.02944
#
# Velocity S-wave (km/s) = 10.96319 3.55762 8.15010
# Velocity P-wave (km/s) = 13.43007 6.48011 10.54416
#
# Compressibility (1/GPa) = 0.01887003
#
# Stress axis : x y z
#
# Youngs Moduli (GPa) = 86.94724 213.57815 120.65387
#
# Poissons Ratio (x) = 0.01671 0.10276
# Poissons Ratio (y) = 0.00680 0.22572
# Poissons Ratio (z) = 0.07405 0.39956
#
# Static dielectric constant tensor:
#      x y z
#    x 2.142930 0.000000 0.000000 
#    y 0.000000 2.162600 0.000000 
#    z 0.000000 0.000000 2.019470 
# 
# From -- ./inp_files/19919.got.cif
#   From: 2010.05.17/outbox.cif.g08.bks.cpg/sg72_10_cif.got.tgz:19919.got - 2010.06.03 17:03:01.
