data_PCOD9528425
_publ_section_title
;
Structure prediction by ZEFSAII (Michael W. Deem and Ramdas Pophale) SiO2 
 PCOD9528425
Probable space group: I B A M
;
_chemical_formula_sum "Si O2"
_cell_formula_units_Z 88
_cell_length_a 21.493057
_cell_length_b 9.268230
_cell_length_c 18.557872
_cell_angle_alpha 90.000000
_cell_angle_beta 90.000000
_cell_angle_gamma 90.000000
_cell_volume 3696.776273
_symmetry_space_group_name_H-M "I B A M"
_symmetry_group_IT_number 72
_symmetry_cell_setting 'orthorhombic'
loop_
_space_group_symop_operation_xyz
x,y,z
-x,-y,z
x,-y,1/2-z
-x,y,1/2-z
-x,-y,-z
x,y,-z
-x,y,1/2+z
x,-y,1/2+z
1/2+x,1/2+y,1/2+z
1/2-x,1/2-y,1/2+z
1/2+x,1/2-y,-z
1/2-x,1/2+y,-z
1/2-x,1/2-y,1/2-z
1/2+x,1/2+y,1/2-z
1/2-x,1/2+y,z
1/2+x,1/2-y,z
loop_
_atom_site_type_symbol
_atom_site_label
_atom_site_fract_x
_atom_site_fract_y
_atom_site_fract_z
Si Si1 0.535041 0.845069 0.584669
Si Si2 0.250399 0.046058 0.344704
Si Si3 0.126640 0.000000 0.250000
Si Si4 0.811743 0.715379 0.579262
Si Si5 0.127783 0.646463 0.289362
Si Si6 0.571831 0.325888 0.659487
O O1 0.541813 0.802186 0.500000
O O2 0.598426 0.852407 0.631116
O O3 0.490996 0.745749 0.634709
O O4 0.500000 0.000000 0.584614
O O5 0.184831 0.002887 0.311226
O O6 0.233847 0.149912 0.410893
O O7 0.297974 0.136769 0.294870
O O8 0.289627 0.907909 0.367295
O O9 0.074233 0.010563 0.317764
O O10 0.811659 0.655505 0.500000
O O11 0.879730 0.771001 0.600279
O O12 0.104415 0.500000 0.250000
O O13 0.106775 0.778272 0.237054
#
# Coordination Sequence:
#
# PCOD9528425 Si02
#       6
#    16  16   8  16  16  16
#     4  11  23  38  60  92 130 166 209 267 334 398
#     4  11  21  38  60  91 129 166 219 269 337 404
#     4  10  22  40  63  92 121 172 220 278 328 402
#     4  11  22  36  58  90 130 173 212 266 335 404
#     4  12  21  37  63  93 123 164 210 279 331 391
#     4  11  22  39  64  90 127 165 225 272 331 397
#
# _framework density 23.804525000000002
#
# number of rings (size 3 to 8) (size 9 to 14) (size 15 to 20)
#    0.000    0.909    4.545    2.727    0.000    5.818 
#    0.000    1.818    0.000    3.273    0.000    0.000 
#    0.000    0.000    0.000    0.000    0.000    0.000 
#
# Total GULP energy -245101.713898 kJ/mol
# GULP energy per Si atom -5570.493498 kJ/mol
# Density = 2.375035 g / cm^3
# Si number density = 23.804525 Si / 1000 Ang^3
#
#
#
# Elastic Constant Matrix: (Units=GPa)
#
#
# Indices 1 2 3 4 5 6 
#
# 1 109.5764 18.5085 41.1198 0.0000 0.0000 0.0000
# 2 18.5085 57.7712 16.6421 0.0000 0.0000 0.0000
# 3 41.1198 16.6421 137.8002 0.0000 0.0000 0.0000
# 4 0.0000 0.0000 0.0000 27.9476 0.0000 0.0000
# 5 0.0000 0.0000 0.0000 0.0000 22.3911 0.0000
# 6 0.0000 0.0000 0.0000 0.0000 0.0000 26.5134
#
#
#
# Elastic Compliance Matrix: (Units=1/GPa)
#
#
# Indices 1 2 3 4 5 6 
#
# 1 0.010636 -0.002583 -0.002862 0.000000 0.000000 0.000000
# 2 -0.002583 0.018561 -0.001471 0.000000 0.000000 0.000000
# 3 -0.002862 -0.001471 0.008289 0.000000 0.000000 0.000000
# 4 0.000000 0.000000 0.000000 0.035781 0.000000 0.000000
# 5 0.000000 0.000000 0.000000 0.000000 0.044661 0.000000
# 6 0.000000 0.000000 0.000000 0.000000 0.000000 0.037717
#
#
# Mechanical properties :
#
#
# Convention : Reuss Voigt Hill
#
# Bulk Modulus (GPa) = 42.27616 50.85432 46.56524
# Shear Modulus (GPa) = 28.19111 30.62892 29.41001
#
# Velocity S-wave (km/s) = 3.44506 3.59093 3.51875
# Velocity P-wave (km/s) = 5.79852 6.21311 6.00939
#
# Compressibility (1/GPa) = 0.02365399
#
# Stress axis : x y z
#
# Youngs Moduli (GPa) = 94.01718 53.87660 120.64889
#
# Poissons Ratio (x) = 0.13917 0.34529
# Poissons Ratio (y) = 0.24286 0.17745
# Poissons Ratio (z) = 0.26907 0.07924
#
# Static dielectric constant tensor:
#      x y z
#    x 1.937250 0.000000 0.000000 
#    y 0.000000 1.409550 0.000000 
#    z 0.000000 0.000000 1.854670 
# 
# From -- ./inp_files/32475.got.cif
#   From: 2010.05.17/outbox.cif.g08.bks.cpg/sg72_17_cif.got.tgz:32475.got - 2010.06.03 17:03:01.
