data_PCOD9528674
_publ_section_title
;
Structure prediction by ZEFSAII (Michael W. Deem and Ramdas Pophale) SiO2 
 PCOD9528674
Probable space group: I B A M
;
_chemical_formula_sum "Si O2"
_cell_formula_units_Z 64
_cell_length_a 8.488884
_cell_length_b 13.948636
_cell_length_c 22.523859
_cell_angle_alpha 90.000000
_cell_angle_beta 90.000000
_cell_angle_gamma 90.000000
_cell_volume 2667.013047
_symmetry_space_group_name_H-M "I B A M"
_symmetry_group_IT_number 72
_symmetry_cell_setting 'orthorhombic'
loop_
_space_group_symop_operation_xyz
x,y,z
-x,-y,z
x,-y,1/2-z
-x,y,1/2-z
-x,-y,-z
x,y,-z
-x,y,1/2+z
x,-y,1/2+z
1/2+x,1/2+y,1/2+z
1/2-x,1/2-y,1/2+z
1/2+x,1/2-y,-z
1/2-x,1/2+y,-z
1/2-x,1/2-y,1/2-z
1/2+x,1/2+y,1/2-z
1/2-x,1/2+y,z
1/2+x,1/2-y,z
loop_
_atom_site_type_symbol
_atom_site_label
_atom_site_fract_x
_atom_site_fract_y
_atom_site_fract_z
Si Si1 0.755794 0.000000 0.750000
Si Si2 0.000000 0.829974 0.750000
Si Si3 0.156777 0.451913 0.879698
Si Si4 0.678914 0.618099 0.429902
Si Si5 0.525968 0.232677 0.375009
O O1 0.665695 0.024068 0.809950
O O2 0.859359 0.095107 0.736799
O O3 0.038043 0.764519 0.806545
O O4 0.300925 0.508147 0.909137
O O5 0.121782 0.340075 0.884114
O O6 0.000000 0.500000 0.906600
O O7 0.698119 0.624374 0.500000
O O8 0.520284 0.671700 0.410282
O O9 0.822052 0.675312 0.397500
#
# Coordination Sequence:
#
# PCOD9528674 Si02
#       5
#     8   8  16  16  16
#     4  11  21  40  60  94 135 165 208 264 330 385
#     4  11  24  38  67  94 138 164 211 268 329 392
#     4  10  23  38  63  94 128 167 216 268 322 376
#     4  11  24  44  66  94 132 175 221 267 319 385
#     4  11  24  42  66  98 129 175 217 268 327 382
#
# _framework density 23.996881999999999
#
# number of rings (size 3 to 8) (size 9 to 14) (size 15 to 20)
#    0.000    1.250    2.500    2.625    7.000    7.500 
#    0.000    0.000    0.000    4.500    0.000    0.000 
#    0.000    0.000    0.000    0.000    0.000    0.000 
#
# Total GULP energy -179030.339832 kJ/mol
# GULP energy per Si atom -5594.698120 kJ/mol
# Density = 2.394226 g / cm^3
# Si number density = 23.996882 Si / 1000 Ang^3
#
#
#
# Elastic Constant Matrix: (Units=GPa)
#
#
# Indices 1 2 3 4 5 6 
#
# 1 51.3281 36.8148 -2.7086 0.0000 0.0000 0.0000
# 2 36.8148 155.2211 28.4405 0.0000 0.0000 0.0000
# 3 -2.7086 28.4405 123.4209 0.0000 0.0000 0.0000
# 4 0.0000 0.0000 0.0000 20.6001 0.0000 0.0000
# 5 0.0000 0.0000 0.0000 0.0000 -2.9318 0.0000
# 6 0.0000 0.0000 0.0000 0.0000 0.0000 22.4223
#
#
#
# Elastic Compliance Matrix: (Units=1/GPa)
#
#
# Indices 1 2 3 4 5 6 
#
# 1 0.023900 -0.006019 0.001911 0.000000 0.000000 0.000000
# 2 -0.006019 0.008242 -0.002031 0.000000 0.000000 0.000000
# 3 0.001911 -0.002031 0.008612 0.000000 0.000000 0.000000
# 4 0.000000 0.000000 0.000000 0.048543 0.000000 0.000000
# 5 0.000000 0.000000 0.000000 0.000000 -0.341092 0.000000
# 6 0.000000 0.000000 0.000000 0.000000 0.000000 0.044598
#
#
# Mechanical properties :
#
#
# Convention : Reuss Voigt Hill
#
# Bulk Modulus (GPa) = 35.11554 50.56262 42.83908
# Shear Modulus (GPa) = -26.96497 25.84636 -0.55930
#
# Velocity S-wave (km/s) = -3.35578 3.28544 -0.48330
# Velocity P-wave (km/s) = 0.59150 5.95889 4.19276
#
# Compressibility (1/GPa) = 0.02847742
#
# Stress axis : x y z
#
# Youngs Moduli (GPa) = 41.84044 121.32759 116.11162
#
# Poissons Ratio (x) = 0.73025 -0.22194
# Poissons Ratio (y) = 0.25183 0.23587
# Poissons Ratio (z) = -0.07998 0.24646
#
# Static dielectric constant tensor:
#      x y z
#    x 1.973760 0.000000 0.000000 
#    y 0.000000 1.830070 0.000000 
#    z 0.000000 0.000000 1.824950 
# 
# From -- ./inp_files/41973.got.cif
#   From: 2010.05.17/outbox.cif.g08.bks.cpg/sg72_21_cif.got.tgz:41973.got - 2010.06.03 17:03:01.
