data_PCOD9528395
_publ_section_title
;
Structure prediction by ZEFSAII (Michael W. Deem and Ramdas Pophale) SiO2 
 PCOD9528395
Probable space group: I B A M
;
_chemical_formula_sum "Si O2"
_cell_formula_units_Z 60
_cell_length_a 17.426419
_cell_length_b 13.400398
_cell_length_c 14.410397
_cell_angle_alpha 90.000000
_cell_angle_beta 90.000000
_cell_angle_gamma 90.000000
_cell_volume 3365.129602
_symmetry_space_group_name_H-M "I B A M"
_symmetry_group_IT_number 72
_symmetry_cell_setting 'orthorhombic'
loop_
_space_group_symop_operation_xyz
x,y,z
-x,-y,z
x,-y,1/2-z
-x,y,1/2-z
-x,-y,-z
x,y,-z
-x,y,1/2+z
x,-y,1/2+z
1/2+x,1/2+y,1/2+z
1/2-x,1/2-y,1/2+z
1/2+x,1/2-y,-z
1/2-x,1/2+y,-z
1/2-x,1/2-y,1/2-z
1/2+x,1/2+y,1/2-z
1/2-x,1/2+y,z
1/2+x,1/2-y,z
loop_
_atom_site_type_symbol
_atom_site_label
_atom_site_fract_x
_atom_site_fract_y
_atom_site_fract_z
Si Si1 0.655350 0.635674 0.500000
Si Si2 0.759876 0.745538 0.640285
Si Si3 0.081333 0.364608 0.601888
Si Si4 0.316041 0.405629 0.000000
Si Si5 0.517372 0.690256 0.000000
Si Si6 0.500000 0.000000 0.750000
O O1 0.687965 0.695352 0.588715
O O2 0.688981 0.524108 0.500000
O O3 0.563370 0.636366 0.500000
O O4 0.750000 0.750000 0.750000
O O5 0.833779 0.677192 0.617912
O O6 0.778094 0.850746 0.589128
O O7 0.079836 0.415768 0.500000
O O8 0.027558 0.266965 0.586449
O O9 0.051965 0.432675 0.683400
O O10 0.406629 0.377328 0.000000
#
# Coordination Sequence:
#
# PCOD9528395 Si02
#       6
#     8  16  16   8   8   4
#     4  11  20  37  64  87 106 163 196 230 310 355
#     4  10  22  40  58  85 123 154 191 247 299 349
#     4   9  21  41  53  87 125 148 198 257 283 346
#     4   9  20  41  58  86 120 144 197 254 283 345
#     4   8  19  39  58  78 121 148 187 251 291 334
#     4  12  22  32  68  86 106 176 204 224 308 370
#
# _framework density 17.829922
#
# number of rings (size 3 to 8) (size 9 to 14) (size 15 to 20)
#    0.800    1.600    2.667    0.800    3.733    3.200 
#    4.800    0.000    0.000    3.200    0.000    0.000 
#    0.000    0.000    0.000    0.000    0.000    0.000 
#
# Total GULP energy -167120.703575 kJ/mol
# GULP energy per Si atom -5570.690119 kJ/mol
# Density = 1.778934 g / cm^3
# Si number density = 17.829922 Si / 1000 Ang^3
#
#
#
# Elastic Constant Matrix: (Units=GPa)
#
#
# Indices 1 2 3 4 5 6 
#
# 1 61.7499 24.1150 26.3853 0.0000 0.0000 0.0000
# 2 24.1150 71.6098 34.4259 0.0000 0.0000 0.0000
# 3 26.3853 34.4259 149.5384 0.0000 0.0000 0.0000
# 4 0.0000 0.0000 0.0000 -12.7569 0.0000 0.0000
# 5 0.0000 0.0000 0.0000 0.0000 21.4053 0.0000
# 6 0.0000 0.0000 0.0000 0.0000 0.0000 12.8330
#
#
#
# Elastic Compliance Matrix: (Units=1/GPa)
#
#
# Indices 1 2 3 4 5 6 
#
# 1 0.019237 -0.005449 -0.002140 0.000000 0.000000 0.000000
# 2 -0.005449 0.017246 -0.003009 0.000000 0.000000 0.000000
# 3 -0.002140 -0.003009 0.007757 0.000000 0.000000 0.000000
# 4 0.000000 0.000000 0.000000 -0.078389 0.000000 0.000000
# 5 0.000000 0.000000 0.000000 0.000000 0.046717 0.000000
# 6 0.000000 0.000000 0.000000 0.000000 0.000000 0.077924
#
#
# Mechanical properties :
#
#
# Convention : Reuss Voigt Hill
#
# Bulk Modulus (GPa) = 43.39422 50.30560 46.84991
# Shear Modulus (GPa) = 41.88649 17.49440 29.69045
#
# Velocity S-wave (km/s) = 4.85214 3.13578 4.08512
# Velocity P-wave (km/s) = 7.46871 6.43321 6.97022
#
# Compressibility (1/GPa) = 0.02304454
#
# Stress axis : x y z
#
# Youngs Moduli (GPa) = 51.98370 57.98393 128.90827
#
# Poissons Ratio (x) = 0.31598 0.27582
# Poissons Ratio (y) = 0.28328 0.38786
# Poissons Ratio (z) = 0.11123 0.17446
#
# Static dielectric constant tensor:
#      x y z
#    x 1.601050 0.000000 0.000000 
#    y 0.000000 1.608630 0.000000 
#    z 0.000000 0.000000 1.578500 
# 
# From -- ./inp_files/21275.got.cif
#   From: 2010.05.17/outbox.cif.g08.bks.cpg/sg72_11_cif.got.tgz:21275.got - 2010.06.03 17:03:01.
