data_PCOD9528440
_publ_section_title
;
Structure prediction by ZEFSAII (Michael W. Deem and Ramdas Pophale) SiO2 
 PCOD9528440
Probable space group: I B A M
;
_chemical_formula_sum "Si O2"
_cell_formula_units_Z 88
_cell_length_a 18.496962
_cell_length_b 9.384737
_cell_length_c 23.425085
_cell_angle_alpha 90.000000
_cell_angle_beta 90.000000
_cell_angle_gamma 90.000000
_cell_volume 4066.339977
_symmetry_space_group_name_H-M "I B A M"
_symmetry_group_IT_number 72
_symmetry_cell_setting 'orthorhombic'
loop_
_space_group_symop_operation_xyz
x,y,z
-x,-y,z
x,-y,1/2-z
-x,y,1/2-z
-x,-y,-z
x,y,-z
-x,y,1/2+z
x,-y,1/2+z
1/2+x,1/2+y,1/2+z
1/2-x,1/2-y,1/2+z
1/2+x,1/2-y,-z
1/2-x,1/2+y,-z
1/2-x,1/2-y,1/2-z
1/2+x,1/2+y,1/2-z
1/2-x,1/2+y,z
1/2+x,1/2-y,z
loop_
_atom_site_type_symbol
_atom_site_label
_atom_site_fract_x
_atom_site_fract_y
_atom_site_fract_z
Si Si1 0.685367 0.679578 0.500000
Si Si2 0.886709 0.433134 0.811292
Si Si3 0.323175 0.175335 0.617977
Si Si4 0.842825 0.836079 0.623016
Si Si5 0.338479 0.663534 0.500000
Si Si6 0.000000 0.741551 0.250000
Si Si7 0.132516 0.915647 0.301567
O O1 0.655628 0.751027 0.558157
O O2 0.678308 0.507927 0.500000
O O3 0.768755 0.732064 0.500000
O O4 0.863474 0.500000 0.750000
O O5 0.876595 0.554659 0.858551
O O6 0.842723 0.299488 0.835875
O O7 0.963596 0.360144 0.797149
O O8 0.240960 0.117276 0.613515
O O9 0.322735 0.296711 0.666179
O O10 0.874892 0.804905 0.560662
O O11 0.885478 0.962739 0.652935
O O12 0.937387 0.838615 0.224047
O O13 0.170798 0.000000 0.250000
#
# Coordination Sequence:
#
# PCOD9528440 Si02
#       7
#     8  16  16  16   8   8  16
#     4  10  22  40  64  93 137 171 210 246 325 392
#     4  12  25  42  64  93 128 176 212 271 313 390
#     4  11  24  40  65  98 134 167 204 264 326 384
#     4  11  24  40  66 100 134 165 211 260 328 386
#     4  10  22  40  64  97 134 176 203 256 312 403
#     4  12  26  46  62  90 124 178 228 256 332 378
#     4  12  23  41  66  93 126 179 211 269 314 388
#
# _framework density 21.641082999999998
#
# number of rings (size 3 to 8) (size 9 to 14) (size 15 to 20)
#    0.000    0.727    5.455    1.636    7.636    4.364 
#    0.000    0.000    0.000    6.545    0.000    0.000 
#    0.000    0.000    0.000    0.000    0.000    0.000 
#
# Total GULP energy -245658.826956 kJ/mol
# GULP energy per Si atom -5583.155158 kJ/mol
# Density = 2.159183 g / cm^3
# Si number density = 21.641083 Si / 1000 Ang^3
#
#
#
# Elastic Constant Matrix: (Units=GPa)
#
#
# Indices 1 2 3 4 5 6 
#
# 1 43.5294 22.5232 24.9910 0.0000 0.0000 0.0000
# 2 22.5232 119.4446 28.3386 0.0000 0.0000 0.0000
# 3 24.9910 28.3386 106.7411 0.0000 0.0000 0.0000
# 4 0.0000 0.0000 0.0000 44.0600 0.0000 0.0000
# 5 0.0000 0.0000 0.0000 0.0000 34.7056 0.0000
# 6 0.0000 0.0000 0.0000 0.0000 0.0000 37.1647
#
#
#
# Elastic Compliance Matrix: (Units=1/GPa)
#
#
# Indices 1 2 3 4 5 6 
#
# 1 0.028230 -0.004008 -0.005546 0.000000 0.000000 0.000000
# 2 -0.004008 0.009504 -0.001585 0.000000 0.000000 0.000000
# 3 -0.005546 -0.001585 0.011088 0.000000 0.000000 0.000000
# 4 0.000000 0.000000 0.000000 0.022696 0.000000 0.000000
# 5 0.000000 0.000000 0.000000 0.000000 0.028814 0.000000
# 6 0.000000 0.000000 0.000000 0.000000 0.000000 0.026907
#
#
# Mechanical properties :
#
#
# Convention : Reuss Voigt Hill
#
# Bulk Modulus (GPa) = 37.67076 46.82451 42.24764
# Shear Modulus (GPa) = 31.57289 36.11021 33.84155
#
# Velocity S-wave (km/s) = 3.82374 4.08928 3.95874
# Velocity P-wave (km/s) = 6.07779 6.63175 6.36080
#
# Compressibility (1/GPa) = 0.02654579
#
# Stress axis : x y z
#
# Youngs Moduli (GPa) = 35.42284 105.22115 90.19092
#
# Poissons Ratio (x) = 0.42168 0.50016
# Poissons Ratio (y) = 0.14196 0.14294
# Poissons Ratio (z) = 0.19644 0.16676
#
# Static dielectric constant tensor:
#      x y z
#    x 1.766240 0.000000 0.000000 
#    y 0.000000 1.809650 0.000000 
#    z 0.000000 0.000000 1.836830 
# 
# From -- ./inp_files/45299.got.cif
#   From: 2010.05.17/outbox.cif.g08.bks.cpg/sg72_23_cif.got.tgz:45299.got - 2010.06.03 17:03:01.
