data_PCOD9528741
_publ_section_title
;
Structure prediction by ZEFSAII (Michael W. Deem and Ramdas Pophale) SiO2 
 PCOD9528741
Probable space group: I B A M
;
_chemical_formula_sum "Si O2"
_cell_formula_units_Z 72
_cell_length_a 12.485644
_cell_length_b 10.305767
_cell_length_c 26.477823
_cell_angle_alpha 90.000000
_cell_angle_beta 90.000000
_cell_angle_gamma 90.000000
_cell_volume 3407.011048
_symmetry_space_group_name_H-M "I B A M"
_symmetry_group_IT_number 72
_symmetry_cell_setting 'orthorhombic'
loop_
_space_group_symop_operation_xyz
x,y,z
-x,-y,z
x,-y,1/2-z
-x,y,1/2-z
-x,-y,-z
x,y,-z
-x,y,1/2+z
x,-y,1/2+z
1/2+x,1/2+y,1/2+z
1/2-x,1/2-y,1/2+z
1/2+x,1/2-y,-z
1/2-x,1/2+y,-z
1/2-x,1/2-y,1/2-z
1/2+x,1/2+y,1/2-z
1/2-x,1/2+y,z
1/2+x,1/2-y,z
loop_
_atom_site_type_symbol
_atom_site_label
_atom_site_fract_x
_atom_site_fract_y
_atom_site_fract_z
Si Si1 0.683111 0.323127 0.372805
Si Si2 0.875972 0.254461 0.556945
Si Si3 0.501295 0.150832 0.345712
Si Si4 0.000000 0.000000 0.919679
Si Si5 0.682682 0.861735 0.721568
O O1 0.757694 0.270858 0.418465
O O2 0.620133 0.205358 0.346804
O O3 0.588440 0.418582 0.389371
O O4 0.755171 0.390845 0.330839
O O5 0.877879 0.308467 0.500000
O O6 0.950552 0.321665 0.599131
O O7 0.925707 0.109288 0.554163
O O8 0.427000 0.202130 0.300270
O O9 0.500000 0.000000 0.337495
O O10 0.750000 0.750000 0.750000
O O11 0.669616 0.000000 0.750000
#
# Coordination Sequence:
#
# PCOD9528741 Si02
#       5
#    16  16  16   8  16
#     4  10  24  41  67  94 135 170 218 276 335 399
#     4  10  23  41  67  98 128 174 223 269 333 400
#     4  10  23  43  64  92 134 169 212 274 333 397
#     4  10  23  44  67  94 138 176 218 281 337 398
#     4  11  25  41  67  96 129 172 223 273 337 401
#
# _framework density 21.132892999999999
#
# number of rings (size 3 to 8) (size 9 to 14) (size 15 to 20)
#    0.000    1.778    0.000    1.667   15.556    8.000 
#    0.000    0.000    0.000    0.000    0.000    0.000 
#    0.000    0.000    0.000    0.000    0.000    0.000 
#
# Total GULP energy -200662.414485 kJ/mol
# GULP energy per Si atom -5573.955958 kJ/mol
# Density = 2.108479 g / cm^3
# Si number density = 21.132893 Si / 1000 Ang^3
#
#
#
# Elastic Constant Matrix: (Units=GPa)
#
#
# Indices 1 2 3 4 5 6 
#
# 1 104.0485 16.7599 58.8459 0.0000 0.0000 0.0000
# 2 16.7599 54.1380 34.3351 0.0000 0.0000 0.0000
# 3 58.8459 34.3351 145.2487 0.0000 0.0000 0.0000
# 4 0.0000 0.0000 0.0000 25.8182 0.0000 0.0000
# 5 0.0000 0.0000 0.0000 0.0000 25.5549 0.0000
# 6 0.0000 0.0000 0.0000 0.0000 0.0000 35.5935
#
#
#
# Elastic Compliance Matrix: (Units=1/GPa)
#
#
# Indices 1 2 3 4 5 6 
#
# 1 0.012495 -0.000774 -0.004879 0.000000 0.000000 0.000000
# 2 -0.000774 0.021777 -0.004834 0.000000 0.000000 0.000000
# 3 -0.004879 -0.004834 0.010004 0.000000 0.000000 0.000000
# 4 0.000000 0.000000 0.000000 0.038732 0.000000 0.000000
# 5 0.000000 0.000000 0.000000 0.000000 0.039131 0.000000
# 6 0.000000 0.000000 0.000000 0.000000 0.000000 0.028095
#
#
# Mechanical properties :
#
#
# Convention : Reuss Voigt Hill
#
# Bulk Modulus (GPa) = 42.91557 58.14632 50.53094
# Shear Modulus (GPa) = 27.93655 30.29295 29.11475
#
# Velocity S-wave (km/s) = 3.63980 3.79020 3.71576
# Velocity P-wave (km/s) = 6.16569 6.83582 6.50939
#
# Compressibility (1/GPa) = 0.02330157
#
# Stress axis : x y z
#
# Youngs Moduli (GPa) = 80.03134 45.92036 99.95655
#
# Poissons Ratio (x) = 0.03553 0.48773
# Poissons Ratio (y) = 0.06191 0.48323
# Poissons Ratio (z) = 0.39050 0.22200
#
# Static dielectric constant tensor:
#      x y z
#    x 1.831370 0.000000 0.000000 
#    y 0.000000 1.778080 0.000000 
#    z 0.000000 0.000000 1.776820 
# 
# From -- ./inp_files/47900.got.cif
#   From: 2010.05.17/outbox.cif.g08.bks.cpg/sg72_24_cif.got.tgz:47900.got - 2010.06.03 17:03:01.
