data_PCOD9528210
_publ_section_title
;
Structure prediction by ZEFSAII (Michael W. Deem and Ramdas Pophale) SiO2 
 PCOD9528210
Probable space group: I B A M
;
_chemical_formula_sum "Si O2"
_cell_formula_units_Z 80
_cell_length_a 13.477868
_cell_length_b 11.420758
_cell_length_c 25.399071
_cell_angle_alpha 90.000000
_cell_angle_beta 90.000000
_cell_angle_gamma 90.000000
_cell_volume 3909.614708
_symmetry_space_group_name_H-M "I B A M"
_symmetry_group_IT_number 72
_symmetry_cell_setting 'orthorhombic'
loop_
_space_group_symop_operation_xyz
x,y,z
-x,-y,z
x,-y,1/2-z
-x,y,1/2-z
-x,-y,-z
x,y,-z
-x,y,1/2+z
x,-y,1/2+z
1/2+x,1/2+y,1/2+z
1/2-x,1/2-y,1/2+z
1/2+x,1/2-y,-z
1/2-x,1/2+y,-z
1/2-x,1/2-y,1/2-z
1/2+x,1/2+y,1/2-z
1/2-x,1/2+y,z
1/2+x,1/2-y,z
loop_
_atom_site_type_symbol
_atom_site_label
_atom_site_fract_x
_atom_site_fract_y
_atom_site_fract_z
Si Si1 0.312204 0.313196 0.939637
Si Si2 0.112558 0.997307 0.144757
Si Si3 0.817438 0.540369 0.807084
Si Si4 0.123707 0.735056 0.375126
Si Si5 0.570072 0.900073 0.098981
O O1 0.371057 0.401910 0.901365
O O2 0.198987 0.315020 0.919026
O O3 0.353785 0.180591 0.932879
O O4 0.320263 0.348759 0.000000
O O5 0.199678 0.974410 0.186242
O O6 0.131552 0.127024 0.123240
O O7 0.000000 0.000000 0.164870
O O8 0.851037 0.500000 0.750000
O O9 0.840515 0.675175 0.820865
O O10 0.872961 0.464140 0.852669
O O11 0.012029 0.692201 0.381574
O O12 0.500000 0.000000 0.072722
#
# Coordination Sequence:
#
# PCOD9528210 Si02
#       5
#    16  16  16  16  16
#     4  11  24  41  64  94 129 172 217 265 324 387
#     4  11  22  42  64  93 137 168 206 267 326 386
#     4  10  23  43  68  94 124 171 218 262 320 386
#     4  10  22  42  64  92 130 163 214 269 317 379
#     4  10  21  42  65  91 127 169 216 269 314 382
#
# _framework density 20.462375000000002
#
# number of rings (size 3 to 8) (size 9 to 14) (size 15 to 20)
#    0.000    1.600    4.000    0.000    0.000    7.200 
#    0.000    2.000    0.000    0.000    0.000    0.000 
#    0.000    0.000    0.000    0.000    0.000    0.000 
#
# Total GULP energy -223093.682124 kJ/mol
# GULP energy per Si atom -5577.342053 kJ/mol
# Density = 2.041580 g / cm^3
# Si number density = 20.462375 Si / 1000 Ang^3
#
#
#
# Elastic Constant Matrix: (Units=GPa)
#
#
# Indices 1 2 3 4 5 6 
#
# 1 122.0748 12.1692 10.4399 0.0000 0.0000 0.0000
# 2 12.1692 110.2979 21.4063 0.0000 0.0000 0.0000
# 3 10.4399 21.4063 65.0444 0.0000 0.0000 0.0000
# 4 0.0000 0.0000 0.0000 13.1293 0.0000 0.0000
# 5 0.0000 0.0000 0.0000 0.0000 1.1103 0.0000
# 6 0.0000 0.0000 0.0000 0.0000 0.0000 23.0391
#
#
#
# Elastic Compliance Matrix: (Units=1/GPa)
#
#
# Indices 1 2 3 4 5 6 
#
# 1 0.008357 -0.000707 -0.001109 0.000000 0.000000 0.000000
# 2 -0.000707 0.009745 -0.003094 0.000000 0.000000 0.000000
# 3 -0.001109 -0.003094 0.016570 0.000000 0.000000 0.000000
# 4 0.000000 0.000000 0.000000 0.076166 0.000000 0.000000
# 5 0.000000 0.000000 0.000000 0.000000 0.900623 0.000000
# 6 0.000000 0.000000 0.000000 0.000000 0.000000 0.043404
#
#
# Mechanical properties :
#
#
# Convention : Reuss Voigt Hill
#
# Bulk Modulus (GPa) = 40.23558 42.82756 41.53157
# Shear Modulus (GPa) = 4.65997 24.34919 14.50458
#
# Velocity S-wave (km/s) = 1.51072 3.45331 2.66530
# Velocity P-wave (km/s) = 4.76958 6.07254 5.46007
#
# Compressibility (1/GPa) = 0.02485362
#
# Stress axis : x y z
#
# Youngs Moduli (GPa) = 119.66049 102.61949 60.34941
#
# Poissons Ratio (x) = 0.07254 0.06691
# Poissons Ratio (y) = 0.08458 0.18669
# Poissons Ratio (z) = 0.13267 0.31746
#
# Static dielectric constant tensor:
#      x y z
#    x 1.750950 0.000000 0.000000 
#    y 0.000000 1.752130 0.000000 
#    z 0.000000 0.000000 1.681690 
# 
# From -- ./inp_files/43131.got.cif
#   From: 2010.05.17/outbox.cif.g08.bks.cpg/sg72_22_cif.got.tgz:43131.got - 2010.06.03 17:03:01.
