data_PCOD9528033
_publ_section_title
;
Structure prediction by ZEFSAII (Michael W. Deem and Ramdas Pophale) SiO2 
 PCOD9528033
Probable space group: I B A M
;
_chemical_formula_sum "Si O2"
_cell_formula_units_Z 92
_cell_length_a 8.440201
_cell_length_b 21.287520
_cell_length_c 21.786352
_cell_angle_alpha 90.000000
_cell_angle_beta 90.000000
_cell_angle_gamma 90.000000
_cell_volume 3914.374508
_symmetry_space_group_name_H-M "I B A M"
_symmetry_group_IT_number 72
_symmetry_cell_setting 'orthorhombic'
loop_
_space_group_symop_operation_xyz
x,y,z
-x,-y,z
x,-y,1/2-z
-x,y,1/2-z
-x,-y,-z
x,y,-z
-x,y,1/2+z
x,-y,1/2+z
1/2+x,1/2+y,1/2+z
1/2-x,1/2-y,1/2+z
1/2+x,1/2-y,-z
1/2-x,1/2+y,-z
1/2-x,1/2-y,1/2-z
1/2+x,1/2+y,1/2-z
1/2-x,1/2+y,z
1/2+x,1/2-y,z
loop_
_atom_site_type_symbol
_atom_site_label
_atom_site_fract_x
_atom_site_fract_y
_atom_site_fract_z
Si Si1 0.795134 0.667076 0.500000
Si Si2 0.886486 0.820596 0.110155
Si Si3 0.472682 0.928571 0.866075
Si Si4 0.621069 0.699830 0.000000
Si Si5 0.847975 0.680115 0.291111
Si Si6 0.099377 0.394504 0.000000
Si Si7 0.846890 0.885173 0.687754
Si Si8 0.500000 0.500000 0.750000
O O1 0.718185 0.639971 0.561311
O O2 0.762321 0.741347 0.500000
O O3 0.981768 0.664724 0.500000
O O4 0.755403 0.785712 0.154216
O O5 0.016650 0.793731 0.062122
O O6 0.998104 0.858910 0.155451
O O7 0.586616 0.881672 0.827347
O O8 0.463560 0.929600 0.939727
O O9 0.302427 0.896771 0.854627
O O10 0.500000 0.000000 0.844137
O O11 0.723199 0.634655 0.000000
O O12 0.718439 0.659720 0.241135
O O13 0.000000 0.704579 0.250000
O O14 0.890754 0.953598 0.712076
#
# Coordination Sequence:
#
# PCOD9528033 Si02
#       8
#     8  16  16   8  16   8  16   4
#     4  11  25  42  73  97 117 166 220 280 354 416
#     4  11  21  43  65  97 132 161 216 285 339 392
#     4  11  23  38  58  91 138 183 224 267 327 406
#     4  11  25  44  71  99 117 166 226 281 356 405
#     4  10  21  39  63  93 127 180 217 257 324 389
#     4  12  21  42  62  90 126 170 217 282 343 411
#     4  11  22  36  62  93 133 177 223 272 315 389
#     4  12  20  32  62  98 128 176 238 252 302 388
#
# _framework density 23.503117
#
# number of rings (size 3 to 8) (size 9 to 14) (size 15 to 20)
#    0.000    1.043    5.217    2.348    0.000    2.435 
#    0.000    0.000    0.000   10.957    0.000    0.000 
#    0.000    0.000    0.000    0.000    0.000    0.000 
#
# Total GULP energy -256113.665328 kJ/mol
# GULP energy per Si atom -5567.688377 kJ/mol
# Density = 2.344962 g / cm^3
# Si number density = 23.503117 Si / 1000 Ang^3
#
#
#
# Elastic Constant Matrix: (Units=GPa)
#
#
# Indices 1 2 3 4 5 6 
#
# 1 127.4077 24.4271 65.9181 0.0000 0.0000 0.0000
# 2 24.4271 44.5370 15.5917 0.0000 0.0000 0.0000
# 3 65.9181 15.5917 149.7825 0.0000 0.0000 0.0000
# 4 0.0000 0.0000 0.0000 11.1636 0.0000 0.0000
# 5 0.0000 0.0000 0.0000 0.0000 3.1498 0.0000
# 6 0.0000 0.0000 0.0000 0.0000 0.0000 27.1367
#
#
#
# Elastic Compliance Matrix: (Units=1/GPa)
#
#
# Indices 1 2 3 4 5 6 
#
# 1 0.010964 -0.004488 -0.004358 0.000000 0.000000 0.000000
# 2 -0.004488 0.025139 -0.000642 0.000000 0.000000 0.000000
# 3 -0.004358 -0.000642 0.008661 0.000000 0.000000 0.000000
# 4 0.000000 0.000000 0.000000 0.089577 0.000000 0.000000
# 5 0.000000 0.000000 0.000000 0.000000 0.317481 0.000000
# 6 0.000000 0.000000 0.000000 0.000000 0.000000 0.036850
#
#
# Mechanical properties :
#
#
# Convention : Reuss Voigt Hill
#
# Bulk Modulus (GPa) = 38.77601 59.28901 49.03251
# Shear Modulus (GPa) = 9.68534 22.67604 16.18069
#
# Velocity S-wave (km/s) = 2.03220 3.10951 2.62668
# Velocity P-wave (km/s) = 4.69473 6.17842 5.48695
#
# Compressibility (1/GPa) = 0.02578914
#
# Stress axis : x y z
#
# Youngs Moduli (GPa) = 91.20791 39.77835 115.45893
#
# Poissons Ratio (x) = 0.17851 0.50317
# Poissons Ratio (y) = 0.40932 0.07411
# Poissons Ratio (z) = 0.39748 0.02553
#
# Static dielectric constant tensor:
#      x y z
#    x 1.859290 0.000000 0.000000 
#    y 0.000000 1.853760 0.000000 
#    z 0.000000 0.000000 1.975330 
# 
# From -- ./inp_files/36107.got.cif
#   From: 2010.05.17/outbox.cif.g08.bks.cpg/sg72_19_cif.got.tgz:36107.got - 2010.06.03 17:03:01.
