data_PCOD9528614
_publ_section_title
;
Structure prediction by ZEFSAII (Michael W. Deem and Ramdas Pophale) SiO2 
 PCOD9528614
Probable space group: I B A M
;
_chemical_formula_sum "Si O2"
_cell_formula_units_Z 64
_cell_length_a 15.160654
_cell_length_b 10.392727
_cell_length_c 17.131945
_cell_angle_alpha 90.000000
_cell_angle_beta 90.000000
_cell_angle_gamma 90.000000
_cell_volume 2699.318474
_symmetry_space_group_name_H-M "I B A M"
_symmetry_group_IT_number 72
_symmetry_cell_setting 'orthorhombic'
loop_
_space_group_symop_operation_xyz
x,y,z
-x,-y,z
x,-y,1/2-z
-x,y,1/2-z
-x,-y,-z
x,y,-z
-x,y,1/2+z
x,-y,1/2+z
1/2+x,1/2+y,1/2+z
1/2-x,1/2-y,1/2+z
1/2+x,1/2-y,-z
1/2-x,1/2+y,-z
1/2-x,1/2-y,1/2-z
1/2+x,1/2+y,1/2-z
1/2-x,1/2+y,z
1/2+x,1/2-y,z
loop_
_atom_site_type_symbol
_atom_site_label
_atom_site_fract_x
_atom_site_fract_y
_atom_site_fract_z
Si Si1 0.977713 0.853000 0.587760
Si Si2 0.331585 0.747756 0.875567
Si Si3 0.193359 0.471227 0.587209
Si Si4 0.404199 0.177992 0.786679
O O1 0.942365 0.848165 0.500000
O O2 0.069485 0.774099 0.592360
O O3 0.914090 0.793435 0.651499
O O4 0.000000 0.000000 0.606899
O O5 0.275980 0.621780 0.896839
O O6 0.342863 0.774657 0.783484
O O7 0.289207 0.877108 0.909652
O O8 0.158070 0.441822 0.500000
O O9 0.128648 0.438766 0.659435
O O10 0.500000 0.153681 0.750000
#
# Coordination Sequence:
#
# PCOD9528614 Si02
#       4
#    16  16  16  16
#     4  10  22  43  71 103 138 178 230 284 341 408
#     4  11  26  45  69 100 140 179 230 280 342 414
#     4  12  25  45  70 101 137 182 230 283 346 407
#     4  10  24  44  68  99 138 178 231 283 349 402
#
# _framework density 23.709690999999999
#
# number of rings (size 3 to 8) (size 9 to 14) (size 15 to 20)
#    0.000    1.250    0.000    4.500    3.500   11.500 
#    0.000    6.250    0.000    0.000    0.000    0.000 
#    0.000    0.000    0.000    0.000    0.000    0.000 
#
# Total GULP energy -179202.265508 kJ/mol
# GULP energy per Si atom -5600.070797 kJ/mol
# Density = 2.365573 g / cm^3
# Si number density = 23.709691 Si / 1000 Ang^3
#
#
#
# Elastic Constant Matrix: (Units=GPa)
#
#
# Indices 1 2 3 4 5 6 
#
# 1 25.9495 5.1447 16.6038 0.0000 0.0000 0.0000
# 2 5.1447 153.1814 37.2406 0.0000 0.0000 0.0000
# 3 16.6038 37.2406 115.5024 0.0000 0.0000 0.0000
# 4 0.0000 0.0000 0.0000 29.3694 0.0000 0.0000
# 5 0.0000 0.0000 0.0000 0.0000 17.2421 0.0000
# 6 0.0000 0.0000 0.0000 0.0000 0.0000 31.9215
#
#
#
# Elastic Compliance Matrix: (Units=1/GPa)
#
#
# Indices 1 2 3 4 5 6 
#
# 1 0.042441 0.000063 -0.006121 0.000000 0.000000 0.000000
# 2 0.000063 0.007084 -0.002293 0.000000 0.000000 0.000000
# 3 -0.006121 -0.002293 0.010277 0.000000 0.000000 0.000000
# 4 0.000000 0.000000 0.000000 0.034049 0.000000 0.000000
# 5 0.000000 0.000000 0.000000 0.000000 0.057998 0.000000
# 6 0.000000 0.000000 0.000000 0.000000 0.000000 0.031327
#
#
# Mechanical properties :
#
#
# Convention : Reuss Voigt Hill
#
# Bulk Modulus (GPa) = 23.20269 45.84574 34.52422
# Shear Modulus (GPa) = 23.33791 31.41620 27.37706
#
# Velocity S-wave (km/s) = 3.14079 3.64405 3.40174
# Velocity P-wave (km/s) = 4.79168 6.08964 5.47923
#
# Compressibility (1/GPa) = 0.04309845
#
# Stress axis : x y z
#
# Youngs Moduli (GPa) = 23.56235 141.17232 97.30413
#
# Poissons Ratio (x) = -0.00886 0.59562
# Poissons Ratio (y) = -0.00148 0.22311
# Poissons Ratio (z) = 0.14423 0.32370
#
# Static dielectric constant tensor:
#      x y z
#    x 1.906290 0.000000 0.000000 
#    y 0.000000 1.896200 0.000000 
#    z 0.000000 0.000000 1.875360 
# 
# From -- ./inp_files/27645.got.cif
#   From: 2010.05.17/outbox.cif.g08.bks.cpg/sg72_14_cif.got.tgz:27645.got - 2010.06.03 17:03:01.
