data_PCOD9528115
_publ_section_title
;
Structure prediction by ZEFSAII (Michael W. Deem and Ramdas Pophale) SiO2 
 PCOD9528115
Probable space group: I B A M
;
_chemical_formula_sum "Si O2"
_cell_formula_units_Z 64
_cell_length_a 12.571129
_cell_length_b 10.747975
_cell_length_c 23.089521
_cell_angle_alpha 90.000000
_cell_angle_beta 90.000000
_cell_angle_gamma 90.000000
_cell_volume 3119.721701
_symmetry_space_group_name_H-M "I B A M"
_symmetry_group_IT_number 72
_symmetry_cell_setting 'orthorhombic'
loop_
_space_group_symop_operation_xyz
x,y,z
-x,-y,z
x,-y,1/2-z
-x,y,1/2-z
-x,-y,-z
x,y,-z
-x,y,1/2+z
x,-y,1/2+z
1/2+x,1/2+y,1/2+z
1/2-x,1/2-y,1/2+z
1/2+x,1/2-y,-z
1/2-x,1/2+y,-z
1/2-x,1/2-y,1/2-z
1/2+x,1/2+y,1/2-z
1/2-x,1/2+y,z
1/2+x,1/2-y,z
loop_
_atom_site_type_symbol
_atom_site_label
_atom_site_fract_x
_atom_site_fract_y
_atom_site_fract_z
Si Si1 0.962358 0.645616 0.500000
Si Si2 0.097202 0.595639 0.873770
Si Si3 0.094962 0.899910 0.500000
Si Si4 0.481812 0.667666 0.683085
Si Si5 0.334730 0.545081 0.873663
O O1 0.049855 0.757716 0.500000
O O2 0.000000 0.500000 0.500000
O O3 0.901405 0.657097 0.561397
O O4 0.069213 0.699626 0.827201
O O5 0.211228 0.538000 0.859328
O O6 0.000000 0.500000 0.874222
O O7 0.157594 0.933171 0.442079
O O8 0.000000 0.000000 0.500000
O O9 0.500000 0.638574 0.750000
O O10 0.402484 0.571299 0.650643
O O11 0.597780 0.658825 0.653408
#
# Coordination Sequence:
#
# PCOD9528115 Si02
#       5
#     8  16   8  16  16
#     4  10  21  40  63  97 144 166 211 287 345 406
#     4  11  25  43  67 102 136 176 227 282 346 412
#     4  12  19  40  72 102 132 182 225 278 351 424
#     4  11  25  47  67  95 137 181 232 285 335 401
#     4  11  23  42  72  97 134 176 226 278 348 407
#
# _framework density 20.51465
#
# number of rings (size 3 to 8) (size 9 to 14) (size 15 to 20)
#    0.000    1.000    5.000    2.250    3.500    1.500 
#    4.500    2.500    0.000    0.000    0.000    0.000 
#    0.000    0.000    0.000    0.000    0.000    0.000 
#
# Total GULP energy -178536.844259 kJ/mol
# GULP energy per Si atom -5579.276383 kJ/mol
# Density = 2.046796 g / cm^3
# Si number density = 20.514650 Si / 1000 Ang^3
#
#
#
# Elastic Constant Matrix: (Units=GPa)
#
#
# Indices 1 2 3 4 5 6 
#
# 1 176.8397 45.8003 39.7060 0.0000 0.0000 0.0000
# 2 45.8003 96.0572 31.5964 0.0000 0.0000 0.0000
# 3 39.7060 31.5964 135.2633 0.0000 0.0000 0.0000
# 4 0.0000 0.0000 0.0000 35.3592 0.0000 0.0000
# 5 0.0000 0.0000 0.0000 0.0000 -4.7043 0.0000
# 6 0.0000 0.0000 0.0000 0.0000 0.0000 7.4411
#
#
#
# Elastic Compliance Matrix: (Units=1/GPa)
#
#
# Indices 1 2 3 4 5 6 
#
# 1 0.006660 -0.002743 -0.001314 0.000000 0.000000 0.000000
# 2 -0.002743 0.012407 -0.002093 0.000000 0.000000 0.000000
# 3 -0.001314 -0.002093 0.008268 0.000000 0.000000 0.000000
# 4 0.000000 0.000000 0.000000 0.028281 0.000000 0.000000
# 5 0.000000 0.000000 0.000000 0.000000 -0.212570 0.000000
# 6 0.000000 0.000000 0.000000 0.000000 0.000000 0.134389
#
#
# Mechanical properties :
#
#
# Convention : Reuss Voigt Hill
#
# Bulk Modulus (GPa) = 66.51615 71.37394 68.94504
# Shear Modulus (GPa) = -951.94960 27.02303 -462.46329
#
# Velocity S-wave (km/s) = -21.56482 3.63334 -15.03064
# Velocity P-wave (km/s) = 24.23966 7.24353 16.35684
#
# Compressibility (1/GPa) = 0.01503394
#
# Stress axis : x y z
#
# Youngs Moduli (GPa) = 150.13965 80.60012 120.95298
#
# Poissons Ratio (x) = 0.22112 0.15897
# Poissons Ratio (y) = 0.41189 0.25314
# Poissons Ratio (z) = 0.19733 0.16868
#
# Static dielectric constant tensor:
#      x y z
#    x 1.736380 0.000000 0.000000 
#    y 0.000000 1.765290 0.000000 
#    z 0.000000 0.000000 1.809750 
# 
# From -- ./inp_files/47890.got.cif
#   From: 2010.05.17/outbox.cif.g08.bks.cpg/sg72_24_cif.got.tgz:47890.got - 2010.06.03 17:03:01.
