data_PCOD9528266
_publ_section_title
;
Structure prediction by ZEFSAII (Michael W. Deem and Ramdas Pophale) SiO2 
 PCOD9528266
Probable space group: I B A M
;
_chemical_formula_sum "Si O2"
_cell_formula_units_Z 112
_cell_length_a 22.509828
_cell_length_b 14.817514
_cell_length_c 15.844610
_cell_angle_alpha 90.000000
_cell_angle_beta 90.000000
_cell_angle_gamma 90.000000
_cell_volume 5284.806332
_symmetry_space_group_name_H-M "I B A M"
_symmetry_group_IT_number 72
_symmetry_cell_setting 'orthorhombic'
loop_
_space_group_symop_operation_xyz
x,y,z
-x,-y,z
x,-y,1/2-z
-x,y,1/2-z
-x,-y,-z
x,y,-z
-x,y,1/2+z
x,-y,1/2+z
1/2+x,1/2+y,1/2+z
1/2-x,1/2-y,1/2+z
1/2+x,1/2-y,-z
1/2-x,1/2+y,-z
1/2-x,1/2-y,1/2-z
1/2+x,1/2+y,1/2-z
1/2-x,1/2+y,z
1/2+x,1/2-y,z
loop_
_atom_site_type_symbol
_atom_site_label
_atom_site_fract_x
_atom_site_fract_y
_atom_site_fract_z
Si Si1 0.465587 0.729524 0.822642
Si Si2 0.517312 0.096269 0.095892
Si Si3 0.337038 0.775928 0.756403
Si Si4 0.815703 0.923200 0.187338
Si Si5 0.799418 0.609744 0.403861
Si Si6 0.060416 0.946753 0.403331
Si Si7 0.660217 0.094256 0.094552
O O1 0.500000 0.676651 0.750000
O O2 0.502164 0.815671 0.854137
O O3 0.406323 0.764930 0.778316
O O4 0.452497 0.660502 0.897033
O O5 0.588679 0.103282 0.092271
O O6 0.500000 0.000000 0.133874
O O7 0.493590 0.098310 0.000000
O O8 0.315820 0.673082 0.765269
O O9 0.322617 0.822048 0.667630
O O10 0.314820 0.840678 0.832830
O O11 0.770708 0.906608 0.110575
O O12 0.880721 0.954507 0.154434
O O13 0.792673 0.000000 0.250000
O O14 0.811932 0.637901 0.500000
O O15 0.827592 0.510878 0.389293
O O16 0.073746 0.972732 0.500000
O O17 0.000000 0.000000 0.378706
O O18 0.682536 0.117037 0.000000
#
# Coordination Sequence:
#
# PCOD9528266 Si02
#       7
#    16  16  16  16  16  16  16
#     4  10  22  35  58  89 120 161 207 253 311 372
#     4   9  18  33  53  81 118 157 197 245 301 367
#     4  10  22  40  62  90 123 167 209 255 315 380
#     4  11  24  41  66  93 124 162 213 271 322 383
#     4  11  23  41  64  93 129 166 206 260 322 385
#     4  10  23  42  65  89 120 164 212 265 322 384
#     4   9  19  36  61  88 119 160 201 250 312 378
#
# _framework density 21.192830000000001
#
# number of rings (size 3 to 8) (size 9 to 14) (size 15 to 20)
#    0.000    2.000    0.000    2.571    6.000    4.286 
#    0.000    3.571    0.000    0.000    0.000    0.000 
#    0.000    0.000    0.000    0.000    0.000    0.000 
#
# Total GULP energy -312402.592582 kJ/mol
# GULP energy per Si atom -5578.617725 kJ/mol
# Density = 2.114459 g / cm^3
# Si number density = 21.192830 Si / 1000 Ang^3
#
#
#
# Elastic Constant Matrix: (Units=GPa)
#
#
# Indices 1 2 3 4 5 6 
#
# 1 50.5162 17.1023 29.4397 0.0000 0.0000 0.0000
# 2 17.1023 99.2291 66.4107 0.0000 0.0000 0.0000
# 3 29.4397 66.4107 125.5788 0.0000 0.0000 0.0000
# 4 0.0000 0.0000 0.0000 21.3206 0.0000 0.0000
# 5 0.0000 0.0000 0.0000 0.0000 26.2843 0.0000
# 6 0.0000 0.0000 0.0000 0.0000 0.0000 14.8059
#
#
#
# Elastic Compliance Matrix: (Units=1/GPa)
#
#
# Indices 1 2 3 4 5 6 
#
# 1 0.022947 -0.000549 -0.005089 0.000000 0.000000 0.000000
# 2 -0.000549 0.015612 -0.008127 0.000000 0.000000 0.000000
# 3 -0.005089 -0.008127 0.013454 0.000000 0.000000 0.000000
# 4 0.000000 0.000000 0.000000 0.046903 0.000000 0.000000
# 5 0.000000 0.000000 0.000000 0.000000 0.038045 0.000000
# 6 0.000000 0.000000 0.000000 0.000000 0.000000 0.067540
#
#
# Mechanical properties :
#
#
# Convention : Reuss Voigt Hill
#
# Bulk Modulus (GPa) = 40.84605 55.69219 48.26912
# Shear Modulus (GPa) = 20.81649 23.30692 22.06170
#
# Velocity S-wave (km/s) = 3.13747 3.31985 3.22995
# Velocity P-wave (km/s) = 5.69564 6.40555 6.06100
#
# Compressibility (1/GPa) = 0.02448217
#
# Stress axis : x y z
#
# Youngs Moduli (GPa) = 43.57790 64.05471 74.32587
#
# Poissons Ratio (x) = 0.03516 0.37827
# Poissons Ratio (y) = 0.02392 0.60407
# Poissons Ratio (z) = 0.22178 0.52059
#
# Static dielectric constant tensor:
#      x y z
#    x 1.817510 0.000000 0.000000 
#    y 0.000000 1.777720 0.000000 
#    z 0.000000 0.000000 1.751270 
# 
# From -- ./inp_files/25175.got.cif
#   From: 2010.05.17/outbox.cif.g08.bks.cpg/sg72_13_cif.got.tgz:25175.got - 2010.06.03 17:03:01.
