data_PCOD9528535
_publ_section_title
;
Structure prediction by ZEFSAII (Michael W. Deem and Ramdas Pophale) SiO2 
 PCOD9528535
Probable space group: I B A M
;
_chemical_formula_sum "Si O2"
_cell_formula_units_Z 60
_cell_length_a 9.225744
_cell_length_b 11.944621
_cell_length_c 23.832970
_cell_angle_alpha 90.000000
_cell_angle_beta 90.000000
_cell_angle_gamma 90.000000
_cell_volume 2626.345998
_symmetry_space_group_name_H-M "I B A M"
_symmetry_group_IT_number 72
_symmetry_cell_setting 'orthorhombic'
loop_
_space_group_symop_operation_xyz
x,y,z
-x,-y,z
x,-y,1/2-z
-x,y,1/2-z
-x,-y,-z
x,y,-z
-x,y,1/2+z
x,-y,1/2+z
1/2+x,1/2+y,1/2+z
1/2-x,1/2-y,1/2+z
1/2+x,1/2-y,-z
1/2-x,1/2+y,-z
1/2-x,1/2-y,1/2-z
1/2+x,1/2+y,1/2-z
1/2-x,1/2+y,z
1/2+x,1/2-y,z
loop_
_atom_site_type_symbol
_atom_site_label
_atom_site_fract_x
_atom_site_fract_y
_atom_site_fract_z
Si Si1 0.258155 0.006728 0.000000
Si Si2 0.182449 0.695834 0.194898
Si Si3 0.500000 0.000000 0.250000
Si Si4 0.000000 0.500000 0.907927
Si Si5 0.019494 0.167317 0.500000
Si Si6 0.441930 0.246404 0.378048
O O1 0.363043 0.028631 0.947675
O O2 0.182573 0.883796 0.000000
O O3 0.115067 0.081161 0.000000
O O4 0.250000 0.750000 0.250000
O O5 0.107730 0.581125 0.215099
O O6 0.298508 0.692974 0.144201
O O7 0.060415 0.776101 0.168728
O O8 0.059083 0.389259 0.876913
O O9 0.993541 0.228127 0.559073
#
# Coordination Sequence:
#
# PCOD9528535 Si02
#       6
#     8  16   4   8   8  16
#     4  10  22  42  62 100 154 203 253 295 372 467
#     4  12  26  49  77 109 146 200 260 323 380 458
#     4  12  26  56  84 108 152 202 266 326 406 458
#     4  11  23  40  72 102 142 207 247 306 380 450
#     4  11  24  43  64 110 156 195 253 314 384 472
#     4  12  25  45  76 110 153 198 257 323 389 464
#
# _framework density 22.84543
#
# number of rings (size 3 to 8) (size 9 to 14) (size 15 to 20)
#    0.000    0.533    2.667    5.600    0.000    3.200 
#    9.600    1.333    0.000    0.000    0.000    0.000 
#    0.000    0.000    0.000    0.000    0.000    0.000 
#
# Total GULP energy -167443.764396 kJ/mol
# GULP energy per Si atom -5581.458813 kJ/mol
# Density = 2.279343 g / cm^3
# Si number density = 22.845430 Si / 1000 Ang^3
#
#
#
# Elastic Constant Matrix: (Units=GPa)
#
#
# Indices 1 2 3 4 5 6 
#
# 1 144.5222 48.3627 49.2304 0.0000 0.0000 0.0000
# 2 48.3627 100.6614 67.6961 0.0000 0.0000 0.0000
# 3 49.2304 67.6961 143.0560 0.0000 0.0000 0.0000
# 4 0.0000 0.0000 0.0000 40.6253 0.0000 0.0000
# 5 0.0000 0.0000 0.0000 0.0000 50.4978 0.0000
# 6 0.0000 0.0000 0.0000 0.0000 0.0000 41.6049
#
#
#
# Elastic Compliance Matrix: (Units=1/GPa)
#
#
# Indices 1 2 3 4 5 6 
#
# 1 0.008444 -0.003084 -0.001446 0.000000 0.000000 0.000000
# 2 -0.003084 0.015698 -0.006367 0.000000 0.000000 0.000000
# 3 -0.001446 -0.006367 0.010501 0.000000 0.000000 0.000000
# 4 0.000000 0.000000 0.000000 0.024615 0.000000 0.000000
# 5 0.000000 0.000000 0.000000 0.000000 0.019803 0.000000
# 6 0.000000 0.000000 0.000000 0.000000 0.000000 0.024036
#
#
# Mechanical properties :
#
#
# Convention : Reuss Voigt Hill
#
# Bulk Modulus (GPa) = 77.83513 79.86868 78.85190
# Shear Modulus (GPa) = 38.70708 41.40897 40.05802
#
# Velocity S-wave (km/s) = 4.12066 4.26205 4.19195
# Velocity P-wave (km/s) = 7.53552 7.69782 7.61710
#
# Compressibility (1/GPa) = 0.01284767
#
# Stress axis : x y z
#
# Youngs Moduli (GPa) = 118.42484 63.70177 95.22848
#
# Poissons Ratio (x) = 0.19647 0.13774
# Poissons Ratio (y) = 0.36526 0.60634
# Poissons Ratio (z) = 0.17129 0.40560
#
# Static dielectric constant tensor:
#      x y z
#    x 1.924770 0.000000 0.000000 
#    y 0.000000 1.927690 0.000000 
#    z 0.000000 0.000000 1.940250 
# 
# From -- ./inp_files/46918.got.cif
#   From: 2010.05.17/outbox.cif.g08.bks.cpg/sg72_24_cif.got.tgz:46918.got - 2010.06.03 17:03:01.
