data_PCOD9528579
_publ_section_title
;
Structure prediction by ZEFSAII (Michael W. Deem and Ramdas Pophale) SiO2 
 PCOD9528579
Probable space group: I B A M
;
_chemical_formula_sum "Si O2"
_cell_formula_units_Z 96
_cell_length_a 9.797252
_cell_length_b 13.525403
_cell_length_c 30.470015
_cell_angle_alpha 90.000000
_cell_angle_beta 90.000000
_cell_angle_gamma 90.000000
_cell_volume 4037.635973
_symmetry_space_group_name_H-M "I B A M"
_symmetry_group_IT_number 72
_symmetry_cell_setting 'orthorhombic'
loop_
_space_group_symop_operation_xyz
x,y,z
-x,-y,z
x,-y,1/2-z
-x,y,1/2-z
-x,-y,-z
x,y,-z
-x,y,1/2+z
x,-y,1/2+z
1/2+x,1/2+y,1/2+z
1/2-x,1/2-y,1/2+z
1/2+x,1/2-y,-z
1/2-x,1/2+y,-z
1/2-x,1/2-y,1/2-z
1/2+x,1/2+y,1/2-z
1/2-x,1/2+y,z
1/2+x,1/2-y,z
loop_
_atom_site_type_symbol
_atom_site_label
_atom_site_fract_x
_atom_site_fract_y
_atom_site_fract_z
Si Si1 0.263529 0.355462 0.833850
Si Si2 0.706687 0.416988 0.856937
Si Si3 0.073129 0.597195 0.048963
Si Si4 0.149764 0.881584 0.741422
Si Si5 0.470657 0.800878 0.371958
Si Si6 0.896748 0.092902 0.549590
O O1 0.305497 0.465706 0.849488
O O2 0.253303 0.347283 0.780882
O O3 0.385603 0.286147 0.850022
O O4 0.119748 0.325842 0.854877
O O5 0.678116 0.368937 0.809610
O O6 0.865356 0.392658 0.864435
O O7 0.614723 0.376130 0.897664
O O8 0.036357 0.696652 0.075222
O O9 0.233753 0.573591 0.046596
O O10 0.000000 0.500000 0.067037
O O11 0.020132 0.610536 0.000000
O O12 0.000000 0.839552 0.750000
O O13 0.144822 0.000000 0.750000
O O14 0.925691 0.138667 0.500000
O O15 0.000000 0.000000 0.550999
#
# Coordination Sequence:
#
# PCOD9528579 Si02
#       6
#    16  16  16  16  16  16
#     4  11  25  42  65  96 133 171 225 276 341 412
#     4  10  22  42  69  87 133 178 222 274 336 413
#     4   9  18  38  65  93 134 183 230 275 331 406
#     4   9  21  40  64  95 123 171 222 274 338 406
#     4  11  24  42  64  99 130 179 227 282 347 410
#     4   9  18  31  58  98 128 162 212 268 328 387
#
# _framework density 23.776288999999998
#
# number of rings (size 3 to 8) (size 9 to 14) (size 15 to 20)
#    0.000    2.167    0.000    2.500    7.000    2.667 
#    0.000    4.167    0.000    0.000    0.000    0.000 
#    0.000    0.000    0.000    0.000    0.000    0.000 
#
# Total GULP energy -267529.776553 kJ/mol
# GULP energy per Si atom -5573.537012 kJ/mol
# Density = 2.372217 g / cm^3
# Si number density = 23.776289 Si / 1000 Ang^3
#
#
#
# Elastic Constant Matrix: (Units=GPa)
#
#
# Indices 1 2 3 4 5 6 
#
# 1 114.2594 17.1829 63.5581 0.0000 0.0000 0.0000
# 2 17.1829 88.8117 38.4903 0.0000 0.0000 0.0000
# 3 63.5581 38.4903 198.5600 0.0000 0.0000 0.0000
# 4 0.0000 0.0000 0.0000 32.9609 0.0000 0.0000
# 5 0.0000 0.0000 0.0000 0.0000 25.5584 0.0000
# 6 0.0000 0.0000 0.0000 0.0000 0.0000 26.5674
#
#
#
# Elastic Compliance Matrix: (Units=1/GPa)
#
#
# Indices 1 2 3 4 5 6 
#
# 1 0.010681 -0.000638 -0.003295 0.000000 0.000000 0.000000
# 2 -0.000638 0.012331 -0.002186 0.000000 0.000000 0.000000
# 3 -0.003295 -0.002186 0.006515 0.000000 0.000000 0.000000
# 4 0.000000 0.000000 0.000000 0.030339 0.000000 0.000000
# 5 0.000000 0.000000 0.000000 0.000000 0.039126 0.000000
# 6 0.000000 0.000000 0.000000 0.000000 0.000000 0.037640
#
#
# Mechanical properties :
#
#
# Convention : Reuss Voigt Hill
#
# Bulk Modulus (GPa) = 57.84555 71.12153 64.48354
# Shear Modulus (GPa) = 32.33462 35.84400 34.08931
#
# Velocity S-wave (km/s) = 3.69175 3.88693 3.79060
# Velocity P-wave (km/s) = 6.52334 7.07969 6.80720
#
# Compressibility (1/GPa) = 0.01728742
#
# Stress axis : x y z
#
# Youngs Moduli (GPa) = 93.62420 81.09867 153.49750
#
# Poissons Ratio (x) = 0.05177 0.50580
# Poissons Ratio (y) = 0.05977 0.33553
# Poissons Ratio (z) = 0.30851 0.17727
#
# Static dielectric constant tensor:
#      x y z
#    x 1.850610 0.000000 0.000000 
#    y 0.000000 2.048490 0.000000 
#    z 0.000000 0.000000 2.192660 
# 
# From -- ./inp_files/47329.got.cif
#   From: 2010.05.17/outbox.cif.g08.bks.cpg/sg72_24_cif.got.tgz:47329.got - 2010.06.03 17:03:01.
