data_PCOD9528423
_publ_section_title
;
Structure prediction by ZEFSAII (Michael W. Deem and Ramdas Pophale) SiO2 
 PCOD9528423
Probable space group: I B A M
;
_chemical_formula_sum "Si O2"
_cell_formula_units_Z 96
_cell_length_a 26.481737
_cell_length_b 13.236103
_cell_length_c 14.658358
_cell_angle_alpha 90.000000
_cell_angle_beta 90.000000
_cell_angle_gamma 90.000000
_cell_volume 5137.974333
_symmetry_space_group_name_H-M "I B A M"
_symmetry_group_IT_number 72
_symmetry_cell_setting 'orthorhombic'
loop_
_space_group_symop_operation_xyz
x,y,z
-x,-y,z
x,-y,1/2-z
-x,y,1/2-z
-x,-y,-z
x,y,-z
-x,y,1/2+z
x,-y,1/2+z
1/2+x,1/2+y,1/2+z
1/2-x,1/2-y,1/2+z
1/2+x,1/2-y,-z
1/2-x,1/2+y,-z
1/2-x,1/2-y,1/2-z
1/2+x,1/2+y,1/2-z
1/2-x,1/2+y,z
1/2+x,1/2-y,z
loop_
_atom_site_type_symbol
_atom_site_label
_atom_site_fract_x
_atom_site_fract_y
_atom_site_fract_z
Si Si1 0.149963 0.358140 0.500000
Si Si2 0.643242 0.518053 0.000000
Si Si3 0.629200 0.903488 0.799544
Si Si4 0.206647 0.285557 0.182650
Si Si5 0.267828 0.673321 0.500000
Si Si6 0.947577 0.214254 0.201935
Si Si7 0.134983 0.091416 0.189320
Si Si8 0.435149 0.697900 0.500000
O O1 0.150026 0.416265 0.403179
O O2 0.193305 0.270343 0.500000
O O3 0.095554 0.302703 0.500000
O O4 0.629894 0.454947 0.089406
O O5 0.607797 0.614408 0.000000
O O6 0.699077 0.569799 0.000000
O O7 0.674952 0.871694 0.733333
O O8 0.589737 0.810696 0.800541
O O9 0.605417 0.000000 0.750000
O O10 0.250000 0.250000 0.250000
O O11 0.169939 0.188977 0.175718
O O12 0.232654 0.318215 0.088775
O O13 0.914940 0.129124 0.255862
O O14 0.000000 0.236091 0.250000
O O15 0.961270 0.186788 0.097374
O O16 0.157799 0.000000 0.250000
#
# Coordination Sequence:
#
# PCOD9528423 Si02
#       8
#     8   8  16  16   8  16  16   8
#     4   9  18  38  61  80 118 158 200 248 291 354
#     4  11  21  38  60  83 119 164 197 247 299 362
#     4  10  22  40  63  88 120 160 207 254 306 362
#     4  11  22  37  55  84 122 159 202 255 298 355
#     4  11  21  38  57  83 124 165 211 244 299 366
#     4  10  22  41  65  90 122 157 199 257 311 369
#     4  11  22  38  58  86 121 158 201 250 308 362
#     4   9  18  38  62  86 113 160 194 232 307 356
#
# _framework density 18.684407
#
# number of rings (size 3 to 8) (size 9 to 14) (size 15 to 20)
#    0.000    1.667    3.333    1.500    0.000    4.000 
#    3.000    3.333    0.000    3.000    0.000    0.000 
#    0.000    0.000    0.000    0.000    0.000    0.000 
#
# Total GULP energy -267540.054806 kJ/mol
# GULP energy per Si atom -5573.751142 kJ/mol
# Density = 1.864188 g / cm^3
# Si number density = 18.684407 Si / 1000 Ang^3
#
#
#
# Elastic Constant Matrix: (Units=GPa)
#
#
# Indices 1 2 3 4 5 6 
#
# 1 64.1028 -4.0870 47.5410 0.0000 0.0000 0.0000
# 2 -4.0870 58.5594 39.9947 0.0000 0.0000 0.0000
# 3 47.5410 39.9947 206.6107 0.0000 0.0000 0.0000
# 4 0.0000 0.0000 0.0000 13.2167 0.0000 0.0000
# 5 0.0000 0.0000 0.0000 0.0000 90.4519 0.0000
# 6 0.0000 0.0000 0.0000 0.0000 0.0000 1.6690
#
#
#
# Elastic Compliance Matrix: (Units=1/GPa)
#
#
# Indices 1 2 3 4 5 6 
#
# 1 0.020126 0.005263 -0.005650 0.000000 0.000000 0.000000
# 2 0.005263 0.021055 -0.005287 0.000000 0.000000 0.000000
# 3 -0.005650 -0.005287 0.007163 0.000000 0.000000 0.000000
# 4 0.000000 0.000000 0.000000 0.075662 0.000000 0.000000
# 5 0.000000 0.000000 0.000000 0.000000 0.011056 0.000000
# 6 0.000000 0.000000 0.000000 0.000000 0.000000 0.599178
#
#
# Mechanical properties :
#
#
# Convention : Reuss Voigt Hill
#
# Bulk Modulus (GPa) = 27.02902 55.13002 41.07952
# Shear Modulus (GPa) = 6.59702 37.45579 22.02640
#
# Velocity S-wave (km/s) = 1.88107 4.48219 3.43719
# Velocity P-wave (km/s) = 4.38354 7.50711 6.14704
#
# Compressibility (1/GPa) = 0.03699727
#
# Stress axis : x y z
#
# Youngs Moduli (GPa) = 49.68807 47.49523 139.59851
#
# Poissons Ratio (x) = -0.24998 0.78869
# Poissons Ratio (y) = -0.26152 0.73802
# Poissons Ratio (z) = 0.28072 0.25110
#
# Static dielectric constant tensor:
#      x y z
#    x 1.636760 0.000000 0.000000 
#    y 0.000000 1.626520 0.000000 
#    z 0.000000 0.000000 1.658450 
# 
# From -- ./inp_files/25155.got.cif
#   From: 2010.05.17/outbox.cif.g08.bks.cpg/sg72_13_cif.got.tgz:25155.got - 2010.06.03 17:03:01.
