data_PCOD9528458
_publ_section_title
;
Structure prediction by ZEFSAII (Michael W. Deem and Ramdas Pophale) SiO2 
 PCOD9528458
Probable space group: I B A M
;
_chemical_formula_sum "Si O2"
_cell_formula_units_Z 96
_cell_length_a 14.280372
_cell_length_b 15.529943
_cell_length_c 20.809148
_cell_angle_alpha 90.000000
_cell_angle_beta 90.000000
_cell_angle_gamma 90.000000
_cell_volume 4614.914737
_symmetry_space_group_name_H-M "I B A M"
_symmetry_group_IT_number 72
_symmetry_cell_setting 'orthorhombic'
loop_
_space_group_symop_operation_xyz
x,y,z
-x,-y,z
x,-y,1/2-z
-x,y,1/2-z
-x,-y,-z
x,y,-z
-x,y,1/2+z
x,-y,1/2+z
1/2+x,1/2+y,1/2+z
1/2-x,1/2-y,1/2+z
1/2+x,1/2-y,-z
1/2-x,1/2+y,-z
1/2-x,1/2-y,1/2-z
1/2+x,1/2+y,1/2-z
1/2-x,1/2+y,z
1/2+x,1/2-y,z
loop_
_atom_site_type_symbol
_atom_site_label
_atom_site_fract_x
_atom_site_fract_y
_atom_site_fract_z
Si Si1 0.772092 0.304953 0.568259
Si Si2 0.104556 0.381220 0.227940
Si Si3 0.544146 0.242124 0.882037
Si Si4 0.085834 0.933830 0.423483
Si Si5 0.656773 0.837892 0.131225
Si Si6 0.229124 0.487597 0.125618
O O1 0.730305 0.281754 0.500000
O O2 0.883704 0.300163 0.568698
O O3 0.735963 0.231222 0.615298
O O4 0.749533 0.402399 0.585012
O O5 0.083005 0.296143 0.185478
O O6 0.157639 0.357257 0.292843
O O7 0.167934 0.446806 0.185150
O O8 0.000000 0.410850 0.250000
O O9 0.550302 0.342868 0.895845
O O10 0.440228 0.206298 0.887340
O O11 0.115805 0.924695 0.500000
O O12 0.168671 0.966824 0.376062
O O13 0.000000 0.000000 0.422959
O O14 0.668173 0.932112 0.099705
#
# Coordination Sequence:
#
# PCOD9528458 Si02
#       6
#    16  16  16  16  16  16
#     4  11  24  41  62  95 136 174 230 286 339 415
#     4   9  22  43  69 100 138 179 232 290 353 425
#     4  10  22  40  66  96 132 178 229 282 349 416
#     4  11  23  43  68  99 144 189 236 292 355 423
#     4  11  23  43  68  95 134 183 227 284 359 414
#     4  11  23  40  69 103 130 178 237 287 355 423
#
# _framework density 20.802118
#
# number of rings (size 3 to 8) (size 9 to 14) (size 15 to 20)
#    0.000    1.500    1.667    2.500    0.000   14.000 
#    3.000    2.500    0.000    0.000    0.000    0.000 
#    0.000    0.000    0.000    0.000    0.000    0.000 
#
# Total GULP energy -267363.407895 kJ/mol
# GULP energy per Si atom -5570.070998 kJ/mol
# Density = 2.075477 g / cm^3
# Si number density = 20.802118 Si / 1000 Ang^3
#
#
#
# Elastic Constant Matrix: (Units=GPa)
#
#
# Indices 1 2 3 4 5 6 
#
# 1 101.7367 50.2901 36.2397 0.0000 0.0000 0.0000
# 2 50.2901 168.4596 40.9045 0.0000 0.0000 0.0000
# 3 36.2397 40.9045 76.2738 0.0000 0.0000 0.0000
# 4 0.0000 0.0000 0.0000 76.3780 0.0000 0.0000
# 5 0.0000 0.0000 0.0000 0.0000 -845.0517 0.0000
# 6 0.0000 0.0000 0.0000 0.0000 0.0000 43.6527
#
#
#
# Elastic Compliance Matrix: (Units=1/GPa)
#
#
# Indices 1 2 3 4 5 6 
#
# 1 0.012817 -0.002699 -0.004642 0.000000 0.000000 0.000000
# 2 -0.002699 0.007393 -0.002682 0.000000 0.000000 0.000000
# 3 -0.004642 -0.002682 0.016755 0.000000 0.000000 0.000000
# 4 0.000000 0.000000 0.000000 0.013093 0.000000 0.000000
# 5 0.000000 0.000000 0.000000 0.000000 -0.001183 0.000000
# 6 0.000000 0.000000 0.000000 0.000000 0.000000 0.022908
#
#
# Mechanical properties :
#
#
# Convention : Reuss Voigt Hill
#
# Bulk Modulus (GPa) = 59.11006 66.81541 62.96274
# Shear Modulus (GPa) = 51.29803 -130.40179 -39.55188
#
# Velocity S-wave (km/s) = 4.97127 -7.92609 -4.36517
# Velocity P-wave (km/s) = 7.83763 7.18154 2.21967
#
# Compressibility (1/GPa) = 0.01691759
#
# Stress axis : x y z
#
# Youngs Moduli (GPa) = 78.02068 135.25877 59.68397
#
# Poissons Ratio (x) = 0.36507 0.27707
# Poissons Ratio (y) = 0.21058 0.16010
# Poissons Ratio (z) = 0.36219 0.36283
#
# Static dielectric constant tensor:
#      x y z
#    x 1.758170 0.000000 0.000000 
#    y 0.000000 1.772780 0.000000 
#    z 0.000000 0.000000 1.800760 
# 
# From -- ./inp_files/38007.got.cif
#   From: 2010.05.17/outbox.cif.g08.bks.cpg/sg72_20_cif.got.tgz:38007.got - 2010.06.03 17:03:01.
