data_PCOD9528320
_publ_section_title
;
Structure prediction by ZEFSAII (Michael W. Deem and Ramdas Pophale) SiO2 
 PCOD9528320
Probable space group: I B A M
;
_chemical_formula_sum "Si O2"
_cell_formula_units_Z 72
_cell_length_a 14.535335
_cell_length_b 15.595458
_cell_length_c 16.613889
_cell_angle_alpha 90.000000
_cell_angle_beta 90.000000
_cell_angle_gamma 90.000000
_cell_volume 3766.122859
_symmetry_space_group_name_H-M "I B A M"
_symmetry_group_IT_number 72
_symmetry_cell_setting 'orthorhombic'
loop_
_space_group_symop_operation_xyz
x,y,z
-x,-y,z
x,-y,1/2-z
-x,y,1/2-z
-x,-y,-z
x,y,-z
-x,y,1/2+z
x,-y,1/2+z
1/2+x,1/2+y,1/2+z
1/2-x,1/2-y,1/2+z
1/2+x,1/2-y,-z
1/2-x,1/2+y,-z
1/2-x,1/2-y,1/2-z
1/2+x,1/2+y,1/2-z
1/2-x,1/2+y,z
1/2+x,1/2-y,z
loop_
_atom_site_type_symbol
_atom_site_label
_atom_site_fract_x
_atom_site_fract_y
_atom_site_fract_z
Si Si1 0.809707 0.174645 0.500000
Si Si2 0.113745 0.715004 0.000000
Si Si3 0.554712 0.911195 0.500000
Si Si4 0.000000 0.219870 0.250000
Si Si5 0.646810 0.186601 0.863184
Si Si6 0.648834 0.646339 0.137074
Si Si7 0.108872 0.988588 0.000000
O O1 0.701634 0.154448 0.500000
O O2 0.835195 0.233649 0.423774
O O3 0.857698 0.084972 0.500000
O O4 0.125515 0.775546 0.923416
O O5 0.020199 0.664708 0.000000
O O6 0.614010 0.892027 0.579857
O O7 0.500000 0.000000 0.500000
O O8 0.932487 0.281403 0.302790
O O9 0.930342 0.157584 0.202398
O O10 0.747649 0.160701 0.829714
O O11 0.641401 0.563628 0.079297
O O12 0.000000 0.000000 0.000000
#
# Coordination Sequence:
#
# PCOD9528320 Si02
#       7
#     8   8   8   8  16  16   8
#     4   9  20  37  61  86 115 149 195 246 295 340
#     4   9  18  37  59  84 110 149 194 240 299 342
#     4  11  21  36  66  88 112 144 200 250 296 337
#     4  12  20  38  64  80 122 168 196 224 297 367
#     4  10  22  40  61  88 119 155 196 243 296 351
#     4  10  22  38  59  87 119 154 197 243 286 349
#     4  11  21  36  62  90 117 148 199 251 291 335
#
# _framework density 19.117805000000001
#
# number of rings (size 3 to 8) (size 9 to 14) (size 15 to 20)
#    0.000    1.778    2.222    4.000    6.222    0.000 
#    0.000    5.556    0.000    5.333    0.000    0.000 
#    0.000    0.000    0.000    0.000    0.000    0.000 
#
# Total GULP energy -200797.582098 kJ/mol
# GULP energy per Si atom -5577.710614 kJ/mol
# Density = 1.907429 g / cm^3
# Si number density = 19.117805 Si / 1000 Ang^3
#
#
#
# Elastic Constant Matrix: (Units=GPa)
#
#
# Indices 1 2 3 4 5 6 
#
# 1 156.3121 29.2806 48.0919 0.0000 0.0000 0.0000
# 2 29.2806 78.2827 7.3433 0.0000 0.0000 0.0000
# 3 48.0919 7.3433 69.6616 0.0000 0.0000 0.0000
# 4 0.0000 0.0000 0.0000 4.1838 0.0000 0.0000
# 5 0.0000 0.0000 0.0000 0.0000 48.1992 0.0000
# 6 0.0000 0.0000 0.0000 0.0000 0.0000 33.7579
#
#
#
# Elastic Compliance Matrix: (Units=1/GPa)
#
#
# Indices 1 2 3 4 5 6 
#
# 1 0.008654 -0.002703 -0.005690 0.000000 0.000000 0.000000
# 2 -0.002703 0.013746 0.000417 0.000000 0.000000 0.000000
# 3 -0.005690 0.000417 0.018239 0.000000 0.000000 0.000000
# 4 0.000000 0.000000 0.000000 0.239016 0.000000 0.000000
# 5 0.000000 0.000000 0.000000 0.000000 0.020747 0.000000
# 6 0.000000 0.000000 0.000000 0.000000 0.000000 0.029623
#
#
# Mechanical properties :
#
#
# Convention : Reuss Voigt Hill
#
# Bulk Modulus (GPa) = 40.50530 52.63198 46.56864
# Shear Modulus (GPa) = 14.11605 31.86422 22.99013
#
# Velocity S-wave (km/s) = 2.72025 4.08699 3.47154
# Velocity P-wave (km/s) = 5.57670 7.06126 6.36243
#
# Compressibility (1/GPa) = 0.02468812
#
# Stress axis : x y z
#
# Youngs Moduli (GPa) = 115.54841 72.74726 54.82723
#
# Poissons Ratio (x) = 0.19666 0.31195
# Poissons Ratio (y) = 0.31237 -0.02288
# Poissons Ratio (z) = 0.65744 -0.03035
#
# Static dielectric constant tensor:
#      x y z
#    x 1.423300 0.000000 0.000000 
#    y 0.000000 1.625260 0.000000 
#    z 0.000000 0.000000 1.678880 
# 
# From -- ./inp_files/30344.got.cif
#   From: 2010.05.17/outbox.cif.g08.bks.cpg/sg72_16_cif.got.tgz:30344.got - 2010.06.03 17:03:01.
