data_PCOD9528109
_publ_section_title
;
Structure prediction by ZEFSAII (Michael W. Deem and Ramdas Pophale) SiO2 
 PCOD9528109
Probable space group: I B A M
;
_chemical_formula_sum "Si O2"
_cell_formula_units_Z 96
_cell_length_a 15.601697
_cell_length_b 15.501118
_cell_length_c 20.809068
_cell_angle_alpha 90.000000
_cell_angle_beta 90.000000
_cell_angle_gamma 90.000000
_cell_volume 5032.542960
_symmetry_space_group_name_H-M "I B A M"
_symmetry_group_IT_number 72
_symmetry_cell_setting 'orthorhombic'
loop_
_space_group_symop_operation_xyz
x,y,z
-x,-y,z
x,-y,1/2-z
-x,y,1/2-z
-x,-y,-z
x,y,-z
-x,y,1/2+z
x,-y,1/2+z
1/2+x,1/2+y,1/2+z
1/2-x,1/2-y,1/2+z
1/2+x,1/2-y,-z
1/2-x,1/2+y,-z
1/2-x,1/2-y,1/2-z
1/2+x,1/2+y,1/2-z
1/2-x,1/2+y,z
1/2+x,1/2-y,z
loop_
_atom_site_type_symbol
_atom_site_label
_atom_site_fract_x
_atom_site_fract_y
_atom_site_fract_z
Si Si1 0.352660 0.609316 0.642390
Si Si2 0.427924 0.214045 0.194486
Si Si3 0.865729 0.695324 0.000000
Si Si4 0.960154 0.409526 0.611329
Si Si5 0.517171 0.641866 0.500000
Si Si6 0.327198 0.346053 0.000000
Si Si7 0.680533 0.908514 0.719585
Si Si8 0.000000 0.000000 0.889223
O O1 0.401651 0.697022 0.661217
O O2 0.327932 0.602788 0.566973
O O3 0.265332 0.615243 0.681298
O O4 0.418571 0.530380 0.652154
O O5 0.500000 0.228315 0.250000
O O6 0.466104 0.151989 0.139590
O O7 0.350538 0.163837 0.230063
O O8 0.902515 0.641601 0.060286
O O9 0.908591 0.788811 0.000000
O O10 0.762661 0.703985 0.000000
O O11 0.898773 0.425920 0.671996
O O12 0.000000 0.500000 0.588078
O O13 0.424608 0.691068 0.500000
O O14 0.520562 0.579771 0.437515
O O15 0.699932 0.000000 0.750000
#
# Coordination Sequence:
#
# PCOD9528109 Si02
#       8
#    16  16   8  16   8   8  16   8
#     4  11  22  42  64  95 129 169 216 271 316 381
#     4  10  23  39  65  91 126 172 217 256 323 385
#     4  12  22  39  66 100 126 164 218 276 318 398
#     4  11  21  39  64  91 125 164 210 262 330 388
#     4   9  20  41  63  89 127 177 200 251 335 389
#     4  10  21  40  63  89 135 159 207 268 333 382
#     4  11  22  40  62  90 129 172 211 264 322 381
#     4   9  20  40  65  84 124 172 207 251 320 386
#
# _framework density 19.075842999999999
#
# number of rings (size 3 to 8) (size 9 to 14) (size 15 to 20)
#    0.000    1.500    3.333    3.250    0.000    1.333 
#    3.000    0.000    0.000    0.000    0.000    0.000 
#    0.000    0.000    0.000    0.000    0.000    0.000 
#
# Total GULP energy -267673.118122 kJ/mol
# GULP energy per Si atom -5576.523294 kJ/mol
# Density = 1.903243 g / cm^3
# Si number density = 19.075843 Si / 1000 Ang^3
#
#
#
# Elastic Constant Matrix: (Units=GPa)
#
#
# Indices 1 2 3 4 5 6 
#
# 1 131.0347 47.2477 13.8481 0.0000 0.0000 0.0000
# 2 47.2477 90.0384 16.5884 0.0000 0.0000 0.0000
# 3 13.8481 16.5884 59.6542 0.0000 0.0000 0.0000
# 4 0.0000 0.0000 0.0000 15.2319 0.0000 0.0000
# 5 0.0000 0.0000 0.0000 0.0000 28.3030 0.0000
# 6 0.0000 0.0000 0.0000 0.0000 0.0000 29.5537
#
#
#
# Elastic Compliance Matrix: (Units=1/GPa)
#
#
# Indices 1 2 3 4 5 6 
#
# 1 0.009454 -0.004803 -0.000859 0.000000 0.000000 0.000000
# 2 -0.004803 0.014146 -0.002819 0.000000 0.000000 0.000000
# 3 -0.000859 -0.002819 0.017747 0.000000 0.000000 0.000000
# 4 0.000000 0.000000 0.000000 0.065652 0.000000 0.000000
# 5 0.000000 0.000000 0.000000 0.000000 0.035332 0.000000
# 6 0.000000 0.000000 0.000000 0.000000 0.000000 0.033837
#
#
# Mechanical properties :
#
#
# Convention : Reuss Voigt Hill
#
# Bulk Modulus (GPa) = 41.00829 48.45509 44.73169
# Shear Modulus (GPa) = 24.84390 28.15394 26.49892
#
# Velocity S-wave (km/s) = 3.61276 3.84591 3.73115
# Velocity P-wave (km/s) = 6.24074 6.72144 6.48555
#
# Compressibility (1/GPa) = 0.02438531
#
# Stress axis : x y z
#
# Youngs Moduli (GPa) = 105.77406 70.69165 56.34900
#
# Poissons Ratio (x) = 0.33952 0.04841
# Poissons Ratio (y) = 0.50801 0.15883
# Poissons Ratio (z) = 0.09087 0.19926
#
# Static dielectric constant tensor:
#      x y z
#    x 1.678930 0.000000 0.000000 
#    y 0.000000 1.642290 0.000000 
#    z 0.000000 0.000000 1.689930 
# 
# From -- ./inp_files/38090.got.cif
#   From: 2010.05.17/outbox.cif.g08.bks.cpg/sg72_20_cif.got.tgz:38090.got - 2010.06.03 17:03:01.
