data_PCOD9528902
_publ_section_title
;
Structure prediction by ZEFSAII (Michael W. Deem and Ramdas Pophale) SiO2 
 PCOD9528902
Probable space group: I B A M
;
_chemical_formula_sum "Si O2"
_cell_formula_units_Z 100
_cell_length_a 23.035769
_cell_length_b 9.419275
_cell_length_c 23.648269
_cell_angle_alpha 90.000000
_cell_angle_beta 90.000000
_cell_angle_gamma 90.000000
_cell_volume 5131.207155
_symmetry_space_group_name_H-M "I B A M"
_symmetry_group_IT_number 72
_symmetry_cell_setting 'orthorhombic'
loop_
_space_group_symop_operation_xyz
x,y,z
-x,-y,z
x,-y,1/2-z
-x,y,1/2-z
-x,-y,-z
x,y,-z
-x,y,1/2+z
x,-y,1/2+z
1/2+x,1/2+y,1/2+z
1/2-x,1/2-y,1/2+z
1/2+x,1/2-y,-z
1/2-x,1/2+y,-z
1/2-x,1/2-y,1/2-z
1/2+x,1/2+y,1/2-z
1/2-x,1/2+y,z
1/2+x,1/2-y,z
loop_
_atom_site_type_symbol
_atom_site_label
_atom_site_fract_x
_atom_site_fract_y
_atom_site_fract_z
Si Si1 0.710680 0.500577 0.500000
Si Si2 0.302299 0.342200 0.227415
Si Si3 0.422540 0.876071 0.907922
Si Si4 0.000000 0.000000 0.750000
Si Si5 0.551326 0.202882 0.433694
Si Si6 0.903542 0.823033 0.811884
Si Si7 0.856171 0.083213 0.114073
Si Si8 0.674915 0.822132 0.500000
O O1 0.677640 0.445767 0.556046
O O2 0.706591 0.670714 0.500000
O O3 0.776233 0.443153 0.500000
O O4 0.290526 0.500000 0.250000
O O5 0.250000 0.250000 0.250000
O O6 0.361428 0.300062 0.259045
O O7 0.314573 0.342597 0.160596
O O8 0.481449 0.795755 0.927743
O O9 0.413296 0.822144 0.844746
O O10 0.367961 0.834974 0.946527
O O11 0.431455 0.044161 0.914297
O O12 0.039595 0.899641 0.711492
O O13 0.565590 0.217670 0.500000
O O14 0.587574 0.319992 0.399466
O O15 0.875389 0.936336 0.855818
#
# Coordination Sequence:
#
# PCOD9528902 Si02
#       8
#     8  16  16   4  16  16  16   8
#     4  12  28  39  67  99 131 174 227 274 337 401
#     4  10  24  44  65  92 127 174 221 269 332 397
#     4  11  23  42  65  93 136 173 215 266 339 398
#     4  12  20  44  72 100 132 168 228 288 346 384
#     4  11  22  41  67  99 131 178 213 268 343 405
#     4  11  23  42  69  96 129 176 218 282 335 393
#     4  11  23  44  66  99 129 169 232 272 330 403
#     4  12  26  44  61  96 138 176 218 278 331 403
#
# _framework density 19.488592000000001
#
# number of rings (size 3 to 8) (size 9 to 14) (size 15 to 20)
#    0.000    0.960    6.400    1.440    4.480    1.280 
#    0.000    1.600    0.000    0.000    0.000    0.000 
#    0.000    0.000    0.000    0.000    0.000    0.000 
#
# Total GULP energy -279392.669518 kJ/mol
# GULP energy per Si atom -5587.853390 kJ/mol
# Density = 1.944423 g / cm^3
# Si number density = 19.488592 Si / 1000 Ang^3
#
#
#
# Elastic Constant Matrix: (Units=GPa)
#
#
# Indices 1 2 3 4 5 6 
#
# 1 112.0980 34.4337 33.4354 0.0000 0.0000 0.0000
# 2 34.4337 38.9916 20.9467 0.0000 0.0000 0.0000
# 3 33.4354 20.9467 120.1964 0.0000 0.0000 0.0000
# 4 0.0000 0.0000 0.0000 24.4434 0.0000 0.0000
# 5 0.0000 0.0000 0.0000 0.0000 1.7924 0.0000
# 6 0.0000 0.0000 0.0000 0.0000 0.0000 26.8126
#
#
#
# Elastic Compliance Matrix: (Units=1/GPa)
#
#
# Indices 1 2 3 4 5 6 
#
# 1 0.012556 -0.010164 -0.001722 0.000000 0.000000 0.000000
# 2 -0.010164 0.036523 -0.003538 0.000000 0.000000 0.000000
# 3 -0.001722 -0.003538 0.009415 0.000000 0.000000 0.000000
# 4 0.000000 0.000000 0.000000 0.040911 0.000000 0.000000
# 5 0.000000 0.000000 0.000000 0.000000 0.557920 0.000000
# 6 0.000000 0.000000 0.000000 0.000000 0.000000 0.037296
#
#
# Mechanical properties :
#
#
# Convention : Reuss Voigt Hill
#
# Bulk Modulus (GPa) = 36.16856 49.87971 43.02414
# Shear Modulus (GPa) = 6.80566 22.77436 14.79001
#
# Velocity S-wave (km/s) = 1.87075 3.42219 2.75781
# Velocity P-wave (km/s) = 4.82342 6.42379 5.68025
#
# Compressibility (1/GPa) = 0.02764832
#
# Stress axis : x y z
#
# Youngs Moduli (GPa) = 79.64139 27.38036 106.21226
#
# Poissons Ratio (x) = 0.27828 0.18285
# Poissons Ratio (y) = 0.80945 0.37573
# Poissons Ratio (z) = 0.13711 0.09686
#
# Static dielectric constant tensor:
#      x y z
#    x 1.685760 0.000000 0.000000 
#    y 0.000000 1.662260 0.000000 
#    z 0.000000 0.000000 1.667690 
# 
# From -- ./inp_files/49459.got.cif
#   From: 2010.05.17/outbox.cif.g08.bks.cpg/sg72_25_cif.got.tgz:49459.got - 2010.06.03 17:03:01.
