data_PCOD9528522
_publ_section_title
;
Structure prediction by ZEFSAII (Michael W. Deem and Ramdas Pophale) SiO2 
 PCOD9528522
Probable space group: I B A M
;
_chemical_formula_sum "Si O2"
_cell_formula_units_Z 112
_cell_length_a 11.928251
_cell_length_b 19.532510
_cell_length_c 24.222253
_cell_angle_alpha 90.000000
_cell_angle_beta 90.000000
_cell_angle_gamma 90.000000
_cell_volume 5643.510800
_symmetry_space_group_name_H-M "I B A M"
_symmetry_group_IT_number 72
_symmetry_cell_setting 'orthorhombic'
loop_
_space_group_symop_operation_xyz
x,y,z
-x,-y,z
x,-y,1/2-z
-x,y,1/2-z
-x,-y,-z
x,y,-z
-x,y,1/2+z
x,-y,1/2+z
1/2+x,1/2+y,1/2+z
1/2-x,1/2-y,1/2+z
1/2+x,1/2-y,-z
1/2-x,1/2+y,-z
1/2-x,1/2-y,1/2-z
1/2+x,1/2+y,1/2-z
1/2-x,1/2+y,z
1/2+x,1/2-y,z
loop_
_atom_site_type_symbol
_atom_site_label
_atom_site_fract_x
_atom_site_fract_y
_atom_site_fract_z
Si Si1 0.789656 0.604527 0.622038
Si Si2 0.862876 0.215717 0.435196
Si Si3 0.539117 0.319497 0.341873
Si Si4 0.875740 0.516841 0.063443
Si Si5 0.591952 0.453064 0.806273
Si Si6 0.506977 0.168073 0.689206
Si Si7 0.288569 0.849648 0.119587
O O1 0.728249 0.669599 0.596330
O O2 0.811404 0.553552 0.571774
O O3 0.708802 0.564099 0.664641
O O4 0.903300 0.628542 0.651627
O O5 0.875948 0.200663 0.500000
O O6 0.819422 0.293047 0.426560
O O7 0.974374 0.199655 0.399189
O O8 0.470273 0.378424 0.308936
O O9 0.544240 0.247604 0.309791
O O10 0.664064 0.343248 0.356774
O O11 0.813960 0.575747 0.096441
O O12 0.000000 0.500000 0.085083
O O13 0.885714 0.537443 0.000000
O O14 0.500000 0.500000 0.838112
O O15 0.610031 0.500000 0.750000
O O16 0.500000 0.138350 0.750000
O O17 0.382156 0.165460 0.665437
#
# Coordination Sequence:
#
# PCOD9528522 Si02
#       7
#    16  16  16  16  16  16  16
#     4  11  22  45  61  95 134 167 221 272 328 398
#     4  10  22  41  68  96 131 172 216 275 335 389
#     4  10  23  43  64  97 133 165 226 275 319 401
#     4  11  23  39  63  91 127 168 207 261 326 391
#     4  10  23  41  66  92 124 173 219 264 329 385
#     4  11  25  41  64  94 132 176 216 274 335 380
#     4  11  22  44  65  97 132 171 220 271 324 404
#
# _framework density 19.845803
#
# number of rings (size 3 to 8) (size 9 to 14) (size 15 to 20)
#    0.000    1.429    2.857    1.714    2.000    5.143 
#    0.000    0.714    0.000    4.714    0.000    0.000 
#    0.000    0.000    0.000    0.000    0.000    0.000 
#
# Total GULP energy -312254.800284 kJ/mol
# GULP energy per Si atom -5575.978576 kJ/mol
# Density = 1.980063 g / cm^3
# Si number density = 19.845803 Si / 1000 Ang^3
#
#
#
# Elastic Constant Matrix: (Units=GPa)
#
#
# Indices 1 2 3 4 5 6 
#
# 1 109.5250 9.9123 21.1464 0.0000 0.0000 0.0000
# 2 9.9123 84.1151 4.1432 0.0000 0.0000 0.0000
# 3 21.1464 4.1432 84.3983 0.0000 0.0000 0.0000
# 4 0.0000 0.0000 0.0000 22.3172 0.0000 0.0000
# 5 0.0000 0.0000 0.0000 0.0000 4.5043 0.0000
# 6 0.0000 0.0000 0.0000 0.0000 0.0000 23.9366
#
#
#
# Elastic Compliance Matrix: (Units=1/GPa)
#
#
# Indices 1 2 3 4 5 6 
#
# 1 0.009682 -0.001024 -0.002376 0.000000 0.000000 0.000000
# 2 -0.001024 0.012026 -0.000334 0.000000 0.000000 0.000000
# 3 -0.002376 -0.000334 0.012460 0.000000 0.000000 0.000000
# 4 0.000000 0.000000 0.000000 0.044809 0.000000 0.000000
# 5 0.000000 0.000000 0.000000 0.000000 0.222012 0.000000
# 6 0.000000 0.000000 0.000000 0.000000 0.000000 0.041777
#
#
# Mechanical properties :
#
#
# Convention : Reuss Voigt Hill
#
# Bulk Modulus (GPa) = 37.45189 38.71583 38.08386
# Shear Modulus (GPa) = 13.92246 26.34072 20.13159
#
# Velocity S-wave (km/s) = 2.65152 3.64712 3.18842
# Velocity P-wave (km/s) = 5.31850 6.10623 5.72593
#
# Compressibility (1/GPa) = 0.02670092
#
# Stress axis : x y z
#
# Youngs Moduli (GPa) = 103.28820 83.15615 80.25580
#
# Poissons Ratio (x) = 0.08514 0.19065
# Poissons Ratio (y) = 0.10576 0.02679
# Poissons Ratio (z) = 0.24536 0.02776
#
# Static dielectric constant tensor:
#      x y z
#    x 1.246460 0.000000 0.000000 
#    y 0.000000 1.706790 0.000000 
#    z 0.000000 0.000000 1.690070 
# 
# From -- ./inp_files/43536.got.cif
#   From: 2010.05.17/outbox.cif.g08.bks.cpg/sg72_22_cif.got.tgz:43536.got - 2010.06.03 17:03:01.
