data_PCOD9528239
_publ_section_title
;
Structure prediction by ZEFSAII (Michael W. Deem and Ramdas Pophale) SiO2 
 PCOD9528239
Probable space group: I B A M
;
_chemical_formula_sum "Si O2"
_cell_formula_units_Z 72
_cell_length_a 14.626500
_cell_length_b 8.950047
_cell_length_c 20.888915
_cell_angle_alpha 90.000000
_cell_angle_beta 90.000000
_cell_angle_gamma 90.000000
_cell_volume 2734.523211
_symmetry_space_group_name_H-M "I B A M"
_symmetry_group_IT_number 72
_symmetry_cell_setting 'orthorhombic'
loop_
_space_group_symop_operation_xyz
x,y,z
-x,-y,z
x,-y,1/2-z
-x,y,1/2-z
-x,-y,-z
x,y,-z
-x,y,1/2+z
x,-y,1/2+z
1/2+x,1/2+y,1/2+z
1/2-x,1/2-y,1/2+z
1/2+x,1/2-y,-z
1/2-x,1/2+y,-z
1/2-x,1/2-y,1/2-z
1/2+x,1/2+y,1/2-z
1/2-x,1/2+y,z
1/2+x,1/2-y,z
loop_
_atom_site_type_symbol
_atom_site_label
_atom_site_fract_x
_atom_site_fract_y
_atom_site_fract_z
Si Si1 0.000000 0.000000 0.386177
Si Si2 0.389666 0.715383 0.698754
Si Si3 0.381964 0.393370 0.500000
Si Si4 0.317643 0.133574 0.695695
Si Si5 0.907832 0.439774 0.901384
Si Si6 0.803800 0.768494 0.500000
O O1 0.070596 0.075449 0.337828
O O2 0.945857 0.106808 0.436640
O O3 0.389540 0.747901 0.774372
O O4 0.280523 0.708816 0.687661
O O5 0.435817 0.853427 0.663136
O O6 0.303705 0.268555 0.500000
O O7 0.331599 0.557361 0.500000
O O8 0.345280 0.069548 0.627264
O O9 0.309651 0.000000 0.750000
O O10 0.000000 0.500000 0.932023
O O11 0.851446 0.320043 0.941563
#
# Coordination Sequence:
#
# PCOD9528239 Si02
#       6
#     8  16   8  16  16   8
#     4  11  22  46  67 112 150 191 247 326 362 461
#     4  10  21  43  68 100 144 187 240 302 375 446
#     4  11  26  44  74 106 159 196 263 308 389 454
#     4   9  21  44  68 100 140 189 236 299 374 458
#     4  11  24  43  69  97 139 185 247 305 371 447
#     4  12  25  48  72 108 143 214 248 317 388 464
#
# _framework density 26.330000999999999
#
# number of rings (size 3 to 8) (size 9 to 14) (size 15 to 20)
#    0.000    1.556    2.222    1.667    0.000    5.778 
#   16.000    0.000    0.000    0.000    0.000    0.000 
#    0.000    0.000    0.000    0.000    0.000    0.000 
#
# Total GULP energy -201499.006133 kJ/mol
# GULP energy per Si atom -5597.194615 kJ/mol
# Density = 2.627007 g / cm^3
# Si number density = 26.330001 Si / 1000 Ang^3
#
#
#
# Elastic Constant Matrix: (Units=GPa)
#
#
# Indices 1 2 3 4 5 6 
#
# 1 100.7213 14.4009 49.8036 0.0000 0.0000 0.0000
# 2 14.4009 67.9075 54.8512 0.0000 0.0000 0.0000
# 3 49.8036 54.8512 119.6305 0.0000 0.0000 0.0000
# 4 0.0000 0.0000 0.0000 38.3105 0.0000 0.0000
# 5 0.0000 0.0000 0.0000 0.0000 22.6184 0.0000
# 6 0.0000 0.0000 0.0000 0.0000 0.0000 42.9184
#
#
#
# Elastic Compliance Matrix: (Units=1/GPa)
#
#
# Indices 1 2 3 4 5 6 
#
# 1 0.012768 0.002518 -0.006470 0.000000 0.000000 0.000000
# 2 0.002518 0.023884 -0.012000 0.000000 0.000000 0.000000
# 3 -0.006470 -0.012000 0.016554 0.000000 0.000000 0.000000
# 4 0.000000 0.000000 0.000000 0.026102 0.000000 0.000000
# 5 0.000000 0.000000 0.000000 0.000000 0.044212 0.000000
# 6 0.000000 0.000000 0.000000 0.000000 0.000000 0.023300
#
#
# Mechanical properties :
#
#
# Convention : Reuss Voigt Hill
#
# Bulk Modulus (GPa) = 46.93927 58.48563 52.71245
# Shear Modulus (GPa) = 26.90719 32.04972 29.47845
#
# Velocity S-wave (km/s) = 3.20022 3.49267 3.34964
# Velocity P-wave (km/s) = 5.61437 6.20691 5.91806
#
# Compressibility (1/GPa) = 0.02130412
#
# Stress axis : x y z
#
# Youngs Moduli (GPa) = 78.32374 41.86859 60.40668
#
# Poissons Ratio (x) = -0.10545 0.39083
# Poissons Ratio (y) = -0.19726 0.72485
# Poissons Ratio (z) = 0.50675 0.50240
#
# Static dielectric constant tensor:
#      x y z
#    x 2.044740 0.000000 0.000000 
#    y 0.000000 2.191120 0.000000 
#    z 0.000000 0.000000 2.127110 
# 
# From -- ./inp_files/48492.got.cif
#   From: 2010.05.17/outbox.cif.g08.bks.cpg/sg72_25_cif.got.tgz:48492.got - 2010.06.03 17:03:01.
