data_PCOD9528184
_publ_section_title
;
Structure prediction by ZEFSAII (Michael W. Deem and Ramdas Pophale) SiO2 
 PCOD9528184
Probable space group: I B A M
;
_chemical_formula_sum "Si O2"
_cell_formula_units_Z 96
_cell_length_a 12.742752
_cell_length_b 14.195796
_cell_length_c 23.942637
_cell_angle_alpha 90.000000
_cell_angle_beta 90.000000
_cell_angle_gamma 90.000000
_cell_volume 4331.067595
_symmetry_space_group_name_H-M "I B A M"
_symmetry_group_IT_number 72
_symmetry_cell_setting 'orthorhombic'
loop_
_space_group_symop_operation_xyz
x,y,z
-x,-y,z
x,-y,1/2-z
-x,y,1/2-z
-x,-y,-z
x,y,-z
-x,y,1/2+z
x,-y,1/2+z
1/2+x,1/2+y,1/2+z
1/2-x,1/2-y,1/2+z
1/2+x,1/2-y,-z
1/2-x,1/2+y,-z
1/2-x,1/2-y,1/2-z
1/2+x,1/2+y,1/2-z
1/2-x,1/2+y,z
1/2+x,1/2-y,z
loop_
_atom_site_type_symbol
_atom_site_label
_atom_site_fract_x
_atom_site_fract_y
_atom_site_fract_z
Si Si1 0.259565 0.620251 0.206110
Si Si2 0.604761 0.438337 0.890103
Si Si3 0.020568 0.230830 0.563509
Si Si4 0.271078 0.600564 0.437952
Si Si5 0.966427 0.604049 0.650937
Si Si6 0.684287 0.162735 0.180074
O O1 0.347438 0.566381 0.171434
O O2 0.284882 0.729347 0.190841
O O3 0.251180 0.608881 0.272570
O O4 0.144867 0.598211 0.181421
O O5 0.500000 0.500000 0.890779
O O6 0.571613 0.335594 0.912026
O O7 0.688197 0.493839 0.928322
O O8 0.996245 0.255394 0.500000
O O9 0.040409 0.321496 0.600967
O O10 0.125733 0.167065 0.563667
O O11 0.223554 0.609644 0.500000
O O12 0.206715 0.630614 0.383248
O O13 0.061301 0.643220 0.689235
O O14 0.000000 0.500000 0.632450
#
# Coordination Sequence:
#
# PCOD9528184 Si02
#       6
#    16  16  16  16  16  16
#     4  11  24  45  71 101 139 179 234 281 342 417
#     4  10  21  42  72 104 133 173 226 284 350 404
#     4  10  21  41  66  97 140 182 227 285 345 404
#     4  10  21  41  69 100 133 174 227 282 347 412
#     4  12  25  43  66  98 139 185 229 274 351 413
#     4  11  24  44  71  97 136 185 228 280 344 410
#
# _framework density 22.165436
#
# number of rings (size 3 to 8) (size 9 to 14) (size 15 to 20)
#    0.000    1.333    3.333    2.000    0.000    6.333 
#    0.000    9.167    0.000    0.000    0.000    0.000 
#    0.000    0.000    0.000    0.000    0.000    0.000 
#
# Total GULP energy -268419.618545 kJ/mol
# GULP energy per Si atom -5592.075386 kJ/mol
# Density = 2.211499 g / cm^3
# Si number density = 22.165436 Si / 1000 Ang^3
#
#
#
# Elastic Constant Matrix: (Units=GPa)
#
#
# Indices 1 2 3 4 5 6 
#
# 1 41.8182 -4.5788 10.1340 0.0000 0.0000 0.0000
# 2 -4.5788 95.9262 20.5531 0.0000 0.0000 0.0000
# 3 10.1340 20.5531 150.9838 0.0000 0.0000 0.0000
# 4 0.0000 0.0000 0.0000 25.6590 0.0000 0.0000
# 5 0.0000 0.0000 0.0000 0.0000 25.8894 0.0000
# 6 0.0000 0.0000 0.0000 0.0000 0.0000 25.1235
#
#
#
# Elastic Compliance Matrix: (Units=1/GPa)
#
#
# Indices 1 2 3 4 5 6 
#
# 1 0.024536 0.001570 -0.001861 0.000000 0.000000 0.000000
# 2 0.001570 0.010838 -0.001581 0.000000 0.000000 0.000000
# 3 -0.001861 -0.001581 0.006963 0.000000 0.000000 0.000000
# 4 0.000000 0.000000 0.000000 0.038973 0.000000 0.000000
# 5 0.000000 0.000000 0.000000 0.000000 0.038626 0.000000
# 6 0.000000 0.000000 0.000000 0.000000 0.000000 0.039803
#
#
# Mechanical properties :
#
#
# Convention : Reuss Voigt Hill
#
# Bulk Modulus (GPa) = 25.91051 37.88277 31.89664
# Shear Modulus (GPa) = 28.35319 32.84238 30.59779
#
# Velocity S-wave (km/s) = 3.58042 3.85345 3.71944
# Velocity P-wave (km/s) = 5.36726 6.07674 5.73299
#
# Compressibility (1/GPa) = 0.03859438
#
# Stress axis : x y z
#
# Youngs Moduli (GPa) = 40.75679 92.26536 143.61025
#
# Poissons Ratio (x) = -0.14484 0.26719
# Poissons Ratio (y) = -0.06398 0.22701
# Poissons Ratio (z) = 0.07583 0.14585
#
# Static dielectric constant tensor:
#      x y z
#    x 1.805620 0.000000 0.000000 
#    y 0.000000 1.837740 0.000000 
#    z 0.000000 0.000000 1.801250 
# 
# From -- ./inp_files/38061.got.cif
#   From: 2010.05.17/outbox.cif.g08.bks.cpg/sg72_20_cif.got.tgz:38061.got - 2010.06.03 17:03:01.
