data_PCOD9528490
_publ_section_title
;
Structure prediction by ZEFSAII (Michael W. Deem and Ramdas Pophale) SiO2 
 PCOD9528490
Probable space group: I B A M
;
_chemical_formula_sum "Si O2"
_cell_formula_units_Z 56
_cell_length_a 21.695534
_cell_length_b 5.550968
_cell_length_c 20.849853
_cell_angle_alpha 90.000000
_cell_angle_beta 90.000000
_cell_angle_gamma 90.000000
_cell_volume 2510.973129
_symmetry_space_group_name_H-M "I B A M"
_symmetry_group_IT_number 72
_symmetry_cell_setting 'orthorhombic'
loop_
_space_group_symop_operation_xyz
x,y,z
-x,-y,z
x,-y,1/2-z
-x,y,1/2-z
-x,-y,-z
x,y,-z
-x,y,1/2+z
x,-y,1/2+z
1/2+x,1/2+y,1/2+z
1/2-x,1/2-y,1/2+z
1/2+x,1/2-y,-z
1/2-x,1/2+y,-z
1/2-x,1/2-y,1/2-z
1/2+x,1/2+y,1/2-z
1/2-x,1/2+y,z
1/2+x,1/2-y,z
loop_
_atom_site_type_symbol
_atom_site_label
_atom_site_fract_x
_atom_site_fract_y
_atom_site_fract_z
Si Si1 0.567677 0.874559 0.428081
Si Si2 0.896299 0.675546 0.310757
Si Si3 0.000000 0.000000 0.851559
Si Si4 0.772251 0.042663 0.177361
O O1 0.592708 0.863571 0.500000
O O2 0.551240 0.618179 0.397509
O O3 0.500000 0.000000 0.431358
O O4 0.606317 0.021201 0.376124
O O5 0.890913 0.500000 0.250000
O O6 0.962670 0.804385 0.311345
O O7 0.842558 0.873261 0.314430
O O8 0.738259 0.277537 0.147765
O O9 0.747112 0.000000 0.250000
#
# Coordination Sequence:
#
# PCOD9528490 Si02
#       4
#    16  16   8  16
#     4   9  20  39  59  84 121 168 213 252 312 396
#     4  11  24  38  60  94 129 162 207 271 331 383
#     4  10  23  37  58  90 131 171 206 264 327 403
#     4  10  22  41  64  90 125 169 219 266 317 383
#
# _framework density 22.302109999999999
#
# number of rings (size 3 to 8) (size 9 to 14) (size 15 to 20)
#    0.000    2.000    0.000    3.000    8.000    7.429 
#    0.000    0.000    0.000    1.714    0.000    0.000 
#    0.000    0.000    0.000    0.000    0.000    0.000 
#
# Total GULP energy -156394.985522 kJ/mol
# GULP energy per Si atom -5585.535197 kJ/mol
# Density = 2.225135 g / cm^3
# Si number density = 22.302110 Si / 1000 Ang^3
#
#
#
# Elastic Constant Matrix: (Units=GPa)
#
#
# Indices 1 2 3 4 5 6 
#
# 1 64.4125 44.2168 62.1794 0.0000 0.0000 0.0000
# 2 44.2168 152.3496 58.3493 0.0000 0.0000 0.0000
# 3 62.1794 58.3493 119.7166 0.0000 0.0000 0.0000
# 4 0.0000 0.0000 0.0000 15.0693 0.0000 0.0000
# 5 0.0000 0.0000 0.0000 0.0000 -2.5647 0.0000
# 6 0.0000 0.0000 0.0000 0.0000 0.0000 57.6481
#
#
#
# Elastic Compliance Matrix: (Units=1/GPa)
#
#
# Indices 1 2 3 4 5 6 
#
# 1 0.032727 -0.003674 -0.015207 0.000000 0.000000 0.000000
# 2 -0.003674 0.008483 -0.002226 0.000000 0.000000 0.000000
# 3 -0.015207 -0.002226 0.017337 0.000000 0.000000 0.000000
# 4 0.000000 0.000000 0.000000 0.066360 0.000000 0.000000
# 5 0.000000 0.000000 0.000000 0.000000 -0.389908 0.000000
# 6 0.000000 0.000000 0.000000 0.000000 0.000000 0.017347
#
#
# Mechanical properties :
#
#
# Convention : Reuss Voigt Hill
#
# Bulk Modulus (GPa) = 61.23218 73.99663 67.61441
# Shear Modulus (GPa) = -25.00056 25.47943 0.23943
#
# Velocity S-wave (km/s) = -3.35176 3.38371 0.32801
# Velocity P-wave (km/s) = 3.54067 6.96543 5.52510
#
# Compressibility (1/GPa) = 0.01633128
#
# Stress axis : x y z
#
# Youngs Moduli (GPa) = 30.55554 117.88534 57.68121
#
# Poissons Ratio (x) = 0.43313 0.87718
# Poissons Ratio (y) = 0.11226 0.12841
# Poissons Ratio (z) = 0.46467 0.26243
#
# Static dielectric constant tensor:
#      x y z
#    x 1.842270 0.000000 0.000000 
#    y 0.000000 1.943190 0.000000 
#    z 0.000000 0.000000 1.798790 
# 
# From -- ./inp_files/39998.got.cif
#   From: 2010.05.17/outbox.cif.g08.bks.cpg/sg72_20_cif.got.tgz:39998.got - 2010.06.03 17:03:01.
