data_PCOD9528713
_publ_section_title
;
Structure prediction by ZEFSAII (Michael W. Deem and Ramdas Pophale) SiO2 
 PCOD9528713
Probable space group: I B A M
;
_chemical_formula_sum "Si O2"
_cell_formula_units_Z 64
_cell_length_a 14.815261
_cell_length_b 8.406098
_cell_length_c 23.222342
_cell_angle_alpha 90.000000
_cell_angle_beta 90.000000
_cell_angle_gamma 90.000000
_cell_volume 2892.076472
_symmetry_space_group_name_H-M "I B A M"
_symmetry_group_IT_number 72
_symmetry_cell_setting 'orthorhombic'
loop_
_space_group_symop_operation_xyz
x,y,z
-x,-y,z
x,-y,1/2-z
-x,y,1/2-z
-x,-y,-z
x,y,-z
-x,y,1/2+z
x,-y,1/2+z
1/2+x,1/2+y,1/2+z
1/2-x,1/2-y,1/2+z
1/2+x,1/2-y,-z
1/2-x,1/2+y,-z
1/2-x,1/2-y,1/2-z
1/2+x,1/2+y,1/2-z
1/2-x,1/2+y,z
1/2+x,1/2-y,z
loop_
_atom_site_type_symbol
_atom_site_label
_atom_site_fract_x
_atom_site_fract_y
_atom_site_fract_z
Si Si1 0.500000 0.000000 0.342141
Si Si2 0.000000 0.254256 0.250000
Si Si3 0.701724 0.297639 0.883772
Si Si4 0.329845 0.578625 0.694397
Si Si5 0.136181 0.480220 0.564843
O O1 0.458893 0.130693 0.299352
O O2 0.429530 0.918870 0.385114
O O3 0.920023 0.158029 0.219703
O O4 0.648884 0.434278 0.849312
O O5 0.763795 0.199627 0.838255
O O6 0.769326 0.392232 0.925747
O O7 0.647495 0.166277 0.919400
O O8 0.281774 0.500000 0.750000
O O9 0.104365 0.457123 0.500000
#
# Coordination Sequence:
#
# PCOD9528713 Si02
#       5
#     8   8  16  16  16
#     4  11  23  40  62  96 127 169 212 260 318 389
#     4  11  23  40  62  94 130 168 206 258 326 384
#     4  10  23  40  64  95 124 161 222 260 318 376
#     4  11  21  38  62  91 130 164 204 261 320 385
#     4  11  22  42  66  92 127 170 216 266 313 373
#
# _framework density 22.129427
#
# number of rings (size 3 to 8) (size 9 to 14) (size 15 to 20)
#    0.000    1.250    2.500    3.750    0.000    2.000 
#    0.000    0.000    0.000    1.500    0.000    0.000 
#    0.000    0.000    0.000    0.000    0.000    0.000 
#
# Total GULP energy -178908.392901 kJ/mol
# GULP energy per Si atom -5590.887278 kJ/mol
# Density = 2.207906 g / cm^3
# Si number density = 22.129427 Si / 1000 Ang^3
#
#
#
# Elastic Constant Matrix: (Units=GPa)
#
#
# Indices 1 2 3 4 5 6 
#
# 1 52.3349 16.1223 26.3874 0.0000 0.0000 0.0000
# 2 16.1223 92.0457 39.4576 0.0000 0.0000 0.0000
# 3 26.3874 39.4576 143.2487 0.0000 0.0000 0.0000
# 4 0.0000 0.0000 0.0000 19.8952 0.0000 0.0000
# 5 0.0000 0.0000 0.0000 0.0000 14.2246 0.0000
# 6 0.0000 0.0000 0.0000 0.0000 0.0000 36.0861
#
#
#
# Elastic Compliance Matrix: (Units=1/GPa)
#
#
# Indices 1 2 3 4 5 6 
#
# 1 0.021501 -0.002345 -0.003315 0.000000 0.000000 0.000000
# 2 -0.002345 0.012575 -0.003032 0.000000 0.000000 0.000000
# 3 -0.003315 -0.003032 0.008427 0.000000 0.000000 0.000000
# 4 0.000000 0.000000 0.000000 0.050263 0.000000 0.000000
# 5 0.000000 0.000000 0.000000 0.000000 0.070301 0.000000
# 6 0.000000 0.000000 0.000000 0.000000 0.000000 0.027711
#
#
# Mechanical properties :
#
#
# Convention : Reuss Voigt Hill
#
# Bulk Modulus (GPa) = 39.80984 50.17378 44.99181
# Shear Modulus (GPa) = 23.09100 27.75197 25.42149
#
# Velocity S-wave (km/s) = 3.23376 3.54513 3.39302
# Velocity P-wave (km/s) = 5.65433 6.28326 5.97708
#
# Compressibility (1/GPa) = 0.02511942
#
# Stress axis : x y z
#
# Youngs Moduli (GPa) = 46.50849 79.52590 118.67293
#
# Poissons Ratio (x) = 0.18650 0.39337
# Poissons Ratio (y) = 0.10907 0.35977
# Poissons Ratio (z) = 0.15416 0.24109
#
# Static dielectric constant tensor:
#      x y z
#    x 1.868610 0.000000 0.000000 
#    y 0.000000 1.852700 0.000000 
#    z 0.000000 0.000000 1.799220 
# 
# From -- ./inp_files/41967.got.cif
#   From: 2010.05.17/outbox.cif.g08.bks.cpg/sg72_21_cif.got.tgz:41967.got - 2010.06.03 17:03:01.
