data_PCOD9528781
_publ_section_title
;
Structure prediction by ZEFSAII (Michael W. Deem and Ramdas Pophale) SiO2 
 PCOD9528781
Probable space group: I B A M
;
_chemical_formula_sum "Si O2"
_cell_formula_units_Z 56
_cell_length_a 29.659836
_cell_length_b 5.511642
_cell_length_c 14.630340
_cell_angle_alpha 90.000000
_cell_angle_beta 90.000000
_cell_angle_gamma 90.000000
_cell_volume 2391.686021
_symmetry_space_group_name_H-M "I B A M"
_symmetry_group_IT_number 72
_symmetry_cell_setting 'orthorhombic'
loop_
_space_group_symop_operation_xyz
x,y,z
-x,-y,z
x,-y,1/2-z
-x,y,1/2-z
-x,-y,-z
x,y,-z
-x,y,1/2+z
x,-y,1/2+z
1/2+x,1/2+y,1/2+z
1/2-x,1/2-y,1/2+z
1/2+x,1/2-y,-z
1/2-x,1/2+y,-z
1/2-x,1/2-y,1/2-z
1/2+x,1/2+y,1/2-z
1/2-x,1/2+y,z
1/2+x,1/2-y,z
loop_
_atom_site_type_symbol
_atom_site_label
_atom_site_fract_x
_atom_site_fract_y
_atom_site_fract_z
Si Si1 0.128541 0.323690 0.098774
Si Si2 0.542309 0.828498 0.897894
Si Si3 0.913613 0.000000 0.750000
Si Si4 0.226161 0.505012 0.139648
O O1 0.086492 0.504350 0.098227
O O2 0.119187 0.156512 0.185624
O O3 0.174902 0.467523 0.109216
O O4 0.129065 0.192032 0.000000
O O5 0.553839 0.640098 0.819585
O O6 0.500000 0.000000 0.876898
O O7 0.535297 0.723300 0.000000
O O8 0.227106 0.500000 0.250000
O O9 0.253499 0.263475 0.109676
#
# Coordination Sequence:
#
# PCOD9528781 Si02
#       4
#    16  16   8  16
#     4  11  26  44  67 103 144 188 239 299 364 436
#     4  10  24  46  71 104 143 182 234 296 360 432
#     4  12  24  43  74 102 134 188 238 294 359 436
#     4  10  23  42  71 104 140 188 245 305 368 441
#
# _framework density 23.414446000000002
#
# number of rings (size 3 to 8) (size 9 to 14) (size 15 to 20)
#    0.000    1.429    0.000    3.429   10.000    5.714 
#    0.000    4.286    0.000    2.571    0.000    0.000 
#    0.000    0.000    0.000    0.000    0.000    0.000 
#
# Total GULP energy -156820.616735 kJ/mol
# GULP energy per Si atom -5600.736312 kJ/mol
# Density = 2.336115 g / cm^3
# Si number density = 23.414446 Si / 1000 Ang^3
#
#
#
# Elastic Constant Matrix: (Units=GPa)
#
#
# Indices 1 2 3 4 5 6 
#
# 1 201.6855 71.7933 30.5486 0.0000 0.0000 0.0000
# 2 71.7933 104.7540 64.1498 0.0000 0.0000 0.0000
# 3 30.5486 64.1498 146.0634 0.0000 0.0000 0.0000
# 4 0.0000 0.0000 0.0000 23.8616 0.0000 0.0000
# 5 0.0000 0.0000 0.0000 0.0000 20.3800 0.0000
# 6 0.0000 0.0000 0.0000 0.0000 0.0000 23.4464
#
#
#
# Elastic Compliance Matrix: (Units=1/GPa)
#
#
# Indices 1 2 3 4 5 6 
#
# 1 0.006631 -0.005055 0.000833 0.000000 0.000000 0.000000
# 2 -0.005055 0.016912 -0.006370 0.000000 0.000000 0.000000
# 3 0.000833 -0.006370 0.009470 0.000000 0.000000 0.000000
# 4 0.000000 0.000000 0.000000 0.041908 0.000000 0.000000
# 5 0.000000 0.000000 0.000000 0.000000 0.049068 0.000000
# 6 0.000000 0.000000 0.000000 0.000000 0.000000 0.042650
#
#
# Mechanical properties :
#
#
# Convention : Reuss Voigt Hill
#
# Bulk Modulus (GPa) = 84.53973 87.27626 85.90799
# Shear Modulus (GPa) = 26.07334 32.60502 29.33918
#
# Velocity S-wave (km/s) = 3.34062 3.73569 3.54367
# Velocity P-wave (km/s) = 7.14590 7.48082 7.31528
#
# Compressibility (1/GPa) = 0.01182876
#
# Stress axis : x y z
#
# Youngs Moduli (GPa) = 150.79621 59.13051 105.59856
#
# Poissons Ratio (x) = 0.29891 -0.08799
# Poissons Ratio (y) = 0.76230 0.67269
# Poissons Ratio (z) = -0.12565 0.37667
#
# Static dielectric constant tensor:
#      x y z
#    x 1.827780 0.000000 0.000000 
#    y 0.000000 1.891280 0.000000 
#    z 0.000000 0.000000 1.996480 
# 
# From -- ./inp_files/26126.got.cif
#   From: 2010.05.17/outbox.cif.g08.bks.cpg/sg72_14_cif.got.tgz:26126.got - 2010.06.03 17:03:01.
