data_PCOD9528520
_publ_section_title
;
Structure prediction by ZEFSAII (Michael W. Deem and Ramdas Pophale) SiO2 
 PCOD9528520
Probable space group: I B A M
;
_chemical_formula_sum "Si O2"
_cell_formula_units_Z 96
_cell_length_a 14.247675
_cell_length_b 19.914665
_cell_length_c 15.340520
_cell_angle_alpha 90.000000
_cell_angle_beta 90.000000
_cell_angle_gamma 90.000000
_cell_volume 4352.683473
_symmetry_space_group_name_H-M "I B A M"
_symmetry_group_IT_number 72
_symmetry_cell_setting 'orthorhombic'
loop_
_space_group_symop_operation_xyz
x,y,z
-x,-y,z
x,-y,1/2-z
-x,y,1/2-z
-x,-y,-z
x,y,-z
-x,y,1/2+z
x,-y,1/2+z
1/2+x,1/2+y,1/2+z
1/2-x,1/2-y,1/2+z
1/2+x,1/2-y,-z
1/2-x,1/2+y,-z
1/2-x,1/2-y,1/2-z
1/2+x,1/2+y,1/2-z
1/2-x,1/2+y,z
1/2+x,1/2-y,z
loop_
_atom_site_type_symbol
_atom_site_label
_atom_site_fract_x
_atom_site_fract_y
_atom_site_fract_z
Si Si1 0.135810 0.129839 0.901958
Si Si2 0.636322 0.896750 0.402325
Si Si3 0.574047 0.130813 0.395953
Si Si4 0.274490 0.323853 0.776957
Si Si5 0.440192 0.289317 0.898096
Si Si6 0.263268 0.971944 0.651403
O O1 0.190432 0.148036 0.814379
O O2 0.165374 0.051061 0.894371
O O3 0.036233 0.167565 0.890725
O O4 0.167828 0.150619 0.000000
O O5 0.642151 0.866231 0.500000
O O6 0.526710 0.903239 0.381207
O O7 0.687011 0.853128 0.329256
O O8 0.689262 0.967072 0.400138
O O9 0.592981 0.130535 0.500000
O O10 0.560440 0.209961 0.370557
O O11 0.655657 0.086145 0.353373
O O12 0.250000 0.250000 0.750000
O O13 0.361364 0.325798 0.842683
O O14 0.415666 0.289022 0.000000
O O15 0.248337 0.000000 0.750000
#
# Coordination Sequence:
#
# PCOD9528520 Si02
#       6
#    16  16  16  16  16  16
#     4  11  24  45  69  97 137 188 239 294 355 425
#     4  11  24  42  65  99 142 184 238 303 367 442
#     4  10  22  41  68 104 143 186 233 299 375 449
#     4  12  24  41  67 104 139 185 239 299 361 430
#     4  10  23  44  73 106 141 182 235 296 367 435
#     4  12  24  44  68 101 140 192 246 293 362 442
#
# _framework density 22.05536
#
# number of rings (size 3 to 8) (size 9 to 14) (size 15 to 20)
#    0.000    1.000    1.667    5.000    0.000    6.667 
#    0.000    0.833    0.000    3.000    0.000    0.000 
#    0.000    0.000    0.000    0.000    0.000    0.000 
#
# Total GULP energy -267598.128642 kJ/mol
# GULP energy per Si atom -5574.961013 kJ/mol
# Density = 2.200516 g / cm^3
# Si number density = 22.055360 Si / 1000 Ang^3
#
#
#
# Elastic Constant Matrix: (Units=GPa)
#
#
# Indices 1 2 3 4 5 6 
#
# 1 77.7872 44.1228 47.3759 0.0000 0.0000 0.0000
# 2 44.1228 69.4333 22.5861 -0.0001 0.0000 0.0000
# 3 47.3759 22.5861 123.1841 -0.0001 0.0000 0.0000
# 4 0.0000 -0.0001 -0.0001 39.6282 0.0000 0.0000
# 5 0.0000 0.0000 0.0000 0.0000 26.9206 0.0000
# 6 0.0000 0.0000 0.0000 0.0000 0.0000 56.8108
#
#
#
# Elastic Compliance Matrix: (Units=1/GPa)
#
#
# Indices 1 2 3 4 5 6 
#
# 1 0.024793 -0.013456 -0.007068 0.000000 0.000000 0.000000
# 2 -0.013456 0.022619 0.001028 0.000000 0.000000 0.000000
# 3 -0.007068 0.001028 0.010648 0.000000 0.000000 0.000000
# 4 0.000000 0.000000 0.000000 0.025235 0.000000 0.000000
# 5 0.000000 0.000000 0.000000 0.000000 0.037146 0.000000
# 6 0.000000 0.000000 0.000000 0.000000 0.000000 0.017602
#
#
# Mechanical properties :
#
#
# Convention : Reuss Voigt Hill
#
# Bulk Modulus (GPa) = 52.44590 55.39712 53.92151
# Shear Modulus (GPa) = 27.26423 35.09325 31.17874
#
# Velocity S-wave (km/s) = 3.51974 3.99324 3.76394
# Velocity P-wave (km/s) = 6.35208 6.81419 6.58719
#
# Compressibility (1/GPa) = 0.01906727
#
# Stress axis : x y z
#
# Youngs Moduli (GPa) = 40.33417 44.21097 93.91630
#
# Poissons Ratio (x) = 0.59490 0.66380
# Poissons Ratio (y) = 0.54273 -0.09653
# Poissons Ratio (z) = 0.28508 -0.04544
#
# Static dielectric constant tensor:
#      x y z
#    x 1.886970 0.000000 0.000000 
#    y 0.000000 2.190440 0.000000 
#    z 0.000000 0.000000 1.837990 
# 
# From -- ./inp_files/21841.got.cif
#   From: 2010.05.17/outbox.cif.g08.bks.cpg/sg72_11_cif.got.tgz:21841.got - 2010.06.03 17:03:01.
