data_PCOD9528846
_publ_section_title
;
Structure prediction by ZEFSAII (Michael W. Deem and Ramdas Pophale) SiO2 
 PCOD9528846
Probable space group: I B A M
;
_chemical_formula_sum "Si O2"
_cell_formula_units_Z 64
_cell_length_a 20.532035
_cell_length_b 5.206205
_cell_length_c 25.474113
_cell_angle_alpha 90.000000
_cell_angle_beta 90.000000
_cell_angle_gamma 90.000000
_cell_volume 2723.029409
_symmetry_space_group_name_H-M "I B A M"
_symmetry_group_IT_number 72
_symmetry_cell_setting 'orthorhombic'
loop_
_space_group_symop_operation_xyz
x,y,z
-x,-y,z
x,-y,1/2-z
-x,y,1/2-z
-x,-y,-z
x,y,-z
-x,y,1/2+z
x,-y,1/2+z
1/2+x,1/2+y,1/2+z
1/2-x,1/2-y,1/2+z
1/2+x,1/2-y,-z
1/2-x,1/2+y,-z
1/2-x,1/2-y,1/2-z
1/2+x,1/2+y,1/2-z
1/2-x,1/2+y,z
1/2+x,1/2-y,z
loop_
_atom_site_type_symbol
_atom_site_label
_atom_site_fract_x
_atom_site_fract_y
_atom_site_fract_z
Si Si1 0.650187 0.924233 0.439070
Si Si2 0.074251 0.076252 0.599749
Si Si3 0.429286 0.076888 0.810668
Si Si4 0.713717 0.067284 0.837616
O O1 0.666149 0.923649 0.500000
O O2 0.617316 0.655820 0.421863
O O3 0.399612 0.839690 0.426609
O O4 0.711877 0.955262 0.400893
O O5 0.080358 0.141469 0.662659
O O6 0.000000 0.000000 0.588451
O O7 0.362430 0.935828 0.824918
O O8 0.500000 0.000000 0.834161
O O9 0.434884 0.000000 0.750000
O O10 0.749603 0.815444 0.817733
#
# Coordination Sequence:
#
# PCOD9528846 Si02
#       4
#    16  16  16  16
#     4  11  24  41  65  98 136 183 235 285 341 408
#     4  11  22  41  66  98 142 182 227 287 347 411
#     4  10  23  46  73 103 137 181 231 284 346 414
#     4  11  24  44  68  98 138 180 226 283 344 408
#
# _framework density 23.503233999999999
#
# number of rings (size 3 to 8) (size 9 to 14) (size 15 to 20)
#    0.000    1.250    0.000    7.500    0.000    5.000 
#    0.000   27.500    0.000    0.000    0.000    0.000 
#    0.000    0.000    0.000    0.000    0.000    0.000 
#
# Total GULP energy -178619.852682 kJ/mol
# GULP energy per Si atom -5581.870396 kJ/mol
# Density = 2.344974 g / cm^3
# Si number density = 23.503234 Si / 1000 Ang^3
#
#
#
# Elastic Constant Matrix: (Units=GPa)
#
#
# Indices 1 2 3 4 5 6 
#
# 1 98.4170 47.0346 5.5063 0.0000 0.0000 0.0000
# 2 47.0346 176.0594 25.5335 0.0000 0.0000 0.0000
# 3 5.5063 25.5335 74.3523 0.0000 0.0000 0.0000
# 4 0.0000 0.0000 0.0000 14.5660 0.0000 0.0000
# 5 0.0000 0.0000 0.0000 0.0000 21.0696 0.0000
# 6 0.0000 0.0000 0.0000 0.0000 0.0000 33.0513
#
#
#
# Elastic Compliance Matrix: (Units=1/GPa)
#
#
# Indices 1 2 3 4 5 6 
#
# 1 0.011651 -0.003144 0.000217 0.000000 0.000000 0.000000
# 2 -0.003144 0.006826 -0.002111 0.000000 0.000000 0.000000
# 3 0.000217 -0.002111 0.014158 0.000000 0.000000 0.000000
# 4 0.000000 0.000000 0.000000 0.068653 0.000000 0.000000
# 5 0.000000 0.000000 0.000000 0.000000 0.047462 0.000000
# 6 0.000000 0.000000 0.000000 0.000000 0.000000 0.030256
#
#
# Mechanical properties :
#
#
# Convention : Reuss Voigt Hill
#
# Bulk Modulus (GPa) = 44.32874 56.10862 50.21868
# Shear Modulus (GPa) = 25.43191 31.78768 28.60980
#
# Velocity S-wave (km/s) = 3.29304 3.68160 3.49273
# Velocity P-wave (km/s) = 5.77585 6.48049 6.13829
#
# Compressibility (1/GPa) = 0.02255873
#
# Stress axis : x y z
#
# Youngs Moduli (GPa) = 85.82718 146.49740 70.62911
#
# Poissons Ratio (x) = 0.46061 -0.01532
# Poissons Ratio (y) = 0.26985 0.14912
# Poissons Ratio (z) = -0.01861 0.30930
#
# Static dielectric constant tensor:
#      x y z
#    x 1.865190 0.000000 0.000000 
#    y 0.000000 1.923060 0.000000 
#    z 0.000000 0.000000 2.047140 
# 
# From -- ./inp_files/49241.got.cif
#   From: 2010.05.17/outbox.cif.g08.bks.cpg/sg72_25_cif.got.tgz:49241.got - 2010.06.03 17:03:01.
