data_PCOD9528711
_publ_section_title
;
Structure prediction by ZEFSAII (Michael W. Deem and Ramdas Pophale) SiO2 
 PCOD9528711
Probable space group: I B A M
;
_chemical_formula_sum "Si O2"
_cell_formula_units_Z 92
_cell_length_a 8.935417
_cell_length_b 19.258027
_cell_length_c 26.340561
_cell_angle_alpha 90.000000
_cell_angle_beta 90.000000
_cell_angle_gamma 90.000000
_cell_volume 4532.644275
_symmetry_space_group_name_H-M "I B A M"
_symmetry_group_IT_number 72
_symmetry_cell_setting 'orthorhombic'
loop_
_space_group_symop_operation_xyz
x,y,z
-x,-y,z
x,-y,1/2-z
-x,y,1/2-z
-x,-y,-z
x,y,-z
-x,y,1/2+z
x,-y,1/2+z
1/2+x,1/2+y,1/2+z
1/2-x,1/2-y,1/2+z
1/2+x,1/2-y,-z
1/2-x,1/2+y,-z
1/2-x,1/2-y,1/2-z
1/2+x,1/2+y,1/2-z
1/2-x,1/2+y,z
1/2+x,1/2-y,z
loop_
_atom_site_type_symbol
_atom_site_label
_atom_site_fract_x
_atom_site_fract_y
_atom_site_fract_z
Si Si1 0.885724 0.079318 0.656604
Si Si2 0.550548 0.618606 0.000000
Si Si3 0.840727 0.483170 0.604122
Si Si4 0.258898 0.788425 0.325514
Si Si5 0.000000 0.742342 0.750000
Si Si6 0.000000 0.000000 0.250000
Si Si7 0.238178 0.973183 0.500000
Si Si8 0.828630 0.152416 0.892574
O O1 0.810833 0.015202 0.627937
O O2 0.770995 0.141214 0.645700
O O3 0.041731 0.112623 0.638875
O O4 0.905323 0.050330 0.713428
O O5 0.599565 0.659208 0.051005
O O6 0.640969 0.545108 0.000000
O O7 0.378459 0.591299 0.000000
O O8 0.838170 0.520815 0.549709
O O9 0.809891 0.400844 0.602271
O O10 0.000000 0.500000 0.629498
O O11 0.118881 0.781563 0.286149
O O12 0.401058 0.798532 0.289825
O O13 0.282823 0.721792 0.361756
#
# Coordination Sequence:
#
# PCOD9528711 Si02
#       8
#    16   8  16  16   8   4   8  16
#     4  12  24  43  67  94 131 184 221 283 343 411
#     4   9  18  36  69  93 126 177 223 268 330 413
#     4  11  23  38  64  99 134 166 220 287 338 389
#     4  11  24  42  66  95 128 175 227 272 340 414
#     4  10  23  40  64  90 119 170 220 270 323 406
#     4  12  26  44  66  94 130 176 248 284 334 418
#     4   9  17  36  65  95 124 170 226 263 332 404
#     4  11  22  43  66  96 132 177 223 276 336 420
#
# _framework density 20.297203
#
# number of rings (size 3 to 8) (size 9 to 14) (size 15 to 20)
#    0.000    1.217    5.217    0.783    4.870    0.000 
#    0.000    1.739    0.000    0.000    0.000    0.000 
#    0.000    0.000    0.000    0.000    0.000    0.000 
#
# Total GULP energy -256222.866212 kJ/mol
# GULP energy per Si atom -5570.062309 kJ/mol
# Density = 2.025101 g / cm^3
# Si number density = 20.297203 Si / 1000 Ang^3
#
#
#
# Elastic Constant Matrix: (Units=GPa)
#
#
# Indices 1 2 3 4 5 6 
#
# 1 63.1210 24.6697 9.9839 0.0000 0.0000 0.0000
# 2 24.6697 121.1226 43.1943 0.0000 0.0000 0.0000
# 3 9.9839 43.1943 104.9771 0.0000 0.0000 0.0000
# 4 0.0000 0.0000 0.0000 20.9464 0.0000 0.0000
# 5 0.0000 0.0000 0.0000 0.0000 -87.0603 0.0000
# 6 0.0000 0.0000 0.0000 0.0000 0.0000 22.0907
#
#
#
# Elastic Compliance Matrix: (Units=1/GPa)
#
#
# Indices 1 2 3 4 5 6 
#
# 1 0.017217 -0.003425 -0.000228 0.000000 0.000000 0.000000
# 2 -0.003425 0.010357 -0.003936 0.000000 0.000000 0.000000
# 3 -0.000228 -0.003936 0.011167 0.000000 0.000000 0.000000
# 4 0.000000 0.000000 0.000000 0.047741 0.000000 0.000000
# 5 0.000000 0.000000 0.000000 0.000000 -0.011486 0.000000
# 6 0.000000 0.000000 0.000000 0.000000 0.000000 0.045268
#
#
# Mechanical properties :
#
#
# Convention : Reuss Voigt Hill
#
# Bulk Modulus (GPa) = 42.43921 49.43514 45.93718
# Shear Modulus (GPa) = 34.89246 5.28689 20.08967
#
# Velocity S-wave (km/s) = 4.15067 1.61567 3.14948
# Velocity P-wave (km/s) = 6.62760 5.28101 5.99225
#
# Compressibility (1/GPa) = 0.02356311
#
# Stress axis : x y z
#
# Youngs Moduli (GPa) = 58.08071 96.54947 89.54907
#
# Poissons Ratio (x) = 0.33072 0.02042
# Poissons Ratio (y) = 0.19895 0.35246
# Poissons Ratio (z) = 0.01324 0.38001
#
# Static dielectric constant tensor:
#      x y z
#    x 1.819010 0.000000 0.000000 
#    y 0.000000 1.699040 0.000000 
#    z 0.000000 0.000000 1.747830 
# 
# From -- ./inp_files/42342.got.cif
#   From: 2010.05.17/outbox.cif.g08.bks.cpg/sg72_22_cif.got.tgz:42342.got - 2010.06.03 17:03:01.
