data_PCOD9528779
_publ_section_title
;
Structure prediction by ZEFSAII (Michael W. Deem and Ramdas Pophale) SiO2 
 PCOD9528779
Probable space group: I B A M
;
_chemical_formula_sum "Si O2"
_cell_formula_units_Z 60
_cell_length_a 18.159401
_cell_length_b 5.156984
_cell_length_c 25.006700
_cell_angle_alpha 90.000000
_cell_angle_beta 90.000000
_cell_angle_gamma 90.000000
_cell_volume 2341.820950
_symmetry_space_group_name_H-M "I B A M"
_symmetry_group_IT_number 72
_symmetry_cell_setting 'orthorhombic'
loop_
_space_group_symop_operation_xyz
x,y,z
-x,-y,z
x,-y,1/2-z
-x,y,1/2-z
-x,-y,-z
x,y,-z
-x,y,1/2+z
x,-y,1/2+z
1/2+x,1/2+y,1/2+z
1/2-x,1/2-y,1/2+z
1/2+x,1/2-y,-z
1/2-x,1/2+y,-z
1/2-x,1/2-y,1/2-z
1/2+x,1/2+y,1/2-z
1/2-x,1/2+y,z
1/2+x,1/2-y,z
loop_
_atom_site_type_symbol
_atom_site_label
_atom_site_fract_x
_atom_site_fract_y
_atom_site_fract_z
Si Si1 0.552451 0.247529 0.056442
Si Si2 0.801385 0.835350 0.620240
Si Si3 0.000000 0.500000 0.750000
Si Si4 0.578479 0.368000 0.168128
Si Si5 0.801864 0.836985 0.500000
O O1 0.500000 0.500000 0.054846
O O2 0.595264 0.225463 0.112025
O O3 0.500000 0.000000 0.056177
O O4 0.595394 0.242526 0.000000
O O5 0.741491 0.066101 0.624851
O O6 0.860426 0.906600 0.666490
O O7 0.837459 0.840134 0.559888
O O8 0.943395 0.324362 0.715400
O O9 0.500000 0.500000 0.160251
O O10 0.745529 0.075011 0.500000
#
# Coordination Sequence:
#
# PCOD9528779 Si02
#       5
#    16  16   4  16   8
#     4   9  18  34  58  94 132 167 212 272 338 410
#     4  10  23  42  70 103 144 184 231 279 348 427
#     4  12  26  48  70  98 136 184 248 306 362 400
#     4  11  25  44  72 100 141 184 238 293 359 412
#     4   8  16  36  61  97 142 188 216 266 342 428
#
# _framework density 25.621089000000001
#
# number of rings (size 3 to 8) (size 9 to 14) (size 15 to 20)
#    0.000    2.133    1.333    0.400    5.600    0.000 
#    0.000    1.333    0.000    0.000    0.000    0.000 
#    0.000    0.000    0.000    0.000    0.000    0.000 
#
# Total GULP energy -167609.458533 kJ/mol
# GULP energy per Si atom -5586.981951 kJ/mol
# Density = 2.556277 g / cm^3
# Si number density = 25.621089 Si / 1000 Ang^3
#
#
#
# Elastic Constant Matrix: (Units=GPa)
#
#
# Indices 1 2 3 4 5 6 
#
# 1 129.5782 42.9423 25.7092 0.0000 0.0000 0.0000
# 2 42.9423 144.2296 27.9072 0.0000 0.0000 0.0000
# 3 25.7092 27.9072 123.6592 0.0000 0.0000 0.0000
# 4 0.0000 0.0000 0.0000 58.8322 0.0000 0.0000
# 5 0.0000 0.0000 0.0000 0.0000 -27.1964 0.0000
# 6 0.0000 0.0000 0.0000 0.0000 0.0000 37.8950
#
#
#
# Elastic Compliance Matrix: (Units=1/GPa)
#
#
# Indices 1 2 3 4 5 6 
#
# 1 0.008754 -0.002357 -0.001288 0.000000 0.000000 0.000000
# 2 -0.002357 0.007885 -0.001289 0.000000 0.000000 0.000000
# 3 -0.001288 -0.001289 0.008646 0.000000 0.000000 0.000000
# 4 0.000000 0.000000 0.000000 0.016997 0.000000 0.000000
# 5 0.000000 0.000000 0.000000 0.000000 -0.036770 0.000000
# 6 0.000000 0.000000 0.000000 0.000000 0.000000 0.026389
#
#
# Mechanical properties :
#
#
# Convention : Reuss Voigt Hill
#
# Bulk Modulus (GPa) = 64.87123 65.62049 65.24586
# Shear Modulus (GPa) = 106.59068 33.96672 70.27870
#
# Velocity S-wave (km/s) = 6.45701 3.64501 5.24305
# Velocity P-wave (km/s) = 8.99806 6.58653 7.88503
#
# Compressibility (1/GPa) = 0.01541515
#
# Stress axis : x y z
#
# Youngs Moduli (GPa) = 114.23254 126.82828 115.66706
#
# Poissons Ratio (x) = 0.29896 0.14898
# Poissons Ratio (y) = 0.26927 0.14913
# Poissons Ratio (z) = 0.14714 0.16352
#
# Static dielectric constant tensor:
#      x y z
#    x 2.031590 0.000000 0.000000 
#    y 0.000000 2.205670 0.000000 
#    z 0.000000 0.000000 2.191020 
# 
# From -- ./inp_files/45133.got.cif
#   From: 2010.05.17/outbox.cif.g08.bks.cpg/sg72_23_cif.got.tgz:45133.got - 2010.06.03 17:03:01.
