data_PCOD9528262
_publ_section_title
;
Structure prediction by ZEFSAII (Michael W. Deem and Ramdas Pophale) SiO2 
 PCOD9528262
Probable space group: I B A M
;
_chemical_formula_sum "Si O2"
_cell_formula_units_Z 120
_cell_length_a 17.723285
_cell_length_b 16.730419
_cell_length_c 20.267959
_cell_angle_alpha 90.000000
_cell_angle_beta 90.000000
_cell_angle_gamma 90.000000
_cell_volume 6009.814345
_symmetry_space_group_name_H-M "I B A M"
_symmetry_group_IT_number 72
_symmetry_cell_setting 'orthorhombic'
loop_
_space_group_symop_operation_xyz
x,y,z
-x,-y,z
x,-y,1/2-z
-x,y,1/2-z
-x,-y,-z
x,y,-z
-x,y,1/2+z
x,-y,1/2+z
1/2+x,1/2+y,1/2+z
1/2-x,1/2-y,1/2+z
1/2+x,1/2-y,-z
1/2-x,1/2+y,-z
1/2-x,1/2-y,1/2-z
1/2+x,1/2+y,1/2-z
1/2-x,1/2+y,z
1/2+x,1/2-y,z
loop_
_atom_site_type_symbol
_atom_site_label
_atom_site_fract_x
_atom_site_fract_y
_atom_site_fract_z
Si Si1 0.127811 0.152013 0.500000
Si Si2 0.368118 0.623476 0.290270
Si Si3 0.997846 0.857757 0.385582
Si Si4 0.780024 0.231666 0.118133
Si Si5 0.889986 0.283509 0.420195
Si Si6 0.293270 0.093144 0.079205
Si Si7 0.360740 0.552014 0.851690
Si Si8 0.919560 0.466570 0.580142
O O1 0.188832 0.178297 0.442206
O O2 0.064280 0.134564 0.442356
O O3 0.450987 0.645610 0.317471
O O4 0.309344 0.688621 0.316505
O O5 0.360929 0.608381 0.212908
O O6 0.353852 0.537815 0.325274
O O7 0.045215 0.777073 0.397937
O O8 0.059626 0.928218 0.385422
O O9 0.690435 0.238254 0.110762
O O10 0.813170 0.320589 0.109058
O O11 0.884186 0.278198 0.500000
O O12 0.908140 0.374713 0.401414
O O13 0.209243 0.069987 0.101149
O O14 0.351586 0.024616 0.100739
O O15 0.296408 0.100889 0.000000
O O16 0.919995 0.468460 0.500000
O O17 0.000000 0.500000 0.602880
#
# Coordination Sequence:
#
# PCOD9528262 Si02
#       8
#     8  16  16  16  16  16  16  16
#     4  10  22  34  59  93 131 159 199 260 327 383
#     4  10  25  43  66  90 127 176 221 264 324 386
#     4  11  22  37  63  96 124 173 208 266 329 387
#     4  11  21  39  63  92 129 169 211 264 325 391
#     4  11  20  36  60  88 132 165 209 266 334 388
#     4  11  22  38  65  98 134 168 217 274 331 392
#     4  11  23  45  65  92 130 173 219 269 321 393
#     4   9  21  34  57  90 126 170 210 258 325 396
#
# _framework density 19.967338999999999
#
# number of rings (size 3 to 8) (size 9 to 14) (size 15 to 20)
#    0.000    1.467    3.333    1.600    4.667    1.600 
#    4.800    2.667    0.000    0.000    0.000    6.533 
#    0.000    0.000    0.000    0.000    0.000    0.000 
#
# Total GULP energy -334261.818186 kJ/mol
# GULP energy per Si atom -5571.030303 kJ/mol
# Density = 1.992189 g / cm^3
# Si number density = 19.967339 Si / 1000 Ang^3
#
#
#
# Elastic Constant Matrix: (Units=GPa)
#
#
# Indices 1 2 3 4 5 6 
#
# 1 67.3584 25.1228 6.7697 0.0000 0.0000 0.0000
# 2 25.1228 92.3785 27.2616 0.0000 0.0000 0.0000
# 3 6.7697 27.2616 33.2166 0.0000 0.0000 0.0000
# 4 0.0000 0.0000 0.0000 24.1524 0.0000 0.0000
# 5 0.0000 0.0000 0.0000 0.0000 21.4220 0.0000
# 6 0.0000 0.0000 0.0000 0.0000 0.0000 33.0959
#
#
#
# Elastic Compliance Matrix: (Units=1/GPa)
#
#
# Indices 1 2 3 4 5 6 
#
# 1 0.016526 -0.004619 0.000423 0.000000 0.000000 0.000000
# 2 -0.004619 0.015576 -0.011842 0.000000 0.000000 0.000000
# 3 0.000423 -0.011842 0.039738 0.000000 0.000000 0.000000
# 4 0.000000 0.000000 0.000000 0.041404 0.000000 0.000000
# 5 0.000000 0.000000 0.000000 0.000000 0.046681 0.000000
# 6 0.000000 0.000000 0.000000 0.000000 0.000000 0.030215
#
#
# Mechanical properties :
#
#
# Convention : Reuss Voigt Hill
#
# Bulk Modulus (GPa) = 25.14851 34.58464 29.86657
# Shear Modulus (GPa) = 21.23396 24.65402 22.94399
#
# Velocity S-wave (km/s) = 3.26457 3.51767 3.39348
# Velocity P-wave (km/s) = 5.17997 5.81866 5.50858
#
# Compressibility (1/GPa) = 0.03976379
#
# Stress axis : x y z
#
# Youngs Moduli (GPa) = 60.50969 64.20161 25.16462
#
# Poissons Ratio (x) = 0.29656 -0.01064
# Poissons Ratio (y) = 0.27951 0.29800
# Poissons Ratio (z) = -0.02559 0.76028
#
# Static dielectric constant tensor:
#      x y z
#    x 1.687390 0.000000 0.000000 
#    y 0.000000 1.734400 0.000000 
#    z 0.000000 0.000000 1.687950 
# 
# From -- ./inp_files/39276.got.cif
#   From: 2010.05.17/outbox.cif.g08.bks.cpg/sg72_20_cif.got.tgz:39276.got - 2010.06.03 17:03:01.
