data_PCOD9528511
_publ_section_title
;
Structure prediction by ZEFSAII (Michael W. Deem and Ramdas Pophale) SiO2 
 PCOD9528511
Probable space group: I B A M
;
_chemical_formula_sum "Si O2"
_cell_formula_units_Z 96
_cell_length_a 9.522150
_cell_length_b 20.983602
_cell_length_c 25.809042
_cell_angle_alpha 90.000000
_cell_angle_beta 90.000000
_cell_angle_gamma 90.000000
_cell_volume 5156.879022
_symmetry_space_group_name_H-M "I B A M"
_symmetry_group_IT_number 72
_symmetry_cell_setting 'orthorhombic'
loop_
_space_group_symop_operation_xyz
x,y,z
-x,-y,z
x,-y,1/2-z
-x,y,1/2-z
-x,-y,-z
x,y,-z
-x,y,1/2+z
x,-y,1/2+z
1/2+x,1/2+y,1/2+z
1/2-x,1/2-y,1/2+z
1/2+x,1/2-y,-z
1/2-x,1/2+y,-z
1/2-x,1/2-y,1/2-z
1/2+x,1/2+y,1/2-z
1/2-x,1/2+y,z
1/2+x,1/2-y,z
loop_
_atom_site_type_symbol
_atom_site_label
_atom_site_fract_x
_atom_site_fract_y
_atom_site_fract_z
Si Si1 0.390612 0.195394 0.394390
Si Si2 0.654988 0.569190 0.772740
Si Si3 0.842341 0.691924 0.772106
Si Si4 0.080636 0.806282 0.061313
Si Si5 0.896477 0.941518 0.395569
Si Si6 0.911667 0.438319 0.438687
O O1 0.353272 0.198300 0.334092
O O2 0.245889 0.201255 0.426449
O O3 0.495563 0.250546 0.411025
O O4 0.451631 0.125820 0.408320
O O5 0.696236 0.500000 0.750000
O O6 0.500000 0.583894 0.750000
O O7 0.762965 0.625515 0.759881
O O8 0.639888 0.564121 0.834759
O O9 0.750000 0.750000 0.750000
O O10 0.000000 0.693091 0.750000
O O11 0.039823 0.874894 0.084788
O O12 0.056974 0.804934 0.000000
O O13 0.751512 0.950560 0.426386
O O14 0.000000 0.000000 0.403599
O O15 0.930523 0.427549 0.500000
O O16 0.000000 0.500000 0.423058
#
# Coordination Sequence:
#
# PCOD9528511 Si02
#       6
#    16  16  16  16  16  16
#     4  11  23  43  62  93 129 166 211 262 319 377
#     4  11  23  43  66  92 129 173 218 264 325 382
#     4  12  26  42  67  97 130 171 214 267 321 390
#     4  11  23  40  66  92 127 168 213 265 316 380
#     4  11  22  41  64  92 126 167 213 265 316 380
#     4  10  22  41  66  92 129 168 210 266 321 380
#
# _framework density 18.61591
#
# number of rings (size 3 to 8) (size 9 to 14) (size 15 to 20)
#    0.000    1.000    5.000    4.500    2.333    4.333 
#    0.000    1.667    0.000    0.000    0.000    0.000 
#    0.000    0.000    0.000    0.000    0.000    0.000 
#
# Total GULP energy -268300.404091 kJ/mol
# GULP energy per Si atom -5589.591752 kJ/mol
# Density = 1.857354 g / cm^3
# Si number density = 18.615910 Si / 1000 Ang^3
#
#
#
# Elastic Constant Matrix: (Units=GPa)
#
#
# Indices 1 2 3 4 5 6 
#
# 1 82.3375 97.3215 17.8065 0.0000 0.0000 0.0000
# 2 97.3215 207.1437 65.7279 0.0000 0.0000 0.0000
# 3 17.8065 65.7279 106.4110 0.0000 0.0000 0.0000
# 4 0.0000 0.0000 0.0000 30.0941 0.0000 0.0000
# 5 0.0000 0.0000 0.0000 0.0000 34.8716 0.0000
# 6 0.0000 0.0000 0.0000 0.0000 0.0000 48.0247
#
#
#
# Elastic Compliance Matrix: (Units=1/GPa)
#
#
# Indices 1 2 3 4 5 6 
#
# 1 0.028889 -0.014974 0.004415 0.000000 0.000000 0.000000
# 2 -0.014974 0.013765 -0.005997 0.000000 0.000000 0.000000
# 3 0.004415 -0.005997 0.012363 0.000000 0.000000 0.000000
# 4 0.000000 0.000000 0.000000 0.033229 0.000000 0.000000
# 5 0.000000 0.000000 0.000000 0.000000 0.028677 0.000000
# 6 0.000000 0.000000 0.000000 0.000000 0.000000 0.020823
#
#
# Mechanical properties :
#
#
# Convention : Reuss Voigt Hill
#
# Bulk Modulus (GPa) = 45.65045 84.17821 64.91433
# Shear Modulus (GPa) = 28.06480 36.93385 32.49933
#
# Velocity S-wave (km/s) = 3.88696 4.45904 4.18279
# Velocity P-wave (km/s) = 6.68731 8.47510 7.63372
#
# Compressibility (1/GPa) = 0.02190559
#
# Stress axis : x y z
#
# Youngs Moduli (GPa) = 34.61542 72.64591 80.88647
#
# Poissons Ratio (x) = 1.08777 -0.35709
# Poissons Ratio (y) = 0.51832 0.48508
# Poissons Ratio (z) = -0.15282 0.43566
#
# Static dielectric constant tensor:
#      x y z
#    x 1.621490 0.000000 0.000000 
#    y 0.000000 1.650040 0.000000 
#    z 0.000000 0.000000 1.630450 
# 
# From -- ./inp_files/47315.got.cif
#   From: 2010.05.17/outbox.cif.g08.bks.cpg/sg72_24_cif.got.tgz:47315.got - 2010.06.03 17:03:01.
