data_PCOD9528049
_publ_section_title
;
Structure prediction by ZEFSAII (Michael W. Deem and Ramdas Pophale) SiO2 
 PCOD9528049
Probable space group: I B A M
;
_chemical_formula_sum "Si O2"
_cell_formula_units_Z 88
_cell_length_a 14.361149
_cell_length_b 19.460323
_cell_length_c 14.115208
_cell_angle_alpha 90.000000
_cell_angle_beta 90.000000
_cell_angle_gamma 90.000000
_cell_volume 3944.813854
_symmetry_space_group_name_H-M "I B A M"
_symmetry_group_IT_number 72
_symmetry_cell_setting 'orthorhombic'
loop_
_space_group_symop_operation_xyz
x,y,z
-x,-y,z
x,-y,1/2-z
-x,y,1/2-z
-x,-y,-z
x,y,-z
-x,y,1/2+z
x,-y,1/2+z
1/2+x,1/2+y,1/2+z
1/2-x,1/2-y,1/2+z
1/2+x,1/2-y,-z
1/2-x,1/2+y,-z
1/2-x,1/2-y,1/2-z
1/2+x,1/2+y,1/2-z
1/2-x,1/2+y,z
1/2+x,1/2-y,z
loop_
_atom_site_type_symbol
_atom_site_label
_atom_site_fract_x
_atom_site_fract_y
_atom_site_fract_z
Si Si1 0.417080 0.255980 0.113935
Si Si2 0.610186 0.326065 0.114166
Si Si3 0.757509 0.500000 0.750000
Si Si4 0.892623 0.017103 0.386919
Si Si5 0.222384 0.694808 0.612805
Si Si6 0.105486 0.381966 0.266193
O O1 0.513685 0.290720 0.143335
O O2 0.331307 0.306474 0.136431
O O3 0.402734 0.182700 0.163216
O O4 0.417640 0.246528 0.000000
O O5 0.621563 0.403883 0.145229
O O6 0.691533 0.273092 0.137299
O O7 0.606053 0.330369 0.000000
O O8 0.686334 0.524678 0.831839
O O9 0.825557 0.556982 0.705025
O O10 0.880878 0.010044 0.500000
O O11 0.000000 0.000000 0.365641
O O12 0.210533 0.685044 0.500000
O O13 0.153481 0.646797 0.670644
O O14 0.000000 0.406450 0.250000
#
# Coordination Sequence:
#
# PCOD9528049 Si02
#       6
#    16  16   8  16  16  16
#     4  10  21  39  67  98 127 163 213 275 334 388
#     4   9  18  37  65  95 125 159 206 267 326 379
#     4  12  28  44  62  94 134 178 228 262 314 398
#     4  10  23  45  69  95 131 173 214 268 330 390
#     4  10  21  39  64  95 127 163 212 268 324 385
#     4  12  25  43  63  92 129 178 221 268 319 383
#
# _framework density 22.307770000000001
#
# number of rings (size 3 to 8) (size 9 to 14) (size 15 to 20)
#    0.000    1.636    1.818    2.182    2.545    2.909 
#    3.273    0.000    0.000    3.273    0.000    0.000 
#    0.000    0.000    0.000    0.000    0.000    0.000 
#
# Total GULP energy -246094.737147 kJ/mol
# GULP energy per Si atom -5593.062208 kJ/mol
# Density = 2.225700 g / cm^3
# Si number density = 22.307770 Si / 1000 Ang^3
#
#
#
# Elastic Constant Matrix: (Units=GPa)
#
#
# Indices 1 2 3 4 5 6 
#
# 1 155.8776 20.3933 12.7160 0.0000 0.0000 0.0000
# 2 20.3933 50.9844 0.3450 -0.0001 0.0000 0.0000
# 3 12.7160 0.3450 71.7473 -0.0001 0.0000 0.0000
# 4 0.0000 -0.0001 -0.0001 26.8457 0.0000 0.0000
# 5 0.0000 0.0000 0.0000 0.0000 20.4202 0.0000
# 6 0.0000 0.0000 0.0000 0.0000 0.0000 28.4850
#
#
#
# Elastic Compliance Matrix: (Units=1/GPa)
#
#
# Indices 1 2 3 4 5 6 
#
# 1 0.006872 -0.002741 -0.001205 0.000000 0.000000 0.000000
# 2 -0.002741 0.020707 0.000386 0.000000 0.000000 0.000000
# 3 -0.001205 0.000386 0.014149 0.000000 0.000000 0.000000
# 4 0.000000 0.000000 0.000000 0.037250 0.000000 0.000000
# 5 0.000000 0.000000 0.000000 0.000000 0.048971 0.000000
# 6 0.000000 0.000000 0.000000 0.000000 0.000000 0.035106
#
#
# Mechanical properties :
#
#
# Convention : Reuss Voigt Hill
#
# Bulk Modulus (GPa) = 28.89294 38.39087 33.64191
# Shear Modulus (GPa) = 27.51611 31.49385 29.50498
#
# Velocity S-wave (km/s) = 3.51590 3.76145 3.64075
# Velocity P-wave (km/s) = 5.42790 6.00930 5.72599
#
# Compressibility (1/GPa) = 0.03461053
#
# Stress axis : x y z
#
# Youngs Moduli (GPa) = 145.51534 48.29175 70.67403
#
# Poissons Ratio (x) = 0.13235 0.08515
# Poissons Ratio (y) = 0.39881 -0.02729
# Poissons Ratio (z) = 0.17531 -0.01865
#
# Static dielectric constant tensor:
#      x y z
#    x 1.800150 0.000000 0.000000 
#    y 0.000000 1.840930 0.000000 
#    z 0.000000 0.000000 1.832230 
# 
# From -- ./inp_files/21709.got.cif
#   From: 2010.05.17/outbox.cif.g08.bks.cpg/sg72_11_cif.got.tgz:21709.got - 2010.06.03 17:03:01.
