data_PCOD9528456
_publ_section_title
;
Structure prediction by ZEFSAII (Michael W. Deem and Ramdas Pophale) SiO2 
 PCOD9528456
Probable space group: I B A M
;
_chemical_formula_sum "Si O2"
_cell_formula_units_Z 52
_cell_length_a 16.809170
_cell_length_b 10.707595
_cell_length_c 13.836100
_cell_angle_alpha 90.000000
_cell_angle_beta 90.000000
_cell_angle_gamma 90.000000
_cell_volume 2490.301315
_symmetry_space_group_name_H-M "I B A M"
_symmetry_group_IT_number 72
_symmetry_cell_setting 'orthorhombic'
loop_
_space_group_symop_operation_xyz
x,y,z
-x,-y,z
x,-y,1/2-z
-x,y,1/2-z
-x,-y,-z
x,y,-z
-x,y,1/2+z
x,-y,1/2+z
1/2+x,1/2+y,1/2+z
1/2-x,1/2-y,1/2+z
1/2+x,1/2-y,-z
1/2-x,1/2+y,-z
1/2-x,1/2-y,1/2-z
1/2+x,1/2+y,1/2-z
1/2-x,1/2+y,z
1/2+x,1/2-y,z
loop_
_atom_site_type_symbol
_atom_site_label
_atom_site_fract_x
_atom_site_fract_y
_atom_site_fract_z
Si Si1 0.085706 0.463328 0.137939
Si Si2 0.000000 0.000000 0.750000
Si Si3 0.197692 0.684991 0.108178
Si Si4 0.369476 0.305070 0.303193
O O1 0.083763 0.500000 0.250000
O O2 0.154030 0.552296 0.099739
O O3 0.102224 0.317137 0.138289
O O4 0.000000 0.500000 0.098820
O O5 0.938666 0.907906 0.805199
O O6 0.285511 0.659039 0.149709
O O7 0.151295 0.765219 0.191243
O O8 0.199783 0.741888 0.000000
#
# Coordination Sequence:
#
# PCOD9528456 Si02
#       4
#    16   4  16  16
#     4   9  18  38  63  89 119 165 215 260 313 381
#     4  12  24  44  68  96 134 182 212 266 342 392
#     4  10  22  40  66  94 126 171 220 270 324 387
#     4  10  23  40  64  96 132 168 216 270 326 392
#
# _framework density 20.881008000000001
#
# number of rings (size 3 to 8) (size 9 to 14) (size 15 to 20)
#    0.000    2.154    0.000    3.692   10.769    1.846 
#    0.000    6.154    0.000    0.000    0.000    0.000 
#    0.000    0.000    0.000    0.000    0.000    0.000 
#
# Total GULP energy -144978.534220 kJ/mol
# GULP energy per Si atom -5576.097470 kJ/mol
# Density = 2.083348 g / cm^3
# Si number density = 20.881008 Si / 1000 Ang^3
#
#
#
# Elastic Constant Matrix: (Units=GPa)
#
#
# Indices 1 2 3 4 5 6 
#
# 1 180.6474 99.7173 37.0152 0.0000 0.0000 0.0000
# 2 99.7173 124.2241 21.6606 0.0000 0.0000 0.0000
# 3 37.0152 21.6606 138.2046 0.0000 0.0000 0.0000
# 4 0.0000 0.0000 0.0000 4.0793 0.0000 0.0000
# 5 0.0000 0.0000 0.0000 0.0000 109.0592 0.0000
# 6 0.0000 0.0000 0.0000 0.0000 0.0000 40.5956
#
#
#
# Elastic Compliance Matrix: (Units=1/GPa)
#
#
# Indices 1 2 3 4 5 6 
#
# 1 0.010232 -0.007953 -0.001494 0.000000 0.000000 0.000000
# 2 -0.007953 0.014457 -0.000136 0.000000 0.000000 0.000000
# 3 -0.001494 -0.000136 0.007657 0.000000 0.000000 0.000000
# 4 0.000000 0.000000 0.000000 0.245140 0.000000 0.000000
# 5 0.000000 0.000000 0.000000 0.000000 0.009169 0.000000
# 6 0.000000 0.000000 0.000000 0.000000 0.000000 0.024633
#
#
# Mechanical properties :
#
#
# Convention : Reuss Voigt Hill
#
# Bulk Modulus (GPa) = 75.86618 84.42915 80.14766
# Shear Modulus (GPa) = 14.93217 49.72570 32.32893
#
# Velocity S-wave (km/s) = 2.67705 4.88524 3.93904
# Velocity P-wave (km/s) = 6.77989 8.50541 7.69119
#
# Compressibility (1/GPa) = 0.01318110
#
# Stress axis : x y z
#
# Youngs Moduli (GPa) = 97.73640 69.16867 130.59831
#
# Poissons Ratio (x) = 0.55007 0.19510
# Poissons Ratio (y) = 0.77726 0.01775
# Poissons Ratio (z) = 0.14601 0.00940
#
# Static dielectric constant tensor:
#      x y z
#    x 1.739920 0.000000 0.000000 
#    y 0.000000 1.758380 0.000000 
#    z 0.000000 0.000000 1.796340 
# 
# From -- ./inp_files/22676.got.cif
#   From: 2010.05.17/outbox.cif.g08.bks.cpg/sg72_12_cif.got.tgz:22676.got - 2010.06.03 17:03:01.
