data_PCOD9528377
_publ_section_title
;
Structure prediction by ZEFSAII (Michael W. Deem and Ramdas Pophale) SiO2 
 PCOD9528377
Probable space group: I B A M
;
_chemical_formula_sum "Si O2"
_cell_formula_units_Z 116
_cell_length_a 13.301713
_cell_length_b 18.833093
_cell_length_c 24.278202
_cell_angle_alpha 90.000000
_cell_angle_beta 90.000000
_cell_angle_gamma 90.000000
_cell_volume 6081.990602
_symmetry_space_group_name_H-M "I B A M"
_symmetry_group_IT_number 72
_symmetry_cell_setting 'orthorhombic'
loop_
_space_group_symop_operation_xyz
x,y,z
-x,-y,z
x,-y,1/2-z
-x,y,1/2-z
-x,-y,-z
x,y,-z
-x,y,1/2+z
x,-y,1/2+z
1/2+x,1/2+y,1/2+z
1/2-x,1/2-y,1/2+z
1/2+x,1/2-y,-z
1/2-x,1/2+y,-z
1/2-x,1/2-y,1/2-z
1/2+x,1/2+y,1/2-z
1/2-x,1/2+y,z
1/2+x,1/2-y,z
loop_
_atom_site_type_symbol
_atom_site_label
_atom_site_fract_x
_atom_site_fract_y
_atom_site_fract_z
Si Si1 0.186991 0.324544 0.562037
Si Si2 0.009426 0.300116 0.875444
Si Si3 0.228795 0.930832 0.346267
Si Si4 0.882991 0.068287 0.894932
Si Si5 0.000000 0.000000 0.000000
Si Si6 0.555156 0.065553 0.691762
Si Si7 0.966670 0.150245 0.313610
Si Si8 0.711690 0.173500 0.063712
O O1 0.185156 0.352467 0.500000
O O2 0.226945 0.384872 0.602862
O O3 0.259087 0.256550 0.564774
O O4 0.077742 0.294610 0.578831
O O5 0.029418 0.226731 0.843754
O O6 0.109503 0.331247 0.902428
O O7 0.965590 0.358882 0.834792
O O8 0.325610 0.947361 0.308622
O O9 0.144643 0.883028 0.316865
O O10 0.174940 0.000755 0.369424
O O11 0.800385 0.127588 0.909820
O O12 0.960382 0.099698 0.849880
O O13 0.940486 0.044882 0.950580
O O14 0.500000 0.068893 0.750000
O O15 0.500000 0.000000 0.660979
O O16 0.000000 0.155313 0.250000
O O17 0.698356 0.152216 0.000000
#
# Coordination Sequence:
#
# PCOD9528377 Si02
#       8
#    16  16  16  16   4  16  16  16
#     4  10  22  39  64  95 132 170 218 276 335 408
#     4  11  22  43  62  98 132 176 222 283 337 406
#     4  11  24  43  65  97 130 177 224 272 350 402
#     4  12  25  44  69 105 137 182 223 284 346 423
#     4  12  24  44  70 100 150 168 222 280 344 418
#     4  10  23  44  65  90 124 173 227 282 335 398
#     4  12  26  43  66  99 141 180 230 285 341 409
#     4  11  22  38  66  96 129 173 220 268 335 406
#
# _framework density 19.072703000000001
#
# number of rings (size 3 to 8) (size 9 to 14) (size 15 to 20)
#    0.000    0.966    4.828    1.655    0.966    4.414 
#    1.241    2.759    0.000    4.552    0.000    0.000 
#    0.000    0.000    0.000    0.000    0.000    0.000 
#
# Total GULP energy -323345.142065 kJ/mol
# GULP energy per Si atom -5574.916242 kJ/mol
# Density = 1.902929 g / cm^3
# Si number density = 19.072703 Si / 1000 Ang^3
#
#
#
# Elastic Constant Matrix: (Units=GPa)
#
#
# Indices 1 2 3 4 5 6 
#
# 1 124.7957 33.8331 49.7045 0.0000 0.0000 0.0000
# 2 33.8331 85.9754 15.3119 0.0000 0.0000 0.0000
# 3 49.7045 15.3119 98.2204 0.0000 0.0000 0.0000
# 4 0.0000 0.0000 0.0000 21.1045 0.0000 0.0000
# 5 0.0000 0.0000 0.0000 0.0000 16.5685 0.0000
# 6 0.0000 0.0000 0.0000 0.0000 0.0000 41.1652
#
#
#
# Elastic Compliance Matrix: (Units=1/GPa)
#
#
# Indices 1 2 3 4 5 6 
#
# 1 0.010929 -0.003410 -0.004999 0.000000 0.000000 0.000000
# 2 -0.003410 0.013028 -0.000305 0.000000 0.000000 0.000000
# 3 -0.004999 -0.000305 0.012758 0.000000 0.000000 0.000000
# 4 0.000000 0.000000 0.000000 0.047383 0.000000 0.000000
# 5 0.000000 0.000000 0.000000 0.000000 0.060355 0.000000
# 6 0.000000 0.000000 0.000000 0.000000 0.000000 0.024292
#
#
# Mechanical properties :
#
#
# Convention : Reuss Voigt Hill
#
# Bulk Modulus (GPa) = 51.85072 56.29891 54.07482
# Shear Modulus (GPa) = 25.96015 29.77712 27.86864
#
# Velocity S-wave (km/s) = 3.69333 3.95554 3.82668
# Velocity P-wave (km/s) = 6.74036 7.10239 6.92374
#
# Compressibility (1/GPa) = 0.01928614
#
# Stress axis : x y z
#
# Youngs Moduli (GPa) = 91.50286 76.75994 78.37988
#
# Poissons Ratio (x) = 0.26178 0.39180
# Poissons Ratio (y) = 0.31206 0.02391
# Poissons Ratio (z) = 0.45740 0.02342
#
# Static dielectric constant tensor:
#      x y z
#    x 1.667050 0.000000 0.000000 
#    y 0.000000 1.678430 0.000000 
#    z 0.000000 0.000000 1.669440 
# 
# From -- ./inp_files/48210.got.cif
#   From: 2010.05.17/outbox.cif.g08.bks.cpg/sg72_25_cif.got.tgz:48210.got - 2010.06.03 17:03:01.
