data_PCOD9528271
_publ_section_title
;
Structure prediction by ZEFSAII (Michael W. Deem and Ramdas Pophale) SiO2 
 PCOD9528271
Probable space group: I B A M
;
_chemical_formula_sum "Si O2"
_cell_formula_units_Z 112
_cell_length_a 15.512243
_cell_length_b 21.949030
_cell_length_c 14.910265
_cell_angle_alpha 90.000000
_cell_angle_beta 90.000000
_cell_angle_gamma 90.000000
_cell_volume 5076.627450
_symmetry_space_group_name_H-M "I B A M"
_symmetry_group_IT_number 72
_symmetry_cell_setting 'orthorhombic'
loop_
_space_group_symop_operation_xyz
x,y,z
-x,-y,z
x,-y,1/2-z
-x,y,1/2-z
-x,-y,-z
x,y,-z
-x,y,1/2+z
x,-y,1/2+z
1/2+x,1/2+y,1/2+z
1/2-x,1/2-y,1/2+z
1/2+x,1/2-y,-z
1/2-x,1/2+y,-z
1/2-x,1/2-y,1/2-z
1/2+x,1/2+y,1/2-z
1/2-x,1/2+y,z
1/2+x,1/2-y,z
loop_
_atom_site_type_symbol
_atom_site_label
_atom_site_fract_x
_atom_site_fract_y
_atom_site_fract_z
Si Si1 0.085316 0.169706 0.094946
Si Si2 0.549815 0.753676 0.155965
Si Si3 0.333173 0.648766 0.288546
Si Si4 0.353677 0.861100 0.733823
Si Si5 0.553817 0.560497 0.896571
Si Si6 0.133282 0.541186 0.098575
Si Si7 0.436530 0.910525 0.098659
O O1 0.138947 0.161298 0.185464
O O2 0.028514 0.231830 0.094106
O O3 0.016352 0.114699 0.100272
O O4 0.133336 0.165049 0.000000
O O5 0.500000 0.748979 0.250000
O O6 0.621291 0.700900 0.152861
O O7 0.604326 0.815607 0.160957
O O8 0.231570 0.658654 0.286079
O O9 0.371806 0.585640 0.329449
O O10 0.327456 0.922315 0.680637
O O11 0.421400 0.871407 0.813637
O O12 0.500000 0.500000 0.869780
O O13 0.585603 0.551380 0.000000
O O14 0.126918 0.468671 0.108170
O O15 0.033286 0.563274 0.099521
O O16 0.169596 0.555412 0.000000
O O17 0.422626 0.882769 0.000000
#
# Coordination Sequence:
#
# PCOD9528271 Si02
#       7
#    16  16  16  16  16  16  16
#     4   9  19  38  59  79 110 156 200 245 298 356
#     4   9  19  37  58  78 106 150 200 246 289 365
#     4  10  22  36  54  85 125 153 188 256 324 363
#     4  12  21  33  57  89 119 151 192 251 322 377
#     4   9  18  37  63  85 108 154 213 254 289 352
#     4   9  19  36  56  78 111 155 201 244 293 363
#     4   9  19  37  57  78 112 157 199 243 293 364
#
# _framework density 22.061892
#
# number of rings (size 3 to 8) (size 9 to 14) (size 15 to 20)
#    0.000    2.429    0.000    4.286    0.000    4.000 
#    5.143    4.286    0.000    7.714    0.000    0.000 
#    0.000    0.000    0.000    0.000    0.000    0.000 
#
# Total GULP energy -312003.094598 kJ/mol
# GULP energy per Si atom -5571.483832 kJ/mol
# Density = 2.201168 g / cm^3
# Si number density = 22.061892 Si / 1000 Ang^3
#
#
#
# Elastic Constant Matrix: (Units=GPa)
#
#
# Indices 1 2 3 4 5 6 
#
# 1 49.6247 9.7925 7.1284 0.0000 0.0000 0.0000
# 2 9.7925 84.9557 18.6939 0.0002 0.0000 0.0000
# 3 7.1284 18.6939 99.6760 0.0004 0.0000 0.0000
# 4 0.0000 0.0002 0.0004 9.9584 0.0000 0.0000
# 5 0.0000 0.0000 0.0000 0.0000 11.0636 0.0000
# 6 0.0000 0.0000 0.0000 0.0000 0.0000 16.2875
#
#
#
# Elastic Compliance Matrix: (Units=1/GPa)
#
#
# Indices 1 2 3 4 5 6 
#
# 1 0.020731 -0.002152 -0.001079 0.000000 0.000000 0.000000
# 2 -0.002152 0.012501 -0.002191 0.000000 0.000000 0.000000
# 3 -0.001079 -0.002191 0.010521 0.000000 0.000000 0.000000
# 4 0.000000 0.000000 0.000000 0.100418 0.000000 0.000000
# 5 0.000000 0.000000 0.000000 0.000000 0.090386 0.000000
# 6 0.000000 0.000000 0.000000 0.000000 0.000000 0.061397
#
#
# Mechanical properties :
#
#
# Convention : Reuss Voigt Hill
#
# Bulk Modulus (GPa) = 30.38685 33.94288 32.16486
# Shear Modulus (GPa) = 15.73486 20.70469 18.21978
#
# Velocity S-wave (km/s) = 2.67350 3.06679 2.87688
# Velocity P-wave (km/s) = 4.83048 5.28762 5.06421
#
# Compressibility (1/GPa) = 0.03290897
#
# Stress axis : x y z
#
# Youngs Moduli (GPa) = 48.23709 79.99400 95.05247
#
# Poissons Ratio (x) = 0.17216 0.10256
# Poissons Ratio (y) = 0.10381 0.20822
# Poissons Ratio (z) = 0.05205 0.17523
#
# Static dielectric constant tensor:
#      x y z
#    x 1.806450 0.000000 0.000000 
#    y 0.000000 1.893990 0.000000 
#    z 0.000000 0.000000 1.855930 
# 
# From -- ./inp_files/22090.got.cif
#   From: 2010.05.17/outbox.cif.g08.bks.cpg/sg72_12_cif.got.tgz:22090.got - 2010.06.03 17:03:01.
