data_PCOD9528217
_publ_section_title
;
Structure prediction by ZEFSAII (Michael W. Deem and Ramdas Pophale) SiO2 
 PCOD9528217
Probable space group: I B A M
;
_chemical_formula_sum "Si O2"
_cell_formula_units_Z 64
_cell_length_a 26.904940
_cell_length_b 8.703880
_cell_length_c 13.484809
_cell_angle_alpha 90.000000
_cell_angle_beta 90.000000
_cell_angle_gamma 90.000000
_cell_volume 3157.837095
_symmetry_space_group_name_H-M "I B A M"
_symmetry_group_IT_number 72
_symmetry_cell_setting 'orthorhombic'
loop_
_space_group_symop_operation_xyz
x,y,z
-x,-y,z
x,-y,1/2-z
-x,y,1/2-z
-x,-y,-z
x,y,-z
-x,y,1/2+z
x,-y,1/2+z
1/2+x,1/2+y,1/2+z
1/2-x,1/2-y,1/2+z
1/2+x,1/2-y,-z
1/2-x,1/2+y,-z
1/2-x,1/2-y,1/2-z
1/2+x,1/2+y,1/2-z
1/2-x,1/2+y,z
1/2+x,1/2-y,z
loop_
_atom_site_type_symbol
_atom_site_label
_atom_site_fract_x
_atom_site_fract_y
_atom_site_fract_z
Si Si1 0.986672 0.174842 0.864229
Si Si2 0.596141 0.782503 0.000000
Si Si3 0.805138 0.895270 0.500000
Si Si4 0.553833 0.870648 0.500000
Si Si5 0.774674 0.367676 0.325924
Si Si6 0.658406 0.731929 0.500000
O O1 0.019381 0.313238 0.910270
O O2 0.000000 0.179308 0.750000
O O3 0.000000 0.000000 0.895789
O O4 0.930988 0.207306 0.903981
O O5 0.655181 0.745673 0.000000
O O6 0.577686 0.959734 0.000000
O O7 0.769566 0.904639 0.596144
O O8 0.835184 0.051122 0.500000
O O9 0.601147 0.763934 0.500000
O O10 0.792479 0.500000 0.250000
O O11 0.750000 0.250000 0.250000
O O12 0.816394 0.302704 0.400625
#
# Coordination Sequence:
#
# PCOD9528217 Si02
#       6
#    16   8   8   8  16   8
#     4  10  21  42  67  89 123 167 209 259 322 385
#     4  11  24  39  62  93 131 159 210 264 313 379
#     4  11  24  42  65  94 128 173 212 264 321 387
#     4  11  24  39  62  95 127 163 206 268 317 371
#     4  11  24  43  66  92 128 170 214 268 325 379
#     4  11  24  42  65  92 132 167 216 266 317 389
#
# _framework density 20.267036000000001
#
# number of rings (size 3 to 8) (size 9 to 14) (size 15 to 20)
#    0.000    1.250    2.500    4.500    3.500    4.000 
#    4.500    0.000    0.000    0.000    0.000    0.000 
#    0.000    0.000    0.000    0.000    0.000    0.000 
#
# Total GULP energy -178299.860006 kJ/mol
# GULP energy per Si atom -5571.870625 kJ/mol
# Density = 2.022091 g / cm^3
# Si number density = 20.267036 Si / 1000 Ang^3
#
#
#
# Elastic Constant Matrix: (Units=GPa)
#
#
# Indices 1 2 3 4 5 6 
#
# 1 67.8840 -19.5901 -4.5562 0.0000 0.0000 0.0000
# 2 -19.5901 74.2194 5.1063 0.0000 0.0000 0.0000
# 3 -4.5562 5.1063 143.7253 0.0000 0.0000 0.0000
# 4 0.0000 0.0000 0.0000 32.6492 0.0000 0.0000
# 5 0.0000 0.0000 0.0000 0.0000 -261.8796 0.0000
# 6 0.0000 0.0000 0.0000 0.0000 0.0000 37.8748
#
#
#
# Elastic Compliance Matrix: (Units=1/GPa)
#
#
# Indices 1 2 3 4 5 6 
#
# 1 0.015964 0.004189 0.000357 0.000000 0.000000 0.000000
# 2 0.004189 0.014606 -0.000386 0.000000 0.000000 0.000000
# 3 0.000357 -0.000386 0.006983 0.000000 0.000000 0.000000
# 4 0.000000 0.000000 0.000000 0.030629 0.000000 0.000000
# 5 0.000000 0.000000 0.000000 0.000000 -0.003819 0.000000
# 6 0.000000 0.000000 0.000000 0.000000 0.000000 0.026403
#
#
# Mechanical properties :
#
#
# Convention : Reuss Voigt Hill
#
# Bulk Modulus (GPa) = 21.79939 27.52762 24.66351
# Shear Modulus (GPa) = 51.15829 -17.94652 16.60589
#
# Velocity S-wave (km/s) = 5.02960 -2.97897 2.86554
# Velocity P-wave (km/s) = 6.67148 1.33402 4.81083
#
# Compressibility (1/GPa) = 0.04587285
#
# Stress axis : x y z
#
# Youngs Moduli (GPa) = 62.64139 68.46580 143.20988
#
# Poissons Ratio (x) = -0.28681 -0.05116
# Poissons Ratio (y) = -0.26241 0.05530
# Poissons Ratio (z) = -0.02238 0.02644
#
# Static dielectric constant tensor:
#      x y z
#    x 1.812370 0.000000 0.000000 
#    y 0.000000 1.815440 0.000000 
#    z 0.000000 0.000000 1.811850 
# 
# From -- ./inp_files/25687.got.cif
#   From: 2010.05.17/outbox.cif.g08.bks.cpg/sg72_13_cif.got.tgz:25687.got - 2010.06.03 17:03:01.
