data_PCOD9528677
_publ_section_title
;
Structure prediction by ZEFSAII (Michael W. Deem and Ramdas Pophale) SiO2 
 PCOD9528677
Probable space group: I B A M
;
_chemical_formula_sum "Si O2"
_cell_formula_units_Z 88
_cell_length_a 14.050507
_cell_length_b 9.965360
_cell_length_c 26.810261
_cell_angle_alpha 90.000000
_cell_angle_beta 90.000000
_cell_angle_gamma 90.000000
_cell_volume 3753.928788
_symmetry_space_group_name_H-M "I B A M"
_symmetry_group_IT_number 72
_symmetry_cell_setting 'orthorhombic'
loop_
_space_group_symop_operation_xyz
x,y,z
-x,-y,z
x,-y,1/2-z
-x,y,1/2-z
-x,-y,-z
x,y,-z
-x,y,1/2+z
x,-y,1/2+z
1/2+x,1/2+y,1/2+z
1/2-x,1/2-y,1/2+z
1/2+x,1/2-y,-z
1/2-x,1/2+y,-z
1/2-x,1/2-y,1/2-z
1/2+x,1/2+y,1/2-z
1/2-x,1/2+y,z
1/2+x,1/2-y,z
loop_
_atom_site_type_symbol
_atom_site_label
_atom_site_fract_x
_atom_site_fract_y
_atom_site_fract_z
Si Si1 0.190116 0.461855 0.911352
Si Si2 0.135117 0.682913 0.500000
Si Si3 0.353680 0.607743 0.343894
Si Si4 0.913604 0.394731 0.179098
Si Si5 0.000000 0.000000 0.907288
Si Si6 0.201245 0.649604 0.000000
Si Si7 0.761333 0.500000 0.750000
Si Si8 0.035432 0.828421 0.000000
O O1 0.267139 0.369383 0.883297
O O2 0.135554 0.539667 0.868791
O O3 0.230969 0.568462 0.951138
O O4 0.116174 0.386107 0.947608
O O5 0.247357 0.708165 0.500000
O O6 0.078759 0.818155 0.500000
O O7 0.422411 0.736661 0.334974
O O8 0.412782 0.484873 0.368450
O O9 0.303990 0.565477 0.292439
O O10 0.834654 0.398912 0.222835
O O11 0.000000 0.500000 0.190568
O O12 0.048660 0.897411 0.946663
O O13 0.090045 0.687186 0.000000
#
# Coordination Sequence:
#
# PCOD9528677 Si02
#       8
#    16   8  16  16   8   8   8   8
#     4  10  23  38  65  97 135 190 232 280 350 412
#     4  11  22  35  60  92 137 186 227 286 336 407
#     4  11  24  47  71 102 141 181 240 296 357 441
#     4  11  24  45  72 103 138 181 234 300 370 427
#     4  11  24  41  66 102 140 191 228 293 354 408
#     4  11  22  41  64  94 146 189 245 286 346 413
#     4  10  25  51  72 104 130 184 236 303 369 436
#     4  11  24  39  64 100 145 185 243 290 341 423
#
# _framework density 23.442105999999999
#
# number of rings (size 3 to 8) (size 9 to 14) (size 15 to 20)
#    0.000    1.273    0.000    5.182    5.091    5.455 
#   13.091    0.000    0.000    0.000    0.000    0.000 
#    0.000    0.000    0.000    0.000    0.000    0.000 
#
# Total GULP energy -245032.393312 kJ/mol
# GULP energy per Si atom -5568.918030 kJ/mol
# Density = 2.338875 g / cm^3
# Si number density = 23.442106 Si / 1000 Ang^3
#
#
#
# Elastic Constant Matrix: (Units=GPa)
#
#
# Indices 1 2 3 4 5 6 
#
# 1 75.5395 33.2752 52.6181 0.0000 0.0000 0.0000
# 2 33.2752 75.7132 31.1805 0.0000 0.0000 0.0000
# 3 52.6181 31.1805 172.9412 0.0000 0.0000 0.0000
# 4 0.0000 0.0000 0.0000 7.5271 0.0000 0.0000
# 5 0.0000 0.0000 0.0000 0.0000 22.2121 0.0000
# 6 0.0000 0.0000 0.0000 0.0000 0.0000 35.9040
#
#
#
# Elastic Compliance Matrix: (Units=1/GPa)
#
#
# Indices 1 2 3 4 5 6 
#
# 1 0.019434 -0.006596 -0.004724 0.000000 0.000000 0.000000
# 2 -0.006596 0.016506 -0.000969 0.000000 0.000000 0.000000
# 3 -0.004724 -0.000969 0.007394 0.000000 0.000000 0.000000
# 4 0.000000 0.000000 0.000000 0.132853 0.000000 0.000000
# 5 0.000000 0.000000 0.000000 0.000000 0.045021 0.000000
# 6 0.000000 0.000000 0.000000 0.000000 0.000000 0.027852
#
#
# Mechanical properties :
#
#
# Convention : Reuss Voigt Hill
#
# Bulk Modulus (GPa) = 53.31415 62.03796 57.67606
# Shear Modulus (GPa) = 17.86425 26.93665 22.40045
#
# Velocity S-wave (km/s) = 2.76354 3.39347 3.09457
# Velocity P-wave (km/s) = 5.74240 6.47117 6.11764
#
# Compressibility (1/GPa) = 0.01875675
#
# Stress axis : x y z
#
# Youngs Moduli (GPa) = 51.45667 60.58557 135.24059
#
# Poissons Ratio (x) = 0.39960 0.63883
# Poissons Ratio (y) = 0.33939 0.13106
# Poissons Ratio (z) = 0.24306 0.05871
#
# Static dielectric constant tensor:
#      x y z
#    x 1.895850 0.000000 0.000000 
#    y 0.000000 2.004400 0.000000 
#    z 0.000000 0.000000 1.841110 
# 
# From -- ./inp_files/48637.got.cif
#   From: 2010.05.17/outbox.cif.g08.bks.cpg/sg72_25_cif.got.tgz:48637.got - 2010.06.03 17:03:01.
