data_PCOD9528692
_publ_section_title
;
Structure prediction by ZEFSAII (Michael W. Deem and Ramdas Pophale) SiO2 
 PCOD9528692
Probable space group: I B A M
;
_chemical_formula_sum "Si O2"
_cell_formula_units_Z 68
_cell_length_a 19.306555
_cell_length_b 11.911827
_cell_length_c 14.642991
_cell_angle_alpha 90.000000
_cell_angle_beta 90.000000
_cell_angle_gamma 90.000000
_cell_volume 3367.541523
_symmetry_space_group_name_H-M "I B A M"
_symmetry_group_IT_number 72
_symmetry_cell_setting 'orthorhombic'
loop_
_space_group_symop_operation_xyz
x,y,z
-x,-y,z
x,-y,1/2-z
-x,y,1/2-z
-x,-y,-z
x,y,-z
-x,y,1/2+z
x,-y,1/2+z
1/2+x,1/2+y,1/2+z
1/2-x,1/2-y,1/2+z
1/2+x,1/2-y,-z
1/2-x,1/2+y,-z
1/2-x,1/2-y,1/2-z
1/2+x,1/2+y,1/2-z
1/2-x,1/2+y,z
1/2+x,1/2-y,z
loop_
_atom_site_type_symbol
_atom_site_label
_atom_site_fract_x
_atom_site_fract_y
_atom_site_fract_z
Si Si1 0.581857 0.634000 0.249758
Si Si2 0.500000 0.000000 0.750000
Si Si3 0.315834 0.740344 0.392956
Si Si4 0.894343 0.541671 0.394875
Si Si5 0.841657 0.288564 0.608084
O O1 0.590761 0.500000 0.250000
O O2 0.500000 0.657816 0.250000
O O3 0.624064 0.680332 0.163117
O O4 0.616147 0.697216 0.335511
O O5 0.548169 0.930704 0.819318
O O6 0.320976 0.711401 0.500000
O O7 0.330685 0.873380 0.383881
O O8 0.238565 0.711345 0.361760
O O9 0.919147 0.553982 0.500000
O O10 0.872674 0.413086 0.379589
O O11 0.843126 0.263250 0.500000
#
# Coordination Sequence:
#
# PCOD9528692 Si02
#       5
#    16   4  16  16  16
#     4  11  26  43  62  94 128 165 213 253 305 379
#     4  12  22  36  60  86 134 168 180 252 320 360
#     4  10  23  43  68  93 124 164 209 262 312 364
#     4  10  23  39  63  98 123 157 211 252 309 378
#     4  10  23  43  68  93 124 164 209 262 312 364
#
# _framework density 20.192772999999999
#
# number of rings (size 3 to 8) (size 9 to 14) (size 15 to 20)
#    0.000    1.647    0.000    2.471    9.882    1.882 
#    0.000    2.353    0.000    0.000    0.000    0.000 
#    0.000    0.000    0.000    0.000    0.000    0.000 
#
# Total GULP energy -190046.972071 kJ/mol
# GULP energy per Si atom -5589.616826 kJ/mol
# Density = 2.014681 g / cm^3
# Si number density = 20.192773 Si / 1000 Ang^3
#
#
#
# Elastic Constant Matrix: (Units=GPa)
#
#
# Indices 1 2 3 4 5 6 
#
# 1 142.3822 59.0193 69.7830 0.0000 0.0000 0.0000
# 2 59.0193 103.1800 52.4872 0.0000 0.0000 0.0000
# 3 69.7830 52.4872 109.5426 0.0000 0.0000 0.0000
# 4 0.0000 0.0000 0.0000 39.4845 0.0000 0.0000
# 5 0.0000 0.0000 0.0000 0.0000 35.1851 0.0000
# 6 0.0000 0.0000 0.0000 0.0000 0.0000 16.8626
#
#
#
# Elastic Compliance Matrix: (Units=1/GPa)
#
#
# Indices 1 2 3 4 5 6 
#
# 1 0.011168 -0.003662 -0.005360 0.000000 0.000000 0.000000
# 2 -0.003662 0.014016 -0.004383 0.000000 0.000000 0.000000
# 3 -0.005360 -0.004383 0.014644 0.000000 0.000000 0.000000
# 4 0.000000 0.000000 0.000000 0.025326 0.000000 0.000000
# 5 0.000000 0.000000 0.000000 0.000000 0.028421 0.000000
# 6 0.000000 0.000000 0.000000 0.000000 0.000000 0.059303
#
#
# Mechanical properties :
#
#
# Convention : Reuss Voigt Hill
#
# Bulk Modulus (GPa) = 76.81633 79.74264 78.27948
# Shear Modulus (GPa) = 27.16988 29.89410 28.53199
#
# Velocity S-wave (km/s) = 3.67212 3.85182 3.76304
# Velocity P-wave (km/s) = 7.49022 7.70444 7.59808
#
# Compressibility (1/GPa) = 0.01301807
#
# Stress axis : x y z
#
# Youngs Moduli (GPa) = 89.54015 71.34745 68.28890
#
# Poissons Ratio (x) = 0.26124 0.36604
# Poissons Ratio (y) = 0.32786 0.29932
# Poissons Ratio (z) = 0.47995 0.31273
#
# Static dielectric constant tensor:
#      x y z
#    x 1.712580 0.000000 0.000000 
#    y 0.000000 1.693270 0.000000 
#    z 0.000000 0.000000 1.728320 
# 
# From -- ./inp_files/19978.got.cif
#   From: 2010.05.17/outbox.cif.g08.bks.cpg/sg72_10_cif.got.tgz:19978.got - 2010.06.03 17:03:01.
