data_PCOD9528449
_publ_section_title
;
Structure prediction by ZEFSAII (Michael W. Deem and Ramdas Pophale) SiO2 
 PCOD9528449
Probable space group: I B A M
;
_chemical_formula_sum "Si O2"
_cell_formula_units_Z 116
_cell_length_a 17.150855
_cell_length_b 18.431520
_cell_length_c 18.946263
_cell_angle_alpha 90.000000
_cell_angle_beta 90.000000
_cell_angle_gamma 90.000000
_cell_volume 5989.223069
_symmetry_space_group_name_H-M "I B A M"
_symmetry_group_IT_number 72
_symmetry_cell_setting 'orthorhombic'
loop_
_space_group_symop_operation_xyz
x,y,z
-x,-y,z
x,-y,1/2-z
-x,y,1/2-z
-x,-y,-z
x,y,-z
-x,y,1/2+z
x,-y,1/2+z
1/2+x,1/2+y,1/2+z
1/2-x,1/2-y,1/2+z
1/2+x,1/2-y,-z
1/2-x,1/2+y,-z
1/2-x,1/2-y,1/2-z
1/2+x,1/2+y,1/2-z
1/2-x,1/2+y,z
1/2+x,1/2-y,z
loop_
_atom_site_type_symbol
_atom_site_label
_atom_site_fract_x
_atom_site_fract_y
_atom_site_fract_z
Si Si1 0.244259 0.826226 0.578949
Si Si2 0.323682 0.792404 0.718869
Si Si3 0.431793 0.557542 0.583164
Si Si4 0.463678 0.308610 0.818837
Si Si5 0.411142 0.229598 0.583178
Si Si6 0.257243 0.500603 0.081009
Si Si7 0.000000 0.500000 0.750000
Si Si8 0.132378 0.588795 0.330338
O O1 0.270289 0.807599 0.500000
O O2 0.305523 0.805319 0.637508
O O3 0.163477 0.783251 0.591088
O O4 0.236435 0.912589 0.584797
O O5 0.250000 0.750000 0.750000
O O6 0.400051 0.743358 0.717284
O O7 0.334392 0.864968 0.764316
O O8 0.500000 0.500000 0.602533
O O9 0.443919 0.574021 0.500000
O O10 0.434350 0.629576 0.629203
O O11 0.345240 0.526273 0.592158
O O12 0.500000 0.346339 0.750000
O O13 0.521951 0.260688 0.866258
O O14 0.431737 0.228673 0.500000
O O15 0.388844 0.149914 0.611534
O O16 0.196007 0.465293 0.135368
O O17 0.234042 0.481520 0.000000
O O18 0.056867 0.547356 0.699951
#
# Coordination Sequence:
#
# PCOD9528449 Si02
#       8
#    16  16  16  16  16  16   4  16
#     4  10  22  41  64  93 130 167 211 268 326 386
#     4  12  23  41  65  96 125 166 218 274 331 382
#     4  10  22  40  65  95 133 175 213 264 334 406
#     4  12  23  40  60  92 128 166 216 268 324 388
#     4  11  23  41  66  93 129 173 218 271 329 386
#     4  10  22  41  66  98 133 171 218 271 329 397
#     4  12  28  44  66  92 134 184 224 272 344 392
#     4  12  23  44  65  96 130 178 223 276 330 398
#
# _framework density 19.368122
#
# number of rings (size 3 to 8) (size 9 to 14) (size 15 to 20)
#    0.000    0.966    2.759    4.138    0.000    3.586 
#    0.000    5.517    0.000    0.000    0.000    0.000 
#    0.000    0.000    0.000    0.000    0.000    0.000 
#
# Total GULP energy -323974.122153 kJ/mol
# GULP energy per Si atom -5585.760727 kJ/mol
# Density = 1.932404 g / cm^3
# Si number density = 19.368122 Si / 1000 Ang^3
#
#
#
# Elastic Constant Matrix: (Units=GPa)
#
#
# Indices 1 2 3 4 5 6 
#
# 1 61.5451 24.1250 46.6078 0.0000 0.0000 0.0000
# 2 24.1250 71.0266 35.2139 0.0000 0.0000 0.0000
# 3 46.6078 35.2139 101.7177 0.0000 0.0000 0.0000
# 4 0.0000 0.0000 0.0000 65.2921 0.0000 0.0000
# 5 0.0000 0.0000 0.0000 0.0000 42.6917 0.0000
# 6 0.0000 0.0000 0.0000 0.0000 0.0000 -3.4961
#
#
#
# Elastic Compliance Matrix: (Units=1/GPa)
#
#
# Indices 1 2 3 4 5 6 
#
# 1 0.025573 -0.003473 -0.010515 0.000000 0.000000 0.000000
# 2 -0.003473 0.017468 -0.004456 0.000000 0.000000 0.000000
# 3 -0.010515 -0.004456 0.016192 0.000000 0.000000 0.000000
# 4 0.000000 0.000000 0.000000 0.015316 0.000000 0.000000
# 5 0.000000 0.000000 0.000000 0.000000 0.023424 0.000000
# 6 0.000000 0.000000 0.000000 0.000000 0.000000 -0.286035
#
#
# Mechanical properties :
#
#
# Convention : Reuss Voigt Hill
#
# Bulk Modulus (GPa) = 44.75384 49.57586 47.16485
# Shear Modulus (GPa) = -34.78839 29.45373 -2.66733
#
# Velocity S-wave (km/s) = -4.24272 3.90389 -1.17480
# Velocity P-wave (km/s) = 0.91857 6.78031 4.75020
#
# Compressibility (1/GPa) = 0.02234445
#
# Stress axis : x y z
#
# Youngs Moduli (GPa) = 39.10407 57.24743 61.75874
#
# Poissons Ratio (x) = 0.19880 0.64942
# Poissons Ratio (y) = 0.13580 0.27520
# Poissons Ratio (z) = 0.41120 0.25510
#
# Static dielectric constant tensor:
#      x y z
#    x 1.689120 0.000000 0.000000 
#    y 0.000000 1.686930 0.000000 
#    z 0.000000 0.000000 1.683110 
# 
# From -- ./inp_files/31729.got.cif
#   From: 2010.05.17/outbox.cif.g08.bks.cpg/sg72_16_cif.got.tgz:31729.got - 2010.06.03 17:03:01.
