data_PCOD9528381
_publ_section_title
;
Structure prediction by ZEFSAII (Michael W. Deem and Ramdas Pophale) SiO2 
 PCOD9528381
Probable space group: I B A M
;
_chemical_formula_sum "Si O2"
_cell_formula_units_Z 120
_cell_length_a 14.437308
_cell_length_b 19.004556
_cell_length_c 22.225470
_cell_angle_alpha 90.000000
_cell_angle_beta 90.000000
_cell_angle_gamma 90.000000
_cell_volume 6098.105072
_symmetry_space_group_name_H-M "I B A M"
_symmetry_group_IT_number 72
_symmetry_cell_setting 'orthorhombic'
loop_
_space_group_symop_operation_xyz
x,y,z
-x,-y,z
x,-y,1/2-z
-x,y,1/2-z
-x,-y,-z
x,y,-z
-x,y,1/2+z
x,-y,1/2+z
1/2+x,1/2+y,1/2+z
1/2-x,1/2-y,1/2+z
1/2+x,1/2-y,-z
1/2-x,1/2+y,-z
1/2-x,1/2-y,1/2-z
1/2+x,1/2+y,1/2-z
1/2-x,1/2+y,z
1/2+x,1/2-y,z
loop_
_atom_site_type_symbol
_atom_site_label
_atom_site_fract_x
_atom_site_fract_y
_atom_site_fract_z
Si Si1 0.070084 0.634942 0.065941
Si Si2 0.148912 0.813290 0.803320
Si Si3 0.771265 0.080378 0.398396
Si Si4 0.997488 0.217298 0.902100
Si Si5 0.259091 0.046640 0.689972
Si Si6 0.579201 0.613235 0.500000
Si Si7 0.968618 0.581509 0.185433
Si Si8 0.823889 0.779885 0.168439
O O1 0.174260 0.606328 0.073041
O O2 0.059724 0.719187 0.068444
O O3 0.016019 0.611161 0.125767
O O4 0.034187 0.611377 0.000000
O O5 0.058923 0.806630 0.843831
O O6 0.182474 0.893714 0.802069
O O7 0.138117 0.782897 0.736274
O O8 0.232833 0.768031 0.832195
O O9 0.851959 0.080537 0.447485
O O10 0.795742 0.140976 0.349971
O O11 0.759235 0.006366 0.364933
O O12 0.097882 0.243856 0.878562
O O13 0.018337 0.154562 0.947697
O O14 0.358291 0.083894 0.681665
O O15 0.266366 0.000000 0.750000
O O16 0.000000 0.500000 0.187036
O O17 0.000000 0.613252 0.250000
#
# Coordination Sequence:
#
# PCOD9528381 Si02
#       8
#    16  16  16  16  16   8  16  16
#     4  12  23  40  67  99 133 179 219 278 342 408
#     4  11  23  39  66 101 129 170 220 280 338 396
#     4  11  21  41  67  92 133 175 222 262 340 408
#     4  11  23  43  65  95 129 169 225 281 330 395
#     4  12  22  41  64  99 137 176 223 279 342 406
#     4  10  24  44  67  87 123 178 225 270 324 394
#     4  11  22  38  64  98 139 179 217 276 342 420
#     4  10  22  39  66 100 130 168 218 281 335 398
#
# _framework density 19.678242999999998
#
# number of rings (size 3 to 8) (size 9 to 14) (size 15 to 20)
#    0.000    0.933    6.667    1.200    0.000    1.333 
#    1.200    4.000    0.000    0.000    0.000    0.000 
#    0.000    0.000    0.000    0.000    0.000    0.000 
#
# Total GULP energy -334049.815333 kJ/mol
# GULP energy per Si atom -5567.496922 kJ/mol
# Density = 1.963345 g / cm^3
# Si number density = 19.678243 Si / 1000 Ang^3
#
#
#
# Elastic Constant Matrix: (Units=GPa)
#
#
# Indices 1 2 3 4 5 6 
#
# 1 36.9727 3.7799 23.9972 0.0000 0.0000 0.0000
# 2 3.7799 34.1153 2.8960 0.0000 0.0000 0.0000
# 3 23.9972 2.8960 120.0396 0.0000 0.0000 0.0000
# 4 0.0000 0.0000 0.0000 18.3928 0.0000 0.0000
# 5 0.0000 0.0000 0.0000 0.0000 17.7509 0.0000
# 6 0.0000 0.0000 0.0000 0.0000 0.0000 18.0530
#
#
#
# Elastic Compliance Matrix: (Units=1/GPa)
#
#
# Indices 1 2 3 4 5 6 
#
# 1 0.031373 -0.002950 -0.006201 0.000000 0.000000 0.000000
# 2 -0.002950 0.029650 -0.000126 0.000000 0.000000 0.000000
# 3 -0.006201 -0.000126 0.009573 0.000000 0.000000 0.000000
# 4 0.000000 0.000000 0.000000 0.054369 0.000000 0.000000
# 5 0.000000 0.000000 0.000000 0.000000 0.056335 0.000000
# 6 0.000000 0.000000 0.000000 0.000000 0.000000 0.055392
#
#
# Mechanical properties :
#
#
# Convention : Reuss Voigt Hill
#
# Bulk Modulus (GPa) = 19.21443 28.05262 23.63353
# Shear Modulus (GPa) = 18.34238 21.53632 19.93935
#
# Velocity S-wave (km/s) = 3.05637 3.31180 3.18664
# Velocity P-wave (km/s) = 4.71600 5.37686 5.05724
#
# Compressibility (1/GPa) = 0.05204421
#
# Stress axis : x y z
#
# Youngs Moduli (GPa) = 31.87445 33.72699 104.45840
#
# Poissons Ratio (x) = 0.09948 0.64771
# Poissons Ratio (y) = 0.09402 0.01312
# Poissons Ratio (z) = 0.19764 0.00424
#
# Static dielectric constant tensor:
#      x y z
#    x 1.686080 0.000000 0.000000 
#    y 0.000000 1.700150 0.000000 
#    z 0.000000 0.000000 1.695830 
# 
# From -- ./inp_files/38446.got.cif
#   From: 2010.05.17/outbox.cif.g08.bks.cpg/sg72_20_cif.got.tgz:38446.got - 2010.06.03 17:03:01.
