data_PCOD9528236
_publ_section_title
;
Structure prediction by ZEFSAII (Michael W. Deem and Ramdas Pophale) SiO2 
 PCOD9528236
Probable space group: I B A M
;
_chemical_formula_sum "Si O2"
_cell_formula_units_Z 112
_cell_length_a 13.609074
_cell_length_b 13.945957
_cell_length_c 24.303687
_cell_angle_alpha 90.000000
_cell_angle_beta 90.000000
_cell_angle_gamma 90.000000
_cell_volume 4612.634689
_symmetry_space_group_name_H-M "I B A M"
_symmetry_group_IT_number 72
_symmetry_cell_setting 'orthorhombic'
loop_
_space_group_symop_operation_xyz
x,y,z
-x,-y,z
x,-y,1/2-z
-x,y,1/2-z
-x,-y,-z
x,y,-z
-x,y,1/2+z
x,-y,1/2+z
1/2+x,1/2+y,1/2+z
1/2-x,1/2-y,1/2+z
1/2+x,1/2-y,-z
1/2-x,1/2+y,-z
1/2-x,1/2-y,1/2-z
1/2+x,1/2+y,1/2-z
1/2-x,1/2+y,z
1/2+x,1/2-y,z
loop_
_atom_site_type_symbol
_atom_site_label
_atom_site_fract_x
_atom_site_fract_y
_atom_site_fract_z
Si Si1 0.742082 0.420381 0.561176
Si Si2 0.872252 0.414709 0.334749
Si Si3 0.887018 0.180796 0.230476
Si Si4 0.897395 0.623115 0.666602
Si Si5 0.948440 0.898090 0.625376
Si Si6 0.280693 0.858999 0.562880
Si Si7 0.356144 0.290697 0.342932
O O1 0.765935 0.387575 0.500000
O O2 0.832453 0.408319 0.602806
O O3 0.637976 0.378443 0.581769
O O4 0.730881 0.535906 0.560416
O O5 0.848423 0.521821 0.315482
O O6 0.834627 0.312479 0.314232
O O7 0.987733 0.397356 0.326976
O O8 0.865783 0.281054 0.198311
O O9 0.889852 0.100913 0.183215
O O10 0.839262 0.146999 0.287870
O O11 0.000000 0.195268 0.250000
O O12 0.876711 0.633088 0.601232
O O13 0.035069 0.819379 0.633997
O O14 0.000000 0.000000 0.614721
O O15 0.295477 0.827920 0.500000
O O16 0.210959 0.800190 0.603786
#
# Coordination Sequence:
#
# PCOD9528236 Si02
#       7
#    16  16  16  16  16  16  16
#     4  10  23  43  65  94 131 171 219 272 320 384
#     4  10  22  40  64  93 134 168 220 267 322 377
#     4  10  22  41  66  95 131 172 213 270 322 392
#     4  10  21  43  66  92 130 177 217 265 323 385
#     4  11  22  42  67  95 131 172 214 264 331 395
#     4  10  23  43  66  95 131 170 218 269 320 386
#     4  11  23  41  64  99 131 170 212 269 328 388
#
# _framework density 24.281134000000002
#
# number of rings (size 3 to 8) (size 9 to 14) (size 15 to 20)
#    0.000    1.714    4.286    0.000    2.000    5.714 
#    0.000    2.857    0.000    0.000    0.000    0.000 
#    0.000    0.000    0.000    0.000    0.000    0.000 
#
# Total GULP energy -312100.539635 kJ/mol
# GULP energy per Si atom -5573.223922 kJ/mol
# Density = 2.422587 g / cm^3
# Si number density = 24.281134 Si / 1000 Ang^3
#
#
#
# Elastic Constant Matrix: (Units=GPa)
#
#
# Indices 1 2 3 4 5 6 
#
# 1 63.4591 4.9257 7.5010 0.0000 0.0000 0.0000
# 2 4.9257 81.0924 -8.1554 0.0000 0.0000 0.0000
# 3 7.5010 -8.1554 139.1460 0.0000 0.0000 0.0000
# 4 0.0000 0.0000 0.0000 20.5170 0.0000 0.0000
# 5 0.0000 0.0000 0.0000 0.0000 21.1497 0.0000
# 6 0.0000 0.0000 0.0000 0.0000 0.0000 32.1913
#
#
#
# Elastic Compliance Matrix: (Units=1/GPa)
#
#
# Indices 1 2 3 4 5 6 
#
# 1 0.015950 -0.001062 -0.000922 0.000000 0.000000 0.000000
# 2 -0.001062 0.012475 0.000788 0.000000 0.000000 0.000000
# 3 -0.000922 0.000788 0.007283 0.000000 0.000000 0.000000
# 4 0.000000 0.000000 0.000000 0.048740 0.000000 0.000000
# 5 0.000000 0.000000 0.000000 0.000000 0.047282 0.000000
# 6 0.000000 0.000000 0.000000 0.000000 0.000000 0.031064
#
#
# Mechanical properties :
#
#
# Convention : Reuss Voigt Hill
#
# Bulk Modulus (GPa) = 30.01448 32.47115 31.24282
# Shear Modulus (GPa) = 28.36234 33.40000 30.88117
#
# Velocity S-wave (km/s) = 3.42143 3.71287 3.57012
# Velocity P-wave (km/s) = 5.29115 5.63760 5.46712
#
# Compressibility (1/GPa) = 0.03331725
#
# Stress axis : x y z
#
# Youngs Moduli (GPa) = 62.69763 80.15789 137.31349
#
# Poissons Ratio (x) = 0.08509 0.12661
# Poissons Ratio (y) = 0.06656 -0.10826
# Poissons Ratio (z) = 0.05781 -0.06320
#
# Static dielectric constant tensor:
#      x y z
#    x 2.016690 0.000000 0.000000 
#    y 0.000000 2.054610 0.000000 
#    z 0.000000 0.000000 1.901540 
# 
# From -- ./inp_files/44325.got.cif
#   From: 2010.05.17/outbox.cif.g08.bks.cpg/sg72_23_cif.got.tgz:44325.got - 2010.06.03 17:03:01.
