data_PCOD9528620
_publ_section_title
;
Structure prediction by ZEFSAII (Michael W. Deem and Ramdas Pophale) SiO2 
 PCOD9528620
Probable space group: I B A M
;
_chemical_formula_sum "Si O2"
_cell_formula_units_Z 64
_cell_length_a 7.303505
_cell_length_b 11.753589
_cell_length_c 25.516398
_cell_angle_alpha 90.000000
_cell_angle_beta 90.000000
_cell_angle_gamma 90.000000
_cell_volume 2190.388742
_symmetry_space_group_name_H-M "I B A M"
_symmetry_group_IT_number 72
_symmetry_cell_setting 'orthorhombic'
loop_
_space_group_symop_operation_xyz
x,y,z
-x,-y,z
x,-y,1/2-z
-x,y,1/2-z
-x,-y,-z
x,y,-z
-x,y,1/2+z
x,-y,1/2+z
1/2+x,1/2+y,1/2+z
1/2-x,1/2-y,1/2+z
1/2+x,1/2-y,-z
1/2-x,1/2+y,-z
1/2-x,1/2-y,1/2-z
1/2+x,1/2+y,1/2-z
1/2-x,1/2+y,z
1/2+x,1/2-y,z
loop_
_atom_site_type_symbol
_atom_site_label
_atom_site_fract_x
_atom_site_fract_y
_atom_site_fract_z
Si Si1 0.430219 0.651894 0.622306
Si Si2 0.407498 0.121859 0.000000
Si Si3 0.062310 0.129464 0.500000
Si Si4 0.793308 0.879685 0.269035
Si Si5 0.842130 0.595752 0.385660
O O1 0.500000 0.611755 0.750000
O O2 0.363374 0.631560 0.561975
O O3 0.294309 0.615751 0.668251
O O4 0.438434 0.787202 0.630914
O O5 0.296970 0.117873 0.052939
O O6 0.500000 0.000000 0.000000
O O7 0.519443 0.239970 0.000000
O O8 0.000000 0.000000 0.500000
O O9 0.750000 0.750000 0.250000
O O10 0.868714 0.901008 0.133837
O O11 0.702300 0.000000 0.250000
O O12 0.000000 0.500000 0.382306
#
# Coordination Sequence:
#
# PCOD9528620 Si02
#       5
#    16   8   8  16  16
#     4  11  24  48  75 118 162 213 282 343 429 509
#     4   8  17  38  66 105 159 221 274 325 399 502
#     4  10  23  38  73 117 161 216 266 345 425 514
#     4  11  27  55  88 117 158 212 279 354 415 499
#     4  10  22  43  74 110 162 215 272 342 414 500
#
# _framework density 29.21856
#
# number of rings (size 3 to 8) (size 9 to 14) (size 15 to 20)
#    0.000    1.750    0.000    2.250    3.500    4.500 
#   18.000    7.500    0.000    0.000    0.000    0.000 
#    0.000    0.000    0.000    0.000    0.000    0.000 
#
# Total GULP energy -178520.074177 kJ/mol
# GULP energy per Si atom -5578.752318 kJ/mol
# Density = 2.915206 g / cm^3
# Si number density = 29.218560 Si / 1000 Ang^3
#
#
#
# Elastic Constant Matrix: (Units=GPa)
#
#
# Indices 1 2 3 4 5 6 
#
# 1 152.7096 74.0646 68.0111 0.0000 0.0000 0.0000
# 2 74.0646 337.1403 83.5310 0.0000 0.0000 0.0000
# 3 68.0111 83.5310 217.4496 0.0000 0.0000 0.0000
# 4 0.0000 0.0000 0.0000 42.9465 0.0000 0.0000
# 5 0.0000 0.0000 0.0000 0.0000 28.9049 0.0000
# 6 0.0000 0.0000 0.0000 0.0000 0.0000 57.9815
#
#
#
# Elastic Compliance Matrix: (Units=1/GPa)
#
#
# Indices 1 2 3 4 5 6 
#
# 1 0.008071 -0.001268 -0.002037 0.000000 0.000000 0.000000
# 2 -0.001268 0.003477 -0.000939 0.000000 0.000000 0.000000
# 3 -0.002037 -0.000939 0.005597 0.000000 0.000000 0.000000
# 4 0.000000 0.000000 0.000000 0.023285 0.000000 0.000000
# 5 0.000000 0.000000 0.000000 0.000000 0.034596 0.000000
# 6 0.000000 0.000000 0.000000 0.000000 0.000000 0.017247
#
#
# Mechanical properties :
#
#
# Convention : Reuss Voigt Hill
#
# Bulk Modulus (GPa) = 115.52912 128.72363 122.12638
# Shear Modulus (GPa) = 48.24066 58.07943 53.16005
#
# Velocity S-wave (km/s) = 4.06769 4.46327 4.27006
# Velocity P-wave (km/s) = 7.85411 8.40905 8.13631
#
# Compressibility (1/GPa) = 0.00865583
#
# Stress axis : x y z
#
# Youngs Moduli (GPa) = 123.90443 287.56822 178.67834
#
# Poissons Ratio (x) = 0.36473 0.36398
# Poissons Ratio (y) = 0.15715 0.16780
# Poissons Ratio (z) = 0.25240 0.27007
#
# Static dielectric constant tensor:
#      x y z
#    x 2.549630 0.000000 0.000000 
#    y 0.000000 2.407270 0.000000 
#    z 0.000000 0.000000 2.312100 
# 
# From -- ./inp_files/30147.got.cif
#   From: 2010.05.17/outbox.cif.g08.bks.cpg/sg72_16_cif.got.tgz:30147.got - 2010.06.03 17:03:01.
