data_PCOD9528939
_publ_section_title
;
Structure prediction by ZEFSAII (Michael W. Deem and Ramdas Pophale) SiO2 
 PCOD9528939
Probable space group: I B A M
;
_chemical_formula_sum "Si O2"
_cell_formula_units_Z 48
_cell_length_a 7.433954
_cell_length_b 14.644723
_cell_length_c 18.492781
_cell_angle_alpha 90.000000
_cell_angle_beta 90.000000
_cell_angle_gamma 90.000000
_cell_volume 2013.275727
_symmetry_space_group_name_H-M "I B A M"
_symmetry_group_IT_number 72
_symmetry_cell_setting 'orthorhombic'
loop_
_space_group_symop_operation_xyz
x,y,z
-x,-y,z
x,-y,1/2-z
-x,y,1/2-z
-x,-y,-z
x,y,-z
-x,y,1/2+z
x,-y,1/2+z
1/2+x,1/2+y,1/2+z
1/2-x,1/2-y,1/2+z
1/2+x,1/2-y,-z
1/2-x,1/2+y,-z
1/2-x,1/2-y,1/2-z
1/2+x,1/2+y,1/2-z
1/2-x,1/2+y,z
1/2+x,1/2-y,z
loop_
_atom_site_type_symbol
_atom_site_label
_atom_site_fract_x
_atom_site_fract_y
_atom_site_fract_z
Si Si1 0.378647 0.799402 0.000000
Si Si2 0.765498 0.902181 0.000000
Si Si3 0.694160 0.665444 0.845354
Si Si4 0.500000 0.816890 0.250000
Si Si5 0.000000 0.000000 0.386895
O O1 0.393959 0.688311 0.000000
O O2 0.269257 0.818620 0.073913
O O3 0.564258 0.859017 0.000000
O O4 0.827700 0.967282 0.934281
O O5 0.609345 0.754778 0.808159
O O6 0.544915 0.589350 0.843776
O O7 0.857002 0.630576 0.796677
#
# Coordination Sequence:
#
# PCOD9528939 Si02
#       5
#     8   8  16   8   8
#     4  12  23  44  74  94 124 182 231 262 320 408
#     4  11  23  39  66 103 134 165 219 283 330 378
#     4  11  24  44  70  98 132 174 223 273 326 390
#     4  10  24  47  70  95 134 182 220 260 330 408
#     4  11  24  41  62 100 140 166 214 284 332 374
#
# _framework density 23.841740000000001
#
# number of rings (size 3 to 8) (size 9 to 14) (size 15 to 20)
#    0.000    1.000    0.000    8.000    0.000    6.000 
#    0.000    3.333    0.000    2.000    0.000    0.000 
#    0.000    0.000    0.000    0.000    0.000    0.000 
#
# Total GULP energy -134173.377202 kJ/mol
# GULP energy per Si atom -5590.557383 kJ/mol
# Density = 2.378748 g / cm^3
# Si number density = 23.841740 Si / 1000 Ang^3
#
#
#
# Elastic Constant Matrix: (Units=GPa)
#
#
# Indices 1 2 3 4 5 6 
#
# 1 85.4378 -24.6263 41.3495 0.0000 0.0000 0.0000
# 2 -24.6263 38.7209 4.7926 0.0000 0.0000 0.0000
# 3 41.3495 4.7926 125.8284 0.0000 0.0000 0.0000
# 4 0.0000 0.0000 0.0000 71.7163 0.0000 0.0000
# 5 0.0000 0.0000 0.0000 0.0000 25.8809 0.0000
# 6 0.0000 0.0000 0.0000 0.0000 0.0000 35.6235
#
#
#
# Elastic Compliance Matrix: (Units=1/GPa)
#
#
# Indices 1 2 3 4 5 6 
#
# 1 0.018506 0.012582 -0.006561 0.000000 0.000000 0.000000
# 2 0.012582 0.034502 -0.005449 0.000000 0.000000 0.000000
# 3 -0.006561 -0.005449 0.010311 0.000000 0.000000 0.000000
# 4 0.000000 0.000000 0.000000 0.013944 0.000000 0.000000
# 5 0.000000 0.000000 0.000000 0.000000 0.038639 0.000000
# 6 0.000000 0.000000 0.000000 0.000000 0.000000 0.028071
#
#
# Mechanical properties :
#
#
# Convention : Reuss Voigt Hill
#
# Bulk Modulus (GPa) = 15.51252 32.55764 24.03508
# Shear Modulus (GPa) = 30.42914 41.87556 36.15235
#
# Velocity S-wave (km/s) = 3.57641 4.19549 3.89825
# Velocity P-wave (km/s) = 4.85539 6.09548 5.51043
#
# Compressibility (1/GPa) = 0.06446404
#
# Stress axis : x y z
#
# Youngs Moduli (GPa) = 54.03607 28.98360 96.98539
#
# Poissons Ratio (x) = -0.36467 0.63629
# Poissons Ratio (y) = -0.67987 0.52845
# Poissons Ratio (z) = 0.35451 0.15793
#
# Static dielectric constant tensor:
#      x y z
#    x 1.989520 0.000000 0.000000 
#    y 0.000000 1.865790 0.000000 
#    z 0.000000 0.000000 1.995390 
# 
# From -- ./inp_files/27341.got.cif
#   From: 2010.05.17/outbox.cif.g08.bks.cpg/sg72_14_cif.got.tgz:27341.got - 2010.06.03 17:03:01.
