data_PCOD9528642
_publ_section_title
;
Structure prediction by ZEFSAII (Michael W. Deem and Ramdas Pophale) SiO2 
 PCOD9528642
Probable space group: I B A M
;
_chemical_formula_sum "Si O2"
_cell_formula_units_Z 116
_cell_length_a 27.234956
_cell_length_b 8.752904
_cell_length_c 23.451025
_cell_angle_alpha 90.000000
_cell_angle_beta 90.000000
_cell_angle_gamma 90.000000
_cell_volume 5590.371547
_symmetry_space_group_name_H-M "I B A M"
_symmetry_group_IT_number 72
_symmetry_cell_setting 'orthorhombic'
loop_
_space_group_symop_operation_xyz
x,y,z
-x,-y,z
x,-y,1/2-z
-x,y,1/2-z
-x,-y,-z
x,y,-z
-x,y,1/2+z
x,-y,1/2+z
1/2+x,1/2+y,1/2+z
1/2-x,1/2-y,1/2+z
1/2+x,1/2-y,-z
1/2-x,1/2+y,-z
1/2-x,1/2-y,1/2-z
1/2+x,1/2+y,1/2-z
1/2-x,1/2+y,z
1/2+x,1/2-y,z
loop_
_atom_site_type_symbol
_atom_site_label
_atom_site_fract_x
_atom_site_fract_y
_atom_site_fract_z
Si Si1 0.210741 0.851008 0.783841
Si Si2 0.714491 0.685760 0.435773
Si Si3 0.604744 0.399296 0.068692
Si Si4 0.284712 0.979981 0.122626
Si Si5 0.000000 0.000000 0.750000
Si Si6 0.019441 0.327270 0.067300
Si Si7 0.371192 0.099991 0.194308
Si Si8 0.555178 0.660873 0.146921
O O1 0.250000 0.750000 0.750000
O O2 0.242607 0.914664 0.836081
O O3 0.164777 0.741502 0.791547
O O4 0.194389 0.000000 0.750000
O O5 0.722285 0.637271 0.500000
O O6 0.662249 0.617921 0.416811
O O7 0.709272 0.865760 0.429371
O O8 0.761314 0.634967 0.399740
O O9 0.575107 0.237851 0.075949
O O10 0.583757 0.530411 0.110668
O O11 0.600530 0.436930 0.000000
O O12 0.335708 0.996700 0.155306
O O13 0.965861 0.096630 0.793344
O O14 0.000000 0.500000 0.080350
O O15 0.988697 0.212753 0.106124
O O16 0.009136 0.306025 0.000000
O O17 0.414479 0.184917 0.161033
O O18 0.385127 0.000000 0.250000
#
# Coordination Sequence:
#
# PCOD9528642 Si02
#       8
#    16  16  16  16   4  16  16  16
#     4  12  20  39  64  92 125 165 223 275 312 381
#     4  11  25  41  63  97 137 177 218 271 335 395
#     4  10  22  45  74 100 133 179 234 284 336 409
#     4  12  22  42  64  92 133 179 220 273 331 390
#     4  12  28  48  68  92 144 176 218 270 368 404
#     4  10  22  44  75 105 133 170 226 292 349 407
#     4  12  27  42  65 100 129 179 231 276 331 402
#     4  12  26  46  68 100 134 180 227 282 345 420
#
# _framework density 20.749963000000001
#
# number of rings (size 3 to 8) (size 9 to 14) (size 15 to 20)
#    0.000    0.690    5.517    1.655    2.897    3.310 
#    0.000    1.379    0.000    0.000    0.000    0.000 
#    0.000    0.000    0.000    0.000    0.000    0.000 
#
# Total GULP energy -323571.707875 kJ/mol
# GULP energy per Si atom -5578.822550 kJ/mol
# Density = 2.070274 g / cm^3
# Si number density = 20.749963 Si / 1000 Ang^3
#
#
#
# Elastic Constant Matrix: (Units=GPa)
#
#
# Indices 1 2 3 4 5 6 
#
# 1 45.0927 0.8757 25.0691 0.0000 0.0000 0.0000
# 2 0.8757 66.3555 27.7335 0.0000 0.0000 0.0000
# 3 25.0691 27.7335 56.3838 0.0000 0.0000 0.0000
# 4 0.0000 0.0000 0.0000 36.5522 0.0000 0.0000
# 5 0.0000 0.0000 0.0000 0.0000 22.8891 0.0000
# 6 0.0000 0.0000 0.0000 0.0000 0.0000 29.1818
#
#
#
# Elastic Compliance Matrix: (Units=1/GPa)
#
#
# Indices 1 2 3 4 5 6 
#
# 1 0.031789 0.006908 -0.017532 0.000000 0.000000 0.000000
# 2 0.006908 0.020471 -0.013141 0.000000 0.000000 0.000000
# 3 -0.017532 -0.013141 0.031994 0.000000 0.000000 0.000000
# 4 0.000000 0.000000 0.000000 0.027358 0.000000 0.000000
# 5 0.000000 0.000000 0.000000 0.000000 0.043689 0.000000
# 6 0.000000 0.000000 0.000000 0.000000 0.000000 0.034268
#
#
# Mechanical properties :
#
#
# Convention : Reuss Voigt Hill
#
# Bulk Modulus (GPa) = 27.22899 30.57652 28.90276
# Shear Modulus (GPa) = 20.05292 25.33487 22.69390
#
# Velocity S-wave (km/s) = 3.11208 3.49801 3.31068
# Velocity P-wave (km/s) = 5.10532 5.57517 5.34541
#
# Compressibility (1/GPa) = 0.03672556
#
# Stress axis : x y z
#
# Youngs Moduli (GPa) = 31.45728 48.84872 31.25586
#
# Poissons Ratio (x) = -0.33745 0.54797
# Poissons Ratio (y) = -0.21731 0.41072
# Poissons Ratio (z) = 0.55150 0.64190
#
# Static dielectric constant tensor:
#      x y z
#    x 4.406400 0.000000 0.000000 
#    y 0.000000 1.306510 0.000000 
#    z 0.000000 0.000000 1.750090 
# 
# From -- ./inp_files/46014.got.cif
#   From: 2010.05.17/outbox.cif.g08.bks.cpg/sg72_24_cif.got.tgz:46014.got - 2010.06.03 17:03:01.
