data_PCOD9528876
_publ_section_title
;
Structure prediction by ZEFSAII (Michael W. Deem and Ramdas Pophale) SiO2 
 PCOD9528876
Probable space group: I B A M
;
_chemical_formula_sum "Si O2"
_cell_formula_units_Z 96
_cell_length_a 7.409725
_cell_length_b 17.518145
_cell_length_c 27.044489
_cell_angle_alpha 90.000000
_cell_angle_beta 90.000000
_cell_angle_gamma 90.000000
_cell_volume 3510.500076
_symmetry_space_group_name_H-M "I B A M"
_symmetry_group_IT_number 72
_symmetry_cell_setting 'orthorhombic'
loop_
_space_group_symop_operation_xyz
x,y,z
-x,-y,z
x,-y,1/2-z
-x,y,1/2-z
-x,-y,-z
x,y,-z
-x,y,1/2+z
x,-y,1/2+z
1/2+x,1/2+y,1/2+z
1/2-x,1/2-y,1/2+z
1/2+x,1/2-y,-z
1/2-x,1/2+y,-z
1/2-x,1/2-y,1/2-z
1/2+x,1/2+y,1/2-z
1/2-x,1/2+y,z
1/2+x,1/2-y,z
loop_
_atom_site_type_symbol
_atom_site_label
_atom_site_fract_x
_atom_site_fract_y
_atom_site_fract_z
Si Si1 0.847553 0.615270 0.000000
Si Si2 0.707530 0.495383 0.584823
Si Si3 0.211740 0.520931 0.194952
Si Si4 0.515735 0.734137 0.000000
Si Si5 0.058355 0.673689 0.195772
Si Si6 0.168561 0.837450 0.594008
Si Si7 0.318274 0.305769 0.150020
O O1 0.814666 0.562128 0.951249
O O2 0.689334 0.679001 0.000000
O O3 0.018177 0.673214 0.000000
O O4 0.500000 0.500000 0.567369
O O5 0.520179 0.350200 0.624244
O O6 0.766484 0.583916 0.580874
O O7 0.283514 0.500000 0.250000
O O8 0.215327 0.612072 0.185779
O O9 0.286055 0.483254 0.144594
O O10 0.000000 0.500000 0.194924
O O11 0.405361 0.706208 0.953110
O O12 0.109322 0.762957 0.198686
O O13 0.000000 0.649339 0.250000
O O14 0.880816 0.664260 0.161219
O O15 0.292055 0.773335 0.619306
#
# Coordination Sequence:
#
# PCOD9528876 Si02
#       7
#     8  16  16   8  16  16  16
#     4  12  28  53  81 109 151 198 258 318 390 465
#     4  12  26  48  77 110 148 204 252 317 381 466
#     4  11  25  46  71 101 153 204 248 314 386 453
#     4  12  25  48  75 107 142 189 240 318 385 452
#     4  11  21  43  67 101 144 191 248 307 371 438
#     4  11  23  44  72 105 146 188 245 300 381 442
#     4  10  24  40  71 107 141 196 242 311 366 454
#
# _framework density 27.346530999999999
#
# number of rings (size 3 to 8) (size 9 to 14) (size 15 to 20)
#    0.000    0.833    5.000    2.250    2.333    1.667 
#    3.000    0.417    0.000    1.000    0.000    0.000 
#    0.000    0.000    0.000    0.000    0.000    0.000 
#
# Total GULP energy -268410.701870 kJ/mol
# GULP energy per Si atom -5591.889622 kJ/mol
# Density = 2.728429 g / cm^3
# Si number density = 27.346531 Si / 1000 Ang^3
#
#
#
# Elastic Constant Matrix: (Units=GPa)
#
#
# Indices 1 2 3 4 5 6 
#
# 1 115.4620 46.2107 43.4566 0.0000 0.0000 0.0000
# 2 46.2107 184.3636 72.4115 0.0000 0.0000 0.0000
# 3 43.4566 72.4115 146.3989 0.0000 0.0000 0.0000
# 4 0.0000 0.0000 0.0000 77.5871 0.0000 0.0000
# 5 0.0000 0.0000 0.0000 0.0000 18.1786 0.0000
# 6 0.0000 0.0000 0.0000 0.0000 0.0000 40.5179
#
#
#
# Elastic Compliance Matrix: (Units=1/GPa)
#
#
# Indices 1 2 3 4 5 6 
#
# 1 0.010157 -0.001690 -0.002179 0.000000 0.000000 0.000000
# 2 -0.001690 0.007013 -0.002967 0.000000 0.000000 0.000000
# 3 -0.002179 -0.002967 0.008945 0.000000 0.000000 0.000000
# 4 0.000000 0.000000 0.000000 0.012889 0.000000 0.000000
# 5 0.000000 0.000000 0.000000 0.000000 0.055010 0.000000
# 6 0.000000 0.000000 0.000000 0.000000 0.000000 0.024680
#
#
# Mechanical properties :
#
#
# Convention : Reuss Voigt Hill
#
# Bulk Modulus (GPa) = 80.36706 85.59802 82.98254
# Shear Modulus (GPa) = 36.62602 46.19976 41.41289
#
# Velocity S-wave (km/s) = 3.66366 4.11471 3.89572
# Velocity P-wave (km/s) = 6.88104 7.34464 7.11661
#
# Compressibility (1/GPa) = 0.01244291
#
# Stress axis : x y z
#
# Youngs Moduli (GPa) = 98.45005 142.59130 111.79315
#
# Poissons Ratio (x) = 0.24099 0.24362
# Poissons Ratio (y) = 0.16639 0.33170
# Poissons Ratio (z) = 0.21454 0.42308
#
# Static dielectric constant tensor:
#      x y z
#    x 2.371510 0.000000 0.000000 
#    y 0.000000 2.197500 0.000000 
#    z 0.000000 0.000000 2.900490 
# 
# From -- ./inp_files/51411.got.cif
#   From: 2010.05.17/outbox.cif.g08.bks.cpg/sg72_26_cif.got.tgz:51411.got - 2010.06.03 17:03:01.
