data_PCOD9528244
_publ_section_title
;
Structure prediction by ZEFSAII (Michael W. Deem and Ramdas Pophale) SiO2 
 PCOD9528244
Probable space group: I B A M
;
_chemical_formula_sum "Si O2"
_cell_formula_units_Z 44
_cell_length_a 9.731608
_cell_length_b 9.159656
_cell_length_c 21.204210
_cell_angle_alpha 90.000000
_cell_angle_beta 90.000000
_cell_angle_gamma 90.000000
_cell_volume 1890.104722
_symmetry_space_group_name_H-M "I B A M"
_symmetry_group_IT_number 72
_symmetry_cell_setting 'orthorhombic'
loop_
_space_group_symop_operation_xyz
x,y,z
-x,-y,z
x,-y,1/2-z
-x,y,1/2-z
-x,-y,-z
x,y,-z
-x,y,1/2+z
x,-y,1/2+z
1/2+x,1/2+y,1/2+z
1/2-x,1/2-y,1/2+z
1/2+x,1/2-y,-z
1/2-x,1/2+y,-z
1/2-x,1/2-y,1/2-z
1/2+x,1/2+y,1/2-z
1/2-x,1/2+y,z
1/2+x,1/2-y,z
loop_
_atom_site_type_symbol
_atom_site_label
_atom_site_fract_x
_atom_site_fract_y
_atom_site_fract_z
Si Si1 0.366358 0.757747 0.926531
Si Si2 0.000000 0.000000 0.136388
Si Si3 0.299942 0.044200 0.148441
Si Si4 0.500000 0.000000 0.250000
O O1 0.485315 0.643081 0.907571
O O2 0.233487 0.664505 0.904027
O O3 0.365166 0.903250 0.885110
O O4 0.365749 0.790283 0.000000
O O5 0.145755 0.000818 0.171618
O O6 0.397589 0.090528 0.205418
#
# Coordination Sequence:
#
# PCOD9528244 Si02
#       4
#    16   8  16   4
#     4  10  21  43  72 105 135 173 234 294 357 410
#     4   8  23  43  68 104 132 183 225 278 374 394
#     4  10  25  43  68 101 138 188 229 288 343 412
#     4  12  28  46  62 102 152 182 248 272 340 430
#
# _framework density 23.279133000000002
#
# number of rings (size 3 to 8) (size 9 to 14) (size 15 to 20)
#    2.182    0.000    0.000    1.636    5.091    2.182 
#    0.000    1.818    0.000    0.000    0.000    0.000 
#    0.000    0.000    0.000    0.000    0.000    0.000 
#
# Total GULP energy -122611.581973 kJ/mol
# GULP energy per Si atom -5573.253726 kJ/mol
# Density = 2.322615 g / cm^3
# Si number density = 23.279133 Si / 1000 Ang^3
#
#
#
# Elastic Constant Matrix: (Units=GPa)
#
#
# Indices 1 2 3 4 5 6 
#
# 1 157.6110 24.3059 66.1617 0.0000 0.0000 0.0000
# 2 24.3059 99.7528 13.3890 0.0000 0.0000 0.0000
# 3 66.1617 13.3890 103.2844 0.0000 0.0000 0.0000
# 4 0.0000 0.0000 0.0000 33.3399 0.0000 0.0000
# 5 0.0000 0.0000 0.0000 0.0000 7.8039 0.0000
# 6 0.0000 0.0000 0.0000 0.0000 0.0000 171.7413
#
#
#
# Elastic Compliance Matrix: (Units=1/GPa)
#
#
# Indices 1 2 3 4 5 6 
#
# 1 0.008873 -0.001424 -0.005499 0.000000 0.000000 0.000000
# 2 -0.001424 0.010431 -0.000440 0.000000 0.000000 0.000000
# 3 -0.005499 -0.000440 0.013262 0.000000 0.000000 0.000000
# 4 0.000000 0.000000 0.000000 0.029994 0.000000 0.000000
# 5 0.000000 0.000000 0.000000 0.000000 0.128142 0.000000
# 6 0.000000 0.000000 0.000000 0.000000 0.000000 0.005823
#
#
# Mechanical properties :
#
#
# Convention : Reuss Voigt Hill
#
# Bulk Modulus (GPa) = 56.05661 63.15128 59.60394
# Shear Modulus (GPa) = 23.02067 59.69645 41.35856
#
# Velocity S-wave (km/s) = 3.14809 5.06946 4.21959
# Velocity P-wave (km/s) = 6.11117 7.83917 7.02848
#
# Compressibility (1/GPa) = 0.01783911
#
# Stress axis : x y z
#
# Youngs Moduli (GPa) = 112.70513 95.87006 75.40541
#
# Poissons Ratio (x) = 0.13650 0.41466
# Poissons Ratio (y) = 0.16047 0.03319
# Poissons Ratio (z) = 0.61978 0.04219
#
# Static dielectric constant tensor:
#      x y z
#    x 1.987560 0.000000 0.000000 
#    y 0.000000 1.841850 0.000000 
#    z 0.000000 0.000000 1.799900 
# 
# From -- ./inp_files/42829.got.cif
#   From: 2010.05.17/outbox.cif.g08.bks.cpg/sg72_22_cif.got.tgz:42829.got - 2010.06.03 17:03:01.
