data_PCOD9528666
_publ_section_title
;
Structure prediction by ZEFSAII (Michael W. Deem and Ramdas Pophale) SiO2 
 PCOD9528666
Probable space group: I B A M
;
_chemical_formula_sum "Si O2"
_cell_formula_units_Z 72
_cell_length_a 13.985173
_cell_length_b 18.580139
_cell_length_c 14.325896
_cell_angle_alpha 90.000000
_cell_angle_beta 90.000000
_cell_angle_gamma 90.000000
_cell_volume 3722.533337
_symmetry_space_group_name_H-M "I B A M"
_symmetry_group_IT_number 72
_symmetry_cell_setting 'orthorhombic'
loop_
_space_group_symop_operation_xyz
x,y,z
-x,-y,z
x,-y,1/2-z
-x,y,1/2-z
-x,-y,-z
x,y,-z
-x,y,1/2+z
x,-y,1/2+z
1/2+x,1/2+y,1/2+z
1/2-x,1/2-y,1/2+z
1/2+x,1/2-y,-z
1/2-x,1/2+y,-z
1/2-x,1/2-y,1/2-z
1/2+x,1/2+y,1/2-z
1/2-x,1/2+y,z
1/2+x,1/2-y,z
loop_
_atom_site_type_symbol
_atom_site_label
_atom_site_fract_x
_atom_site_fract_y
_atom_site_fract_z
Si Si1 0.067672 0.886033 0.500000
Si Si2 0.638445 0.449564 0.500000
Si Si3 0.400739 0.330543 0.295451
Si Si4 0.000000 0.309196 0.750000
Si Si5 0.458983 0.080392 0.389438
Si Si6 0.750692 0.073728 0.191708
O O1 0.097570 0.846431 0.594693
O O2 0.953941 0.898506 0.500000
O O3 0.109145 0.966740 0.500000
O O4 0.697236 0.435561 0.592976
O O5 0.500000 0.362955 0.250000
O O6 0.414736 0.246097 0.275039
O O7 0.308722 0.365803 0.248237
O O8 0.977339 0.359680 0.838231
O O9 0.448712 0.093043 0.500000
O O10 0.359060 0.086763 0.334881
O O11 0.500000 0.000000 0.376962
O O12 0.757841 0.000000 0.250000
#
# Coordination Sequence:
#
# PCOD9528666 Si02
#       6
#     8   8  16   8  16  16
#     4  11  20  36  57  93 142 179 208 253 326 401
#     4  11  20  32  60  93 135 177 215 265 320 377
#     4  10  23  37  62  95 136 169 211 259 331 395
#     4  10  23  44  65  92 128 174 208 272 333 384
#     4  11  25  46  71  94 121 170 225 277 328 385
#     4  12  22  39  65  99 133 170 223 270 321 388
#
# _framework density 19.341667000000001
#
# number of rings (size 3 to 8) (size 9 to 14) (size 15 to 20)
#    0.667    0.444    5.556    1.667    1.556    1.333 
#    2.000    0.000    0.000    0.000    0.000    0.000 
#    0.000    0.000    0.000    0.000    0.000    0.000 
#
# Total GULP energy -200967.494733 kJ/mol
# GULP energy per Si atom -5582.430409 kJ/mol
# Density = 1.929764 g / cm^3
# Si number density = 19.341667 Si / 1000 Ang^3
#
#
#
# Elastic Constant Matrix: (Units=GPa)
#
#
# Indices 1 2 3 4 5 6 
#
# 1 80.8925 35.1873 61.4598 0.0000 0.0000 0.0000
# 2 35.1873 126.4760 78.7091 -0.0002 0.0000 0.0000
# 3 61.4598 78.7091 193.4319 -0.0004 0.0000 0.0000
# 4 0.0000 -0.0002 -0.0004 442.5833 0.0000 0.0000
# 5 0.0000 0.0000 0.0000 0.0000 35.4901 0.0000
# 6 0.0000 0.0000 0.0000 0.0000 0.0000 21.6429
#
#
#
# Elastic Compliance Matrix: (Units=1/GPa)
#
#
# Indices 1 2 3 4 5 6 
#
# 1 0.016593 -0.001788 -0.004544 0.000000 0.000000 0.000000
# 2 -0.001788 0.010780 -0.003818 0.000000 0.000000 0.000000
# 3 -0.004544 -0.003818 0.008167 0.000000 0.000000 0.000000
# 4 0.000000 0.000000 0.000000 0.002259 0.000000 0.000000
# 5 0.000000 0.000000 0.000000 0.000000 0.028177 0.000000
# 6 0.000000 0.000000 0.000000 0.000000 0.000000 0.046205
#
#
# Mechanical properties :
#
#
# Convention : Reuss Voigt Hill
#
# Bulk Modulus (GPa) = 65.62375 83.50142 74.56258
# Shear Modulus (GPa) = 36.34696 114.97288 75.65992
#
# Velocity S-wave (km/s) = 4.33968 7.71830 6.26119
# Velocity P-wave (km/s) = 7.68849 11.07678 9.53436
#
# Compressibility (1/GPa) = 0.01523839
#
# Stress axis : x y z
#
# Youngs Moduli (GPa) = 60.26766 92.76023 122.43701
#
# Poissons Ratio (x) = 0.16587 0.55640
# Poissons Ratio (y) = 0.10777 0.46753
# Poissons Ratio (z) = 0.27388 0.35420
#
# Static dielectric constant tensor:
#      x y z
#    x 1.718470 0.000000 0.000000 
#    y 0.000000 1.669850 0.000000 
#    z 0.000000 0.000000 1.603250 
# 
# From -- ./inp_files/21505.got.cif
#   From: 2010.05.17/outbox.cif.g08.bks.cpg/sg72_11_cif.got.tgz:21505.got - 2010.06.03 17:03:01.
