data_PCOD9528199
_publ_section_title
;
Structure prediction by ZEFSAII (Michael W. Deem and Ramdas Pophale) SiO2 
 PCOD9528199
Probable space group: I B A M
;
_chemical_formula_sum "Si O2"
_cell_formula_units_Z 60
_cell_length_a 26.140494
_cell_length_b 4.921400
_cell_length_c 23.118346
_cell_angle_alpha 90.000000
_cell_angle_beta 90.000000
_cell_angle_gamma 90.000000
_cell_volume 2974.124981
_symmetry_space_group_name_H-M "I B A M"
_symmetry_group_IT_number 72
_symmetry_cell_setting 'orthorhombic'
loop_
_space_group_symop_operation_xyz
x,y,z
-x,-y,z
x,-y,1/2-z
-x,y,1/2-z
-x,-y,-z
x,y,-z
-x,y,1/2+z
x,-y,1/2+z
1/2+x,1/2+y,1/2+z
1/2-x,1/2-y,1/2+z
1/2+x,1/2-y,-z
1/2-x,1/2+y,-z
1/2-x,1/2-y,1/2-z
1/2+x,1/2+y,1/2-z
1/2-x,1/2+y,z
1/2+x,1/2-y,z
loop_
_atom_site_type_symbol
_atom_site_label
_atom_site_fract_x
_atom_site_fract_y
_atom_site_fract_z
Si Si1 0.460769 0.259993 0.500000
Si Si2 0.785167 0.795763 0.068532
Si Si3 0.394597 0.348034 0.384370
Si Si4 0.085324 0.634169 0.192018
Si Si5 0.000000 0.000000 0.750000
O O1 0.500000 0.500000 0.500000
O O2 0.424639 0.312983 0.444495
O O3 0.500000 0.000000 0.500000
O O4 0.739627 0.586741 0.080013
O O5 0.836520 0.752570 0.104265
O O6 0.797824 0.774831 0.000000
O O7 0.391042 0.641409 0.352374
O O8 0.424112 0.136528 0.343884
O O9 0.111658 0.500000 0.250000
O O10 0.036515 0.799588 0.214234
#
# Coordination Sequence:
#
# PCOD9528199 Si02
#       5
#     8  16  16  16   4
#     4  12  28  40  60 100 146 184 208 264 358 425
#     4  10  21  41  70 100 132 172 224 277 337 411
#     4  12  25  44  68 100 140 174 225 283 346 406
#     4  12  26  42  69  93 132 175 239 282 318 386
#     4  12  26  44  66  98 118 188 254 268 316 380
#
# _framework density 20.173999999999999
#
# number of rings (size 3 to 8) (size 9 to 14) (size 15 to 20)
#    0.000    0.533    4.000    3.600    5.600    0.000 
#    0.000    0.000    0.000   16.000    0.000    0.000 
#    0.000    0.000    0.000    0.000    0.000    0.000 
#
# Total GULP energy -167164.526971 kJ/mol
# GULP energy per Si atom -5572.150899 kJ/mol
# Density = 2.012808 g / cm^3
# Si number density = 20.174000 Si / 1000 Ang^3
#
#
#
# Elastic Constant Matrix: (Units=GPa)
#
#
# Indices 1 2 3 4 5 6 
#
# 1 80.9293 2.4440 23.9153 0.0000 0.0000 0.0000
# 2 2.4440 117.3581 36.9961 0.0000 0.0000 0.0000
# 3 23.9153 36.9961 123.7756 0.0000 0.0000 0.0000
# 4 0.0000 0.0000 0.0000 15.6334 0.0000 0.0000
# 5 0.0000 0.0000 0.0000 0.0000 -55.6350 0.0000
# 6 0.0000 0.0000 0.0000 0.0000 0.0000 -129.8218
#
#
#
# Elastic Compliance Matrix: (Units=1/GPa)
#
#
# Indices 1 2 3 4 5 6 
#
# 1 0.013141 0.000582 -0.002713 0.000000 0.000000 0.000000
# 2 0.000582 0.009433 -0.002932 0.000000 0.000000 0.000000
# 3 -0.002713 -0.002932 0.009480 0.000000 0.000000 0.000000
# 4 0.000000 0.000000 0.000000 0.063965 0.000000 0.000000
# 5 0.000000 0.000000 0.000000 0.000000 -0.017974 0.000000
# 6 0.000000 0.000000 0.000000 0.000000 0.000000 -0.007703
#
#
# Mechanical properties :
#
#
# Convention : Reuss Voigt Hill
#
# Bulk Modulus (GPa) = 45.60587 49.86374 47.73481
# Shear Modulus (GPa) = 56.96267 -16.71750 20.12259
#
# Velocity S-wave (km/s) = 5.31949 -2.88178 3.16167
# Velocity P-wave (km/s) = 7.77076 3.70103 6.08614
#
# Compressibility (1/GPa) = 0.02192700
#
# Stress axis : x y z
#
# Youngs Moduli (GPa) = 76.10037 106.01008 105.48957
#
# Poissons Ratio (x) = -0.06165 0.28617
# Poissons Ratio (y) = -0.04425 0.30928
# Poissons Ratio (z) = 0.20644 0.31081
#
# Static dielectric constant tensor:
#      x y z
#    x 1.866270 0.000000 0.000000 
#    y 0.000000 1.707990 0.000000 
#    z 0.000000 0.000000 1.790500 
# 
# From -- ./inp_files/40048.got.cif
#   From: 2010.05.17/outbox.cif.g08.bks.cpg/sg72_21_cif.got.tgz:40048.got - 2010.06.03 17:03:01.
