data_PCOD9528070
_publ_section_title
;
Structure prediction by ZEFSAII (Michael W. Deem and Ramdas Pophale) SiO2 
 PCOD9528070
Probable space group: I B A M
;
_chemical_formula_sum "Si O2"
_cell_formula_units_Z 88
_cell_length_a 5.248139
_cell_length_b 27.290985
_cell_length_c 27.020366
_cell_angle_alpha 90.000000
_cell_angle_beta 90.000000
_cell_angle_gamma 90.000000
_cell_volume 3870.042792
_symmetry_space_group_name_H-M "I B A M"
_symmetry_group_IT_number 72
_symmetry_cell_setting 'orthorhombic'
loop_
_space_group_symop_operation_xyz
x,y,z
-x,-y,z
x,-y,1/2-z
-x,y,1/2-z
-x,-y,-z
x,y,-z
-x,y,1/2+z
x,-y,1/2+z
1/2+x,1/2+y,1/2+z
1/2-x,1/2-y,1/2+z
1/2+x,1/2-y,-z
1/2-x,1/2+y,-z
1/2-x,1/2-y,1/2-z
1/2+x,1/2+y,1/2-z
1/2-x,1/2+y,z
1/2+x,1/2-y,z
loop_
_atom_site_type_symbol
_atom_site_label
_atom_site_fract_x
_atom_site_fract_y
_atom_site_fract_z
Si Si1 0.853267 0.883502 0.151737
Si Si2 0.515653 0.277293 0.190306
Si Si3 0.253576 0.034529 0.500000
Si Si4 0.771968 0.721583 0.940406
Si Si5 0.249981 0.521021 0.805440
Si Si6 0.655284 0.890936 0.590463
O O1 0.877322 0.827980 0.169209
O O2 0.767612 0.920786 0.194622
O O3 0.635476 0.892053 0.110186
O O4 0.134030 0.897922 0.133071
O O5 0.500000 0.281155 0.250000
O O6 0.225426 0.263882 0.176534
O O7 0.279313 0.070437 0.547529
O O8 0.500000 0.000000 0.500000
O O9 0.000000 0.000000 0.500000
O O10 0.508442 0.745460 0.923116
O O11 0.800268 0.664961 0.927182
O O12 0.771300 0.724150 0.000000
O O13 0.500000 0.500000 0.830956
O O14 0.248537 0.500000 0.750000
O O15 0.000000 0.500000 0.831065
#
# Coordination Sequence:
#
# PCOD9528070 Si02
#       6
#    16  16   8  16  16  16
#     4  12  26  41  72 102 139 176 227 290 339 399
#     4  10  23  44  67 100 141 188 231 269 339 430
#     4  12  28  50  74  92 138 196 230 288 358 406
#     4  10  21  39  66  96 132 175 216 269 334 395
#     4  10  23  43  65  96 126 169 216 279 345 404
#     4  12  26  45  67 106 136 177 237 279 335 424
#
# _framework density 22.738766999999999
#
# number of rings (size 3 to 8) (size 9 to 14) (size 15 to 20)
#    0.000    1.091    0.909    4.364    2.545    8.727 
#    6.545    0.000    0.000    0.000    0.000    0.000 
#    0.000    0.000    0.000    0.000    0.000    0.000 
#
# Total GULP energy -246139.610183 kJ/mol
# GULP energy per Si atom -5594.082050 kJ/mol
# Density = 2.268701 g / cm^3
# Si number density = 22.738767 Si / 1000 Ang^3
#
#
#
# Elastic Constant Matrix: (Units=GPa)
#
#
# Indices 1 2 3 4 5 6 
#
# 1 154.7330 38.8941 7.0168 0.0000 0.0000 0.0000
# 2 38.8941 170.2786 27.1663 0.0000 0.0000 0.0000
# 3 7.0168 27.1663 59.0036 0.0000 0.0000 0.0000
# 4 0.0000 0.0000 0.0000 1.2237 0.0000 0.0000
# 5 0.0000 0.0000 0.0000 0.0000 26.3363 0.0000
# 6 0.0000 0.0000 0.0000 0.0000 0.0000 41.6779
#
#
#
# Elastic Compliance Matrix: (Units=1/GPa)
#
#
# Indices 1 2 3 4 5 6 
#
# 1 0.006857 -0.001550 -0.000102 0.000000 0.000000 0.000000
# 2 -0.001550 0.006689 -0.002895 0.000000 0.000000 0.000000
# 3 -0.000102 -0.002895 0.018293 0.000000 0.000000 0.000000
# 4 0.000000 0.000000 0.000000 0.817204 0.000000 0.000000
# 5 0.000000 0.000000 0.000000 0.000000 0.037970 0.000000
# 6 0.000000 0.000000 0.000000 0.000000 0.000000 0.023994
#
#
# Mechanical properties :
#
#
# Convention : Reuss Voigt Hill
#
# Bulk Modulus (GPa) = 43.96608 58.90773 51.43690
# Shear Modulus (GPa) = 5.38978 34.57679 19.98328
#
# Velocity S-wave (km/s) = 1.54125 3.90373 2.96771
# Velocity P-wave (km/s) = 4.74811 6.80304 5.86625
#
# Compressibility (1/GPa) = 0.02274481
#
# Stress axis : x y z
#
# Youngs Moduli (GPa) = 145.83699 149.50643 54.66498
#
# Poissons Ratio (x) = 0.23173 0.00556
# Poissons Ratio (y) = 0.22605 0.15827
# Poissons Ratio (z) = 0.01485 0.43286
#
# Static dielectric constant tensor:
#      x y z
#    x 1.969780 0.000000 0.000000 
#    y 0.000000 1.821170 0.000000 
#    z 0.000000 0.000000 1.874870 
# 
# From -- ./inp_files/50304.got.cif
#   From: 2010.05.17/outbox.cif.g08.bks.cpg/sg72_26_cif.got.tgz:50304.got - 2010.06.03 17:03:01.
