data_PCOD9528116
_publ_section_title
;
Structure prediction by ZEFSAII (Michael W. Deem and Ramdas Pophale) SiO2 
 PCOD9528116
Probable space group: I B A M
;
_chemical_formula_sum "Si O2"
_cell_formula_units_Z 112
_cell_length_a 27.989611
_cell_length_b 12.002366
_cell_length_c 15.802484
_cell_angle_alpha 90.000000
_cell_angle_beta 90.000000
_cell_angle_gamma 90.000000
_cell_volume 5308.711054
_symmetry_space_group_name_H-M "I B A M"
_symmetry_group_IT_number 72
_symmetry_cell_setting 'orthorhombic'
loop_
_space_group_symop_operation_xyz
x,y,z
-x,-y,z
x,-y,1/2-z
-x,y,1/2-z
-x,-y,-z
x,y,-z
-x,y,1/2+z
x,-y,1/2+z
1/2+x,1/2+y,1/2+z
1/2-x,1/2-y,1/2+z
1/2+x,1/2-y,-z
1/2-x,1/2+y,-z
1/2-x,1/2-y,1/2-z
1/2+x,1/2+y,1/2-z
1/2-x,1/2+y,z
1/2+x,1/2-y,z
loop_
_atom_site_type_symbol
_atom_site_label
_atom_site_fract_x
_atom_site_fract_y
_atom_site_fract_z
Si Si1 0.540195 0.334192 0.135804
Si Si2 0.291697 0.883931 0.692273
Si Si3 0.387420 0.905674 0.600404
Si Si4 0.566486 0.688484 0.166975
Si Si5 0.889895 0.354123 0.595526
Si Si6 0.686000 0.691343 0.325008
Si Si7 0.622030 0.492664 0.096587
O O1 0.483982 0.336797 0.122255
O O2 0.554404 0.336807 0.235385
O O3 0.563514 0.220887 0.103162
O O4 0.570599 0.432110 0.095001
O O5 0.331029 0.896333 0.619711
O O6 0.307699 0.771646 0.743319
O O7 0.239210 0.853547 0.657906
O O8 0.290246 0.000000 0.750000
O O9 0.397532 0.889569 0.500000
O O10 0.417171 0.813984 0.651463
O O11 0.398285 0.027922 0.638372
O O12 0.609594 0.613251 0.132466
O O13 0.881216 0.387148 0.500000
O O14 0.844516 0.278979 0.619380
O O15 0.654164 0.580191 0.339330
O O16 0.641196 0.493569 0.000000
#
# Coordination Sequence:
#
# PCOD9528116 Si02
#       7
#    16  16  16  16  16  16  16
#     4  10  22  39  64  91 122 170 214 260 309 373
#     4  11  23  41  65  93 124 160 207 261 317 373
#     4  11  24  40  61  89 127 167 206 263 322 369
#     4  11  24  40  60  93 130 165 215 260 313 371
#     4  10  21  40  64  90 123 165 209 258 315 380
#     4  10  22  39  66  93 120 161 209 255 311 383
#     4  11  23  40  64  93 130 168 205 260 319 375
#
# _framework density 21.0974
#
# number of rings (size 3 to 8) (size 9 to 14) (size 15 to 20)
#    0.000    1.429    1.429    4.714    0.000   10.286 
#    0.000    2.857    0.000    0.000    0.000    0.000 
#    0.000    0.000    0.000    0.000    0.000    0.000 
#
# Total GULP energy -312083.803413 kJ/mol
# GULP energy per Si atom -5572.925061 kJ/mol
# Density = 2.104938 g / cm^3
# Si number density = 21.097400 Si / 1000 Ang^3
#
#
#
# Elastic Constant Matrix: (Units=GPa)
#
#
# Indices 1 2 3 4 5 6 
#
# 1 80.8747 17.7685 13.1968 0.0000 0.0000 0.0000
# 2 17.7685 106.1844 9.6043 0.0000 0.0000 0.0000
# 3 13.1968 9.6043 41.4355 0.0000 0.0000 0.0000
# 4 0.0000 0.0000 0.0000 -4.3664 0.0000 0.0000
# 5 0.0000 0.0000 0.0000 0.0000 15.6069 0.0000
# 6 0.0000 0.0000 0.0000 0.0000 0.0000 -69.2620
#
#
#
# Elastic Compliance Matrix: (Units=1/GPa)
#
#
# Indices 1 2 3 4 5 6 
#
# 1 0.013407 -0.001897 -0.003830 0.000000 0.000000 0.000000
# 2 -0.001897 0.009888 -0.001688 0.000000 0.000000 0.000000
# 3 -0.003830 -0.001688 0.025745 0.000000 0.000000 0.000000
# 4 0.000000 0.000000 0.000000 -0.229021 0.000000 0.000000
# 5 0.000000 0.000000 0.000000 0.000000 0.064074 0.000000
# 6 0.000000 0.000000 0.000000 0.000000 0.000000 -0.014438
#
#
# Mechanical properties :
#
#
# Convention : Reuss Voigt Hill
#
# Bulk Modulus (GPa) = 29.23163 34.40377 31.81770
# Shear Modulus (GPa) = -48.02500 0.92403 -23.55048
#
# Velocity S-wave (km/s) = -4.77628 0.66252 -3.34469
# Velocity P-wave (km/s) = 4.06590 4.11434 0.44510
#
# Compressibility (1/GPa) = 0.03420952
#
# Stress axis : x y z
#
# Youngs Moduli (GPa) = 74.59030 101.13615 38.84260
#
# Poissons Ratio (x) = 0.19185 0.14877
# Poissons Ratio (y) = 0.14150 0.06555
# Poissons Ratio (z) = 0.28569 0.17069
#
# Static dielectric constant tensor:
#      x y z
#    x 1.750210 0.000000 0.000000 
#    y 0.000000 1.829690 0.000000 
#    z 0.000000 0.000000 1.818010 
# 
# From -- ./inp_files/26409.got.cif
#   From: 2010.05.17/outbox.cif.g08.bks.cpg/sg72_14_cif.got.tgz:26409.got - 2010.06.03 17:03:01.
