data_PCOD9528920
_publ_section_title
;
Structure prediction by ZEFSAII (Michael W. Deem and Ramdas Pophale) SiO2 
 PCOD9528920
Probable space group: I B A M
;
_chemical_formula_sum "Si O2"
_cell_formula_units_Z 116
_cell_length_a 20.902165
_cell_length_b 8.683760
_cell_length_c 27.855083
_cell_angle_alpha 90.000000
_cell_angle_beta 90.000000
_cell_angle_gamma 90.000000
_cell_volume 5055.958966
_symmetry_space_group_name_H-M "I B A M"
_symmetry_group_IT_number 72
_symmetry_cell_setting 'orthorhombic'
loop_
_space_group_symop_operation_xyz
x,y,z
-x,-y,z
x,-y,1/2-z
-x,y,1/2-z
-x,-y,-z
x,y,-z
-x,y,1/2+z
x,-y,1/2+z
1/2+x,1/2+y,1/2+z
1/2-x,1/2-y,1/2+z
1/2+x,1/2-y,-z
1/2-x,1/2+y,-z
1/2-x,1/2-y,1/2-z
1/2+x,1/2+y,1/2-z
1/2-x,1/2+y,z
1/2+x,1/2-y,z
loop_
_atom_site_type_symbol
_atom_site_label
_atom_site_fract_x
_atom_site_fract_y
_atom_site_fract_z
Si Si1 0.676059 0.407628 0.054686
Si Si2 0.500000 0.000000 0.750000
Si Si3 0.115958 0.358916 0.104785
Si Si4 0.167790 0.564922 0.702538
Si Si5 0.495288 0.827171 0.350035
Si Si6 0.808516 0.069507 0.299474
Si Si7 0.819741 0.605991 0.554008
Si Si8 0.371493 0.359619 0.118509
O O1 0.669760 0.263070 0.089930
O O2 0.748988 0.468048 0.057842
O O3 0.624098 0.530549 0.072035
O O4 0.665115 0.359373 0.000000
O O5 0.504382 0.865809 0.706276
O O6 0.130649 0.453230 0.153434
O O7 0.123418 0.483872 0.062863
O O8 0.055643 0.257853 0.121415
O O9 0.131080 0.500000 0.750000
O O10 0.232721 0.467505 0.699914
O O11 0.181539 0.747158 0.703939
O O12 0.433961 0.724554 0.361242
O O13 0.500000 0.000000 0.373050
O O14 0.839662 0.969561 0.341682
O O15 0.834482 0.000000 0.250000
O O16 0.823810 0.671465 0.500000
O O17 0.825764 0.728260 0.596637
#
# Coordination Sequence:
#
# PCOD9528920 Si02
#       8
#    16   4  16  16  16  16  16  16
#     4  11  24  44  68 104 145 183 229 295 376 429
#     4   8  20  48  68  98 122 184 242 296 340 398
#     4  12  24  42  70  99 140 181 239 294 349 435
#     4  11  24  39  66 101 139 185 225 287 365 434
#     4  10  24  45  71  97 130 188 244 287 362 420
#     4  11  24  40  63 102 140 181 228 287 364 435
#     4  11  23  42  73 104 136 185 238 295 361 439
#     4  12  24  44  68 100 144 181 242 296 353 434
#
# _framework density 22.943225999999999
#
# number of rings (size 3 to 8) (size 9 to 14) (size 15 to 20)
#    0.414    0.552    2.759    4.966    4.828    3.862 
#    0.000    4.138    0.000    0.000    0.000    0.000 
#    0.000    0.000    0.000    0.000    0.000    0.000 
#
# Total GULP energy -323057.448380 kJ/mol
# GULP energy per Si atom -5569.956007 kJ/mol
# Density = 2.289101 g / cm^3
# Si number density = 22.943226 Si / 1000 Ang^3
#
#
#
# Elastic Constant Matrix: (Units=GPa)
#
#
# Indices 1 2 3 4 5 6 
#
# 1 61.8782 18.4336 46.0996 0.0000 0.0000 0.0000
# 2 18.4336 90.7660 40.7619 0.0000 0.0000 0.0000
# 3 46.0996 40.7619 137.0990 0.0000 0.0000 0.0000
# 4 0.0000 0.0000 0.0000 117.1401 0.0000 0.0000
# 5 0.0000 0.0000 0.0000 0.0000 27.5719 0.0000
# 6 0.0000 0.0000 0.0000 0.0000 0.0000 31.8107
#
#
#
# Elastic Compliance Matrix: (Units=1/GPa)
#
#
# Indices 1 2 3 4 5 6 
#
# 1 0.021695 -0.001304 -0.006907 0.000000 0.000000 0.000000
# 2 -0.001304 0.012793 -0.003365 0.000000 0.000000 0.000000
# 3 -0.006907 -0.003365 0.010617 0.000000 0.000000 0.000000
# 4 0.000000 0.000000 0.000000 0.008537 0.000000 0.000000
# 5 0.000000 0.000000 0.000000 0.000000 0.036269 0.000000
# 6 0.000000 0.000000 0.000000 0.000000 0.000000 0.031436
#
#
# Mechanical properties :
#
#
# Convention : Reuss Voigt Hill
#
# Bulk Modulus (GPa) = 45.55267 55.59260 50.57264
# Shear Modulus (GPa) = 32.93415 47.60109 40.26762
#
# Velocity S-wave (km/s) = 3.79286 4.55987 4.19393
# Velocity P-wave (km/s) = 6.25129 7.21154 6.74852
#
# Compressibility (1/GPa) = 0.02195261
#
# Stress axis : x y z
#
# Youngs Moduli (GPa) = 46.09304 78.16491 94.18742
#
# Poissons Ratio (x) = 0.10193 0.65058
# Poissons Ratio (y) = 0.06011 0.31696
# Poissons Ratio (z) = 0.31838 0.26304
#
# Static dielectric constant tensor:
#      x y z
#    x 1.754160 0.000000 0.000000 
#    y 0.000000 1.927100 0.000000 
#    z 0.000000 0.000000 1.876720 
# 
# From -- ./inp_files/49729.got.cif
#   From: 2010.05.17/outbox.cif.g08.bks.cpg/sg72_25_cif.got.tgz:49729.got - 2010.06.03 17:03:01.
