data_PCOD9528802
_publ_section_title
;
Structure prediction by ZEFSAII (Michael W. Deem and Ramdas Pophale) SiO2 
 PCOD9528802
Probable space group: I B A M
;
_chemical_formula_sum "Si O2"
_cell_formula_units_Z 60
_cell_length_a 4.930514
_cell_length_b 29.472295
_cell_length_c 19.171796
_cell_angle_alpha 90.000000
_cell_angle_beta 90.000000
_cell_angle_gamma 90.000000
_cell_volume 2785.921988
_symmetry_space_group_name_H-M "I B A M"
_symmetry_group_IT_number 72
_symmetry_cell_setting 'orthorhombic'
loop_
_space_group_symop_operation_xyz
x,y,z
-x,-y,z
x,-y,1/2-z
-x,y,1/2-z
-x,-y,-z
x,y,-z
-x,y,1/2+z
x,-y,1/2+z
1/2+x,1/2+y,1/2+z
1/2-x,1/2-y,1/2+z
1/2+x,1/2-y,-z
1/2-x,1/2+y,-z
1/2-x,1/2-y,1/2-z
1/2+x,1/2+y,1/2-z
1/2-x,1/2+y,z
1/2+x,1/2-y,z
loop_
_atom_site_type_symbol
_atom_site_label
_atom_site_fract_x
_atom_site_fract_y
_atom_site_fract_z
Si Si1 0.758387 0.034299 0.000000
Si Si2 0.223999 0.780818 0.580799
Si Si3 0.305740 0.863603 0.683745
Si Si4 0.500000 0.500000 0.250000
Si Si5 0.213753 0.923526 0.150262
O O1 0.800479 0.064116 0.069280
O O2 0.500000 0.000000 0.000000
O O3 0.000000 0.000000 0.000000
O O4 0.255593 0.795354 0.500000
O O5 0.422117 0.737944 0.591411
O O6 0.296924 0.820875 0.632674
O O7 0.500000 0.849519 0.750000
O O8 0.483181 0.905712 0.658256
O O9 0.999953 0.885037 0.677460
O O10 0.332257 0.532931 0.300943
#
# Coordination Sequence:
#
# PCOD9528802 Si02
#       5
#     8  16  16   4  16
#     4  12  26  44  66  98 130 178 242 282 344 408
#     4  10  23  43  68  97 133 177 221 275 348 417
#     4  12  25  44  66 103 134 173 230 279 344 411
#     4  12  24  48  68  90 144 180 224 274 344 408
#     4  12  27  42  68  97 135 180 224 287 338 404
#
# _framework density 21.536854000000002
#
# number of rings (size 3 to 8) (size 9 to 14) (size 15 to 20)
#    0.000    0.533    4.000    3.200    3.733    2.133 
#    0.000    0.000    0.000    0.000    0.000    0.000 
#    0.000    0.000    0.000    0.000    0.000    0.000 
#
# Total GULP energy -167352.333725 kJ/mol
# GULP energy per Si atom -5578.411124 kJ/mol
# Density = 2.148784 g / cm^3
# Si number density = 21.536854 Si / 1000 Ang^3
#
#
#
# Elastic Constant Matrix: (Units=GPa)
#
#
# Indices 1 2 3 4 5 6 
#
# 1 95.9751 -12.2034 -9.6348 0.0000 0.0000 0.0000
# 2 -12.2034 67.3766 39.8087 0.0000 0.0000 0.0000
# 3 -9.6348 39.8087 135.6771 0.0000 0.0000 0.0000
# 4 0.0000 0.0000 0.0000 53.7668 0.0000 0.0000
# 5 0.0000 0.0000 0.0000 0.0000 17.9400 0.0000
# 6 0.0000 0.0000 0.0000 0.0000 0.0000 17.5074
#
#
#
# Elastic Compliance Matrix: (Units=1/GPa)
#
#
# Indices 1 2 3 4 5 6 
#
# 1 0.010671 0.001796 0.000231 0.000000 0.000000 0.000000
# 2 0.001796 0.018257 -0.005229 0.000000 0.000000 0.000000
# 3 0.000231 -0.005229 0.008921 0.000000 0.000000 0.000000
# 4 0.000000 0.000000 0.000000 0.018599 0.000000 0.000000
# 5 0.000000 0.000000 0.000000 0.000000 0.055741 0.000000
# 6 0.000000 0.000000 0.000000 0.000000 0.000000 0.057119
#
#
# Mechanical properties :
#
#
# Convention : Reuss Voigt Hill
#
# Bulk Modulus (GPa) = 31.80162 37.21885 34.51023
# Shear Modulus (GPa) = 26.85378 36.58006 31.71692
#
# Velocity S-wave (km/s) = 3.53494 4.12574 3.84172
# Velocity P-wave (km/s) = 5.60886 6.32571 5.97804
#
# Compressibility (1/GPa) = 0.03144494
#
# Stress axis : x y z
#
# Youngs Moduli (GPa) = 93.71233 54.77382 112.09390
#
# Poissons Ratio (x) = -0.09840 -0.02586
# Poissons Ratio (y) = -0.16835 0.58615
# Poissons Ratio (z) = -0.02162 0.28642
#
# Static dielectric constant tensor:
#      x y z
#    x 1.761040 0.000000 0.000000 
#    y 0.000000 1.722260 0.000000 
#    z 0.000000 0.000000 1.807710 
# 
# From -- ./inp_files/26931.got.cif
#   From: 2010.05.17/outbox.cif.g08.bks.cpg/sg72_14_cif.got.tgz:26931.got - 2010.06.03 17:03:01.
