data_PCOD9528376
_publ_section_title
;
Structure prediction by ZEFSAII (Michael W. Deem and Ramdas Pophale) SiO2 
 PCOD9528376
Probable space group: I B A M
;
_chemical_formula_sum "Si O2"
_cell_formula_units_Z 68
_cell_length_a 10.909948
_cell_length_b 19.489549
_cell_length_c 14.065024
_cell_angle_alpha 90.000000
_cell_angle_beta 90.000000
_cell_angle_gamma 90.000000
_cell_volume 2990.645577
_symmetry_space_group_name_H-M "I B A M"
_symmetry_group_IT_number 72
_symmetry_cell_setting 'orthorhombic'
loop_
_space_group_symop_operation_xyz
x,y,z
-x,-y,z
x,-y,1/2-z
-x,y,1/2-z
-x,-y,-z
x,y,-z
-x,y,1/2+z
x,-y,1/2+z
1/2+x,1/2+y,1/2+z
1/2-x,1/2-y,1/2+z
1/2+x,1/2-y,-z
1/2-x,1/2+y,-z
1/2-x,1/2-y,1/2-z
1/2+x,1/2+y,1/2-z
1/2-x,1/2+y,z
1/2+x,1/2-y,z
loop_
_atom_site_type_symbol
_atom_site_label
_atom_site_fract_x
_atom_site_fract_y
_atom_site_fract_z
Si Si1 0.664014 0.113421 0.309408
Si Si2 0.130432 0.973656 0.609329
Si Si3 0.876405 0.757864 0.688212
Si Si4 0.258939 0.120941 0.604369
Si Si5 0.500000 0.000000 0.750000
O O1 0.800045 0.086464 0.334452
O O2 0.622640 0.182699 0.360554
O O3 0.655050 0.127653 0.195938
O O4 0.580262 0.047306 0.318981
O O5 0.114818 0.950456 0.500000
O O6 0.209623 0.043392 0.608232
O O7 0.000000 0.000000 0.645433
O O8 0.750000 0.750000 0.750000
O O9 0.849495 0.823618 0.622896
O O10 0.000000 0.766878 0.750000
O O11 0.312122 0.133767 0.500000
#
# Coordination Sequence:
#
# PCOD9528376 Si02
#       5
#    16  16  16  16   4
#     4  11  22  41  67  92 133 175 219 273 337 399
#     4  10  22  39  64 100 130 164 220 277 338 400
#     4  10  23  40  63  91 126 174 223 266 330 397
#     4  10  22  40  60  92 129 168 217 268 328 396
#     4  12  20  40  64  92 128 174 222 266 326 404
#
# _framework density 22.737565
#
# number of rings (size 3 to 8) (size 9 to 14) (size 15 to 20)
#    0.000    1.647    3.529    0.000    6.588    1.882 
#    0.000    7.059    0.000    0.000    0.000    0.000 
#    0.000    0.000    0.000    0.000    0.000    0.000 
#
# Total GULP energy -189539.867537 kJ/mol
# GULP energy per Si atom -5574.701986 kJ/mol
# Density = 2.268581 g / cm^3
# Si number density = 22.737565 Si / 1000 Ang^3
#
#
#
# Elastic Constant Matrix: (Units=GPa)
#
#
# Indices 1 2 3 4 5 6 
#
# 1 86.2141 15.7454 10.3592 0.0000 0.0000 0.0000
# 2 15.7454 118.4481 14.3497 0.0000 0.0000 0.0000
# 3 10.3592 14.3497 91.3988 0.0001 0.0000 0.0000
# 4 0.0000 0.0000 0.0001 8.2398 0.0000 0.0000
# 5 0.0000 0.0000 0.0000 0.0000 13.6675 0.0000
# 6 0.0000 0.0000 0.0000 0.0000 0.0000 35.6507
#
#
#
# Elastic Compliance Matrix: (Units=1/GPa)
#
#
# Indices 1 2 3 4 5 6 
#
# 1 0.012001 -0.001458 -0.001131 0.000000 0.000000 0.000000
# 2 -0.001458 0.008783 -0.001214 0.000000 0.000000 0.000000
# 3 -0.001131 -0.001214 0.011260 0.000000 0.000000 0.000000
# 4 0.000000 0.000000 0.000000 0.121363 0.000000 0.000000
# 5 0.000000 0.000000 0.000000 0.000000 0.073166 0.000000
# 6 0.000000 0.000000 0.000000 0.000000 0.000000 0.028050
#
#
# Mechanical properties :
#
#
# Convention : Reuss Voigt Hill
#
# Bulk Modulus (GPa) = 40.91997 41.88553 41.40275
# Shear Modulus (GPa) = 18.49276 28.55203 23.52240
#
# Velocity S-wave (km/s) = 2.85496 3.54746 3.21988
# Velocity P-wave (km/s) = 5.37619 5.93638 5.66321
#
# Compressibility (1/GPa) = 0.02443794
#
# Stress axis : x y z
#
# Youngs Moduli (GPa) = 83.32440 113.85101 88.81118
#
# Poissons Ratio (x) = 0.16603 0.10047
# Poissons Ratio (y) = 0.12151 0.10779
# Poissons Ratio (z) = 0.09426 0.13818
#
# Static dielectric constant tensor:
#      x y z
#    x 1.931070 0.000000 0.000000 
#    y 0.000000 1.969230 0.000000 
#    z 0.000000 0.000000 1.872850 
# 
# From -- ./inp_files/19975.got.cif
#   From: 2010.05.17/outbox.cif.g08.bks.cpg/sg72_10_cif.got.tgz:19975.got - 2010.06.03 17:03:01.
