data_PCOD9528180
_publ_section_title
;
Structure prediction by ZEFSAII (Michael W. Deem and Ramdas Pophale) SiO2 
 PCOD9528180
Probable space group: I B A M
;
_chemical_formula_sum "Si O2"
_cell_formula_units_Z 112
_cell_length_a 31.521468
_cell_length_b 10.823020
_cell_length_c 15.843282
_cell_angle_alpha 90.000000
_cell_angle_beta 90.000000
_cell_angle_gamma 90.000000
_cell_volume 5405.054140
_symmetry_space_group_name_H-M "I B A M"
_symmetry_group_IT_number 72
_symmetry_cell_setting 'orthorhombic'
loop_
_space_group_symop_operation_xyz
x,y,z
-x,-y,z
x,-y,1/2-z
-x,y,1/2-z
-x,-y,-z
x,y,-z
-x,y,1/2+z
x,-y,1/2+z
1/2+x,1/2+y,1/2+z
1/2-x,1/2-y,1/2+z
1/2+x,1/2-y,-z
1/2-x,1/2+y,-z
1/2-x,1/2-y,1/2-z
1/2+x,1/2+y,1/2-z
1/2-x,1/2+y,z
1/2+x,1/2-y,z
loop_
_atom_site_type_symbol
_atom_site_label
_atom_site_fract_x
_atom_site_fract_y
_atom_site_fract_z
Si Si1 0.411106 0.688795 0.907959
Si Si2 0.884683 0.923208 0.402687
Si Si3 0.542122 0.939364 0.157819
Si Si4 0.288735 0.117478 0.307646
Si Si5 0.129187 0.541964 0.590980
Si Si6 0.045367 0.170077 0.274449
Si Si7 0.696065 0.367165 0.701009
O O1 0.379750 0.571834 0.904487
O O2 0.388784 0.819508 0.913508
O O3 0.433949 0.692645 0.817413
O O4 0.434763 0.673034 0.000000
O O5 0.892900 0.883920 0.500000
O O6 0.923606 0.902473 0.337511
O O7 0.843615 0.859965 0.362184
O O8 0.536055 0.795910 0.174596
O O9 0.500000 0.000000 0.115572
O O10 0.544447 0.000000 0.250000
O O11 0.588454 0.963418 0.119886
O O12 0.328478 0.061336 0.356757
O O13 0.302691 0.246297 0.262506
O O14 0.241848 0.140648 0.346216
O O15 0.278172 0.000000 0.250000
O O16 0.141782 0.493532 0.500000
O O17 0.000000 0.118686 0.250000
O O18 0.690777 0.500000 0.750000
#
# Coordination Sequence:
#
# PCOD9528180 Si02
#       7
#    16  16  16  16  16  16  16
#     4  10  22  40  61  88 119 159 209 259 311 376
#     4  11  25  41  62  92 126 165 212 265 317 383
#     4  11  21  39  61  85 118 161 207 256 314 380
#     4  10  22  38  62  95 124 160 212 271 319 379
#     4  11  22  36  60  90 124 162 204 260 323 384
#     4  12  23  40  65  88 122 166 211 259 323 382
#     4  10  21  41  66  89 122 170 217 256 323 392
#
# _framework density 20.721347000000002
#
# number of rings (size 3 to 8) (size 9 to 14) (size 15 to 20)
#    0.000    1.286    2.857    3.429    2.000    3.143 
#    0.000    1.429    0.000    5.571    0.000    0.000 
#    0.000    0.000    0.000    0.000    0.000    0.000 
#
# Total GULP energy -311765.219057 kJ/mol
# GULP energy per Si atom -5567.236055 kJ/mol
# Density = 2.067418 g / cm^3
# Si number density = 20.721347 Si / 1000 Ang^3
#
#
#
# Elastic Constant Matrix: (Units=GPa)
#
#
# Indices 1 2 3 4 5 6 
#
# 1 154.2058 14.3688 62.0094 0.0000 0.0000 0.0000
# 2 14.3688 92.9087 -2.7807 0.0000 0.0000 0.0000
# 3 62.0094 -2.7807 91.0255 0.0000 0.0000 0.0000
# 4 0.0000 0.0000 0.0000 -24.5215 0.0000 0.0000
# 5 0.0000 0.0000 0.0000 0.0000 -47.7643 0.0000
# 6 0.0000 0.0000 0.0000 0.0000 0.0000 43.8693
#
#
#
# Elastic Compliance Matrix: (Units=1/GPa)
#
#
# Indices 1 2 3 4 5 6 
#
# 1 0.009165 -0.001606 -0.006292 0.000000 0.000000 0.000000
# 2 -0.001606 0.011054 0.001432 0.000000 0.000000 0.000000
# 3 -0.006292 0.001432 0.015316 0.000000 0.000000 0.000000
# 4 0.000000 0.000000 0.000000 -0.040781 0.000000 0.000000
# 5 0.000000 0.000000 0.000000 0.000000 -0.020936 0.000000
# 6 0.000000 0.000000 0.000000 0.000000 0.000000 0.022795
#
#
# Mechanical properties :
#
#
# Convention : Reuss Voigt Hill
#
# Bulk Modulus (GPa) = 44.24314 53.92612 49.08463
# Shear Modulus (GPa) = 292.72512 11.95286 152.33899
#
# Velocity S-wave (km/s) = 11.89849 2.40435 8.58356
# Velocity P-wave (km/s) = 14.49701 5.81281 11.04428
#
# Compressibility (1/GPa) = 0.02260237
#
# Stress axis : x y z
#
# Youngs Moduli (GPa) = 109.11369 90.46141 65.29024
#
# Poissons Ratio (x) = 0.14525 0.41083
# Poissons Ratio (y) = 0.17520 -0.09347
# Poissons Ratio (z) = 0.68658 -0.12950
#
# Static dielectric constant tensor:
#      x y z
#    x 5.279160 0.000000 0.000000 
#    y 0.000000 1.771970 0.000000 
#    z 0.000000 0.000000 2.065410 
# 
# From -- ./inp_files/26417.got.cif
#   From: 2010.05.17/outbox.cif.g08.bks.cpg/sg72_14_cif.got.tgz:26417.got - 2010.06.03 17:03:01.
