data_PCOD9528615
_publ_section_title
;
Structure prediction by ZEFSAII (Michael W. Deem and Ramdas Pophale) SiO2 
 PCOD9528615
Probable space group: I B A M
;
_chemical_formula_sum "Si O2"
_cell_formula_units_Z 48
_cell_length_a 10.494022
_cell_length_b 14.443406
_cell_length_c 13.774815
_cell_angle_alpha 90.000000
_cell_angle_beta 90.000000
_cell_angle_gamma 90.000000
_cell_volume 2087.840725
_symmetry_space_group_name_H-M "I B A M"
_symmetry_group_IT_number 72
_symmetry_cell_setting 'orthorhombic'
loop_
_space_group_symop_operation_xyz
x,y,z
-x,-y,z
x,-y,1/2-z
-x,y,1/2-z
-x,-y,-z
x,y,-z
-x,y,1/2+z
x,-y,1/2+z
1/2+x,1/2+y,1/2+z
1/2-x,1/2-y,1/2+z
1/2+x,1/2-y,-z
1/2-x,1/2+y,-z
1/2-x,1/2-y,1/2-z
1/2+x,1/2+y,1/2-z
1/2-x,1/2+y,z
1/2+x,1/2-y,z
loop_
_atom_site_type_symbol
_atom_site_label
_atom_site_fract_x
_atom_site_fract_y
_atom_site_fract_z
Si Si1 0.384344 0.899315 0.300639
Si Si2 0.789674 0.835393 0.500000
Si Si3 0.635010 0.607146 0.783179
Si Si4 0.521954 0.155630 0.500000
O O1 0.500000 0.847192 0.250000
O O2 0.250098 0.852558 0.281107
O O3 0.430087 0.903174 0.409111
O O4 0.376279 0.000000 0.250000
O O5 0.828277 0.884517 0.397239
O O6 0.632514 0.825118 0.500000
O O7 0.884784 0.746079 0.500000
O O8 0.628219 0.500000 0.750000
O O9 0.500000 0.646604 0.750000
#
# Coordination Sequence:
#
# PCOD9528615 Si02
#       4
#    16   8  16   8
#     4  10  22  43  71 104 132 179 234 291 338 400
#     4  12  28  46  68 104 144 184 227 289 352 417
#     4  10  24  45  72 104 139 181 233 290 344 410
#     4  12  28  44  69 104 144 182 232 283 354 419
#
# _framework density 22.990258999999998
#
# number of rings (size 3 to 8) (size 9 to 14) (size 15 to 20)
#    0.000    1.333    3.333    0.000    4.667   13.333 
#    0.000    0.000    0.000    0.000    0.000    0.000 
#    0.000    0.000    0.000    0.000    0.000    0.000 
#
# Total GULP energy -133725.281330 kJ/mol
# GULP energy per Si atom -5571.886722 kJ/mol
# Density = 2.293793 g / cm^3
# Si number density = 22.990259 Si / 1000 Ang^3
#
#
#
# Elastic Constant Matrix: (Units=GPa)
#
#
# Indices 1 2 3 4 5 6 
#
# 1 306.3077 33.5150 96.2534 0.0000 0.0000 0.0000
# 2 33.5150 133.3894 41.7683 0.0000 0.0000 0.0000
# 3 96.2534 41.7683 242.7837 0.0000 0.0000 0.0000
# 4 0.0000 0.0000 0.0000 -86.2225 0.0000 0.0000
# 5 0.0000 0.0000 0.0000 0.0000 42.4860 0.0000
# 6 0.0000 0.0000 0.0000 0.0000 0.0000 35.8996
#
#
#
# Elastic Compliance Matrix: (Units=1/GPa)
#
#
# Indices 1 2 3 4 5 6 
#
# 1 0.003761 -0.000505 -0.001404 0.000000 0.000000 0.000000
# 2 -0.000505 0.007992 -0.001175 0.000000 0.000000 0.000000
# 3 -0.001404 -0.001175 0.004878 0.000000 0.000000 0.000000
# 4 0.000000 0.000000 0.000000 -0.011598 0.000000 0.000000
# 5 0.000000 0.000000 0.000000 0.000000 0.023537 0.000000
# 6 0.000000 0.000000 0.000000 0.000000 0.000000 0.027855
#
#
# Mechanical properties :
#
#
# Convention : Reuss Voigt Hill
#
# Bulk Modulus (GPa) = 95.58096 113.95047 104.76571
# Shear Modulus (GPa) = 75.66487 32.49556 54.08021
#
# Velocity S-wave (km/s) = 5.74310 3.76367 4.85532
# Velocity P-wave (km/s) = 9.25431 8.28005 8.78070
#
# Compressibility (1/GPa) = 0.01046233
#
# Stress axis : x y z
#
# Youngs Moduli (GPa) = 265.86927 125.13145 205.01559
#
# Poissons Ratio (x) = 0.06323 0.28789
# Poissons Ratio (y) = 0.13435 0.24080
# Poissons Ratio (z) = 0.37334 0.14697
#
# Static dielectric constant tensor:
#      x y z
#    x 2.075080 0.000000 0.000000 
#    y 0.000000 0.814830 0.000000 
#    z 0.000000 0.000000 1.790670 
# 
# From -- ./inp_files/10971.got.cif
#   From: 2010.05.17/outbox.cif.g08.bks.cpg/sg72_6_cif.got.tgz:10971.got - 2010.06.03 17:03:01.
