data_PCOD9528017
_publ_section_title
;
Structure prediction by ZEFSAII (Michael W. Deem and Ramdas Pophale) SiO2 
 PCOD9528017
Probable space group: I B A M
;
_chemical_formula_sum "Si O2"
_cell_formula_units_Z 80
_cell_length_a 24.205544
_cell_length_b 17.969455
_cell_length_c 9.553520
_cell_angle_alpha 90.000000
_cell_angle_beta 90.000000
_cell_angle_gamma 90.000000
_cell_volume 4155.403202
_symmetry_space_group_name_H-M "I B A M"
_symmetry_group_IT_number 72
_symmetry_cell_setting 'orthorhombic'
loop_
_space_group_symop_operation_xyz
x,y,z
-x,-y,z
x,-y,1/2-z
-x,y,1/2-z
-x,-y,-z
x,y,-z
-x,y,1/2+z
x,-y,1/2+z
1/2+x,1/2+y,1/2+z
1/2-x,1/2-y,1/2+z
1/2+x,1/2-y,-z
1/2-x,1/2+y,-z
1/2-x,1/2-y,1/2-z
1/2+x,1/2+y,1/2-z
1/2-x,1/2+y,z
1/2+x,1/2-y,z
loop_
_atom_site_type_symbol
_atom_site_label
_atom_site_fract_x
_atom_site_fract_y
_atom_site_fract_z
Si Si1 0.869309 0.176257 0.659069
Si Si2 0.254549 0.175376 0.160916
Si Si3 0.446814 0.889564 0.500000
Si Si4 0.871940 0.651258 0.756058
Si Si5 0.427699 0.933350 0.000000
Si Si6 0.558312 0.572420 0.830662
O O1 0.889626 0.160232 0.500000
O O2 0.807159 0.143170 0.670220
O O3 0.869207 0.265577 0.679347
O O4 0.904927 0.141384 0.782716
O O5 0.250000 0.250000 0.250000
O O6 0.309474 0.132774 0.207905
O O7 0.263560 0.196226 0.000000
O O8 0.416582 0.852641 0.368062
O O9 0.513448 0.889368 0.500000
O O10 0.435337 0.978324 0.500000
O O11 0.893496 0.592629 0.867087
O O12 0.582489 0.500000 0.750000
O O13 0.500000 0.582376 0.750000
O O14 0.553507 0.564173 0.000000
#
# Coordination Sequence:
#
# PCOD9528017 Si02
#       6
#    16  16   8  16   8  16
#     4  10  21  39  62  93 125 157 203 256 305 361
#     4   9  19  35  61  89 120 155 194 246 307 365
#     4  11  24  40  63  82 125 165 221 260 313 376
#     4  11  21  40  63  90 121 161 209 257 306 367
#     4  11  24  42  57  88 121 175 207 262 323 360
#     4  11  23  41  64  89 124 165 199 240 303 365
#
# _framework density 19.252043
#
# number of rings (size 3 to 8) (size 9 to 14) (size 15 to 20)
#    0.000    1.600    2.000    3.600    2.800    4.000 
#    0.000    2.000    0.000    0.000    0.000    0.000 
#    0.000    0.000    0.000    0.000    0.000    0.000 
#
# Total GULP energy -222923.744387 kJ/mol
# GULP energy per Si atom -5573.093610 kJ/mol
# Density = 1.920822 g / cm^3
# Si number density = 19.252043 Si / 1000 Ang^3
#
#
#
# Elastic Constant Matrix: (Units=GPa)
#
#
# Indices 1 2 3 4 5 6 
#
# 1 93.7915 20.3726 46.5576 0.0000 0.0000 0.0000
# 2 20.3726 35.2046 14.1498 0.0000 0.0000 0.0000
# 3 46.5576 14.1498 156.5630 0.0000 0.0000 0.0000
# 4 0.0000 0.0000 0.0000 25.8018 0.0000 0.0000
# 5 0.0000 0.0000 0.0000 0.0000 30.6570 0.0000
# 6 0.0000 0.0000 0.0000 0.0000 0.0000 -5.7169
#
#
#
# Elastic Compliance Matrix: (Units=1/GPa)
#
#
# Indices 1 2 3 4 5 6 
#
# 1 0.013842 -0.006595 -0.003520 0.000000 0.000000 0.000000
# 2 -0.006595 0.032619 -0.000987 0.000000 0.000000 0.000000
# 3 -0.003520 -0.000987 0.007523 0.000000 0.000000 0.000000
# 4 0.000000 0.000000 0.000000 0.038757 0.000000 0.000000
# 5 0.000000 0.000000 0.000000 0.000000 0.032619 0.000000
# 6 0.000000 0.000000 0.000000 0.000000 0.000000 -0.174921
#
#
# Mechanical properties :
#
#
# Convention : Reuss Voigt Hill
#
# Bulk Modulus (GPa) = 31.46697 49.74656 40.60677
# Shear Modulus (GPa) = -298.26604 23.78032 -137.24286
#
# Velocity S-wave (km/s) = -12.46047 3.51837 -8.45235
# Velocity P-wave (km/s) = 13.80715 6.51160 8.60920
#
# Compressibility (1/GPa) = 0.03177935
#
# Stress axis : x y z
#
# Youngs Moduli (GPa) = 72.24436 30.65730 132.92254
#
# Poissons Ratio (x) = 0.20220 0.46791
# Poissons Ratio (y) = 0.47648 0.13116
# Poissons Ratio (z) = 0.25431 0.03025
#
# Static dielectric constant tensor:
#      x y z
#    x 1.715070 0.000000 0.000000 
#    y 0.000000 1.679350 0.000000 
#    z 0.000000 0.000000 1.529880 
# 
# From -- ./inp_files/6802.got.cif
#   From: 2010.05.17/outbox.cif.g08.bks.cpg/sg72_4_cif.got.tgz:6802.got - 2010.06.03 17:03:01.
