data_PCOD9528228
_publ_section_title
;
Structure prediction by ZEFSAII (Michael W. Deem and Ramdas Pophale) SiO2 
 PCOD9528228
Probable space group: I B A M
;
_chemical_formula_sum "Si O2"
_cell_formula_units_Z 116
_cell_length_a 9.516507
_cell_length_b 23.069515
_cell_length_c 28.081406
_cell_angle_alpha 90.000000
_cell_angle_beta 90.000000
_cell_angle_gamma 90.000000
_cell_volume 6165.025599
_symmetry_space_group_name_H-M "I B A M"
_symmetry_group_IT_number 72
_symmetry_cell_setting 'orthorhombic'
loop_
_space_group_symop_operation_xyz
x,y,z
-x,-y,z
x,-y,1/2-z
-x,y,1/2-z
-x,-y,-z
x,y,-z
-x,y,1/2+z
x,-y,1/2+z
1/2+x,1/2+y,1/2+z
1/2-x,1/2-y,1/2+z
1/2+x,1/2-y,-z
1/2-x,1/2+y,-z
1/2-x,1/2-y,1/2-z
1/2+x,1/2+y,1/2-z
1/2-x,1/2+y,z
1/2+x,1/2-y,z
loop_
_atom_site_type_symbol
_atom_site_label
_atom_site_fract_x
_atom_site_fract_y
_atom_site_fract_z
Si Si1 0.964397 0.847507 0.654300
Si Si2 0.288962 0.806864 0.219231
Si Si3 0.041207 0.375320 0.944308
Si Si4 0.779058 0.640821 0.314579
Si Si5 0.631924 0.040037 0.381785
Si Si6 0.171120 0.059754 0.415831
Si Si7 0.989412 0.280872 0.864882
Si Si8 0.500000 0.500000 0.500000
O O1 0.846197 0.831676 0.692632
O O2 0.910723 0.899906 0.621679
O O3 0.111568 0.859538 0.680073
O O4 0.983198 0.787271 0.625236
O O5 0.250000 0.750000 0.250000
O O6 0.328991 0.851769 0.260609
O O7 0.404896 0.793068 0.179373
O O8 0.191502 0.405331 0.934391
O O9 0.030835 0.319398 0.910211
O O10 0.921254 0.420675 0.926388
O O11 0.025032 0.362784 0.000000
O O12 0.837169 0.583860 0.339526
O O13 0.841328 0.694442 0.345441
O O14 0.500000 0.000000 0.369544
O O15 0.762677 0.998942 0.393499
O O16 0.072096 0.040811 0.458498
#
# Coordination Sequence:
#
# PCOD9528228 Si02
#       8
#    16  16  16  16  16  16  16   4
#     4  12  23  40  63  98 139 172 215 279 333 390
#     4  12  22  39  68 100 133 181 221 262 328 407
#     4  10  21  42  70  95 124 169 220 273 344 393
#     4  11  23  37  65 101 130 173 225 266 325 389
#     4   9  22  43  68  95 127 171 221 278 325 393
#     4  11  23  41  66  91 131 172 219 282 329 392
#     4  11  22  41  66  99 136 172 220 277 324 405
#     4  12  24  40  66  92 122 172 232 266 336 406
#
# _framework density 18.815816999999999
#
# number of rings (size 3 to 8) (size 9 to 14) (size 15 to 20)
#    0.000    1.103    4.828    1.655    0.966    0.828 
#    1.241    0.690    3.034    1.655    0.000    0.000 
#    0.000    0.000    0.000    0.000    0.000    0.000 
#
# Total GULP energy -323449.209950 kJ/mol
# GULP energy per Si atom -5576.710516 kJ/mol
# Density = 1.877299 g / cm^3
# Si number density = 18.815817 Si / 1000 Ang^3
#
#
#
# Elastic Constant Matrix: (Units=GPa)
#
#
# Indices 1 2 3 4 5 6 
#
# 1 77.6269 22.2711 50.0005 0.0000 0.0000 0.0000
# 2 22.2711 92.7589 68.6994 0.0000 0.0000 0.0000
# 3 50.0005 68.6994 138.4014 0.0000 0.0000 0.0000
# 4 0.0000 0.0000 0.0000 27.6230 0.0000 0.0000
# 5 0.0000 0.0000 0.0000 0.0000 22.3667 0.0000
# 6 0.0000 0.0000 0.0000 0.0000 0.0000 29.0017
#
#
#
# Elastic Compliance Matrix: (Units=1/GPa)
#
#
# Indices 1 2 3 4 5 6 
#
# 1 0.016820 0.000731 -0.006439 0.000000 0.000000 0.000000
# 2 0.000731 0.017080 -0.008742 0.000000 0.000000 0.000000
# 3 -0.006439 -0.008742 0.013891 0.000000 0.000000 0.000000
# 4 0.000000 0.000000 0.000000 0.036202 0.000000 0.000000
# 5 0.000000 0.000000 0.000000 0.000000 0.044709 0.000000
# 6 0.000000 0.000000 0.000000 0.000000 0.000000 0.034481
#
#
# Mechanical properties :
#
#
# Convention : Reuss Voigt Hill
#
# Bulk Modulus (GPa) = 52.93907 65.63657 59.28782
# Shear Modulus (GPa) = 25.20410 26.98604 26.09507
#
# Velocity S-wave (km/s) = 3.66391 3.79122 3.72811
# Velocity P-wave (km/s) = 6.78937 7.35690 7.07882
#
# Compressibility (1/GPa) = 0.01888964
#
# Stress axis : x y z
#
# Youngs Moduli (GPa) = 59.45239 58.54910 71.98897
#
# Poissons Ratio (x) = -0.04278 0.46356
# Poissons Ratio (y) = -0.04344 0.62932
# Poissons Ratio (z) = 0.38283 0.51183
#
# Static dielectric constant tensor:
#      x y z
#    x 1.680520 0.000000 0.000000 
#    y 0.000000 1.677060 0.000000 
#    z 0.000000 0.000000 1.615710 
# 
# From -- ./inp_files/50988.got.cif
#   From: 2010.05.17/outbox.cif.g08.bks.cpg/sg72_26_cif.got.tgz:50988.got - 2010.06.03 17:03:01.
