data_PCOD9528097
_publ_section_title
;
Structure prediction by ZEFSAII (Michael W. Deem and Ramdas Pophale) SiO2 
 PCOD9528097
Probable space group: I B A M
;
_chemical_formula_sum "Si O2"
_cell_formula_units_Z 96
_cell_length_a 8.638017
_cell_length_b 23.466917
_cell_length_c 24.368794
_cell_angle_alpha 90.000000
_cell_angle_beta 90.000000
_cell_angle_gamma 90.000000
_cell_volume 4939.740429
_symmetry_space_group_name_H-M "I B A M"
_symmetry_group_IT_number 72
_symmetry_cell_setting 'orthorhombic'
loop_
_space_group_symop_operation_xyz
x,y,z
-x,-y,z
x,-y,1/2-z
-x,y,1/2-z
-x,-y,-z
x,y,-z
-x,y,1/2+z
x,-y,1/2+z
1/2+x,1/2+y,1/2+z
1/2-x,1/2-y,1/2+z
1/2+x,1/2-y,-z
1/2-x,1/2+y,-z
1/2-x,1/2-y,1/2-z
1/2+x,1/2+y,1/2-z
1/2-x,1/2+y,z
1/2+x,1/2-y,z
loop_
_atom_site_type_symbol
_atom_site_label
_atom_site_fract_x
_atom_site_fract_y
_atom_site_fract_z
Si Si1 0.322609 0.364895 0.679590
Si Si2 0.177404 0.485046 0.685606
Si Si3 0.121163 0.758255 0.379479
Si Si4 0.344321 0.587648 0.355032
Si Si5 0.157767 0.330669 0.217484
Si Si6 0.658329 0.683480 0.937099
O O1 0.208847 0.418386 0.678119
O O2 0.293314 0.318271 0.632340
O O3 0.493513 0.392437 0.672406
O O4 0.292308 0.331220 0.736487
O O5 0.203495 0.500000 0.750000
O O6 0.301039 0.521683 0.650290
O O7 0.000000 0.500000 0.672070
O O8 0.134965 0.722091 0.323553
O O9 0.182334 0.716933 0.426946
O O10 0.952904 0.780584 0.396530
O O11 0.206226 0.617139 0.320814
O O12 0.340165 0.619284 0.413646
O O13 0.000000 0.338858 0.250000
O O14 0.610047 0.685319 0.000000
#
# Coordination Sequence:
#
# PCOD9528097 Si02
#       6
#    16  16  16  16  16  16
#     4  11  21  34  55  79 121 152 184 231 278 346
#     4  11  22  37  56  81 116 157 192 228 280 352
#     4  10  22  36  55  87 113 150 193 232 292 348
#     4  10  22  36  56  86 110 152 200 233 282 343
#     4  11  20  33  52  80 122 153 180 222 280 350
#     4  10  21  40  62  82 113 150 196 250 292 336
#
# _framework density 19.43422
#
# number of rings (size 3 to 8) (size 9 to 14) (size 15 to 20)
#    0.000    1.500    1.667    4.000    0.000    4.667 
#    0.000    0.000    0.000    9.500    0.000    0.000 
#    0.000    0.000    0.000    0.000    0.000    0.000 
#
# Total GULP energy -267652.994414 kJ/mol
# GULP energy per Si atom -5576.104050 kJ/mol
# Density = 1.938999 g / cm^3
# Si number density = 19.434220 Si / 1000 Ang^3
#
#
#
# Elastic Constant Matrix: (Units=GPa)
#
#
# Indices 1 2 3 4 5 6 
#
# 1 67.7065 32.9910 24.3514 0.0000 0.0000 0.0000
# 2 32.9910 81.0840 38.8062 0.0000 0.0000 0.0000
# 3 24.3514 38.8062 62.2451 0.0000 0.0000 0.0000
# 4 0.0000 0.0000 0.0000 16.2681 0.0000 0.0000
# 5 0.0000 0.0000 0.0000 0.0000 4.9886 0.0000
# 6 0.0000 0.0000 0.0000 0.0000 0.0000 19.4485
#
#
#
# Elastic Compliance Matrix: (Units=1/GPa)
#
#
# Indices 1 2 3 4 5 6 
#
# 1 0.019010 -0.005951 -0.003727 0.000000 0.000000 0.000000
# 2 -0.005951 0.019440 -0.009792 0.000000 0.000000 0.000000
# 3 -0.003727 -0.009792 0.023628 0.000000 0.000000 0.000000
# 4 0.000000 0.000000 0.000000 0.061470 0.000000 0.000000
# 5 0.000000 0.000000 0.000000 0.000000 0.200456 0.000000
# 6 0.000000 0.000000 0.000000 0.000000 0.000000 0.051418
#
#
# Mechanical properties :
#
#
# Convention : Reuss Voigt Hill
#
# Bulk Modulus (GPa) = 43.21706 44.81476 44.01591
# Shear Modulus (GPa) = 11.84625 15.80019 13.82322
#
# Velocity S-wave (km/s) = 2.47160 2.85442 2.66988
# Velocity P-wave (km/s) = 5.51643 5.82867 5.67470
#
# Compressibility (1/GPa) = 0.02313901
#
# Stress axis : x y z
#
# Youngs Moduli (GPa) = 52.60464 51.43904 42.32223
#
# Poissons Ratio (x) = 0.30611 0.15773
# Poissons Ratio (y) = 0.31304 0.41442
# Poissons Ratio (z) = 0.19605 0.50369
#
# Static dielectric constant tensor:
#      x y z
#    x 1.738660 0.000000 0.000000 
#    y 0.000000 1.720930 0.000000 
#    z 0.000000 0.000000 1.661230 
# 
# From -- ./inp_files/42391.got.cif
#   From: 2010.05.17/outbox.cif.g08.bks.cpg/sg72_22_cif.got.tgz:42391.got - 2010.06.03 17:03:01.
