data_PCOD9528627
_publ_section_title
;
Structure prediction by ZEFSAII (Michael W. Deem and Ramdas Pophale) SiO2 
 PCOD9528627
Probable space group: I B A M
;
_chemical_formula_sum "Si O2"
_cell_formula_units_Z 92
_cell_length_a 25.798285
_cell_length_b 18.949232
_cell_length_c 9.878391
_cell_angle_alpha 90.000000
_cell_angle_beta 90.000000
_cell_angle_gamma 90.000000
_cell_volume 4829.127382
_symmetry_space_group_name_H-M "I B A M"
_symmetry_group_IT_number 72
_symmetry_cell_setting 'orthorhombic'
loop_
_space_group_symop_operation_xyz
x,y,z
-x,-y,z
x,-y,1/2-z
-x,y,1/2-z
-x,-y,-z
x,y,-z
-x,y,1/2+z
x,-y,1/2+z
1/2+x,1/2+y,1/2+z
1/2-x,1/2-y,1/2+z
1/2+x,1/2-y,-z
1/2-x,1/2+y,-z
1/2-x,1/2-y,1/2-z
1/2+x,1/2+y,1/2-z
1/2-x,1/2+y,z
1/2+x,1/2-y,z
loop_
_atom_site_type_symbol
_atom_site_label
_atom_site_fract_x
_atom_site_fract_y
_atom_site_fract_z
Si Si1 0.543435 0.897316 0.500000
Si Si2 0.000000 0.111238 0.750000
Si Si3 0.500000 0.500000 0.500000
Si Si4 0.074425 0.447125 0.500000
Si Si5 0.898049 0.644591 0.748579
Si Si6 0.599460 0.303257 0.658439
Si Si7 0.798099 0.431335 0.656182
Si Si8 0.719353 0.690404 0.837254
O O1 0.484780 0.921516 0.500000
O O2 0.558244 0.858163 0.363481
O O3 0.576630 0.969265 0.500000
O O4 0.003217 0.061569 0.881171
O O5 0.947613 0.158599 0.764448
O O6 0.097187 0.415678 0.636050
O O7 0.902946 0.719004 0.675928
O O8 0.844026 0.625547 0.819808
O O9 0.594854 0.322132 0.500000
O O10 0.658932 0.318244 0.701973
O O11 0.801989 0.500000 0.750000
O O12 0.798810 0.454095 0.500000
O O13 0.747091 0.384766 0.682392
O O14 0.750000 0.750000 0.750000
O O15 0.721533 0.707838 0.000000
#
# Coordination Sequence:
#
# PCOD9528627 Si02
#       8
#     8   8   4   8  16  16  16  16
#     4  11  24  39  53  84 127 172 225 276 317 377
#     4  11  24  48  76 106 137 180 226 272 359 418
#     4  10  24  50  76 102 140 178 218 290 348 424
#     4  11  24  39  55  82 123 180 221 266 329 381
#     4  12  23  37  63  89 126 171 218 278 325 392
#     4  11  24  43  69 102 137 176 222 277 343 416
#     4  11  24  42  65  93 127 172 225 273 335 405
#     4  10  22  44  65  96 134 176 225 282 345 398
#
# _framework density 19.05106
#
# number of rings (size 3 to 8) (size 9 to 14) (size 15 to 20)
#    0.000    1.043    4.348    2.087    3.652    2.783 
#    4.696    0.000    0.000    0.000    0.000    0.000 
#    0.000    0.000    0.000    0.000    0.000    0.000 
#
# Total GULP energy -256292.931998 kJ/mol
# GULP energy per Si atom -5571.585478 kJ/mol
# Density = 1.900770 g / cm^3
# Si number density = 19.051060 Si / 1000 Ang^3
#
#
#
# Elastic Constant Matrix: (Units=GPa)
#
#
# Indices 1 2 3 4 5 6 
#
# 1 123.5606 45.8915 30.2462 0.0000 0.0000 0.0000
# 2 45.8915 80.1007 27.5886 0.0000 0.0000 0.0000
# 3 30.2462 27.5886 102.5762 0.0000 0.0000 0.0000
# 4 0.0000 0.0000 0.0000 18.8278 0.0000 0.0000
# 5 0.0000 0.0000 0.0000 0.0000 24.4103 0.0000
# 6 0.0000 0.0000 0.0000 0.0000 0.0000 23.4956
#
#
#
# Elastic Compliance Matrix: (Units=1/GPa)
#
#
# Indices 1 2 3 4 5 6 
#
# 1 0.010523 -0.005467 -0.001633 0.000000 0.000000 0.000000
# 2 -0.005467 0.016599 -0.002852 0.000000 0.000000 0.000000
# 3 -0.001633 -0.002852 0.010997 0.000000 0.000000 0.000000
# 4 0.000000 0.000000 0.000000 0.053113 0.000000 0.000000
# 5 0.000000 0.000000 0.000000 0.000000 0.040966 0.000000
# 6 0.000000 0.000000 0.000000 0.000000 0.000000 0.042561
#
#
# Mechanical properties :
#
#
# Convention : Reuss Voigt Hill
#
# Bulk Modulus (GPa) = 54.89699 57.07666 55.98683
# Shear Modulus (GPa) = 24.90844 26.84749 25.87797
#
# Velocity S-wave (km/s) = 3.61980 3.75806 3.68958
# Velocity P-wave (km/s) = 6.80800 6.98967 6.89943
#
# Compressibility (1/GPa) = 0.01821593
#
# Stress axis : x y z
#
# Youngs Moduli (GPa) = 95.02800 60.24571 90.93034
#
# Poissons Ratio (x) = 0.32934 0.14846
# Poissons Ratio (y) = 0.51949 0.25937
# Poissons Ratio (z) = 0.15515 0.17184
#
# Static dielectric constant tensor:
#      x y z
#    x 1.703930 0.000000 0.000000 
#    y 0.000000 1.639320 0.000000 
#    z 0.000000 0.000000 1.645790 
# 
# From -- ./inp_files/6888.got.cif
#   From: 2010.05.17/outbox.cif.g08.bks.cpg/sg72_4_cif.got.tgz:6888.got - 2010.06.03 17:03:01.
