data_PCOD9528865
_publ_section_title
;
Structure prediction by ZEFSAII (Michael W. Deem and Ramdas Pophale) SiO2 
 PCOD9528865
Probable space group: I B A M
;
_chemical_formula_sum "Si O2"
_cell_formula_units_Z 88
_cell_length_a 25.002310
_cell_length_b 9.271897
_cell_length_c 19.492404
_cell_angle_alpha 90.000000
_cell_angle_beta 90.000000
_cell_angle_gamma 90.000000
_cell_volume 4518.706544
_symmetry_space_group_name_H-M "I B A M"
_symmetry_group_IT_number 72
_symmetry_cell_setting 'orthorhombic'
loop_
_space_group_symop_operation_xyz
x,y,z
-x,-y,z
x,-y,1/2-z
-x,y,1/2-z
-x,-y,-z
x,y,-z
-x,y,1/2+z
x,-y,1/2+z
1/2+x,1/2+y,1/2+z
1/2-x,1/2-y,1/2+z
1/2+x,1/2-y,-z
1/2-x,1/2+y,-z
1/2-x,1/2-y,1/2-z
1/2+x,1/2+y,1/2-z
1/2-x,1/2+y,z
1/2+x,1/2-y,z
loop_
_atom_site_type_symbol
_atom_site_label
_atom_site_fract_x
_atom_site_fract_y
_atom_site_fract_z
Si Si1 0.228007 0.744605 0.653034
Si Si2 0.254785 0.000000 0.250000
Si Si3 0.341333 0.694671 0.580554
Si Si4 0.133965 0.855948 0.576358
Si Si5 0.559678 0.818293 0.673421
Si Si6 0.433981 0.156949 0.833838
O O1 0.214246 0.601452 0.696467
O O2 0.288121 0.732219 0.624045
O O3 0.187943 0.767583 0.591060
O O4 0.223457 0.881935 0.704313
O O5 0.335525 0.735381 0.500000
O O6 0.351127 0.523202 0.583283
O O7 0.392429 0.766837 0.616337
O O8 0.113596 0.830017 0.500000
O O9 0.092117 0.797841 0.630929
O O10 0.574538 0.805552 0.753677
O O11 0.496499 0.802934 0.657984
O O12 0.572007 0.985070 0.656087
#
# Coordination Sequence:
#
# PCOD9528865 Si02
#       6
#    16   8  16  16  16  16
#     4  11  23  42  60  94 122 158 196 254 296 356
#     4  10  24  38  66  90 118 158 202 248 302 348
#     4  11  25  41  59  86 126 165 198 242 298 360
#     4  11  25  41  59  86 126 165 198 242 298 360
#     4   9  21  41  65  91 118 152 200 254 302 352
#     4   9  21  41  65  91 118 152 200 254 302 352
#
# _framework density 19.474599000000001
#
# number of rings (size 3 to 8) (size 9 to 14) (size 15 to 20)
#    0.000    1.818    1.818    1.636    7.636    2.909 
#    0.000    5.455    0.000    0.000    0.000    0.000 
#    0.000    0.000    0.000    0.000    0.000    0.000 
#
# Total GULP energy -245630.083497 kJ/mol
# GULP energy per Si atom -5582.501898 kJ/mol
# Density = 1.943027 g / cm^3
# Si number density = 19.474599 Si / 1000 Ang^3
#
#
#
# Elastic Constant Matrix: (Units=GPa)
#
#
# Indices 1 2 3 4 5 6 
#
# 1 67.7805 30.1793 53.4063 0.0000 0.0000 0.0000
# 2 30.1793 68.4485 44.3695 0.0000 0.0000 0.0000
# 3 53.4063 44.3695 86.6854 0.0000 0.0000 0.0000
# 4 0.0000 0.0000 0.0000 29.2559 0.0000 0.0000
# 5 0.0000 0.0000 0.0000 0.0000 32.5835 0.0000
# 6 0.0000 0.0000 0.0000 0.0000 0.0000 23.5361
#
#
#
# Elastic Compliance Matrix: (Units=1/GPa)
#
#
# Indices 1 2 3 4 5 6 
#
# 1 0.028818 -0.001792 -0.016838 0.000000 0.000000 0.000000
# 2 -0.001792 0.021975 -0.010144 0.000000 0.000000 0.000000
# 3 -0.016838 -0.010144 0.027102 0.000000 0.000000 0.000000
# 4 0.000000 0.000000 0.000000 0.034181 0.000000 0.000000
# 5 0.000000 0.000000 0.000000 0.000000 0.030690 0.000000
# 6 0.000000 0.000000 0.000000 0.000000 0.000000 0.042488
#
#
# Mechanical properties :
#
#
# Convention : Reuss Voigt Hill
#
# Bulk Modulus (GPa) = 49.14416 53.20274 51.17345
# Shear Modulus (GPa) = 20.03339 23.40571 21.71955
#
# Velocity S-wave (km/s) = 3.21080 3.47054 3.34320
# Velocity P-wave (km/s) = 6.24784 6.59075 6.42158
#
# Compressibility (1/GPa) = 0.02034830
#
# Stress axis : x y z
#
# Youngs Moduli (GPa) = 34.70039 45.50640 36.89814
#
# Poissons Ratio (x) = 0.08153 0.62128
# Poissons Ratio (y) = 0.06217 0.37429
# Poissons Ratio (z) = 0.58427 0.46161
#
# Static dielectric constant tensor:
#      x y z
#    x 1.668040 0.000000 0.000000 
#    y 0.000000 1.666310 0.000000 
#    z 0.000000 0.000000 1.672380 
# 
# From -- ./inp_files/40148.got.cif
#   From: 2010.05.17/outbox.cif.g08.bks.cpg/sg72_21_cif.got.tgz:40148.got - 2010.06.03 17:03:01.
