data_PCOD9528473
_publ_section_title
;
Structure prediction by ZEFSAII (Michael W. Deem and Ramdas Pophale) SiO2 
 PCOD9528473
Probable space group: I B A M
;
_chemical_formula_sum "Si O2"
_cell_formula_units_Z 72
_cell_length_a 14.550744
_cell_length_b 17.906393
_cell_length_c 13.506346
_cell_angle_alpha 90.000000
_cell_angle_beta 90.000000
_cell_angle_gamma 90.000000
_cell_volume 3519.096556
_symmetry_space_group_name_H-M "I B A M"
_symmetry_group_IT_number 72
_symmetry_cell_setting 'orthorhombic'
loop_
_space_group_symop_operation_xyz
x,y,z
-x,-y,z
x,-y,1/2-z
-x,y,1/2-z
-x,-y,-z
x,y,-z
-x,y,1/2+z
x,-y,1/2+z
1/2+x,1/2+y,1/2+z
1/2-x,1/2-y,1/2+z
1/2+x,1/2-y,-z
1/2-x,1/2+y,-z
1/2-x,1/2-y,1/2-z
1/2+x,1/2+y,1/2-z
1/2-x,1/2+y,z
1/2+x,1/2-y,z
loop_
_atom_site_type_symbol
_atom_site_label
_atom_site_fract_x
_atom_site_fract_y
_atom_site_fract_z
Si Si1 0.426851 0.435034 0.881822
Si Si2 0.500000 0.197811 0.750000
Si Si3 0.427544 0.933766 0.618527
Si Si4 0.717998 0.545648 0.379231
Si Si5 0.423779 0.679927 0.119845
O O1 0.500000 0.500000 0.858371
O O2 0.330880 0.468233 0.846276
O O3 0.477107 0.358790 0.856502
O O4 0.420687 0.432033 0.000000
O O5 0.545513 0.142924 0.670574
O O6 0.573319 0.247373 0.811975
O O7 0.428765 0.924372 0.500000
O O8 0.323484 0.951586 0.650014
O O9 0.500000 0.000000 0.641000
O O10 0.716478 0.544813 0.500000
O O11 0.654659 0.618281 0.355355
O O12 0.419019 0.693670 0.000000
#
# Coordination Sequence:
#
# PCOD9528473 Si02
#       5
#    16   8  16  16  16
#     4   7  11  25  52  82 109 137 170 211 262 319
#     4  12  23  36  53  80 116 150 180 220 273 332
#     4  10  22  41  61  78 102 143 193 237 272 314
#     4   8  15  33  61  85 107 142 185 227 272 320
#     4   9  18  34  57  86 118 144 170 218 280 333
#
# _framework density 20.459796000000001
#
# number of rings (size 3 to 8) (size 9 to 14) (size 15 to 20)
#    0.000    3.111    0.000    3.667    0.000    0.889 
#    0.000   11.667    0.000    8.000    0.000    0.000 
#    0.000    0.000    0.000    0.000    0.000    0.000 
#
# Total GULP energy -200667.705668 kJ/mol
# GULP energy per Si atom -5574.102935 kJ/mol
# Density = 2.041323 g / cm^3
# Si number density = 20.459796 Si / 1000 Ang^3
#
#
#
# Elastic Constant Matrix: (Units=GPa)
#
#
# Indices 1 2 3 4 5 6 
#
# 1 151.0560 59.9335 29.2464 0.0000 0.0000 0.0000
# 2 59.9335 104.4323 49.3825 0.0000 0.0000 0.0000
# 3 29.2464 49.3825 119.5092 0.0000 0.0000 0.0000
# 4 0.0000 0.0000 0.0000 75.6679 0.0000 0.0000
# 5 0.0000 0.0000 0.0000 0.0000 3.9751 0.0000
# 6 0.0000 0.0000 0.0000 0.0000 0.0000 21.8270
#
#
#
# Elastic Compliance Matrix: (Units=1/GPa)
#
#
# Indices 1 2 3 4 5 6 
#
# 1 0.008573 -0.004882 -0.000081 0.000000 0.000000 0.000000
# 2 -0.004882 0.014681 -0.004872 0.000000 0.000000 0.000000
# 3 -0.000081 -0.004872 0.010400 0.000000 0.000000 0.000000
# 4 0.000000 0.000000 0.000000 0.013216 0.000000 0.000000
# 5 0.000000 0.000000 0.000000 0.000000 0.251565 0.000000
# 6 0.000000 0.000000 0.000000 0.000000 0.000000 0.045815
#
#
# Mechanical properties :
#
#
# Convention : Reuss Voigt Hill
#
# Bulk Modulus (GPa) = 71.50161 72.45800 71.97981
# Shear Modulus (GPa) = 13.56563 36.05634 24.81099
#
# Velocity S-wave (km/s) = 2.57775 4.20253 3.48612
# Velocity P-wave (km/s) = 6.62442 7.68375 7.17367
#
# Compressibility (1/GPa) = 0.01398570
#
# Stress axis : x y z
#
# Youngs Moduli (GPa) = 116.65176 68.11653 96.15085
#
# Poissons Ratio (x) = 0.33252 0.00776
# Poissons Ratio (y) = 0.56944 0.46841
# Poissons Ratio (z) = 0.00942 0.33184
#
# Static dielectric constant tensor:
#      x y z
#    x 1.737430 0.000000 0.000000 
#    y 0.000000 1.723200 0.000000 
#    z 0.000000 0.000000 1.792750 
# 
# From -- ./inp_files/21465.got.cif
#   From: 2010.05.17/outbox.cif.g08.bks.cpg/sg72_11_cif.got.tgz:21465.got - 2010.06.03 17:03:01.
