data_PCOD9528746
_publ_section_title
;
Structure prediction by ZEFSAII (Michael W. Deem and Ramdas Pophale) SiO2 
 PCOD9528746
Probable space group: I B A M
;
_chemical_formula_sum "Si O2"
_cell_formula_units_Z 68
_cell_length_a 9.057064
_cell_length_b 18.020027
_cell_length_c 18.210515
_cell_angle_alpha 90.000000
_cell_angle_beta 90.000000
_cell_angle_gamma 90.000000
_cell_volume 2972.111526
_symmetry_space_group_name_H-M "I B A M"
_symmetry_group_IT_number 72
_symmetry_cell_setting 'orthorhombic'
loop_
_space_group_symop_operation_xyz
x,y,z
-x,-y,z
x,-y,1/2-z
-x,y,1/2-z
-x,-y,-z
x,y,-z
-x,y,1/2+z
x,-y,1/2+z
1/2+x,1/2+y,1/2+z
1/2-x,1/2-y,1/2+z
1/2+x,1/2-y,-z
1/2-x,1/2+y,-z
1/2-x,1/2-y,1/2-z
1/2+x,1/2+y,1/2-z
1/2-x,1/2+y,z
1/2+x,1/2-y,z
loop_
_atom_site_type_symbol
_atom_site_label
_atom_site_fract_x
_atom_site_fract_y
_atom_site_fract_z
Si Si1 0.500000 0.000000 0.750000
Si Si2 0.000000 0.237951 0.750000
Si Si3 0.884797 0.067345 0.500000
Si Si4 0.841655 0.603050 0.628830
Si Si5 0.665174 0.661427 0.000000
Si Si6 0.754559 0.770150 0.652676
Si Si7 0.949440 0.415759 0.500000
O O1 0.600741 0.949845 0.805485
O O2 0.884681 0.193522 0.799202
O O3 0.899795 0.283794 0.692821
O O4 0.783087 0.069947 0.426769
O O5 0.994178 0.139525 0.500000
O O6 0.000000 0.000000 0.500000
O O7 0.780170 0.681509 0.656488
O O8 0.977825 0.617981 0.572753
O O9 0.716996 0.706213 0.929275
O O10 0.774553 0.590873 0.000000
O O11 0.000000 0.500000 0.500000
#
# Coordination Sequence:
#
# PCOD9528746 Si02
#       7
#     4   8   8  16   8  16   8
#     4  12  26  46  74 100 140 208 248 292 344 456
#     4  10  23  42  60  98 152 171 220 278 370 405
#     4  11  26  46  69 101 144 180 225 306 360 427
#     4  11  24  44  70  98 139 178 253 284 358 419
#     4  12  24  42  80 104 141 181 244 290 377 423
#     4  11  23  43  68 105 134 190 226 301 351 437
#     4  11  22  43  70  97 131 183 241 301 338 432
#
# _framework density 22.879356999999999
#
# number of rings (size 3 to 8) (size 9 to 14) (size 15 to 20)
#    0.000    0.941    1.176    6.353    0.000    4.706 
#    4.235    0.000    0.000    0.000    0.000    0.000 
#    0.000    0.000    0.000    0.000    0.000    0.000 
#
# Total GULP energy -190018.316144 kJ/mol
# GULP energy per Si atom -5588.774004 kJ/mol
# Density = 2.282728 g / cm^3
# Si number density = 22.879357 Si / 1000 Ang^3
#
#
#
# Elastic Constant Matrix: (Units=GPa)
#
#
# Indices 1 2 3 4 5 6 
#
# 1 166.7687 30.4358 87.6625 0.0000 0.0000 0.0000
# 2 30.4358 97.7088 54.9717 0.0000 0.0000 0.0000
# 3 87.6625 54.9717 227.5038 0.0000 0.0000 0.0000
# 4 0.0000 0.0000 0.0000 13.7913 0.0000 0.0000
# 5 0.0000 0.0000 0.0000 0.0000 43.7255 0.0000
# 6 0.0000 0.0000 0.0000 0.0000 0.0000 27.8502
#
#
#
# Elastic Compliance Matrix: (Units=1/GPa)
#
#
# Indices 1 2 3 4 5 6 
#
# 1 0.007577 -0.000831 -0.002719 0.000000 0.000000 0.000000
# 2 -0.000831 0.011936 -0.002564 0.000000 0.000000 0.000000
# 3 -0.002719 -0.002564 0.006063 0.000000 0.000000 0.000000
# 4 0.000000 0.000000 0.000000 0.072509 0.000000 0.000000
# 5 0.000000 0.000000 0.000000 0.000000 0.022870 0.000000
# 6 0.000000 0.000000 0.000000 0.000000 0.000000 0.035906
#
#
# Mechanical properties :
#
#
# Convention : Reuss Voigt Hill
#
# Bulk Modulus (GPa) = 74.91414 93.12458 84.01936
# Shear Modulus (GPa) = 28.81218 38.33416 33.57317
#
# Velocity S-wave (km/s) = 3.55252 4.09772 3.83482
# Velocity P-wave (km/s) = 7.04567 7.94853 7.51068
#
# Compressibility (1/GPa) = 0.01334862
#
# Stress axis : x y z
#
# Youngs Moduli (GPa) = 131.97592 83.78213 164.94154
#
# Poissons Ratio (x) = 0.06958 0.44847
# Poissons Ratio (y) = 0.10961 0.42291
# Poissons Ratio (z) = 0.35884 0.21482
#
# Static dielectric constant tensor:
#      x y z
#    x 1.909570 0.000000 0.000000 
#    y 0.000000 1.893070 0.000000 
#    z 0.000000 0.000000 1.702460 
# 
# From -- ./inp_files/27865.got.cif
#   From: 2010.05.17/outbox.cif.g08.bks.cpg/sg72_14_cif.got.tgz:27865.got - 2010.06.03 17:03:01.
