data_PCOD9528274
_publ_section_title
;
Structure prediction by ZEFSAII (Michael W. Deem and Ramdas Pophale) SiO2 
 PCOD9528274
Probable space group: I B A M
;
_chemical_formula_sum "Si O2"
_cell_formula_units_Z 88
_cell_length_a 18.031951
_cell_length_b 10.652241
_cell_length_c 25.404705
_cell_angle_alpha 90.000000
_cell_angle_beta 90.000000
_cell_angle_gamma 90.000000
_cell_volume 4879.753209
_symmetry_space_group_name_H-M "I B A M"
_symmetry_group_IT_number 72
_symmetry_cell_setting 'orthorhombic'
loop_
_space_group_symop_operation_xyz
x,y,z
-x,-y,z
x,-y,1/2-z
-x,y,1/2-z
-x,-y,-z
x,y,-z
-x,y,1/2+z
x,-y,1/2+z
1/2+x,1/2+y,1/2+z
1/2-x,1/2-y,1/2+z
1/2+x,1/2-y,-z
1/2-x,1/2+y,-z
1/2-x,1/2-y,1/2-z
1/2+x,1/2+y,1/2-z
1/2-x,1/2+y,z
1/2+x,1/2-y,z
loop_
_atom_site_type_symbol
_atom_site_label
_atom_site_fract_x
_atom_site_fract_y
_atom_site_fract_z
Si Si1 0.667308 0.862037 0.423954
Si Si2 0.567862 0.914148 0.900220
Si Si3 0.453372 0.744889 0.500000
Si Si4 0.892317 0.844047 0.000000
Si Si5 0.292506 0.876806 0.191117
Si Si6 0.174823 0.342887 0.694323
Si Si7 0.801839 0.100237 0.000000
O O1 0.630052 0.744435 0.451448
O O2 0.666719 0.841692 0.362075
O O3 0.748322 0.879158 0.449798
O O4 0.623717 0.992092 0.430898
O O5 0.611833 0.852955 0.850702
O O6 0.500000 0.000000 0.880450
O O7 0.538631 0.822464 0.945749
O O8 0.519182 0.642914 0.500000
O O9 0.369840 0.695334 0.500000
O O10 0.841312 0.965699 0.000000
O O11 0.221556 0.785359 0.191217
O O12 0.341943 0.853411 0.243177
O O13 0.277634 0.027075 0.186933
#
# Coordination Sequence:
#
# PCOD9528274 Si02
#       7
#    16  16   8   8  16  16   8
#     4  10  22  36  57  84 110 150 194 241 285 342
#     4  11  21  37  58  83 114 157 192 237 292 352
#     4  12  22  39  57  81 119 159 188 239 300 352
#     4  11  23  38  53  82 120 152 189 245 290 352
#     4   9  18  35  55  85 115 150 185 250 284 346
#     4   9  19  34  58  84 116 147 196 236 302 335
#     4  11  25  34  58  86 114 153 200 238 292 357
#
# _framework density 18.033698000000001
#
# number of rings (size 3 to 8) (size 9 to 14) (size 15 to 20)
#    0.000    1.818    1.818    2.727   10.182    0.000 
#    0.000    7.273    0.000    0.000    0.000    0.000 
#    0.000   32.000    0.000    0.000    0.000    0.000 
#
# Total GULP energy -244950.010296 kJ/mol
# GULP energy per Si atom -5567.045689 kJ/mol
# Density = 1.799265 g / cm^3
# Si number density = 18.033698 Si / 1000 Ang^3
#
#
#
# Elastic Constant Matrix: (Units=GPa)
#
#
# Indices 1 2 3 4 5 6 
#
# 1 93.1072 29.0756 27.1835 0.0000 0.0000 0.0000
# 2 29.0756 60.3226 41.3181 0.0000 0.0000 0.0000
# 3 27.1835 41.3181 124.2253 0.0000 0.0000 0.0000
# 4 0.0000 0.0000 0.0000 9.5223 0.0000 0.0000
# 5 0.0000 0.0000 0.0000 0.0000 16.7783 0.0000
# 6 0.0000 0.0000 0.0000 0.0000 0.0000 30.6530
#
#
#
# Elastic Compliance Matrix: (Units=1/GPa)
#
#
# Indices 1 2 3 4 5 6 
#
# 1 0.012732 -0.005476 -0.000965 0.000000 0.000000 0.000000
# 2 -0.005476 0.023824 -0.006726 0.000000 0.000000 0.000000
# 3 -0.000965 -0.006726 0.010498 0.000000 0.000000 0.000000
# 4 0.000000 0.000000 0.000000 0.105016 0.000000 0.000000
# 5 0.000000 0.000000 0.000000 0.000000 0.059601 0.000000
# 6 0.000000 0.000000 0.000000 0.000000 0.000000 0.032623
#
#
# Mechanical properties :
#
#
# Convention : Reuss Voigt Hill
#
# Bulk Modulus (GPa) = 48.26039 52.53440 50.39740
# Shear Modulus (GPa) = 18.01582 23.39592 20.70587
#
# Velocity S-wave (km/s) = 3.16414 3.60577 3.39215
# Velocity P-wave (km/s) = 6.33785 6.82129 6.58401
#
# Compressibility (1/GPa) = 0.02072092
#
# Stress axis : x y z
#
# Youngs Moduli (GPa) = 78.54198 41.97496 95.25661
#
# Poissons Ratio (x) = 0.22986 0.09189
# Poissons Ratio (y) = 0.43010 0.64066
# Poissons Ratio (z) = 0.07577 0.28231
#
# Static dielectric constant tensor:
#      x y z
#    x 1.618870 0.000000 0.000000 
#    y 0.000000 1.654890 0.000000 
#    z 0.000000 0.000000 1.534690 
# 
# From -- ./inp_files/48059.got.cif
#   From: 2010.05.17/outbox.cif.g08.bks.cpg/sg72_25_cif.got.tgz:48059.got - 2010.06.03 17:03:01.
