data_PCOD9528354
_publ_section_title
;
Structure prediction by ZEFSAII (Michael W. Deem and Ramdas Pophale) SiO2 
 PCOD9528354
Probable space group: I B A M
;
_chemical_formula_sum "Si O2"
_cell_formula_units_Z 72
_cell_length_a 11.281407
_cell_length_b 11.482225
_cell_length_c 27.134107
_cell_angle_alpha 90.000000
_cell_angle_beta 90.000000
_cell_angle_gamma 90.000000
_cell_volume 3514.834282
_symmetry_space_group_name_H-M "I B A M"
_symmetry_group_IT_number 72
_symmetry_cell_setting 'orthorhombic'
loop_
_space_group_symop_operation_xyz
x,y,z
-x,-y,z
x,-y,1/2-z
-x,y,1/2-z
-x,-y,-z
x,y,-z
-x,y,1/2+z
x,-y,1/2+z
1/2+x,1/2+y,1/2+z
1/2-x,1/2-y,1/2+z
1/2+x,1/2-y,-z
1/2-x,1/2+y,-z
1/2-x,1/2-y,1/2-z
1/2+x,1/2+y,1/2-z
1/2-x,1/2+y,z
1/2+x,1/2-y,z
loop_
_atom_site_type_symbol
_atom_site_label
_atom_site_fract_x
_atom_site_fract_y
_atom_site_fract_z
Si Si1 0.178954 0.336925 0.914607
Si Si2 0.803364 0.303596 0.168586
Si Si3 0.861548 0.875046 0.756475
Si Si4 0.558758 0.310998 0.000000
Si Si5 0.500000 0.000000 0.146368
Si Si6 0.824069 0.937581 0.500000
O O1 0.273884 0.263809 0.881942
O O2 0.088425 0.413160 0.882466
O O3 0.104736 0.254563 0.951435
O O4 0.247605 0.423704 0.950971
O O5 0.829594 0.212965 0.212728
O O6 0.674715 0.345787 0.187860
O O7 0.904310 0.404955 0.169306
O O8 0.000000 0.884877 0.750000
O O9 0.800642 0.000000 0.750000
O O10 0.418513 0.331922 0.000000
O O11 0.614357 0.438765 0.000000
#
# Coordination Sequence:
#
# PCOD9528354 Si02
#       6
#    16  16  16   8   8   8
#     4  11  23  40  62  90 126 164 213 269 328 390
#     4  11  23  41  63  94 129 167 217 269 328 394
#     4  10  22  40  62  88 124 168 212 264 324 389
#     4  10  22  39  60  86 120 165 214 266 324 388
#     4  12  24  39  67  98 128 172 216 267 329 392
#     4  10  22  39  60  86 120 165 214 266 324 388
#
# _framework density 20.484608000000001
#
# number of rings (size 3 to 8) (size 9 to 14) (size 15 to 20)
#    0.000    1.333    0.000    5.333    0.000    5.333 
#    0.000    8.889    0.000    0.000    0.000    0.000 
#    0.000    0.000    0.000    0.000    0.000    0.000 
#
# Total GULP energy -200410.641167 kJ/mol
# GULP energy per Si atom -5566.962255 kJ/mol
# Density = 2.043798 g / cm^3
# Si number density = 20.484608 Si / 1000 Ang^3
#
#
#
# Elastic Constant Matrix: (Units=GPa)
#
#
# Indices 1 2 3 4 5 6 
#
# 1 94.0931 25.9478 27.5929 0.0000 0.0000 0.0000
# 2 25.9478 108.1430 42.2116 0.0000 0.0000 0.0000
# 3 27.5929 42.2116 86.4767 0.0000 0.0000 0.0000
# 4 0.0000 0.0000 0.0000 -6.5660 0.0000 0.0000
# 5 0.0000 0.0000 0.0000 0.0000 42.1242 0.0000
# 6 0.0000 0.0000 0.0000 0.0000 0.0000 17.4447
#
#
#
# Elastic Compliance Matrix: (Units=1/GPa)
#
#
# Indices 1 2 3 4 5 6 
#
# 1 0.011975 -0.001707 -0.002988 0.000000 0.000000 0.000000
# 2 -0.001707 0.011667 -0.005150 0.000000 0.000000 0.000000
# 3 -0.002988 -0.005150 0.015031 0.000000 0.000000 0.000000
# 4 0.000000 0.000000 0.000000 -0.152300 0.000000 0.000000
# 5 0.000000 0.000000 0.000000 0.000000 0.023739 0.000000
# 6 0.000000 0.000000 0.000000 0.000000 0.000000 0.057324
#
#
# Mechanical properties :
#
#
# Convention : Reuss Voigt Hill
#
# Bulk Modulus (GPa) = 52.67921 53.35749 53.01835
# Shear Modulus (GPa) = -763.75179 23.46461 -370.14359
#
# Velocity S-wave (km/s) = -19.33006 3.38816 -13.45681
# Velocity P-wave (km/s) = 21.73544 6.43508 14.68024
#
# Compressibility (1/GPa) = 0.01898282
#
# Stress axis : x y z
#
# Youngs Moduli (GPa) = 83.50987 85.71248 66.52884
#
# Poissons Ratio (x) = 0.14631 0.19876
# Poissons Ratio (y) = 0.14255 0.34264
# Poissons Ratio (z) = 0.24950 0.44144
#
# Static dielectric constant tensor:
#      x y z
#    x 1.918890 0.000000 0.000000 
#    y 0.000000 1.917770 0.000000 
#    z 0.000000 0.000000 1.710800 
# 
# From -- ./inp_files/51212.got.cif
#   From: 2010.05.17/outbox.cif.g08.bks.cpg/sg72_26_cif.got.tgz:51212.got - 2010.06.03 17:03:01.
