data_PCOD9528901
_publ_section_title
;
Structure prediction by ZEFSAII (Michael W. Deem and Ramdas Pophale) SiO2 
 PCOD9528901
Probable space group: I B A M
;
_chemical_formula_sum "Si O2"
_cell_formula_units_Z 56
_cell_length_a 27.547809
_cell_length_b 5.423458
_cell_length_c 14.671665
_cell_angle_alpha 90.000000
_cell_angle_beta 90.000000
_cell_angle_gamma 90.000000
_cell_volume 2192.011088
_symmetry_space_group_name_H-M "I B A M"
_symmetry_group_IT_number 72
_symmetry_cell_setting 'orthorhombic'
loop_
_space_group_symop_operation_xyz
x,y,z
-x,-y,z
x,-y,1/2-z
-x,y,1/2-z
-x,-y,-z
x,y,-z
-x,y,1/2+z
x,-y,1/2+z
1/2+x,1/2+y,1/2+z
1/2-x,1/2-y,1/2+z
1/2+x,1/2-y,-z
1/2-x,1/2+y,-z
1/2-x,1/2-y,1/2-z
1/2+x,1/2+y,1/2-z
1/2-x,1/2+y,z
1/2+x,1/2-y,z
loop_
_atom_site_type_symbol
_atom_site_label
_atom_site_fract_x
_atom_site_fract_y
_atom_site_fract_z
Si Si1 0.620034 0.205977 0.500000
Si Si2 0.134686 0.621867 0.652836
Si Si3 0.443080 0.522444 0.859505
Si Si4 0.722882 0.581532 0.389462
O O1 0.585865 0.328374 0.580136
O O2 0.653026 0.068917 0.421537
O O3 0.132116 0.500000 0.750000
O O4 0.082101 0.716071 0.617894
O O5 0.169705 0.858219 0.649449
O O6 0.500000 0.500000 0.877882
O O7 0.436210 0.500000 0.750000
O O8 0.717562 0.574154 0.500000
O O9 0.746300 0.323379 0.361339
#
# Coordination Sequence:
#
# PCOD9528901 Si02
#       4
#     8  16  16  16
#     4  12  25  47  75 101 146 199 237 314 370 444
#     4  12  26  45  74 109 145 195 248 308 376 452
#     4  11  26  47  72 108 151 193 250 309 370 451
#     4  10  24  43  72 106 146 194 250 310 379 452
#
# _framework density 25.547318000000001
#
# number of rings (size 3 to 8) (size 9 to 14) (size 15 to 20)
#    0.000    0.857    4.286    1.286    4.000    3.429 
#    0.000    0.000    0.000    0.000    0.000    0.000 
#    0.000    0.000    0.000    0.000    0.000    0.000 
#
# Total GULP energy -156004.380997 kJ/mol
# GULP energy per Si atom -5571.585036 kJ/mol
# Density = 2.548917 g / cm^3
# Si number density = 25.547318 Si / 1000 Ang^3
#
#
#
# Elastic Constant Matrix: (Units=GPa)
#
#
# Indices 1 2 3 4 5 6 
#
# 1 131.2416 53.6036 25.4811 0.0000 0.0000 0.0000
# 2 53.6036 114.9755 37.6632 0.0000 0.0000 0.0000
# 3 25.4811 37.6632 142.4590 0.0000 0.0000 0.0000
# 4 0.0000 0.0000 0.0000 36.2198 0.0000 0.0000
# 5 0.0000 0.0000 0.0000 0.0000 146.2930 0.0000
# 6 0.0000 0.0000 0.0000 0.0000 0.0000 37.0186
#
#
#
# Elastic Compliance Matrix: (Units=1/GPa)
#
#
# Indices 1 2 3 4 5 6 
#
# 1 0.009455 -0.004219 -0.000576 0.000000 0.000000 0.000000
# 2 -0.004219 0.011405 -0.002261 0.000000 0.000000 0.000000
# 3 -0.000576 -0.002261 0.007720 0.000000 0.000000 0.000000
# 4 0.000000 0.000000 0.000000 0.027609 0.000000 0.000000
# 5 0.000000 0.000000 0.000000 0.000000 0.006836 0.000000
# 6 0.000000 0.000000 0.000000 0.000000 0.000000 0.027013
#
#
# Mechanical properties :
#
#
# Convention : Reuss Voigt Hill
#
# Bulk Modulus (GPa) = 69.11394 69.13020 69.12207
# Shear Modulus (GPa) = 45.88325 62.03484 53.95905
#
# Velocity S-wave (km/s) = 4.24253 4.93306 4.60077
# Velocity P-wave (km/s) = 7.14918 7.71785 7.43895
#
# Compressibility (1/GPa) = 0.01446886
#
# Stress axis : x y z
#
# Youngs Moduli (GPa) = 105.76839 87.67958 129.53080
#
# Poissons Ratio (x) = 0.36995 0.07456
# Poissons Ratio (y) = 0.44628 0.29282
# Poissons Ratio (z) = 0.06088 0.19821
#
# Static dielectric constant tensor:
#      x y z
#    x 2.020700 0.000000 0.000000 
#    y 0.000000 2.213370 0.000000 
#    z 0.000000 0.000000 1.942360 
# 
# From -- ./inp_files/17542.got.cif
#   From: 2010.05.17/outbox.cif.g08.bks.cpg/sg72_9_cif.got.tgz:17542.got - 2010.06.03 17:03:01.
