data_PCOD9528028
_publ_section_title
;
Structure prediction by ZEFSAII (Michael W. Deem and Ramdas Pophale) SiO2 
 PCOD9528028
Probable space group: I B A M
;
_chemical_formula_sum "Si O2"
_cell_formula_units_Z 80
_cell_length_a 9.305492
_cell_length_b 10.886349
_cell_length_c 30.971212
_cell_angle_alpha 90.000000
_cell_angle_beta 90.000000
_cell_angle_gamma 90.000000
_cell_volume 3137.471533
_symmetry_space_group_name_H-M "I B A M"
_symmetry_group_IT_number 72
_symmetry_cell_setting 'orthorhombic'
loop_
_space_group_symop_operation_xyz
x,y,z
-x,-y,z
x,-y,1/2-z
-x,y,1/2-z
-x,-y,-z
x,y,-z
-x,y,1/2+z
x,-y,1/2+z
1/2+x,1/2+y,1/2+z
1/2-x,1/2-y,1/2+z
1/2+x,1/2-y,-z
1/2-x,1/2+y,-z
1/2-x,1/2-y,1/2-z
1/2+x,1/2+y,1/2-z
1/2-x,1/2+y,z
1/2+x,1/2-y,z
loop_
_atom_site_type_symbol
_atom_site_label
_atom_site_fract_x
_atom_site_fract_y
_atom_site_fract_z
Si Si1 0.639124 0.083565 0.547062
Si Si2 0.094734 0.299083 0.292227
Si Si3 0.041402 0.266902 0.884971
Si Si4 0.331035 0.571300 0.606457
Si Si5 0.282151 0.462158 0.204605
O O1 0.674094 0.141359 0.500000
O O2 0.574170 0.160853 0.586163
O O3 0.500000 0.000000 0.539977
O O4 0.771272 0.008522 0.566874
O O5 0.001485 0.281493 0.335235
O O6 0.154237 0.437671 0.293022
O O7 0.210073 0.186902 0.292894
O O8 0.000000 0.284259 0.250000
O O9 0.988326 0.131370 0.898577
O O10 0.199465 0.323998 0.891289
O O11 0.329684 0.515389 0.655068
O O12 0.356707 0.500000 0.250000
#
# Coordination Sequence:
#
# PCOD9528028 Si02
#       5
#    16  16  16  16  16
#     4   9  18  36  64  93 122 165 220 272 332 414
#     4  11  24  43  66  97 136 185 233 289 347 419
#     4  10  21  39  63  91 129 167 222 274 340 403
#     4  10  21  39  63  93 127 172 217 279 335 409
#     4  11  23  41  65  94 134 178 235 282 338 407
#
# _framework density 25.498239000000002
#
# number of rings (size 3 to 8) (size 9 to 14) (size 15 to 20)
#    0.000    1.800    2.000    1.800    0.000    4.800 
#    0.000    6.000    0.000    1.200    0.000    0.000 
#    0.000    0.000    0.000    0.000    0.000    0.000 
#
# Total GULP energy -222908.044316 kJ/mol
# GULP energy per Si atom -5572.701108 kJ/mol
# Density = 2.544020 g / cm^3
# Si number density = 25.498239 Si / 1000 Ang^3
#
#
#
# Elastic Constant Matrix: (Units=GPa)
#
#
# Indices 1 2 3 4 5 6 
#
# 1 141.1876 52.7858 56.1130 0.0000 0.0000 0.0000
# 2 52.7858 84.8598 24.8741 0.0000 0.0000 0.0000
# 3 56.1130 24.8741 158.2830 0.0000 0.0000 0.0000
# 4 0.0000 0.0000 0.0000 -67.9523 0.0000 0.0000
# 5 0.0000 0.0000 0.0000 0.0000 17.0632 0.0000
# 6 0.0000 0.0000 0.0000 0.0000 0.0000 40.8565
#
#
#
# Elastic Compliance Matrix: (Units=1/GPa)
#
#
# Indices 1 2 3 4 5 6 
#
# 1 0.010265 -0.005576 -0.002763 0.000000 0.000000 0.000000
# 2 -0.005576 0.015382 -0.000441 0.000000 0.000000 0.000000
# 3 -0.002763 -0.000441 0.007367 0.000000 0.000000 0.000000
# 4 0.000000 0.000000 0.000000 -0.014716 0.000000 0.000000
# 5 0.000000 0.000000 0.000000 0.000000 0.058606 0.000000
# 6 0.000000 0.000000 0.000000 0.000000 0.000000 0.024476
#
#
# Mechanical properties :
#
#
# Convention : Reuss Voigt Hill
#
# Bulk Modulus (GPa) = 64.70341 72.43069 68.56705
# Shear Modulus (GPa) = 40.29365 14.69731 27.49548
#
# Velocity S-wave (km/s) = 3.97955 2.40345 3.28735
# Velocity P-wave (km/s) = 6.82250 6.01414 6.43103
#
# Compressibility (1/GPa) = 0.01545514
#
# Stress axis : x y z
#
# Youngs Moduli (GPa) = 97.41433 65.01315 135.74877
#
# Poissons Ratio (x) = 0.36249 0.37507
# Poissons Ratio (y) = 0.54314 0.05981
# Poissons Ratio (z) = 0.26916 0.02864
#
# Static dielectric constant tensor:
#      x y z
#    x 2.116340 0.000000 0.000000 
#    y 0.000000 2.315090 0.000000 
#    z 0.000000 0.000000 2.473100 
# 
# From -- ./inp_files/47982.got.cif
#   From: 2010.05.17/outbox.cif.g08.bks.cpg/sg72_24_cif.got.tgz:47982.got - 2010.06.03 17:03:01.
