data_PCOD9528154
_publ_section_title
;
Structure prediction by ZEFSAII (Michael W. Deem and Ramdas Pophale) SiO2 
 PCOD9528154
Probable space group: I B A M
;
_chemical_formula_sum "Si O2"
_cell_formula_units_Z 104
_cell_length_a 11.271809
_cell_length_b 16.973658
_cell_length_c 26.863219
_cell_angle_alpha 90.000000
_cell_angle_beta 90.000000
_cell_angle_gamma 90.000000
_cell_volume 5139.573972
_symmetry_space_group_name_H-M "I B A M"
_symmetry_group_IT_number 72
_symmetry_cell_setting 'orthorhombic'
loop_
_space_group_symop_operation_xyz
x,y,z
-x,-y,z
x,-y,1/2-z
-x,y,1/2-z
-x,-y,-z
x,y,-z
-x,y,1/2+z
x,-y,1/2+z
1/2+x,1/2+y,1/2+z
1/2-x,1/2-y,1/2+z
1/2+x,1/2-y,-z
1/2-x,1/2+y,-z
1/2-x,1/2-y,1/2-z
1/2+x,1/2+y,1/2-z
1/2-x,1/2+y,z
1/2+x,1/2-y,z
loop_
_atom_site_type_symbol
_atom_site_label
_atom_site_fract_x
_atom_site_fract_y
_atom_site_fract_z
Si Si1 0.432544 0.165702 0.378737
Si Si2 0.231800 0.907090 0.056207
Si Si3 0.220096 0.552538 0.207787
Si Si4 0.129540 0.296098 0.764799
Si Si5 0.500000 0.000000 0.150963
Si Si6 0.987915 0.189427 0.443212
Si Si7 0.123206 0.049042 0.885543
O O1 0.322767 0.145320 0.413714
O O2 0.385394 0.188015 0.323709
O O3 0.505483 0.083772 0.376608
O O4 0.498494 0.237502 0.405637
O O5 0.110144 0.858511 0.054201
O O6 0.207191 0.987786 0.085470
O O7 0.271589 0.923241 0.000000
O O8 0.281238 0.500000 0.250000
O O9 0.149529 0.624510 0.232662
O O10 0.314375 0.574181 0.165665
O O11 0.118572 0.498285 0.183515
O O12 0.250000 0.250000 0.750000
O O13 0.000000 0.260924 0.750000
O O14 0.955050 0.212306 0.500000
O O15 0.899271 0.125476 0.419230
O O16 0.000000 0.000000 0.877302
#
# Coordination Sequence:
#
# PCOD9528154 Si02
#       7
#    16  16  16  16   8  16  16
#     4  12  24  42  66  94 133 174 227 276 335 397
#     4  10  21  41  66  95 130 169 217 274 337 404
#     4  12  21  43  65  93 129 176 221 262 334 402
#     4  12  26  43  67  99 135 177 223 279 336 409
#     4  12  23  42  67  88 124 182 219 264 321 410
#     4  10  23  42  67  96 131 173 220 279 345 401
#     4  10  21  40  68  99 131 173 220 276 335 411
#
# _framework density 20.235140000000001
#
# number of rings (size 3 to 8) (size 9 to 14) (size 15 to 20)
#    0.000    0.923    4.615    2.077    2.154    3.385 
#    2.769    1.538    0.000    0.000    0.000    0.000 
#    0.000    0.000    0.000    0.000    0.000    0.000 
#
# Total GULP energy -290261.785490 kJ/mol
# GULP energy per Si atom -5581.957413 kJ/mol
# Density = 2.018908 g / cm^3
# Si number density = 20.235140 Si / 1000 Ang^3
#
#
#
# Elastic Constant Matrix: (Units=GPa)
#
#
# Indices 1 2 3 4 5 6 
#
# 1 52.3413 2.7743 33.3098 0.0000 0.0000 0.0000
# 2 2.7743 94.8958 28.6920 0.0000 0.0000 0.0000
# 3 33.3098 28.6920 138.3134 0.0000 0.0000 0.0000
# 4 0.0000 0.0000 0.0000 15.3461 0.0000 0.0000
# 5 0.0000 0.0000 0.0000 0.0000 28.7586 0.0000
# 6 0.0000 0.0000 0.0000 0.0000 0.0000 25.5008
#
#
#
# Elastic Compliance Matrix: (Units=1/GPa)
#
#
# Indices 1 2 3 4 5 6 
#
# 1 0.022662 0.001054 -0.005676 0.000000 0.000000 0.000000
# 2 0.001054 0.011292 -0.002596 0.000000 0.000000 0.000000
# 3 -0.005676 -0.002596 0.009136 0.000000 0.000000 0.000000
# 4 0.000000 0.000000 0.000000 0.065163 0.000000 0.000000
# 5 0.000000 0.000000 0.000000 0.000000 0.034772 0.000000
# 6 0.000000 0.000000 0.000000 0.000000 0.000000 0.039215
#
#
# Mechanical properties :
#
#
# Convention : Reuss Voigt Hill
#
# Bulk Modulus (GPa) = 34.90163 46.12253 40.51208
# Shear Modulus (GPa) = 24.24508 28.63938 26.44223
#
# Velocity S-wave (km/s) = 3.46521 3.76617 3.61882
# Velocity P-wave (km/s) = 5.77024 6.46179 6.12579
#
# Compressibility (1/GPa) = 0.02865196
#
# Stress axis : x y z
#
# Youngs Moduli (GPa) = 44.12707 88.55796 109.46295
#
# Poissons Ratio (x) = -0.09331 0.62133
# Poissons Ratio (y) = -0.04650 0.28419
# Poissons Ratio (z) = 0.25047 0.22991
#
# Static dielectric constant tensor:
#      x y z
#    x 1.730950 0.000000 0.000000 
#    y 0.000000 1.734300 0.000000 
#    z 0.000000 0.000000 1.731160 
# 
# From -- ./inp_files/48160.got.cif
#   From: 2010.05.17/outbox.cif.g08.bks.cpg/sg72_25_cif.got.tgz:48160.got - 2010.06.03 17:03:01.
