data_PCOD9528497
_publ_section_title
;
Structure prediction by ZEFSAII (Michael W. Deem and Ramdas Pophale) SiO2 
 PCOD9528497
Probable space group: I B A M
;
_chemical_formula_sum "Si O2"
_cell_formula_units_Z 112
_cell_length_a 11.399044
_cell_length_b 28.682790
_cell_length_c 16.094566
_cell_angle_alpha 90.000000
_cell_angle_beta 90.000000
_cell_angle_gamma 90.000000
_cell_volume 5262.221122
_symmetry_space_group_name_H-M "I B A M"
_symmetry_group_IT_number 72
_symmetry_cell_setting 'orthorhombic'
loop_
_space_group_symop_operation_xyz
x,y,z
-x,-y,z
x,-y,1/2-z
-x,y,1/2-z
-x,-y,-z
x,y,-z
-x,y,1/2+z
x,-y,1/2+z
1/2+x,1/2+y,1/2+z
1/2-x,1/2-y,1/2+z
1/2+x,1/2-y,-z
1/2-x,1/2+y,-z
1/2-x,1/2-y,1/2-z
1/2+x,1/2+y,1/2-z
1/2-x,1/2+y,z
1/2+x,1/2-y,z
loop_
_atom_site_type_symbol
_atom_site_label
_atom_site_fract_x
_atom_site_fract_y
_atom_site_fract_z
Si Si1 0.876562 0.978012 0.601425
Si Si2 0.786527 0.559835 0.399389
Si Si3 0.994885 0.383679 0.651517
Si Si4 0.936848 0.191152 0.162837
Si Si5 0.876754 0.290533 0.097682
Si Si6 0.729384 0.619063 0.099471
Si Si7 0.663925 0.652702 0.403514
O O1 0.878595 0.978362 0.500000
O O2 0.850936 0.924957 0.624878
O O3 0.770536 0.011613 0.629077
O O4 0.000000 0.000000 0.629038
O O5 0.787151 0.558330 0.500000
O O6 0.701106 0.602217 0.370061
O O7 0.915552 0.574761 0.371143
O O8 0.863480 0.392161 0.621195
O O9 0.000000 0.376722 0.750000
O O10 0.043478 0.336361 0.609111
O O11 0.922631 0.245472 0.144704
O O12 0.815614 0.164269 0.148638
O O13 0.000000 0.183643 0.250000
O O14 0.030039 0.166668 0.101884
O O15 0.749144 0.307019 0.130881
O O16 0.871031 0.278089 0.000000
O O17 0.719781 0.626513 0.000000
O O18 0.697284 0.650335 0.500000
#
# Coordination Sequence:
#
# PCOD9528497 Si02
#       7
#    16  16  16  16  16  16  16
#     4   9  18  36  66  98 123 161 220 274 317 376
#     4   9  18  37  66  91 119 164 213 260 316 385
#     4  11  24  41  64  90 134 167 210 268 327 387
#     4  12  26  38  61  91 132 166 209 264 330 386
#     4  10  22  41  65  90 118 167 218 263 321 388
#     4  11  24  42  65  95 129 170 221 275 325 383
#     4   9  19  37  61  86 118 162 212 255 313 383
#
# _framework density 21.283788999999999
#
# number of rings (size 3 to 8) (size 9 to 14) (size 15 to 20)
#    0.000    1.857    0.000    4.714    6.000    3.429 
#    0.000    3.571    0.000    0.000    0.000    0.000 
#    0.000    0.000    0.000    0.000    0.000    0.000 
#
# Total GULP energy -312808.220419 kJ/mol
# GULP energy per Si atom -5585.861079 kJ/mol
# Density = 2.123535 g / cm^3
# Si number density = 21.283789 Si / 1000 Ang^3
#
#
#
# Elastic Constant Matrix: (Units=GPa)
#
#
# Indices 1 2 3 4 5 6 
#
# 1 83.6060 20.1557 -2.5022 0.0000 0.0000 0.0000
# 2 20.1557 69.3365 19.3642 0.0000 0.0000 0.0000
# 3 -2.5022 19.3642 42.5965 -0.0003 0.0000 0.0000
# 4 0.0000 0.0000 -0.0003 -2.3253 0.0000 0.0000
# 5 0.0000 0.0000 0.0000 0.0000 17.1151 0.0000
# 6 0.0000 0.0000 0.0000 0.0000 0.0000 25.4474
#
#
#
# Elastic Compliance Matrix: (Units=1/GPa)
#
#
# Indices 1 2 3 4 5 6 
#
# 1 0.013163 -0.004630 0.002878 0.000000 0.000000 0.000000
# 2 -0.004630 0.018148 -0.008522 0.000001 0.000000 0.000000
# 3 0.002878 -0.008522 0.027519 -0.000003 0.000000 0.000000
# 4 0.000000 0.000001 -0.000003 -0.430056 0.000001 0.000000
# 5 0.000000 0.000000 0.000000 0.000001 0.058428 0.000000
# 6 0.000000 0.000000 0.000000 0.000000 0.000000 0.039297
#
#
# Mechanical properties :
#
#
# Convention : Reuss Voigt Hill
#
# Bulk Modulus (GPa) = 26.12168 29.95269 28.03718
# Shear Modulus (GPa) = -20.81677 18.61553 -1.10062
#
# Velocity S-wave (km/s) = -3.13078 2.96063 -0.71989
# Velocity P-wave (km/s) = 0.87715 5.07845 3.53704
#
# Compressibility (1/GPa) = 0.03828238
#
# Stress axis : x y z
#
# Youngs Moduli (GPa) = 75.96896 55.10099 36.33809
#
# Poissons Ratio (x) = 0.25513 -0.10459
# Poissons Ratio (y) = 0.35176 0.30968
# Poissons Ratio (z) = -0.21865 0.46958
#
# Static dielectric constant tensor:
#      x y z
#    x 1.776590 0.000000 0.000000 
#    y 0.000000 1.757920 0.000000 
#    z 0.000000 0.000000 1.813110 
# 
# From -- ./inp_files/20743.got.cif
#   From: 2010.05.17/outbox.cif.g08.bks.cpg/sg72_11_cif.got.tgz:20743.got - 2010.06.03 17:03:01.
