data_PCOD9528156
_publ_section_title
;
Structure prediction by ZEFSAII (Michael W. Deem and Ramdas Pophale) SiO2 
 PCOD9528156
Probable space group: I B A M
;
_chemical_formula_sum "Si O2"
_cell_formula_units_Z 128
_cell_length_a 13.092765
_cell_length_b 21.143411
_cell_length_c 19.739049
_cell_angle_alpha 90.000000
_cell_angle_beta 90.000000
_cell_angle_gamma 90.000000
_cell_volume 5464.276284
_symmetry_space_group_name_H-M "I B A M"
_symmetry_group_IT_number 72
_symmetry_cell_setting 'orthorhombic'
loop_
_space_group_symop_operation_xyz
x,y,z
-x,-y,z
x,-y,1/2-z
-x,y,1/2-z
-x,-y,-z
x,y,-z
-x,y,1/2+z
x,-y,1/2+z
1/2+x,1/2+y,1/2+z
1/2-x,1/2-y,1/2+z
1/2+x,1/2-y,-z
1/2-x,1/2+y,-z
1/2-x,1/2-y,1/2-z
1/2+x,1/2+y,1/2-z
1/2-x,1/2+y,z
1/2+x,1/2-y,z
loop_
_atom_site_type_symbol
_atom_site_label
_atom_site_fract_x
_atom_site_fract_y
_atom_site_fract_z
Si Si1 0.635035 0.681130 0.806071
Si Si2 0.159262 0.324736 0.126113
Si Si3 0.925589 0.683273 0.664554
Si Si4 0.840938 0.452471 0.807258
Si Si5 0.938197 0.909391 0.417664
Si Si6 0.262990 0.694659 0.074821
Si Si7 0.624323 0.399909 0.824234
Si Si8 0.286166 0.038503 0.423185
O O1 0.757037 0.674551 0.813725
O O2 0.604933 0.753517 0.794861
O O3 0.590854 0.656378 0.878554
O O4 0.600347 0.636767 0.745115
O O5 0.044485 0.315057 0.149313
O O6 0.197244 0.266088 0.081081
O O7 0.169050 0.391728 0.089158
O O8 0.894621 0.615354 0.694954
O O9 0.854277 0.690035 0.597911
O O10 0.877171 0.500000 0.750000
O O11 0.718260 0.443851 0.802638
O O12 0.847289 0.488955 0.878022
O O13 0.957411 0.904777 0.500000
O O14 0.835686 0.951504 0.409010
O O15 0.034258 0.929140 0.370434
O O16 0.326379 0.653058 0.127168
O O17 0.277871 0.669740 0.000000
O O18 0.294242 0.018701 0.500000
#
# Coordination Sequence:
#
# PCOD9528156 Si02
#       8
#    16  16  16  16  16  16  16  16
#     4  10  22  42  68 101 137 168 213 276 340 407
#     4  10  21  42  68  94 129 175 222 269 334 401
#     4  10  24  42  67  96 128 175 223 270 336 401
#     4  11  25  45  64  90 130 175 227 279 320 377
#     4  10  21  40  70 102 133 172 216 267 336 409
#     4  10  22  39  62  97 135 165 211 279 340 403
#     4  11  23  41  66  97 132 172 215 272 343 406
#     4  10  23  43  64  91 130 176 226 275 318 377
#
# _framework density 23.424878
#
# number of rings (size 3 to 8) (size 9 to 14) (size 15 to 20)
#    0.000    1.750    0.000    3.375    0.000   13.000 
#    0.000   15.000    0.000    0.000    0.000    0.000 
#    0.000    0.000    0.000    0.000    0.000    0.000 
#
# Total GULP energy -357867.154386 kJ/mol
# GULP energy per Si atom -5591.674287 kJ/mol
# Density = 2.337156 g / cm^3
# Si number density = 23.424878 Si / 1000 Ang^3
#
#
#
# Elastic Constant Matrix: (Units=GPa)
#
#
# Indices 1 2 3 4 5 6 
#
# 1 127.0145 17.4565 35.9146 0.0000 0.0000 0.0000
# 2 17.4565 112.1834 36.2359 0.0000 0.0000 0.0000
# 3 35.9146 36.2359 121.3774 0.0000 0.0000 0.0000
# 4 0.0000 0.0000 0.0000 5.8349 0.0000 0.0000
# 5 0.0000 0.0000 0.0000 0.0000 17.0622 0.0000
# 6 0.0000 0.0000 0.0000 0.0000 0.0000 15.1944
#
#
#
# Elastic Compliance Matrix: (Units=1/GPa)
#
#
# Indices 1 2 3 4 5 6 
#
# 1 0.008625 -0.000573 -0.002381 0.000000 0.000000 0.000000
# 2 -0.000573 0.009903 -0.002787 0.000000 0.000000 0.000000
# 3 -0.002381 -0.002787 0.009775 0.000000 0.000000 0.000000
# 4 0.000000 0.000000 0.000000 0.171381 0.000000 0.000000
# 5 0.000000 0.000000 0.000000 0.000000 0.058609 0.000000
# 6 0.000000 0.000000 0.000000 0.000000 0.000000 0.065814
#
#
# Mechanical properties :
#
#
# Convention : Reuss Voigt Hill
#
# Bulk Modulus (GPa) = 59.44703 59.97659 59.71181
# Shear Modulus (GPa) = 14.65427 25.68286 20.16856
#
# Velocity S-wave (km/s) = 2.50388 3.31477 2.93744
# Velocity P-wave (km/s) = 5.81310 6.34899 6.08694
#
# Compressibility (1/GPa) = 0.01682170
#
# Stress axis : x y z
#
# Youngs Moduli (GPa) = 115.94027 100.97585 102.29850
#
# Poissons Ratio (x) = 0.05786 0.24358
# Poissons Ratio (y) = 0.06644 0.28510
# Poissons Ratio (z) = 0.27606 0.28142
#
# Static dielectric constant tensor:
#      x y z
#    x 1.920180 0.000000 0.000000 
#    y 0.000000 1.875170 0.000000 
#    z 0.000000 0.000000 1.897610 
# 
# From -- ./inp_files/32932.got.cif
#   From: 2010.05.17/outbox.cif.g08.bks.cpg/sg72_17_cif.got.tgz:32932.got - 2010.06.03 17:03:01.
