data_PCOD9528699
_publ_section_title
;
Structure prediction by ZEFSAII (Michael W. Deem and Ramdas Pophale) SiO2 
 PCOD9528699
Probable space group: I B A M
;
_chemical_formula_sum "Si O2"
_cell_formula_units_Z 64
_cell_length_a 18.825591
_cell_length_b 9.761076
_cell_length_c 15.951155
_cell_angle_alpha 90.000000
_cell_angle_beta 90.000000
_cell_angle_gamma 90.000000
_cell_volume 2931.152731
_symmetry_space_group_name_H-M "I B A M"
_symmetry_group_IT_number 72
_symmetry_cell_setting 'orthorhombic'
loop_
_space_group_symop_operation_xyz
x,y,z
-x,-y,z
x,-y,1/2-z
-x,y,1/2-z
-x,-y,-z
x,y,-z
-x,y,1/2+z
x,-y,1/2+z
1/2+x,1/2+y,1/2+z
1/2-x,1/2-y,1/2+z
1/2+x,1/2-y,-z
1/2-x,1/2+y,-z
1/2-x,1/2-y,1/2-z
1/2+x,1/2+y,1/2-z
1/2-x,1/2+y,z
1/2+x,1/2-y,z
loop_
_atom_site_type_symbol
_atom_site_label
_atom_site_fract_x
_atom_site_fract_y
_atom_site_fract_z
Si Si1 0.924836 0.419091 0.500000
Si Si2 0.824637 0.511767 0.648327
Si Si3 0.505503 0.335441 0.500000
Si Si4 0.703290 0.691113 0.173942
Si Si5 0.455567 0.356776 0.178870
O O1 0.883313 0.455142 0.585277
O O2 0.934812 0.254144 0.500000
O O3 0.000000 0.500000 0.500000
O O4 0.841795 0.500000 0.750000
O O5 0.752043 0.426111 0.635127
O O6 0.811702 0.669663 0.624406
O O7 0.500000 0.500000 0.500000
O O8 0.542680 0.295429 0.413601
O O9 0.750000 0.750000 0.250000
O O10 0.626771 0.633696 0.201893
O O11 0.500000 0.500000 0.171251
O O12 0.500000 0.277858 0.250000
#
# Coordination Sequence:
#
# PCOD9528699 Si02
#       5
#     8  16   8  16  16
#     4  12  26  45  69 102 144 193 241 295 371 440
#     4  10  25  44  69 100 143 184 236 302 365 440
#     4  10  24  43  67 108 143 175 249 298 362 442
#     4  10  23  43  70 101 142 180 241 292 369 431
#     4  10  23  39  72 103 143 185 239 300 360 438
#
# _framework density 21.834413999999999
#
# number of rings (size 3 to 8) (size 9 to 14) (size 15 to 20)
#    0.000    1.750    0.000    1.500   17.500    4.500 
#    0.000    0.000    0.000    0.000    0.000    0.000 
#    0.000    0.000    0.000    0.000    0.000    0.000 
#
# Total GULP energy -178283.030702 kJ/mol
# GULP energy per Si atom -5571.344709 kJ/mol
# Density = 2.178472 g / cm^3
# Si number density = 21.834414 Si / 1000 Ang^3
#
#
#
# Elastic Constant Matrix: (Units=GPa)
#
#
# Indices 1 2 3 4 5 6 
#
# 1 201.5849 64.3814 61.5099 0.0000 0.0000 0.0000
# 2 64.3814 145.5868 14.6464 0.0000 0.0000 0.0000
# 3 61.5099 14.6464 149.1484 0.0000 0.0000 0.0000
# 4 0.0000 0.0000 0.0000 -6.9346 0.0000 0.0000
# 5 0.0000 0.0000 0.0000 0.0000 29.0277 0.0000
# 6 0.0000 0.0000 0.0000 0.0000 0.0000 38.5453
#
#
#
# Elastic Compliance Matrix: (Units=1/GPa)
#
#
# Indices 1 2 3 4 5 6 
#
# 1 0.006553 -0.002652 -0.002442 0.000000 0.000000 0.000000
# 2 -0.002652 0.008011 0.000307 0.000000 0.000000 0.000000
# 3 -0.002442 0.000307 0.007682 0.000000 0.000000 0.000000
# 4 0.000000 0.000000 0.000000 -0.144204 0.000000 0.000000
# 5 0.000000 0.000000 0.000000 0.000000 0.034450 0.000000
# 6 0.000000 0.000000 0.000000 0.000000 0.000000 0.025943
#
#
# Mechanical properties :
#
#
# Convention : Reuss Voigt Hill
#
# Bulk Modulus (GPa) = 78.91941 86.37729 82.64835
# Shear Modulus (GPa) = -104.67284 35.84650 -34.41317
#
# Velocity S-wave (km/s) = -6.93134 4.05624 -3.97432
# Velocity P-wave (km/s) = 5.27589 7.84751 4.10783
#
# Compressibility (1/GPa) = 0.01267115
#
# Stress axis : x y z
#
# Youngs Moduli (GPa) = 152.60532 124.83328 130.17991
#
# Poissons Ratio (x) = 0.33107 0.31790
# Poissons Ratio (y) = 0.40473 -0.03998
# Poissons Ratio (z) = 0.37266 -0.03834
#
# Static dielectric constant tensor:
#      x y z
#    x 1.919570 0.000000 0.000000 
#    y 0.000000 1.892790 0.000000 
#    z 0.000000 0.000000 1.868330 
# 
# From -- ./inp_files/30150.got.cif
#   From: 2010.05.17/outbox.cif.g08.bks.cpg/sg72_16_cif.got.tgz:30150.got - 2010.06.03 17:03:01.
