data_PCOD9528688
_publ_section_title
;
Structure prediction by ZEFSAII (Michael W. Deem and Ramdas Pophale) SiO2 
 PCOD9528688
Probable space group: I B A M
;
_chemical_formula_sum "Si O2"
_cell_formula_units_Z 72
_cell_length_a 10.974197
_cell_length_b 17.493586
_cell_length_c 19.265372
_cell_angle_alpha 90.000000
_cell_angle_beta 90.000000
_cell_angle_gamma 90.000000
_cell_volume 3698.528722
_symmetry_space_group_name_H-M "I B A M"
_symmetry_group_IT_number 72
_symmetry_cell_setting 'orthorhombic'
loop_
_space_group_symop_operation_xyz
x,y,z
-x,-y,z
x,-y,1/2-z
-x,y,1/2-z
-x,-y,-z
x,y,-z
-x,y,1/2+z
x,-y,1/2+z
1/2+x,1/2+y,1/2+z
1/2-x,1/2-y,1/2+z
1/2+x,1/2-y,-z
1/2-x,1/2+y,-z
1/2-x,1/2-y,1/2-z
1/2+x,1/2+y,1/2-z
1/2-x,1/2+y,z
1/2+x,1/2-y,z
loop_
_atom_site_type_symbol
_atom_site_label
_atom_site_fract_x
_atom_site_fract_y
_atom_site_fract_z
Si Si1 0.104391 0.300720 0.000000
Si Si2 0.362032 0.690594 0.746308
Si Si3 0.356469 0.338176 0.597705
Si Si4 0.250163 0.953183 0.000000
Si Si5 0.852714 0.608639 0.500000
Si Si6 0.422353 0.570339 0.373877
O O1 0.122549 0.246669 0.932775
O O2 0.975304 0.343362 0.000000
O O3 0.203012 0.367078 0.000000
O O4 0.500000 0.725934 0.750000
O O5 0.250000 0.750000 0.750000
O O6 0.349434 0.650677 0.820415
O O7 0.366356 0.629613 0.682792
O O8 0.232708 0.366984 0.564082
O O9 0.479513 0.383206 0.580069
O O10 0.173802 0.962321 0.929048
O O11 0.355620 0.017028 0.000000
O O12 0.500000 0.500000 0.341952
#
# Coordination Sequence:
#
# PCOD9528688 Si02
#       6
#     8  16  16   8   8  16
#     4  11  25  36  66  90 130 175 206 274 328 380
#     4  10  23  40  64  95 132 169 219 270 330 389
#     4  10  23  39  62  92 122 166 215 267 313 391
#     4  12  22  41  63  93 133 163 218 265 331 382
#     4  11  23  40  59  92 130 164 219 257 330 388
#     4  11  22  41  66  94 127 168 217 270 326 390
#
# _framework density 19.467200999999999
#
# number of rings (size 3 to 8) (size 9 to 14) (size 15 to 20)
#    0.000    1.333    2.222    3.333   12.444    4.000 
#    0.000    0.000    0.000    0.000    0.000    9.333 
#    0.000    0.000    0.000    0.000    0.000    0.000 
#
# Total GULP energy -200586.545401 kJ/mol
# GULP energy per Si atom -5571.848483 kJ/mol
# Density = 1.942289 g / cm^3
# Si number density = 19.467201 Si / 1000 Ang^3
#
#
#
# Elastic Constant Matrix: (Units=GPa)
#
#
# Indices 1 2 3 4 5 6 
#
# 1 83.6020 39.0161 30.9450 0.0000 0.0000 0.0000
# 2 39.0161 128.4913 25.4514 0.0000 0.0000 0.0000
# 3 30.9450 25.4514 110.4706 0.0000 0.0000 0.0000
# 4 0.0000 0.0000 0.0000 21.5936 0.0000 0.0000
# 5 0.0000 0.0000 0.0000 0.0000 7.6495 0.0000
# 6 0.0000 0.0000 0.0000 0.0000 0.0000 40.8203
#
#
#
# Elastic Compliance Matrix: (Units=1/GPa)
#
#
# Indices 1 2 3 4 5 6 
#
# 1 0.015005 -0.003902 -0.003304 0.000000 0.000000 0.000000
# 2 -0.003902 0.009169 -0.001020 0.000000 0.000000 0.000000
# 3 -0.003304 -0.001020 0.010213 0.000000 0.000000 0.000000
# 4 0.000000 0.000000 0.000000 0.046310 0.000000 0.000000
# 5 0.000000 0.000000 0.000000 0.000000 0.130727 0.000000
# 6 0.000000 0.000000 0.000000 0.000000 0.000000 0.024498
#
#
# Mechanical properties :
#
#
# Convention : Reuss Voigt Hill
#
# Bulk Modulus (GPa) = 55.75388 57.04324 56.39856
# Shear Modulus (GPa) = 19.35340 29.15610 24.25475
#
# Velocity S-wave (km/s) = 3.15644 3.87422 3.53360
# Velocity P-wave (km/s) = 6.47968 7.02699 6.75888
#
# Compressibility (1/GPa) = 0.01793597
#
# Stress axis : x y z
#
# Youngs Moduli (GPa) = 66.64229 109.05879 97.91731
#
# Poissons Ratio (x) = 0.42553 0.32356
# Poissons Ratio (y) = 0.26003 0.09983
# Poissons Ratio (z) = 0.22021 0.11119
#
# Static dielectric constant tensor:
#      x y z
#    x 1.723730 0.000000 0.000000 
#    y 0.000000 1.728660 0.000000 
#    z 0.000000 0.000000 1.730790 
# 
# From -- ./inp_files/36778.got.cif
#   From: 2010.05.17/outbox.cif.g08.bks.cpg/sg72_19_cif.got.tgz:36778.got - 2010.06.03 17:03:01.
