data_PCOD9528178
_publ_section_title
;
Structure prediction by ZEFSAII (Michael W. Deem and Ramdas Pophale) SiO2 
 PCOD9528178
Probable space group: I B A M
;
_chemical_formula_sum "Si O2"
_cell_formula_units_Z 80
_cell_length_a 25.576476
_cell_length_b 8.853401
_cell_length_c 17.985434
_cell_angle_alpha 90.000000
_cell_angle_beta 90.000000
_cell_angle_gamma 90.000000
_cell_volume 4072.600060
_symmetry_space_group_name_H-M "I B A M"
_symmetry_group_IT_number 72
_symmetry_cell_setting 'orthorhombic'
loop_
_space_group_symop_operation_xyz
x,y,z
-x,-y,z
x,-y,1/2-z
-x,y,1/2-z
-x,-y,-z
x,y,-z
-x,y,1/2+z
x,-y,1/2+z
1/2+x,1/2+y,1/2+z
1/2-x,1/2-y,1/2+z
1/2+x,1/2-y,-z
1/2-x,1/2+y,-z
1/2-x,1/2-y,1/2-z
1/2+x,1/2+y,1/2-z
1/2-x,1/2+y,z
1/2+x,1/2-y,z
loop_
_atom_site_type_symbol
_atom_site_label
_atom_site_fract_x
_atom_site_fract_y
_atom_site_fract_z
Si Si1 0.710882 0.183106 0.085920
Si Si2 0.875800 0.818599 0.500000
Si Si3 0.906603 0.317034 0.381035
Si Si4 0.880377 0.500000 0.250000
Si Si5 0.447224 0.595590 0.000000
Si Si6 0.190840 0.656916 0.126510
Si Si7 0.940178 0.454641 0.000000
O O1 0.653327 0.235712 0.110921
O O2 0.755968 0.249531 0.137947
O O3 0.708615 0.001439 0.089478
O O4 0.720245 0.228127 0.000000
O O5 0.843122 0.762158 0.428762
O O6 0.928941 0.720188 0.500000
O O7 0.895875 0.988502 0.500000
O O8 0.913815 0.380281 0.298307
O O9 0.942433 0.199019 0.425599
O O10 0.912602 0.468519 0.430082
O O11 0.843017 0.399903 0.196521
O O12 0.500000 0.500000 0.000000
O O13 0.000000 0.500000 0.000000
#
# Coordination Sequence:
#
# PCOD9528178 Si02
#       7
#    16   8  16   8   8  16   8
#     4  11  18  35  59  92 127 163 226 267 318 379
#     4  12  20  38  62  95 118 165 219 276 323 384
#     4  10  21  41  65  95 129 172 209 280 325 393
#     4  10  22  44  63  94 142 174 221 256 338 410
#     4  11  25  42  70 101 129 159 232 289 331 367
#     4  11  23  34  64  94 128 176 216 265 320 401
#     4  11  19  38  68  88 111 162 237 279 312 375
#
# _framework density 19.643470000000001
#
# number of rings (size 3 to 8) (size 9 to 14) (size 15 to 20)
#    0.000    1.200    8.000    1.200    2.800    3.200 
#    0.000    1.500    0.000    1.200    0.000    0.000 
#    0.000    0.000    0.000    0.000    0.000    0.000 
#
# Total GULP energy -222975.539716 kJ/mol
# GULP energy per Si atom -5574.388493 kJ/mol
# Density = 1.959876 g / cm^3
# Si number density = 19.643470 Si / 1000 Ang^3
#
#
#
# Elastic Constant Matrix: (Units=GPa)
#
#
# Indices 1 2 3 4 5 6 
#
# 1 88.7356 28.4084 24.4626 0.0000 0.0000 0.0000
# 2 28.4084 80.7237 31.3477 0.0000 0.0000 0.0000
# 3 24.4626 31.3477 106.3303 0.0000 0.0000 0.0000
# 4 0.0000 0.0000 0.0000 -91.3197 0.0000 0.0000
# 5 0.0000 0.0000 0.0000 0.0000-1178.4104 0.0000
# 6 0.0000 0.0000 0.0000 0.0000 0.0000 41.9203
#
#
#
# Elastic Compliance Matrix: (Units=1/GPa)
#
#
# Indices 1 2 3 4 5 6 
#
# 1 0.013017 -0.003860 -0.001857 0.000000 0.000000 0.000000
# 2 -0.003860 0.015134 -0.003574 0.000000 0.000000 0.000000
# 3 -0.001857 -0.003574 0.010885 0.000000 0.000000 0.000000
# 4 0.000000 0.000000 0.000000 -0.010951 0.000000 0.000000
# 5 0.000000 0.000000 0.000000 0.000000 -0.000849 0.000000
# 6 0.000000 0.000000 0.000000 0.000000 0.000000 0.023855
#
#
# Mechanical properties :
#
#
# Convention : Reuss Voigt Hill
#
# Bulk Modulus (GPa) = 48.88608 49.35856 49.12232
# Shear Modulus (GPa) = 65.36656 -232.79056 -83.71200
#
# Velocity S-wave (km/s) = 5.77484 -10.89794 -6.53515
# Velocity P-wave (km/s) = 8.33101 11.54001 5.64651
#
# Compressibility (1/GPa) = 0.02045572
#
# Stress axis : x y z
#
# Youngs Moduli (GPa) = 76.82231 66.07584 91.86600
#
# Poissons Ratio (x) = 0.25505 0.17057
# Poissons Ratio (y) = 0.29653 0.32830
# Poissons Ratio (z) = 0.14264 0.23614
#
# Static dielectric constant tensor:
#      x y z
#    x 1.726920 0.000000 0.000000 
#    y 0.000000 1.693110 0.000000 
#    z 0.000000 0.000000 1.729350 
# 
# From -- ./inp_files/40128.got.cif
#   From: 2010.05.17/outbox.cif.g08.bks.cpg/sg72_21_cif.got.tgz:40128.got - 2010.06.03 17:03:01.
