data_PCOD9528383
_publ_section_title
;
Structure prediction by ZEFSAII (Michael W. Deem and Ramdas Pophale) SiO2 
 PCOD9528383
Probable space group: I B A M
;
_chemical_formula_sum "Si O2"
_cell_formula_units_Z 56
_cell_length_a 5.572261
_cell_length_b 29.965918
_cell_length_c 14.536409
_cell_angle_alpha 90.000000
_cell_angle_beta 90.000000
_cell_angle_gamma 90.000000
_cell_volume 2427.259284
_symmetry_space_group_name_H-M "I B A M"
_symmetry_group_IT_number 72
_symmetry_cell_setting 'orthorhombic'
loop_
_space_group_symop_operation_xyz
x,y,z
-x,-y,z
x,-y,1/2-z
-x,y,1/2-z
-x,-y,-z
x,y,-z
-x,y,1/2+z
x,-y,1/2+z
1/2+x,1/2+y,1/2+z
1/2-x,1/2-y,1/2+z
1/2+x,1/2-y,-z
1/2-x,1/2+y,-z
1/2-x,1/2-y,1/2-z
1/2+x,1/2+y,1/2-z
1/2-x,1/2+y,z
1/2+x,1/2-y,z
loop_
_atom_site_type_symbol
_atom_site_label
_atom_site_fract_x
_atom_site_fract_y
_atom_site_fract_z
Si Si1 0.485171 0.272367 0.862108
Si Si2 0.882270 0.871879 0.351190
Si Si3 0.500000 0.920353 0.750000
Si Si4 0.668959 0.542888 0.400710
O O1 0.500000 0.270623 0.750000
O O2 0.752141 0.256743 0.891035
O O3 0.422806 0.322992 0.890273
O O4 0.615094 0.887692 0.326752
O O5 0.000000 0.870386 0.250000
O O6 0.008303 0.912485 0.401811
O O7 0.673870 0.951154 0.809756
O O8 0.500000 0.500000 0.392619
O O9 0.798451 0.540043 0.500000
#
# Coordination Sequence:
#
# PCOD9528383 Si02
#       4
#    16  16   8  16
#     4   9  18  29  53  87 127 169 218 275 333 399
#     4   9  20  34  57  90 126 164 214 270 329 391
#     4  10  22  39  66  94 126 172 222 270 331 404
#     4  10  23  42  64  94 130 171 219 273 336 401
#
# _framework density 23.071290000000001
#
# number of rings (size 3 to 8) (size 9 to 14) (size 15 to 20)
#    0.000    2.571    0.000    0.000   14.000    8.571 
#    0.000    2.857    0.000    2.571    0.000    0.000 
#    0.000    0.000    0.000    0.000    0.000    0.000 
#
# Total GULP energy -156271.970994 kJ/mol
# GULP energy per Si atom -5581.141821 kJ/mol
# Density = 2.301878 g / cm^3
# Si number density = 23.071290 Si / 1000 Ang^3
#
#
#
# Elastic Constant Matrix: (Units=GPa)
#
#
# Indices 1 2 3 4 5 6 
#
# 1 106.3623 67.5727 32.6516 0.0000 0.0000 0.0000
# 2 67.5727 185.6548 48.4491 0.0000 0.0000 0.0000
# 3 32.6516 48.4491 105.1337 0.0002 0.0000 0.0000
# 4 0.0000 0.0000 0.0002 149.4699 0.0000 0.0000
# 5 0.0000 0.0000 0.0000 0.0000 -7.0852 0.0000
# 6 0.0000 0.0000 0.0000 0.0000 0.0000 28.8436
#
#
#
# Elastic Compliance Matrix: (Units=1/GPa)
#
#
# Indices 1 2 3 4 5 6 
#
# 1 0.012606 -0.004054 -0.002047 0.000000 0.000000 0.000000
# 2 -0.004054 0.007426 -0.002163 0.000000 0.000000 0.000000
# 3 -0.002047 -0.002163 0.011144 0.000000 0.000000 0.000000
# 4 0.000000 0.000000 0.000000 0.006690 0.000000 0.000000
# 5 0.000000 0.000000 0.000000 0.000000 -0.141140 0.000000
# 6 0.000000 0.000000 0.000000 0.000000 0.000000 0.034670
#
#
# Mechanical properties :
#
#
# Convention : Reuss Voigt Hill
#
# Bulk Modulus (GPa) = 68.26722 77.16641 72.71681
# Shear Modulus (GPa) = -105.94769 50.81084 -27.56843
#
# Velocity S-wave (km/s) = -6.78392 4.69800 -3.46052
# Velocity P-wave (km/s) = 5.63100 7.93397 3.95219
#
# Compressibility (1/GPa) = 0.01464832
#
# Stress axis : x y z
#
# Youngs Moduli (GPa) = 79.32953 134.65489 89.73205
#
# Poissons Ratio (x) = 0.54588 0.18366
# Poissons Ratio (y) = 0.32160 0.19412
# Poissons Ratio (z) = 0.16237 0.29130
#
# Static dielectric constant tensor:
#      x y z
#    x 2.069470 0.000000 0.000000 
#    y 0.000000 1.830870 0.000000 
#    z 0.000000 0.000000 1.784600 
# 
# From -- ./inp_files/17539.got.cif
#   From: 2010.05.17/outbox.cif.g08.bks.cpg/sg72_9_cif.got.tgz:17539.got - 2010.06.03 17:03:01.
