data_PCOD9528949
_publ_section_title
;
Structure prediction by ZEFSAII (Michael W. Deem and Ramdas Pophale) SiO2 
 PCOD9528949
Probable space group: I B A M
;
_chemical_formula_sum "Si O2"
_cell_formula_units_Z 64
_cell_length_a 31.389437
_cell_length_b 5.036907
_cell_length_c 15.831651
_cell_angle_alpha 90.000000
_cell_angle_beta 90.000000
_cell_angle_gamma 90.000000
_cell_volume 2503.073867
_symmetry_space_group_name_H-M "I B A M"
_symmetry_group_IT_number 72
_symmetry_cell_setting 'orthorhombic'
loop_
_space_group_symop_operation_xyz
x,y,z
-x,-y,z
x,-y,1/2-z
-x,y,1/2-z
-x,-y,-z
x,y,-z
-x,y,1/2+z
x,-y,1/2+z
1/2+x,1/2+y,1/2+z
1/2-x,1/2-y,1/2+z
1/2+x,1/2-y,-z
1/2-x,1/2+y,-z
1/2-x,1/2-y,1/2-z
1/2+x,1/2+y,1/2-z
1/2-x,1/2+y,z
1/2+x,1/2-y,z
loop_
_atom_site_type_symbol
_atom_site_label
_atom_site_fract_x
_atom_site_fract_y
_atom_site_fract_z
Si Si1 0.574629 0.500000 0.250000
Si Si2 0.029189 0.252169 0.114326
Si Si3 0.776648 0.009061 0.398902
Si Si4 0.146281 0.325558 0.664943
Si Si5 0.109645 0.395860 0.000000
O O1 0.544049 0.713806 0.290728
O O2 0.604047 0.652161 0.183156
O O3 0.000000 0.500000 0.097350
O O4 0.074446 0.289865 0.069701
O O5 0.000000 0.000000 0.091599
O O6 0.785048 0.994048 0.500000
O O7 0.737549 0.807915 0.379670
O O8 0.816419 0.887997 0.350338
O O9 0.152787 0.500000 0.750000
O O10 0.139870 0.486918 0.577434
#
# Coordination Sequence:
#
# PCOD9528949 Si02
#       5
#     8  16  16  16   8
#     4  12  29  48  80 118 160 202 272 326 398 468
#     4  12  28  51  78 112 155 210 266 330 398 469
#     4  10  24  48  78 115 154 202 255 312 383 464
#     4  12  27  51  78 116 160 205 260 323 391 467
#     4  12  26  52  78 112 154 204 266 322 390 470
#
# _framework density 25.568560000000002
#
# number of rings (size 3 to 8) (size 9 to 14) (size 15 to 20)
#    0.000    0.500    3.750    2.625    3.500    7.000 
#    4.500    0.000    0.000    0.000    0.000    0.000 
#    0.000    0.000    0.000    0.000    0.000    0.000 
#
# Total GULP energy -178336.300764 kJ/mol
# GULP energy per Si atom -5573.009399 kJ/mol
# Density = 2.551036 g / cm^3
# Si number density = 25.568560 Si / 1000 Ang^3
#
#
#
# Elastic Constant Matrix: (Units=GPa)
#
#
# Indices 1 2 3 4 5 6 
#
# 1 85.9037 8.0434 47.3097 0.0000 0.0000 0.0000
# 2 8.0434 105.9574 33.1329 0.0000 0.0000 0.0000
# 3 47.3097 33.1329 146.1078 0.0000 0.0000 0.0000
# 4 0.0000 0.0000 0.0000 -0.5558 0.0000 0.0000
# 5 0.0000 0.0000 0.0000 0.0000 -92.8763 0.0000
# 6 0.0000 0.0000 0.0000 0.0000 0.0000 36.9167
#
#
#
# Elastic Compliance Matrix: (Units=1/GPa)
#
#
# Indices 1 2 3 4 5 6 
#
# 1 0.014182 0.000387 -0.004680 0.000000 0.000000 0.000000
# 2 0.000387 0.010169 -0.002431 0.000000 0.000000 0.000000
# 3 -0.004680 -0.002431 0.008911 0.000000 0.000000 0.000000
# 4 0.000000 0.000000 0.000000 -1.799136 0.000000 0.000000
# 5 0.000000 0.000000 0.000000 0.000000 -0.010767 0.000000
# 6 0.000000 0.000000 0.000000 0.000000 0.000000 0.027088
#
#
# Mechanical properties :
#
#
# Convention : Reuss Voigt Hill
#
# Bulk Modulus (GPa) = 50.47159 57.21564 53.84361
# Shear Modulus (GPa) = -2.89101 5.32911 1.21905
#
# Velocity S-wave (km/s) = -1.06449 1.44526 0.69124
# Velocity P-wave (km/s) = 4.27454 5.02105 4.66276
#
# Compressibility (1/GPa) = 0.01981313
#
# Stress axis : x y z
#
# Youngs Moduli (GPa) = 70.51154 98.34171 112.22180
#
# Poissons Ratio (x) = -0.03804 0.52518
# Poissons Ratio (y) = -0.02727 0.27283
# Poissons Ratio (z) = 0.32999 0.23909
#
# Static dielectric constant tensor:
#      x y z
#    x 1.986030 0.000000 0.000000 
#    y 0.000000 2.042030 0.000000 
#    z 0.000000 0.000000 2.347520 
# 
# From -- ./inp_files/34133.got.cif
#   From: 2010.05.17/outbox.cif.g08.bks.cpg/sg72_18_cif.got.tgz:34133.got - 2010.06.03 17:03:01.
