data_PCOD9528343
_publ_section_title
;
Structure prediction by ZEFSAII (Michael W. Deem and Ramdas Pophale) SiO2 
 PCOD9528343
Probable space group: I B A M
;
_chemical_formula_sum "Si O2"
_cell_formula_units_Z 80
_cell_length_a 25.595504
_cell_length_b 11.232339
_cell_length_c 11.180284
_cell_angle_alpha 90.000000
_cell_angle_beta 90.000000
_cell_angle_gamma 90.000000
_cell_volume 3214.302333
_symmetry_space_group_name_H-M "I B A M"
_symmetry_group_IT_number 72
_symmetry_cell_setting 'orthorhombic'
loop_
_space_group_symop_operation_xyz
x,y,z
-x,-y,z
x,-y,1/2-z
-x,y,1/2-z
-x,-y,-z
x,y,-z
-x,y,1/2+z
x,-y,1/2+z
1/2+x,1/2+y,1/2+z
1/2-x,1/2-y,1/2+z
1/2+x,1/2-y,-z
1/2-x,1/2+y,-z
1/2-x,1/2-y,1/2-z
1/2+x,1/2+y,1/2-z
1/2-x,1/2+y,z
1/2+x,1/2-y,z
loop_
_atom_site_type_symbol
_atom_site_label
_atom_site_fract_x
_atom_site_fract_y
_atom_site_fract_z
Si Si1 0.572084 0.075672 0.131876
Si Si2 0.693262 0.349872 0.372720
Si Si3 0.468166 0.656686 0.868136
Si Si4 0.195931 0.574068 0.630473
Si Si5 0.651165 0.619043 0.629486
O O1 0.543446 0.201953 0.136397
O O2 0.634369 0.100512 0.134227
O O3 0.559868 0.000000 0.250000
O O4 0.561339 0.019979 0.000000
O O5 0.673398 0.300464 0.500000
O O6 0.755426 0.334633 0.368963
O O7 0.680316 0.491900 0.374091
O O8 0.667031 0.311859 0.249578
O O9 0.500000 0.626354 0.750000
O O10 0.410866 0.597562 0.864495
O O11 0.492033 0.632396 0.000000
O O12 0.205970 0.500000 0.750000
O O13 0.203147 0.511472 0.500000
O O14 0.661367 0.677514 0.500000
#
# Coordination Sequence:
#
# PCOD9528343 Si02
#       5
#    16  16  16  16  16
#     4   9  19  35  55  78 103 132 171 216 261 309
#     4   9  16  28  50  76 105 140 172 202 243 301
#     4  10  22  39  56  74 101 136 174 221 267 305
#     4   9  15  26  48  74 102 135 167 202 245 297
#     4   9  17  31  51  75 103 137 173 209 252 302
#
# _framework density 24.888759
#
# number of rings (size 3 to 8) (size 9 to 14) (size 15 to 20)
#    0.000    2.800    2.000    0.000    0.000    2.000 
#    0.000    5.000    0.000   10.800    0.000    0.000 
#    0.000    0.000    0.000    0.000    0.000    0.000 
#
# Total GULP energy -223316.307577 kJ/mol
# GULP energy per Si atom -5582.907689 kJ/mol
# Density = 2.483211 g / cm^3
# Si number density = 24.888759 Si / 1000 Ang^3
#
#
#
# Elastic Constant Matrix: (Units=GPa)
#
#
# Indices 1 2 3 4 5 6 
#
# 1 111.3455 5.2556 77.1993 0.0000 0.0000 0.0000
# 2 5.2556 61.1329 40.9024 0.0000 0.0000 0.0000
# 3 77.1993 40.9024 317.6924 0.0000 0.0000 0.0000
# 4 0.0000 0.0000 0.0000 6.5466 0.0000 0.0000
# 5 0.0000 0.0000 0.0000 0.0000 83.9373 0.0000
# 6 0.0000 0.0000 0.0000 0.0000 0.0000 24.0080
#
#
#
# Elastic Compliance Matrix: (Units=1/GPa)
#
#
# Indices 1 2 3 4 5 6 
#
# 1 0.010847 0.000909 -0.002753 0.000000 0.000000 0.000000
# 2 0.000909 0.017976 -0.002535 0.000000 0.000000 0.000000
# 3 -0.002753 -0.002535 0.004143 0.000000 0.000000 0.000000
# 4 0.000000 0.000000 0.000000 0.152751 0.000000 0.000000
# 5 0.000000 0.000000 0.000000 0.000000 0.011914 0.000000
# 6 0.000000 0.000000 0.000000 0.000000 0.000000 0.041653
#
#
# Mechanical properties :
#
#
# Convention : Reuss Voigt Hill
#
# Bulk Modulus (GPa) = 41.30845 81.87615 61.59230
# Shear Modulus (GPa) = 19.52287 47.35261 33.43774
#
# Velocity S-wave (km/s) = 2.80376 4.36658 3.66934
# Velocity P-wave (km/s) = 5.20718 7.64140 6.53856
#
# Compressibility (1/GPa) = 0.02420812
#
# Stress axis : x y z
#
# Youngs Moduli (GPa) = 92.19341 55.62981 241.36734
#
# Poissons Ratio (x) = -0.05059 0.66445
# Poissons Ratio (y) = -0.08384 0.61195
# Poissons Ratio (z) = 0.25379 0.14104
#
# Static dielectric constant tensor:
#      x y z
#    x 1.912870 0.000000 0.000000 
#    y 0.000000 2.019210 0.000000 
#    z 0.000000 0.000000 1.998800 
# 
# From -- ./inp_files/12775.got.cif
#   From: 2010.05.17/outbox.cif.g08.bks.cpg/sg72_7_cif.got.tgz:12775.got - 2010.06.03 17:03:01.
