data_PCOD9528527
_publ_section_title
;
Structure prediction by ZEFSAII (Michael W. Deem and Ramdas Pophale) SiO2 
 PCOD9528527
Probable space group: I B A M
;
_chemical_formula_sum "Si O2"
_cell_formula_units_Z 56
_cell_length_a 10.765125
_cell_length_b 14.828369
_cell_length_c 13.845434
_cell_angle_alpha 90.000000
_cell_angle_beta 90.000000
_cell_angle_gamma 90.000000
_cell_volume 2210.136188
_symmetry_space_group_name_H-M "I B A M"
_symmetry_group_IT_number 72
_symmetry_cell_setting 'orthorhombic'
loop_
_space_group_symop_operation_xyz
x,y,z
-x,-y,z
x,-y,1/2-z
-x,y,1/2-z
-x,-y,-z
x,y,-z
-x,y,1/2+z
x,-y,1/2+z
1/2+x,1/2+y,1/2+z
1/2-x,1/2-y,1/2+z
1/2+x,1/2-y,-z
1/2-x,1/2+y,-z
1/2-x,1/2-y,1/2-z
1/2+x,1/2+y,1/2-z
1/2-x,1/2+y,z
1/2+x,1/2-y,z
loop_
_atom_site_type_symbol
_atom_site_label
_atom_site_fract_x
_atom_site_fract_y
_atom_site_fract_z
Si Si1 0.648581 0.903930 0.888145
Si Si2 0.500000 0.621459 0.750000
Si Si3 0.751658 0.405702 0.327955
Si Si4 0.582983 0.770310 0.604795
O O1 0.700804 0.883284 0.780388
O O2 0.516712 0.851567 0.882079
O O3 0.673420 0.012111 0.877478
O O4 0.691239 0.883849 0.000000
O O5 0.393601 0.573164 0.686523
O O6 0.567113 0.690479 0.678419
O O7 0.781979 0.315782 0.386416
O O8 0.560708 0.732241 0.500000
#
# Coordination Sequence:
#
# PCOD9528527 Si02
#       4
#    16   8  16  16
#     4  10  22  41  69  98 129 178 234 284 340 407
#     4  12  26  43  63 102 142 184 224 286 362 415
#     4  11  23  43  66  95 139 178 225 290 343 418
#     4  11  23  41  69 100 135 180 233 288 343 413
#
# _framework density 25.337804999999999
#
# number of rings (size 3 to 8) (size 9 to 14) (size 15 to 20)
#    0.000    1.143    2.857    2.571    0.000   10.286 
#    0.000    1.429    0.000    0.000    0.000    0.000 
#    0.000    0.000    0.000    0.000    0.000    0.000 
#
# Total GULP energy -155981.574974 kJ/mol
# GULP energy per Si atom -5570.770535 kJ/mol
# Density = 2.528014 g / cm^3
# Si number density = 25.337805 Si / 1000 Ang^3
#
#
#
# Elastic Constant Matrix: (Units=GPa)
#
#
# Indices 1 2 3 4 5 6 
#
# 1 56.4991 13.0085 -8.0348 0.0000 0.0000 0.0000
# 2 13.0085 68.6847 4.8012 0.0000 0.0000 0.0000
# 3 -8.0348 4.8012 140.9827 0.0000 0.0000 0.0000
# 4 0.0000 0.0000 0.0000 -72.1395 0.0000 0.0000
# 5 0.0000 0.0000 0.0000 0.0000 1.0305 0.0000
# 6 0.0000 0.0000 0.0000 0.0000 0.0000 -9.8051
#
#
#
# Elastic Compliance Matrix: (Units=1/GPa)
#
#
# Indices 1 2 3 4 5 6 
#
# 1 0.018703 -0.003625 0.001189 0.000000 0.000000 0.000000
# 2 -0.003625 0.015297 -0.000728 0.000000 0.000000 0.000000
# 3 0.001189 -0.000728 0.007186 0.000000 0.000000 0.000000
# 4 0.000000 0.000000 0.000000 -0.013862 0.000000 0.000000
# 5 0.000000 0.000000 0.000000 0.000000 0.970427 0.000000
# 6 0.000000 0.000000 0.000000 0.000000 0.000000 -0.101988
#
#
# Mechanical properties :
#
#
# Convention : Reuss Voigt Hill
#
# Bulk Modulus (GPa) = 28.68743 31.74626 30.21684
# Shear Modulus (GPa) = 5.47220 0.90994 3.19107
#
# Velocity S-wave (km/s) = 1.47118 0.59992 1.12345
# Velocity P-wave (km/s) = 3.77259 3.61058 3.69247
#
# Compressibility (1/GPa) = 0.03485847
#
# Stress axis : x y z
#
# Youngs Moduli (GPa) = 53.46655 65.37326 139.16660
#
# Poissons Ratio (x) = 0.23701 -0.16552
# Poissons Ratio (y) = 0.19384 0.10125
# Poissons Ratio (z) = -0.06359 0.04756
#
# Static dielectric constant tensor:
#      x y z
#    x 2.171530 0.000000 0.000000 
#    y 0.000000 2.038870 0.000000 
#    z 0.000000 0.000000 1.944570 
# 
# From -- ./inp_files/18400.got.cif
#   From: 2010.05.17/outbox.cif.g08.bks.cpg/sg72_10_cif.got.tgz:18400.got - 2010.06.03 17:03:01.
