data_PCOD9528141
_publ_section_title
;
Structure prediction by ZEFSAII (Michael W. Deem and Ramdas Pophale) SiO2 
 PCOD9528141
Probable space group: I B A M
;
_chemical_formula_sum "Si O2"
_cell_formula_units_Z 96
_cell_length_a 17.817762
_cell_length_b 14.998814
_cell_length_c 14.759376
_cell_angle_alpha 90.000000
_cell_angle_beta 90.000000
_cell_angle_gamma 90.000000
_cell_volume 3944.373839
_symmetry_space_group_name_H-M "I B A M"
_symmetry_group_IT_number 72
_symmetry_cell_setting 'orthorhombic'
loop_
_space_group_symop_operation_xyz
x,y,z
-x,-y,z
x,-y,1/2-z
-x,y,1/2-z
-x,-y,-z
x,y,-z
-x,y,1/2+z
x,-y,1/2+z
1/2+x,1/2+y,1/2+z
1/2-x,1/2-y,1/2+z
1/2+x,1/2-y,-z
1/2-x,1/2+y,-z
1/2-x,1/2-y,1/2-z
1/2+x,1/2+y,1/2-z
1/2-x,1/2+y,z
1/2+x,1/2-y,z
loop_
_atom_site_type_symbol
_atom_site_label
_atom_site_fract_x
_atom_site_fract_y
_atom_site_fract_z
Si Si1 0.843414 0.400979 0.846920
Si Si2 0.121292 0.902159 0.271142
Si Si3 0.483454 0.359598 0.892674
Si Si4 0.279655 0.716617 0.097709
Si Si5 0.998664 0.351570 0.603129
Si Si6 0.670959 0.907057 0.362456
O O1 0.805128 0.317484 0.894386
O O2 0.932939 0.392462 0.841610
O O3 0.815713 0.492170 0.893023
O O4 0.816936 0.403192 0.744261
O O5 0.087126 0.870555 0.175026
O O6 0.174759 0.830639 0.320856
O O7 0.051752 0.911434 0.342729
O O8 0.154159 0.000000 0.250000
O O9 0.504627 0.254828 0.885851
O O10 0.473599 0.381015 0.000000
O O11 0.285083 0.822755 0.100197
O O12 0.311874 0.687329 0.000000
O O13 0.019806 0.371629 0.500000
O O14 0.916815 0.389031 0.620282
#
# Coordination Sequence:
#
# PCOD9528141 Si02
#       6
#    16  16  16  16  16  16
#     4  11  26  44  71 105 142 185 240 301 359 438
#     4  11  24  40  69  98 140 187 242 301 354 434
#     4  10  21  40  67 104 140 184 240 298 363 424
#     4  12  26  47  73 103 147 193 239 298 372 446
#     4  11  22  40  68 104 141 177 233 296 353 425
#     4  11  24  45  74 101 139 191 236 295 369 434
#
# _framework density 24.338463999999998
#
# number of rings (size 3 to 8) (size 9 to 14) (size 15 to 20)
#    0.000    1.000    1.667    5.000    4.667    6.667 
#    0.000    0.000    0.000    0.000    0.000    0.000 
#    0.000    0.000    0.000    0.000    0.000    0.000 
#
# Total GULP energy -268647.921662 kJ/mol
# GULP energy per Si atom -5596.831701 kJ/mol
# Density = 2.428307 g / cm^3
# Si number density = 24.338464 Si / 1000 Ang^3
#
#
#
# Elastic Constant Matrix: (Units=GPa)
#
#
# Indices 1 2 3 4 5 6 
#
# 1 55.3974 27.9927 -2.0459 0.0000 0.0000 0.0000
# 2 27.9927 118.9969 16.2299 0.0000 0.0000 0.0000
# 3 -2.0459 16.2299 129.3837 0.0000 0.0000 0.0000
# 4 0.0000 0.0000 0.0000 -108.4671 0.0000 0.0000
# 5 0.0000 0.0000 0.0000 0.0000 24.3726 0.0000
# 6 0.0000 0.0000 0.0000 0.0000 0.0000 11.8028
#
#
#
# Elastic Compliance Matrix: (Units=1/GPa)
#
#
# Indices 1 2 3 4 5 6 
#
# 1 0.020601 -0.004976 0.000950 0.000000 0.000000 0.000000
# 2 -0.004976 0.009752 -0.001302 0.000000 0.000000 0.000000
# 3 0.000950 -0.001302 0.007907 0.000000 0.000000 0.000000
# 4 0.000000 0.000000 0.000000 -0.009219 0.000000 0.000000
# 5 0.000000 0.000000 0.000000 0.000000 0.041030 0.000000
# 6 0.000000 0.000000 0.000000 0.000000 0.000000 0.084725
#
#
# Mechanical properties :
#
#
# Convention : Reuss Voigt Hill
#
# Bulk Modulus (GPa) = 36.22627 43.12569 39.67598
# Shear Modulus (GPa) = 28.62837 2.98176 15.80507
#
# Velocity S-wave (km/s) = 3.43339 1.10805 2.55107
# Velocity P-wave (km/s) = 5.53482 4.40394 5.00144
#
# Compressibility (1/GPa) = 0.02760428
#
# Stress axis : x y z
#
# Youngs Moduli (GPa) = 48.54203 102.54711 126.46564
#
# Poissons Ratio (x) = 0.51024 -0.12013
# Poissons Ratio (y) = 0.24153 0.16465
# Poissons Ratio (z) = -0.04611 0.13351
#
# Static dielectric constant tensor:
#      x y z
#    x 1.968940 0.000000 0.000000 
#    y 0.000000 1.930920 0.000000 
#    z 0.000000 0.000000 1.945160 
# 
# From -- ./inp_files/24111.got.cif
#   From: 2010.05.17/outbox.cif.g08.bks.cpg/sg72_13_cif.got.tgz:24111.got - 2010.06.03 17:03:01.
