data_PCOD9528303
_publ_section_title
;
Structure prediction by ZEFSAII (Michael W. Deem and Ramdas Pophale) SiO2 
 PCOD9528303
Probable space group: I B A M
;
_chemical_formula_sum "Si O2"
_cell_formula_units_Z 84
_cell_length_a 14.077546
_cell_length_b 20.580707
_cell_length_c 14.292671
_cell_angle_alpha 90.000000
_cell_angle_beta 90.000000
_cell_angle_gamma 90.000000
_cell_volume 4140.956247
_symmetry_space_group_name_H-M "I B A M"
_symmetry_group_IT_number 72
_symmetry_cell_setting 'orthorhombic'
loop_
_space_group_symop_operation_xyz
x,y,z
-x,-y,z
x,-y,1/2-z
-x,y,1/2-z
-x,-y,-z
x,y,-z
-x,y,1/2+z
x,-y,1/2+z
1/2+x,1/2+y,1/2+z
1/2-x,1/2-y,1/2+z
1/2+x,1/2-y,-z
1/2-x,1/2+y,-z
1/2-x,1/2-y,1/2-z
1/2+x,1/2+y,1/2-z
1/2-x,1/2+y,z
1/2+x,1/2-y,z
loop_
_atom_site_type_symbol
_atom_site_label
_atom_site_fract_x
_atom_site_fract_y
_atom_site_fract_z
Si Si1 0.013293 0.901265 0.390137
Si Si2 0.078981 0.231188 0.608361
Si Si3 0.296888 0.780655 0.891819
Si Si4 0.899942 0.358132 0.231818
Si Si5 0.000000 0.000000 0.250000
Si Si6 0.224589 0.872018 0.388558
O O1 0.992469 0.910725 0.500000
O O2 0.126269 0.910349 0.375050
O O3 0.990337 0.826984 0.366398
O O4 0.955285 0.949357 0.323808
O O5 0.063312 0.248577 0.500000
O O6 0.185407 0.202978 0.615444
O O7 0.072625 0.295154 0.669276
O O8 0.355837 0.827399 0.825673
O O9 0.297712 0.704049 0.865071
O O10 0.326960 0.784922 0.000000
O O11 0.814582 0.391880 0.174036
O O12 0.000000 0.393670 0.250000
O O13 0.247433 0.873056 0.500000
#
# Coordination Sequence:
#
# PCOD9528303 Si02
#       6
#    16  16  16  16   4  16
#     4  10  22  38  54  77 107 139 172 215 264 309
#     4   9  18  32  50  70 101 139 171 206 254 307
#     4   9  18  29  44  71 102 135 171 206 243 307
#     4  11  20  27  46  75 104 134 175 206 239 310
#     4  12  26  32  60  78 102 132 182 224 260 304
#     4   9  18  33  50  68 100 138 170 204 252 305
#
# _framework density 20.285170000000001
#
# number of rings (size 3 to 8) (size 9 to 14) (size 15 to 20)
#    0.000    2.286    0.000    5.429    6.667    3.048 
#    0.000    0.000    0.000    0.000    0.000    0.667 
#    0.000    3.048    0.000    0.000    0.000    0.000 
#
# Total GULP energy -234286.207606 kJ/mol
# GULP energy per Si atom -5578.243038 kJ/mol
# Density = 2.023900 g / cm^3
# Si number density = 20.285170 Si / 1000 Ang^3
#
#
#
# Elastic Constant Matrix: (Units=GPa)
#
#
# Indices 1 2 3 4 5 6 
#
# 1 103.1621 3.8833 23.0445 0.0000 0.0000 0.0000
# 2 3.8833 14.3031 8.6560 -0.0001 0.0000 0.0000
# 3 23.0445 8.6560 87.0924 -0.0001 0.0001 0.0000
# 4 0.0000 -0.0001 -0.0001 16.6910 0.0001 0.0000
# 5 0.0000 0.0000 0.0001 0.0001 10.3957 0.0000
# 6 0.0000 0.0000 0.0000 0.0000 0.0000 4.4934
#
#
#
# Elastic Compliance Matrix: (Units=1/GPa)
#
#
# Indices 1 2 3 4 5 6 
#
# 1 0.010322 -0.001223 -0.002610 0.000000 0.000000 0.000000
# 2 -0.001223 0.074534 -0.007084 0.000000 0.000000 0.000000
# 3 -0.002610 -0.007084 0.012877 0.000000 0.000000 0.000000
# 4 0.000000 0.000000 0.000000 0.059912 0.000000 0.000000
# 5 0.000000 0.000000 0.000000 0.000000 0.096194 0.000000
# 6 0.000000 0.000000 0.000000 0.000000 0.000000 0.222547
#
#
# Mechanical properties :
#
#
# Convention : Reuss Voigt Hill
#
# Bulk Modulus (GPa) = 13.17535 30.63613 21.90574
# Shear Modulus (GPa) = 9.55072 17.58095 13.56583
#
# Velocity S-wave (km/s) = 2.17220 2.94715 2.58884
# Velocity P-wave (km/s) = 3.57777 5.16880 4.44505
#
# Compressibility (1/GPa) = 0.07589931
#
# Stress axis : x y z
#
# Youngs Moduli (GPa) = 96.87582 13.41662 77.65970
#
# Poissons Ratio (x) = 0.01641 0.20267
# Poissons Ratio (y) = 0.11849 0.55016
# Poissons Ratio (z) = 0.25282 0.09505
#
# Static dielectric constant tensor:
#      x y z
#    x 1.823580 0.000000 0.000000 
#    y 0.000000 1.694560 0.000000 
#    z 0.000000 0.000000 1.751590 
# 
# From -- ./inp_files/21664.got.cif
#   From: 2010.05.17/outbox.cif.g08.bks.cpg/sg72_11_cif.got.tgz:21664.got - 2010.06.03 17:03:01.
