data_PCOD9528712
_publ_section_title
;
Structure prediction by ZEFSAII (Michael W. Deem and Ramdas Pophale) SiO2 
 PCOD9528712
Probable space group: I B A M
;
_chemical_formula_sum "Si O2"
_cell_formula_units_Z 72
_cell_length_a 8.034807
_cell_length_b 18.668387
_cell_length_c 24.909992
_cell_angle_alpha 90.000000
_cell_angle_beta 90.000000
_cell_angle_gamma 90.000000
_cell_volume 3736.421244
_symmetry_space_group_name_H-M "I B A M"
_symmetry_group_IT_number 72
_symmetry_cell_setting 'orthorhombic'
loop_
_space_group_symop_operation_xyz
x,y,z
-x,-y,z
x,-y,1/2-z
-x,y,1/2-z
-x,-y,-z
x,y,-z
-x,y,1/2+z
x,-y,1/2+z
1/2+x,1/2+y,1/2+z
1/2-x,1/2-y,1/2+z
1/2+x,1/2-y,-z
1/2-x,1/2+y,-z
1/2-x,1/2-y,1/2-z
1/2+x,1/2+y,1/2-z
1/2-x,1/2+y,z
1/2+x,1/2-y,z
loop_
_atom_site_type_symbol
_atom_site_label
_atom_site_fract_x
_atom_site_fract_y
_atom_site_fract_z
Si Si1 0.209909 0.277656 0.376560
Si Si2 0.415199 0.179345 0.308193
Si Si3 0.500000 0.500000 0.615906
Si Si4 0.188620 0.477767 0.188224
Si Si5 0.011992 0.153418 0.436322
O O1 0.309846 0.248762 0.324521
O O2 0.332505 0.320575 0.414861
O O3 0.058012 0.323328 0.353608
O O4 0.140161 0.207850 0.407470
O O5 0.500000 0.182534 0.250000
O O6 0.305429 0.108329 0.312521
O O7 0.663989 0.510008 0.652766
O O8 0.532460 0.428690 0.581517
O O9 0.208945 0.500000 0.250000
O O10 0.000000 0.500000 0.172130
O O11 0.025424 0.160457 0.500000
#
# Coordination Sequence:
#
# PCOD9528712 Si02
#       5
#    16  16   8  16  16
#     4  10  23  40  64  91 125 161 210 260 318 387
#     4  11  20  39  61  92 124 165 200 252 315 385
#     4  12  24  42  64  96 128 162 220 264 324 368
#     4  11  22  39  62  88 130 170 203 249 316 388
#     4  11  23  42  66  89 121 165 215 269 316 367
#
# _framework density 19.269774999999999
#
# number of rings (size 3 to 8) (size 9 to 14) (size 15 to 20)
#    0.000    1.111    4.444    3.333    0.000    0.000 
#    0.000    0.000    0.000    2.667    0.000    0.000 
#    0.000    0.000    0.000    0.000    0.000    0.000 
#
# Total GULP energy -201122.887025 kJ/mol
# GULP energy per Si atom -5586.746862 kJ/mol
# Density = 1.922592 g / cm^3
# Si number density = 19.269775 Si / 1000 Ang^3
#
#
#
# Elastic Constant Matrix: (Units=GPa)
#
#
# Indices 1 2 3 4 5 6 
#
# 1 56.6682 1.6372 20.7393 0.0000 0.0000 0.0000
# 2 1.6372 70.5816 29.1639 0.0000 0.0000 0.0000
# 3 20.7393 29.1639 97.0758 0.0000 0.0000 0.0000
# 4 0.0000 0.0000 0.0000 22.5079 0.0000 0.0000
# 5 0.0000 0.0000 0.0000 0.0000 14.4462 0.0000
# 6 0.0000 0.0000 0.0000 0.0000 0.0000 21.3609
#
#
#
# Elastic Compliance Matrix: (Units=1/GPa)
#
#
# Indices 1 2 3 4 5 6 
#
# 1 0.019269 0.001432 -0.004547 0.000000 0.000000 0.000000
# 2 0.001432 0.016282 -0.005197 0.000000 0.000000 0.000000
# 3 -0.004547 -0.005197 0.012834 0.000000 0.000000 0.000000
# 4 0.000000 0.000000 0.000000 0.044429 0.000000 0.000000
# 5 0.000000 0.000000 0.000000 0.000000 0.069222 0.000000
# 6 0.000000 0.000000 0.000000 0.000000 0.000000 0.046814
#
#
# Mechanical properties :
#
#
# Convention : Reuss Voigt Hill
#
# Bulk Modulus (GPa) = 31.48560 36.37849 33.93204
# Shear Modulus (GPa) = 21.18077 23.18202 22.18140
#
# Velocity S-wave (km/s) = 3.31897 3.47223 3.39646
# Velocity P-wave (km/s) = 5.57335 5.91563 5.74704
#
# Compressibility (1/GPa) = 0.03176055
#
# Stress axis : x y z
#
# Youngs Moduli (GPa) = 51.89616 61.41613 77.91760
#
# Poissons Ratio (x) = -0.08793 0.35428
# Poissons Ratio (y) = -0.07430 0.40498
# Poissons Ratio (z) = 0.23596 0.31921
#
# Static dielectric constant tensor:
#      x y z
#    x 1.695020 0.000000 0.000000 
#    y 0.000000 1.684320 0.000000 
#    z 0.000000 0.000000 1.628570 
# 
# From -- ./inp_files/39575.got.cif
#   From: 2010.05.17/outbox.cif.g08.bks.cpg/sg72_20_cif.got.tgz:39575.got - 2010.06.03 17:03:01.
