data_PCOD9528747
_publ_section_title
;
Structure prediction by ZEFSAII (Michael W. Deem and Ramdas Pophale) SiO2 
 PCOD9528747
Probable space group: I B A M
;
_chemical_formula_sum "Si O2"
_cell_formula_units_Z 96
_cell_length_a 14.138318
_cell_length_b 20.999384
_cell_length_c 17.126959
_cell_angle_alpha 90.000000
_cell_angle_beta 90.000000
_cell_angle_gamma 90.000000
_cell_volume 5084.925085
_symmetry_space_group_name_H-M "I B A M"
_symmetry_group_IT_number 72
_symmetry_cell_setting 'orthorhombic'
loop_
_space_group_symop_operation_xyz
x,y,z
-x,-y,z
x,-y,1/2-z
-x,y,1/2-z
-x,-y,-z
x,y,-z
-x,y,1/2+z
x,-y,1/2+z
1/2+x,1/2+y,1/2+z
1/2-x,1/2-y,1/2+z
1/2+x,1/2-y,-z
1/2-x,1/2+y,-z
1/2-x,1/2-y,1/2-z
1/2+x,1/2+y,1/2-z
1/2-x,1/2+y,z
1/2+x,1/2-y,z
loop_
_atom_site_type_symbol
_atom_site_label
_atom_site_fract_x
_atom_site_fract_y
_atom_site_fract_z
Si Si1 0.964708 0.430412 0.660110
Si Si2 0.751648 0.063846 0.801894
Si Si3 0.076929 0.314113 0.408527
Si Si4 0.048035 0.809801 0.406673
Si Si5 0.564059 0.439718 0.593470
Si Si6 0.736335 0.311669 0.195782
O O1 0.851499 0.427922 0.659750
O O2 0.000000 0.500000 0.634297
O O3 0.000000 0.422602 0.750000
O O4 0.011766 0.374524 0.610994
O O5 0.836091 0.058474 0.863463
O O6 0.770331 0.125086 0.748044
O O7 0.747947 0.000000 0.750000
O O8 0.099861 0.312412 0.500000
O O9 0.171626 0.317838 0.358383
O O10 0.018902 0.250200 0.388928
O O11 0.068215 0.809388 0.500000
O O12 0.143339 0.805415 0.357198
O O13 0.992160 0.874830 0.388381
O O14 0.500000 0.500000 0.616743
O O15 0.577869 0.442274 0.500000
O O16 0.750000 0.250000 0.250000
#
# Coordination Sequence:
#
# PCOD9528747 Si02
#       6
#    16  16  16  16  16  16
#     4  11  21  42  64  88 126 162 202 257 313 368
#     4  12  23  38  65  93 121 161 204 257 311 367
#     4  11  24  41  62  90 124 163 207 259 314 374
#     4  10  23  42  61  86 125 164 202 256 311 370
#     4  10  23  43  64  89 126 166 207 256 310 371
#     4  12  24  38  63  92 120 163 207 256 312 375
#
# _framework density 18.879335000000001
#
# number of rings (size 3 to 8) (size 9 to 14) (size 15 to 20)
#    0.000    1.000    3.333    3.500    0.000    4.667 
#    0.000    8.333    0.000    0.000    0.000    0.000 
#    0.000    0.000    0.000    0.000    0.000    0.000 
#
# Total GULP energy -268546.251036 kJ/mol
# GULP energy per Si atom -5594.713563 kJ/mol
# Density = 1.883636 g / cm^3
# Si number density = 18.879335 Si / 1000 Ang^3
#
#
#
# Elastic Constant Matrix: (Units=GPa)
#
#
# Indices 1 2 3 4 5 6 
#
# 1 175.9683 38.0621 72.7004 0.0000 0.0000 0.0000
# 2 38.0621 124.8892 39.2651 0.0000 0.0000 0.0000
# 3 72.7004 39.2651 48.5745 0.0000 0.0000 0.0000
# 4 0.0000 0.0000 0.0000 26.2907 0.0000 0.0000
# 5 0.0000 0.0000 0.0000 0.0000 33.3140 0.0000
# 6 0.0000 0.0000 0.0000 0.0000 0.0000 25.2185
#
#
#
# Elastic Compliance Matrix: (Units=1/GPa)
#
#
# Indices 1 2 3 4 5 6 
#
# 1 0.015985 0.003553 -0.026797 0.000000 0.000000 0.000000
# 2 0.003553 0.011525 -0.014634 0.000000 0.000000 0.000000
# 3 -0.026797 -0.014634 0.072524 0.000000 0.000000 0.000000
# 4 0.000000 0.000000 0.000000 0.038036 0.000000 0.000000
# 5 0.000000 0.000000 0.000000 0.000000 0.030017 0.000000
# 6 0.000000 0.000000 0.000000 0.000000 0.000000 0.039653
#
#
# Mechanical properties :
#
#
# Convention : Reuss Voigt Hill
#
# Bulk Modulus (GPa) = 41.19083 72.16524 56.67803
# Shear Modulus (GPa) = 17.14731 30.25827 23.70279
#
# Velocity S-wave (km/s) = 3.01700 4.00774 3.54713
# Velocity P-wave (km/s) = 5.83110 7.72809 6.84562
#
# Compressibility (1/GPa) = 0.02427725
#
# Stress axis : x y z
#
# Youngs Moduli (GPa) = 62.55692 86.76595 13.78861
#
# Poissons Ratio (x) = -0.30830 0.36950
# Poissons Ratio (y) = -0.22228 0.20179
# Poissons Ratio (z) = 1.67636 1.26977
#
# Static dielectric constant tensor:
#      x y z
#    x 1.611070 0.000000 0.000000 
#    y 0.000000 1.633340 0.000000 
#    z 0.000000 0.000000 1.625770 
# 
# From -- ./inp_files/21812.got.cif
#   From: 2010.05.17/outbox.cif.g08.bks.cpg/sg72_11_cif.got.tgz:21812.got - 2010.06.03 17:03:01.
