data_PCOD9528132
_publ_section_title
;
Structure prediction by ZEFSAII (Michael W. Deem and Ramdas Pophale) SiO2 
 PCOD9528132
Probable space group: I B A M
;
_chemical_formula_sum "Si O2"
_cell_formula_units_Z 88
_cell_length_a 15.058373
_cell_length_b 16.350998
_cell_length_c 14.402281
_cell_angle_alpha 90.000000
_cell_angle_beta 90.000000
_cell_angle_gamma 90.000000
_cell_volume 3546.121373
_symmetry_space_group_name_H-M "I B A M"
_symmetry_group_IT_number 72
_symmetry_cell_setting 'orthorhombic'
loop_
_space_group_symop_operation_xyz
x,y,z
-x,-y,z
x,-y,1/2-z
-x,y,1/2-z
-x,-y,-z
x,y,-z
-x,y,1/2+z
x,-y,1/2+z
1/2+x,1/2+y,1/2+z
1/2-x,1/2-y,1/2+z
1/2+x,1/2-y,-z
1/2-x,1/2+y,-z
1/2-x,1/2-y,1/2-z
1/2+x,1/2+y,1/2-z
1/2-x,1/2+y,z
1/2+x,1/2-y,z
loop_
_atom_site_type_symbol
_atom_site_label
_atom_site_fract_x
_atom_site_fract_y
_atom_site_fract_z
Si Si1 0.912484 0.620065 0.106304
Si Si2 0.000000 0.869499 0.250000
Si Si3 0.765765 0.253143 0.361906
Si Si4 0.164270 0.548837 0.885928
Si Si5 0.414122 0.783458 0.342530
Si Si6 0.860515 0.917804 0.105581
O O1 0.819403 0.666687 0.113175
O O2 0.895320 0.528641 0.139494
O O3 0.986113 0.682446 0.144186
O O4 0.940533 0.610561 0.000000
O O5 0.932326 0.804077 0.295185
O O6 0.942169 0.920129 0.176220
O O7 0.750000 0.250000 0.250000
O O8 0.668620 0.245925 0.404995
O O9 0.825174 0.176221 0.392164
O O10 0.130759 0.626139 0.825763
O O11 0.269299 0.534767 0.869236
O O12 0.155910 0.562915 0.000000
O O13 0.886258 0.938394 0.000000
#
# Coordination Sequence:
#
# PCOD9528132 Si02
#       6
#    16   8  16  16  16  16
#     4  11  22  39  64  98 135 177 225 281 349 421
#     4  12  22  38  69  97 138 176 240 292 334 420
#     4  11  21  38  61  92 135 177 225 282 341 414
#     4   9  21  39  63  96 138 178 224 284 352 420
#     4  11  21  36  62  95 135 173 220 285 342 402
#     4  10  21  40  65  96 136 185 232 288 353 411
#
# _framework density 24.815843999999998
#
# number of rings (size 3 to 8) (size 9 to 14) (size 15 to 20)
#    0.000    1.455    3.636    1.636    0.000    4.364 
#    0.000   10.909    0.000    4.364    0.000    3.818 
#    0.000    0.000    0.000    0.000    0.000    0.000 
#
# Total GULP energy -245071.748522 kJ/mol
# GULP energy per Si atom -5569.812466 kJ/mol
# Density = 2.475936 g / cm^3
# Si number density = 24.815844 Si / 1000 Ang^3
#
#
#
# Elastic Constant Matrix: (Units=GPa)
#
#
# Indices 1 2 3 4 5 6 
#
# 1 168.2841 48.7846 29.9887 0.0000 0.0000 0.0000
# 2 48.7846 67.5160 7.4122 0.0000 0.0000 0.0000
# 3 29.9887 7.4122 87.7146 0.0000 0.0000 0.0000
# 4 0.0000 0.0000 0.0000 13.6431 0.0000 0.0000
# 5 0.0000 0.0000 0.0000 0.0000 4.6152 0.0000
# 6 0.0000 0.0000 0.0000 0.0000 0.0000 24.8365
#
#
#
# Elastic Compliance Matrix: (Units=1/GPa)
#
#
# Indices 1 2 3 4 5 6 
#
# 1 0.007933 -0.005485 -0.002249 0.000000 0.000000 0.000000
# 2 -0.005485 0.018743 0.000292 0.000000 0.000000 0.000000
# 3 -0.002249 0.000292 0.012145 0.000000 0.000000 0.000000
# 4 0.000000 0.000000 0.000000 0.073297 0.000000 0.000000
# 5 0.000000 0.000000 0.000000 0.000000 0.216677 0.000000
# 6 0.000000 0.000000 0.000000 0.000000 0.000000 0.040263
#
#
# Mechanical properties :
#
#
# Convention : Reuss Voigt Hill
#
# Bulk Modulus (GPa) = 41.77858 55.09840 48.43849
# Shear Modulus (GPa) = 12.75765 24.44090 18.59927
#
# Velocity S-wave (km/s) = 2.26982 3.14170 2.74065
# Velocity P-wave (km/s) = 4.87252 5.95076 5.43843
#
# Compressibility (1/GPa) = 0.02393571
#
# Stress axis : x y z
#
# Youngs Moduli (GPa) = 126.05174 53.35371 82.33979
#
# Poissons Ratio (x) = 0.29267 0.18516
# Poissons Ratio (y) = 0.69144 -0.02401
# Poissons Ratio (z) = 0.28346 -0.01556
#
# Static dielectric constant tensor:
#      x y z
#    x 1.996540 0.000000 0.000000 
#    y 0.000000 1.896360 0.000000 
#    z 0.000000 0.000000 2.205370 
# 
# From -- ./inp_files/30558.got.cif
#   From: 2010.05.17/outbox.cif.g08.bks.cpg/sg72_16_cif.got.tgz:30558.got - 2010.06.03 17:03:01.
