data_PCOD9528814
_publ_section_title
;
Structure prediction by ZEFSAII (Michael W. Deem and Ramdas Pophale) SiO2 
 PCOD9528814
Probable space group: I B A M
;
_chemical_formula_sum "Si O2"
_cell_formula_units_Z 96
_cell_length_a 9.924952
_cell_length_b 17.692933
_cell_length_c 28.099327
_cell_angle_alpha 90.000000
_cell_angle_beta 90.000000
_cell_angle_gamma 90.000000
_cell_volume 4934.284273
_symmetry_space_group_name_H-M "I B A M"
_symmetry_group_IT_number 72
_symmetry_cell_setting 'orthorhombic'
loop_
_space_group_symop_operation_xyz
x,y,z
-x,-y,z
x,-y,1/2-z
-x,y,1/2-z
-x,-y,-z
x,y,-z
-x,y,1/2+z
x,-y,1/2+z
1/2+x,1/2+y,1/2+z
1/2-x,1/2-y,1/2+z
1/2+x,1/2-y,-z
1/2-x,1/2+y,-z
1/2-x,1/2-y,1/2-z
1/2+x,1/2+y,1/2-z
1/2-x,1/2+y,z
1/2+x,1/2-y,z
loop_
_atom_site_type_symbol
_atom_site_label
_atom_site_fract_x
_atom_site_fract_y
_atom_site_fract_z
Si Si1 0.749481 0.083090 0.823907
Si Si2 0.110591 0.934292 0.552636
Si Si3 0.032598 0.151683 0.853000
Si Si4 0.263838 0.165231 0.772534
Si Si5 0.986191 0.325602 0.848005
Si Si6 0.141886 0.461587 0.606867
O O1 0.900881 0.103237 0.839309
O O2 0.743934 0.101198 0.767918
O O3 0.636543 0.140578 0.845131
O O4 0.705399 0.002591 0.846100
O O5 0.107295 0.899615 0.500000
O O6 0.254667 0.970791 0.564300
O O7 0.086536 0.879619 0.597174
O O8 0.000000 0.000000 0.554369
O O9 0.988306 0.238039 0.859178
O O10 0.144632 0.152906 0.811110
O O11 0.250000 0.250000 0.750000
O O12 0.407885 0.163605 0.798311
O O13 0.896319 0.375081 0.883494
O O14 0.000000 0.500000 0.597533
#
# Coordination Sequence:
#
# PCOD9528814 Si02
#       6
#    16  16  16  16  16  16
#     4  11  23  36  61  95 134 172 223 257 324 402
#     4  11  24  46  71  94 126 169 219 284 349 395
#     4  12  22  40  66  95 130 174 227 269 331 397
#     4  12  22  36  62  96 134 184 215 263 327 399
#     4  11  22  39  62  90 135 176 216 267 324 386
#     4  10  23  44  65  95 129 174 216 275 331 395
#
# _framework density 19.455708999999999
#
# number of rings (size 3 to 8) (size 9 to 14) (size 15 to 20)
#    0.000    0.833    6.667    1.000    0.000    1.000 
#    0.000    3.333    0.000    1.000    0.000    0.000 
#    0.000    0.000    0.000    0.000    0.000    0.000 
#
# Total GULP energy -268082.894835 kJ/mol
# GULP energy per Si atom -5585.060309 kJ/mol
# Density = 1.941143 g / cm^3
# Si number density = 19.455709 Si / 1000 Ang^3
#
#
#
# Elastic Constant Matrix: (Units=GPa)
#
#
# Indices 1 2 3 4 5 6 
#
# 1 129.4448 24.6087 49.5748 0.0000 0.0000 0.0000
# 2 24.6087 61.6196 25.9925 0.0000 0.0000 0.0000
# 3 49.5748 25.9925 116.7829 0.0000 0.0000 0.0000
# 4 0.0000 0.0000 0.0000 17.6346 0.0000 0.0000
# 5 0.0000 0.0000 0.0000 0.0000 -4.0961 0.0000
# 6 0.0000 0.0000 0.0000 0.0000 0.0000 19.1303
#
#
#
# Elastic Compliance Matrix: (Units=1/GPa)
#
#
# Indices 1 2 3 4 5 6 
#
# 1 0.009515 -0.002313 -0.003524 0.000000 0.000000 0.000000
# 2 -0.002313 0.018473 -0.003129 0.000000 0.000000 0.000000
# 3 -0.003524 -0.003129 0.010755 0.000000 0.000000 0.000000
# 4 0.000000 0.000000 0.000000 0.056707 0.000000 0.000000
# 5 0.000000 0.000000 0.000000 0.000000 -0.244138 0.000000
# 6 0.000000 0.000000 0.000000 0.000000 0.000000 0.052273
#
#
# Mechanical properties :
#
#
# Convention : Reuss Voigt Hill
#
# Bulk Modulus (GPa) = 48.05634 56.46657 52.26146
# Shear Modulus (GPa) = -69.88640 20.37851 -24.75395
#
# Velocity S-wave (km/s) = -5.99990 3.23991 -3.57083
# Velocity P-wave (km/s) = 4.82124 6.56370 3.14943
#
# Compressibility (1/GPa) = 0.02080891
#
# Stress axis : x y z
#
# Youngs Moduli (GPa) = 105.09971 54.13443 92.97610
#
# Poissons Ratio (x) = 0.12523 0.32766
# Poissons Ratio (y) = 0.24313 0.29096
# Poissons Ratio (z) = 0.37039 0.16941
#
# Static dielectric constant tensor:
#      x y z
#    x 1.703510 0.000000 0.000000 
#    y 0.000000 1.684890 0.000000 
#    z 0.000000 0.000000 1.684410 
# 
# From -- ./inp_files/47352.got.cif
#   From: 2010.05.17/outbox.cif.g08.bks.cpg/sg72_24_cif.got.tgz:47352.got - 2010.06.03 17:03:01.
