data_PCOD9528983
_publ_section_title
;
Structure prediction by ZEFSAII (Michael W. Deem and Ramdas Pophale) SiO2 
 PCOD9528983
Probable space group: I B A M
;
_chemical_formula_sum "Si O2"
_cell_formula_units_Z 64
_cell_length_a 13.430349
_cell_length_b 11.946540
_cell_length_c 15.190824
_cell_angle_alpha 90.000000
_cell_angle_beta 90.000000
_cell_angle_gamma 90.000000
_cell_volume 2437.310009
_symmetry_space_group_name_H-M "I B A M"
_symmetry_group_IT_number 72
_symmetry_cell_setting 'orthorhombic'
loop_
_space_group_symop_operation_xyz
x,y,z
-x,-y,z
x,-y,1/2-z
-x,y,1/2-z
-x,-y,-z
x,y,-z
-x,y,1/2+z
x,-y,1/2+z
1/2+x,1/2+y,1/2+z
1/2-x,1/2-y,1/2+z
1/2+x,1/2-y,-z
1/2-x,1/2+y,-z
1/2-x,1/2-y,1/2-z
1/2+x,1/2+y,1/2-z
1/2-x,1/2+y,z
1/2+x,1/2-y,z
loop_
_atom_site_type_symbol
_atom_site_label
_atom_site_fract_x
_atom_site_fract_y
_atom_site_fract_z
Si Si1 0.483694 0.370861 0.645757
Si Si2 0.965353 0.347923 0.096874
Si Si3 0.321583 0.628639 0.000000
Si Si4 0.656978 0.951429 0.658374
Si Si5 0.222122 0.859468 0.000000
O O1 0.500000 0.500000 0.628844
O O2 0.500000 0.355713 0.750000
O O3 0.560940 0.282373 0.604133
O O4 0.384614 0.344254 0.589698
O O5 0.878504 0.435181 0.110828
O O6 0.053864 0.380539 0.164823
O O7 0.009112 0.367097 0.000000
O O8 0.322199 0.491724 0.000000
O O9 0.231653 0.719969 0.000000
O O10 0.725915 0.880871 0.595734
O O11 0.697941 0.000000 0.750000
#
# Coordination Sequence:
#
# PCOD9528983 Si02
#       5
#    16  16   8  16   8
#     4  11  23  42  71 103 137 175 240 308 360 412
#     4  11  18  34  67 101 138 172 236 309 356 405
#     4  12  27  49  74 103 149 199 236 285 363 429
#     4  11  20  37  65  99 132 180 237 298 353 406
#     4  12  26  48  65 100 151 197 236 283 349 466
#
# _framework density 26.258455999999999
#
# number of rings (size 3 to 8) (size 9 to 14) (size 15 to 20)
#    0.000    0.750    6.250    4.125    0.000    2.000 
#    4.500    1.250    0.000    0.000    0.000    0.000 
#    0.000    0.000    0.000    0.000    0.000    0.000 
#
# Total GULP energy -178197.745249 kJ/mol
# GULP energy per Si atom -5568.679539 kJ/mol
# Density = 2.619869 g / cm^3
# Si number density = 26.258456 Si / 1000 Ang^3
#
#
#
# Elastic Constant Matrix: (Units=GPa)
#
#
# Indices 1 2 3 4 5 6 
#
# 1 41.4605 24.4013 28.3341 0.0000 0.0000 0.0000
# 2 24.4013 221.2230 29.7024 0.0000 0.0000 0.0000
# 3 28.3341 29.7024 144.7213 0.0000 0.0000 0.0000
# 4 0.0000 0.0000 0.0000 41.3368 0.0000 0.0000
# 5 0.0000 0.0000 0.0000 0.0000 13.0987 0.0000
# 6 0.0000 0.0000 0.0000 0.0000 0.0000 38.5152
#
#
#
# Elastic Compliance Matrix: (Units=1/GPa)
#
#
# Indices 1 2 3 4 5 6 
#
# 1 0.029148 -0.002518 -0.005190 0.000000 0.000000 0.000000
# 2 -0.002518 0.004866 -0.000506 0.000000 0.000000 0.000000
# 3 -0.005190 -0.000506 0.008030 0.000000 0.000000 0.000000
# 4 0.000000 0.000000 0.000000 0.024191 0.000000 0.000000
# 5 0.000000 0.000000 0.000000 0.000000 0.076344 0.000000
# 6 0.000000 0.000000 0.000000 0.000000 0.000000 0.025964
#
#
# Mechanical properties :
#
#
# Convention : Reuss Voigt Hill
#
# Bulk Modulus (GPa) = 39.03773 63.58670 51.31221
# Shear Modulus (GPa) = 25.83856 40.25461 33.04659
#
# Velocity S-wave (km/s) = 3.14029 3.91962 3.55140
# Velocity P-wave (km/s) = 5.29600 6.68976 6.03326
#
# Compressibility (1/GPa) = 0.02561624
#
# Stress axis : x y z
#
# Youngs Moduli (GPa) = 34.30741 205.50814 124.53739
#
# Poissons Ratio (x) = 0.51753 0.64634
# Poissons Ratio (y) = 0.08640 0.06297
# Poissons Ratio (z) = 0.17805 0.10391
#
# Static dielectric constant tensor:
#      x y z
#    x 2.210940 0.000000 0.000000 
#    y 0.000000 2.092300 0.000000 
#    z 0.000000 0.000000 2.080050 
# 
# From -- ./inp_files/22840.got.cif
#   From: 2010.05.17/outbox.cif.g08.bks.cpg/sg72_12_cif.got.tgz:22840.got - 2010.06.03 17:03:01.
