data_PCOD9528891
_publ_section_title
;
Structure prediction by ZEFSAII (Michael W. Deem and Ramdas Pophale) SiO2 
 PCOD9528891
Probable space group: I B A M
;
_chemical_formula_sum "Si O2"
_cell_formula_units_Z 56
_cell_length_a 9.577420
_cell_length_b 8.933826
_cell_length_c 23.483488
_cell_angle_alpha 90.000000
_cell_angle_beta 90.000000
_cell_angle_gamma 90.000000
_cell_volume 2009.317773
_symmetry_space_group_name_H-M "I B A M"
_symmetry_group_IT_number 72
_symmetry_cell_setting 'orthorhombic'
loop_
_space_group_symop_operation_xyz
x,y,z
-x,-y,z
x,-y,1/2-z
-x,y,1/2-z
-x,-y,-z
x,y,-z
-x,y,1/2+z
x,-y,1/2+z
1/2+x,1/2+y,1/2+z
1/2-x,1/2-y,1/2+z
1/2+x,1/2-y,-z
1/2-x,1/2+y,-z
1/2-x,1/2-y,1/2-z
1/2+x,1/2+y,1/2-z
1/2-x,1/2+y,z
1/2+x,1/2-y,z
loop_
_atom_site_type_symbol
_atom_site_label
_atom_site_fract_x
_atom_site_fract_y
_atom_site_fract_z
Si Si1 0.895819 0.724311 0.823388
Si Si2 0.158385 0.330034 0.599513
Si Si3 0.706245 0.500000 0.250000
Si Si4 0.493788 0.324205 0.500000
Si Si5 0.661401 0.048743 0.000000
O O1 0.046159 0.669673 0.847384
O O2 0.800058 0.767008 0.876352
O O3 0.809690 0.597132 0.789959
O O4 0.882738 0.876963 0.785733
O O5 0.078284 0.225462 0.555353
O O6 0.200101 0.475054 0.560884
O O7 0.500000 0.500000 0.500000
O O8 0.351436 0.228015 0.500000
O O9 0.500000 0.000000 0.000000
#
# Coordination Sequence:
#
# PCOD9528891 Si02
#       5
#    16  16   8   8   8
#     4  11  26  45  70 100 138 189 232 301 336 416
#     4  10  24  45  72  99 145 183 228 278 366 403
#     4  10  28  44  68 102 136 180 254 286 348 398
#     4  10  24  42  70 118 134 178 226 294 336 446
#     4   8  20  42  70 106 134 188 226 274 340 464
#
# _framework density 27.870158
#
# number of rings (size 3 to 8) (size 9 to 14) (size 15 to 20)
#    0.000    2.286    0.000    0.000   16.000   11.429 
#    0.000    8.571    0.000    0.000    0.000    0.000 
#    0.000    0.000    0.000    0.000    0.000    0.000 
#
# Total GULP energy -156789.461377 kJ/mol
# GULP energy per Si atom -5599.623621 kJ/mol
# Density = 2.780672 g / cm^3
# Si number density = 27.870158 Si / 1000 Ang^3
#
#
#
# Elastic Constant Matrix: (Units=GPa)
#
#
# Indices 1 2 3 4 5 6 
#
# 1 135.8705 49.5976 53.9837 0.0000 0.0000 0.0000
# 2 49.5976 254.9711 98.5304 0.0000 0.0000 0.0000
# 3 53.9837 98.5304 171.2661 0.0000 0.0000 0.0000
# 4 0.0000 0.0000 0.0000 45.3071 0.0000 0.0000
# 5 0.0000 0.0000 0.0000 0.0000 35.4303 0.0000
# 6 0.0000 0.0000 0.0000 0.0000 0.0000 33.8224
#
#
#
# Elastic Compliance Matrix: (Units=1/GPa)
#
#
# Indices 1 2 3 4 5 6 
#
# 1 0.008538 -0.000798 -0.002232 0.000000 0.000000 0.000000
# 2 -0.000798 0.005118 -0.002693 0.000000 0.000000 0.000000
# 3 -0.002232 -0.002693 0.008092 0.000000 0.000000 0.000000
# 4 0.000000 0.000000 0.000000 0.022072 0.000000 0.000000
# 5 0.000000 0.000000 0.000000 0.000000 0.028224 0.000000
# 6 0.000000 0.000000 0.000000 0.000000 0.000000 0.029566
#
#
# Mechanical properties :
#
#
# Convention : Reuss Voigt Hill
#
# Bulk Modulus (GPa) = 97.07295 107.37010 102.22152
# Shear Modulus (GPa) = 42.92226 46.91170 44.91698
#
# Velocity S-wave (km/s) = 3.92864 4.10716 4.01889
# Velocity P-wave (km/s) = 7.44883 7.81668 7.63497
#
# Compressibility (1/GPa) = 0.01030153
#
# Stress axis : x y z
#
# Youngs Moduli (GPa) = 117.12101 195.39387 123.58630
#
# Poissons Ratio (x) = 0.15599 0.27584
# Poissons Ratio (y) = 0.09350 0.33278
# Poissons Ratio (z) = 0.26141 0.52614
#
# Static dielectric constant tensor:
#      x y z
#    x 2.209840 0.000000 0.000000 
#    y 0.000000 2.325440 0.000000 
#    z 0.000000 0.000000 2.187920 
# 
# From -- ./inp_files/38612.got.cif
#   From: 2010.05.17/outbox.cif.g08.bks.cpg/sg72_20_cif.got.tgz:38612.got - 2010.06.03 17:03:01.
