data_PCOD9528155
_publ_section_title
;
Structure prediction by ZEFSAII (Michael W. Deem and Ramdas Pophale) SiO2 
 PCOD9528155
Probable space group: I B A M
;
_chemical_formula_sum "Si O2"
_cell_formula_units_Z 52
_cell_length_a 5.144305
_cell_length_b 18.694719
_cell_length_c 19.917824
_cell_angle_alpha 90.000000
_cell_angle_beta 90.000000
_cell_angle_gamma 90.000000
_cell_volume 1915.523753
_symmetry_space_group_name_H-M "I B A M"
_symmetry_group_IT_number 72
_symmetry_cell_setting 'orthorhombic'
loop_
_space_group_symop_operation_xyz
x,y,z
-x,-y,z
x,-y,1/2-z
-x,y,1/2-z
-x,-y,-z
x,y,-z
-x,y,1/2+z
x,-y,1/2+z
1/2+x,1/2+y,1/2+z
1/2-x,1/2-y,1/2+z
1/2+x,1/2-y,-z
1/2-x,1/2+y,-z
1/2-x,1/2-y,1/2-z
1/2+x,1/2+y,1/2-z
1/2-x,1/2+y,z
1/2+x,1/2-y,z
loop_
_atom_site_type_symbol
_atom_site_label
_atom_site_fract_x
_atom_site_fract_y
_atom_site_fract_z
Si Si1 0.778827 0.701824 0.150355
Si Si2 0.137497 0.575781 0.147203
Si Si3 0.670176 0.792133 0.500000
Si Si4 0.251940 0.448917 0.500000
Si Si5 0.000000 0.000000 0.250000
O O1 0.990557 0.766463 0.163480
O O2 0.934012 0.633163 0.176437
O O3 0.766266 0.677026 0.072015
O O4 0.354951 0.554984 0.200389
O O5 0.000000 0.500000 0.139322
O O6 0.244180 0.592048 0.071889
O O7 0.867995 0.725763 0.500000
O O8 0.500000 0.500000 0.500000
O O9 0.000000 0.500000 0.500000
#
# Coordination Sequence:
#
# PCOD9528155 Si02
#       5
#    16  16   8   8   4
#     4  10  22  39  66  99 137 177 227 282 345 413
#     4  11  25  45  72 104 142 186 235 291 353 419
#     4   8  15  32  56  93 134 173 209 268 343 408
#     4  10  21  40  69 106 138 175 234 293 341 406
#     4  12  26  46  72  94 144 186 244 284 358 418
#
# _framework density 27.146622000000001
#
# number of rings (size 3 to 8) (size 9 to 14) (size 15 to 20)
#    0.000    1.846    1.538    1.385    4.308    0.000 
#    0.000    7.692    0.000    0.000    0.000    0.000 
#    0.000    0.000    0.000    0.000    0.000    0.000 
#
# Total GULP energy -145157.756720 kJ/mol
# GULP energy per Si atom -5582.990643 kJ/mol
# Density = 2.708483 g / cm^3
# Si number density = 27.146622 Si / 1000 Ang^3
#
#
#
# Elastic Constant Matrix: (Units=GPa)
#
#
# Indices 1 2 3 4 5 6 
#
# 1 161.1832 32.2824 28.2727 0.0000 0.0000 0.0000
# 2 32.2824 81.5746 1.9005 0.0000 0.0000 0.0000
# 3 28.2727 1.9005 169.6431 0.0000 0.0000 0.0000
# 4 0.0000 0.0000 0.0000 20.4659 0.0000 0.0000
# 5 0.0000 0.0000 0.0000 0.0000 53.3813 0.0000
# 6 0.0000 0.0000 0.0000 0.0000 0.0000 62.2257
#
#
#
# Elastic Compliance Matrix: (Units=1/GPa)
#
#
# Indices 1 2 3 4 5 6 
#
# 1 0.006947 -0.002723 -0.001127 0.000000 0.000000 0.000000
# 2 -0.002723 0.013329 0.000304 0.000000 0.000000 0.000000
# 3 -0.001127 0.000304 0.006079 0.000000 0.000000 0.000000
# 4 0.000000 0.000000 0.000000 0.048862 0.000000 0.000000
# 5 0.000000 0.000000 0.000000 0.000000 0.018733 0.000000
# 6 0.000000 0.000000 0.000000 0.000000 0.000000 0.016071
#
#
# Mechanical properties :
#
#
# Convention : Reuss Voigt Hill
#
# Bulk Modulus (GPa) = 51.91046 59.70135 55.80590
# Shear Modulus (GPa) = 40.47463 50.54428 45.50946
#
# Velocity S-wave (km/s) = 3.86549 4.31965 4.09887
# Velocity P-wave (km/s) = 6.25191 6.84976 6.55765
#
# Compressibility (1/GPa) = 0.01926394
#
# Stress axis : x y z
#
# Youngs Moduli (GPa) = 143.94202 75.02305 164.49545
#
# Poissons Ratio (x) = 0.20429 0.18544
# Poissons Ratio (y) = 0.39196 -0.05009
# Poissons Ratio (z) = 0.16227 -0.02284
#
# Static dielectric constant tensor:
#      x y z
#    x 2.158580 0.000000 0.000000 
#    y 0.000000 2.222360 0.000000 
#    z 0.000000 0.000000 2.464740 
# 
# From -- ./inp_files/34608.got.cif
#   From: 2010.05.17/outbox.cif.g08.bks.cpg/sg72_18_cif.got.tgz:34608.got - 2010.06.03 17:03:01.
