data_PCOD9528201
_publ_section_title
;
Structure prediction by ZEFSAII (Michael W. Deem and Ramdas Pophale) SiO2 
 PCOD9528201
Probable space group: I B A M
;
_chemical_formula_sum "Si O2"
_cell_formula_units_Z 112
_cell_length_a 14.747906
_cell_length_b 23.782102
_cell_length_c 14.362121
_cell_angle_alpha 90.000000
_cell_angle_beta 90.000000
_cell_angle_gamma 90.000000
_cell_volume 5037.315812
_symmetry_space_group_name_H-M "I B A M"
_symmetry_group_IT_number 72
_symmetry_cell_setting 'orthorhombic'
loop_
_space_group_symop_operation_xyz
x,y,z
-x,-y,z
x,-y,1/2-z
-x,y,1/2-z
-x,-y,-z
x,y,-z
-x,y,1/2+z
x,-y,1/2+z
1/2+x,1/2+y,1/2+z
1/2-x,1/2-y,1/2+z
1/2+x,1/2-y,-z
1/2-x,1/2+y,-z
1/2-x,1/2-y,1/2-z
1/2+x,1/2+y,1/2-z
1/2-x,1/2+y,z
1/2+x,1/2-y,z
loop_
_atom_site_type_symbol
_atom_site_label
_atom_site_fract_x
_atom_site_fract_y
_atom_site_fract_z
Si Si1 0.110496 0.863101 0.389611
Si Si2 0.737319 0.585520 0.889705
Si Si3 0.357208 0.745851 0.231290
Si Si4 0.042616 0.557712 0.147619
Si Si5 0.582110 0.846982 0.604434
Si Si6 0.752138 0.960155 0.113817
Si Si7 0.087065 0.828149 0.889579
O O1 0.124699 0.858035 0.500000
O O2 0.135065 0.805461 0.340273
O O3 0.172778 0.914696 0.357689
O O4 0.002279 0.865874 0.374743
O O5 0.839860 0.606095 0.880284
O O6 0.724675 0.523034 0.853193
O O7 0.671501 0.634423 0.856066
O O8 0.717314 0.582576 0.000000
O O9 0.250000 0.750000 0.250000
O O10 0.399872 0.800459 0.182409
O O11 0.409351 0.726991 0.325400
O O12 0.150772 0.554011 0.146802
O O13 0.000000 0.500000 0.104907
O O14 0.000000 0.559362 0.250000
O O15 0.009477 0.616795 0.105675
O O16 0.595234 0.822723 0.500000
O O17 0.748594 0.960817 0.000000
O O18 0.093262 0.814783 0.000000
#
# Coordination Sequence:
#
# PCOD9528201 Si02
#       7
#    16  16  16  16  16  16  16
#     4  10  24  45  67  97 139 181 229 285 341 405
#     4   9  18  36  68 103 133 173 224 273 340 410
#     4  12  25  42  70  97 132 180 233 289 343 409
#     4  11  24  39  63 100 144 182 224 280 347 418
#     4  11  23  42  67  99 137 181 228 281 346 411
#     4  10  21  41  70 102 136 179 229 281 339 413
#     4  10  22  44  70 100 139 182 228 286 348 411
#
# _framework density 22.234064
#
# number of rings (size 3 to 8) (size 9 to 14) (size 15 to 20)
#    0.000    1.571    2.857    1.286    2.000    2.857 
#    0.000    2.857    0.000    1.714    0.000    0.000 
#    0.000    0.000    0.000    0.000    0.000    0.000 
#
# Total GULP energy -313114.186917 kJ/mol
# GULP energy per Si atom -5591.324766 kJ/mol
# Density = 2.218346 g / cm^3
# Si number density = 22.234064 Si / 1000 Ang^3
#
#
#
# Elastic Constant Matrix: (Units=GPa)
#
#
# Indices 1 2 3 4 5 6 
#
# 1 69.6132 16.4123 21.6961 0.0000 0.0000 0.0000
# 2 16.4123 111.0338 49.5613 0.0000 0.0000 0.0000
# 3 21.6961 49.5613 98.4014 -0.0002 0.0000 0.0000
# 4 0.0000 0.0000 -0.0002 30.4087 0.0000 0.0000
# 5 0.0000 0.0000 0.0000 0.0000 22.2275 0.0000
# 6 0.0000 0.0000 0.0000 0.0000 0.0000 28.2124
#
#
#
# Elastic Compliance Matrix: (Units=1/GPa)
#
#
# Indices 1 2 3 4 5 6 
#
# 1 0.015509 -0.000988 -0.002922 0.000000 0.000000 0.000000
# 2 -0.000988 0.011681 -0.005666 0.000000 0.000000 0.000000
# 3 -0.002922 -0.005666 0.013660 0.000000 0.000000 0.000000
# 4 0.000000 0.000000 0.000000 0.032885 0.000000 0.000000
# 5 0.000000 0.000000 0.000000 0.000000 0.044989 0.000000
# 6 0.000000 0.000000 0.000000 0.000000 0.000000 0.035445
#
#
# Mechanical properties :
#
#
# Convention : Reuss Voigt Hill
#
# Bulk Modulus (GPa) = 46.08480 50.48754 48.28617
# Shear Modulus (GPa) = 27.69254 28.92831 28.31042
#
# Velocity S-wave (km/s) = 3.53299 3.61096 3.57219
# Velocity P-wave (km/s) = 6.11677 6.33577 6.22723
#
# Compressibility (1/GPa) = 0.02169913
#
# Stress axis : x y z
#
# Youngs Moduli (GPa) = 64.47997 85.60743 73.20547
#
# Poissons Ratio (x) = 0.08460 0.21388
# Poissons Ratio (y) = 0.06372 0.41475
# Poissons Ratio (z) = 0.18839 0.48501
#
# Static dielectric constant tensor:
#      x y z
#    x 1.930100 0.000000 0.000000 
#    y 0.000000 1.761330 0.000000 
#    z 0.000000 0.000000 1.914190 
# 
# From -- ./inp_files/22094.got.cif
#   From: 2010.05.17/outbox.cif.g08.bks.cpg/sg72_12_cif.got.tgz:22094.got - 2010.06.03 17:03:01.
