data_PCOD9528084
_publ_section_title
;
Structure prediction by ZEFSAII (Michael W. Deem and Ramdas Pophale) SiO2 
 PCOD9528084
Probable space group: I B A M
;
_chemical_formula_sum "Si O2"
_cell_formula_units_Z 72
_cell_length_a 17.160833
_cell_length_b 8.718700
_cell_length_c 22.671525
_cell_angle_alpha 90.000000
_cell_angle_beta 90.000000
_cell_angle_gamma 90.000000
_cell_volume 3392.117077
_symmetry_space_group_name_H-M "I B A M"
_symmetry_group_IT_number 72
_symmetry_cell_setting 'orthorhombic'
loop_
_space_group_symop_operation_xyz
x,y,z
-x,-y,z
x,-y,1/2-z
-x,y,1/2-z
-x,-y,-z
x,y,-z
-x,y,1/2+z
x,-y,1/2+z
1/2+x,1/2+y,1/2+z
1/2-x,1/2-y,1/2+z
1/2+x,1/2-y,-z
1/2-x,1/2+y,-z
1/2-x,1/2-y,1/2-z
1/2+x,1/2+y,1/2-z
1/2-x,1/2+y,z
1/2+x,1/2-y,z
loop_
_atom_site_type_symbol
_atom_site_label
_atom_site_fract_x
_atom_site_fract_y
_atom_site_fract_z
Si Si1 0.000000 0.000000 0.898998
Si Si2 0.121559 0.500000 0.250000
Si Si3 0.000000 0.500000 0.656329
Si Si4 0.594597 0.790890 0.566879
Si Si5 0.863303 0.056296 0.185782
Si Si6 0.786364 0.730777 0.836166
O O1 0.053036 0.123656 0.933053
O O2 0.063690 0.922716 0.856452
O O3 0.063782 0.428603 0.299227
O O4 0.169498 0.374383 0.212805
O O5 0.958084 0.383071 0.613036
O O6 0.596205 0.848867 0.500000
O O7 0.679171 0.801973 0.598541
O O8 0.809467 0.907715 0.170594
O O9 0.891361 0.000000 0.250000
O O10 0.803305 0.194854 0.175838
#
# Coordination Sequence:
#
# PCOD9528084 Si02
#       6
#     8   8   8  16  16  16
#     4  10  24  38  60  90 124 159 199 250 306 360
#     4   9  18  34  54  87 120 156 188 255 304 368
#     4   9  19  32  60  84 119 151 204 240 310 353
#     4  10  21  40  59  83 116 158 204 248 293 356
#     4  11  22  37  59  92 123 157 197 246 308 371
#     4  10  22  36  58  85 119 157 196 246 304 357
#
# _framework density 21.225683
#
# number of rings (size 3 to 8) (size 9 to 14) (size 15 to 20)
#    0.000    2.000    1.111    1.667    3.111    1.778 
#    0.000    5.556    0.000    0.000    0.000    0.000 
#    0.000    0.000    0.000    0.000    0.000    0.000 
#
# Total GULP energy -200722.138454 kJ/mol
# GULP energy per Si atom -5575.614957 kJ/mol
# Density = 2.117737 g / cm^3
# Si number density = 21.225683 Si / 1000 Ang^3
#
#
#
# Elastic Constant Matrix: (Units=GPa)
#
#
# Indices 1 2 3 4 5 6 
#
# 1 99.1518 6.6387 48.0697 0.0000 0.0000 0.0000
# 2 6.6387 28.0644 11.6025 0.0000 0.0000 0.0000
# 3 48.0697 11.6025 157.3237 0.0000 0.0000 0.0000
# 4 0.0000 0.0000 0.0000 20.8164 0.0000 0.0000
# 5 0.0000 0.0000 0.0000 0.0000 53.8714 0.0000
# 6 0.0000 0.0000 0.0000 0.0000 0.0000 19.6117
#
#
#
# Elastic Compliance Matrix: (Units=1/GPa)
#
#
# Indices 1 2 3 4 5 6 
#
# 1 0.011889 -0.001352 -0.003533 0.000000 0.000000 0.000000
# 2 -0.001352 0.036907 -0.002309 0.000000 0.000000 0.000000
# 3 -0.003533 -0.002309 0.007606 0.000000 0.000000 0.000000
# 4 0.000000 0.000000 0.000000 0.048039 0.000000 0.000000
# 5 0.000000 0.000000 0.000000 0.000000 0.018563 0.000000
# 6 0.000000 0.000000 0.000000 0.000000 0.000000 0.050990
#
#
# Mechanical properties :
#
#
# Convention : Reuss Voigt Hill
#
# Bulk Modulus (GPa) = 23.80127 46.35130 35.07629
# Shear Modulus (GPa) = 24.70539 33.40850 29.05694
#
# Velocity S-wave (km/s) = 3.41536 3.97163 3.70395
# Velocity P-wave (km/s) = 5.17597 6.55107 5.90369
#
# Compressibility (1/GPa) = 0.04201456
#
# Stress axis : x y z
#
# Youngs Moduli (GPa) = 84.11252 27.09546 131.47410
#
# Poissons Ratio (x) = 0.03663 0.46449
# Poissons Ratio (y) = 0.11370 0.30355
# Poissons Ratio (z) = 0.29716 0.06256
#
# Static dielectric constant tensor:
#      x y z
#    x 1.789510 0.000000 0.000000 
#    y 0.000000 1.892760 0.000000 
#    z 0.000000 0.000000 1.762020 
# 
# From -- ./inp_files/44712.got.cif
#   From: 2010.05.17/outbox.cif.g08.bks.cpg/sg72_23_cif.got.tgz:44712.got - 2010.06.03 17:03:01.
