data_PCOD9528250
_publ_section_title
;
Structure prediction by ZEFSAII (Michael W. Deem and Ramdas Pophale) SiO2 
 PCOD9528250
Probable space group: I B A M
;
_chemical_formula_sum "Si O2"
_cell_formula_units_Z 80
_cell_length_a 9.055035
_cell_length_b 17.609841
_cell_length_c 25.170487
_cell_angle_alpha 90.000000
_cell_angle_beta 90.000000
_cell_angle_gamma 90.000000
_cell_volume 4013.628634
_symmetry_space_group_name_H-M "I B A M"
_symmetry_group_IT_number 72
_symmetry_cell_setting 'orthorhombic'
loop_
_space_group_symop_operation_xyz
x,y,z
-x,-y,z
x,-y,1/2-z
-x,y,1/2-z
-x,-y,-z
x,y,-z
-x,y,1/2+z
x,-y,1/2+z
1/2+x,1/2+y,1/2+z
1/2-x,1/2-y,1/2+z
1/2+x,1/2-y,-z
1/2-x,1/2+y,-z
1/2-x,1/2-y,1/2-z
1/2+x,1/2+y,1/2-z
1/2-x,1/2+y,z
1/2+x,1/2-y,z
loop_
_atom_site_type_symbol
_atom_site_label
_atom_site_fract_x
_atom_site_fract_y
_atom_site_fract_z
Si Si1 0.031518 0.212700 0.133600
Si Si2 0.175626 0.508849 0.854872
Si Si3 0.721131 0.160644 0.162447
Si Si4 0.112541 0.071013 0.063092
Si Si5 0.662320 0.385199 0.772428
O O1 0.083188 0.299332 0.134787
O O2 0.060808 0.152566 0.086471
O O3 0.117180 0.177630 0.184396
O O4 0.859703 0.210041 0.145130
O O5 0.238700 0.424255 0.858280
O O6 0.235330 0.552601 0.906338
O O7 0.250117 0.550030 0.804203
O O8 0.000000 0.500000 0.849585
O O9 0.735418 0.149251 0.225998
O O10 0.127832 0.074457 0.000000
O O11 0.000000 0.000000 0.075379
O O12 0.500000 0.409829 0.750000
#
# Coordination Sequence:
#
# PCOD9528250 Si02
#       5
#    16  16  16  16  16
#     4  10  22  38  60  91 124 166 208 261 317 374
#     4  11  24  40  64  95 128 162 216 271 314 371
#     4  11  22  38  59  90 131 167 204 252 315 383
#     4  10  21  44  71  89 115 165 221 269 321 378
#     4   9  21  39  62  87 125 174 219 249 301 378
#
# _framework density 19.932088
#
# number of rings (size 3 to 8) (size 9 to 14) (size 15 to 20)
#    0.000    1.800    2.000    1.200    5.600    4.400 
#    0.000    2.000    0.000    0.000    0.000    0.000 
#    0.000    0.000    0.000    0.000    0.000    0.000 
#
# Total GULP energy -223172.542401 kJ/mol
# GULP energy per Si atom -5579.313560 kJ/mol
# Density = 1.988672 g / cm^3
# Si number density = 19.932088 Si / 1000 Ang^3
#
#
#
# Elastic Constant Matrix: (Units=GPa)
#
#
# Indices 1 2 3 4 5 6 
#
# 1 92.6760 13.8262 35.0690 0.0000 0.0000 0.0000
# 2 13.8262 38.1792 28.8630 0.0000 0.0000 0.0000
# 3 35.0690 28.8630 105.7438 0.0000 0.0000 0.0000
# 4 0.0000 0.0000 0.0000 10.9851 0.0000 0.0000
# 5 0.0000 0.0000 0.0000 0.0000 16.2382 0.0000
# 6 0.0000 0.0000 0.0000 0.0000 0.0000 31.1867
#
#
#
# Elastic Compliance Matrix: (Units=1/GPa)
#
#
# Indices 1 2 3 4 5 6 
#
# 1 0.012430 -0.001745 -0.003646 0.000000 0.000000 0.000000
# 2 -0.001745 0.033247 -0.008496 0.000000 0.000000 0.000000
# 3 -0.003646 -0.008496 0.012985 0.000000 0.000000 0.000000
# 4 0.000000 0.000000 0.000000 0.091033 0.000000 0.000000
# 5 0.000000 0.000000 0.000000 0.000000 0.061583 0.000000
# 6 0.000000 0.000000 0.000000 0.000000 0.000000 0.032065
#
#
# Mechanical properties :
#
#
# Convention : Reuss Voigt Hill
#
# Bulk Modulus (GPa) = 32.37510 43.56837 37.97174
# Shear Modulus (GPa) = 17.76742 22.27139 20.01941
#
# Velocity S-wave (km/s) = 2.98887 3.34633 3.17263
# Velocity P-wave (km/s) = 5.30934 6.06930 5.70199
#
# Compressibility (1/GPa) = 0.03088793
#
# Stress axis : x y z
#
# Youngs Moduli (GPa) = 80.44848 30.07768 77.01173
#
# Poissons Ratio (x) = 0.05249 0.28079
# Poissons Ratio (y) = 0.14039 0.65430
# Poissons Ratio (z) = 0.29332 0.25554
#
# Static dielectric constant tensor:
#      x y z
#    x 1.723840 0.000000 0.000000 
#    y 0.000000 1.750510 0.000000 
#    z 0.000000 0.000000 1.684680 
# 
# From -- ./inp_files/47132.got.cif
#   From: 2010.05.17/outbox.cif.g08.bks.cpg/sg72_24_cif.got.tgz:47132.got - 2010.06.03 17:03:01.
