data_PCOD9528835
_publ_section_title
;
Structure prediction by ZEFSAII (Michael W. Deem and Ramdas Pophale) SiO2 
 PCOD9528835
Probable space group: I B A M
;
_chemical_formula_sum "Si O2"
_cell_formula_units_Z 72
_cell_length_a 27.512886
_cell_length_b 13.239825
_cell_length_c 9.981517
_cell_angle_alpha 90.000000
_cell_angle_beta 90.000000
_cell_angle_gamma 90.000000
_cell_volume 3635.925234
_symmetry_space_group_name_H-M "I B A M"
_symmetry_group_IT_number 72
_symmetry_cell_setting 'orthorhombic'
loop_
_space_group_symop_operation_xyz
x,y,z
-x,-y,z
x,-y,1/2-z
-x,y,1/2-z
-x,-y,-z
x,y,-z
-x,y,1/2+z
x,-y,1/2+z
1/2+x,1/2+y,1/2+z
1/2-x,1/2-y,1/2+z
1/2+x,1/2-y,-z
1/2-x,1/2+y,-z
1/2-x,1/2-y,1/2-z
1/2+x,1/2+y,1/2-z
1/2-x,1/2+y,z
1/2+x,1/2-y,z
loop_
_atom_site_type_symbol
_atom_site_label
_atom_site_fract_x
_atom_site_fract_y
_atom_site_fract_z
Si Si1 0.681178 0.599764 0.500000
Si Si2 0.387588 0.316877 0.720559
Si Si3 0.721611 0.194281 0.500000
Si Si4 0.250627 0.405539 0.000000
Si Si5 0.959927 0.865118 0.000000
Si Si6 0.327653 0.111314 0.262819
Si Si7 0.572158 0.398018 0.500000
O O1 0.649135 0.613220 0.633200
O O2 0.720244 0.689551 0.500000
O O3 0.715336 0.502922 0.500000
O O4 0.436476 0.317443 0.632455
O O5 0.364219 0.204838 0.716855
O O6 0.399622 0.361528 0.866648
O O7 0.711983 0.312516 0.500000
O O8 0.700164 0.140239 0.372227
O O9 0.214526 0.399444 0.873725
O O10 0.017533 0.853823 0.000000
O O11 0.940844 0.982177 0.000000
O O12 0.351041 0.000000 0.250000
#
# Coordination Sequence:
#
# PCOD9528835 Si02
#       7
#     8  16   8   8   8  16   8
#     4  11  24  43  59  91 131 171 217 267 304 364
#     4  11  24  42  64  99 128 161 219 267 310 381
#     4  12  24  41  57  86 122 176 223 262 306 355
#     4  12  24  41  61  82 124 178 225 264 309 357
#     4  10  23  45  71  97 132 162 193 258 348 401
#     4  12  24  42  62  85 125 180 218 256 312 365
#     4  11  23  44  72  99 127 162 200 260 341 402
#
# _framework density 19.802388000000001
#
# number of rings (size 3 to 8) (size 9 to 14) (size 15 to 20)
#    0.000    0.667    4.444    3.333    0.000    7.111 
#    4.000    0.000    0.000    4.000    0.000    0.000 
#    0.000    0.000    0.000    0.000    0.000    0.000 
#
# Total GULP energy -201235.557451 kJ/mol
# GULP energy per Si atom -5589.876596 kJ/mol
# Density = 1.975732 g / cm^3
# Si number density = 19.802388 Si / 1000 Ang^3
#
#
#
# Elastic Constant Matrix: (Units=GPa)
#
#
# Indices 1 2 3 4 5 6 
#
# 1 127.4152 59.4678 72.5160 0.0000 0.0000 0.0000
# 2 59.4678 145.5502 65.0773 0.0000 0.0000 0.0000
# 3 72.5160 65.0773 182.6534 0.0000 0.0000 0.0000
# 4 0.0000 0.0000 0.0000 18.5301 0.0000 0.0000
# 5 0.0000 0.0000 0.0000 0.0000 10.4925 0.0000
# 6 0.0000 0.0000 0.0000 0.0000 0.0000 31.0254
#
#
#
# Elastic Compliance Matrix: (Units=1/GPa)
#
#
# Indices 1 2 3 4 5 6 
#
# 1 0.011188 -0.003075 -0.003346 0.000000 0.000000 0.000000
# 2 -0.003075 0.009017 -0.001992 0.000000 0.000000 0.000000
# 3 -0.003346 -0.001992 0.007513 0.000000 0.000000 0.000000
# 4 0.000000 0.000000 0.000000 0.053966 0.000000 0.000000
# 5 0.000000 0.000000 0.000000 0.000000 0.095306 0.000000
# 6 0.000000 0.000000 0.000000 0.000000 0.000000 0.032232
#
#
# Mechanical properties :
#
#
# Convention : Reuss Voigt Hill
#
# Bulk Modulus (GPa) = 91.80935 94.41567 93.11251
# Shear Modulus (GPa) = 21.76945 29.24678 25.50811
#
# Velocity S-wave (km/s) = 3.31922 3.84726 3.59295
# Velocity P-wave (km/s) = 7.82004 8.21691 8.02093
#
# Compressibility (1/GPa) = 0.01089214
#
# Stress axis : x y z
#
# Youngs Moduli (GPa) = 89.38189 110.89566 133.10128
#
# Poissons Ratio (x) = 0.34100 0.44538
# Poissons Ratio (y) = 0.27485 0.26514
# Poissons Ratio (z) = 0.29909 0.22091
#
# Static dielectric constant tensor:
#      x y z
#    x 1.696360 0.000000 0.000000 
#    y 0.000000 1.766590 0.000000 
#    z 0.000000 0.000000 1.700060 
# 
# From -- ./inp_files/8979.got.cif
#   From: 2010.05.17/outbox.cif.g08.bks.cpg/sg72_5_cif.got.tgz:8979.got - 2010.06.03 17:03:01.
