data_PCOD9528142
_publ_section_title
;
Structure prediction by ZEFSAII (Michael W. Deem and Ramdas Pophale) SiO2 
 PCOD9528142
Probable space group: I B A M
;
_chemical_formula_sum "Si O2"
_cell_formula_units_Z 108
_cell_length_a 18.502374
_cell_length_b 16.660378
_cell_length_c 14.288831
_cell_angle_alpha 90.000000
_cell_angle_beta 90.000000
_cell_angle_gamma 90.000000
_cell_volume 4404.625672
_symmetry_space_group_name_H-M "I B A M"
_symmetry_group_IT_number 72
_symmetry_cell_setting 'orthorhombic'
loop_
_space_group_symop_operation_xyz
x,y,z
-x,-y,z
x,-y,1/2-z
-x,y,1/2-z
-x,-y,-z
x,y,-z
-x,y,1/2+z
x,-y,1/2+z
1/2+x,1/2+y,1/2+z
1/2-x,1/2-y,1/2+z
1/2+x,1/2-y,-z
1/2-x,1/2+y,-z
1/2-x,1/2-y,1/2-z
1/2+x,1/2+y,1/2-z
1/2-x,1/2+y,z
1/2+x,1/2-y,z
loop_
_atom_site_type_symbol
_atom_site_label
_atom_site_fract_x
_atom_site_fract_y
_atom_site_fract_z
Si Si1 0.627122 0.932948 0.175485
Si Si2 0.982734 0.305174 0.109632
Si Si3 0.000000 0.000000 0.250000
Si Si4 0.037613 0.128435 0.391535
Si Si5 0.228894 0.997950 0.138610
Si Si6 0.644743 0.191704 0.176260
Si Si7 0.635093 0.649197 0.603637
Si Si8 0.232825 0.623294 0.500000
O O1 0.564762 0.884686 0.123564
O O2 0.688138 0.975589 0.113009
O O3 0.665369 0.863068 0.236591
O O4 0.600756 0.000000 0.250000
O O5 0.941273 0.220902 0.132846
O O6 0.057265 0.312820 0.166108
O O7 0.000727 0.297105 0.000000
O O8 0.950626 0.942162 0.316120
O O9 0.055741 0.109978 0.500000
O O10 0.949974 0.135438 0.387293
O O11 0.175672 0.066657 0.107946
O O12 0.227911 0.000000 0.250000
O O13 0.215250 0.917104 0.082872
O O14 0.662263 0.285708 0.177790
O O15 0.679757 0.156166 0.083371
O O16 0.647914 0.683501 0.500000
#
# Coordination Sequence:
#
# PCOD9528142 Si02
#       8
#    16  16   4  16  16  16  16   8
#     4  11  24  39  57  96 130 166 205 264 310 372
#     4  10  22  39  63  89 129 170 209 257 315 387
#     4  12  22  36  72  94 118 168 198 276 338 374
#     4   9  22  41  62  97 126 160 213 266 319 386
#     4  11  24  41  61  91 128 162 209 265 306 370
#     4  11  21  40  62  88 122 166 212 252 310 382
#     4  10  21  40  67  86 117 168 211 250 311 377
#     4  12  20  42  63  88 128 162 208 260 317 360
#
# _framework density 24.519677000000001
#
# number of rings (size 3 to 8) (size 9 to 14) (size 15 to 20)
#    0.000    1.481    5.185    1.556    6.222    1.778 
#    0.000    1.481    0.000    0.000    0.000    0.000 
#    0.000    0.000    0.000    0.000    0.000    0.000 
#
# Total GULP energy -300949.039054 kJ/mol
# GULP energy per Si atom -5573.130353 kJ/mol
# Density = 2.446387 g / cm^3
# Si number density = 24.519677 Si / 1000 Ang^3
#
#
#
# Elastic Constant Matrix: (Units=GPa)
#
#
# Indices 1 2 3 4 5 6 
#
# 1 39.3083 26.7538 -0.5526 0.0000 0.0000 0.0000
# 2 26.7538 89.5100 14.2042 0.0000 0.0000 0.0000
# 3 -0.5526 14.2042 97.6018 0.0000 0.0000 0.0000
# 4 0.0000 0.0000 0.0000 25.4239 0.0000 0.0000
# 5 0.0000 0.0000 0.0000 0.0000 18.0789 0.0000
# 6 0.0000 0.0000 0.0000 0.0000 0.0000 24.5559
#
#
#
# Elastic Compliance Matrix: (Units=1/GPa)
#
#
# Indices 1 2 3 4 5 6 
#
# 1 0.032185 -0.009877 0.001620 0.000000 0.000000 0.000000
# 2 -0.009877 0.014467 -0.002161 0.000000 0.000000 0.000000
# 3 0.001620 -0.002161 0.010569 0.000000 0.000000 0.000000
# 4 0.000000 0.000000 0.000000 0.039333 0.000000 0.000000
# 5 0.000000 0.000000 0.000000 0.000000 0.055313 0.000000
# 6 0.000000 0.000000 0.000000 0.000000 0.000000 0.040723
#
#
# Mechanical properties :
#
#
# Convention : Reuss Voigt Hill
#
# Bulk Modulus (GPa) = 27.48432 34.13675 30.81053
# Shear Modulus (GPa) = 22.16743 26.01274 24.09008
#
# Velocity S-wave (km/s) = 3.01003 3.26067 3.13785
# Velocity P-wave (km/s) = 4.82844 5.30362 5.07160
#
# Compressibility (1/GPa) = 0.03638439
#
# Stress axis : x y z
#
# Youngs Moduli (GPa) = 31.07034 69.12278 94.61248
#
# Poissons Ratio (x) = 0.68271 -0.15324
# Poissons Ratio (y) = 0.30688 0.20449
# Poissons Ratio (z) = -0.05032 0.14940
#
# Static dielectric constant tensor:
#      x y z
#    x 1.964340 0.000000 0.000000 
#    y 0.000000 2.032010 0.000000 
#    z 0.000000 0.000000 1.921450 
# 
# From -- ./inp_files/25265.got.cif
#   From: 2010.05.17/outbox.cif.g08.bks.cpg/sg72_13_cif.got.tgz:25265.got - 2010.06.03 17:03:01.
