data_PCOD9528953
_publ_section_title
;
Structure prediction by ZEFSAII (Michael W. Deem and Ramdas Pophale) SiO2 
 PCOD9528953
Probable space group: I B A M
;
_chemical_formula_sum "Si O2"
_cell_formula_units_Z 64
_cell_length_a 9.321382
_cell_length_b 14.294290
_cell_length_c 18.599095
_cell_angle_alpha 90.000000
_cell_angle_beta 90.000000
_cell_angle_gamma 90.000000
_cell_volume 2478.190613
_symmetry_space_group_name_H-M "I B A M"
_symmetry_group_IT_number 72
_symmetry_cell_setting 'orthorhombic'
loop_
_space_group_symop_operation_xyz
x,y,z
-x,-y,z
x,-y,1/2-z
-x,y,1/2-z
-x,-y,-z
x,y,-z
-x,y,1/2+z
x,-y,1/2+z
1/2+x,1/2+y,1/2+z
1/2-x,1/2-y,1/2+z
1/2+x,1/2-y,-z
1/2-x,1/2+y,-z
1/2-x,1/2-y,1/2-z
1/2+x,1/2+y,1/2-z
1/2-x,1/2+y,z
1/2+x,1/2-y,z
loop_
_atom_site_type_symbol
_atom_site_label
_atom_site_fract_x
_atom_site_fract_y
_atom_site_fract_z
Si Si1 0.382626 0.763193 0.500000
Si Si2 0.120769 0.860973 0.500000
Si Si3 0.863719 0.100561 0.339187
Si Si4 0.067879 0.402469 0.081353
Si Si5 0.316999 0.620083 0.688115
O O1 0.212938 0.765209 0.500000
O O2 0.454022 0.662739 0.500000
O O3 0.446032 0.824344 0.566236
O O4 0.162914 0.902921 0.424286
O O5 0.778950 0.143887 0.271027
O O6 0.020405 0.149751 0.330978
O O7 0.846047 0.991351 0.320783
O O8 0.190128 0.361225 0.132620
O O9 0.000000 0.500000 0.110792
O O10 0.119765 0.428200 0.000000
#
# Coordination Sequence:
#
# PCOD9528953 Si02
#       5
#     8   8  16  16  16
#     4  10  25  38  58  89 125 157 219 247 294 384
#     4  12  24  41  60  86 127 173 199 250 304 377
#     4   9  21  34  62  92 127 151 204 252 307 374
#     4   9  19  36  64  86 121 152 209 270 304 351
#     4   9  18  38  60  95 118 153 202 261 309 357
#
# _framework density 25.825292999999999
#
# number of rings (size 3 to 8) (size 9 to 14) (size 15 to 20)
#    0.750    1.750    0.000    3.000    7.000    1.000 
#    0.000   10.000    0.000    0.000    0.000    0.000 
#    0.000    0.000    0.000    0.000    0.000    0.000 
#
# Total GULP energy -178219.340288 kJ/mol
# GULP energy per Si atom -5569.354384 kJ/mol
# Density = 2.576651 g / cm^3
# Si number density = 25.825293 Si / 1000 Ang^3
#
#
#
# Elastic Constant Matrix: (Units=GPa)
#
#
# Indices 1 2 3 4 5 6 
#
# 1 58.3321 -17.9840 26.6192 0.0000 0.0000 0.0000
# 2 -17.9840 47.0011 20.3828 0.0000 0.0000 0.0000
# 3 26.6192 20.3828 240.4467 0.0000 0.0000 0.0000
# 4 0.0000 0.0000 0.0000 8.0449 0.0000 0.0000
# 5 0.0000 0.0000 0.0000 0.0000 8.8892 0.0000
# 6 0.0000 0.0000 0.0000 0.0000 0.0000 22.0603
#
#
#
# Elastic Compliance Matrix: (Units=1/GPa)
#
#
# Indices 1 2 3 4 5 6 
#
# 1 0.021581 0.009649 -0.003207 0.000000 0.000000 0.000000
# 2 0.009649 0.026402 -0.003306 0.000000 0.000000 0.000000
# 3 -0.003207 -0.003306 0.004794 0.000000 0.000000 0.000000
# 4 0.000000 0.000000 0.000000 0.124302 0.000000 0.000000
# 5 0.000000 0.000000 0.000000 0.000000 0.112496 0.000000
# 6 0.000000 0.000000 0.000000 0.000000 0.000000 0.045330
#
#
# Mechanical properties :
#
#
# Convention : Reuss Voigt Hill
#
# Bulk Modulus (GPa) = 16.93546 44.86844 30.90195
# Shear Modulus (GPa) = 14.35468 28.91634 21.63551
#
# Velocity S-wave (km/s) = 2.36018 3.34981 2.89756
# Velocity P-wave (km/s) = 3.74155 5.68974 4.81520
#
# Compressibility (1/GPa) = 0.05904769
#
# Stress axis : x y z
#
# Youngs Moduli (GPa) = 46.33615 37.87631 208.58315
#
# Poissons Ratio (x) = -0.36545 0.66895
# Poissons Ratio (y) = -0.44708 0.68963
# Poissons Ratio (z) = 0.14861 0.12523
#
# Static dielectric constant tensor:
#      x y z
#    x 2.083410 0.000000 0.000000 
#    y 0.000000 2.062720 0.000000 
#    z 0.000000 0.000000 2.130060 
# 
# From -- ./inp_files/28981.got.cif
#   From: 2010.05.17/outbox.cif.g08.bks.cpg/sg72_15_cif.got.tgz:28981.got - 2010.06.03 17:03:01.
