data_PCOD9528338
_publ_section_title
;
Structure prediction by ZEFSAII (Michael W. Deem and Ramdas Pophale) SiO2 
 PCOD9528338
Probable space group: I B A M
;
_chemical_formula_sum "Si O2"
_cell_formula_units_Z 56
_cell_length_a 11.280677
_cell_length_b 8.998376
_cell_length_c 24.444523
_cell_angle_alpha 90.000000
_cell_angle_beta 90.000000
_cell_angle_gamma 90.000000
_cell_volume 2481.309096
_symmetry_space_group_name_H-M "I B A M"
_symmetry_group_IT_number 72
_symmetry_cell_setting 'orthorhombic'
loop_
_space_group_symop_operation_xyz
x,y,z
-x,-y,z
x,-y,1/2-z
-x,y,1/2-z
-x,-y,-z
x,y,-z
-x,y,1/2+z
x,-y,1/2+z
1/2+x,1/2+y,1/2+z
1/2-x,1/2-y,1/2+z
1/2+x,1/2-y,-z
1/2-x,1/2+y,-z
1/2-x,1/2-y,1/2-z
1/2+x,1/2+y,1/2-z
1/2-x,1/2+y,z
1/2+x,1/2-y,z
loop_
_atom_site_type_symbol
_atom_site_label
_atom_site_fract_x
_atom_site_fract_y
_atom_site_fract_z
Si Si1 0.500000 0.000000 0.250000
Si Si2 0.500000 0.500000 0.750000
Si Si3 0.845023 0.249289 0.700552
Si Si4 0.758635 0.524634 0.500000
Si Si5 0.070702 0.798387 0.000000
Si Si6 0.911892 0.635586 0.090212
O O1 0.420394 0.893461 0.214747
O O2 0.580197 0.397689 0.788093
O O3 0.750000 0.250000 0.750000
O O4 0.835395 0.273910 0.635629
O O5 0.809560 0.692531 0.500000
O O6 0.623747 0.465555 0.500000
O O7 0.819468 0.450047 0.447602
O O8 0.992906 0.745331 0.947312
O O9 0.000000 0.500000 0.108837
#
# Coordination Sequence:
#
# PCOD9528338 Si02
#       6
#     4   4  16   8   8  16
#     4  10  22  38  64  86 124 174 206 270 332 382
#     4  10  26  42  56  98 128 158 226 290 312 398
#     4  11  22  42  64  91 126 172 222 269 334 387
#     4   9  19  37  62  98 120 169 212 247 323 404
#     4   9  19  39  62  96 130 157 210 262 320 395
#     4   9  19  40  66  87 127 172 211 258 326 396
#
# _framework density 22.568732000000001
#
# number of rings (size 3 to 8) (size 9 to 14) (size 15 to 20)
#    0.000    2.286    1.429    2.571    0.000    4.571 
#   15.429    1.429    0.000    0.000    0.000    0.000 
#    0.000    0.000    0.000    0.000    0.000    0.000 
#
# Total GULP energy -155993.584038 kJ/mol
# GULP energy per Si atom -5571.199430 kJ/mol
# Density = 2.251736 g / cm^3
# Si number density = 22.568732 Si / 1000 Ang^3
#
#
#
# Elastic Constant Matrix: (Units=GPa)
#
#
# Indices 1 2 3 4 5 6 
#
# 1 94.5757 22.0558 39.1578 0.0000 0.0000 0.0000
# 2 22.0558 93.9099 36.1881 0.0000 0.0000 0.0000
# 3 39.1578 36.1881 139.5209 0.0000 0.0000 0.0000
# 4 0.0000 0.0000 0.0000 31.1563 0.0000 0.0000
# 5 0.0000 0.0000 0.0000 0.0000 47.9222 0.0000
# 6 0.0000 0.0000 0.0000 0.0000 0.0000 58.3258
#
#
#
# Elastic Compliance Matrix: (Units=1/GPa)
#
#
# Indices 1 2 3 4 5 6 
#
# 1 0.012208 -0.001719 -0.002981 0.000000 0.000000 0.000000
# 2 -0.001719 0.012073 -0.002649 0.000000 0.000000 0.000000
# 3 -0.002981 -0.002649 0.008691 0.000000 0.000000 0.000000
# 4 0.000000 0.000000 0.000000 0.032096 0.000000 0.000000
# 5 0.000000 0.000000 0.000000 0.000000 0.020867 0.000000
# 6 0.000000 0.000000 0.000000 0.000000 0.000000 0.017145
#
#
# Mechanical properties :
#
#
# Convention : Reuss Voigt Hill
#
# Bulk Modulus (GPa) = 54.71756 58.09001 56.40378
# Shear Modulus (GPa) = 40.36504 42.85450 41.60977
#
# Velocity S-wave (km/s) = 4.23370 4.36230 4.29848
# Velocity P-wave (km/s) = 6.94236 7.15318 7.04856
#
# Compressibility (1/GPa) = 0.01827567
#
# Stress axis : x y z
#
# Youngs Moduli (GPa) = 81.91052 82.82966 115.06130
#
# Poissons Ratio (x) = 0.14236 0.34295
# Poissons Ratio (y) = 0.14078 0.30480
# Poissons Ratio (z) = 0.24414 0.21942
#
# Static dielectric constant tensor:
#      x y z
#    x 1.892620 0.000000 0.000000 
#    y 0.000000 1.829130 0.000000 
#    z 0.000000 0.000000 2.007200 
# 
# From -- ./inp_files/47838.got.cif
#   From: 2010.05.17/outbox.cif.g08.bks.cpg/sg72_24_cif.got.tgz:47838.got - 2010.06.03 17:03:01.
