data_PCOD9528787
_publ_section_title
;
Structure prediction by ZEFSAII (Michael W. Deem and Ramdas Pophale) SiO2 
 PCOD9528787
Probable space group: I B A M
;
_chemical_formula_sum "Si O2"
_cell_formula_units_Z 116
_cell_length_a 16.586473
_cell_length_b 18.029370
_cell_length_c 19.014716
_cell_angle_alpha 90.000000
_cell_angle_beta 90.000000
_cell_angle_gamma 90.000000
_cell_volume 5686.230242
_symmetry_space_group_name_H-M "I B A M"
_symmetry_group_IT_number 72
_symmetry_cell_setting 'orthorhombic'
loop_
_space_group_symop_operation_xyz
x,y,z
-x,-y,z
x,-y,1/2-z
-x,y,1/2-z
-x,-y,-z
x,y,-z
-x,y,1/2+z
x,-y,1/2+z
1/2+x,1/2+y,1/2+z
1/2-x,1/2-y,1/2+z
1/2+x,1/2-y,-z
1/2-x,1/2+y,-z
1/2-x,1/2-y,1/2-z
1/2+x,1/2+y,1/2-z
1/2-x,1/2+y,z
1/2+x,1/2-y,z
loop_
_atom_site_type_symbol
_atom_site_label
_atom_site_fract_x
_atom_site_fract_y
_atom_site_fract_z
Si Si1 0.258720 0.821279 0.576907
Si Si2 0.327147 0.791952 0.720843
Si Si3 0.408422 0.526001 0.670119
Si Si4 0.455557 0.318529 0.814360
Si Si5 0.414611 0.245286 0.583763
Si Si6 0.256173 0.504155 0.919642
Si Si7 0.000000 0.500000 0.750000
Si Si8 0.129817 0.595252 0.332644
O O1 0.279932 0.791764 0.500000
O O2 0.316231 0.794827 0.637885
O O3 0.167467 0.793845 0.592118
O O4 0.267439 0.909612 0.577047
O O5 0.250000 0.750000 0.750000
O O6 0.408275 0.745155 0.727981
O O7 0.331190 0.868140 0.762844
O O8 0.500000 0.500000 0.653786
O O9 0.389477 0.500000 0.750000
O O10 0.400306 0.614883 0.658826
O O11 0.342795 0.493567 0.617574
O O12 0.500000 0.359891 0.750000
O O13 0.513539 0.285477 0.873666
O O14 0.430731 0.239275 0.500000
O O15 0.397560 0.164744 0.618656
O O16 0.192954 0.455926 0.874464
O O17 0.260087 0.475841 0.000000
O O18 0.944627 0.450775 0.698505
#
# Coordination Sequence:
#
# PCOD9528787 Si02
#       8
#    16  16  16  16  16  16   4  16
#     4  10  23  43  64  94 134 171 216 271 335 396
#     4  12  23  39  69  99 124 170 220 279 334 383
#     4  11  24  39  67  99 138 176 221 276 337 409
#     4  12  22  41  61  96 130 166 222 274 329 393
#     4  11  24  43  68  94 133 178 219 274 337 396
#     4  11  26  44  67  99 138 181 222 278 345 411
#     4  12  28  44  70 108 134 184 228 284 344 400
#     4  12  24  45  68 101 136 175 234 283 333 408
#
# _framework density 20.400158000000001
#
# number of rings (size 3 to 8) (size 9 to 14) (size 15 to 20)
#    0.000    0.690    4.138    3.724    4.828    1.379 
#    0.000    2.759    0.000    0.000    0.000    0.000 
#    0.000    0.000    0.000    0.000    0.000    0.000 
#
# Total GULP energy -323931.972234 kJ/mol
# GULP energy per Si atom -5585.034004 kJ/mol
# Density = 2.035373 g / cm^3
# Si number density = 20.400158 Si / 1000 Ang^3
#
#
#
# Elastic Constant Matrix: (Units=GPa)
#
#
# Indices 1 2 3 4 5 6 
#
# 1 66.0491 26.6088 46.4404 0.0000 0.0000 0.0000
# 2 26.6088 89.9500 34.6385 0.0000 0.0000 0.0000
# 3 46.4404 34.6385 118.2564 0.0000 0.0000 0.0000
# 4 0.0000 0.0000 0.0000 26.7070 0.0000 0.0000
# 5 0.0000 0.0000 0.0000 0.0000 34.2638 0.0000
# 6 0.0000 0.0000 0.0000 0.0000 0.0000 31.0614
#
#
#
# Elastic Compliance Matrix: (Units=1/GPa)
#
#
# Indices 1 2 3 4 5 6 
#
# 1 0.021886 -0.003567 -0.007550 0.000000 0.000000 0.000000
# 2 -0.003567 0.013112 -0.002440 0.000000 0.000000 0.000000
# 3 -0.007550 -0.002440 0.012136 0.000000 0.000000 0.000000
# 4 0.000000 0.000000 0.000000 0.037443 0.000000 0.000000
# 5 0.000000 0.000000 0.000000 0.000000 0.029185 0.000000
# 6 0.000000 0.000000 0.000000 0.000000 0.000000 0.032194
#
#
# Mechanical properties :
#
#
# Convention : Reuss Voigt Hill
#
# Bulk Modulus (GPa) = 49.94969 54.40345 52.17657
# Shear Modulus (GPa) = 27.81746 29.51097 28.66421
#
# Velocity S-wave (km/s) = 3.69669 3.80755 3.75253
# Velocity P-wave (km/s) = 6.53902 6.78646 6.66389
#
# Compressibility (1/GPa) = 0.02002014
#
# Stress axis : x y z
#
# Youngs Moduli (GPa) = 45.69189 76.26606 82.40064
#
# Poissons Ratio (x) = 0.27203 0.62212
# Poissons Ratio (y) = 0.16297 0.20105
# Poissons Ratio (z) = 0.34497 0.18608
#
# Static dielectric constant tensor:
#      x y z
#    x 1.741620 0.000000 0.000000 
#    y 0.000000 1.729350 0.000000 
#    z 0.000000 0.000000 1.732980 
# 
# From -- ./inp_files/31731.got.cif
#   From: 2010.05.17/outbox.cif.g08.bks.cpg/sg72_16_cif.got.tgz:31731.got - 2010.06.03 17:03:01.
