data_PCOD9528879
_publ_section_title
;
Structure prediction by ZEFSAII (Michael W. Deem and Ramdas Pophale) SiO2 
 PCOD9528879
Probable space group: I B A M
;
_chemical_formula_sum "Si O2"
_cell_formula_units_Z 64
_cell_length_a 8.155242
_cell_length_b 14.623540
_cell_length_c 22.502818
_cell_angle_alpha 90.000000
_cell_angle_beta 90.000000
_cell_angle_gamma 90.000000
_cell_volume 2683.652491
_symmetry_space_group_name_H-M "I B A M"
_symmetry_group_IT_number 72
_symmetry_cell_setting 'orthorhombic'
loop_
_space_group_symop_operation_xyz
x,y,z
-x,-y,z
x,-y,1/2-z
-x,y,1/2-z
-x,-y,-z
x,y,-z
-x,y,1/2+z
x,-y,1/2+z
1/2+x,1/2+y,1/2+z
1/2-x,1/2-y,1/2+z
1/2+x,1/2-y,-z
1/2-x,1/2+y,-z
1/2-x,1/2-y,1/2-z
1/2+x,1/2+y,1/2-z
1/2-x,1/2+y,z
1/2+x,1/2-y,z
loop_
_atom_site_type_symbol
_atom_site_label
_atom_site_fract_x
_atom_site_fract_y
_atom_site_fract_z
Si Si1 0.252994 0.133745 0.000000
Si Si2 0.005593 0.227169 0.680836
Si Si3 0.643024 0.157239 0.000000
Si Si4 0.315576 0.882044 0.131643
Si Si5 0.666740 0.440773 0.871290
O O1 0.449710 0.138195 0.000000
O O2 0.197122 0.086886 0.939255
O O3 0.178734 0.235307 0.000000
O O4 0.974215 0.319893 0.643976
O O5 0.866621 0.151253 0.665379
O O6 0.000000 0.248746 0.750000
O O7 0.172130 0.176174 0.662803
O O8 0.714930 0.117971 0.939150
O O9 0.303796 0.987364 0.150685
O O10 0.500000 0.500000 0.867584
#
# Coordination Sequence:
#
# PCOD9528879 Si02
#       5
#     8  16   8  16  16
#     4  12  24  43  68 101 143 181 229 292 355 426
#     4  11  24  46  71  99 137 187 233 285 344 416
#     4  12  25  41  73 100 139 180 225 289 364 411
#     4  11  24  44  69 100 138 180 230 286 350 415
#     4  10  24  41  70  99 138 181 232 283 357 418
#
# _framework density 23.848092999999999
#
# number of rings (size 3 to 8) (size 9 to 14) (size 15 to 20)
#    0.000    1.000    2.500    3.375    3.500    6.500 
#    0.000    0.000    0.000    0.000    0.000    0.000 
#    0.000    0.000    0.000    0.000    0.000    0.000 
#
# Total GULP energy -179231.551189 kJ/mol
# GULP energy per Si atom -5600.985975 kJ/mol
# Density = 2.379381 g / cm^3
# Si number density = 23.848093 Si / 1000 Ang^3
#
#
#
# Elastic Constant Matrix: (Units=GPa)
#
#
# Indices 1 2 3 4 5 6 
#
# 1 43.1213 -0.7862 -13.3315 0.0000 0.0000 0.0000
# 2 -0.7862 147.0326 1.1379 0.0000 0.0000 0.0000
# 3 -13.3315 1.1379 102.8640 0.0000 0.0000 0.0000
# 4 0.0000 0.0000 0.0000 -3.5621 0.0000 0.0000
# 5 0.0000 0.0000 0.0000 0.0000 6.4790 0.0000
# 6 0.0000 0.0000 0.0000 0.0000 0.0000 39.6233
#
#
#
# Elastic Compliance Matrix: (Units=1/GPa)
#
#
# Indices 1 2 3 4 5 6 
#
# 1 0.024160 0.000105 0.003130 0.000000 0.000000 0.000000
# 2 0.000105 0.006802 -0.000062 0.000000 0.000000 0.000000
# 3 0.003130 -0.000062 0.010128 0.000000 0.000000 0.000000
# 4 0.000000 0.000000 0.000000 -0.280737 0.000000 0.000000
# 5 0.000000 0.000000 0.000000 0.000000 0.154346 0.000000
# 6 0.000000 0.000000 0.000000 0.000000 0.000000 0.025238
#
#
# Mechanical properties :
#
#
# Convention : Reuss Voigt Hill
#
# Bulk Modulus (GPa) = 21.08061 29.67313 25.37687
# Shear Modulus (GPa) = -98.81852 28.90788 -34.95532
#
# Velocity S-wave (km/s) = -6.44411 3.48540 -3.83266
# Velocity P-wave (km/s) = 6.81983 5.35415 2.98690
#
# Compressibility (1/GPa) = 0.04743695
#
# Stress axis : x y z
#
# Youngs Moduli (GPa) = 41.39070 147.01015 98.73692
#
# Poissons Ratio (x) = -0.01543 -0.30905
# Poissons Ratio (y) = -0.00434 0.00609
# Poissons Ratio (z) = -0.12956 0.00906
#
# Static dielectric constant tensor:
#      x y z
#    x 1.988300 0.000000 0.000000 
#    y 0.000000 1.877310 0.000000 
#    z 0.000000 0.000000 1.819170 
# 
# From -- ./inp_files/35436.got.cif
#   From: 2010.05.17/outbox.cif.g08.bks.cpg/sg72_18_cif.got.tgz:35436.got - 2010.06.03 17:03:01.
