data_PCOD9528997
_publ_section_title
;
Structure prediction by ZEFSAII (Michael W. Deem and Ramdas Pophale) SiO2 
 PCOD9528997
Probable space group: I B A M
;
_chemical_formula_sum "Si O2"
_cell_formula_units_Z 116
_cell_length_a 19.183556
_cell_length_b 22.561079
_cell_length_c 15.249374
_cell_angle_alpha 90.000000
_cell_angle_beta 90.000000
_cell_angle_gamma 90.000000
_cell_volume 6599.955333
_symmetry_space_group_name_H-M "I B A M"
_symmetry_group_IT_number 72
_symmetry_cell_setting 'orthorhombic'
loop_
_space_group_symop_operation_xyz
x,y,z
-x,-y,z
x,-y,1/2-z
-x,y,1/2-z
-x,-y,-z
x,y,-z
-x,y,1/2+z
x,-y,1/2+z
1/2+x,1/2+y,1/2+z
1/2-x,1/2-y,1/2+z
1/2+x,1/2-y,-z
1/2-x,1/2+y,-z
1/2-x,1/2-y,1/2-z
1/2+x,1/2+y,1/2-z
1/2-x,1/2+y,z
1/2+x,1/2-y,z
loop_
_atom_site_type_symbol
_atom_site_label
_atom_site_fract_x
_atom_site_fract_y
_atom_site_fract_z
Si Si1 0.043530 0.913594 0.837792
Si Si2 0.125938 0.259371 0.845843
Si Si3 0.831205 0.739826 0.644197
Si Si4 0.518996 0.720947 0.101424
Si Si5 0.801148 0.068366 0.766444
Si Si6 0.768825 0.649687 0.901664
Si Si7 0.713239 0.649139 0.401927
Si Si8 0.000000 0.000000 0.000000
O O1 0.032181 0.844091 0.858632
O O2 0.124180 0.924841 0.813994
O O3 0.000000 0.928229 0.750000
O O4 0.020527 0.951530 0.921748
O O5 0.158777 0.258032 0.748766
O O6 0.157204 0.317709 0.890577
O O7 0.156255 0.201332 0.893758
O O8 0.043354 0.253313 0.847762
O O9 0.908340 0.744107 0.606103
O O10 0.787280 0.797382 0.614290
O O11 0.786213 0.682999 0.616306
O O12 0.498078 0.714982 0.000000
O O13 0.745729 0.100667 0.829016
O O14 0.802374 0.102398 0.673792
O O15 0.786103 0.000000 0.750000
O O16 0.759907 0.626806 0.000000
O O17 0.711913 0.624127 0.500000
#
# Coordination Sequence:
#
# PCOD9528997 Si02
#       8
#    16  16  16  16  16  16  16   4
#     4  12  25  44  57  83 119 163 209 258 293 350
#     4  11  20  36  58  88 120 155 191 248 316 368
#     4  11  19  36  60  85 118 156 189 248 316 375
#     4  12  22  35  57  92 120 153 204 247 303 375
#     4  12  25  42  60  84 117 163 215 252 293 357
#     4  11  21  38  60  84 118 154 196 249 308 367
#     4  11  21  39  60  86 118 156 197 252 314 366
#     4  12  26  44  60  78 116 180 214 244 300 342
#
# _framework density 17.575876999999998
#
# number of rings (size 3 to 8) (size 9 to 14) (size 15 to 20)
#    0.000    0.552    4.828    7.241    0.966    0.552 
#    6.207    0.000    0.000    0.000    0.000    1.931 
#    0.000    3.310    0.000    0.000    0.000    0.000 
#
# Total GULP energy -323789.591036 kJ/mol
# GULP energy per Si atom -5582.579156 kJ/mol
# Density = 1.753587 g / cm^3
# Si number density = 17.575877 Si / 1000 Ang^3
#
#
#
# Elastic Constant Matrix: (Units=GPa)
#
#
# Indices 1 2 3 4 5 6 
#
# 1 86.3435 26.4839 3.3025 0.0000 0.0000 0.0000
# 2 26.4839 70.5367 22.5226 0.0000 0.0000 0.0000
# 3 3.3025 22.5226 137.7951 0.0000 0.0000 0.0000
# 4 0.0000 0.0000 0.0000 16.1474 0.0000 0.0000
# 5 0.0000 0.0000 0.0000 0.0000 22.4848 0.0000
# 6 0.0000 0.0000 0.0000 0.0000 0.0000 6.8737
#
#
#
# Elastic Compliance Matrix: (Units=1/GPa)
#
#
# Indices 1 2 3 4 5 6 
#
# 1 0.013124 -0.005093 0.000518 0.000000 0.000000 0.000000
# 2 -0.005093 0.016934 -0.002646 0.000000 0.000000 0.000000
# 3 0.000518 -0.002646 0.007677 0.000000 0.000000 0.000000
# 4 0.000000 0.000000 0.000000 0.061930 0.000000 0.000000
# 5 0.000000 0.000000 0.000000 0.000000 0.044475 0.000000
# 6 0.000000 0.000000 0.000000 0.000000 0.000000 0.145483
#
#
# Mechanical properties :
#
#
# Convention : Reuss Voigt Hill
#
# Bulk Modulus (GPa) = 42.93036 44.36592 43.64814
# Shear Modulus (GPa) = 16.03445 25.25891 20.64668
#
# Velocity S-wave (km/s) = 3.02371 3.79507 3.43113
# Velocity P-wave (km/s) = 6.05551 6.67089 6.37063
#
# Compressibility (1/GPa) = 0.02329354
#
# Stress axis : x y z
#
# Youngs Moduli (GPa) = 76.19640 59.05268 130.25587
#
# Poissons Ratio (x) = 0.30075 -0.06746
# Poissons Ratio (y) = 0.38806 0.34463
# Poissons Ratio (z) = -0.03946 0.15624
#
# Static dielectric constant tensor:
#      x y z
#    x 1.616220 0.000000 0.000000 
#    y 0.000000 1.569510 0.000000 
#    z 0.000000 0.000000 1.642320 
# 
# From -- ./inp_files/23559.got.cif
#   From: 2010.05.17/outbox.cif.g08.bks.cpg/sg72_12_cif.got.tgz:23559.got - 2010.06.03 17:03:01.
