data_PCOD9528061
_publ_section_title
;
Structure prediction by ZEFSAII (Michael W. Deem and Ramdas Pophale) SiO2 
 PCOD9528061
Probable space group: I B A M
;
_chemical_formula_sum "Si O2"
_cell_formula_units_Z 96
_cell_length_a 18.917845
_cell_length_b 9.798868
_cell_length_c 25.519761
_cell_angle_alpha 90.000000
_cell_angle_beta 90.000000
_cell_angle_gamma 90.000000
_cell_volume 4730.686548
_symmetry_space_group_name_H-M "I B A M"
_symmetry_group_IT_number 72
_symmetry_cell_setting 'orthorhombic'
loop_
_space_group_symop_operation_xyz
x,y,z
-x,-y,z
x,-y,1/2-z
-x,y,1/2-z
-x,-y,-z
x,y,-z
-x,y,1/2+z
x,-y,1/2+z
1/2+x,1/2+y,1/2+z
1/2-x,1/2-y,1/2+z
1/2+x,1/2-y,-z
1/2-x,1/2+y,-z
1/2-x,1/2-y,1/2-z
1/2+x,1/2+y,1/2-z
1/2-x,1/2+y,z
1/2+x,1/2-y,z
loop_
_atom_site_type_symbol
_atom_site_label
_atom_site_fract_x
_atom_site_fract_y
_atom_site_fract_z
Si Si1 0.793464 0.727506 0.303620
Si Si2 0.033973 0.152971 0.439300
Si Si3 0.165832 0.991140 0.561703
Si Si4 0.083653 0.842912 0.256834
Si Si5 0.789175 0.546803 0.869041
Si Si6 0.591888 0.753486 0.623942
O O1 0.750000 0.750000 0.250000
O O2 0.873395 0.759949 0.286501
O O3 0.788939 0.578734 0.328818
O O4 0.757776 0.833803 0.343069
O O5 0.029117 0.199519 0.500000
O O6 0.115257 0.121073 0.424782
O O7 0.986974 0.243038 0.400061
O O8 0.000000 0.000000 0.437475
O O9 0.158010 0.970975 0.500000
O O10 0.246066 0.009170 0.579034
O O11 0.135609 0.860074 0.591744
O O12 0.096724 0.790743 0.315500
O O13 0.000000 0.836650 0.250000
O O14 0.106786 0.000000 0.250000
O O15 0.866897 0.604419 0.880413
#
# Coordination Sequence:
#
# PCOD9528061 Si02
#       6
#    16  16  16  16  16  16
#     4  12  23  43  65  91 132 174 219 267 335 397
#     4   8  17  33  60  89 122 163 207 267 324 378
#     4  10  21  39  65  96 129 169 223 277 328 394
#     4  11  25  39  65  99 125 169 220 274 318 392
#     4  12  24  40  65  95 127 178 214 274 331 397
#     4  11  21  38  60  93 129 161 214 266 330 386
#
# _framework density 20.293037999999999
#
# number of rings (size 3 to 8) (size 9 to 14) (size 15 to 20)
#    0.000    1.333    3.333    4.000    9.333    1.333 
#    0.000    1.667    0.000    0.000    0.000    2.333 
#    0.000    0.000    0.000    0.000    0.000    0.000 
#
# Total GULP energy -268122.463903 kJ/mol
# GULP energy per Si atom -5585.884665 kJ/mol
# Density = 2.024685 g / cm^3
# Si number density = 20.293038 Si / 1000 Ang^3
#
#
#
# Elastic Constant Matrix: (Units=GPa)
#
#
# Indices 1 2 3 4 5 6 
#
# 1 76.4639 39.7776 30.1378 0.0000 0.0000 0.0000
# 2 39.7776 85.0653 26.4185 0.0000 0.0000 0.0000
# 3 30.1378 26.4185 69.8704 0.0000 0.0000 0.0000
# 4 0.0000 0.0000 0.0000 14.9247 0.0000 0.0000
# 5 0.0000 0.0000 0.0000 0.0000 31.6888 0.0000
# 6 0.0000 0.0000 0.0000 0.0000 0.0000 33.7805
#
#
#
# Elastic Compliance Matrix: (Units=1/GPa)
#
#
# Indices 1 2 3 4 5 6 
#
# 1 0.018963 -0.007169 -0.005469 0.000000 0.000000 0.000000
# 2 -0.007169 0.016030 -0.002969 0.000000 0.000000 0.000000
# 3 -0.005469 -0.002969 0.017794 0.000000 0.000000 0.000000
# 4 0.000000 0.000000 0.000000 0.067003 0.000000 0.000000
# 5 0.000000 0.000000 0.000000 0.000000 0.031557 0.000000
# 6 0.000000 0.000000 0.000000 0.000000 0.000000 0.029603
#
#
# Mechanical properties :
#
#
# Convention : Reuss Voigt Hill
#
# Bulk Modulus (GPa) = 46.35323 47.11861 46.73592
# Shear Modulus (GPa) = 22.79425 25.08317 23.93871
#
# Velocity S-wave (km/s) = 3.35513 3.51956 3.43833
# Velocity P-wave (km/s) = 6.15636 6.30761 6.23244
#
# Compressibility (1/GPa) = 0.02157347
#
# Stress axis : x y z
#
# Youngs Moduli (GPa) = 52.73445 62.38322 56.19974
#
# Poissons Ratio (x) = 0.44722 0.30735
# Poissons Ratio (y) = 0.37805 0.16685
# Poissons Ratio (z) = 0.28840 0.18521
#
# Static dielectric constant tensor:
#      x y z
#    x 1.768980 0.000000 0.000000 
#    y 0.000000 1.694760 0.000000 
#    z 0.000000 0.000000 1.703800 
# 
# From -- ./inp_files/49350.got.cif
#   From: 2010.05.17/outbox.cif.g08.bks.cpg/sg72_25_cif.got.tgz:49350.got - 2010.06.03 17:03:01.
