data_PCOD9528368
_publ_section_title
;
Structure prediction by ZEFSAII (Michael W. Deem and Ramdas Pophale) SiO2 
 PCOD9528368
Probable space group: I B A M
;
_chemical_formula_sum "Si O2"
_cell_formula_units_Z 64
_cell_length_a 9.107171
_cell_length_b 22.042120
_cell_length_c 13.296836
_cell_angle_alpha 90.000000
_cell_angle_beta 90.000000
_cell_angle_gamma 90.000000
_cell_volume 2669.224890
_symmetry_space_group_name_H-M "I B A M"
_symmetry_group_IT_number 72
_symmetry_cell_setting 'orthorhombic'
loop_
_space_group_symop_operation_xyz
x,y,z
-x,-y,z
x,-y,1/2-z
-x,y,1/2-z
-x,-y,-z
x,y,-z
-x,y,1/2+z
x,-y,1/2+z
1/2+x,1/2+y,1/2+z
1/2-x,1/2-y,1/2+z
1/2+x,1/2-y,-z
1/2-x,1/2+y,-z
1/2-x,1/2-y,1/2-z
1/2+x,1/2+y,1/2-z
1/2-x,1/2+y,z
1/2+x,1/2-y,z
loop_
_atom_site_type_symbol
_atom_site_label
_atom_site_fract_x
_atom_site_fract_y
_atom_site_fract_z
Si Si1 0.894655 0.843983 0.333928
Si Si2 0.824131 0.501841 0.500000
Si Si3 0.245337 0.241135 0.500000
Si Si4 0.878252 0.414908 0.672185
Si Si5 0.479629 0.832453 0.500000
Si Si6 0.550310 0.428323 0.000000
O O1 0.821081 0.793828 0.404220
O O2 0.757496 0.878270 0.282018
O O3 0.000000 0.817536 0.250000
O O4 0.984953 0.891224 0.404873
O O5 0.798922 0.465065 0.602870
O O6 0.726507 0.561563 0.500000
O O7 0.000000 0.500000 0.500000
O O8 0.418101 0.228310 0.500000
O O9 0.185243 0.308717 0.500000
O O10 0.966888 0.371311 0.595181
O O11 0.000000 0.435986 0.750000
O O12 0.500000 0.500000 0.000000
#
# Coordination Sequence:
#
# PCOD9528368 Si02
#       6
#    16   8   8  16   8   8
#     4  10  22  39  62  89 120 156 205 251 298 362
#     4  11  24  41  59  86 122 158 204 251 304 361
#     4   9  20  40  61  87 120 157 200 248 303 365
#     4  10  22  41  59  87 126 158 196 253 307 360
#     4   9  20  40  63  84 120 162 197 249 306 361
#     4  11  20  43  63  82 118 162 204 250 301 352
#
# _framework density 23.976997000000001
#
# number of rings (size 3 to 8) (size 9 to 14) (size 15 to 20)
#    0.000    2.000    2.500    1.500    3.500    4.000 
#    4.500    5.000    0.000    0.000    0.000    0.000 
#    0.000    0.000    0.000    0.000    0.000    0.000 
#
# Total GULP energy -178862.124689 kJ/mol
# GULP energy per Si atom -5589.441397 kJ/mol
# Density = 2.392242 g / cm^3
# Si number density = 23.976997 Si / 1000 Ang^3
#
#
#
# Elastic Constant Matrix: (Units=GPa)
#
#
# Indices 1 2 3 4 5 6 
#
# 1 95.7650 25.3982 28.1949 0.0000 0.0000 0.0000
# 2 25.3982 84.7285 -0.4986 0.0000 0.0000 0.0000
# 3 28.1949 -0.4986 72.5430 0.0001 -0.0001 0.0000
# 4 0.0000 0.0000 0.0001 -6.2909 0.0000 0.0000
# 5 0.0000 0.0000 -0.0001 0.0000 19.3104 0.0000
# 6 0.0000 0.0000 0.0000 0.0000 0.0000 44.9552
#
#
#
# Elastic Compliance Matrix: (Units=1/GPa)
#
#
# Indices 1 2 3 4 5 6 
#
# 1 0.012974 -0.003919 -0.005070 0.000000 0.000000 0.000000
# 2 -0.003919 0.012987 0.001612 0.000000 0.000000 0.000000
# 3 -0.005070 0.001612 0.015766 0.000000 0.000000 0.000000
# 4 0.000000 0.000000 0.000000 -0.158959 0.000000 0.000000
# 5 0.000000 0.000000 0.000000 0.000000 0.051786 0.000000
# 6 0.000000 0.000000 0.000000 0.000000 0.000000 0.022244
#
#
# Mechanical properties :
#
#
# Convention : Reuss Voigt Hill
#
# Bulk Modulus (GPa) = 37.07135 39.91394 38.49264
# Shear Modulus (GPa) = -256.96026 24.92441 -116.01792
#
# Velocity S-wave (km/s) = -10.36350 3.22765 -6.96364
# Velocity P-wave (km/s) = 11.30080 5.52930 6.96904
#
# Compressibility (1/GPa) = 0.02697501
#
# Stress axis : x y z
#
# Youngs Moduli (GPa) = 77.07636 77.00219 63.42620
#
# Poissons Ratio (x) = 0.30177 0.32154
# Poissons Ratio (y) = 0.30206 -0.10227
# Poissons Ratio (z) = 0.39074 -0.12416
#
# Static dielectric constant tensor:
#      x y z
#    x 1.945740 0.000000 0.000000 
#    y 0.000000 1.968150 0.000000 
#    z 0.000000 0.000000 1.932560 
# 
# From -- ./inp_files/18745.got.cif
#   From: 2010.05.17/outbox.cif.g08.bks.cpg/sg72_10_cif.got.tgz:18745.got - 2010.06.03 17:03:01.
