data_PCOD9528708
_publ_section_title
;
Structure prediction by ZEFSAII (Michael W. Deem and Ramdas Pophale) SiO2 
 PCOD9528708
Probable space group: I B A M
;
_chemical_formula_sum "Si O2"
_cell_formula_units_Z 64
_cell_length_a 14.997053
_cell_length_b 11.204580
_cell_length_c 17.841851
_cell_angle_alpha 90.000000
_cell_angle_beta 90.000000
_cell_angle_gamma 90.000000
_cell_volume 2998.067567
_symmetry_space_group_name_H-M "I B A M"
_symmetry_group_IT_number 72
_symmetry_cell_setting 'orthorhombic'
loop_
_space_group_symop_operation_xyz
x,y,z
-x,-y,z
x,-y,1/2-z
-x,y,1/2-z
-x,-y,-z
x,y,-z
-x,y,1/2+z
x,-y,1/2+z
1/2+x,1/2+y,1/2+z
1/2-x,1/2-y,1/2+z
1/2+x,1/2-y,-z
1/2-x,1/2+y,-z
1/2-x,1/2-y,1/2-z
1/2+x,1/2+y,1/2-z
1/2-x,1/2+y,z
1/2+x,1/2-y,z
loop_
_atom_site_type_symbol
_atom_site_label
_atom_site_fract_x
_atom_site_fract_y
_atom_site_fract_z
Si Si1 0.120435 0.612413 0.500000
Si Si2 0.978778 0.190624 0.000000
Si Si3 0.707858 0.260627 0.870161
Si Si4 0.342926 0.383767 0.228053
Si Si5 0.314058 0.854542 0.500000
Si Si6 0.000000 0.000000 0.871425
O O1 0.167926 0.661612 0.425028
O O2 0.125875 0.471445 0.500000
O O3 0.029101 0.684297 0.500000
O O4 0.874643 0.232714 0.000000
O O5 0.010611 0.110895 0.929511
O O6 0.642559 0.313678 0.806374
O O7 0.790024 0.204413 0.825083
O O8 0.749651 0.356002 0.927614
O O9 0.284243 0.500000 0.250000
O O10 0.423413 0.444499 0.182119
#
# Coordination Sequence:
#
# PCOD9528708 Si02
#       6
#     8   8  16  16   8   8
#     4  11  23  38  64  91 129 172 227 279 334 417
#     4  11  23  40  64 100 125 178 225 283 346 412
#     4  10  23  40  62  96 131 175 230 270 352 417
#     4  11  21  38  63  94 129 174 220 282 345 415
#     4  11  21  44  66  91 137 175 226 285 338 415
#     4  11  23  40  68  95 139 164 224 297 351 402
#
# _framework density 21.347082
#
# number of rings (size 3 to 8) (size 9 to 14) (size 15 to 20)
#    0.000    1.250    2.500    3.750    0.000    2.000 
#    0.000    0.000    0.000    0.750    0.000    0.000 
#    0.000    0.000    0.000    0.000    0.000    0.000 
#
# Total GULP energy -178347.192702 kJ/mol
# GULP energy per Si atom -5573.349772 kJ/mol
# Density = 2.129850 g / cm^3
# Si number density = 21.347082 Si / 1000 Ang^3
#
#
#
# Elastic Constant Matrix: (Units=GPa)
#
#
# Indices 1 2 3 4 5 6 
#
# 1 77.6728 30.5036 58.2289 0.0000 0.0000 0.0000
# 2 30.5036 117.9426 58.4905 0.0000 0.0000 0.0000
# 3 58.2289 58.4905 199.8543 0.0000 0.0000 0.0000
# 4 0.0000 0.0000 0.0000 9.4815 0.0000 0.0000
# 5 0.0000 0.0000 0.0000 0.0000 33.2328 0.0000
# 6 0.0000 0.0000 0.0000 0.0000 0.0000 33.2093
#
#
#
# Elastic Compliance Matrix: (Units=1/GPa)
#
#
# Indices 1 2 3 4 5 6 
#
# 1 0.016975 -0.002266 -0.004282 0.000000 0.000000 0.000000
# 2 -0.002266 0.010221 -0.002331 0.000000 0.000000 0.000000
# 3 -0.004282 -0.002331 0.006934 0.000000 0.000000 0.000000
# 4 0.000000 0.000000 0.000000 0.105469 0.000000 0.000000
# 5 0.000000 0.000000 0.000000 0.000000 0.030091 0.000000
# 6 0.000000 0.000000 0.000000 0.000000 0.000000 0.030112
#
#
# Mechanical properties :
#
#
# Convention : Reuss Voigt Hill
#
# Bulk Modulus (GPa) = 61.08863 76.65730 68.87296
# Shear Modulus (GPa) = 22.41979 31.73451 27.07715
#
# Velocity S-wave (km/s) = 3.24427 3.85982 3.56536
# Velocity P-wave (km/s) = 6.53550 7.47344 7.02015
#
# Compressibility (1/GPa) = 0.01636966
#
# Stress axis : x y z
#
# Youngs Moduli (GPa) = 58.91003 97.83925 144.22618
#
# Poissons Ratio (x) = 0.22175 0.61764
# Poissons Ratio (y) = 0.13352 0.33618
# Poissons Ratio (z) = 0.25228 0.22806
#
# Static dielectric constant tensor:
#      x y z
#    x 1.853370 0.000000 0.000000 
#    y 0.000000 1.798220 0.000000 
#    z 0.000000 0.000000 1.815690 
# 
# From -- ./inp_files/28993.got.cif
#   From: 2010.05.17/outbox.cif.g08.bks.cpg/sg72_15_cif.got.tgz:28993.got - 2010.06.03 17:03:01.
