data_PCOD9528106
_publ_section_title
;
Structure prediction by ZEFSAII (Michael W. Deem and Ramdas Pophale) SiO2 
 PCOD9528106
Probable space group: I B A M
;
_chemical_formula_sum "Si O2"
_cell_formula_units_Z 80
_cell_length_a 15.410860
_cell_length_b 9.566008
_cell_length_c 25.147638
_cell_angle_alpha 90.000000
_cell_angle_beta 90.000000
_cell_angle_gamma 90.000000
_cell_volume 3707.275106
_symmetry_space_group_name_H-M "I B A M"
_symmetry_group_IT_number 72
_symmetry_cell_setting 'orthorhombic'
loop_
_space_group_symop_operation_xyz
x,y,z
-x,-y,z
x,-y,1/2-z
-x,y,1/2-z
-x,-y,-z
x,y,-z
-x,y,1/2+z
x,-y,1/2+z
1/2+x,1/2+y,1/2+z
1/2-x,1/2-y,1/2+z
1/2+x,1/2-y,-z
1/2-x,1/2+y,-z
1/2-x,1/2-y,1/2-z
1/2+x,1/2+y,1/2-z
1/2-x,1/2+y,z
1/2+x,1/2-y,z
loop_
_atom_site_type_symbol
_atom_site_label
_atom_site_fract_x
_atom_site_fract_y
_atom_site_fract_z
Si Si1 0.002404 0.164363 0.109146
Si Si2 0.750033 0.507083 0.692988
Si Si3 0.423316 0.897257 0.832153
Si Si4 0.142929 0.330256 0.941174
Si Si5 0.689722 0.731585 0.122313
O O1 0.908601 0.236416 0.102012
O O2 0.042693 0.240231 0.161458
O O3 0.070293 0.209807 0.063613
O O4 0.000000 0.000000 0.113304
O O5 0.704934 0.500000 0.750000
O O6 0.838244 0.416363 0.701941
O O7 0.695579 0.419481 0.650720
O O8 0.781409 0.651669 0.665846
O O9 0.389507 0.929897 0.892909
O O10 0.500000 0.000000 0.817116
O O11 0.236113 0.271326 0.922793
O O12 0.146033 0.390378 0.000000
#
# Coordination Sequence:
#
# PCOD9528106 Si02
#       5
#    16  16  16  16  16
#     4  10  21  40  63  85 127 167 201 255 314 360
#     4  11  22  39  64  90 122 165 210 254 314 369
#     4   9  19  40  59  85 118 160 200 256 305 361
#     4   9  21  38  61  92 122 160 211 248 304 376
#     4  11  22  40  64  90 130 164 203 264 310 361
#
# _framework density 21.579191000000002
#
# number of rings (size 3 to 8) (size 9 to 14) (size 15 to 20)
#    1.200    0.800    2.000    1.800    0.000    2.000 
#    0.000    8.000    0.000    1.200    0.000    0.000 
#    0.000    0.000    0.000    0.000    0.000    0.000 
#
# Total GULP energy -222753.911473 kJ/mol
# GULP energy per Si atom -5568.847787 kJ/mol
# Density = 2.153008 g / cm^3
# Si number density = 21.579191 Si / 1000 Ang^3
#
#
#
# Elastic Constant Matrix: (Units=GPa)
#
#
# Indices 1 2 3 4 5 6 
#
# 1 108.1178 5.4296 14.6546 0.0000 0.0000 0.0000
# 2 5.4296 76.2787 9.4554 0.0000 0.0000 0.0000
# 3 14.6546 9.4554 73.8309 0.0000 0.0000 0.0000
# 4 0.0000 0.0000 0.0000 17.6607 0.0000 0.0000
# 5 0.0000 0.0000 0.0000 0.0000 -5.7402 0.0000
# 6 0.0000 0.0000 0.0000 0.0000 0.0000 20.0512
#
#
#
# Elastic Compliance Matrix: (Units=1/GPa)
#
#
# Indices 1 2 3 4 5 6 
#
# 1 0.009520 -0.000451 -0.001832 0.000000 0.000000 0.000000
# 2 -0.000451 0.013343 -0.001619 0.000000 0.000000 0.000000
# 3 -0.001832 -0.001619 0.014115 0.000000 0.000000 0.000000
# 4 0.000000 0.000000 0.000000 0.056623 0.000000 0.000000
# 5 0.000000 0.000000 0.000000 0.000000 -0.174209 0.000000
# 6 0.000000 0.000000 0.000000 0.000000 0.000000 0.049872
#
#
# Mechanical properties :
#
#
# Convention : Reuss Voigt Hill
#
# Bulk Modulus (GPa) = 34.27647 35.25628 34.76638
# Shear Modulus (GPa) = -378.59527 21.64016 -178.47756
#
# Velocity S-wave (km/s) = -13.25992 3.17018 -9.10427
# Velocity P-wave (km/s) = 14.78227 5.45652 9.71447
#
# Compressibility (1/GPa) = 0.02917453
#
# Stress axis : x y z
#
# Youngs Moduli (GPa) = 105.04084 74.94777 70.84423
#
# Poissons Ratio (x) = 0.03377 0.12978
# Poissons Ratio (y) = 0.04733 0.11472
# Poissons Ratio (z) = 0.19243 0.12137
#
# Static dielectric constant tensor:
#      x y z
#    x 1.816140 0.000000 0.000000 
#    y 0.000000 1.827450 0.000000 
#    z 0.000000 0.000000 1.819170 
# 
# From -- ./inp_files/48959.got.cif
#   From: 2010.05.17/outbox.cif.g08.bks.cpg/sg72_25_cif.got.tgz:48959.got - 2010.06.03 17:03:01.
