data_PCOD9528478
_publ_section_title
;
Structure prediction by ZEFSAII (Michael W. Deem and Ramdas Pophale) SiO2 
 PCOD9528478
Probable space group: I B A M
;
_chemical_formula_sum "Si O2"
_cell_formula_units_Z 116
_cell_length_a 16.982787
_cell_length_b 17.918497
_cell_length_c 21.605133
_cell_angle_alpha 90.000000
_cell_angle_beta 90.000000
_cell_angle_gamma 90.000000
_cell_volume 6574.571990
_symmetry_space_group_name_H-M "I B A M"
_symmetry_group_IT_number 72
_symmetry_cell_setting 'orthorhombic'
loop_
_space_group_symop_operation_xyz
x,y,z
-x,-y,z
x,-y,1/2-z
-x,y,1/2-z
-x,-y,-z
x,y,-z
-x,y,1/2+z
x,-y,1/2+z
1/2+x,1/2+y,1/2+z
1/2-x,1/2-y,1/2+z
1/2+x,1/2-y,-z
1/2-x,1/2+y,-z
1/2-x,1/2-y,1/2-z
1/2+x,1/2+y,1/2-z
1/2-x,1/2+y,z
1/2+x,1/2-y,z
loop_
_atom_site_type_symbol
_atom_site_label
_atom_site_fract_x
_atom_site_fract_y
_atom_site_fract_z
Si Si1 0.996826 0.782765 0.680115
Si Si2 0.652538 0.358914 0.855891
Si Si3 0.405140 0.502996 0.069448
Si Si4 0.253885 0.838637 0.761118
Si Si5 0.305875 0.184697 0.928616
Si Si6 0.092586 0.629214 0.814365
Si Si7 0.343184 0.348039 0.116393
Si Si8 0.000000 0.500000 0.250000
O O1 0.080375 0.801181 0.649916
O O2 0.000000 0.810942 0.750000
O O3 0.970746 0.696413 0.683371
O O4 0.926059 0.825947 0.647630
O O5 0.622398 0.437104 0.881070
O O6 0.693449 0.370611 0.789470
O O7 0.718566 0.328984 0.902690
O O8 0.500000 0.500000 0.073491
O O9 0.361887 0.424139 0.080770
O O10 0.385787 0.529070 0.000000
O O11 0.250000 0.750000 0.750000
O O12 0.341657 0.859005 0.739413
O O13 0.222683 0.856694 0.829572
O O14 0.361473 0.139645 0.879812
O O15 0.322167 0.273453 0.921819
O O16 0.315736 0.162373 0.000000
O O17 0.050926 0.553016 0.795174
#
# Coordination Sequence:
#
# PCOD9528478 Si02
#       8
#    16  16  16  16  16  16  16   4
#     4  11  18  34  59  89 118 152 195 251 307 367
#     4  11  21  36  61  85 119 159 202 250 309 366
#     4  11  24  39  53  83 126 163 199 248 308 367
#     4  11  19  38  59  90 118 148 200 256 310 358
#     4  10  22  41  62  86 118 168 218 252 299 370
#     4  10  23  37  63  89 126 161 198 258 311 379
#     4  11  21  36  62  87 122 160 199 257 312 371
#     4  12  24  40  62  96 128 164 204 258 336 360
#
# _framework density 17.643735
#
# number of rings (size 3 to 8) (size 9 to 14) (size 15 to 20)
#    0.000    1.241    7.586    0.828    0.000    2.759 
#    0.000    2.414    0.000    0.000    0.000    0.000 
#    0.000    0.000    0.000    0.000    0.000    0.000 
#
# Total GULP energy -323472.087249 kJ/mol
# GULP energy per Si atom -5577.104953 kJ/mol
# Density = 1.760358 g / cm^3
# Si number density = 17.643735 Si / 1000 Ang^3
#
#
#
# Elastic Constant Matrix: (Units=GPa)
#
#
# Indices 1 2 3 4 5 6 
#
# 1 87.0476 51.6845 28.5222 0.0000 0.0000 0.0000
# 2 51.6845 74.0749 24.8915 0.0000 0.0000 0.0000
# 3 28.5222 24.8915 93.5666 0.0000 0.0000 0.0000
# 4 0.0000 0.0000 0.0000 18.1541 0.0000 0.0000
# 5 0.0000 0.0000 0.0000 0.0000 17.1472 0.0000
# 6 0.0000 0.0000 0.0000 0.0000 0.0000 27.3199
#
#
#
# Elastic Compliance Matrix: (Units=1/GPa)
#
#
# Indices 1 2 3 4 5 6 
#
# 1 0.020192 -0.013200 -0.002643 0.000000 0.000000 0.000000
# 2 -0.013200 0.023455 -0.002216 0.000000 0.000000 0.000000
# 3 -0.002643 -0.002216 0.012083 0.000000 0.000000 0.000000
# 4 0.000000 0.000000 0.000000 0.055084 0.000000 0.000000
# 5 0.000000 0.000000 0.000000 0.000000 0.058318 0.000000
# 6 0.000000 0.000000 0.000000 0.000000 0.000000 0.036603
#
#
# Mechanical properties :
#
#
# Convention : Reuss Voigt Hill
#
# Bulk Modulus (GPa) = 50.99341 51.65395 51.32368
# Shear Modulus (GPa) = 20.12961 22.49698 21.31329
#
# Velocity S-wave (km/s) = 3.38137 3.57468 3.47937
# Velocity P-wave (km/s) = 6.64901 6.81010 6.73004
#
# Compressibility (1/GPa) = 0.01961038
#
# Stress axis : x y z
#
# Youngs Moduli (GPa) = 49.52530 42.63563 82.76184
#
# Poissons Ratio (x) = 0.56279 0.21878
# Poissons Ratio (y) = 0.65374 0.18338
# Poissons Ratio (z) = 0.13092 0.09447
#
# Static dielectric constant tensor:
#      x y z
#    x 1.105710 0.000000 0.000000 
#    y 0.000000 1.620800 0.000000 
#    z 0.000000 0.000000 1.603740 
# 
# From -- ./inp_files/44503.got.cif
#   From: 2010.05.17/outbox.cif.g08.bks.cpg/sg72_23_cif.got.tgz:44503.got - 2010.06.03 17:03:01.
