data_PCOD9528008
_publ_section_title
;
Structure prediction by ZEFSAII (Michael W. Deem and Ramdas Pophale) SiO2 
 PCOD9528008
Probable space group: I B A M
;
_chemical_formula_sum "Si O2"
_cell_formula_units_Z 96
_cell_length_a 10.942020
_cell_length_b 17.941354
_cell_length_c 23.579929
_cell_angle_alpha 90.000000
_cell_angle_beta 90.000000
_cell_angle_gamma 90.000000
_cell_volume 4629.085610
_symmetry_space_group_name_H-M "I B A M"
_symmetry_group_IT_number 72
_symmetry_cell_setting 'orthorhombic'
loop_
_space_group_symop_operation_xyz
x,y,z
-x,-y,z
x,-y,1/2-z
-x,y,1/2-z
-x,-y,-z
x,y,-z
-x,y,1/2+z
x,-y,1/2+z
1/2+x,1/2+y,1/2+z
1/2-x,1/2-y,1/2+z
1/2+x,1/2-y,-z
1/2-x,1/2+y,-z
1/2-x,1/2-y,1/2-z
1/2+x,1/2+y,1/2-z
1/2-x,1/2+y,z
1/2+x,1/2-y,z
loop_
_atom_site_type_symbol
_atom_site_label
_atom_site_fract_x
_atom_site_fract_y
_atom_site_fract_z
Si Si1 0.905497 0.837504 0.642218
Si Si2 0.692988 0.879951 0.435821
Si Si3 0.364124 0.703146 0.934592
Si Si4 0.796926 0.911835 0.739956
Si Si5 0.311314 0.825033 0.341538
Si Si6 0.052493 0.421010 0.167948
O O1 0.822823 0.879000 0.595453
O O2 0.906093 0.887685 0.698179
O O3 0.835232 0.762991 0.663565
O O4 0.026392 0.814935 0.608571
O O5 0.698897 0.905822 0.500000
O O6 0.651851 0.792876 0.435422
O O7 0.602629 0.925463 0.395963
O O8 0.244740 0.667490 0.904778
O O9 0.383103 0.679671 0.000000
O O10 0.780536 0.862558 0.796428
O O11 0.668668 0.898628 0.705765
O O12 0.803740 0.000000 0.750000
O O13 0.441350 0.863694 0.332001
O O14 0.000000 0.500000 0.186366
#
# Coordination Sequence:
#
# PCOD9528008 Si02
#       6
#    16  16  16  16  16  16
#     4  10  21  39  62  92 124 163 209 253 303 365
#     4   9  19  35  59  89 121 161 205 250 305 362
#     4  10  21  39  62  88 122 161 205 260 304 354
#     4  11  23  40  64  89 125 163 202 252 309 372
#     4  11  22  38  61  97 123 158 211 250 309 368
#     4  11  21  37  63  91 125 159 199 254 312 368
#
# _framework density 20.738437000000001
#
# number of rings (size 3 to 8) (size 9 to 14) (size 15 to 20)
#    0.000    1.667    3.333    1.500    0.000    2.333 
#    3.000    1.667    0.000    1.000    0.000    0.000 
#    0.000    0.000    0.000    0.000    0.000    0.000 
#
# Total GULP energy -267981.995684 kJ/mol
# GULP energy per Si atom -5582.958243 kJ/mol
# Density = 2.069124 g / cm^3
# Si number density = 20.738437 Si / 1000 Ang^3
#
#
#
# Elastic Constant Matrix: (Units=GPa)
#
#
# Indices 1 2 3 4 5 6 
#
# 1 30.2669 9.5693 22.1955 0.0000 0.0000 0.0000
# 2 9.5693 49.5180 43.0291 0.0000 0.0000 0.0000
# 3 22.1955 43.0291 136.2457 0.0000 0.0000 0.0000
# 4 0.0000 0.0000 0.0000 17.8850 0.0000 0.0000
# 5 0.0000 0.0000 0.0000 0.0000 17.0359 0.0000
# 6 0.0000 0.0000 0.0000 0.0000 0.0000 23.8827
#
#
#
# Elastic Compliance Matrix: (Units=1/GPa)
#
#
# Indices 1 2 3 4 5 6 
#
# 1 0.037780 -0.002691 -0.005305 0.000000 0.000000 0.000000
# 2 -0.002691 0.028025 -0.008412 0.000000 0.000000 0.000000
# 3 -0.005305 -0.008412 0.010861 0.000000 0.000000 0.000000
# 4 0.000000 0.000000 0.000000 0.055913 0.000000 0.000000
# 5 0.000000 0.000000 0.000000 0.000000 0.058699 0.000000
# 6 0.000000 0.000000 0.000000 0.000000 0.000000 0.041871
#
#
# Mechanical properties :
#
#
# Convention : Reuss Voigt Hill
#
# Bulk Modulus (GPa) = 22.80566 40.62430 31.71498
# Shear Modulus (GPa) = 17.82006 21.17649 19.49827
#
# Velocity S-wave (km/s) = 2.93452 3.19897 3.06959
# Velocity P-wave (km/s) = 4.74369 5.76853 5.28103
#
# Compressibility (1/GPa) = 0.04384876
#
# Stress axis : x y z
#
# Youngs Moduli (GPa) = 26.46877 35.68278 92.07563
#
# Poissons Ratio (x) = 0.09604 0.48843
# Poissons Ratio (y) = 0.07124 0.77457
# Poissons Ratio (z) = 0.14041 0.30017
#
# Static dielectric constant tensor:
#      x y z
#    x 1.771190 0.000000 0.000000 
#    y 0.000000 1.746990 0.000000 
#    z 0.000000 0.000000 1.756100 
# 
# From -- ./inp_files/43368.got.cif
#   From: 2010.05.17/outbox.cif.g08.bks.cpg/sg72_22_cif.got.tgz:43368.got - 2010.06.03 17:03:01.
