data_PCOD9528191
_publ_section_title
;
Structure prediction by ZEFSAII (Michael W. Deem and Ramdas Pophale) SiO2 
 PCOD9528191
Probable space group: I B A M
;
_chemical_formula_sum "Si O2"
_cell_formula_units_Z 48
_cell_length_a 11.674254
_cell_length_b 8.906113
_cell_length_c 18.077219
_cell_angle_alpha 90.000000
_cell_angle_beta 90.000000
_cell_angle_gamma 90.000000
_cell_volume 1879.528687
_symmetry_space_group_name_H-M "I B A M"
_symmetry_group_IT_number 72
_symmetry_cell_setting 'orthorhombic'
loop_
_space_group_symop_operation_xyz
x,y,z
-x,-y,z
x,-y,1/2-z
-x,y,1/2-z
-x,-y,-z
x,y,-z
-x,y,1/2+z
x,-y,1/2+z
1/2+x,1/2+y,1/2+z
1/2-x,1/2-y,1/2+z
1/2+x,1/2-y,-z
1/2-x,1/2+y,-z
1/2-x,1/2-y,1/2-z
1/2+x,1/2+y,1/2-z
1/2-x,1/2+y,z
1/2+x,1/2-y,z
loop_
_atom_site_type_symbol
_atom_site_label
_atom_site_fract_x
_atom_site_fract_y
_atom_site_fract_z
Si Si1 0.721795 0.803575 0.413731
Si Si2 0.627569 0.674052 0.725459
Si Si3 0.596663 0.899697 0.085725
O O1 0.708728 0.762257 0.500000
O O2 0.633651 0.714938 0.361967
O O3 0.700363 0.980450 0.410074
O O4 0.849509 0.755374 0.389693
O O5 0.635428 0.500000 0.750000
O O6 0.500000 0.727809 0.750000
O O7 0.750000 0.750000 0.750000
O O8 0.500000 0.000000 0.123544
O O9 0.561043 0.876495 0.000000
#
# Coordination Sequence:
#
# PCOD9528191 Si02
#       3
#    16  16  16
#     4  10  21  41  68  97 131 180 228 280 340 409
#     4  11  26  47  68 101 141 179 229 288 347 421
#     4   9  19  36  62  97 133 167 220 279 333 402
#
# _framework density 25.538315000000001
#
# number of rings (size 3 to 8) (size 9 to 14) (size 15 to 20)
#    0.000    2.000    0.000    2.000    4.667    0.667 
#    0.000    3.333    0.000    0.000    0.000    0.000 
#    0.000    0.000    0.000    0.000    0.000    0.000 
#
# Total GULP energy -133756.595627 kJ/mol
# GULP energy per Si atom -5573.191484 kJ/mol
# Density = 2.548019 g / cm^3
# Si number density = 25.538315 Si / 1000 Ang^3
#
#
#
# Elastic Constant Matrix: (Units=GPa)
#
#
# Indices 1 2 3 4 5 6 
#
# 1 181.8293 25.5731 25.6121 0.0000 0.0000 0.0000
# 2 25.5731 66.4060 -2.7115 0.0000 0.0000 0.0000
# 3 25.6121 -2.7115 106.4347 0.0000 0.0000 0.0000
# 4 0.0000 0.0000 0.0000 25.3680 0.0000 0.0000
# 5 0.0000 0.0000 0.0000 0.0000 31.8527 0.0000
# 6 0.0000 0.0000 0.0000 0.0000 0.0000 49.9106
#
#
#
# Elastic Compliance Matrix: (Units=1/GPa)
#
#
# Indices 1 2 3 4 5 6 
#
# 1 0.006050 -0.002392 -0.001517 0.000000 0.000000 0.000000
# 2 -0.002392 0.016020 0.000984 0.000000 0.000000 0.000000
# 3 -0.001517 0.000984 0.009785 0.000000 0.000000 0.000000
# 4 0.000000 0.000000 0.000000 0.039420 0.000000 0.000000
# 5 0.000000 0.000000 0.000000 0.000000 0.031395 0.000000
# 6 0.000000 0.000000 0.000000 0.000000 0.000000 0.020036
#
#
# Mechanical properties :
#
#
# Convention : Reuss Voigt Hill
#
# Bulk Modulus (GPa) = 38.45302 50.17970 44.31636
# Shear Modulus (GPa) = 36.43694 41.83935 39.13814
#
# Velocity S-wave (km/s) = 3.78134 4.05198 3.91900
# Velocity P-wave (km/s) = 5.84418 6.44847 6.15375
#
# Compressibility (1/GPa) = 0.02600576
#
# Stress axis : x y z
#
# Youngs Moduli (GPa) = 165.29806 62.42166 102.19237
#
# Poissons Ratio (x) = 0.14929 0.15500
# Poissons Ratio (y) = 0.39534 -0.10052
# Poissons Ratio (z) = 0.25071 -0.06140
#
# Static dielectric constant tensor:
#      x y z
#    x 2.165780 0.000000 0.000000 
#    y 0.000000 1.985880 0.000000 
#    z 0.000000 0.000000 2.176760 
# 
# From -- ./inp_files/28534.got.cif
#   From: 2010.05.17/outbox.cif.g08.bks.cpg/sg72_15_cif.got.tgz:28534.got - 2010.06.03 17:03:01.
