data_PCOD9528694
_publ_section_title
;
Structure prediction by ZEFSAII (Michael W. Deem and Ramdas Pophale) SiO2 
 PCOD9528694
Probable space group: I B A M
;
_chemical_formula_sum "Si O2"
_cell_formula_units_Z 96
_cell_length_a 19.854695
_cell_length_b 8.771819
_cell_length_c 26.957157
_cell_angle_alpha 90.000000
_cell_angle_beta 90.000000
_cell_angle_gamma 90.000000
_cell_volume 4694.906739
_symmetry_space_group_name_H-M "I B A M"
_symmetry_group_IT_number 72
_symmetry_cell_setting 'orthorhombic'
loop_
_space_group_symop_operation_xyz
x,y,z
-x,-y,z
x,-y,1/2-z
-x,y,1/2-z
-x,-y,-z
x,y,-z
-x,y,1/2+z
x,-y,1/2+z
1/2+x,1/2+y,1/2+z
1/2-x,1/2-y,1/2+z
1/2+x,1/2-y,-z
1/2-x,1/2+y,-z
1/2-x,1/2-y,1/2-z
1/2+x,1/2+y,1/2-z
1/2-x,1/2+y,z
1/2+x,1/2-y,z
loop_
_atom_site_type_symbol
_atom_site_label
_atom_site_fract_x
_atom_site_fract_y
_atom_site_fract_z
Si Si1 0.424353 0.064264 0.556373
Si Si2 0.972580 0.666495 0.305789
Si Si3 0.656474 0.102089 0.363674
Si Si4 0.049477 0.127632 0.116774
Si Si5 0.764648 0.317267 0.672393
Si Si6 0.850046 0.955639 0.200499
O O1 0.399475 0.078631 0.500000
O O2 0.425965 0.232579 0.582120
O O3 0.500000 0.000000 0.555483
O O4 0.384554 0.933527 0.586804
O O5 0.893668 0.657258 0.319511
O O6 0.000000 0.500000 0.321273
O O7 0.000000 0.687500 0.250000
O O8 0.005387 0.791602 0.340540
O O9 0.720166 0.214139 0.364753
O O10 0.685285 0.936757 0.351391
O O11 0.109429 0.049770 0.148762
O O12 0.000000 0.000000 0.093135
O O13 0.812275 0.206345 0.703675
O O14 0.709483 0.421199 0.698912
O O15 0.891324 0.000000 0.250000
#
# Coordination Sequence:
#
# PCOD9528694 Si02
#       6
#    16  16  16  16  16  16
#     4  11  23  45  72  92 118 165 215 272 338 392
#     4  11  22  38  63  91 129 175 212 260 317 383
#     4  11  20  45  63  94 126 165 217 266 316 385
#     4  12  24  39  62  97 132 160 212 273 325 375
#     4  10  23  39  64  85 130 175 214 258 311 373
#     4  11  23  38  57  91 131 173 215 250 308 380
#
# _framework density 20.447690999999999
#
# number of rings (size 3 to 8) (size 9 to 14) (size 15 to 20)
#    0.000    1.000    5.000    1.500    4.667    0.333 
#   12.000    0.833    0.000    0.000    0.000    0.000 
#    0.000    0.000    0.000    0.000    0.000    0.000 
#
# Total GULP energy -267856.383562 kJ/mol
# GULP energy per Si atom -5580.341324 kJ/mol
# Density = 2.040115 g / cm^3
# Si number density = 20.447691 Si / 1000 Ang^3
#
#
#
# Elastic Constant Matrix: (Units=GPa)
#
#
# Indices 1 2 3 4 5 6 
#
# 1 70.4094 4.9186 28.1474 0.0000 0.0000 0.0000
# 2 4.9186 61.7594 20.2652 0.0000 0.0000 0.0000
# 3 28.1474 20.2652 102.6060 0.0000 0.0000 0.0000
# 4 0.0000 0.0000 0.0000 8.2923 0.0000 0.0000
# 5 0.0000 0.0000 0.0000 0.0000 10.8236 0.0000
# 6 0.0000 0.0000 0.0000 0.0000 0.0000 45.0864
#
#
#
# Elastic Compliance Matrix: (Units=1/GPa)
#
#
# Indices 1 2 3 4 5 6 
#
# 1 0.015954 0.000177 -0.004411 0.000000 0.000000 0.000000
# 2 0.000177 0.017316 -0.003469 0.000000 0.000000 0.000000
# 3 -0.004411 -0.003469 0.011641 0.000000 0.000000 0.000000
# 4 0.000000 0.000000 0.000000 0.120593 0.000000 0.000000
# 5 0.000000 0.000000 0.000000 0.000000 0.092391 0.000000
# 6 0.000000 0.000000 0.000000 0.000000 0.000000 0.022180
#
#
# Mechanical properties :
#
#
# Convention : Reuss Voigt Hill
#
# Bulk Modulus (GPa) = 33.89266 37.93746 35.91506
# Shear Modulus (GPa) = 16.37649 24.93672 20.65661
#
# Velocity S-wave (km/s) = 2.83308 3.49598 3.18184
# Velocity P-wave (km/s) = 5.22619 5.90673 5.57685
#
# Compressibility (1/GPa) = 0.02950492
#
# Stress axis : x y z
#
# Youngs Moduli (GPa) = 62.68076 57.75040 85.90146
#
# Poissons Ratio (x) = -0.01022 0.37895
# Poissons Ratio (y) = -0.01109 0.29795
# Poissons Ratio (z) = 0.27652 0.20031
#
# Static dielectric constant tensor:
#      x y z
#    x 1.787350 0.000000 0.000000 
#    y 0.000000 1.749360 0.000000 
#    z 0.000000 0.000000 1.792020 
# 
# From -- ./inp_files/49346.got.cif
#   From: 2010.05.17/outbox.cif.g08.bks.cpg/sg72_25_cif.got.tgz:49346.got - 2010.06.03 17:03:01.
