data_PCOD9528616
_publ_section_title
;
Structure prediction by ZEFSAII (Michael W. Deem and Ramdas Pophale) SiO2 
 PCOD9528616
Probable space group: I B A M
;
_chemical_formula_sum "Si O2"
_cell_formula_units_Z 68
_cell_length_a 21.620596
_cell_length_b 7.936640
_cell_length_c 16.018749
_cell_angle_alpha 90.000000
_cell_angle_beta 90.000000
_cell_angle_gamma 90.000000
_cell_volume 2748.735425
_symmetry_space_group_name_H-M "I B A M"
_symmetry_group_IT_number 72
_symmetry_cell_setting 'orthorhombic'
loop_
_space_group_symop_operation_xyz
x,y,z
-x,-y,z
x,-y,1/2-z
-x,y,1/2-z
-x,-y,-z
x,y,-z
-x,y,1/2+z
x,-y,1/2+z
1/2+x,1/2+y,1/2+z
1/2-x,1/2-y,1/2+z
1/2+x,1/2-y,-z
1/2-x,1/2+y,-z
1/2-x,1/2-y,1/2-z
1/2+x,1/2+y,1/2-z
1/2-x,1/2+y,z
1/2+x,1/2-y,z
loop_
_atom_site_type_symbol
_atom_site_label
_atom_site_fract_x
_atom_site_fract_y
_atom_site_fract_z
Si Si1 0.500000 0.500000 0.000000
Si Si2 0.947461 0.775106 0.138297
Si Si3 0.680821 0.728954 0.598303
Si Si4 0.685553 0.654309 0.898057
Si Si5 0.424295 0.831466 0.307948
O O1 0.545481 0.425360 0.073322
O O2 0.884525 0.679008 0.111426
O O3 0.934932 0.807312 0.235284
O O4 0.014339 0.682617 0.134779
O O5 0.690901 0.719181 0.500000
O O6 0.673340 0.537676 0.628743
O O7 0.744254 0.807068 0.630654
O O8 0.636867 0.782488 0.857442
O O9 0.680828 0.665814 0.000000
O O10 0.424658 0.000000 0.250000
#
# Coordination Sequence:
#
# PCOD9528616 Si02
#       5
#     4  16  16  16  16
#     4  12  24  42  78 112 130 204 260 302 382 446
#     4  11  24  44  73 102 149 188 256 307 369 451
#     4  10  22  43  71 113 146 193 255 310 374 453
#     4  10  24  45  75 108 152 200 252 310 382 464
#     4  11  27  49  70 111 156 196 248 319 383 449
#
# _framework density 24.738647
#
# number of rings (size 3 to 8) (size 9 to 14) (size 15 to 20)
#    0.000    1.412    1.176    2.824    8.235    7.529 
#    2.118    1.176    0.000    0.000    0.000    0.000 
#    0.000    0.000    0.000    0.000    0.000    0.000 
#
# Total GULP energy -189273.281915 kJ/mol
# GULP energy per Si atom -5566.861233 kJ/mol
# Density = 2.468234 g / cm^3
# Si number density = 24.738647 Si / 1000 Ang^3
#
#
#
# Elastic Constant Matrix: (Units=GPa)
#
#
# Indices 1 2 3 4 5 6 
#
# 1 181.9041 20.3575 36.1301 0.0000 0.0000 0.0000
# 2 20.3575 70.9319 20.8082 0.0000 0.0000 0.0000
# 3 36.1301 20.8082 58.0716 0.0000 0.0000 0.0000
# 4 0.0000 0.0000 0.0000 21.7688 0.0000 0.0000
# 5 0.0000 0.0000 0.0000 0.0000 38.4878 0.0000
# 6 0.0000 0.0000 0.0000 0.0000 0.0000 26.7599
#
#
#
# Elastic Compliance Matrix: (Units=1/GPa)
#
#
# Indices 1 2 3 4 5 6 
#
# 1 0.006307 -0.000736 -0.003660 0.000000 0.000000 0.000000
# 2 -0.000736 0.015840 -0.005218 0.000000 0.000000 0.000000
# 3 -0.003660 -0.005218 0.021367 0.000000 0.000000 0.000000
# 4 0.000000 0.000000 0.000000 0.045937 0.000000 0.000000
# 5 0.000000 0.000000 0.000000 0.000000 0.025982 0.000000
# 6 0.000000 0.000000 0.000000 0.000000 0.000000 0.037369
#
#
# Mechanical properties :
#
#
# Convention : Reuss Voigt Hill
#
# Bulk Modulus (GPa) = 41.17670 51.72214 46.44942
# Shear Modulus (GPa) = 27.75839 32.97741 30.36790
#
# Velocity S-wave (km/s) = 3.35336 3.65503 3.50744
# Velocity P-wave (km/s) = 5.62798 6.22617 5.93462
#
# Compressibility (1/GPa) = 0.02428558
#
# Stress axis : x y z
#
# Youngs Moduli (GPa) = 158.55992 63.13133 46.80156
#
# Poissons Ratio (x) = 0.04649 0.17129
# Poissons Ratio (y) = 0.11676 0.24419
# Poissons Ratio (z) = 0.58033 0.32940
#
# Static dielectric constant tensor:
#      x y z
#    x 2.025090 0.000000 0.000000 
#    y 0.000000 2.118180 0.000000 
#    z 0.000000 0.000000 1.894620 
# 
# From -- ./inp_files/32279.got.cif
#   From: 2010.05.17/outbox.cif.g08.bks.cpg/sg72_17_cif.got.tgz:32279.got - 2010.06.03 17:03:01.
