data_PCOD9528959
_publ_section_title
;
Structure prediction by ZEFSAII (Michael W. Deem and Ramdas Pophale) SiO2 
 PCOD9528959
Probable space group: I B A M
;
_chemical_formula_sum "Si O2"
_cell_formula_units_Z 64
_cell_length_a 21.344543
_cell_length_b 15.968863
_cell_length_c 8.696969
_cell_angle_alpha 90.000000
_cell_angle_beta 90.000000
_cell_angle_gamma 90.000000
_cell_volume 2964.345211
_symmetry_space_group_name_H-M "I B A M"
_symmetry_group_IT_number 72
_symmetry_cell_setting 'orthorhombic'
loop_
_space_group_symop_operation_xyz
x,y,z
-x,-y,z
x,-y,1/2-z
-x,y,1/2-z
-x,-y,-z
x,y,-z
-x,y,1/2+z
x,-y,1/2+z
1/2+x,1/2+y,1/2+z
1/2-x,1/2-y,1/2+z
1/2+x,1/2-y,-z
1/2-x,1/2+y,-z
1/2-x,1/2-y,1/2-z
1/2+x,1/2+y,1/2-z
1/2-x,1/2+y,z
1/2+x,1/2-y,z
loop_
_atom_site_type_symbol
_atom_site_label
_atom_site_fract_x
_atom_site_fract_y
_atom_site_fract_z
Si Si1 0.804128 0.770938 0.500000
Si Si2 0.825230 0.376440 0.500000
Si Si3 0.085183 0.225483 0.000000
Si Si4 0.907406 0.915147 0.500000
Si Si5 0.697561 0.103950 0.665357
Si Si6 0.500000 0.644875 0.750000
Si Si7 0.181187 0.075188 0.000000
O O1 0.740112 0.823581 0.500000
O O2 0.861933 0.834319 0.500000
O O3 0.806236 0.705686 0.356273
O O4 0.884529 0.315722 0.500000
O O5 0.824576 0.420759 0.333527
O O6 0.042385 0.203720 0.855428
O O7 0.141068 0.158532 0.000000
O O8 0.953321 0.909455 0.354200
O O9 0.864144 0.996565 0.500000
O O10 0.667472 0.077099 0.500000
O O11 0.770358 0.079115 0.642238
#
# Coordination Sequence:
#
# PCOD9528959 Si02
#       7
#     8   8   8   8  16   8   8
#     4   9  19  32  57  84 100 143 201 247 322 342
#     4  12  17  35  64  81 104 140 197 259 324 356
#     4  11  22  40  54  80 114 157 214 258 288 356
#     4  11  22  40  54  76 121 170 207 260 282 346
#     4   8  20  33  53  90 101 136 198 247 320 365
#     4  10  26  37  52  78 114 172 225 240 280 341
#     4   9  22  36  53  75 115 156 206 250 288 353
#
# _framework density 21.589929000000001
#
# number of rings (size 3 to 8) (size 9 to 14) (size 15 to 20)
#    1.500    0.500    2.500    2.250    3.500    4.000 
#    0.000    1.250    0.000    0.000    0.000    0.000 
#    0.000    0.000    0.000   76.500    0.000    7.500 
#
# Total GULP energy -178680.721217 kJ/mol
# GULP energy per Si atom -5583.772538 kJ/mol
# Density = 2.154079 g / cm^3
# Si number density = 21.589929 Si / 1000 Ang^3
#
#
#
# Elastic Constant Matrix: (Units=GPa)
#
#
# Indices 1 2 3 4 5 6 
#
# 1 96.4835 46.5756 48.1470 0.0000 0.0000 0.0000
# 2 46.5756 82.2001 61.2226 0.0000 0.0000 0.0000
# 3 48.1470 61.2226 198.8822 0.0000 0.0000 0.0000
# 4 0.0000 0.0000 0.0000 37.5881 0.0000 0.0000
# 5 0.0000 0.0000 0.0000 0.0000 32.0946 0.0000
# 6 0.0000 0.0000 0.0000 0.0000 0.0000 11.7400
#
#
#
# Elastic Compliance Matrix: (Units=1/GPa)
#
#
# Indices 1 2 3 4 5 6 
#
# 1 0.014511 -0.007273 -0.001274 0.000000 0.000000 0.000000
# 2 -0.007273 0.019430 -0.004220 0.000000 0.000000 0.000000
# 3 -0.001274 -0.004220 0.006636 0.000000 0.000000 0.000000
# 4 0.000000 0.000000 0.000000 0.026604 0.000000 0.000000
# 5 0.000000 0.000000 0.000000 0.000000 0.031158 0.000000
# 6 0.000000 0.000000 0.000000 0.000000 0.000000 0.085179
#
#
# Mechanical properties :
#
#
# Convention : Reuss Voigt Hill
#
# Bulk Modulus (GPa) = 66.48328 76.60623 71.54475
# Shear Modulus (GPa) = 23.35713 31.05924 27.20819
#
# Velocity S-wave (km/s) = 3.29272 3.79700 3.55382
# Velocity P-wave (km/s) = 6.73176 7.40151 7.07456
#
# Compressibility (1/GPa) = 0.01504138
#
# Stress axis : x y z
#
# Youngs Moduli (GPa) = 68.91164 51.46684 150.69988
#
# Poissons Ratio (x) = 0.37434 0.19200
# Poissons Ratio (y) = 0.50122 0.63601
# Poissons Ratio (z) = 0.08780 0.21721
#
# Static dielectric constant tensor:
#      x y z
#    x 1.720240 0.000000 0.000000 
#    y 0.000000 1.833060 0.000000 
#    z 0.000000 0.000000 1.882690 
# 
# From -- ./inp_files/5467.got.cif
#   From: 2010.05.17/outbox.cif.g08.bks.cpg/sg72_3_cif.got.tgz:5467.got - 2010.06.03 17:03:01.
