data_PCOD9528317
_publ_section_title
;
Structure prediction by ZEFSAII (Michael W. Deem and Ramdas Pophale) SiO2 
 PCOD9528317
Probable space group: I B A M
;
_chemical_formula_sum "Si O2"
_cell_formula_units_Z 72
_cell_length_a 19.034771
_cell_length_b 11.652146
_cell_length_c 17.132184
_cell_angle_alpha 90.000000
_cell_angle_beta 90.000000
_cell_angle_gamma 90.000000
_cell_volume 3799.848696
_symmetry_space_group_name_H-M "I B A M"
_symmetry_group_IT_number 72
_symmetry_cell_setting 'orthorhombic'
loop_
_space_group_symop_operation_xyz
x,y,z
-x,-y,z
x,-y,1/2-z
-x,y,1/2-z
-x,-y,-z
x,y,-z
-x,y,1/2+z
x,-y,1/2+z
1/2+x,1/2+y,1/2+z
1/2-x,1/2-y,1/2+z
1/2+x,1/2-y,-z
1/2-x,1/2+y,-z
1/2-x,1/2-y,1/2-z
1/2+x,1/2+y,1/2-z
1/2-x,1/2+y,z
1/2+x,1/2-y,z
loop_
_atom_site_type_symbol
_atom_site_label
_atom_site_fract_x
_atom_site_fract_y
_atom_site_fract_z
Si Si1 0.500000 0.000000 0.368916
Si Si2 0.500000 0.197513 0.750000
Si Si3 0.416635 0.408522 0.412400
Si Si4 0.330631 0.765039 0.000000
Si Si5 0.668313 0.250164 0.500000
Si Si6 0.610348 0.018123 0.500000
Si Si7 0.573335 0.649460 0.862181
O O1 0.522516 0.891492 0.317284
O O2 0.437578 0.960446 0.424633
O O3 0.437956 0.277957 0.783365
O O4 0.420376 0.462248 0.500000
O O5 0.358369 0.310778 0.426125
O O6 0.404951 0.515621 0.355285
O O7 0.492831 0.355267 0.394693
O O8 0.248433 0.788729 0.000000
O O9 0.368552 0.886517 0.000000
O O10 0.670776 0.111798 0.500000
O O11 0.625363 0.292816 0.575818
#
# Coordination Sequence:
#
# PCOD9528317 Si02
#       7
#     8   8  16   8   8   8  16
#     4  10  22  38  58  90 124 150 198 254 302 358
#     4  11  22  33  56  96 118 151 191 250 296 366
#     4   9  19  36  59  87 117 151 190 268 284 350
#     4  10  23  33  58  97 124 143 211 249 297 357
#     4  12  21  35  60  91 118 162 195 250 296 363
#     4  11  22  38  64  86 115 162 197 248 309 347
#     4  11  19  37  61  84 121 151 200 246 310 334
#
# _framework density 18.948122999999999
#
# number of rings (size 3 to 8) (size 9 to 14) (size 15 to 20)
#    0.667    0.889    4.444    2.000    6.222    1.778 
#    0.000    0.000    0.000    5.333   11.556    0.000 
#    0.000    0.000    0.000    0.000    0.000    0.000 
#
# Total GULP energy -200572.488025 kJ/mol
# GULP energy per Si atom -5571.458001 kJ/mol
# Density = 1.890500 g / cm^3
# Si number density = 18.948123 Si / 1000 Ang^3
#
#
#
# Elastic Constant Matrix: (Units=GPa)
#
#
# Indices 1 2 3 4 5 6 
#
# 1 74.6611 30.1006 27.2934 0.0000 0.0000 0.0000
# 2 30.1006 113.0264 32.8359 0.0000 0.0000 0.0000
# 3 27.2934 32.8359 71.6891 0.0000 0.0000 0.0000
# 4 0.0000 0.0000 0.0000 211.8105 0.0000 0.0000
# 5 0.0000 0.0000 0.0000 0.0000 9.9712 0.0000
# 6 0.0000 0.0000 0.0000 0.0000 0.0000 15.2675
#
#
#
# Elastic Compliance Matrix: (Units=1/GPa)
#
#
# Indices 1 2 3 4 5 6 
#
# 1 0.016364 -0.002939 -0.004884 0.000000 0.000000 0.000000
# 2 -0.002939 0.010733 -0.003797 0.000000 0.000000 0.000000
# 3 -0.004884 -0.003797 0.017548 0.000000 0.000000 0.000000
# 4 0.000000 0.000000 0.000000 0.004721 0.000000 0.000000
# 5 0.000000 0.000000 0.000000 0.000000 0.100289 0.000000
# 6 0.000000 0.000000 0.000000 0.000000 0.000000 0.065499
#
#
# Mechanical properties :
#
#
# Convention : Reuss Voigt Hill
#
# Bulk Modulus (GPa) = 46.71871 48.87071 47.79471
# Shear Modulus (GPa) = 20.36411 58.68629 39.52520
#
# Velocity S-wave (km/s) = 3.28186 5.57129 4.57220
# Velocity P-wave (km/s) = 6.25064 8.19961 7.29054
#
# Compressibility (1/GPa) = 0.02140470
#
# Stress axis : x y z
#
# Youngs Moduli (GPa) = 61.10892 93.16728 56.98727
#
# Poissons Ratio (x) = 0.27383 0.27832
# Poissons Ratio (y) = 0.17961 0.21639
# Poissons Ratio (z) = 0.29845 0.35378
#
# Static dielectric constant tensor:
#      x y z
#    x 1.597010 0.000000 0.000000 
#    y 0.000000 1.717790 0.000000 
#    z 0.000000 0.000000 1.706160 
# 
# From -- ./inp_files/31299.got.cif
#   From: 2010.05.17/outbox.cif.g08.bks.cpg/sg72_16_cif.got.tgz:31299.got - 2010.06.03 17:03:01.
