data_PCOD9528310
_publ_section_title
;
Structure prediction by ZEFSAII (Michael W. Deem and Ramdas Pophale) SiO2 
 PCOD9528310
Probable space group: I B A M
;
_chemical_formula_sum "Si O2"
_cell_formula_units_Z 80
_cell_length_a 8.678870
_cell_length_b 13.840269
_cell_length_c 28.179377
_cell_angle_alpha 90.000000
_cell_angle_beta 90.000000
_cell_angle_gamma 90.000000
_cell_volume 3384.847459
_symmetry_space_group_name_H-M "I B A M"
_symmetry_group_IT_number 72
_symmetry_cell_setting 'orthorhombic'
loop_
_space_group_symop_operation_xyz
x,y,z
-x,-y,z
x,-y,1/2-z
-x,y,1/2-z
-x,-y,-z
x,y,-z
-x,y,1/2+z
x,-y,1/2+z
1/2+x,1/2+y,1/2+z
1/2-x,1/2-y,1/2+z
1/2+x,1/2-y,-z
1/2-x,1/2+y,-z
1/2-x,1/2-y,1/2-z
1/2+x,1/2+y,1/2-z
1/2-x,1/2+y,z
1/2+x,1/2-y,z
loop_
_atom_site_type_symbol
_atom_site_label
_atom_site_fract_x
_atom_site_fract_y
_atom_site_fract_z
Si Si1 0.345635 0.455759 0.094811
Si Si2 0.684016 0.122312 0.444030
Si Si3 0.020467 0.230275 0.899400
Si Si4 0.248395 0.494703 0.302437
Si Si5 0.996892 0.667895 0.302101
O O1 0.500000 0.500000 0.071783
O O2 0.203982 0.510593 0.070952
O O3 0.376556 0.342788 0.092542
O O4 0.340673 0.485234 0.150057
O O5 0.698370 0.132855 0.500000
O O6 0.528304 0.172267 0.426079
O O7 0.827712 0.177176 0.418398
O O8 0.028544 0.258492 0.844204
O O9 0.320842 0.500000 0.250000
O O10 0.161833 0.391849 0.308477
O O11 0.122635 0.581743 0.301716
O O12 0.000000 0.714404 0.250000
#
# Coordination Sequence:
#
# PCOD9528310 Si02
#       5
#    16  16  16  16  16
#     4  10  22  38  57  85 124 161 194 253 311 363
#     4  11  24  42  64  89 120 162 210 257 311 363
#     4  11  22  41  64  89 125 160 207 256 304 371
#     4   9  17  35  59  84 119 160 200 242 296 358
#     4   9  18  35  62  89 117 161 201 244 299 359
#
# _framework density 23.634741000000002
#
# number of rings (size 3 to 8) (size 9 to 14) (size 15 to 20)
#    0.000    2.000    2.000    3.000    0.000    4.800 
#    7.200    3.000    0.000    3.600    0.000    0.000 
#    0.000    0.000    0.000    0.000    0.000    0.000 
#
# Total GULP energy -223555.703633 kJ/mol
# GULP energy per Si atom -5588.892591 kJ/mol
# Density = 2.358095 g / cm^3
# Si number density = 23.634741 Si / 1000 Ang^3
#
#
#
# Elastic Constant Matrix: (Units=GPa)
#
#
# Indices 1 2 3 4 5 6 
#
# 1 50.3358 23.2691 7.7025 0.0000 0.0000 0.0000
# 2 23.2691 98.0715 32.1400 0.0000 0.0000 0.0000
# 3 7.7025 32.1400 132.0265 0.0000 0.0000 0.0000
# 4 0.0000 0.0000 0.0000 11.8052 0.0000 0.0000
# 5 0.0000 0.0000 0.0000 0.0000 6.4215 0.0000
# 6 0.0000 0.0000 0.0000 0.0000 0.0000 17.3587
#
#
#
# Elastic Compliance Matrix: (Units=1/GPa)
#
#
# Indices 1 2 3 4 5 6 
#
# 1 0.022314 -0.005290 -0.000014 0.000000 0.000000 0.000000
# 2 -0.005290 0.012335 -0.002694 0.000000 0.000000 0.000000
# 3 -0.000014 -0.002694 0.008231 0.000000 0.000000 0.000000
# 4 0.000000 0.000000 0.000000 0.084708 0.000000 0.000000
# 5 0.000000 0.000000 0.000000 0.000000 0.155726 0.000000
# 6 0.000000 0.000000 0.000000 0.000000 0.000000 0.057608
#
#
# Mechanical properties :
#
#
# Convention : Reuss Voigt Hill
#
# Bulk Modulus (GPa) = 37.19726 45.18411 41.19069
# Shear Modulus (GPa) = 13.66574 21.60526 17.63550
#
# Velocity S-wave (km/s) = 2.40720 3.02674 2.73457
# Velocity P-wave (km/s) = 4.84755 5.60125 5.23797
#
# Compressibility (1/GPa) = 0.02688370
#
# Stress axis : x y z
#
# Youngs Moduli (GPa) = 44.81481 81.07261 121.49346
#
# Poissons Ratio (x) = 0.42885 0.00171
# Poissons Ratio (y) = 0.23706 0.32731
# Poissons Ratio (z) = 0.00063 0.21842
#
# Static dielectric constant tensor:
#      x y z
#    x 1.943270 0.000000 0.000000 
#    y 0.000000 1.903650 0.000000 
#    z 0.000000 0.000000 1.863630 
# 
# From -- ./inp_files/47963.got.cif
#   From: 2010.05.17/outbox.cif.g08.bks.cpg/sg72_24_cif.got.tgz:47963.got - 2010.06.03 17:03:01.
