data_PCOD9528436
_publ_section_title
;
Structure prediction by ZEFSAII (Michael W. Deem and Ramdas Pophale) SiO2 
 PCOD9528436
Probable space group: I B A M
;
_chemical_formula_sum "Si O2"
_cell_formula_units_Z 96
_cell_length_a 30.009206
_cell_length_b 17.210458
_cell_length_c 8.271389
_cell_angle_alpha 90.000000
_cell_angle_beta 90.000000
_cell_angle_gamma 90.000000
_cell_volume 4271.942304
_symmetry_space_group_name_H-M "I B A M"
_symmetry_group_IT_number 72
_symmetry_cell_setting 'orthorhombic'
loop_
_space_group_symop_operation_xyz
x,y,z
-x,-y,z
x,-y,1/2-z
-x,y,1/2-z
-x,-y,-z
x,y,-z
-x,y,1/2+z
x,-y,1/2+z
1/2+x,1/2+y,1/2+z
1/2-x,1/2-y,1/2+z
1/2+x,1/2-y,-z
1/2-x,1/2+y,-z
1/2-x,1/2-y,1/2-z
1/2+x,1/2+y,1/2-z
1/2-x,1/2+y,z
1/2+x,1/2-y,z
loop_
_atom_site_type_symbol
_atom_site_label
_atom_site_fract_x
_atom_site_fract_y
_atom_site_fract_z
Si Si1 0.453064 0.346512 0.307846
Si Si2 0.369969 0.914802 0.815176
Si Si3 0.855942 0.142135 0.803821
Si Si4 0.547696 0.829037 0.189106
Si Si5 0.263404 0.582317 0.691278
Si Si6 0.803954 0.703163 0.315554
O O1 0.500000 0.384660 0.250000
O O2 0.456215 0.334770 0.500000
O O3 0.404050 0.380073 0.267468
O O4 0.451406 0.263558 0.216366
O O5 0.415258 0.867415 0.799160
O O6 0.335735 0.871365 0.699660
O O7 0.377707 0.000000 0.750000
O O8 0.353456 0.914113 0.000000
O O9 0.814869 0.087490 0.754463
O O10 0.835698 0.226963 0.751692
O O11 0.860284 0.143571 0.000000
O O12 0.500000 0.857160 0.250000
O O13 0.555118 0.845803 0.000000
O O14 0.243498 0.500000 0.750000
O O15 0.262417 0.579620 0.500000
O O16 0.240233 0.664354 0.739269
O O17 0.793601 0.723051 0.500000
#
# Coordination Sequence:
#
# PCOD9528436 Si02
#       6
#    16  16  16  16  16  16
#     4  11  21  35  60  91 124 160 199 247 302 360
#     4  12  24  38  55  79 111 154 201 249 303 357
#     4  10  22  40  64  92 124 160 204 253 304 359
#     4  11  21  36  55  78 110 149 195 246 300 357
#     4  11  24  42  63  90 125 164 203 251 305 366
#     4  11  22  39  62  88 119 158 202 253 301 355
#
# _framework density 22.472213
#
# number of rings (size 3 to 8) (size 9 to 14) (size 15 to 20)
#    0.000    1.000    1.667    7.500    0.000    2.333 
#    0.000    1.667    0.000    0.500    0.000    3.500 
#    0.000    0.000    0.000    0.000    0.000    0.000 
#
# Total GULP energy -268025.189956 kJ/mol
# GULP energy per Si atom -5583.858124 kJ/mol
# Density = 2.242107 g / cm^3
# Si number density = 22.472213 Si / 1000 Ang^3
#
#
#
# Elastic Constant Matrix: (Units=GPa)
#
#
# Indices 1 2 3 4 5 6 
#
# 1 140.4722 -1.4668 9.5297 0.0000 0.0000 0.0000
# 2 -1.4668 36.9101 10.2672 0.0000 0.0000 0.0000
# 3 9.5297 10.2672 79.8498 0.0000 0.0000 0.0000
# 4 0.0000 0.0000 0.0000 14.6858 0.0000 0.0000
# 5 0.0000 0.0000 0.0000 0.0000 29.1841 0.0000
# 6 0.0000 0.0000 0.0000 0.0000 0.0000 11.5418
#
#
#
# Elastic Compliance Matrix: (Units=1/GPa)
#
#
# Indices 1 2 3 4 5 6 
#
# 1 0.007187 0.000544 -0.000928 0.000000 0.000000 0.000000
# 2 0.000544 0.028139 -0.003683 0.000000 0.000000 0.000000
# 3 -0.000928 -0.003683 0.013108 0.000000 0.000000 0.000000
# 4 0.000000 0.000000 0.000000 0.068093 0.000000 0.000000
# 5 0.000000 0.000000 0.000000 0.000000 0.034265 0.000000
# 6 0.000000 0.000000 0.000000 0.000000 0.000000 0.086641
#
#
# Mechanical properties :
#
#
# Convention : Reuss Voigt Hill
#
# Bulk Modulus (GPa) = 24.81383 32.65471 28.73427
# Shear Modulus (GPa) = 19.30493 27.00915 23.15704
#
# Velocity S-wave (km/s) = 2.93415 3.47059 3.21358
# Velocity P-wave (km/s) = 4.74815 5.53378 5.15595
#
# Compressibility (1/GPa) = 0.04030011
#
# Stress axis : x y z
#
# Youngs Moduli (GPa) = 139.13124 35.53789 76.29044
#
# Poissons Ratio (x) = -0.01932 0.07077
# Poissons Ratio (y) = -0.07564 0.28098
# Poissons Ratio (z) = 0.12907 0.13089
#
# Static dielectric constant tensor:
#      x y z
#    x 1.931380 0.000000 0.000000 
#    y 0.000000 1.824170 0.000000 
#    z 0.000000 0.000000 1.580370 
# 
# From -- ./inp_files/8080.got.cif
#   From: 2010.05.17/outbox.cif.g08.bks.cpg/sg72_5_cif.got.tgz:8080.got - 2010.06.03 17:03:01.
