data_PCOD9528582
_publ_section_title
;
Structure prediction by ZEFSAII (Michael W. Deem and Ramdas Pophale) SiO2 
 PCOD9528582
Probable space group: I B A M
;
_chemical_formula_sum "Si O2"
_cell_formula_units_Z 88
_cell_length_a 9.172856
_cell_length_b 24.264255
_cell_length_c 15.549246
_cell_angle_alpha 90.000000
_cell_angle_beta 90.000000
_cell_angle_gamma 90.000000
_cell_volume 3460.834821
_symmetry_space_group_name_H-M "I B A M"
_symmetry_group_IT_number 72
_symmetry_cell_setting 'orthorhombic'
loop_
_space_group_symop_operation_xyz
x,y,z
-x,-y,z
x,-y,1/2-z
-x,y,1/2-z
-x,-y,-z
x,y,-z
-x,y,1/2+z
x,-y,1/2+z
1/2+x,1/2+y,1/2+z
1/2-x,1/2-y,1/2+z
1/2+x,1/2-y,-z
1/2-x,1/2+y,-z
1/2-x,1/2-y,1/2-z
1/2+x,1/2+y,1/2-z
1/2-x,1/2+y,z
1/2+x,1/2-y,z
loop_
_atom_site_type_symbol
_atom_site_label
_atom_site_fract_x
_atom_site_fract_y
_atom_site_fract_z
Si Si1 0.500000 0.907633 0.250000
Si Si2 0.057526 0.863811 0.155049
Si Si3 0.252349 0.470509 0.171586
Si Si4 0.733507 0.764602 0.648130
Si Si5 0.529105 0.432521 0.500000
Si Si6 0.175925 0.492449 0.000000
Si Si7 0.933291 0.673209 0.597952
O O1 0.595292 0.948594 0.305537
O O2 0.574634 0.869333 0.177563
O O3 0.169424 0.912788 0.168815
O O4 0.147562 0.811113 0.123994
O O5 0.000000 0.849900 0.250000
O O6 0.970867 0.896131 0.079976
O O7 0.326630 0.500000 0.250000
O O8 0.231780 0.511691 0.092207
O O9 0.750000 0.750000 0.750000
O O10 0.575215 0.788584 0.622679
O O11 0.787027 0.709655 0.601158
O O12 0.500000 0.500000 0.500000
O O13 0.713270 0.436194 0.500000
O O14 0.000000 0.500000 0.000000
O O15 0.954533 0.651339 0.500000
#
# Coordination Sequence:
#
# PCOD9528582 Si02
#       7
#     8  16  16  16   8   8  16
#     4  12  23  44  66 100 136 178 233 290 352 432
#     4  11  25  42  74  97 136 186 234 291 364 417
#     4  11  24  42  67  99 139 182 230 290 350 420
#     4  12  23  49  72 104 141 185 236 298 362 440
#     4  10  26  44  68 103 141 184 246 292 350 438
#     4  10  22  42  70  95 131 184 234 284 354 412
#     4  12  26  42  75 100 143 181 234 291 368 426
#
# _framework density 25.427391
#
# number of rings (size 3 to 8) (size 9 to 14) (size 15 to 20)
#    0.000    0.727    3.636    3.000    8.909    0.000 
#    1.636    0.000    0.000    0.000    0.000    0.000 
#    0.000    0.000    0.000    0.000    0.000    0.000 
#
# Total GULP energy -244989.295160 kJ/mol
# GULP energy per Si atom -5567.938526 kJ/mol
# Density = 2.536952 g / cm^3
# Si number density = 25.427391 Si / 1000 Ang^3
#
#
#
# Elastic Constant Matrix: (Units=GPa)
#
#
# Indices 1 2 3 4 5 6 
#
# 1 49.5511 10.3045 1.5595 0.0000 0.0000 0.0000
# 2 10.3045 108.4930 22.8871 0.0000 0.0000 0.0000
# 3 1.5595 22.8871 132.2354 0.0001 0.0000 0.0000
# 4 0.0000 0.0000 0.0001 7.9697 0.0000 0.0000
# 5 0.0000 0.0000 0.0000 0.0000 10.6307 0.0000
# 6 0.0000 0.0000 0.0000 0.0000 0.0000 49.0486
#
#
#
# Elastic Compliance Matrix: (Units=1/GPa)
#
#
# Indices 1 2 3 4 5 6 
#
# 1 0.020589 -0.001976 0.000099 0.000000 0.000000 0.000000
# 2 -0.001976 0.009756 -0.001665 0.000000 0.000000 0.000000
# 3 0.000099 -0.001665 0.007849 0.000000 0.000000 0.000000
# 4 0.000000 0.000000 0.000000 0.125475 0.000000 0.000000
# 5 0.000000 0.000000 0.000000 0.000000 0.094067 0.000000
# 6 0.000000 0.000000 0.000000 0.000000 0.000000 0.020388
#
#
# Mechanical properties :
#
#
# Convention : Reuss Voigt Hill
#
# Bulk Modulus (GPa) = 32.14434 39.97573 36.06004
# Shear Modulus (GPa) = 16.91591 30.56503 23.74047
#
# Velocity S-wave (km/s) = 2.58207 3.47082 3.05890
# Velocity P-wave (km/s) = 4.64311 5.64073 5.16606
#
# Compressibility (1/GPa) = 0.03110968
#
# Stress axis : x y z
#
# Youngs Moduli (GPa) = 48.56939 102.49887 127.39950
#
# Poissons Ratio (x) = 0.20259 -0.01265
# Poissons Ratio (y) = 0.09600 0.21216
# Poissons Ratio (z) = -0.00482 0.17069
#
# Static dielectric constant tensor:
#      x y z
#    x 1.847540 0.000000 0.000000 
#    y 0.000000 1.989640 0.000000 
#    z 0.000000 0.000000 2.740630 
# 
# From -- ./inp_files/20335.got.cif
#   From: 2010.05.17/outbox.cif.g08.bks.cpg/sg72_11_cif.got.tgz:20335.got - 2010.06.03 17:03:01.
