data_PCOD9528247
_publ_section_title
;
Structure prediction by ZEFSAII (Michael W. Deem and Ramdas Pophale) SiO2 
 PCOD9528247
Probable space group: I B A M
;
_chemical_formula_sum "Si O2"
_cell_formula_units_Z 116
_cell_length_a 23.929875
_cell_length_b 8.842696
_cell_length_c 28.545125
_cell_angle_alpha 90.000000
_cell_angle_beta 90.000000
_cell_angle_gamma 90.000000
_cell_volume 6040.280041
_symmetry_space_group_name_H-M "I B A M"
_symmetry_group_IT_number 72
_symmetry_cell_setting 'orthorhombic'
loop_
_space_group_symop_operation_xyz
x,y,z
-x,-y,z
x,-y,1/2-z
-x,y,1/2-z
-x,-y,-z
x,y,-z
-x,y,1/2+z
x,-y,1/2+z
1/2+x,1/2+y,1/2+z
1/2-x,1/2-y,1/2+z
1/2+x,1/2-y,-z
1/2-x,1/2+y,-z
1/2-x,1/2-y,1/2-z
1/2+x,1/2+y,1/2-z
1/2-x,1/2+y,z
1/2+x,1/2-y,z
loop_
_atom_site_type_symbol
_atom_site_label
_atom_site_fract_x
_atom_site_fract_y
_atom_site_fract_z
Si Si1 0.212411 0.781248 0.128451
Si Si2 0.096790 0.692348 0.444056
Si Si3 0.371446 0.847749 0.556492
Si Si4 0.693731 0.167959 0.268052
Si Si5 0.481835 0.667404 0.556890
Si Si6 0.827937 0.873783 0.122598
Si Si7 0.500000 0.500000 0.250000
Si Si8 0.891436 0.137850 0.718645
O O1 0.183154 0.701134 0.084433
O O2 0.190096 0.707304 0.176853
O O3 0.277973 0.745900 0.128365
O O4 0.198364 0.958642 0.123524
O O5 0.099713 0.705871 0.500000
O O6 0.114132 0.521683 0.431857
O O7 0.136219 0.819930 0.421701
O O8 0.032757 0.722841 0.430019
O O9 0.365161 0.836708 0.500000
O O10 0.422419 0.736449 0.571580
O O11 0.750000 0.250000 0.250000
O O12 0.636174 0.220624 0.243862
O O13 0.702471 0.000000 0.250000
O O14 0.500000 0.500000 0.573159
O O15 0.479268 0.661573 0.500000
O O16 0.869020 0.867512 0.166650
O O17 0.457513 0.606584 0.221314
O O18 0.866996 0.000000 0.750000
#
# Coordination Sequence:
#
# PCOD9528247 Si02
#       8
#    16  16  16  16  16  16   4  16
#     4  12  24  39  61  94 125 162 209 258 316 385
#     4  10  22  40  61  87 122 167 213 261 316 375
#     4  10  22  40  61  89 128 166 208 264 318 375
#     4  12  23  39  68  98 130 167 215 267 318 380
#     4   9  17  35  62  88 118 162 213 261 309 370
#     4  12  24  39  64  92 125 165 214 260 319 382
#     4   8  20  44  70  88 130 168 210 246 328 384
#     4  10  21  44  67  93 126 169 206 258 318 380
#
# _framework density 19.204407
#
# number of rings (size 3 to 8) (size 9 to 14) (size 15 to 20)
#    0.414    0.966    2.759    3.310    1.931    3.862 
#    6.207    0.345    0.000    0.000    0.000    0.000 
#    0.000    0.000    0.000    0.000    0.000    0.000 
#
# Total GULP energy -323535.150465 kJ/mol
# GULP energy per Si atom -5578.192249 kJ/mol
# Density = 1.916070 g / cm^3
# Si number density = 19.204407 Si / 1000 Ang^3
#
#
#
# Elastic Constant Matrix: (Units=GPa)
#
#
# Indices 1 2 3 4 5 6 
#
# 1 120.5200 35.1981 27.2347 0.0000 0.0000 0.0000
# 2 35.1981 94.8156 25.7339 0.0000 0.0000 0.0000
# 3 27.2347 25.7339 41.2167 0.0000 0.0000 0.0000
# 4 0.0000 0.0000 0.0000 24.2355 0.0000 0.0000
# 5 0.0000 0.0000 0.0000 0.0000 15.4982 0.0000
# 6 0.0000 0.0000 0.0000 0.0000 0.0000 39.5873
#
#
#
# Elastic Compliance Matrix: (Units=1/GPa)
#
#
# Indices 1 2 3 4 5 6 
#
# 1 0.010171 -0.002350 -0.005253 0.000000 0.000000 0.000000
# 2 -0.002350 0.013242 -0.006715 0.000000 0.000000 0.000000
# 3 -0.005253 -0.006715 0.031926 0.000000 0.000000 0.000000
# 4 0.000000 0.000000 0.000000 0.041262 0.000000 0.000000
# 5 0.000000 0.000000 0.000000 0.000000 0.064524 0.000000
# 6 0.000000 0.000000 0.000000 0.000000 0.000000 0.025261
#
#
# Mechanical properties :
#
#
# Convention : Reuss Voigt Hill
#
# Bulk Modulus (GPa) = 37.45030 48.09841 42.77435
# Shear Modulus (GPa) = 22.32933 27.08991 24.70962
#
# Velocity S-wave (km/s) = 3.41357 3.75988 3.59090
# Velocity P-wave (km/s) = 5.92282 6.62939 6.28604
#
# Compressibility (1/GPa) = 0.02670205
#
# Stress axis : x y z
#
# Youngs Moduli (GPa) = 98.32064 75.51983 31.32273
#
# Poissons Ratio (x) = 0.17746 0.16455
# Poissons Ratio (y) = 0.23104 0.21032
# Poissons Ratio (z) = 0.51652 0.50710
#
# Static dielectric constant tensor:
#      x y z
#    x 1.657400 0.000000 0.000000 
#    y 0.000000 1.789860 0.000000 
#    z 0.000000 0.000000 1.678800 
# 
# From -- ./inp_files/49745.got.cif
#   From: 2010.05.17/outbox.cif.g08.bks.cpg/sg72_25_cif.got.tgz:49745.got - 2010.06.03 17:03:01.
