data_PCOD9528966
_publ_section_title
;
Structure prediction by ZEFSAII (Michael W. Deem and Ramdas Pophale) SiO2 
 PCOD9528966
Probable space group: I B A M
;
_chemical_formula_sum "Si O2"
_cell_formula_units_Z 68
_cell_length_a 14.617947
_cell_length_b 9.340818
_cell_length_c 20.664004
_cell_angle_alpha 90.000000
_cell_angle_beta 90.000000
_cell_angle_gamma 90.000000
_cell_volume 2821.537134
_symmetry_space_group_name_H-M "I B A M"
_symmetry_group_IT_number 72
_symmetry_cell_setting 'orthorhombic'
loop_
_space_group_symop_operation_xyz
x,y,z
-x,-y,z
x,-y,1/2-z
-x,y,1/2-z
-x,-y,-z
x,y,-z
-x,y,1/2+z
x,-y,1/2+z
1/2+x,1/2+y,1/2+z
1/2-x,1/2-y,1/2+z
1/2+x,1/2-y,-z
1/2-x,1/2+y,-z
1/2-x,1/2-y,1/2-z
1/2+x,1/2+y,1/2-z
1/2-x,1/2+y,z
1/2+x,1/2-y,z
loop_
_atom_site_type_symbol
_atom_site_label
_atom_site_fract_x
_atom_site_fract_y
_atom_site_fract_z
Si Si1 0.288481 0.141813 0.500000
Si Si2 0.118354 0.665702 0.000000
Si Si3 0.000000 0.000000 0.000000
Si Si4 0.786288 0.370190 0.796759
Si Si5 0.372458 0.347232 0.606430
Si Si6 0.028008 0.338312 0.362539
O O1 0.183819 0.196059 0.500000
O O2 0.331943 0.216734 0.563168
O O3 0.316490 0.974862 0.500000
O O4 0.051452 0.668144 0.938962
O O5 0.926085 0.949503 0.942755
O O6 0.809716 0.500000 0.750000
O O7 0.750000 0.250000 0.750000
O O8 0.710727 0.409613 0.851416
O O9 0.876088 0.309302 0.830074
O O10 0.448202 0.272842 0.652022
O O11 0.000000 0.500000 0.346655
#
# Coordination Sequence:
#
# PCOD9528966 Si02
#       6
#     8   8   4  16  16  16
#     4  11  23  42  75 112 149 193 238 318 387 439
#     4  12  23  41  78 113 150 188 246 313 382 446
#     4  10  26  46  72 116 150 186 246 316 410 436
#     4  12  30  51  75 108 151 205 257 307 373 454
#     4  11  25  49  74 111 152 191 249 317 387 452
#     4  12  25  48  79 108 145 197 256 303 375 463
#
# _framework density 24.100338000000001
#
# number of rings (size 3 to 8) (size 9 to 14) (size 15 to 20)
#    0.000    0.471    4.706    3.176    3.294    7.059 
#    0.000    0.000    0.000    0.000    0.000    0.000 
#    0.000    0.000    0.000    0.000    0.000    0.000 
#
# Total GULP energy -190137.471937 kJ/mol
# GULP energy per Si atom -5592.278586 kJ/mol
# Density = 2.404548 g / cm^3
# Si number density = 24.100338 Si / 1000 Ang^3
#
#
#
# Elastic Constant Matrix: (Units=GPa)
#
#
# Indices 1 2 3 4 5 6 
#
# 1 115.8105 18.4367 27.5577 0.0000 0.0000 0.0000
# 2 18.4367 47.8534 -3.3052 0.0000 0.0000 0.0000
# 3 27.5577 -3.3052 89.7734 0.0000 0.0000 0.0000
# 4 0.0000 0.0000 0.0000 22.0400 0.0000 0.0000
# 5 0.0000 0.0000 0.0000 0.0000 -3.7469 0.0000
# 6 0.0000 0.0000 0.0000 0.0000 0.0000 46.1258
#
#
#
# Elastic Compliance Matrix: (Units=1/GPa)
#
#
# Indices 1 2 3 4 5 6 
#
# 1 0.010058 -0.004099 -0.003238 0.000000 0.000000 0.000000
# 2 -0.004099 0.022621 0.002091 0.000000 0.000000 0.000000
# 3 -0.003238 0.002091 0.012210 0.000000 0.000000 0.000000
# 4 0.000000 0.000000 0.000000 0.045372 0.000000 0.000000
# 5 0.000000 0.000000 0.000000 0.000000 -0.266886 0.000000
# 6 0.000000 0.000000 0.000000 0.000000 0.000000 0.021680
#
#
# Mechanical properties :
#
#
# Convention : Reuss Voigt Hill
#
# Bulk Modulus (GPa) = 29.07259 37.64617 33.35938
# Shear Modulus (GPa) = -37.59744 26.93364 -5.33190
#
# Velocity S-wave (km/s) = -3.95402 3.34662 -1.48902
# Velocity P-wave (km/s) = 2.95911 5.53061 3.30389
#
# Compressibility (1/GPa) = 0.03439666
#
# Stress axis : x y z
#
# Youngs Moduli (GPa) = 99.42450 44.20732 81.89858
#
# Poissons Ratio (x) = 0.18119 0.26522
# Poissons Ratio (y) = 0.40751 -0.17125
# Poissons Ratio (z) = 0.32197 -0.09244
#
# Static dielectric constant tensor:
#      x y z
#    x 1.962480 0.000000 0.000000 
#    y 0.000000 1.893130 0.000000 
#    z 0.000000 0.000000 1.911980 
# 
# From -- ./inp_files/36698.got.cif
#   From: 2010.05.17/outbox.cif.g08.bks.cpg/sg72_19_cif.got.tgz:36698.got - 2010.06.03 17:03:01.
