data_PCOD9528362
_publ_section_title
;
Structure prediction by ZEFSAII (Michael W. Deem and Ramdas Pophale) SiO2 
 PCOD9528362
Probable space group: I B A M
;
_chemical_formula_sum "Si O2"
_cell_formula_units_Z 64
_cell_length_a 16.600876
_cell_length_b 9.728579
_cell_length_c 14.899419
_cell_angle_alpha 90.000000
_cell_angle_beta 90.000000
_cell_angle_gamma 90.000000
_cell_volume 2406.299878
_symmetry_space_group_name_H-M "I B A M"
_symmetry_group_IT_number 72
_symmetry_cell_setting 'orthorhombic'
loop_
_space_group_symop_operation_xyz
x,y,z
-x,-y,z
x,-y,1/2-z
-x,y,1/2-z
-x,-y,-z
x,y,-z
-x,y,1/2+z
x,-y,1/2+z
1/2+x,1/2+y,1/2+z
1/2-x,1/2-y,1/2+z
1/2+x,1/2-y,-z
1/2-x,1/2+y,-z
1/2-x,1/2-y,1/2-z
1/2+x,1/2+y,1/2-z
1/2-x,1/2+y,z
1/2+x,1/2-y,z
loop_
_atom_site_type_symbol
_atom_site_label
_atom_site_fract_x
_atom_site_fract_y
_atom_site_fract_z
Si Si1 0.166805 0.667745 0.106440
Si Si2 0.751586 0.581227 0.897133
Si Si3 0.992179 0.343527 0.355949
Si Si4 0.085505 0.940420 0.353463
O O1 0.180977 0.516109 0.144527
O O2 0.228154 0.776396 0.147443
O O3 0.077204 0.720813 0.115113
O O4 0.182567 0.657856 0.000000
O O5 0.668155 0.494112 0.896437
O O6 0.774947 0.610128 0.000000
O O7 0.000000 0.500000 0.394665
O O8 0.000000 0.357523 0.250000
O O9 0.924503 0.225581 0.368088
O O10 0.089736 0.000000 0.250000
O O11 0.000000 0.000000 0.387995
#
# Coordination Sequence:
#
# PCOD9528362 Si02
#       4
#    16  16  16  16
#     4  10  22  41  61  89 124 160 199 246 303 360
#     4  10  22  39  61  89 123 159 202 249 300 361
#     4  11  23  40  61  88 124 155 200 253 298 354
#     4  11  20  40  64  85 119 159 203 251 298 351
#
# _framework density 26.596851000000001
#
# number of rings (size 3 to 8) (size 9 to 14) (size 15 to 20)
#    0.000    1.500    5.000    0.000    3.500    2.000 
#    4.500    2.500    0.000    0.000    0.000    0.000 
#    0.000    0.000    0.000    0.000    0.000    0.000 
#
# Total GULP energy -178613.040331 kJ/mol
# GULP energy per Si atom -5581.657510 kJ/mol
# Density = 2.653632 g / cm^3
# Si number density = 26.596851 Si / 1000 Ang^3
#
#
#
# Elastic Constant Matrix: (Units=GPa)
#
#
# Indices 1 2 3 4 5 6 
#
# 1 64.2782 -10.3657 1.6782 0.0000 0.0000 0.0000
# 2 -10.3657 145.9969 11.1097 0.0000 0.0000 0.0000
# 3 1.6782 11.1097 85.6141 0.0000 0.0000 0.0000
# 4 0.0000 0.0000 0.0000 0.0209 0.0000 0.0000
# 5 0.0000 0.0000 0.0000 0.0000 28.6521 0.0000
# 6 0.0000 0.0000 0.0000 0.0000 0.0000 50.7003
#
#
#
# Elastic Compliance Matrix: (Units=1/GPa)
#
#
# Indices 1 2 3 4 5 6 
#
# 1 0.015755 0.001154 -0.000459 0.000000 0.000000 0.000000
# 2 0.001154 0.007002 -0.000931 0.000000 0.000000 0.000000
# 3 -0.000459 -0.000931 0.011810 0.000000 0.000000 0.000000
# 4 0.000000 0.000000 0.000000 47.961066 0.000000 0.000000
# 5 0.000000 0.000000 0.000000 0.000000 0.034901 0.000000
# 6 0.000000 0.000000 0.000000 0.000000 0.000000 0.019724
#
#
# Mechanical properties :
#
#
# Convention : Reuss Voigt Hill
#
# Bulk Modulus (GPa) = 29.32961 33.41483 31.37222
# Shear Modulus (GPa) = 0.10403 35.43912 17.77157
#
# Velocity S-wave (km/s) = 0.19799 3.65424 2.58773
# Velocity P-wave (km/s) = 3.33222 5.51320 4.55516
#
# Compressibility (1/GPa) = 0.03409523
#
# Stress axis : x y z
#
# Youngs Moduli (GPa) = 63.47044 142.81175 84.67292
#
# Poissons Ratio (x) = -0.16474 0.03882
# Poissons Ratio (y) = -0.07321 0.07885
# Poissons Ratio (z) = 0.02910 0.13299
#
# Static dielectric constant tensor:
#      x y z
#    x 2.047580 0.000000 0.000000 
#    y 0.000000 2.245740 0.000000 
#    z 0.000000 0.000000 1.908870 
# 
# From -- ./inp_files/35571.got.cif
#   From: 2010.05.17/outbox.cif.g08.bks.cpg/sg72_18_cif.got.tgz:35571.got - 2010.06.03 17:03:01.
