data_PCOD9528472
_publ_section_title
;
Structure prediction by ZEFSAII (Michael W. Deem and Ramdas Pophale) SiO2 
 PCOD9528472
Probable space group: I B A M
;
_chemical_formula_sum "Si O2"
_cell_formula_units_Z 72
_cell_length_a 9.324850
_cell_length_b 15.457751
_cell_length_c 24.884141
_cell_angle_alpha 90.000000
_cell_angle_beta 90.000000
_cell_angle_gamma 90.000000
_cell_volume 3586.830179
_symmetry_space_group_name_H-M "I B A M"
_symmetry_group_IT_number 72
_symmetry_cell_setting 'orthorhombic'
loop_
_space_group_symop_operation_xyz
x,y,z
-x,-y,z
x,-y,1/2-z
-x,y,1/2-z
-x,-y,-z
x,y,-z
-x,y,1/2+z
x,-y,1/2+z
1/2+x,1/2+y,1/2+z
1/2-x,1/2-y,1/2+z
1/2+x,1/2-y,-z
1/2-x,1/2+y,-z
1/2-x,1/2-y,1/2-z
1/2+x,1/2+y,1/2-z
1/2-x,1/2+y,z
1/2+x,1/2-y,z
loop_
_atom_site_type_symbol
_atom_site_label
_atom_site_fract_x
_atom_site_fract_y
_atom_site_fract_z
Si Si1 0.708512 0.791498 0.500000
Si Si2 0.404047 0.136624 0.000000
Si Si3 0.500000 0.000000 0.413128
Si Si4 0.244388 0.881213 0.113982
Si Si5 0.848454 0.681467 0.220822
Si Si6 0.500000 0.500000 0.659579
Si Si7 0.781883 0.000000 0.750000
O O1 0.536979 0.797330 0.500000
O O2 0.763586 0.693853 0.500000
O O3 0.758511 0.840825 0.445731
O O4 0.426911 0.073799 0.050328
O O5 0.368099 0.045206 0.383947
O O6 0.306372 0.812326 0.157374
O O7 0.091080 0.926247 0.128243
O O8 0.750000 0.750000 0.250000
O O9 0.807099 0.582087 0.231996
O O10 0.000000 0.694989 0.250000
O O11 0.618974 0.535010 0.701302
#
# Coordination Sequence:
#
# PCOD9528472 Si02
#       7
#     8   8   8  16  16   8   8
#     4  10  22  41  60  97 130 166 216 270 336 385
#     4   9  20  40  62  85 130 166 212 271 316 389
#     4   9  20  40  61  90 122 174 219 253 320 404
#     4  10  23  41  65  95 129 170 218 268 330 394
#     4  11  26  42  67  98 130 172 221 273 330 394
#     4   9  20  37  66  90 126 169 212 273 316 378
#     4   9  21  44  64  89 133 170 224 261 333 388
#
# _framework density 20.073433999999999
#
# number of rings (size 3 to 8) (size 9 to 14) (size 15 to 20)
#    0.000    2.222    0.000    1.000   12.444    5.778 
#    0.000    0.000    0.000    0.000    0.000    0.000 
#    0.000    0.000    0.000    0.000    0.000    0.000 
#
# Total GULP energy -200460.291662 kJ/mol
# GULP energy per Si atom -5568.341435 kJ/mol
# Density = 2.002775 g / cm^3
# Si number density = 20.073434 Si / 1000 Ang^3
#
#
#
# Elastic Constant Matrix: (Units=GPa)
#
#
# Indices 1 2 3 4 5 6 
#
# 1 98.6423 45.3874 51.4379 0.0000 0.0000 0.0000
# 2 45.3874 82.1998 38.1253 0.0000 0.0000 0.0000
# 3 51.4379 38.1253 144.9637 0.0000 0.0000 0.0000
# 4 0.0000 0.0000 0.0000 25.4926 0.0000 0.0000
# 5 0.0000 0.0000 0.0000 0.0000 10.5154 0.0000
# 6 0.0000 0.0000 0.0000 0.0000 0.0000 31.6982
#
#
#
# Elastic Compliance Matrix: (Units=1/GPa)
#
#
# Indices 1 2 3 4 5 6 
#
# 1 0.015077 -0.006655 -0.003599 0.000000 0.000000 0.000000
# 2 -0.006655 0.016794 -0.002055 0.000000 0.000000 0.000000
# 3 -0.003599 -0.002055 0.008716 0.000000 0.000000 0.000000
# 4 0.000000 0.000000 0.000000 0.039227 0.000000 0.000000
# 5 0.000000 0.000000 0.000000 0.000000 0.095098 0.000000
# 6 0.000000 0.000000 0.000000 0.000000 0.000000 0.031548
#
#
# Mechanical properties :
#
#
# Convention : Reuss Voigt Hill
#
# Bulk Modulus (GPa) = 62.63113 66.18966 64.41040
# Shear Modulus (GPa) = 21.15048 26.26492 23.70770
#
# Velocity S-wave (km/s) = 3.24953 3.62116 3.44037
# Velocity P-wave (km/s) = 6.73409 7.10838 6.92377
#
# Compressibility (1/GPa) = 0.01596650
#
# Stress axis : x y z
#
# Youngs Moduli (GPa) = 66.32677 59.54679 114.73199
#
# Poissons Ratio (x) = 0.39631 0.41297
# Poissons Ratio (y) = 0.44143 0.23579
# Poissons Ratio (z) = 0.23874 0.12238
#
# Static dielectric constant tensor:
#      x y z
#    x 1.733830 0.000000 0.000000 
#    y 0.000000 1.672480 0.000000 
#    z 0.000000 0.000000 1.859720 
# 
# From -- ./inp_files/44735.got.cif
#   From: 2010.05.17/outbox.cif.g08.bks.cpg/sg72_23_cif.got.tgz:44735.got - 2010.06.03 17:03:01.
