data_PCOD9528832
_publ_section_title
;
Structure prediction by ZEFSAII (Michael W. Deem and Ramdas Pophale) SiO2 
 PCOD9528832
Probable space group: I B A M
;
_chemical_formula_sum "Si O2"
_cell_formula_units_Z 60
_cell_length_a 5.357648
_cell_length_b 18.331441
_cell_length_c 24.415077
_cell_angle_alpha 90.000000
_cell_angle_beta 90.000000
_cell_angle_gamma 90.000000
_cell_volume 2397.887924
_symmetry_space_group_name_H-M "I B A M"
_symmetry_group_IT_number 72
_symmetry_cell_setting 'orthorhombic'
loop_
_space_group_symop_operation_xyz
x,y,z
-x,-y,z
x,-y,1/2-z
-x,y,1/2-z
-x,-y,-z
x,y,-z
-x,y,1/2+z
x,-y,1/2+z
1/2+x,1/2+y,1/2+z
1/2-x,1/2-y,1/2+z
1/2+x,1/2-y,-z
1/2-x,1/2+y,-z
1/2-x,1/2-y,1/2-z
1/2+x,1/2+y,1/2-z
1/2-x,1/2+y,z
1/2+x,1/2-y,z
loop_
_atom_site_type_symbol
_atom_site_label
_atom_site_fract_x
_atom_site_fract_y
_atom_site_fract_z
Si Si1 0.548476 0.781198 0.186423
Si Si2 0.732042 0.300137 0.000000
Si Si3 0.500000 0.500000 0.250000
Si Si4 0.449737 0.413176 0.059075
Si Si5 0.141254 0.427591 0.837541
O O1 0.500000 0.758790 0.250000
O O2 0.793969 0.748221 0.160852
O O3 0.551714 0.867923 0.183519
O O4 0.682839 0.357889 0.050278
O O5 0.492544 0.243874 0.000000
O O6 0.672544 0.548990 0.210820
O O7 0.500000 0.500000 0.063883
O O8 0.293016 0.395427 0.111958
O O9 0.314324 0.404847 0.000000
O O10 0.000000 0.500000 0.855824
#
# Coordination Sequence:
#
# PCOD9528832 Si02
#       5
#    16   8   4  16  16
#     4  10  24  43  68  98 141 190 239 297 365 437
#     4  10  23  44  75 108 148 186 238 306 361 440
#     4  12  26  44  66 106 148 180 264 302 362 420
#     4   9  22  47  71 105 142 188 240 292 373 437
#     4  12  26  43  73 104 142 195 245 312 361 438
#
# _framework density 25.022020999999999
#
# number of rings (size 3 to 8) (size 9 to 14) (size 15 to 20)
#    0.800    0.800    1.333    2.000    9.333    4.800 
#    0.000    0.000    0.000    0.000    0.000    0.000 
#    0.000    0.000    0.000    0.000    0.000    0.000 
#
# Total GULP energy -167703.892876 kJ/mol
# GULP energy per Si atom -5590.129763 kJ/mol
# Density = 2.496507 g / cm^3
# Si number density = 25.022021 Si / 1000 Ang^3
#
#
#
# Elastic Constant Matrix: (Units=GPa)
#
#
# Indices 1 2 3 4 5 6 
#
# 1 90.0320 43.5442 6.4725 0.0000 0.0000 0.0000
# 2 43.5442 139.5866 -8.5326 0.0000 0.0000 0.0000
# 3 6.4725 -8.5326 100.8363 0.0000 0.0000 0.0000
# 4 0.0000 0.0000 0.0000 4.0202 0.0000 0.0000
# 5 0.0000 0.0000 0.0000 0.0000 8.4076 0.0000
# 6 0.0000 0.0000 0.0000 0.0000 0.0000 47.6796
#
#
#
# Elastic Compliance Matrix: (Units=1/GPa)
#
#
# Indices 1 2 3 4 5 6 
#
# 1 0.013225 -0.004199 -0.001204 0.000000 0.000000 0.000000
# 2 -0.004199 0.008535 0.000992 0.000000 0.000000 0.000000
# 3 -0.001204 0.000992 0.010078 0.000000 0.000000 0.000000
# 4 0.000000 0.000000 0.000000 0.248742 0.000000 0.000000
# 5 0.000000 0.000000 0.000000 0.000000 0.118939 0.000000
# 6 0.000000 0.000000 0.000000 0.000000 0.000000 0.020973
#
#
# Mechanical properties :
#
#
# Convention : Reuss Voigt Hill
#
# Bulk Modulus (GPa) = 43.45109 45.93589 44.69349
# Shear Modulus (GPa) = 11.44201 31.28621 21.36411
#
# Velocity S-wave (km/s) = 2.14072 3.53986 2.92518
# Velocity P-wave (km/s) = 4.84903 5.92499 5.41381
#
# Compressibility (1/GPa) = 0.02301438
#
# Stress axis : x y z
#
# Youngs Moduli (GPa) = 75.61660 117.17111 99.22333
#
# Poissons Ratio (x) = 0.49201 0.11948
# Poissons Ratio (y) = 0.31752 -0.09840
# Poissons Ratio (z) = 0.09106 -0.11620
#
# Static dielectric constant tensor:
#      x y z
#    x 1.996850 0.000000 0.000000 
#    y 0.000000 1.965730 0.000000 
#    z 0.000000 0.000000 1.958510 
# 
# From -- ./inp_files/46482.got.cif
#   From: 2010.05.17/outbox.cif.g08.bks.cpg/sg72_24_cif.got.tgz:46482.got - 2010.06.03 17:03:01.
