data_PCOD9528821
_publ_section_title
;
Structure prediction by ZEFSAII (Michael W. Deem and Ramdas Pophale) SiO2 
 PCOD9528821
Probable space group: I B A M
;
_chemical_formula_sum "Si O2"
_cell_formula_units_Z 64
_cell_length_a 10.420181
_cell_length_b 16.791550
_cell_length_c 16.028443
_cell_angle_alpha 90.000000
_cell_angle_beta 90.000000
_cell_angle_gamma 90.000000
_cell_volume 2804.512544
_symmetry_space_group_name_H-M "I B A M"
_symmetry_group_IT_number 72
_symmetry_cell_setting 'orthorhombic'
loop_
_space_group_symop_operation_xyz
x,y,z
-x,-y,z
x,-y,1/2-z
-x,y,1/2-z
-x,-y,-z
x,y,-z
-x,y,1/2+z
x,-y,1/2+z
1/2+x,1/2+y,1/2+z
1/2-x,1/2-y,1/2+z
1/2+x,1/2-y,-z
1/2-x,1/2+y,-z
1/2-x,1/2-y,1/2-z
1/2+x,1/2+y,1/2-z
1/2-x,1/2+y,z
1/2+x,1/2-y,z
loop_
_atom_site_type_symbol
_atom_site_label
_atom_site_fract_x
_atom_site_fract_y
_atom_site_fract_z
Si Si1 0.532017 0.585491 0.346094
Si Si2 0.016622 0.405328 0.101538
Si Si3 0.218761 0.844240 0.091212
Si Si4 0.722425 0.189626 0.668899
O O1 0.500000 0.500000 0.386842
O O2 0.500000 0.577151 0.250000
O O3 0.424697 0.646317 0.376798
O O4 0.673956 0.620070 0.344995
O O5 0.915295 0.351931 0.153595
O O6 0.000000 0.500000 0.110962
O O7 0.160397 0.385957 0.134436
O O8 0.005661 0.387459 0.000000
O O9 0.246354 0.751418 0.094388
O O10 0.218751 0.879951 0.000000
O O11 0.750000 0.250000 0.750000
#
# Coordination Sequence:
#
# PCOD9528821 Si02
#       4
#    16  16  16  16
#     4  11  24  44  67  98 138 178 224 277 340 409
#     4  10  23  44  68  98 136 180 232 287 343 409
#     4  11  24  42  68 100 134 179 230 282 342 411
#     4  12  24  42  67 100 135 178 223 282 347 412
#
# _framework density 22.820364999999999
#
# number of rings (size 3 to 8) (size 9 to 14) (size 15 to 20)
#    0.000    1.000    2.500    3.750    0.000    4.500 
#    0.000    1.250    0.000    0.000    0.000    0.000 
#    0.000    0.000    0.000    0.000    0.000    0.000 
#
# Total GULP energy -178255.052316 kJ/mol
# GULP energy per Si atom -5570.470385 kJ/mol
# Density = 2.276842 g / cm^3
# Si number density = 22.820365 Si / 1000 Ang^3
#
#
#
# Elastic Constant Matrix: (Units=GPa)
#
#
# Indices 1 2 3 4 5 6 
#
# 1 102.2729 -2.2371 17.3309 0.0000 0.0000 0.0000
# 2 -2.2371 74.8593 4.2817 0.0000 0.0000 0.0000
# 3 17.3309 4.2817 59.6672 0.0000 0.0000 0.0000
# 4 0.0000 0.0000 0.0000 8.4697 0.0000 0.0000
# 5 0.0000 0.0000 0.0000 0.0000 16.6754 0.0000
# 6 0.0000 0.0000 0.0000 0.0000 0.0000 100.3550
#
#
#
# Elastic Compliance Matrix: (Units=1/GPa)
#
#
# Indices 1 2 3 4 5 6 
#
# 1 0.010301 0.000481 -0.003027 0.000000 0.000000 0.000000
# 2 0.000481 0.013436 -0.001104 0.000000 0.000000 0.000000
# 3 -0.003027 -0.001104 0.017718 0.000000 0.000000 0.000000
# 4 0.000000 0.000000 0.000000 0.118068 0.000000 0.000000
# 5 0.000000 0.000000 0.000000 0.000000 0.059969 0.000000
# 6 0.000000 0.000000 0.000000 0.000000 0.000000 0.009965
#
#
# Mechanical properties :
#
#
# Convention : Reuss Voigt Hill
#
# Bulk Modulus (GPa) = 29.27741 30.61671 29.94706
# Shear Modulus (GPa) = 20.14988 39.59495 29.87241
#
# Velocity S-wave (km/s) = 2.97472 4.16994 3.62197
# Velocity P-wave (km/s) = 4.96548 6.05227 5.53561
#
# Compressibility (1/GPa) = 0.03415603
#
# Stress axis : x y z
#
# Youngs Moduli (GPa) = 97.07639 74.42744 56.43996
#
# Poissons Ratio (x) = -0.03580 0.17082
# Poissons Ratio (y) = -0.04669 0.06230
# Poissons Ratio (z) = 0.29381 0.08216
#
# Static dielectric constant tensor:
#      x y z
#    x 1.828920 0.000000 0.000000 
#    y 0.000000 1.555310 0.000000 
#    z 0.000000 0.000000 1.927770 
# 
# From -- ./inp_files/35411.got.cif
#   From: 2010.05.17/outbox.cif.g08.bks.cpg/sg72_18_cif.got.tgz:35411.got - 2010.06.03 17:03:01.
