data_PCOD9528918
_publ_section_title
;
Structure prediction by ZEFSAII (Michael W. Deem and Ramdas Pophale) SiO2 
 PCOD9528918
Probable space group: I B A M
;
_chemical_formula_sum "Si O2"
_cell_formula_units_Z 112
_cell_length_a 30.425538
_cell_length_b 11.179812
_cell_length_c 15.334850
_cell_angle_alpha 90.000000
_cell_angle_beta 90.000000
_cell_angle_gamma 90.000000
_cell_volume 5216.176751
_symmetry_space_group_name_H-M "I B A M"
_symmetry_group_IT_number 72
_symmetry_cell_setting 'orthorhombic'
loop_
_space_group_symop_operation_xyz
x,y,z
-x,-y,z
x,-y,1/2-z
-x,y,1/2-z
-x,-y,-z
x,y,-z
-x,y,1/2+z
x,-y,1/2+z
1/2+x,1/2+y,1/2+z
1/2-x,1/2-y,1/2+z
1/2+x,1/2-y,-z
1/2-x,1/2+y,-z
1/2-x,1/2-y,1/2-z
1/2+x,1/2+y,1/2-z
1/2-x,1/2+y,z
1/2+x,1/2-y,z
loop_
_atom_site_type_symbol
_atom_site_label
_atom_site_fract_x
_atom_site_fract_y
_atom_site_fract_z
Si Si1 0.349701 0.873142 0.712602
Si Si2 0.777268 0.045421 0.902443
Si Si3 0.599324 0.321590 0.789293
Si Si4 0.020393 0.343331 0.842864
Si Si5 0.760250 0.702483 0.345078
Si Si6 0.933802 0.585180 0.596037
Si Si7 0.381058 0.442894 0.105186
O O1 0.361498 0.776192 0.786504
O O2 0.311967 0.828254 0.648784
O O3 0.396151 0.892152 0.665302
O O4 0.335169 0.000000 0.750000
O O5 0.752419 0.173416 0.896913
O O6 0.828577 0.072313 0.886326
O O7 0.763279 0.926264 0.851112
O O8 0.772094 0.000505 0.000000
O O9 0.554091 0.261451 0.821000
O O10 0.609238 0.423984 0.859480
O O11 0.598007 0.367228 0.687235
O O12 0.046757 0.453095 0.885523
O O13 0.000000 0.378109 0.750000
O O14 0.975820 0.326703 0.897646
O O15 0.750000 0.750000 0.250000
O O16 0.914630 0.592023 0.500000
O O17 0.392070 0.424643 0.000000
#
# Coordination Sequence:
#
# PCOD9528918 Si02
#       7
#    16  16  16  16  16  16  16
#     4  12  22  41  65 100 136 175 227 281 347 422
#     4  11  24  44  66  96 139 181 227 292 357 418
#     4  11  22  41  73  93 134 179 224 284 347 407
#     4  11  20  40  64  92 132 175 220 269 345 412
#     4  12  25  42  70 100 133 180 239 287 348 426
#     4  11  23  37  62  99 139 179 223 276 343 422
#     4  10  24  45  69  97 130 182 238 285 348 420
#
# _framework density 21.471665000000002
#
# number of rings (size 3 to 8) (size 9 to 14) (size 15 to 20)
#    0.000    0.857    4.286    4.286    2.000    2.857 
#    0.000    1.429    0.000    0.857    0.000    0.000 
#    0.000    0.000    0.000    0.000    0.000    0.000 
#
# Total GULP energy -312013.469396 kJ/mol
# GULP energy per Si atom -5571.669096 kJ/mol
# Density = 2.142279 g / cm^3
# Si number density = 21.471665 Si / 1000 Ang^3
#
#
#
# Elastic Constant Matrix: (Units=GPa)
#
#
# Indices 1 2 3 4 5 6 
#
# 1 38.5865 14.4181 16.6588 0.0000 0.0000 0.0000
# 2 14.4181 137.6712 34.3420 0.0000 0.0000 0.0000
# 3 16.6588 34.3420 85.6248 0.0000 0.0000 0.0000
# 4 0.0000 0.0000 0.0000 15.9740 0.0000 0.0000
# 5 0.0000 0.0000 0.0000 0.0000 15.4081 0.0000
# 6 0.0000 0.0000 0.0000 0.0000 0.0000 27.9888
#
#
#
# Elastic Compliance Matrix: (Units=1/GPa)
#
#
# Indices 1 2 3 4 5 6 
#
# 1 0.028684 -0.001791 -0.004862 0.000000 0.000000 0.000000
# 2 -0.001791 0.008183 -0.002934 0.000000 0.000000 0.000000
# 3 -0.004862 -0.002934 0.013801 0.000000 0.000000 0.000000
# 4 0.000000 0.000000 0.000000 0.062602 0.000000 0.000000
# 5 0.000000 0.000000 0.000000 0.000000 0.064901 0.000000
# 6 0.000000 0.000000 0.000000 0.000000 0.000000 0.035729
#
#
# Mechanical properties :
#
#
# Convention : Reuss Voigt Hill
#
# Bulk Modulus (GPa) = 31.75137 43.63559 37.69348
# Shear Modulus (GPa) = 20.52778 24.97174 22.74976
#
# Velocity S-wave (km/s) = 3.09534 3.41399 3.25857
# Velocity P-wave (km/s) = 5.25305 5.99224 5.63478
#
# Compressibility (1/GPa) = 0.03149471
#
# Stress axis : x y z
#
# Youngs Moduli (GPa) = 34.86236 122.20407 72.45638
#
# Poissons Ratio (x) = 0.21889 0.35230
# Poissons Ratio (y) = 0.06244 0.21255
# Poissons Ratio (z) = 0.16951 0.35849
#
# Static dielectric constant tensor:
#      x y z
#    x 1.852410 0.000000 0.000000 
#    y 0.000000 1.869160 0.000000 
#    z 0.000000 0.000000 1.906710 
# 
# From -- ./inp_files/26352.got.cif
#   From: 2010.05.17/outbox.cif.g08.bks.cpg/sg72_14_cif.got.tgz:26352.got - 2010.06.03 17:03:01.
