data_PCOD9528405
_publ_section_title
;
Structure prediction by ZEFSAII (Michael W. Deem and Ramdas Pophale) SiO2 
 PCOD9528405
Probable space group: I B A M
;
_chemical_formula_sum "Si O2"
_cell_formula_units_Z 80
_cell_length_a 19.403918
_cell_length_b 24.807077
_cell_length_c 8.234294
_cell_angle_alpha 90.000000
_cell_angle_beta 90.000000
_cell_angle_gamma 90.000000
_cell_volume 3963.614372
_symmetry_space_group_name_H-M "I B A M"
_symmetry_group_IT_number 72
_symmetry_cell_setting 'orthorhombic'
loop_
_space_group_symop_operation_xyz
x,y,z
-x,-y,z
x,-y,1/2-z
-x,y,1/2-z
-x,-y,-z
x,y,-z
-x,y,1/2+z
x,-y,1/2+z
1/2+x,1/2+y,1/2+z
1/2-x,1/2-y,1/2+z
1/2+x,1/2-y,-z
1/2-x,1/2+y,-z
1/2-x,1/2-y,1/2-z
1/2+x,1/2+y,1/2-z
1/2-x,1/2+y,z
1/2+x,1/2-y,z
loop_
_atom_site_type_symbol
_atom_site_label
_atom_site_fract_x
_atom_site_fract_y
_atom_site_fract_z
Si Si1 0.171447 0.245843 0.690146
Si Si2 0.179336 0.640366 0.314383
Si Si3 0.195702 0.062632 0.303868
Si Si4 0.079613 0.145068 0.303630
Si Si5 0.078580 0.443459 0.305933
O O1 0.173360 0.236163 0.500000
O O2 0.250000 0.250000 0.750000
O O3 0.150692 0.306852 0.725541
O O4 0.122730 0.198036 0.756968
O O5 0.195935 0.655201 0.500000
O O6 0.244628 0.605388 0.248372
O O7 0.117065 0.599972 0.299299
O O8 0.200101 0.062074 0.500000
O O9 0.123802 0.091903 0.255704
O O10 0.202050 0.000000 0.250000
O O11 0.079455 0.146435 0.500000
O O12 0.000000 0.145081 0.250000
O O13 0.110143 0.500000 0.250000
O O14 0.084822 0.436310 0.500000
O O15 0.000000 0.443531 0.250000
#
# Coordination Sequence:
#
# PCOD9528405 Si02
#       5
#    16  16  16  16  16
#     4  11  22  40  64  90 122 159 203 251 307 369
#     4  11  22  39  62  90 125 160 203 259 309 366
#     4  10  22  40  61  89 124 161 205 255 305 365
#     4  10  23  43  63  90 125 161 203 255 307 367
#     4  11  22  38  58  85 120 163 207 253 308 366
#
# _framework density 20.183599000000001
#
# number of rings (size 3 to 8) (size 9 to 14) (size 15 to 20)
#    0.000    1.400    2.000    4.200    0.000    6.800 
#    0.000    4.000    0.000    0.000    0.000    0.000 
#    0.000    0.000    0.000    0.000    0.000    0.000 
#
# Total GULP energy -222933.360790 kJ/mol
# GULP energy per Si atom -5573.334020 kJ/mol
# Density = 2.013766 g / cm^3
# Si number density = 20.183599 Si / 1000 Ang^3
#
#
#
# Elastic Constant Matrix: (Units=GPa)
#
#
# Indices 1 2 3 4 5 6 
#
# 1 85.7823 41.4456 7.3144 0.0000 0.0000 0.0000
# 2 41.4456 115.6513 9.8386 0.0000 0.0000 0.0000
# 3 7.3144 9.8386 47.3411 0.0000 0.0000 0.0000
# 4 0.0000 0.0000 0.0000 31.3750 0.0000 0.0000
# 5 0.0000 0.0000 0.0000 0.0000 27.5406 0.0000
# 6 0.0000 0.0000 0.0000 0.0000 0.0000 26.0217
#
#
#
# Elastic Compliance Matrix: (Units=1/GPa)
#
#
# Indices 1 2 3 4 5 6 
#
# 1 0.014160 -0.004976 -0.001154 0.000000 0.000000 0.000000
# 2 -0.004976 0.010551 -0.001424 0.000000 0.000000 0.000000
# 3 -0.001154 -0.001424 0.021597 0.000000 0.000000 0.000000
# 4 0.000000 0.000000 0.000000 0.031873 0.000000 0.000000
# 5 0.000000 0.000000 0.000000 0.000000 0.036310 0.000000
# 6 0.000000 0.000000 0.000000 0.000000 0.000000 0.038429
#
#
# Mechanical properties :
#
#
# Convention : Reuss Voigt Hill
#
# Bulk Modulus (GPa) = 32.05029 40.66357 36.35693
# Shear Modulus (GPa) = 28.02238 29.66587 28.84413
#
# Velocity S-wave (km/s) = 3.73013 3.83796 3.78443
# Velocity P-wave (km/s) = 5.87075 6.31114 6.09492
#
# Compressibility (1/GPa) = 0.03120097
#
# Stress axis : x y z
#
# Youngs Moduli (GPa) = 70.62094 94.77608 46.30180
#
# Poissons Ratio (x) = 0.47164 0.05341
# Poissons Ratio (y) = 0.35144 0.06593
# Poissons Ratio (z) = 0.08147 0.13495
#
# Static dielectric constant tensor:
#      x y z
#    x 1.596200 0.000000 0.000000 
#    y 0.000000 2.090000 0.000000 
#    z 0.000000 0.000000 1.748350 
# 
# From -- ./inp_files/4755.got.cif
#   From: 2010.05.17/outbox.cif.g08.bks.cpg/sg72_3_cif.got.tgz:4755.got - 2010.06.03 17:03:01.
