data_PCOD9528717
_publ_section_title
;
Structure prediction by ZEFSAII (Michael W. Deem and Ramdas Pophale) SiO2 
 PCOD9528717
Probable space group: I B A M
;
_chemical_formula_sum "Si O2"
_cell_formula_units_Z 48
_cell_length_a 25.691611
_cell_length_b 5.216457
_cell_length_c 15.835471
_cell_angle_alpha 90.000000
_cell_angle_beta 90.000000
_cell_angle_gamma 90.000000
_cell_volume 2122.256902
_symmetry_space_group_name_H-M "I B A M"
_symmetry_group_IT_number 72
_symmetry_cell_setting 'orthorhombic'
loop_
_space_group_symop_operation_xyz
x,y,z
-x,-y,z
x,-y,1/2-z
-x,y,1/2-z
-x,-y,-z
x,y,-z
-x,y,1/2+z
x,-y,1/2+z
1/2+x,1/2+y,1/2+z
1/2-x,1/2-y,1/2+z
1/2+x,1/2-y,-z
1/2-x,1/2+y,-z
1/2-x,1/2-y,1/2-z
1/2+x,1/2+y,1/2-z
1/2-x,1/2+y,z
1/2+x,1/2-y,z
loop_
_atom_site_type_symbol
_atom_site_label
_atom_site_fract_x
_atom_site_fract_y
_atom_site_fract_z
Si Si1 0.377658 0.014913 0.402113
Si Si2 0.059890 0.980758 0.851475
Si Si3 0.269809 0.815556 0.344875
O O1 0.362839 0.003547 0.500000
O O2 0.418365 0.791291 0.380901
O O3 0.326359 0.941110 0.349455
O O4 0.403867 0.287620 0.383276
O O5 0.060830 0.000000 0.750000
O O6 0.000000 0.000000 0.879794
O O7 0.250000 0.750000 0.250000
O O8 0.267505 0.532241 0.384915
#
# Coordination Sequence:
#
# PCOD9528717 Si02
#       3
#    16  16  16
#     4  12  26  43  71 106 142 182 234 297 357 417
#     4  11  26  46  72 102 138 187 237 287 350 434
#     4  10  23  40  65  98 132 185 227 282 340 417
#
# _framework density 22.617429999999999
#
# number of rings (size 3 to 8) (size 9 to 14) (size 15 to 20)
#    0.000    1.000    0.000    5.000   14.000    8.000 
#    0.000    0.000    0.000    0.000    0.000    0.000 
#    0.000    0.000    0.000    0.000    0.000    0.000 
#
# Total GULP energy -134204.774921 kJ/mol
# GULP energy per Si atom -5591.865622 kJ/mol
# Density = 2.256595 g / cm^3
# Si number density = 22.617430 Si / 1000 Ang^3
#
#
#
# Elastic Constant Matrix: (Units=GPa)
#
#
# Indices 1 2 3 4 5 6 
#
# 1 92.0544 -31.6623 8.8491 0.0000 0.0000 0.0000
# 2 -31.6623 84.5931 -22.7204 0.0000 0.0000 0.0000
# 3 8.8491 -22.7204 85.0316 0.0000 0.0000 0.0000
# 4 0.0000 0.0000 0.0000 -2.0740 0.0000 0.0000
# 5 0.0000 0.0000 0.0000 0.0000 -988.2699 0.0000
# 6 0.0000 0.0000 0.0000 0.0000 0.0000 51.6877
#
#
#
# Elastic Compliance Matrix: (Units=1/GPa)
#
#
# Indices 1 2 3 4 5 6 
#
# 1 0.012469 0.004652 -0.000055 0.000000 0.000000 0.000000
# 2 0.004652 0.014471 0.003383 0.000000 0.000000 0.000000
# 3 -0.000055 0.003383 0.012670 0.000000 0.000000 0.000000
# 4 0.000000 0.000000 0.000000 -0.482149 0.000000 0.000000
# 5 0.000000 0.000000 0.000000 0.000000 -0.001012 0.000000
# 6 0.000000 0.000000 0.000000 0.000000 0.000000 0.019347
#
#
# Mechanical properties :
#
#
# Convention : Reuss Voigt Hill
#
# Bulk Modulus (GPa) = 17.99540 18.95688 18.47614
# Shear Modulus (GPa) = -11.85843 -167.25042 -89.55442
#
# Velocity S-wave (km/s) = -2.29225 -8.60861 -6.29931
# Velocity P-wave (km/s) = 0.98377 9.50847 6.68742
#
# Compressibility (1/GPa) = 0.05556975
#
# Stress axis : x y z
#
# Youngs Moduli (GPa) = 80.20205 69.10348 78.92772
#
# Poissons Ratio (x) = -0.32148 0.00430
# Poissons Ratio (y) = -0.37311 -0.26697
# Poissons Ratio (z) = 0.00437 -0.23374
#
# Static dielectric constant tensor:
#      x y z
#    x 1.852410 0.000000 0.000000 
#    y 0.000000 1.913290 0.000000 
#    z 0.000000 0.000000 1.904100 
# 
# From -- ./inp_files/17341.got.cif
#   From: 2010.05.17/outbox.cif.g08.bks.cpg/sg72_9_cif.got.tgz:17341.got - 2010.06.03 17:03:01.
