data_PCOD9528043
_publ_section_title
;
Structure prediction by ZEFSAII (Michael W. Deem and Ramdas Pophale) SiO2 
 PCOD9528043
Probable space group: I B A M
;
_chemical_formula_sum "Si O2"
_cell_formula_units_Z 96
_cell_length_a 12.836787
_cell_length_b 21.442918
_cell_length_c 16.405296
_cell_angle_alpha 90.000000
_cell_angle_beta 90.000000
_cell_angle_gamma 90.000000
_cell_volume 4515.691772
_symmetry_space_group_name_H-M "I B A M"
_symmetry_group_IT_number 72
_symmetry_cell_setting 'orthorhombic'
loop_
_space_group_symop_operation_xyz
x,y,z
-x,-y,z
x,-y,1/2-z
-x,y,1/2-z
-x,-y,-z
x,y,-z
-x,y,1/2+z
x,-y,1/2+z
1/2+x,1/2+y,1/2+z
1/2-x,1/2-y,1/2+z
1/2+x,1/2-y,-z
1/2-x,1/2+y,-z
1/2-x,1/2-y,1/2-z
1/2+x,1/2+y,1/2-z
1/2-x,1/2+y,z
1/2+x,1/2-y,z
loop_
_atom_site_type_symbol
_atom_site_label
_atom_site_fract_x
_atom_site_fract_y
_atom_site_fract_z
Si Si1 0.439453 0.203072 0.404635
Si Si2 0.753805 0.849646 0.674198
Si Si3 0.768635 0.083233 0.589934
Si Si4 0.083887 0.605482 0.193144
Si Si5 0.120355 0.023660 0.339856
Si Si6 0.597921 0.676680 0.297570
O O1 0.466005 0.209167 0.500000
O O2 0.320640 0.176922 0.395608
O O3 0.519982 0.158373 0.356302
O O4 0.438470 0.267718 0.355024
O O5 0.668679 0.870105 0.741835
O O6 0.832180 0.906620 0.652241
O O7 0.827433 0.801760 0.723441
O O8 0.762811 0.110555 0.500000
O O9 0.654465 0.072174 0.626797
O O10 0.838878 0.127959 0.647158
O O11 0.823832 0.017168 0.592300
O O12 0.000000 0.571480 0.250000
O O13 0.155930 0.000000 0.250000
O O14 0.000000 0.000000 0.344368
O O15 0.500000 0.646897 0.250000
#
# Coordination Sequence:
#
# PCOD9528043 Si02
#       6
#    16  16  16  16  16  16
#     4  11  23  39  59  89 128 162 204 262 315 357
#     4  10  21  39  64  90 117 162 211 249 302 380
#     4  11  23  39  64  97 128 161 207 266 320 364
#     4   9  19  38  61  85 118 165 210 244 299 370
#     4  11  21  40  67  92 121 164 206 253 311 378
#     4  11  21  39  63  89 122 167 213 251 305 387
#
# _framework density 21.259201000000001
#
# number of rings (size 3 to 8) (size 9 to 14) (size 15 to 20)
#    0.000    1.500    3.333    4.000    0.000    2.333 
#    0.000   12.500    0.000    5.000    0.000    0.000 
#    0.000    0.000    0.000    0.000    0.000    0.000 
#
# Total GULP energy -267379.830139 kJ/mol
# GULP energy per Si atom -5570.413128 kJ/mol
# Density = 2.121081 g / cm^3
# Si number density = 21.259201 Si / 1000 Ang^3
#
#
#
# Elastic Constant Matrix: (Units=GPa)
#
#
# Indices 1 2 3 4 5 6 
#
# 1 125.3391 25.2272 59.3716 0.0000 0.0000 0.0000
# 2 25.2272 68.4880 38.1490 -0.0009 0.0000 0.0003
# 3 59.3716 38.1490 97.1231 -0.0026 0.0000 0.0011
# 4 0.0000 -0.0009 -0.0026 -498.2115 0.0007 0.0027
# 5 0.0000 0.0000 0.0000 0.0007 -2.6709 0.0000
# 6 0.0000 0.0003 0.0011 0.0027 0.0000 141.7621
#
#
#
# Elastic Compliance Matrix: (Units=1/GPa)
#
#
# Indices 1 2 3 4 5 6 
#
# 1 0.011239 -0.000401 -0.006713 0.000000 0.000000 0.000000
# 2 -0.000401 0.018705 -0.007102 0.000000 0.000000 0.000000
# 3 -0.006713 -0.007102 0.017190 0.000000 0.000000 0.000000
# 4 0.000000 0.000000 0.000000 -0.002007 -0.000001 0.000000
# 5 0.000000 0.000000 0.000000 -0.000001 -0.374402 0.000000
# 6 0.000000 0.000000 0.000000 0.000000 0.000000 0.007054
#
#
# Mechanical properties :
#
#
# Convention : Reuss Voigt Hill
#
# Bulk Modulus (GPa) = 53.47119 59.60509 56.53814
# Shear Modulus (GPa) = -17.38789 -60.61059 -38.99924
#
# Velocity S-wave (km/s) = -2.86300 -5.34529 -4.28771
# Velocity P-wave (km/s) = 3.77857 3.16197 1.46280
#
# Compressibility (1/GPa) = 0.01870166
#
# Stress axis : x y z
#
# Youngs Moduli (GPa) = 88.97711 53.46258 58.17477
#
# Poissons Ratio (x) = 0.02141 0.39053
# Poissons Ratio (y) = 0.03564 0.41317
# Poissons Ratio (z) = 0.59731 0.37970
#
# Static dielectric constant tensor:
#      x y z
#    x 1.830510 0.000000 0.000000 
#    y 0.000000 1.795840 0.000000 
#    z 0.000000 0.000000 1.782950 
# 
# From -- ./inp_files/29486.got.cif
#   From: 2010.05.17/outbox.cif.g08.bks.cpg/sg72_15_cif.got.tgz:29486.got - 2010.06.03 17:03:01.
