data_PCOD9528117
_publ_section_title
;
Structure prediction by ZEFSAII (Michael W. Deem and Ramdas Pophale) SiO2 
 PCOD9528117
Probable space group: I B A M
;
_chemical_formula_sum "Si O2"
_cell_formula_units_Z 116
_cell_length_a 12.081608
_cell_length_b 29.927493
_cell_length_c 13.537053
_cell_angle_alpha 90.000000
_cell_angle_beta 90.000000
_cell_angle_gamma 90.000000
_cell_volume 4894.622561
_symmetry_space_group_name_H-M "I B A M"
_symmetry_group_IT_number 72
_symmetry_cell_setting 'orthorhombic'
loop_
_space_group_symop_operation_xyz
x,y,z
-x,-y,z
x,-y,1/2-z
-x,y,1/2-z
-x,-y,-z
x,y,-z
-x,y,1/2+z
x,-y,1/2+z
1/2+x,1/2+y,1/2+z
1/2-x,1/2-y,1/2+z
1/2+x,1/2-y,-z
1/2-x,1/2+y,-z
1/2-x,1/2-y,1/2-z
1/2+x,1/2+y,1/2-z
1/2-x,1/2+y,z
1/2+x,1/2-y,z
loop_
_atom_site_type_symbol
_atom_site_label
_atom_site_fract_x
_atom_site_fract_y
_atom_site_fract_z
Si Si1 0.089561 0.159981 0.660956
Si Si2 0.873926 0.200519 0.607881
Si Si3 0.600172 0.028126 0.150293
Si Si4 0.987778 0.623789 0.116855
Si Si5 0.322132 0.564653 0.676010
Si Si6 0.000000 0.000000 0.750000
Si Si7 0.177811 0.298055 0.878795
Si Si8 0.252727 0.890261 0.618376
O O1 0.134147 0.111154 0.630795
O O2 0.203395 0.187738 0.663656
O O3 0.000000 0.152039 0.750000
O O4 0.003756 0.189843 0.599550
O O5 0.823310 0.206955 0.500000
O O6 0.855387 0.248478 0.656635
O O7 0.815378 0.154780 0.639687
O O8 0.556957 0.078151 0.161747
O O9 0.724722 0.039193 0.117459
O O10 0.500000 0.000000 0.100479
O O11 0.615804 0.000000 0.250000
O O12 0.916830 0.666213 0.151183
O O13 0.119224 0.623147 0.128612
O O14 0.966835 0.619842 0.000000
O O15 0.423311 0.531527 0.685306
O O16 0.281239 0.576889 0.790249
O O17 0.183474 0.299979 0.000000
O O18 0.235022 0.903476 0.500000
#
# Coordination Sequence:
#
# PCOD9528117 Si02
#       8
#    16  16  16  16  16   4  16  16
#     4  12  23  42  63  94 135 169 217 268 318 378
#     4  10  22  40  66  94 127 175 218 257 311 378
#     4  11  22  39  65  91 121 161 209 263 329 389
#     4  10  22  40  64  96 129 162 208 266 323 385
#     4  12  23  43  64  93 127 168 216 264 330 385
#     4  12  24  40  68  88 120 168 216 272 316 388
#     4  10  23  42  66  96 129 171 217 259 316 384
#     4  10  21  40  64  91 129 168 208 260 320 383
#
# _framework density 23.699477999999999
#
# number of rings (size 3 to 8) (size 9 to 14) (size 15 to 20)
#    0.000    1.241    4.138    2.069    1.931    0.828 
#    0.000    1.034    0.000    2.069    0.000    0.000 
#    0.000    0.000    0.000    0.000    0.000    0.000 
#
# Total GULP energy -323164.198986 kJ/mol
# GULP energy per Si atom -5571.796534 kJ/mol
# Density = 2.364554 g / cm^3
# Si number density = 23.699478 Si / 1000 Ang^3
#
#
#
# Elastic Constant Matrix: (Units=GPa)
#
#
# Indices 1 2 3 4 5 6 
#
# 1 183.1772 75.9359 16.5366 -0.0001 0.0000 0.0000
# 2 75.9359 150.2563 34.0735 0.0003 0.0000 0.0000
# 3 16.5366 34.0735 73.2695 -0.0032 0.0001 0.0004
# 4 -0.0001 0.0003 -0.0032 259.2817 0.0016 0.0006
# 5 0.0000 0.0000 0.0001 0.0016 -32.0907 0.0000
# 6 0.0000 0.0000 0.0004 0.0006 0.0000 45.8372
#
#
#
# Elastic Compliance Matrix: (Units=1/GPa)
#
#
# Indices 1 2 3 4 5 6 
#
# 1 0.006906 -0.003507 0.000072 0.000000 0.000000 0.000000
# 2 -0.003507 0.009220 -0.003496 0.000000 0.000000 0.000000
# 3 0.000072 -0.003496 0.015258 0.000000 0.000000 0.000000
# 4 0.000000 0.000000 0.000000 0.003857 0.000000 0.000000
# 5 0.000000 0.000000 0.000000 0.000000 -0.031162 0.000000
# 6 0.000000 0.000000 0.000000 0.000000 0.000000 0.021816
#
#
# Mechanical properties :
#
#
# Convention : Reuss Voigt Hill
#
# Bulk Modulus (GPa) = 57.06928 73.31057 65.18992
# Shear Modulus (GPa) = 109.65138 73.28280 91.46709
#
# Velocity S-wave (km/s) = 6.80940 5.56676 6.21919
# Velocity P-wave (km/s) = 9.27127 8.50406 8.89594
#
# Compressibility (1/GPa) = 0.01752256
#
# Stress axis : x y z
#
# Youngs Moduli (GPa) = 144.79398 108.45588 65.53952
#
# Poissons Ratio (x) = 0.38032 -0.00472
# Poissons Ratio (y) = 0.50774 0.22915
# Poissons Ratio (z) = -0.01042 0.37921
#
# Static dielectric constant tensor:
#      x y z
#    x 1.960610 0.000000 0.000000 
#    y 0.000000 1.881840 0.000000 
#    z 0.000000 0.000000 1.992550 
# 
# From -- ./inp_files/29709.got.cif
#   From: 2010.05.17/outbox.cif.g08.bks.cpg/sg72_15_cif.got.tgz:29709.got - 2010.06.03 17:03:01.
