data_PCOD9528207
_publ_section_title
;
Structure prediction by ZEFSAII (Michael W. Deem and Ramdas Pophale) SiO2 
 PCOD9528207
Probable space group: I B A M
;
_chemical_formula_sum "Si O2"
_cell_formula_units_Z 88
_cell_length_a 16.901506
_cell_length_b 12.713802
_cell_length_c 20.471179
_cell_angle_alpha 90.000000
_cell_angle_beta 90.000000
_cell_angle_gamma 90.000000
_cell_volume 4398.896090
_symmetry_space_group_name_H-M "I B A M"
_symmetry_group_IT_number 72
_symmetry_cell_setting 'orthorhombic'
loop_
_space_group_symop_operation_xyz
x,y,z
-x,-y,z
x,-y,1/2-z
-x,y,1/2-z
-x,-y,-z
x,y,-z
-x,y,1/2+z
x,-y,1/2+z
1/2+x,1/2+y,1/2+z
1/2-x,1/2-y,1/2+z
1/2+x,1/2-y,-z
1/2-x,1/2+y,-z
1/2-x,1/2-y,1/2-z
1/2+x,1/2+y,1/2-z
1/2-x,1/2+y,z
1/2+x,1/2-y,z
loop_
_atom_site_type_symbol
_atom_site_label
_atom_site_fract_x
_atom_site_fract_y
_atom_site_fract_z
Si Si1 0.334952 0.036269 0.500000
Si Si2 0.176185 0.632793 0.112885
Si Si3 0.521963 0.389698 0.113303
Si Si4 0.769914 0.772689 0.500000
Si Si5 0.672783 0.601787 0.294887
Si Si6 0.909823 0.752172 0.000000
Si Si7 0.423370 0.251976 0.793523
O O1 0.254153 0.105569 0.500000
O O2 0.402845 0.125778 0.500000
O O3 0.336876 0.964366 0.564097
O O4 0.186519 0.732905 0.064511
O O5 0.254477 0.620244 0.156575
O O6 0.105849 0.656041 0.162717
O O7 0.500000 0.500000 0.080637
O O8 0.594820 0.413908 0.161326
O O9 0.452407 0.344375 0.158238
O O10 0.548377 0.300833 0.062710
O O11 0.683309 0.715425 0.500000
O O12 0.687289 0.500000 0.250000
O O13 0.648212 0.701528 0.249940
O O14 0.500000 0.226264 0.750000
#
# Coordination Sequence:
#
# PCOD9528207 Si02
#       7
#     8  16  16   8  16   8  16
#     4   9  23  42  66  93 131 169 228 275 322 379
#     4  11  22  43  67  95 129 177 220 271 331 387
#     4  11  21  40  65  98 131 167 211 272 342 389
#     4   9  21  40  66  93 125 163 221 279 316 377
#     4  11  21  37  66  93 134 168 209 272 330 392
#     4  10  21  42  64  91 130 169 212 279 313 394
#     4  10  24  40  63  98 135 169 221 267 326 407
#
# _framework density 20.005019000000001
#
# number of rings (size 3 to 8) (size 9 to 14) (size 15 to 20)
#    0.545    1.091    3.636    0.818    2.545    1.455 
#    6.545    1.818    0.000    0.000    0.000    0.000 
#    0.000    0.000    0.000    0.000    0.000    0.000 
#
# Total GULP energy -245579.816457 kJ/mol
# GULP energy per Si atom -5581.359465 kJ/mol
# Density = 1.995949 g / cm^3
# Si number density = 20.005019 Si / 1000 Ang^3
#
#
#
# Elastic Constant Matrix: (Units=GPa)
#
#
# Indices 1 2 3 4 5 6 
#
# 1 54.4103 37.1630 41.1110 0.0000 0.0000 0.0000
# 2 37.1630 111.6533 61.5484 0.0000 0.0000 0.0000
# 3 41.1110 61.5484 127.9949 0.0000 0.0000 0.0000
# 4 0.0000 0.0000 0.0000 18.2251 0.0000 0.0000
# 5 0.0000 0.0000 0.0000 0.0000 12.0955 0.0000
# 6 0.0000 0.0000 0.0000 0.0000 0.0000 7.6277
#
#
#
# Elastic Compliance Matrix: (Units=1/GPa)
#
#
# Indices 1 2 3 4 5 6 
#
# 1 0.026653 -0.005650 -0.005844 0.000000 0.000000 0.000000
# 2 -0.005650 0.013384 -0.004621 0.000000 0.000000 0.000000
# 3 -0.005844 -0.004621 0.011912 0.000000 0.000000 0.000000
# 4 0.000000 0.000000 0.000000 0.054870 0.000000 0.000000
# 5 0.000000 0.000000 0.000000 0.000000 0.082675 0.000000
# 6 0.000000 0.000000 0.000000 0.000000 0.000000 0.131101
#
#
# Mechanical properties :
#
#
# Convention : Reuss Voigt Hill
#
# Bulk Modulus (GPa) = 50.71179 63.74483 57.22831
# Shear Modulus (GPa) = 13.91210 17.87206 15.89208
#
# Velocity S-wave (km/s) = 2.63996 2.99219 2.82158
# Velocity P-wave (km/s) = 5.89042 6.62353 6.26771
#
# Compressibility (1/GPa) = 0.01971928
#
# Stress axis : x y z
#
# Youngs Moduli (GPa) = 37.51861 74.71416 83.94808
#
# Poissons Ratio (x) = 0.42213 0.49059
# Poissons Ratio (y) = 0.21198 0.38795
# Poissons Ratio (z) = 0.21926 0.34528
#
# Static dielectric constant tensor:
#      x y z
#    x 1.708430 0.000000 0.000000 
#    y 0.000000 1.702640 0.000000 
#    z 0.000000 0.000000 1.695750 
# 
# From -- ./inp_files/38927.got.cif
#   From: 2010.05.17/outbox.cif.g08.bks.cpg/sg72_20_cif.got.tgz:38927.got - 2010.06.03 17:03:01.
