data_PCOD9528373
_publ_section_title
;
Structure prediction by ZEFSAII (Michael W. Deem and Ramdas Pophale) SiO2 
 PCOD9528373
Probable space group: I B A M
;
_chemical_formula_sum "Si O2"
_cell_formula_units_Z 64
_cell_length_a 24.537957
_cell_length_b 12.726047
_cell_length_c 10.774649
_cell_angle_alpha 90.000000
_cell_angle_beta 90.000000
_cell_angle_gamma 90.000000
_cell_volume 3364.612509
_symmetry_space_group_name_H-M "I B A M"
_symmetry_group_IT_number 72
_symmetry_cell_setting 'orthorhombic'
loop_
_space_group_symop_operation_xyz
x,y,z
-x,-y,z
x,-y,1/2-z
-x,y,1/2-z
-x,-y,-z
x,y,-z
-x,y,1/2+z
x,-y,1/2+z
1/2+x,1/2+y,1/2+z
1/2-x,1/2-y,1/2+z
1/2+x,1/2-y,-z
1/2-x,1/2+y,-z
1/2-x,1/2-y,1/2-z
1/2+x,1/2+y,1/2-z
1/2-x,1/2+y,z
1/2+x,1/2-y,z
loop_
_atom_site_type_symbol
_atom_site_label
_atom_site_fract_x
_atom_site_fract_y
_atom_site_fract_z
Si Si1 0.582595 0.428717 0.135709
Si Si2 0.820543 0.004701 0.500000
Si Si3 0.805883 0.558901 0.500000
Si Si4 0.935938 0.711468 0.746360
Si Si5 0.132542 0.500000 0.750000
Si Si6 0.629518 0.272236 0.500000
O O1 0.563657 0.500000 0.250000
O O2 0.647506 0.445054 0.116965
O O3 0.571854 0.307165 0.158630
O O4 0.560668 0.461943 0.000000
O O5 0.838884 0.882803 0.500000
O O6 0.757830 0.032853 0.500000
O O7 0.831987 0.513426 0.625908
O O8 0.824940 0.680667 0.500000
O O9 0.903982 0.603696 0.768986
O O10 0.909846 0.756921 0.618697
O O11 0.000000 0.688586 0.750000
#
# Coordination Sequence:
#
# PCOD9528373 Si02
#       6
#    16   8   8  16   8   8
#     4  10  22  39  63  94 126 156 212 251 307 383
#     4  10  22  41  64  89 128 159 198 264 317 362
#     4  10  24  39  66  87 121 169 203 257 321 360
#     4  11  23  41  64  89 126 170 204 262 315 359
#     4  10  25  42  60  94 124 158 225 256 296 386
#     4  10  22  42  58  94 126 157 214 256 303 388
#
# _framework density 19.021508000000001
#
# number of rings (size 3 to 8) (size 9 to 14) (size 15 to 20)
#    0.750    1.000    2.500    0.375    5.250    2.500 
#    0.000   11.250    0.000    0.000    0.000    0.000 
#    0.000    0.000    0.000    0.000    0.000    0.000 
#
# Total GULP energy -178366.541006 kJ/mol
# GULP energy per Si atom -5573.954406 kJ/mol
# Density = 1.897821 g / cm^3
# Si number density = 19.021508 Si / 1000 Ang^3
#
#
#
# Elastic Constant Matrix: (Units=GPa)
#
#
# Indices 1 2 3 4 5 6 
#
# 1 145.4001 27.8161 22.1176 0.0000 0.0000 0.0000
# 2 27.8161 59.9591 9.4386 0.0000 0.0000 0.0000
# 3 22.1176 9.4386 94.8506 0.0000 0.0000 0.0000
# 4 0.0000 0.0000 0.0000 98.8838 0.0000 0.0000
# 5 0.0000 0.0000 0.0000 0.0000 29.1361 0.0000
# 6 0.0000 0.0000 0.0000 0.0000 0.0000 51.8624
#
#
#
# Elastic Compliance Matrix: (Units=1/GPa)
#
#
# Indices 1 2 3 4 5 6 
#
# 1 0.007744 -0.003361 -0.001471 0.000000 0.000000 0.000000
# 2 -0.003361 0.018402 -0.001047 0.000000 0.000000 0.000000
# 3 -0.001471 -0.001047 0.010990 0.000000 0.000000 0.000000
# 4 0.000000 0.000000 0.000000 0.010113 0.000000 0.000000
# 5 0.000000 0.000000 0.000000 0.000000 0.034322 0.000000
# 6 0.000000 0.000000 0.000000 0.000000 0.000000 0.019282
#
#
# Mechanical properties :
#
#
# Convention : Reuss Voigt Hill
#
# Bulk Modulus (GPa) = 39.40594 46.55049 42.97822
# Shear Modulus (GPa) = 41.29768 52.03230 46.66499
#
# Velocity S-wave (km/s) = 4.66457 5.23582 4.95843
# Velocity P-wave (km/s) = 7.05496 7.81521 7.44479
#
# Compressibility (1/GPa) = 0.02537688
#
# Stress axis : x y z
#
# Youngs Moduli (GPa) = 129.12546 54.34127 90.98991
#
# Poissons Ratio (x) = 0.18265 0.13388
# Poissons Ratio (y) = 0.43401 0.09531
# Poissons Ratio (z) = 0.19000 0.05692
#
# Static dielectric constant tensor:
#      x y z
#    x 1.656590 0.000000 0.000000 
#    y 0.000000 1.039310 0.000000 
#    z 0.000000 0.000000 1.702500 
# 
# From -- ./inp_files/11407.got.cif
#   From: 2010.05.17/outbox.cif.g08.bks.cpg/sg72_6_cif.got.tgz:11407.got - 2010.06.03 17:03:01.
