data_PCOD9528872
_publ_section_title
;
Structure prediction by ZEFSAII (Michael W. Deem and Ramdas Pophale) SiO2 
 PCOD9528872
Probable space group: I B A M
;
_chemical_formula_sum "Si O2"
_cell_formula_units_Z 64
_cell_length_a 18.780945
_cell_length_b 15.996027
_cell_length_c 9.741510
_cell_angle_alpha 90.000000
_cell_angle_beta 90.000000
_cell_angle_gamma 90.000000
_cell_volume 2926.549337
_symmetry_space_group_name_H-M "I B A M"
_symmetry_group_IT_number 72
_symmetry_cell_setting 'orthorhombic'
loop_
_space_group_symop_operation_xyz
x,y,z
-x,-y,z
x,-y,1/2-z
-x,y,1/2-z
-x,-y,-z
x,y,-z
-x,y,1/2+z
x,-y,1/2+z
1/2+x,1/2+y,1/2+z
1/2-x,1/2-y,1/2+z
1/2+x,1/2-y,-z
1/2-x,1/2+y,-z
1/2-x,1/2-y,1/2-z
1/2+x,1/2+y,1/2-z
1/2-x,1/2+y,z
1/2+x,1/2-y,z
loop_
_atom_site_type_symbol
_atom_site_label
_atom_site_fract_x
_atom_site_fract_y
_atom_site_fract_z
Si Si1 0.315005 0.907214 0.000000
Si Si2 0.089613 0.082878 0.500000
Si Si3 0.276102 0.159468 0.786132
Si Si4 0.221369 0.955428 0.500000
Si Si5 0.000000 0.500000 0.250000
Si Si6 0.500000 0.500000 0.750000
Si Si7 0.037877 0.384386 0.000000
Si Si8 0.892187 0.714808 0.500000
O O1 0.282305 0.887351 0.855348
O O2 0.302898 0.007295 0.000000
O O3 0.384180 0.847818 0.000000
O O4 0.046553 0.055782 0.640221
O O5 0.105152 0.183410 0.500000
O O6 0.161473 0.026218 0.500000
O O7 0.250000 0.250000 0.750000
O O8 0.219660 0.106339 0.872244
O O9 0.348453 0.176871 0.871121
O O10 0.960699 0.441024 0.361040
O O11 0.971129 0.324114 0.000000
#
# Coordination Sequence:
#
# PCOD9528872 Si02
#       8
#     8   8  16   8   4   4   8   8
#     4  12  25  39  71 104 138 192 249 291 372 433
#     4  11  26  52  77 108 145 191 248 308 370 443
#     4  11  25  45  67 107 143 190 247 310 369 434
#     4  11  26  44  76 104 147 193 245 307 368 451
#     4  10  24  40  66  86 140 192 228 280 360 412
#     4  10  28  48  78 110 136 192 254 306 364 444
#     4  11  25  42  65 100 143 186 235 294 343 453
#     4  11  26  47  70 103 151 192 238 302 383 429
#
# _framework density 21.868759000000001
#
# number of rings (size 3 to 8) (size 9 to 14) (size 15 to 20)
#    0.000    1.000    0.000    5.250   17.500    3.000 
#    4.500    0.000    0.000    0.000    0.000    0.000 
#    0.000    0.000    0.000    0.000    0.000    0.000 
#
# Total GULP energy -178289.148810 kJ/mol
# GULP energy per Si atom -5571.535900 kJ/mol
# Density = 2.181899 g / cm^3
# Si number density = 21.868759 Si / 1000 Ang^3
#
#
#
# Elastic Constant Matrix: (Units=GPa)
#
#
# Indices 1 2 3 4 5 6 
#
# 1 93.0039 44.2441 42.5097 0.0000 0.0000 0.0000
# 2 44.2441 145.1596 50.4730 0.0000 0.0000 0.0000
# 3 42.5097 50.4730 190.1767 0.0000 0.0000 0.0000
# 4 0.0000 0.0000 0.0000 28.3624 0.0000 0.0000
# 5 0.0000 0.0000 0.0000 0.0000 23.2931 0.0000
# 6 0.0000 0.0000 0.0000 0.0000 0.0000 13.9454
#
#
#
# Elastic Compliance Matrix: (Units=1/GPa)
#
#
# Indices 1 2 3 4 5 6 
#
# 1 0.013288 -0.003324 -0.002088 0.000000 0.000000 0.000000
# 2 -0.003324 0.008421 -0.001492 0.000000 0.000000 0.000000
# 3 -0.002088 -0.001492 0.006121 0.000000 0.000000 0.000000
# 4 0.000000 0.000000 0.000000 0.035258 0.000000 0.000000
# 5 0.000000 0.000000 0.000000 0.000000 0.042931 0.000000
# 6 0.000000 0.000000 0.000000 0.000000 0.000000 0.071708
#
#
# Mechanical properties :
#
#
# Convention : Reuss Voigt Hill
#
# Bulk Modulus (GPa) = 71.31749 78.08820 74.70285
# Shear Modulus (GPa) = 25.48305 32.52775 29.00540
#
# Velocity S-wave (km/s) = 3.41731 3.86088 3.64585
# Velocity P-wave (km/s) = 6.94644 7.46058 7.20810
#
# Compressibility (1/GPa) = 0.01402181
#
# Stress axis : x y z
#
# Youngs Moduli (GPa) = 75.25606 118.75245 163.37362
#
# Poissons Ratio (x) = 0.39475 0.34112
# Poissons Ratio (y) = 0.25016 0.24373
# Poissons Ratio (z) = 0.15714 0.17716
#
# Static dielectric constant tensor:
#      x y z
#    x 2.003300 0.000000 0.000000 
#    y 0.000000 1.592670 0.000000 
#    z 0.000000 0.000000 1.748620 
# 
# From -- ./inp_files/5476.got.cif
#   From: 2010.05.17/outbox.cif.g08.bks.cpg/sg72_3_cif.got.tgz:5476.got - 2010.06.03 17:03:01.
