data_PCOD9528874
_publ_section_title
;
Structure prediction by ZEFSAII (Michael W. Deem and Ramdas Pophale) SiO2 
 PCOD9528874
Probable space group: I B A M
;
_chemical_formula_sum "Si O2"
_cell_formula_units_Z 72
_cell_length_a 15.563607
_cell_length_b 9.425803
_cell_length_c 25.088828
_cell_angle_alpha 90.000000
_cell_angle_beta 90.000000
_cell_angle_gamma 90.000000
_cell_volume 3680.518361
_symmetry_space_group_name_H-M "I B A M"
_symmetry_group_IT_number 72
_symmetry_cell_setting 'orthorhombic'
loop_
_space_group_symop_operation_xyz
x,y,z
-x,-y,z
x,-y,1/2-z
-x,y,1/2-z
-x,-y,-z
x,y,-z
-x,y,1/2+z
x,-y,1/2+z
1/2+x,1/2+y,1/2+z
1/2-x,1/2-y,1/2+z
1/2+x,1/2-y,-z
1/2-x,1/2+y,-z
1/2-x,1/2-y,1/2-z
1/2+x,1/2+y,1/2-z
1/2-x,1/2+y,z
1/2+x,1/2-y,z
loop_
_atom_site_type_symbol
_atom_site_label
_atom_site_fract_x
_atom_site_fract_y
_atom_site_fract_z
Si Si1 0.000000 0.500000 0.610922
Si Si2 0.628794 0.891168 0.700403
Si Si3 0.845347 0.342627 0.937019
Si Si4 0.221084 0.061650 0.622233
Si Si5 0.406653 0.572300 0.198753
O O1 0.931970 0.434190 0.651548
O O2 0.942997 0.609443 0.576770
O O3 0.722243 0.887075 0.672903
O O4 0.594769 0.736189 0.714395
O O5 0.625106 0.000000 0.750000
O O6 0.819060 0.198195 0.906707
O O7 0.782138 0.467416 0.915757
O O8 0.835507 0.325060 0.000000
O O9 0.147736 0.960213 0.646282
O O10 0.500000 0.500000 0.192490
O O11 0.364446 0.500000 0.250000
#
# Coordination Sequence:
#
# PCOD9528874 Si02
#       5
#     8  16  16  16  16
#     4  10  24  40  68  92 130 168 218 270 324 394
#     4  11  24  40  65  96 132 173 215 260 331 402
#     4  11  23  43  68  94 126 173 224 277 328 380
#     4  11  23  42  66  92 131 169 218 273 325 392
#     4  11  25  39  62  94 133 170 210 264 325 393
#
# _framework density 19.562462
#
# number of rings (size 3 to 8) (size 9 to 14) (size 15 to 20)
#    0.000    1.111    2.222    3.333   12.444    1.778 
#    0.000    0.000    0.000    2.667    0.000    0.000 
#    0.000    0.000    0.000    0.000    0.000    0.000 
#
# Total GULP energy -200951.205978 kJ/mol
# GULP energy per Si atom -5581.977944 kJ/mol
# Density = 1.951794 g / cm^3
# Si number density = 19.562462 Si / 1000 Ang^3
#
#
#
# Elastic Constant Matrix: (Units=GPa)
#
#
# Indices 1 2 3 4 5 6 
#
# 1 106.7868 41.7831 58.0913 0.0000 0.0000 0.0000
# 2 41.7831 148.2679 65.5859 0.0000 0.0000 0.0000
# 3 58.0913 65.5859 118.1601 0.0000 0.0000 0.0000
# 4 0.0000 0.0000 0.0000 29.7956 0.0000 0.0000
# 5 0.0000 0.0000 0.0000 0.0000 34.5752 0.0000
# 6 0.0000 0.0000 0.0000 0.0000 0.0000 29.5740
#
#
#
# Elastic Compliance Matrix: (Units=1/GPa)
#
#
# Indices 1 2 3 4 5 6 
#
# 1 0.012918 -0.001102 -0.005739 0.000000 0.000000 0.000000
# 2 -0.001102 0.009033 -0.004473 0.000000 0.000000 0.000000
# 3 -0.005739 -0.004473 0.013767 0.000000 0.000000 0.000000
# 4 0.000000 0.000000 0.000000 0.033562 0.000000 0.000000
# 5 0.000000 0.000000 0.000000 0.000000 0.028922 0.000000
# 6 0.000000 0.000000 0.000000 0.000000 0.000000 0.033814
#
#
# Mechanical properties :
#
#
# Convention : Reuss Voigt Hill
#
# Bulk Modulus (GPa) = 76.38530 78.23729 77.31129
# Shear Modulus (GPa) = 31.44521 32.63924 32.04223
#
# Velocity S-wave (km/s) = 4.01362 4.08911 4.05154
# Velocity P-wave (km/s) = 7.78528 7.89778 7.84173
#
# Compressibility (1/GPa) = 0.01309152
#
# Stress axis : x y z
#
# Youngs Moduli (GPa) = 77.41382 110.70068 72.63627
#
# Poissons Ratio (x) = 0.12194 0.41688
# Poissons Ratio (y) = 0.08527 0.32487
# Poissons Ratio (z) = 0.44430 0.49511
#
# Static dielectric constant tensor:
#      x y z
#    x 1.767310 0.000000 0.000000 
#    y 0.000000 1.652170 0.000000 
#    z 0.000000 0.000000 1.677820 
# 
# From -- ./inp_files/42066.got.cif
#   From: 2010.05.17/outbox.cif.g08.bks.cpg/sg72_22_cif.got.tgz:42066.got - 2010.06.03 17:03:01.
