data_PCOD9528690
_publ_section_title
;
Structure prediction by ZEFSAII (Michael W. Deem and Ramdas Pophale) SiO2 
 PCOD9528690
Probable space group: I B A M
;
_chemical_formula_sum "Si O2"
_cell_formula_units_Z 84
_cell_length_a 20.984692
_cell_length_b 12.056984
_cell_length_c 17.281913
_cell_angle_alpha 90.000000
_cell_angle_beta 90.000000
_cell_angle_gamma 90.000000
_cell_volume 4372.533026
_symmetry_space_group_name_H-M "I B A M"
_symmetry_group_IT_number 72
_symmetry_cell_setting 'orthorhombic'
loop_
_space_group_symop_operation_xyz
x,y,z
-x,-y,z
x,-y,1/2-z
-x,y,1/2-z
-x,-y,-z
x,y,-z
-x,y,1/2+z
x,-y,1/2+z
1/2+x,1/2+y,1/2+z
1/2-x,1/2-y,1/2+z
1/2+x,1/2-y,-z
1/2-x,1/2+y,-z
1/2-x,1/2-y,1/2-z
1/2+x,1/2+y,1/2-z
1/2-x,1/2+y,z
1/2+x,1/2-y,z
loop_
_atom_site_type_symbol
_atom_site_label
_atom_site_fract_x
_atom_site_fract_y
_atom_site_fract_z
Si Si1 0.500000 0.000000 0.000000
Si Si2 0.114324 0.929992 0.500000
Si Si3 0.783897 0.715589 0.132078
Si Si4 0.649437 0.928217 0.500000
Si Si5 0.669351 0.370325 0.265111
Si Si6 0.504637 0.734833 0.500000
Si Si7 0.445407 0.417077 0.131745
Si Si8 0.759278 0.635214 0.500000
O O1 0.486436 0.136653 0.000000
O O2 0.576525 0.033549 0.000000
O O3 0.188942 0.916385 0.500000
O O4 0.078034 0.811017 0.500000
O O5 0.093537 0.001089 0.574379
O O6 0.827688 0.640400 0.076311
O O7 0.732696 0.652279 0.184605
O O8 0.824786 0.794630 0.188711
O O9 0.740035 0.789153 0.075602
O O10 0.690079 0.040036 0.500000
O O11 0.670302 0.500000 0.250000
O O12 0.602478 0.356935 0.309846
O O13 0.476400 0.674309 0.424285
O O14 0.500000 0.500000 0.164012
#
# Coordination Sequence:
#
# PCOD9528690 Si02
#       8
#     4   8  16   8  16   8  16   8
#     4  12  26  38  60  84 130 172 204 254 292 364
#     4   9  16  35  64  95 122 146 200 279 308 336
#     4  10  23  39  63  93 121 159 201 265 306 359
#     4  11  24  42  62  90 121 165 218 248 304 370
#     4  11  22  38  60  94 128 155 194 256 322 367
#     4   9  20  37  58  89 125 163 208 247 299 362
#     4   9  19  35  62  91 121 159 201 253 312 369
#     4  11  21  39  70  88 108 155 214 259 300 353
#
# _framework density 19.210832
#
# number of rings (size 3 to 8) (size 9 to 14) (size 15 to 20)
#    0.000    1.905    0.000    5.714    2.667    3.429 
#    0.000    0.000    0.000    1.143    0.000    0.667 
#    0.000    0.000    0.000    0.000    0.000    0.000 
#
# Total GULP energy -233903.200783 kJ/mol
# GULP energy per Si atom -5569.123828 kJ/mol
# Density = 1.916711 g / cm^3
# Si number density = 19.210832 Si / 1000 Ang^3
#
#
#
# Elastic Constant Matrix: (Units=GPa)
#
#
# Indices 1 2 3 4 5 6 
#
# 1 107.1319 49.3465 41.6761 0.0000 0.0000 0.0000
# 2 49.3465 102.9108 32.8994 0.0000 0.0000 0.0000
# 3 41.6761 32.8994 92.1424 0.0000 0.0000 0.0000
# 4 0.0000 0.0000 0.0000 -19.8759 0.0000 0.0000
# 5 0.0000 0.0000 0.0000 0.0000 -22.0200 0.0000
# 6 0.0000 0.0000 0.0000 0.0000 0.0000 29.7726
#
#
#
# Elastic Compliance Matrix: (Units=1/GPa)
#
#
# Indices 1 2 3 4 5 6 
#
# 1 0.013289 -0.005024 -0.004217 0.000000 0.000000 0.000000
# 2 -0.005024 0.012869 -0.002322 0.000000 0.000000 0.000000
# 3 -0.004217 -0.002322 0.013589 0.000000 0.000000 0.000000
# 4 0.000000 0.000000 0.000000 -0.050312 0.000000 0.000000
# 5 0.000000 0.000000 0.000000 0.000000 -0.045413 0.000000
# 6 0.000000 0.000000 0.000000 0.000000 0.000000 0.033588
#
#
# Mechanical properties :
#
#
# Convention : Reuss Voigt Hill
#
# Bulk Modulus (GPa) = 60.16701 61.11437 60.64069
# Shear Modulus (GPa) = 796.74365 9.45954 403.10160
#
# Velocity S-wave (km/s) = 20.38718 2.22143 14.50124
# Velocity P-wave (km/s) = 24.19855 6.20171 17.66396
#
# Compressibility (1/GPa) = 0.01662040
#
# Stress axis : x y z
#
# Youngs Moduli (GPa) = 75.25124 77.70817 73.58791
#
# Poissons Ratio (x) = 0.39041 0.31030
# Poissons Ratio (y) = 0.37807 0.17090
# Poissons Ratio (z) = 0.31731 0.18047
#
# Static dielectric constant tensor:
#      x y z
#    x 1.685280 0.000000 0.000000 
#    y 0.000000 1.735820 0.000000 
#    z 0.000000 0.000000 1.662820 
# 
# From -- ./inp_files/32455.got.cif
#   From: 2010.05.17/outbox.cif.g08.bks.cpg/sg72_17_cif.got.tgz:32455.got - 2010.06.03 17:03:01.
