data_PCOD9528750
_publ_section_title
;
Structure prediction by ZEFSAII (Michael W. Deem and Ramdas Pophale) SiO2 
 PCOD9528750
Probable space group: I B A M
;
_chemical_formula_sum "Si O2"
_cell_formula_units_Z 68
_cell_length_a 6.972912
_cell_length_b 14.508141
_cell_length_c 29.571233
_cell_angle_alpha 90.000000
_cell_angle_beta 90.000000
_cell_angle_gamma 90.000000
_cell_volume 2991.543934
_symmetry_space_group_name_H-M "I B A M"
_symmetry_group_IT_number 72
_symmetry_cell_setting 'orthorhombic'
loop_
_space_group_symop_operation_xyz
x,y,z
-x,-y,z
x,-y,1/2-z
-x,y,1/2-z
-x,-y,-z
x,y,-z
-x,y,1/2+z
x,-y,1/2+z
1/2+x,1/2+y,1/2+z
1/2-x,1/2-y,1/2+z
1/2+x,1/2-y,-z
1/2-x,1/2+y,-z
1/2-x,1/2-y,1/2-z
1/2+x,1/2+y,1/2-z
1/2-x,1/2+y,z
1/2+x,1/2-y,z
loop_
_atom_site_type_symbol
_atom_site_label
_atom_site_fract_x
_atom_site_fract_y
_atom_site_fract_z
Si Si1 0.277877 0.033978 0.172319
Si Si2 0.795158 0.887770 0.598283
Si Si3 0.292245 0.388292 0.000000
Si Si4 0.353556 0.173597 0.000000
Si Si5 0.500000 0.500000 0.250000
Si Si6 0.141754 0.324047 0.598285
O O1 0.271040 0.124246 0.140841
O O2 0.500000 0.000000 0.181611
O O3 0.186568 0.953737 0.140898
O O4 0.149563 0.050255 0.216468
O O5 0.843097 0.928717 0.548828
O O6 0.879835 0.785437 0.604080
O O7 0.568562 0.867083 0.595356
O O8 0.060993 0.374517 0.000000
O O9 0.376711 0.284334 0.000000
O O10 0.263350 0.155355 0.950789
#
# Coordination Sequence:
#
# PCOD9528750 Si02
#       6
#    16  16   8   8   4  16
#     4  10  23  42  63  86 114 153 191 252 299 349
#     4   9  18  33  58  86 122 154 191 229 283 349
#     4   8  14  27  49  84 119 157 184 221 271 338
#     4   8  14  27  49  84 119 157 184 221 271 338
#     4  12  26  44  68  80 112 146 206 256 320 332
#     4   9  18  33  58  86 122 154 191 229 283 349
#
# _framework density 22.730737999999999
#
# number of rings (size 3 to 8) (size 9 to 14) (size 15 to 20)
#    0.000    2.824    0.000    0.353    3.294    0.941 
#    0.000    5.882    0.000    1.412    0.000    0.000 
#    0.000    0.000    0.000    0.000    0.000    0.000 
#
# Total GULP energy -189659.753617 kJ/mol
# GULP energy per Si atom -5578.228048 kJ/mol
# Density = 2.267900 g / cm^3
# Si number density = 22.730738 Si / 1000 Ang^3
#
#
#
# Elastic Constant Matrix: (Units=GPa)
#
#
# Indices 1 2 3 4 5 6 
#
# 1 105.3741 24.8976 60.9362 0.0000 0.0000 0.0000
# 2 24.8976 75.2922 48.7218 0.0000 0.0000 0.0000
# 3 60.9362 48.7218 172.2263 0.0000 0.0000 0.0000
# 4 0.0000 0.0000 0.0000 16.0002 0.0000 0.0000
# 5 0.0000 0.0000 0.0000 0.0000 31.7175 0.0000
# 6 0.0000 0.0000 0.0000 0.0000 0.0000 32.4367
#
#
#
# Elastic Compliance Matrix: (Units=1/GPa)
#
#
# Indices 1 2 3 4 5 6 
#
# 1 0.012069 -0.001503 -0.003845 0.000000 0.000000 0.000000
# 2 -0.001503 0.016445 -0.004120 0.000000 0.000000 0.000000
# 3 -0.003845 -0.004120 0.008332 0.000000 0.000000 0.000000
# 4 0.000000 0.000000 0.000000 0.062499 0.000000 0.000000
# 5 0.000000 0.000000 0.000000 0.000000 0.031528 0.000000
# 6 0.000000 0.000000 0.000000 0.000000 0.000000 0.030829
#
#
# Mechanical properties :
#
#
# Convention : Reuss Voigt Hill
#
# Bulk Modulus (GPa) = 55.83629 69.11152 62.47391
# Shear Modulus (GPa) = 26.79402 30.58667 28.69034
#
# Velocity S-wave (km/s) = 3.43703 3.67223 3.55658
# Velocity P-wave (km/s) = 6.35362 6.96066 6.66406
#
# Compressibility (1/GPa) = 0.01790950
#
# Stress axis : x y z
#
# Youngs Moduli (GPa) = 82.86027 60.80919 120.01423
#
# Poissons Ratio (x) = 0.09138 0.46144
# Poissons Ratio (y) = 0.12452 0.49451
# Poissons Ratio (z) = 0.31859 0.25056
#
# Static dielectric constant tensor:
#      x y z
#    x 1.972690 0.000000 0.000000 
#    y 0.000000 2.230850 0.000000 
#    z 0.000000 0.000000 1.851530 
# 
# From -- ./inp_files/47000.got.cif
#   From: 2010.05.17/outbox.cif.g08.bks.cpg/sg72_24_cif.got.tgz:47000.got - 2010.06.03 17:03:01.
