data_PCOD9528327
_publ_section_title
;
Structure prediction by ZEFSAII (Michael W. Deem and Ramdas Pophale) SiO2 
 PCOD9528327
Probable space group: I B A M
;
_chemical_formula_sum "Si O2"
_cell_formula_units_Z 120
_cell_length_a 20.209680
_cell_length_b 11.937717
_cell_length_c 22.671226
_cell_angle_alpha 90.000000
_cell_angle_beta 90.000000
_cell_angle_gamma 90.000000
_cell_volume 5469.601958
_symmetry_space_group_name_H-M "I B A M"
_symmetry_group_IT_number 72
_symmetry_cell_setting 'orthorhombic'
loop_
_space_group_symop_operation_xyz
x,y,z
-x,-y,z
x,-y,1/2-z
-x,y,1/2-z
-x,-y,-z
x,y,-z
-x,y,1/2+z
x,-y,1/2+z
1/2+x,1/2+y,1/2+z
1/2-x,1/2-y,1/2+z
1/2+x,1/2-y,-z
1/2-x,1/2+y,-z
1/2-x,1/2-y,1/2-z
1/2+x,1/2+y,1/2-z
1/2-x,1/2+y,z
1/2+x,1/2-y,z
loop_
_atom_site_type_symbol
_atom_site_label
_atom_site_fract_x
_atom_site_fract_y
_atom_site_fract_z
Si Si1 0.136605 0.054797 0.430563
Si Si2 0.080241 0.245808 0.641309
Si Si3 0.538255 0.356264 0.931029
Si Si4 0.262362 0.000000 0.750000
Si Si5 0.254226 0.628096 0.930752
Si Si6 0.642259 0.965842 0.856930
Si Si7 0.677139 0.691994 0.755673
Si Si8 0.151156 0.271413 0.872123
O O1 0.144352 0.071047 0.500000
O O2 0.129471 0.175200 0.401206
O O3 0.069579 0.980127 0.421386
O O4 0.195069 0.971295 0.412110
O O5 0.080278 0.381440 0.641075
O O6 0.114923 0.222643 0.704001
O O7 0.011872 0.192370 0.618268
O O8 0.601730 0.276298 0.921171
O O9 0.515556 0.348350 0.000000
O O10 0.311564 0.052711 0.798594
O O11 0.208553 0.078510 0.718775
O O12 0.184484 0.580889 0.911139
O O13 0.276648 0.740722 0.897481
O O14 0.259011 0.645138 0.000000
O O15 0.635539 0.099013 0.860319
O O16 0.750000 0.750000 0.750000
O O17 0.649046 0.703096 0.689326
#
# Coordination Sequence:
#
# PCOD9528327 Si02
#       8
#    16  16  16   8  16  16  16  16
#     4   9  20  41  66  91 126 172 219 279 340 390
#     4  12  24  39  64  98 126 169 225 269 326 399
#     4  10  24  47  69  90 129 179 229 280 330 387
#     4  12  22  42  64  98 136 168 210 268 346 398
#     4  10  22  38  60  92 127 165 215 272 333 398
#     4  12  24  38  64  98 131 173 220 271 334 402
#     4  12  23  40  68  98 135 169 209 274 335 407
#     4  11  23  43  65  91 132 181 219 269 337 402
#
# _framework density 21.939439
#
# number of rings (size 3 to 8) (size 9 to 14) (size 15 to 20)
#    0.000    1.067    4.000    2.800    3.733    4.267 
#    0.000    0.667    0.000    2.400    0.000    0.000 
#    0.000    0.000    0.000    0.000    0.000    0.000 
#
# Total GULP energy -334057.675680 kJ/mol
# GULP energy per Si atom -5567.627928 kJ/mol
# Density = 2.188950 g / cm^3
# Si number density = 21.939439 Si / 1000 Ang^3
#
#
#
# Elastic Constant Matrix: (Units=GPa)
#
#
# Indices 1 2 3 4 5 6 
#
# 1 43.5300 -10.0342 8.8417 0.0000 0.0000 0.0000
# 2 -10.0342 72.6523 30.2879 0.0000 0.0000 0.0000
# 3 8.8417 30.2879 108.8394 0.0000 0.0000 0.0000
# 4 0.0000 0.0000 0.0000 5.4264 0.0000 0.0000
# 5 0.0000 0.0000 0.0000 0.0000 25.4085 0.0000
# 6 0.0000 0.0000 0.0000 0.0000 0.0000 23.6438
#
#
#
# Elastic Compliance Matrix: (Units=1/GPa)
#
#
# Indices 1 2 3 4 5 6 
#
# 1 0.024764 0.004818 -0.003352 0.000000 0.000000 0.000000
# 2 0.004818 0.016508 -0.004985 0.000000 0.000000 0.000000
# 3 -0.003352 -0.004985 0.010847 0.000000 0.000000 0.000000
# 4 0.000000 0.000000 0.000000 0.184284 0.000000 0.000000
# 5 0.000000 0.000000 0.000000 0.000000 0.039357 0.000000
# 6 0.000000 0.000000 0.000000 0.000000 0.000000 0.042294
#
#
# Mechanical properties :
#
#
# Convention : Reuss Voigt Hill
#
# Bulk Modulus (GPa) = 22.18285 31.46805 26.82545
# Shear Modulus (GPa) = 14.70064 23.95750 19.32907
#
# Velocity S-wave (km/s) = 2.59135 3.30810 2.97142
# Velocity P-wave (km/s) = 4.36879 5.38198 4.90163
#
# Compressibility (1/GPa) = 0.04507988
#
# Stress axis : x y z
#
# Youngs Moduli (GPa) = 40.38091 60.57722 92.18734
#
# Poissons Ratio (x) = -0.29185 0.30905
# Poissons Ratio (y) = -0.19455 0.45957
# Poissons Ratio (z) = 0.13538 0.30199
#
# Static dielectric constant tensor:
#      x y z
#    x 1.875210 0.000000 0.000000 
#    y 0.000000 1.825330 0.000000 
#    z 0.000000 0.000000 1.782250 
# 
# From -- ./inp_files/45458.got.cif
#   From: 2010.05.17/outbox.cif.g08.bks.cpg/sg72_23_cif.got.tgz:45458.got - 2010.06.03 17:03:01.
