data_PCOD9528900
_publ_section_title
;
Structure prediction by ZEFSAII (Michael W. Deem and Ramdas Pophale) SiO2 
 PCOD9528900
Probable space group: I B A M
;
_chemical_formula_sum "Si O2"
_cell_formula_units_Z 56
_cell_length_a 16.586562
_cell_length_b 15.667836
_cell_length_c 10.352463
_cell_angle_alpha 90.000000
_cell_angle_beta 90.000000
_cell_angle_gamma 90.000000
_cell_volume 2690.351842
_symmetry_space_group_name_H-M "I B A M"
_symmetry_group_IT_number 72
_symmetry_cell_setting 'orthorhombic'
loop_
_space_group_symop_operation_xyz
x,y,z
-x,-y,z
x,-y,1/2-z
-x,y,1/2-z
-x,-y,-z
x,y,-z
-x,y,1/2+z
x,-y,1/2+z
1/2+x,1/2+y,1/2+z
1/2-x,1/2-y,1/2+z
1/2+x,1/2-y,-z
1/2-x,1/2+y,-z
1/2-x,1/2-y,1/2-z
1/2+x,1/2+y,1/2-z
1/2-x,1/2+y,z
1/2+x,1/2-y,z
loop_
_atom_site_type_symbol
_atom_site_label
_atom_site_fract_x
_atom_site_fract_y
_atom_site_fract_z
Si Si1 0.310618 0.691868 0.000000
Si Si2 0.064707 0.390500 0.356938
Si Si3 0.802992 0.142078 0.000000
Si Si4 0.301231 0.026754 0.000000
Si Si5 0.406048 0.300639 0.767355
O O1 0.248761 0.770894 0.000000
O O2 0.363565 0.696799 0.129103
O O3 0.262835 0.603046 0.000000
O O4 0.024976 0.384934 0.500000
O O5 0.138467 0.454523 0.380476
O O6 0.096694 0.296525 0.321051
O O7 0.000000 0.411935 0.250000
O O8 0.859094 0.143209 0.127197
O O9 0.741945 0.063112 0.000000
O O10 0.500000 0.323330 0.750000
#
# Coordination Sequence:
#
# PCOD9528900 Si02
#       5
#     8  16   8   8  16
#     4  12  25  44  68 105 142 184 248 294 367 432
#     4   9  19  40  71 107 141 183 243 298 365 428
#     4  12  23  45  74 104 146 192 229 303 373 425
#     4  10  24  43  69 110 146 184 243 297 367 435
#     4  11  23  44  74 104 139 192 245 297 362 427
#
# _framework density 20.81512
#
# number of rings (size 3 to 8) (size 9 to 14) (size 15 to 20)
#    0.857    0.571    4.286    1.714    6.000    1.143 
#    0.000    5.714    3.143   10.286    0.000    0.000 
#    0.000    0.000    0.000    0.000    0.000    0.000 
#
# Total GULP energy -156540.042525 kJ/mol
# GULP energy per Si atom -5590.715804 kJ/mol
# Density = 2.076774 g / cm^3
# Si number density = 20.815120 Si / 1000 Ang^3
#
#
#
# Elastic Constant Matrix: (Units=GPa)
#
#
# Indices 1 2 3 4 5 6 
#
# 1 148.2988 36.6803 96.6230 0.0000 0.0000 0.0000
# 2 36.6803 80.0970 33.8341 0.0000 0.0000 0.0000
# 3 96.6230 33.8341 211.7397 0.0000 0.0000 0.0000
# 4 0.0000 0.0000 0.0000 28.2914 0.0000 0.0000
# 5 0.0000 0.0000 0.0000 0.0000 63.2527 0.0000
# 6 0.0000 0.0000 0.0000 0.0000 0.0000 45.8923
#
#
#
# Elastic Compliance Matrix: (Units=1/GPa)
#
#
# Indices 1 2 3 4 5 6 
#
# 1 0.010187 -0.002897 -0.004186 0.000000 0.000000 0.000000
# 2 -0.002897 0.014212 -0.000949 0.000000 0.000000 0.000000
# 3 -0.004186 -0.000949 0.006784 0.000000 0.000000 0.000000
# 4 0.000000 0.000000 0.000000 0.035346 0.000000 0.000000
# 5 0.000000 0.000000 0.000000 0.000000 0.015810 0.000000
# 6 0.000000 0.000000 0.000000 0.000000 0.000000 0.021790
#
#
# Mechanical properties :
#
#
# Convention : Reuss Voigt Hill
#
# Bulk Modulus (GPa) = 66.13586 86.04559 76.09072
# Shear Modulus (GPa) = 39.92551 45.68716 42.80633
#
# Velocity S-wave (km/s) = 4.38436 4.69006 4.53979
# Velocity P-wave (km/s) = 7.58104 8.41170 8.00715
#
# Compressibility (1/GPa) = 0.01512039
#
# Stress axis : x y z
#
# Youngs Moduli (GPa) = 98.16636 70.36102 147.39588
#
# Poissons Ratio (x) = 0.20383 0.61694
# Poissons Ratio (y) = 0.28438 0.13989
# Poissons Ratio (z) = 0.41089 0.06678
#
# Static dielectric constant tensor:
#      x y z
#    x 1.744810 0.000000 0.000000 
#    y 0.000000 1.748890 0.000000 
#    z 0.000000 0.000000 1.819380 
# 
# From -- ./inp_files/4205.got.cif
#   From: 2010.05.17/outbox.cif.g08.bks.cpg/sg72_3_cif.got.tgz:4205.got - 2010.06.03 17:03:01.
