data_PCOD9528705
_publ_section_title
;
Structure prediction by ZEFSAII (Michael W. Deem and Ramdas Pophale) SiO2 
 PCOD9528705
Probable space group: I B A M
;
_chemical_formula_sum "Si O2"
_cell_formula_units_Z 112
_cell_length_a 29.994848
_cell_length_b 10.299054
_cell_length_c 15.875768
_cell_angle_alpha 90.000000
_cell_angle_beta 90.000000
_cell_angle_gamma 90.000000
_cell_volume 4904.319378
_symmetry_space_group_name_H-M "I B A M"
_symmetry_group_IT_number 72
_symmetry_cell_setting 'orthorhombic'
loop_
_space_group_symop_operation_xyz
x,y,z
-x,-y,z
x,-y,1/2-z
-x,y,1/2-z
-x,-y,-z
x,y,-z
-x,y,1/2+z
x,-y,1/2+z
1/2+x,1/2+y,1/2+z
1/2-x,1/2-y,1/2+z
1/2+x,1/2-y,-z
1/2-x,1/2+y,-z
1/2-x,1/2-y,1/2-z
1/2+x,1/2+y,1/2-z
1/2-x,1/2+y,z
1/2+x,1/2-y,z
loop_
_atom_site_type_symbol
_atom_site_label
_atom_site_fract_x
_atom_site_fract_y
_atom_site_fract_z
Si Si1 0.339775 0.845628 0.323914
Si Si2 0.695393 0.105026 0.096285
Si Si3 0.547072 0.073410 0.403450
Si Si4 0.878128 0.890131 0.403827
Si Si5 0.787348 0.895638 0.679594
Si Si6 0.450599 0.683586 0.274682
Si Si7 0.893254 0.335382 0.341227
O O1 0.364103 0.763639 0.397220
O O2 0.194706 0.758625 0.214275
O O3 0.374798 0.867333 0.251237
O O4 0.316861 0.974284 0.353817
O O5 0.744731 0.141722 0.124607
O O6 0.652144 0.196738 0.108929
O O7 0.697636 0.069872 0.000000
O O8 0.553234 0.120990 0.500000
O O9 0.543842 0.187735 0.334346
O O10 0.500000 0.000000 0.400177
O O11 0.582880 0.959544 0.382670
O O12 0.889156 0.924662 0.500000
O O13 0.830847 0.949326 0.371758
O O14 0.917246 0.902877 0.333543
O O15 0.776062 0.000000 0.750000
O O16 0.500000 0.638696 0.250000
O O17 0.427137 0.722400 0.185689
#
# Coordination Sequence:
#
# PCOD9528705 Si02
#       7
#    16  16  16  16  16  16  16
#     4   9  21  38  61  81 118 153 198 238 295 355
#     4  12  23  35  56  84 122 161 197 241 292 350
#     4  11  21  30  48  78 118 158 198 241 292 346
#     4   9  19  38  61  86 116 149 195 243 290 349
#     4  10  23  40  62  88 114 149 198 246 296 361
#     4  11  20  34  54  81 117 159 203 247 291 352
#     4  11  21  35  53  82 118 163 201 245 287 351
#
# _framework density 22.837012000000001
#
# number of rings (size 3 to 8) (size 9 to 14) (size 15 to 20)
#    0.857    0.714    1.429    6.000    0.000    2.286 
#    0.000    0.000    0.000    3.000    0.000    1.000 
#    0.000    0.000    0.000    0.000    0.000    0.000 
#
# Total GULP energy -312281.446033 kJ/mol
# GULP energy per Si atom -5576.454393 kJ/mol
# Density = 2.278503 g / cm^3
# Si number density = 22.837012 Si / 1000 Ang^3
#
#
#
# Elastic Constant Matrix: (Units=GPa)
#
#
# Indices 1 2 3 4 5 6 
#
# 1 174.2476 13.7524 33.0139 0.0000 0.0000 0.0000
# 2 13.7524 46.9234 4.9453 0.0000 0.0000 0.0000
# 3 33.0139 4.9453 83.8744 0.0000 0.0000 0.0000
# 4 0.0000 0.0000 0.0000 5.0710 0.0000 0.0000
# 5 0.0000 0.0000 0.0000 0.0000 31.5173 0.0000
# 6 0.0000 0.0000 0.0000 0.0000 0.0000 16.0215
#
#
#
# Elastic Compliance Matrix: (Units=1/GPa)
#
#
# Indices 1 2 3 4 5 6 
#
# 1 0.006319 -0.001600 -0.002393 0.000000 0.000000 0.000000
# 2 -0.001600 0.021850 -0.000659 0.000000 0.000000 0.000000
# 3 -0.002393 -0.000659 0.012903 0.000000 0.000000 0.000000
# 4 0.000000 0.000000 0.000000 0.197198 0.000000 0.000000
# 5 0.000000 0.000000 0.000000 0.000000 0.031729 0.000000
# 6 0.000000 0.000000 0.000000 0.000000 0.000000 0.062416
#
#
# Mechanical properties :
#
#
# Convention : Reuss Voigt Hill
#
# Bulk Modulus (GPa) = 31.47691 45.38538 38.43115
# Shear Modulus (GPa) = 14.19220 27.41090 20.80155
#
# Velocity S-wave (km/s) = 2.49561 3.46827 3.02134
# Velocity P-wave (km/s) = 4.70290 5.99627 5.38853
#
# Compressibility (1/GPa) = 0.03176932
#
# Stress axis : x y z
#
# Youngs Moduli (GPa) = 158.26408 45.76744 77.49998
#
# Poissons Ratio (x) = 0.07321 0.18544
# Poissons Ratio (y) = 0.25317 0.05104
# Poissons Ratio (z) = 0.37868 0.03014
#
# Static dielectric constant tensor:
#      x y z
#    x 1.973250 0.000000 0.000000 
#    y 0.000000 1.929840 0.000000 
#    z 0.000000 0.000000 1.863990 
# 
# From -- ./inp_files/25978.got.cif
#   From: 2010.05.17/outbox.cif.g08.bks.cpg/sg72_13_cif.got.tgz:25978.got - 2010.06.03 17:03:01.
