data_PCOD9528515
_publ_section_title
;
Structure prediction by ZEFSAII (Michael W. Deem and Ramdas Pophale) SiO2 
 PCOD9528515
Probable space group: I B A M
;
_chemical_formula_sum "Si O2"
_cell_formula_units_Z 72
_cell_length_a 9.191037
_cell_length_b 27.218658
_cell_length_c 14.779480
_cell_angle_alpha 90.000000
_cell_angle_beta 90.000000
_cell_angle_gamma 90.000000
_cell_volume 3697.348412
_symmetry_space_group_name_H-M "I B A M"
_symmetry_group_IT_number 72
_symmetry_cell_setting 'orthorhombic'
loop_
_space_group_symop_operation_xyz
x,y,z
-x,-y,z
x,-y,1/2-z
-x,y,1/2-z
-x,-y,-z
x,y,-z
-x,y,1/2+z
x,-y,1/2+z
1/2+x,1/2+y,1/2+z
1/2-x,1/2-y,1/2+z
1/2+x,1/2-y,-z
1/2-x,1/2+y,-z
1/2-x,1/2-y,1/2-z
1/2+x,1/2+y,1/2-z
1/2-x,1/2+y,z
1/2+x,1/2-y,z
loop_
_atom_site_type_symbol
_atom_site_label
_atom_site_fract_x
_atom_site_fract_y
_atom_site_fract_z
Si Si1 0.741577 0.444607 0.235202
Si Si2 0.018817 0.085346 0.610964
Si Si3 0.831125 0.280954 0.328745
Si Si4 0.500000 0.128279 0.750000
Si Si5 0.469291 0.696958 0.600166
O O1 0.794467 0.500000 0.250000
O O2 0.619544 0.442112 0.155647
O O3 0.658903 0.430558 0.329598
O O4 0.873395 0.407548 0.212943
O O5 0.030608 0.080414 0.500000
O O6 0.998745 0.142893 0.637091
O O7 0.750000 0.250000 0.250000
O O8 0.701985 0.293393 0.397047
O O9 0.908999 0.332629 0.309374
O O10 0.953621 0.242860 0.356106
O O11 0.528609 0.695195 0.500000
#
# Coordination Sequence:
#
# PCOD9528515 Si02
#       5
#    16  16  16   8  16
#     4  11  24  42  66  91 121 164 213 261 315 369
#     4  10  22  41  67  95 124 160 207 261 309 368
#     4  12  22  38  62  89 120 168 201 241 299 371
#     4  12  23  40  64  88 130 160 209 256 310 372
#     4  11  23  38  59  92 128 159 201 246 301 370
#
# _framework density 19.473413999999998
#
# number of rings (size 3 to 8) (size 9 to 14) (size 15 to 20)
#    0.000    0.889    4.444    3.667    3.111    1.778 
#    0.000    2.222    0.000    2.667    0.000    0.000 
#    0.000    0.000    0.000    0.000    0.000    0.000 
#
# Total GULP energy -200503.746602 kJ/mol
# GULP energy per Si atom -5569.548517 kJ/mol
# Density = 1.942909 g / cm^3
# Si number density = 19.473414 Si / 1000 Ang^3
#
#
#
# Elastic Constant Matrix: (Units=GPa)
#
#
# Indices 1 2 3 4 5 6 
#
# 1 95.7752 34.0485 11.3022 0.0000 0.0000 0.0000
# 2 34.0485 151.8236 16.5897 0.0000 0.0000 0.0000
# 3 11.3022 16.5897 77.3457 -0.0001 0.0000 0.0000
# 4 0.0000 0.0000 -0.0001 -6.0248 0.0000 0.0000
# 5 0.0000 0.0000 0.0000 0.0000 14.0940 0.0000
# 6 0.0000 0.0000 0.0000 0.0000 0.0000 31.5176
#
#
#
# Elastic Compliance Matrix: (Units=1/GPa)
#
#
# Indices 1 2 3 4 5 6 
#
# 1 0.011444 -0.002441 -0.001149 0.000000 0.000000 0.000000
# 2 -0.002441 0.007265 -0.001202 0.000000 0.000000 0.000000
# 3 -0.001149 -0.001202 0.013355 0.000000 0.000000 0.000000
# 4 0.000000 0.000000 0.000000 -0.165982 0.000000 0.000000
# 5 0.000000 0.000000 0.000000 0.000000 0.070952 0.000000
# 6 0.000000 0.000000 0.000000 0.000000 0.000000 0.031728
#
#
# Mechanical properties :
#
#
# Convention : Reuss Voigt Hill
#
# Bulk Modulus (GPa) = 44.48101 49.86947 47.17524
# Shear Modulus (GPa) = -353.10490 25.45097 -163.82696
#
# Velocity S-wave (km/s) = -13.48037 3.61911 -9.18211
# Velocity P-wave (km/s) = 14.81223 6.56723 9.38812
#
# Compressibility (1/GPa) = 0.02248151
#
# Stress axis : x y z
#
# Youngs Moduli (GPa) = 87.37836 137.63994 74.88077
#
# Poissons Ratio (x) = 0.33599 0.08602
# Poissons Ratio (y) = 0.21330 0.08998
# Poissons Ratio (z) = 0.10038 0.16539
#
# Static dielectric constant tensor:
#      x y z
#    x 1.683420 0.000000 0.000000 
#    y 0.000000 1.744400 0.000000 
#    z 0.000000 0.000000 1.664670 
# 
# From -- ./inp_files/18908.got.cif
#   From: 2010.05.17/outbox.cif.g08.bks.cpg/sg72_10_cif.got.tgz:18908.got - 2010.06.03 17:03:01.
