data_PCOD9528764
_publ_section_title
;
Structure prediction by ZEFSAII (Michael W. Deem and Ramdas Pophale) SiO2 
 PCOD9528764
Probable space group: I B A M
;
_chemical_formula_sum "Si O2"
_cell_formula_units_Z 68
_cell_length_a 8.974709
_cell_length_b 16.331474
_cell_length_c 18.998584
_cell_angle_alpha 90.000000
_cell_angle_beta 90.000000
_cell_angle_gamma 90.000000
_cell_volume 2784.626764
_symmetry_space_group_name_H-M "I B A M"
_symmetry_group_IT_number 72
_symmetry_cell_setting 'orthorhombic'
loop_
_space_group_symop_operation_xyz
x,y,z
-x,-y,z
x,-y,1/2-z
-x,y,1/2-z
-x,-y,-z
x,y,-z
-x,y,1/2+z
x,-y,1/2+z
1/2+x,1/2+y,1/2+z
1/2-x,1/2-y,1/2+z
1/2+x,1/2-y,-z
1/2-x,1/2+y,-z
1/2-x,1/2-y,1/2-z
1/2+x,1/2+y,1/2-z
1/2-x,1/2+y,z
1/2+x,1/2-y,z
loop_
_atom_site_type_symbol
_atom_site_label
_atom_site_fract_x
_atom_site_fract_y
_atom_site_fract_z
Si Si1 0.390670 0.630273 0.640596
Si Si2 0.630791 0.798242 0.797869
Si Si3 0.304149 0.389737 0.576129
Si Si4 0.500000 0.500000 0.250000
Si Si5 0.367083 0.053376 0.421013
O O1 0.440279 0.720314 0.663765
O O2 0.519168 0.611088 0.585187
O O3 0.405236 0.562325 0.702181
O O4 0.219535 0.627373 0.615137
O O5 0.500000 0.838293 0.750000
O O6 0.750000 0.750000 0.750000
O O7 0.716232 0.851543 0.856885
O O8 0.261551 0.352488 0.500000
O O9 0.258832 0.484434 0.574167
O O10 0.417245 0.077123 0.500000
O O11 0.500000 0.000000 0.387325
#
# Coordination Sequence:
#
# PCOD9528764 Si02
#       5
#    16  16  16   4  16
#     4  12  23  43  71  99 138 186 239 290 354 428
#     4  12  26  46  66 101 143 185 232 294 354 431
#     4  11  24  45  70  99 137 185 237 288 355 426
#     4  12  20  40  68 100 132 184 244 286 348 436
#     4  10  23  42  67 102 137 172 225 293 351 413
#
# _framework density 24.419791
#
# number of rings (size 3 to 8) (size 9 to 14) (size 15 to 20)
#    0.000    0.706    5.882    0.706    3.294    3.765 
#    0.000    0.588    0.000    0.000    0.000    0.000 
#    0.000    0.000    0.000    0.000    0.000    0.000 
#
# Total GULP energy -189781.505378 kJ/mol
# GULP energy per Si atom -5581.808982 kJ/mol
# Density = 2.436421 g / cm^3
# Si number density = 24.419791 Si / 1000 Ang^3
#
#
#
# Elastic Constant Matrix: (Units=GPa)
#
#
# Indices 1 2 3 4 5 6 
#
# 1 126.8702 3.1526 48.7198 0.0000 0.0000 0.0000
# 2 3.1526 52.6176 23.1785 0.0000 0.0000 0.0000
# 3 48.7198 23.1785 132.1015 0.0000 0.0000 0.0000
# 4 0.0000 0.0000 0.0000 17.2092 0.0000 0.0000
# 5 0.0000 0.0000 0.0000 0.0000 8.2581 0.0000
# 6 0.0000 0.0000 0.0000 0.0000 0.0000 45.9857
#
#
#
# Elastic Compliance Matrix: (Units=1/GPa)
#
#
# Indices 1 2 3 4 5 6 
#
# 1 0.009233 0.001026 -0.003585 0.000000 0.000000 0.000000
# 2 0.001026 0.020711 -0.004012 0.000000 0.000000 0.000000
# 3 -0.003585 -0.004012 0.009596 0.000000 0.000000 0.000000
# 4 0.000000 0.000000 0.000000 0.058108 0.000000 0.000000
# 5 0.000000 0.000000 0.000000 0.000000 0.121094 0.000000
# 6 0.000000 0.000000 0.000000 0.000000 0.000000 0.021746
#
#
# Mechanical properties :
#
#
# Convention : Reuss Voigt Hill
#
# Bulk Modulus (GPa) = 37.88242 51.29903 44.59073
# Shear Modulus (GPa) = 19.05261 30.05982 24.55622
#
# Velocity S-wave (km/s) = 2.79626 3.51231 3.17454
# Velocity P-wave (km/s) = 5.09628 6.12382 5.63353
#
# Compressibility (1/GPa) = 0.02639747
#
# Stress axis : x y z
#
# Youngs Moduli (GPa) = 108.30235 48.28337 104.20714
#
# Poissons Ratio (x) = -0.04955 0.37362
# Poissons Ratio (y) = -0.11114 0.41812
# Poissons Ratio (z) = 0.38831 0.19373
#
# Static dielectric constant tensor:
#      x y z
#    x 2.038110 0.000000 0.000000 
#    y 0.000000 2.074590 0.000000 
#    z 0.000000 0.000000 2.195820 
# 
# From -- ./inp_files/27803.got.cif
#   From: 2010.05.17/outbox.cif.g08.bks.cpg/sg72_14_cif.got.tgz:27803.got - 2010.06.03 17:03:01.
