data_PCOD9528431
_publ_section_title
;
Structure prediction by ZEFSAII (Michael W. Deem and Ramdas Pophale) SiO2 
 PCOD9528431
Probable space group: I B A M
;
_chemical_formula_sum "Si O2"
_cell_formula_units_Z 88
_cell_length_a 13.210139
_cell_length_b 23.312521
_cell_length_c 11.642915
_cell_angle_alpha 90.000000
_cell_angle_beta 90.000000
_cell_angle_gamma 90.000000
_cell_volume 3585.571231
_symmetry_space_group_name_H-M "I B A M"
_symmetry_group_IT_number 72
_symmetry_cell_setting 'orthorhombic'
loop_
_space_group_symop_operation_xyz
x,y,z
-x,-y,z
x,-y,1/2-z
-x,y,1/2-z
-x,-y,-z
x,y,-z
-x,y,1/2+z
x,-y,1/2+z
1/2+x,1/2+y,1/2+z
1/2-x,1/2-y,1/2+z
1/2+x,1/2-y,-z
1/2-x,1/2+y,-z
1/2-x,1/2-y,1/2-z
1/2+x,1/2+y,1/2-z
1/2-x,1/2+y,z
1/2+x,1/2-y,z
loop_
_atom_site_type_symbol
_atom_site_label
_atom_site_fract_x
_atom_site_fract_y
_atom_site_fract_z
Si Si1 0.189275 0.129680 0.000000
Si Si2 0.456777 0.274513 0.875867
Si Si3 0.138006 0.339865 0.337876
Si Si4 0.254937 0.652593 0.373363
Si Si5 0.115320 0.932601 0.271457
Si Si6 0.387049 0.974959 0.628625
O O1 0.254306 0.166061 0.901647
O O2 0.144079 0.088379 0.897857
O O3 0.500000 0.289326 0.750000
O O4 0.441732 0.206383 0.878462
O O5 0.344093 0.300682 0.876889
O O6 0.507608 0.294133 0.000000
O O7 0.162510 0.329436 0.205595
O O8 0.108857 0.405976 0.359505
O O9 0.219256 0.639526 0.500000
O O10 0.309367 0.598119 0.316861
O O11 0.000000 0.914309 0.250000
O O12 0.119345 0.000000 0.250000
O O13 0.340383 0.985710 0.500000
O O14 0.500000 0.000000 0.623440
O O15 0.344503 0.000000 0.750000
#
# Coordination Sequence:
#
# PCOD9528431 Si02
#       6
#     8  16  16  16  16  16
#     4  10  22  41  63  96 134 182 224 283 344 420
#     4  11  24  45  72 100 138 178 236 294 352 419
#     4  11  22  45  67  95 135 188 230 282 351 412
#     4  10  24  43  66 101 134 170 229 291 346 420
#     4  10  23  40  67  96 132 176 218 278 350 419
#     4  10  22  40  63  95 133 181 233 285 336 400
#
# _framework density 24.542811
#
# number of rings (size 3 to 8) (size 9 to 14) (size 15 to 20)
#    0.000    1.636    1.818    1.091    5.091    5.091 
#    9.818    0.000    0.000    0.000    0.000    0.000 
#    0.000    0.000    0.000    0.000    0.000    0.000 
#
# Total GULP energy -245035.399790 kJ/mol
# GULP energy per Si atom -5568.986359 kJ/mol
# Density = 2.448695 g / cm^3
# Si number density = 24.542811 Si / 1000 Ang^3
#
#
#
# Elastic Constant Matrix: (Units=GPa)
#
#
# Indices 1 2 3 4 5 6 
#
# 1 50.9489 -9.6877 33.4715 0.0000 0.0000 0.0000
# 2 -9.6877 91.6670 30.8093 0.0000 0.0000 0.0000
# 3 33.4715 30.8093 281.5894 0.0000 0.0001 0.0000
# 4 0.0000 0.0000 0.0000 20.0571 0.0000 0.0000
# 5 0.0000 0.0000 0.0001 0.0000 21.3485 0.0000
# 6 0.0000 0.0000 0.0000 0.0000 0.0000 46.2054
#
#
#
# Elastic Compliance Matrix: (Units=1/GPa)
#
#
# Indices 1 2 3 4 5 6 
#
# 1 0.022246 0.003363 -0.003012 0.000000 0.000000 0.000000
# 2 0.003363 0.011834 -0.001695 0.000000 0.000000 0.000000
# 3 -0.003012 -0.001695 0.004095 0.000000 0.000000 0.000000
# 4 0.000000 0.000000 0.000000 0.049858 0.000000 0.000000
# 5 0.000000 0.000000 0.000000 0.000000 0.046842 0.000000
# 6 0.000000 0.000000 0.000000 0.000000 0.000000 0.021643
#
#
# Mechanical properties :
#
#
# Convention : Reuss Voigt Hill
#
# Bulk Modulus (GPa) = 28.17853 59.26570 43.72212
# Shear Modulus (GPa) = 29.23412 42.16300 35.69856
#
# Velocity S-wave (km/s) = 3.45505 4.14930 3.81798
# Velocity P-wave (km/s) = 5.23667 6.86701 6.10650
#
# Compressibility (1/GPa) = 0.03548801
#
# Stress axis : x y z
#
# Youngs Moduli (GPa) = 44.95182 84.50181 244.21570
#
# Poissons Ratio (x) = -0.28422 0.73565
# Poissons Ratio (y) = -0.15119 0.41385
# Poissons Ratio (z) = 0.13541 0.14320
#
# Static dielectric constant tensor:
#      x y z
#    x 2.073650 0.000000 0.000000 
#    y 0.000000 2.038190 0.000000 
#    z 0.000000 0.000000 2.028220 
# 
# From -- ./inp_files/12842.got.cif
#   From: 2010.05.17/outbox.cif.g08.bks.cpg/sg72_7_cif.got.tgz:12842.got - 2010.06.03 17:03:01.
