data_PCOD9528683
_publ_section_title
;
Structure prediction by ZEFSAII (Michael W. Deem and Ramdas Pophale) SiO2 
 PCOD9528683
Probable space group: I B A M
;
_chemical_formula_sum "Si O2"
_cell_formula_units_Z 112
_cell_length_a 11.123305
_cell_length_b 32.088285
_cell_length_c 14.395844
_cell_angle_alpha 90.000000
_cell_angle_beta 90.000000
_cell_angle_gamma 90.000000
_cell_volume 5138.276654
_symmetry_space_group_name_H-M "I B A M"
_symmetry_group_IT_number 72
_symmetry_cell_setting 'orthorhombic'
loop_
_space_group_symop_operation_xyz
x,y,z
-x,-y,z
x,-y,1/2-z
-x,y,1/2-z
-x,-y,-z
x,y,-z
-x,y,1/2+z
x,-y,1/2+z
1/2+x,1/2+y,1/2+z
1/2-x,1/2-y,1/2+z
1/2+x,1/2-y,-z
1/2-x,1/2+y,-z
1/2-x,1/2-y,1/2-z
1/2+x,1/2+y,1/2-z
1/2-x,1/2+y,z
1/2+x,1/2-y,z
loop_
_atom_site_type_symbol
_atom_site_label
_atom_site_fract_x
_atom_site_fract_y
_atom_site_fract_z
Si Si1 0.927511 0.881588 0.113313
Si Si2 0.818336 0.410902 0.611386
Si Si3 0.170365 0.162624 0.610137
Si Si4 0.810204 0.337454 0.110564
Si Si5 0.190622 0.954829 0.726789
Si Si6 0.590153 0.929098 0.888980
Si Si7 0.375122 0.750998 0.304555
O O1 0.828130 0.846245 0.139083
O O2 0.890573 0.923905 0.165161
O O3 0.056809 0.864756 0.141523
O O4 0.921983 0.887141 0.000000
O O5 0.801777 0.415216 0.500000
O O6 0.792596 0.362066 0.637916
O O7 0.724428 0.435110 0.674297
O O8 0.949281 0.429541 0.632832
O O9 0.171061 0.160689 0.500000
O O10 0.143005 0.210007 0.633736
O O11 0.873442 0.381218 0.132166
O O12 0.872207 0.296553 0.149349
O O13 0.810411 0.333023 0.000000
O O14 0.316881 0.957037 0.668464
O O15 0.141402 0.000000 0.750000
O O16 0.605746 0.936159 0.000000
O O17 0.500000 0.746661 0.250000
O O18 0.250000 0.750000 0.250000
#
# Coordination Sequence:
#
# PCOD9528683 Si02
#       7
#    16  16  16  16  16  16  16
#     4   9  20  42  69  92 125 177 226 269 331 401
#     4  10  23  39  59  88 126 167 209 259 323 393
#     4  10  23  44  64  85 124 178 221 268 328 392
#     4   9  19  38  61  86 119 164 210 261 319 382
#     4  11  23  38  65  96 125 162 211 273 334 397
#     4   9  20  39  63  90 123 168 212 258 322 397
#     4  12  27  38  59  99 133 168 221 280 333 391
#
# _framework density 21.797191999999999
#
# number of rings (size 3 to 8) (size 9 to 14) (size 15 to 20)
#    0.000    2.000    0.000    3.000    8.000    2.286 
#    0.000    4.286    0.000    2.571    0.000    0.000 
#    0.000    0.000    0.000    0.000    0.000    0.000 
#
# Total GULP energy -312686.810571 kJ/mol
# GULP energy per Si atom -5583.693046 kJ/mol
# Density = 2.174758 g / cm^3
# Si number density = 21.797192 Si / 1000 Ang^3
#
#
#
# Elastic Constant Matrix: (Units=GPa)
#
#
# Indices 1 2 3 4 5 6 
#
# 1 75.7846 11.9628 20.1526 0.0002 -0.0001 0.0001
# 2 11.9628 81.3412 11.2063 0.0006 -0.0001 0.0001
# 3 20.1526 11.2063 39.7790 0.0017 -0.0001 0.0008
# 4 0.0002 0.0006 0.0017 -3.3329 -0.0002 -0.0004
# 5 -0.0001 -0.0001 -0.0001 -0.0002 27.2747 0.0001
# 6 0.0001 0.0001 0.0008 -0.0004 0.0001 -0.5915
#
#
#
# Elastic Compliance Matrix: (Units=1/GPa)
#
#
# Indices 1 2 3 4 5 6 
#
# 1 0.015368 -0.001236 -0.007438 -0.000003 0.000000 -0.000007
# 2 -0.001236 0.012890 -0.003005 0.000001 0.000000 -0.000002
# 3 -0.007438 -0.003005 0.029754 0.000014 0.000000 0.000038
# 4 -0.000003 0.000001 0.000014 -0.300039 -0.000002 0.000188
# 5 0.000000 0.000000 0.000000 -0.000002 0.036664 0.000005
# 6 -0.000007 -0.000002 0.000038 0.000188 0.000005 -1.690557
#
#
# Mechanical properties :
#
#
# Convention : Reuss Voigt Hill
#
# Bulk Modulus (GPa) = 28.85633 31.50536 30.18085
# Shear Modulus (GPa) = -2.68671 14.90892 6.11110
#
# Velocity S-wave (km/s) = -1.11143 2.61815 1.67622
# Velocity P-wave (km/s) = 3.40885 4.86054 4.19792
#
# Compressibility (1/GPa) = 0.03465444
#
# Stress axis : x y z
#
# Youngs Moduli (GPa) = 65.06969 77.58172 33.60946
#
# Poissons Ratio (x) = 0.09585 0.24998
# Poissons Ratio (y) = 0.08039 0.10101
# Poissons Ratio (z) = 0.48397 0.23315
#
# Static dielectric constant tensor:
#      x y z
#    x 1.834040 0.000000 0.000000 
#    y 0.000000 2.003930 0.000000 
#    z 0.000000 0.000000 1.837090 
# 
# From -- ./inp_files/20741.got.cif
#   From: 2010.05.17/outbox.cif.g08.bks.cpg/sg72_11_cif.got.tgz:20741.got - 2010.06.03 17:03:01.
