data_PCOD9528382
_publ_section_title
;
Structure prediction by ZEFSAII (Michael W. Deem and Ramdas Pophale) SiO2 
 PCOD9528382
Probable space group: I B A M
;
_chemical_formula_sum "Si O2"
_cell_formula_units_Z 64
_cell_length_a 7.887031
_cell_length_b 21.828215
_cell_length_c 15.897709
_cell_angle_alpha 90.000000
_cell_angle_beta 90.000000
_cell_angle_gamma 90.000000
_cell_volume 2736.946535
_symmetry_space_group_name_H-M "I B A M"
_symmetry_group_IT_number 72
_symmetry_cell_setting 'orthorhombic'
loop_
_space_group_symop_operation_xyz
x,y,z
-x,-y,z
x,-y,1/2-z
-x,y,1/2-z
-x,-y,-z
x,y,-z
-x,y,1/2+z
x,-y,1/2+z
1/2+x,1/2+y,1/2+z
1/2-x,1/2-y,1/2+z
1/2+x,1/2-y,-z
1/2-x,1/2+y,-z
1/2-x,1/2-y,1/2-z
1/2+x,1/2+y,1/2-z
1/2-x,1/2+y,z
1/2+x,1/2-y,z
loop_
_atom_site_type_symbol
_atom_site_label
_atom_site_fract_x
_atom_site_fract_y
_atom_site_fract_z
Si Si1 0.829149 0.541485 0.901756
Si Si2 0.898750 0.724922 0.000000
Si Si3 0.328696 0.422041 0.598592
Si Si4 0.477676 0.844652 0.659207
Si Si5 0.949517 0.848896 0.500000
O O1 0.690143 0.491973 0.872224
O O2 0.881543 0.601425 0.850717
O O3 0.000000 0.500000 0.899287
O O4 0.802247 0.559167 0.000000
O O5 0.993604 0.701524 0.083151
O O6 0.717515 0.691410 0.000000
O O7 0.900333 0.797968 0.000000
O O8 0.265082 0.425172 0.500000
O O9 0.511040 0.391063 0.581822
O O10 0.202797 0.378237 0.648419
O O11 0.500000 0.815389 0.750000
#
# Coordination Sequence:
#
# PCOD9528382 Si02
#       5
#    16   8  16  16   8
#     4   8  13  27  53  84 116 145 194 241 285 364
#     4  12  22  41  58  87 121 160 214 264 313 374
#     4   8  16  35  57  82 116 155 202 245 306 363
#     4  11  20  33  59  92 124 161 201 250 309 375
#     4  10  22  39  66  79 115 170 206 270 319 358
#
# _framework density 23.383723
#
# number of rings (size 3 to 8) (size 9 to 14) (size 15 to 20)
#    0.750    1.750    2.500    3.000    0.000    4.500 
#    0.000    8.750    0.000    0.000    0.000   10.500 
#    0.000    0.000    0.000    0.000    0.000    0.000 
#
# Total GULP energy -178616.160199 kJ/mol
# GULP energy per Si atom -5581.755006 kJ/mol
# Density = 2.333050 g / cm^3
# Si number density = 23.383723 Si / 1000 Ang^3
#
#
#
# Elastic Constant Matrix: (Units=GPa)
#
#
# Indices 1 2 3 4 5 6 
#
# 1 86.2762 5.5053 3.8322 0.0000 0.0000 0.0000
# 2 5.5053 98.9797 7.7831 0.0000 0.0000 0.0000
# 3 3.8322 7.7831 104.1527 -0.0002 0.0000 0.0000
# 4 0.0000 0.0000 -0.0002 -4.5675 0.0000 0.0000
# 5 0.0000 0.0000 0.0000 0.0000 4.0314 0.0000
# 6 0.0000 0.0000 0.0000 0.0000 0.0000 35.3218
#
#
#
# Elastic Compliance Matrix: (Units=1/GPa)
#
#
# Indices 1 2 3 4 5 6 
#
# 1 0.011647 -0.000618 -0.000382 0.000000 0.000000 0.000000
# 2 -0.000618 0.010196 -0.000739 0.000000 0.000000 0.000000
# 3 -0.000382 -0.000739 0.009671 0.000000 0.000000 0.000000
# 4 0.000000 0.000000 0.000000 -0.218939 0.000000 0.000000
# 5 0.000000 0.000000 0.000000 0.000000 0.248055 0.000000
# 6 0.000000 0.000000 0.000000 0.000000 0.000000 0.028311
#
#
# Mechanical properties :
#
#
# Convention : Reuss Voigt Hill
#
# Bulk Modulus (GPa) = 35.67012 35.96107 35.81560
# Shear Modulus (GPa) = 49.13369 25.10968 37.12168
#
# Velocity S-wave (km/s) = 4.58885 3.28046 3.98867
# Velocity P-wave (km/s) = 6.58514 5.45533 6.04668
#
# Compressibility (1/GPa) = 0.02803467
#
# Stress axis : x y z
#
# Youngs Moduli (GPa) = 85.85838 98.08187 103.40632
#
# Poissons Ratio (x) = 0.06059 0.03954
# Poissons Ratio (y) = 0.05304 0.07643
# Poissons Ratio (z) = 0.03283 0.07250
#
# Static dielectric constant tensor:
#      x y z
#    x 2.002500 0.000000 0.000000 
#    y 0.000000 1.891550 0.000000 
#    z 0.000000 0.000000 1.840550 
# 
# From -- ./inp_files/18812.got.cif
#   From: 2010.05.17/outbox.cif.g08.bks.cpg/sg72_10_cif.got.tgz:18812.got - 2010.06.03 17:03:01.
