data_PCOD9528455
_publ_section_title
;
Structure prediction by ZEFSAII (Michael W. Deem and Ramdas Pophale) SiO2 
 PCOD9528455
Probable space group: I B A M
;
_chemical_formula_sum "Si O2"
_cell_formula_units_Z 60
_cell_length_a 11.989155
_cell_length_b 9.103047
_cell_length_c 24.656415
_cell_angle_alpha 90.000000
_cell_angle_beta 90.000000
_cell_angle_gamma 90.000000
_cell_volume 2690.947911
_symmetry_space_group_name_H-M "I B A M"
_symmetry_group_IT_number 72
_symmetry_cell_setting 'orthorhombic'
loop_
_space_group_symop_operation_xyz
x,y,z
-x,-y,z
x,-y,1/2-z
-x,y,1/2-z
-x,-y,-z
x,y,-z
-x,y,1/2+z
x,-y,1/2+z
1/2+x,1/2+y,1/2+z
1/2-x,1/2-y,1/2+z
1/2+x,1/2-y,-z
1/2-x,1/2+y,-z
1/2-x,1/2-y,1/2-z
1/2+x,1/2+y,1/2-z
1/2-x,1/2+y,z
1/2+x,1/2-y,z
loop_
_atom_site_type_symbol
_atom_site_label
_atom_site_fract_x
_atom_site_fract_y
_atom_site_fract_z
Si Si1 0.805402 0.485631 0.000000
Si Si2 0.168298 0.869325 0.664432
Si Si3 0.904100 0.828455 0.500000
Si Si4 0.500000 0.500000 0.413718
Si Si5 0.871723 0.459712 0.375619
Si Si6 0.000000 0.000000 0.750000
O O1 0.829733 0.313147 0.000000
O O2 0.851565 0.537977 0.058632
O O3 0.676892 0.530919 0.000000
O O4 0.158270 0.701288 0.646631
O O5 0.108300 0.975363 0.621189
O O6 0.295118 0.924560 0.658223
O O7 0.088006 0.900262 0.715938
O O8 0.980348 0.852939 0.551777
O O9 0.000000 0.500000 0.366908
#
# Coordination Sequence:
#
# PCOD9528455 Si02
#       6
#     8  16   8   8  16   4
#     4  12  23  40  63 106 156 194 238 289 359 456
#     4  11  26  49  74 105 144 193 248 314 370 432
#     4  11  22  36  63  97 140 198 243 287 362 435
#     4  10  22  40  66  92 146 194 246 294 362 434
#     4  12  27  45  74 111 156 194 246 298 371 452
#     4  10  28  54  84  98 144 190 262 324 380 410
#
# _framework density 22.296976000000001
#
# number of rings (size 3 to 8) (size 9 to 14) (size 15 to 20)
#    0.000    0.800    2.667    3.600    7.467    2.133 
#    0.000    0.000    0.000    0.000    0.000    0.000 
#    0.000    0.000    0.000    0.000    0.000    0.000 
#
# Total GULP energy -167503.621319 kJ/mol
# GULP energy per Si atom -5583.454044 kJ/mol
# Density = 2.224623 g / cm^3
# Si number density = 22.296976 Si / 1000 Ang^3
#
#
#
# Elastic Constant Matrix: (Units=GPa)
#
#
# Indices 1 2 3 4 5 6 
#
# 1 171.9400 38.2574 44.0977 0.0000 0.0000 0.0000
# 2 38.2574 129.0732 47.9911 0.0000 0.0000 0.0000
# 3 44.0977 47.9911 90.8007 0.0000 0.0000 0.0000
# 4 0.0000 0.0000 0.0000 14.3640 0.0000 0.0000
# 5 0.0000 0.0000 0.0000 0.0000 56.1365 0.0000
# 6 0.0000 0.0000 0.0000 0.0000 0.0000 25.1792
#
#
#
# Elastic Compliance Matrix: (Units=1/GPa)
#
#
# Indices 1 2 3 4 5 6 
#
# 1 0.006740 -0.000972 -0.002760 0.000000 0.000000 0.000000
# 2 -0.000972 0.009782 -0.004698 0.000000 0.000000 0.000000
# 3 -0.002760 -0.004698 0.014837 0.000000 0.000000 0.000000
# 4 0.000000 0.000000 0.000000 0.069618 0.000000 0.000000
# 5 0.000000 0.000000 0.000000 0.000000 0.017814 0.000000
# 6 0.000000 0.000000 0.000000 0.000000 0.000000 0.039715
#
#
# Mechanical properties :
#
#
# Convention : Reuss Voigt Hill
#
# Bulk Modulus (GPa) = 68.96815 72.50070 70.73442
# Shear Modulus (GPa) = 27.74700 36.56711 32.15706
#
# Velocity S-wave (km/s) = 3.53147 4.05409 3.80177
# Velocity P-wave (km/s) = 6.90124 7.38246 7.14590
#
# Compressibility (1/GPa) = 0.01449945
#
# Stress axis : x y z
#
# Youngs Moduli (GPa) = 148.36857 102.22346 67.40030
#
# Poissons Ratio (x) = 0.09932 0.18601
# Poissons Ratio (y) = 0.14416 0.31668
# Poissons Ratio (z) = 0.40946 0.48030
#
# Static dielectric constant tensor:
#      x y z
#    x 1.878330 0.000000 0.000000 
#    y 0.000000 1.783520 0.000000 
#    z 0.000000 0.000000 1.924590 
# 
# From -- ./inp_files/46913.got.cif
#   From: 2010.05.17/outbox.cif.g08.bks.cpg/sg72_24_cif.got.tgz:46913.got - 2010.06.03 17:03:01.
