data_PCOD9528027
_publ_section_title
;
Structure prediction by ZEFSAII (Michael W. Deem and Ramdas Pophale) SiO2 
 PCOD9528027
Probable space group: I B A M
;
_chemical_formula_sum "Si O2"
_cell_formula_units_Z 104
_cell_length_a 26.528721
_cell_length_b 8.536329
_cell_length_c 22.911696
_cell_angle_alpha 90.000000
_cell_angle_beta 90.000000
_cell_angle_gamma 90.000000
_cell_volume 5188.534342
_symmetry_space_group_name_H-M "I B A M"
_symmetry_group_IT_number 72
_symmetry_cell_setting 'orthorhombic'
loop_
_space_group_symop_operation_xyz
x,y,z
-x,-y,z
x,-y,1/2-z
-x,y,1/2-z
-x,-y,-z
x,y,-z
-x,y,1/2+z
x,-y,1/2+z
1/2+x,1/2+y,1/2+z
1/2-x,1/2-y,1/2+z
1/2+x,1/2-y,-z
1/2-x,1/2+y,-z
1/2-x,1/2-y,1/2-z
1/2+x,1/2+y,1/2-z
1/2-x,1/2+y,z
1/2+x,1/2-y,z
loop_
_atom_site_type_symbol
_atom_site_label
_atom_site_fract_x
_atom_site_fract_y
_atom_site_fract_z
Si Si1 0.698640 0.749556 0.566914
Si Si2 0.267688 0.457827 0.860442
Si Si3 0.150809 0.166064 0.281629
Si Si4 0.592685 0.652446 0.436111
Si Si5 0.554071 0.415796 0.656416
Si Si6 0.194406 0.500000 0.750000
Si Si7 0.513480 0.174541 0.565544
O O1 0.710291 0.706620 0.500000
O O2 0.708415 0.613091 0.613330
O O3 0.733742 0.887716 0.588181
O O4 0.638481 0.773331 0.570093
O O5 0.312541 0.344531 0.838258
O O6 0.230438 0.489388 0.806406
O O7 0.091174 0.148554 0.293976
O O8 0.163873 0.334262 0.252665
O O9 0.164072 0.000000 0.250000
O O10 0.600132 0.571899 0.500000
O O11 0.587200 0.537828 0.381554
O O12 0.539494 0.736679 0.438940
O O13 0.500000 0.500000 0.671285
O O14 0.543812 0.272391 0.612593
O O15 0.536134 0.170620 0.500000
O O16 0.500000 0.000000 0.584103
#
# Coordination Sequence:
#
# PCOD9528027 Si02
#       7
#    16  16  16  16  16   8  16
#     4  11  23  38  61  96 139 174 208 267 336 398
#     4  12  22  43  65  95 131 171 229 274 325 395
#     4  12  25  44  69  96 125 169 224 284 333 386
#     4   9  18  34  58  88 123 170 209 247 311 387
#     4  10  21  39  63  91 121 165 211 267 324 388
#     4  12  26  44  72 101 123 176 238 286 320 388
#     4   9  18  35  59  90 127 164 210 258 310 387
#
# _framework density 20.044195999999999
#
# number of rings (size 3 to 8) (size 9 to 14) (size 15 to 20)
#    0.000    1.385    3.846    2.308    0.000    3.385 
#    2.769    0.000    0.000    0.000    0.000    0.000 
#    0.000    0.000    0.000    0.000    0.000    0.000 
#
# Total GULP energy -289849.278033 kJ/mol
# GULP energy per Si atom -5574.024578 kJ/mol
# Density = 1.999857 g / cm^3
# Si number density = 20.044196 Si / 1000 Ang^3
#
#
#
# Elastic Constant Matrix: (Units=GPa)
#
#
# Indices 1 2 3 4 5 6 
#
# 1 85.6040 11.4939 28.9383 0.0000 0.0000 0.0000
# 2 11.4939 71.6869 15.6535 0.0000 0.0000 0.0000
# 3 28.9383 15.6535 57.6386 0.0000 0.0000 0.0000
# 4 0.0000 0.0000 0.0000 25.2142 0.0000 0.0000
# 5 0.0000 0.0000 0.0000 0.0000 100.4353 0.0000
# 6 0.0000 0.0000 0.0000 0.0000 0.0000 11.2989
#
#
#
# Elastic Compliance Matrix: (Units=1/GPa)
#
#
# Indices 1 2 3 4 5 6 
#
# 1 0.014109 -0.000760 -0.006877 0.000000 0.000000 0.000000
# 2 -0.000760 0.014870 -0.003657 0.000000 0.000000 0.000000
# 3 -0.006877 -0.003657 0.021795 0.000000 0.000000 0.000000
# 4 0.000000 0.000000 0.000000 0.039660 0.000000 0.000000
# 5 0.000000 0.000000 0.000000 0.000000 0.009957 0.000000
# 6 0.000000 0.000000 0.000000 0.000000 0.000000 0.088504
#
#
# Mechanical properties :
#
#
# Convention : Reuss Voigt Hill
#
# Bulk Modulus (GPa) = 35.47885 36.34456 35.91170
# Shear Modulus (GPa) = 22.63697 37.97928 30.30812
#
# Velocity S-wave (km/s) = 3.36423 4.35763 3.89275
# Velocity P-wave (km/s) = 5.72970 6.59470 6.17736
#
# Compressibility (1/GPa) = 0.02818580
#
# Stress axis : x y z
#
# Youngs Moduli (GPa) = 70.87918 67.24985 45.88174
#
# Poissons Ratio (x) = 0.05114 0.31552
# Poissons Ratio (y) = 0.05390 0.16777
# Poissons Ratio (z) = 0.48743 0.24590
#
# Static dielectric constant tensor:
#      x y z
#    x 1.588400 0.000000 0.000000 
#    y 0.000000 1.441940 0.000000 
#    z 0.000000 0.000000 1.784140 
# 
# From -- ./inp_files/40764.got.cif
#   From: 2010.05.17/outbox.cif.g08.bks.cpg/sg72_21_cif.got.tgz:40764.got - 2010.06.03 17:03:01.
