data_PCOD9528089
_publ_section_title
;
Structure prediction by ZEFSAII (Michael W. Deem and Ramdas Pophale) SiO2 
 PCOD9528089
Probable space group: I B A M
;
_chemical_formula_sum "Si O2"
_cell_formula_units_Z 96
_cell_length_a 27.402187
_cell_length_b 21.229352
_cell_length_c 8.158571
_cell_angle_alpha 90.000000
_cell_angle_beta 90.000000
_cell_angle_gamma 90.000000
_cell_volume 4746.091002
_symmetry_space_group_name_H-M "I B A M"
_symmetry_group_IT_number 72
_symmetry_cell_setting 'orthorhombic'
loop_
_space_group_symop_operation_xyz
x,y,z
-x,-y,z
x,-y,1/2-z
-x,y,1/2-z
-x,-y,-z
x,y,-z
-x,y,1/2+z
x,-y,1/2+z
1/2+x,1/2+y,1/2+z
1/2-x,1/2-y,1/2+z
1/2+x,1/2-y,-z
1/2-x,1/2+y,-z
1/2-x,1/2-y,1/2-z
1/2+x,1/2+y,1/2-z
1/2-x,1/2+y,z
1/2+x,1/2-y,z
loop_
_atom_site_type_symbol
_atom_site_label
_atom_site_fract_x
_atom_site_fract_y
_atom_site_fract_z
Si Si1 0.214221 0.603940 0.689140
Si Si2 0.893762 0.433083 0.689556
Si Si3 0.944467 0.695316 0.198970
Si Si4 0.323338 0.430249 0.302461
Si Si5 0.385918 0.688260 0.813464
Si Si6 0.697501 0.233727 0.683379
O O1 0.217260 0.626636 0.500000
O O2 0.165262 0.562962 0.697488
O O3 0.268023 0.579354 0.734773
O O4 0.199383 0.659343 0.810441
O O5 0.913881 0.500000 0.750000
O O6 0.907028 0.429281 0.500000
O O7 0.913608 0.366069 0.759119
O O8 0.926323 0.764466 0.262180
O O9 0.000000 0.685577 0.250000
O O10 0.939849 0.698632 0.000000
O O11 0.339226 0.500000 0.250000
O O12 0.320342 0.425647 0.500000
O O13 0.361554 0.376075 0.244343
O O14 0.340518 0.736312 0.807151
O O15 0.400627 0.673151 0.000000
O O16 0.688124 0.257373 0.500000
O O17 0.750000 0.250000 0.750000
#
# Coordination Sequence:
#
# PCOD9528089 Si02
#       6
#    16  16  16  16  16  16
#     4  11  21  36  56  81 118 160 200 238 277 332
#     4  10  22  38  57  81 117 157 194 238 284 334
#     4  10  22  42  63  86 112 143 188 245 300 352
#     4  11  23  37  57  85 119 159 194 236 287 344
#     4  10  21  40  61  81 113 152 193 239 294 347
#     4  12  22  32  53  84 116 152 195 238 284 337
#
# _framework density 20.227171999999999
#
# number of rings (size 3 to 8) (size 9 to 14) (size 15 to 20)
#    0.000    1.333    3.333    3.000    0.000    5.000 
#    0.000    1.667    0.000    0.500    0.000    3.500 
#    0.000    0.000    0.000    0.000    0.000    0.000 
#
# Total GULP energy -267248.974399 kJ/mol
# GULP energy per Si atom -5567.686967 kJ/mol
# Density = 2.018113 g / cm^3
# Si number density = 20.227172 Si / 1000 Ang^3
#
#
#
# Elastic Constant Matrix: (Units=GPa)
#
#
# Indices 1 2 3 4 5 6 
#
# 1 77.8623 42.7362 12.1504 0.0000 0.0000 0.0000
# 2 42.7362 145.3897 21.6076 0.0000 0.0000 0.0000
# 3 12.1504 21.6076 45.9780 0.0000 0.0000 0.0000
# 4 0.0000 0.0000 0.0000 23.2006 0.0000 0.0000
# 5 0.0000 0.0000 0.0000 0.0000 17.5393 0.0000
# 6 0.0000 0.0000 0.0000 0.0000 0.0000 -2.5262
#
#
#
# Elastic Compliance Matrix: (Units=1/GPa)
#
#
# Indices 1 2 3 4 5 6 
#
# 1 0.015501 -0.004244 -0.002102 0.000000 0.000000 0.000000
# 2 -0.004244 0.008556 -0.002900 0.000000 0.000000 0.000000
# 3 -0.002102 -0.002900 0.023668 0.000000 0.000000 0.000000
# 4 0.000000 0.000000 0.000000 0.043102 0.000000 0.000000
# 5 0.000000 0.000000 0.000000 0.000000 0.057015 0.000000
# 6 0.000000 0.000000 0.000000 0.000000 0.000000 -0.395850
#
#
# Mechanical properties :
#
#
# Convention : Reuss Voigt Hill
#
# Bulk Modulus (GPa) = 34.20682 46.91316 40.55999
# Shear Modulus (GPa) = -22.75074 20.49180 -1.12947
#
# Velocity S-wave (km/s) = -3.35738 3.18635 -0.74807
# Velocity P-wave (km/s) = 1.38516 6.06470 4.39882
#
# Compressibility (1/GPa) = 0.02923394
#
# Stress axis : x y z
#
# Youngs Moduli (GPa) = 64.51398 116.87067 42.25178
#
# Poissons Ratio (x) = 0.49599 0.08881
# Poissons Ratio (y) = 0.27379 0.12251
# Poissons Ratio (z) = 0.13560 0.33888
#
# Static dielectric constant tensor:
#      x y z
#    x 1.693520 0.000000 0.000000 
#    y 0.000000 1.881360 0.000000 
#    z 0.000000 0.000000 1.753810 
# 
# From -- ./inp_files/5950.got.cif
#   From: 2010.05.17/outbox.cif.g08.bks.cpg/sg72_3_cif.got.tgz:5950.got - 2010.06.03 17:03:01.
