data_PCOD9528571
_publ_section_title
;
Structure prediction by ZEFSAII (Michael W. Deem and Ramdas Pophale) SiO2 
 PCOD9528571
Probable space group: I B A M
;
_chemical_formula_sum "Si O2"
_cell_formula_units_Z 116
_cell_length_a 23.369331
_cell_length_b 13.212379
_cell_length_c 18.544894
_cell_angle_alpha 90.000000
_cell_angle_beta 90.000000
_cell_angle_gamma 90.000000
_cell_volume 5726.004147
_symmetry_space_group_name_H-M "I B A M"
_symmetry_group_IT_number 72
_symmetry_cell_setting 'orthorhombic'
loop_
_space_group_symop_operation_xyz
x,y,z
-x,-y,z
x,-y,1/2-z
-x,y,1/2-z
-x,-y,-z
x,y,-z
-x,y,1/2+z
x,-y,1/2+z
1/2+x,1/2+y,1/2+z
1/2-x,1/2-y,1/2+z
1/2+x,1/2-y,-z
1/2-x,1/2+y,-z
1/2-x,1/2-y,1/2-z
1/2+x,1/2+y,1/2-z
1/2-x,1/2+y,z
1/2+x,1/2-y,z
loop_
_atom_site_type_symbol
_atom_site_label
_atom_site_fract_x
_atom_site_fract_y
_atom_site_fract_z
Si Si1 0.463863 0.166356 0.135329
Si Si2 0.922267 0.395022 0.574971
Si Si3 0.237544 0.265120 0.164902
Si Si4 0.481913 0.389087 0.665518
Si Si5 0.333973 0.829558 0.415412
Si Si6 0.500000 0.000000 0.750000
Si Si7 0.631530 0.327979 0.915885
Si Si8 0.172477 0.527211 0.666927
O O1 0.510511 0.116938 0.082568
O O2 0.487326 0.281733 0.145542
O O3 0.400216 0.174789 0.106226
O O4 0.466819 0.086114 0.201769
O O5 0.906690 0.448334 0.500000
O O6 0.894972 0.283896 0.574186
O O7 0.891478 0.445052 0.642009
O O8 0.250000 0.250000 0.250000
O O9 0.297112 0.255904 0.123487
O O10 0.191100 0.188828 0.127569
O O11 0.210935 0.375375 0.154642
O O12 0.500000 0.500000 0.635284
O O13 0.500000 0.394193 0.750000
O O14 0.416133 0.378963 0.636854
O O15 0.326773 0.824923 0.500000
O O16 0.309891 0.933303 0.381785
O O17 0.637516 0.367245 0.000000
O O18 0.174296 0.500000 0.750000
#
# Coordination Sequence:
#
# PCOD9528571 Si02
#       8
#    16  16  16  16  16   4  16  16
#     4  11  24  38  66 100 142 173 228 284 356 417
#     4   9  19  37  63  92 132 172 209 267 342 418
#     4  11  24  44  71  95 132 183 238 288 342 416
#     4  10  22  42  68 101 140 182 228 284 349 426
#     4  12  27  44  68 101 141 177 228 299 358 418
#     4  12  24  36  64 100 132 188 226 282 346 432
#     4   9  20  40  67  95 129 177 228 274 338 416
#     4  11  23  41  67  98 133 177 231 283 350 420
#
# _framework density 20.258455999999999
#
# number of rings (size 3 to 8) (size 9 to 14) (size 15 to 20)
#    0.000    1.517    2.069    2.069    5.793    2.483 
#    2.483    2.069    0.000    0.000    0.000    0.000 
#    0.000    0.000    0.000    0.000    0.000    0.000 
#
# Total GULP energy -323051.809042 kJ/mol
# GULP energy per Si atom -5569.858777 kJ/mol
# Density = 2.021235 g / cm^3
# Si number density = 20.258456 Si / 1000 Ang^3
#
#
#
# Elastic Constant Matrix: (Units=GPa)
#
#
# Indices 1 2 3 4 5 6 
#
# 1 128.9251 33.6151 60.9634 0.0000 0.0000 0.0000
# 2 33.6151 104.4260 26.9151 0.0000 0.0000 0.0000
# 3 60.9634 26.9151 143.7649 0.0000 0.0000 0.0000
# 4 0.0000 0.0000 0.0000 34.7113 0.0000 0.0000
# 5 0.0000 0.0000 0.0000 0.0000 2.9728 0.0000
# 6 0.0000 0.0000 0.0000 0.0000 0.0000 -57.4766
#
#
#
# Elastic Compliance Matrix: (Units=1/GPa)
#
#
# Indices 1 2 3 4 5 6 
#
# 1 0.010192 -0.002277 -0.003896 0.000000 0.000000 0.000000
# 2 -0.002277 0.010570 -0.001013 0.000000 0.000000 0.000000
# 3 -0.003896 -0.001013 0.008798 0.000000 0.000000 0.000000
# 4 0.000000 0.000000 0.000000 0.028809 0.000000 0.000000
# 5 0.000000 0.000000 0.000000 0.000000 0.336388 0.000000
# 6 0.000000 0.000000 0.000000 0.000000 0.000000 -0.017398
#
#
# Mechanical properties :
#
#
# Convention : Reuss Voigt Hill
#
# Bulk Modulus (GPa) = 65.84138 68.90036 67.37087
# Shear Modulus (GPa) = 12.60102 13.08299 12.84201
#
# Velocity S-wave (km/s) = 2.49672 2.54402 2.52049
# Velocity P-wave (km/s) = 6.39396 6.53559 6.46516
#
# Compressibility (1/GPa) = 0.01518802
#
# Stress axis : x y z
#
# Youngs Moduli (GPa) = 98.11405 94.60488 113.66833
#
# Poissons Ratio (x) = 0.21540 0.44282
# Poissons Ratio (y) = 0.22339 0.11520
# Poissons Ratio (z) = 0.38223 0.09588
#
# Static dielectric constant tensor:
#      x y z
#    x 1.765880 0.000000 0.000000 
#    y 0.000000 1.740020 0.000000 
#    z 0.000000 0.000000 1.763810 
# 
# From -- ./inp_files/33433.got.cif
#   From: 2010.05.17/outbox.cif.g08.bks.cpg/sg72_17_cif.got.tgz:33433.got - 2010.06.03 17:03:01.
