data_PCOD9528882
_publ_section_title
;
Structure prediction by ZEFSAII (Michael W. Deem and Ramdas Pophale) SiO2 
 PCOD9528882
Probable space group: I B A M
;
_chemical_formula_sum "Si O2"
_cell_formula_units_Z 52
_cell_length_a 9.127346
_cell_length_b 19.940853
_cell_length_c 14.716004
_cell_angle_alpha 90.000000
_cell_angle_beta 90.000000
_cell_angle_gamma 90.000000
_cell_volume 2678.416695
_symmetry_space_group_name_H-M "I B A M"
_symmetry_group_IT_number 72
_symmetry_cell_setting 'orthorhombic'
loop_
_space_group_symop_operation_xyz
x,y,z
-x,-y,z
x,-y,1/2-z
-x,y,1/2-z
-x,-y,-z
x,y,-z
-x,y,1/2+z
x,-y,1/2+z
1/2+x,1/2+y,1/2+z
1/2-x,1/2-y,1/2+z
1/2+x,1/2-y,-z
1/2-x,1/2+y,-z
1/2-x,1/2-y,1/2-z
1/2+x,1/2+y,1/2-z
1/2-x,1/2+y,z
1/2+x,1/2-y,z
loop_
_atom_site_type_symbol
_atom_site_label
_atom_site_fract_x
_atom_site_fract_y
_atom_site_fract_z
Si Si1 0.992038 0.304114 0.500000
Si Si2 0.348447 0.336075 0.000000
Si Si3 0.500000 0.000000 0.250000
Si Si4 0.342965 0.912304 0.400668
Si Si5 0.988397 0.920546 0.857331
O O1 0.818715 0.312735 0.500000
O O2 0.047142 0.228672 0.500000
O O3 0.062604 0.344951 0.584850
O O4 0.388766 0.381184 0.912916
O O5 0.599524 0.044484 0.317019
O O6 0.358835 0.947713 0.500000
O O7 0.172176 0.897213 0.388504
O O8 0.000000 0.910411 0.750000
O O9 0.000000 0.000000 0.876056
#
# Coordination Sequence:
#
# PCOD9528882 Si02
#       5
#     8   8   4  16  16
#     4  10  26  44  68  91 133 174 221 267 338 382
#     4  12  23  47  66  93 130 179 217 275 326 397
#     4  12  22  36  74  98 140 168 226 260 332 386
#     4  10  24  42  63  98 139 168 217 273 324 383
#     4  11  24  40  68 100 134 171 220 269 332 389
#
# _framework density 19.414456000000001
#
# number of rings (size 3 to 8) (size 9 to 14) (size 15 to 20)
#    0.923    0.308    1.538    4.615    8.615    0.000 
#    2.769    3.077    0.000    0.000    0.000    0.000 
#    0.000    0.000    0.000    0.000    0.000    0.000 
#
# Total GULP energy -145186.926674 kJ/mol
# GULP energy per Si atom -5584.112564 kJ/mol
# Density = 1.937027 g / cm^3
# Si number density = 19.414456 Si / 1000 Ang^3
#
#
#
# Elastic Constant Matrix: (Units=GPa)
#
#
# Indices 1 2 3 4 5 6 
#
# 1 143.6457 47.2739 32.3391 0.0000 0.0000 0.0000
# 2 47.2739 105.4213 58.7588 0.0000 0.0000 0.0000
# 3 32.3391 58.7588 120.7713 0.0000 -0.0001 0.0000
# 4 0.0000 0.0000 0.0000 -73.7840 -0.0001 0.0000
# 5 0.0000 0.0000 -0.0001 -0.0001 76.6706 0.0000
# 6 0.0000 0.0000 0.0000 0.0000 0.0000 29.6977
#
#
#
# Elastic Compliance Matrix: (Units=1/GPa)
#
#
# Indices 1 2 3 4 5 6 
#
# 1 0.008194 -0.003364 -0.000558 0.000000 0.000000 0.000000
# 2 -0.003364 0.014396 -0.006103 0.000000 0.000000 0.000000
# 3 -0.000558 -0.006103 0.011399 0.000000 0.000000 0.000000
# 4 0.000000 0.000000 0.000000 -0.013553 0.000000 0.000000
# 5 0.000000 0.000000 0.000000 0.000000 0.013043 0.000000
# 6 0.000000 0.000000 0.000000 0.000000 0.000000 0.033673
#
#
# Mechanical properties :
#
#
# Convention : Reuss Voigt Hill
#
# Bulk Modulus (GPa) = 71.73785 71.84244 71.79015
# Shear Modulus (GPa) = 54.43828 21.94796 38.19312
#
# Velocity S-wave (km/s) = 5.30103 3.36593 4.44018
# Velocity P-wave (km/s) = 8.63127 7.22433 7.95895
#
# Compressibility (1/GPa) = 0.01393964
#
# Stress axis : x y z
#
# Youngs Moduli (GPa) = 122.03911 69.46401 87.72777
#
# Poissons Ratio (x) = 0.23365 0.04892
# Poissons Ratio (y) = 0.41050 0.53543
# Poissons Ratio (z) = 0.06805 0.42396
#
# Static dielectric constant tensor:
#      x y z
#    x 1.673900 0.000000 0.000000 
#    y 0.000000 1.672580 0.000000 
#    z 0.000000 0.000000 1.686160 
# 
# From -- ./inp_files/18339.got.cif
#   From: 2010.05.17/outbox.cif.g08.bks.cpg/sg72_10_cif.got.tgz:18339.got - 2010.06.03 17:03:01.
