data_PCOD9528002
_publ_section_title
;
Structure prediction by ZEFSAII (Michael W. Deem and Ramdas Pophale) SiO2 
 PCOD9528002
Probable space group: I B A M
;
_chemical_formula_sum "Si O2"
_cell_formula_units_Z 56
_cell_length_a 34.107747
_cell_length_b 5.094839
_cell_length_c 14.279928
_cell_angle_alpha 90.000000
_cell_angle_beta 90.000000
_cell_angle_gamma 90.000000
_cell_volume 2481.472777
_symmetry_space_group_name_H-M "I B A M"
_symmetry_group_IT_number 72
_symmetry_cell_setting 'orthorhombic'
loop_
_space_group_symop_operation_xyz
x,y,z
-x,-y,z
x,-y,1/2-z
-x,y,1/2-z
-x,-y,-z
x,y,-z
-x,y,1/2+z
x,-y,1/2+z
1/2+x,1/2+y,1/2+z
1/2-x,1/2-y,1/2+z
1/2+x,1/2-y,-z
1/2-x,1/2+y,-z
1/2-x,1/2-y,1/2-z
1/2+x,1/2+y,1/2-z
1/2-x,1/2+y,z
1/2+x,1/2-y,z
loop_
_atom_site_type_symbol
_atom_site_label
_atom_site_fract_x
_atom_site_fract_y
_atom_site_fract_z
Si Si1 0.971621 0.742369 0.500000
Si Si2 0.726586 0.487426 0.863771
Si Si3 0.592217 0.024557 0.362168
Si Si4 0.638366 0.516007 0.363119
O O1 0.943877 0.677250 0.589486
O O2 0.000000 0.500000 0.500000
O O3 0.000000 0.000000 0.500000
O O4 0.725855 0.500000 0.750000
O O5 0.742394 0.769111 0.893156
O O6 0.682402 0.419392 0.892419
O O7 0.627519 0.219853 0.388412
O O8 0.586190 0.000000 0.250000
O O9 0.606101 0.733159 0.392392
O O10 0.637442 0.500000 0.250000
#
# Coordination Sequence:
#
# PCOD9528002 Si02
#       4
#     8  16  16  16
#     4  12  26  44  66  94 122 152 196 250 312 382
#     4   9  15  23  40  73 114 151 192 244 291 333
#     4  10  21  39  61  87 118 155 197 243 297 361
#     4   9  17  31  53  81 116 157 201 243 290 353
#
# _framework density 22.567245
#
# number of rings (size 3 to 8) (size 9 to 14) (size 15 to 20)
#    0.000    2.286    0.000    3.429    0.000    7.429 
#    0.000    1.429    0.000    0.000    0.000   20.000 
#    0.000    0.000    0.000    0.000    0.000    0.000 
#
# Total GULP energy -156099.439654 kJ/mol
# GULP energy per Si atom -5574.979988 kJ/mol
# Density = 2.251588 g / cm^3
# Si number density = 22.567245 Si / 1000 Ang^3
#
#
#
# Elastic Constant Matrix: (Units=GPa)
#
#
# Indices 1 2 3 4 5 6 
#
# 1 120.0954 47.6619 23.8658 0.0000 0.0000 0.0000
# 2 47.6619 158.1671 18.8851 0.0000 0.0000 0.0000
# 3 23.8658 18.8851 137.6333 0.0000 0.0000 0.0000
# 4 0.0000 0.0000 0.0000 -4.9499 0.0000 0.0000
# 5 0.0000 0.0000 0.0000 0.0000 26.2576 0.0000
# 6 0.0000 0.0000 0.0000 0.0000 0.0000 52.7886
#
#
#
# Elastic Compliance Matrix: (Units=1/GPa)
#
#
# Indices 1 2 3 4 5 6 
#
# 1 0.009681 -0.002762 -0.001300 0.000000 0.000000 0.000000
# 2 -0.002762 0.007216 -0.000511 0.000000 0.000000 0.000000
# 3 -0.001300 -0.000511 0.007561 0.000000 0.000000 0.000000
# 4 0.000000 0.000000 0.000000 -0.202024 0.000000 0.000000
# 5 0.000000 0.000000 0.000000 0.000000 0.038084 0.000000
# 6 0.000000 0.000000 0.000000 0.000000 0.000000 0.018943
#
#
# Mechanical properties :
#
#
# Convention : Reuss Voigt Hill
#
# Bulk Modulus (GPa) = 65.30751 66.30235 65.80493
# Shear Modulus (GPa) = -47.04191 36.51813 -5.26189
#
# Velocity S-wave (km/s) = -4.57061 4.02704 -1.52863
# Velocity P-wave (km/s) = 1.07142 7.14608 5.10952
#
# Compressibility (1/GPa) = 0.01531218
#
# Stress axis : x y z
#
# Youngs Moduli (GPa) = 103.29298 138.58485 132.25420
#
# Poissons Ratio (x) = 0.38279 0.17189
# Poissons Ratio (y) = 0.28531 0.06760
# Poissons Ratio (z) = 0.13425 0.07084
#
# Static dielectric constant tensor:
#      x y z
#    x 1.740520 0.000000 0.000000 
#    y 0.000000 1.769670 0.000000 
#    z 0.000000 0.000000 1.915990 
# 
# From -- ./inp_files/26150.got.cif
#   From: 2010.05.17/outbox.cif.g08.bks.cpg/sg72_14_cif.got.tgz:26150.got - 2010.06.03 17:03:01.
