data_PCOD9528348
_publ_section_title
;
Structure prediction by ZEFSAII (Michael W. Deem and Ramdas Pophale) SiO2 
 PCOD9528348
Probable space group: I B A M
;
_chemical_formula_sum "Si O2"
_cell_formula_units_Z 96
_cell_length_a 9.326804
_cell_length_b 21.548500
_cell_length_c 24.174542
_cell_angle_alpha 90.000000
_cell_angle_beta 90.000000
_cell_angle_gamma 90.000000
_cell_volume 4858.566477
_symmetry_space_group_name_H-M "I B A M"
_symmetry_group_IT_number 72
_symmetry_cell_setting 'orthorhombic'
loop_
_space_group_symop_operation_xyz
x,y,z
-x,-y,z
x,-y,1/2-z
-x,y,1/2-z
-x,-y,-z
x,y,-z
-x,y,1/2+z
x,-y,1/2+z
1/2+x,1/2+y,1/2+z
1/2-x,1/2-y,1/2+z
1/2+x,1/2-y,-z
1/2-x,1/2+y,-z
1/2-x,1/2-y,1/2-z
1/2+x,1/2+y,1/2-z
1/2-x,1/2+y,z
1/2+x,1/2-y,z
loop_
_atom_site_type_symbol
_atom_site_label
_atom_site_fract_x
_atom_site_fract_y
_atom_site_fract_z
Si Si1 0.402102 0.061232 0.158380
Si Si2 0.316706 0.437698 0.435494
Si Si3 0.138652 0.913670 0.064929
Si Si4 0.129668 0.229470 0.791924
Si Si5 0.340703 0.404234 0.264355
Si Si6 0.669440 0.146510 0.158270
O O1 0.317165 0.077662 0.102640
O O2 0.276631 0.054064 0.204316
O O3 0.515491 0.115367 0.169926
O O4 0.500000 0.000000 0.153609
O O5 0.292574 0.423935 0.500000
O O6 0.332563 0.512485 0.429976
O O7 0.470140 0.407757 0.419474
O O8 0.249763 0.877290 0.103500
O O9 0.153737 0.897650 0.000000
O O10 0.250000 0.250000 0.750000
O O11 0.139654 0.156606 0.803599
O O12 0.142356 0.279583 0.840317
O O13 0.000000 0.237931 0.750000
O O14 0.500000 0.428497 0.250000
O O15 0.270423 0.377915 0.208221
#
# Coordination Sequence:
#
# PCOD9528348 Si02
#       6
#    16  16  16  16  16  16
#     4  12  23  36  54  89 126 153 185 244 311 355
#     4   9  19  37  56  77 114 161 204 235 277 359
#     4   9  18  35  58  83 113 156 206 244 283 352
#     4   9  18  35  57  80 106 146 199 240 274 338
#     4  10  22  39  58  79 112 161 205 235 282 357
#     4  11  20  34  56  86 118 150 189 250 305 341
#
# _framework density 19.758914999999998
#
# number of rings (size 3 to 8) (size 9 to 14) (size 15 to 20)
#    0.000    2.000    1.667    4.500    0.000    2.333 
#    0.000    0.833    0.000    1.000    0.000   14.000 
#    0.000    0.000    0.000    0.000    0.000    0.000 
#
# Total GULP energy -267627.392829 kJ/mol
# GULP energy per Si atom -5575.570684 kJ/mol
# Density = 1.971394 g / cm^3
# Si number density = 19.758915 Si / 1000 Ang^3
#
#
#
# Elastic Constant Matrix: (Units=GPa)
#
#
# Indices 1 2 3 4 5 6 
#
# 1 139.8302 10.9173 35.2127 0.0000 0.0000 0.0000
# 2 10.9173 37.7336 12.1442 0.0000 0.0000 0.0000
# 3 35.2127 12.1442 70.3918 0.0000 0.0000 0.0000
# 4 0.0000 0.0000 0.0000 10.6687 0.0000 0.0000
# 5 0.0000 0.0000 0.0000 0.0000 30.8714 0.0000
# 6 0.0000 0.0000 0.0000 0.0000 0.0000 15.6142
#
#
#
# Elastic Compliance Matrix: (Units=1/GPa)
#
#
# Indices 1 2 3 4 5 6 
#
# 1 0.008227 -0.001118 -0.003922 0.000000 0.000000 0.000000
# 2 -0.001118 0.028211 -0.004308 0.000000 0.000000 0.000000
# 3 -0.003922 -0.004308 0.016912 0.000000 0.000000 0.000000
# 4 0.000000 0.000000 0.000000 0.093732 0.000000 0.000000
# 5 0.000000 0.000000 0.000000 0.000000 0.032392 0.000000
# 6 0.000000 0.000000 0.000000 0.000000 0.000000 0.064044
#
#
# Mechanical properties :
#
#
# Convention : Reuss Voigt Hill
#
# Bulk Modulus (GPa) = 28.85728 40.50044 34.67886
# Shear Modulus (GPa) = 18.26379 24.07628 21.17004
#
# Velocity S-wave (km/s) = 3.04358 3.49449 3.27680
# Velocity P-wave (km/s) = 5.19496 6.06826 5.64851
#
# Compressibility (1/GPa) = 0.03465330
#
# Stress axis : x y z
#
# Youngs Moduli (GPa) = 121.55751 35.44655 59.13110
#
# Poissons Ratio (x) = 0.03962 0.23194
# Poissons Ratio (y) = 0.13587 0.25474
# Poissons Ratio (z) = 0.47680 0.15270
#
# Static dielectric constant tensor:
#      x y z
#    x 1.709200 0.000000 0.000000 
#    y 0.000000 1.788900 0.000000 
#    z 0.000000 0.000000 1.694690 
# 
# From -- ./inp_files/42436.got.cif
#   From: 2010.05.17/outbox.cif.g08.bks.cpg/sg72_22_cif.got.tgz:42436.got - 2010.06.03 17:03:01.
