data_PCOD9528101
_publ_section_title
;
Structure prediction by ZEFSAII (Michael W. Deem and Ramdas Pophale) SiO2 
 PCOD9528101
Probable space group: I B A M
;
_chemical_formula_sum "Si O2"
_cell_formula_units_Z 80
_cell_length_a 14.612238
_cell_length_b 20.173839
_cell_length_c 14.487733
_cell_angle_alpha 90.000000
_cell_angle_beta 90.000000
_cell_angle_gamma 90.000000
_cell_volume 4270.765457
_symmetry_space_group_name_H-M "I B A M"
_symmetry_group_IT_number 72
_symmetry_cell_setting 'orthorhombic'
loop_
_space_group_symop_operation_xyz
x,y,z
-x,-y,z
x,-y,1/2-z
-x,y,1/2-z
-x,-y,-z
x,y,-z
-x,y,1/2+z
x,-y,1/2+z
1/2+x,1/2+y,1/2+z
1/2-x,1/2-y,1/2+z
1/2+x,1/2-y,-z
1/2-x,1/2+y,-z
1/2-x,1/2-y,1/2-z
1/2+x,1/2+y,1/2-z
1/2-x,1/2+y,z
1/2+x,1/2-y,z
loop_
_atom_site_type_symbol
_atom_site_label
_atom_site_fract_x
_atom_site_fract_y
_atom_site_fract_z
Si Si1 0.887235 0.247860 0.166979
Si Si2 0.682353 0.931267 0.304340
Si Si3 0.706628 0.673454 0.679802
Si Si4 0.934925 0.153042 0.000000
Si Si5 0.225894 0.047179 0.500000
Si Si6 0.000000 0.638343 0.750000
Si Si7 0.635743 0.597866 0.500000
O O1 0.783882 0.273864 0.147958
O O2 0.874229 0.210621 0.265146
O O3 0.925939 0.199726 0.089586
O O4 0.949433 0.312569 0.178825
O O5 0.745298 0.876254 0.253146
O O6 0.714370 0.943791 0.408165
O O7 0.578719 0.905155 0.296715
O O8 0.691139 0.000000 0.250000
O O9 0.672993 0.633580 0.591701
O O10 0.849613 0.104156 0.000000
O O11 0.026997 0.109729 0.000000
O O12 0.173253 0.976884 0.500000
#
# Coordination Sequence:
#
# PCOD9528101 Si02
#       7
#    16  16  16   8   8   8   8
#     4  10  21  40  62  95 128 160 212 262 326 384
#     4  11  22  44  68  91 131 169 214 262 320 385
#     4  10  21  40  66  89 127 175 205 264 326 383
#     4  12  24  40  63  94 131 163 220 268 315 380
#     4  12  25  43  65  96 124 176 215 262 321 385
#     4  10  23  40  66  98 125 164 214 264 322 380
#     4  12  24  39  63  91 127 166 222 259 317 379
#
# _framework density 18.732005999999998
#
# number of rings (size 3 to 8) (size 9 to 14) (size 15 to 20)
#    0.000    1.200    4.000    2.400    0.000    0.800 
#    3.600    3.000    0.000    0.000    0.000    0.000 
#    0.000    0.000    0.000    0.000    0.000    0.000 
#
# Total GULP energy -223519.049645 kJ/mol
# GULP energy per Si atom -5587.976241 kJ/mol
# Density = 1.868937 g / cm^3
# Si number density = 18.732006 Si / 1000 Ang^3
#
#
#
# Elastic Constant Matrix: (Units=GPa)
#
#
# Indices 1 2 3 4 5 6 
#
# 1 103.1567 44.9578 69.1047 0.0000 0.0000 0.0000
# 2 44.9578 101.6599 50.7902 0.0001 0.0000 0.0000
# 3 69.1047 50.7902 133.4078 0.0000 0.0000 0.0000
# 4 0.0000 0.0001 0.0000 109.0860 0.0001 0.0000
# 5 0.0000 0.0000 0.0000 0.0001 17.5110 0.0000
# 6 0.0000 0.0000 0.0000 0.0000 0.0000 39.7986
#
#
#
# Elastic Compliance Matrix: (Units=1/GPa)
#
#
# Indices 1 2 3 4 5 6 
#
# 1 0.015839 -0.003588 -0.006838 0.000000 0.000000 0.000000
# 2 -0.003588 0.012960 -0.003076 0.000000 0.000000 0.000000
# 3 -0.006838 -0.003076 0.012209 0.000000 0.000000 0.000000
# 4 0.000000 0.000000 0.000000 0.009167 0.000000 0.000000
# 5 0.000000 0.000000 0.000000 0.000000 0.057107 0.000000
# 6 0.000000 0.000000 0.000000 0.000000 0.000000 0.025127
#
#
# Mechanical properties :
#
#
# Convention : Reuss Voigt Hill
#
# Bulk Modulus (GPa) = 71.40835 74.21442 72.81138
# Shear Modulus (GPa) = 30.47292 44.83722 37.65507
#
# Velocity S-wave (km/s) = 4.03772 4.89777 4.48839
# Velocity P-wave (km/s) = 7.74218 8.46695 8.11266
#
# Compressibility (1/GPa) = 0.01400396
#
# Stress axis : x y z
#
# Youngs Moduli (GPa) = 63.13623 77.16052 81.90689
#
# Poissons Ratio (x) = 0.27685 0.56012
# Poissons Ratio (y) = 0.22653 0.25191
# Poissons Ratio (z) = 0.43175 0.23731
#
# Static dielectric constant tensor:
#      x y z
#    x 1.648450 0.000000 0.000000 
#    y 0.000000 1.637280 0.000000 
#    z 0.000000 0.000000 1.640300 
# 
# From -- ./inp_files/12828.got.cif
#   From: 2010.05.17/outbox.cif.g08.bks.cpg/sg72_7_cif.got.tgz:12828.got - 2010.06.03 17:03:01.
