data_PCOD9528790
_publ_section_title
;
Structure prediction by ZEFSAII (Michael W. Deem and Ramdas Pophale) SiO2 
 PCOD9528790
Probable space group: I B A M
;
_chemical_formula_sum "Si O2"
_cell_formula_units_Z 48
_cell_length_a 7.255642
_cell_length_b 17.300213
_cell_length_c 17.540180
_cell_angle_alpha 90.000000
_cell_angle_beta 90.000000
_cell_angle_gamma 90.000000
_cell_volume 2201.716221
_symmetry_space_group_name_H-M "I B A M"
_symmetry_group_IT_number 72
_symmetry_cell_setting 'orthorhombic'
loop_
_space_group_symop_operation_xyz
x,y,z
-x,-y,z
x,-y,1/2-z
-x,y,1/2-z
-x,-y,-z
x,y,-z
-x,y,1/2+z
x,-y,1/2+z
1/2+x,1/2+y,1/2+z
1/2-x,1/2-y,1/2+z
1/2+x,1/2-y,-z
1/2-x,1/2+y,-z
1/2-x,1/2-y,1/2-z
1/2+x,1/2+y,1/2-z
1/2-x,1/2+y,z
1/2+x,1/2-y,z
loop_
_atom_site_type_symbol
_atom_site_label
_atom_site_fract_x
_atom_site_fract_y
_atom_site_fract_z
Si Si1 0.365809 0.433752 0.411355
Si Si2 0.962484 0.646394 0.660998
Si Si3 0.168302 0.197853 0.412290
O O1 0.500000 0.500000 0.380138
O O2 0.324671 0.452093 0.500000
O O3 0.177744 0.418885 0.367319
O O4 0.489810 0.356492 0.409641
O O5 0.866262 0.728474 0.640755
O O6 0.000000 0.640157 0.750000
O O7 0.154140 0.650263 0.615115
O O8 0.195900 0.223587 0.500000
#
# Coordination Sequence:
#
# PCOD9528790 Si02
#       3
#    16  16  16
#     4  10  23  43  66  95 133 178 229 283 333 399
#     4  12  24  39  66  99 137 172 222 284 342 401
#     4  11  22  39  67  96 129 178 231 276 327 406
#
# _framework density 21.801176000000002
#
# number of rings (size 3 to 8) (size 9 to 14) (size 15 to 20)
#    0.000    1.000    3.333    4.000    0.000    1.333 
#    0.000   10.000    0.000    0.000    0.000    0.000 
#    0.000    0.000    0.000    0.000    0.000    0.000 
#
# Total GULP energy -134364.023822 kJ/mol
# GULP energy per Si atom -5598.500993 kJ/mol
# Density = 2.175156 g / cm^3
# Si number density = 21.801176 Si / 1000 Ang^3
#
#
#
# Elastic Constant Matrix: (Units=GPa)
#
#
# Indices 1 2 3 4 5 6 
#
# 1 135.6559 1.5815 71.1698 0.0000 0.0000 0.0000
# 2 1.5815 27.6359 22.9893 0.0000 0.0000 0.0000
# 3 71.1698 22.9893 126.6124 0.0000 0.0000 0.0000
# 4 0.0000 0.0000 0.0000 -58.1396 0.0000 0.0000
# 5 0.0000 0.0000 0.0000 0.0000 56.5136 0.0000
# 6 0.0000 0.0000 0.0000 0.0000 0.0000 45.2248
#
#
#
# Elastic Compliance Matrix: (Units=1/GPa)
#
#
# Indices 1 2 3 4 5 6 
#
# 1 0.011090 0.005361 -0.007207 0.000000 0.000000 0.000000
# 2 0.005361 0.045214 -0.011223 0.000000 0.000000 0.000000
# 3 -0.007207 -0.011223 0.013987 0.000000 0.000000 0.000000
# 4 0.000000 0.000000 0.000000 -0.017200 0.000000 0.000000
# 5 0.000000 0.000000 0.000000 0.000000 0.017695 0.000000
# 6 0.000000 0.000000 0.000000 0.000000 0.000000 0.022112
#
#
# Mechanical properties :
#
#
# Convention : Reuss Voigt Hill
#
# Bulk Modulus (GPa) = 22.64871 53.48726 38.06799
# Shear Modulus (GPa) = 37.38186 21.66400 29.52293
#
# Velocity S-wave (km/s) = 4.14535 3.15573 3.68392
# Velocity P-wave (km/s) = 5.77263 6.15350 5.96610
#
# Compressibility (1/GPa) = 0.04415263
#
# Stress axis : x y z
#
# Youngs Moduli (GPa) = 90.16873 22.11702 71.49383
#
# Poissons Ratio (x) = -0.11857 0.51528
# Poissons Ratio (y) = -0.48338 0.80238
# Poissons Ratio (z) = 0.64988 0.24822
#
# Static dielectric constant tensor:
#      x y z
#    x 1.792770 0.000000 0.000000 
#    y 0.000000 1.832570 0.000000 
#    z 0.000000 0.000000 1.735860 
# 
# From -- ./inp_files/18002.got.cif
#   From: 2010.05.17/outbox.cif.g08.bks.cpg/sg72_10_cif.got.tgz:18002.got - 2010.06.03 17:03:01.
