data_PCOD9528640
_publ_section_title
;
Structure prediction by ZEFSAII (Michael W. Deem and Ramdas Pophale) SiO2 
 PCOD9528640
Probable space group: I B A M
;
_chemical_formula_sum "Si O2"
_cell_formula_units_Z 64
_cell_length_a 14.497463
_cell_length_b 10.199701
_cell_length_c 18.481464
_cell_angle_alpha 90.000000
_cell_angle_beta 90.000000
_cell_angle_gamma 90.000000
_cell_volume 2732.850161
_symmetry_space_group_name_H-M "I B A M"
_symmetry_group_IT_number 72
_symmetry_cell_setting 'orthorhombic'
loop_
_space_group_symop_operation_xyz
x,y,z
-x,-y,z
x,-y,1/2-z
-x,y,1/2-z
-x,-y,-z
x,y,-z
-x,y,1/2+z
x,-y,1/2+z
1/2+x,1/2+y,1/2+z
1/2-x,1/2-y,1/2+z
1/2+x,1/2-y,-z
1/2-x,1/2+y,-z
1/2-x,1/2-y,1/2-z
1/2+x,1/2+y,1/2-z
1/2-x,1/2+y,z
1/2+x,1/2-y,z
loop_
_atom_site_type_symbol
_atom_site_label
_atom_site_fract_x
_atom_site_fract_y
_atom_site_fract_z
Si Si1 0.791357 0.552884 0.084237
Si Si2 0.894671 0.863979 0.777792
Si Si3 0.043470 0.252162 0.917338
Si Si4 0.661353 0.219789 0.352566
O O1 0.893384 0.618147 0.086640
O O2 0.721159 0.662267 0.113680
O O3 0.794668 0.419186 0.128835
O O4 0.770366 0.524014 0.000000
O O5 0.905808 0.847599 0.862955
O O6 0.849649 0.745676 0.733147
O O7 0.000000 0.863342 0.750000
O O8 0.853710 0.000000 0.750000
O O9 0.940278 0.275610 0.888769
O O10 0.041759 0.206755 0.000000
#
# Coordination Sequence:
#
# PCOD9528640 Si02
#       4
#    16  16  16  16
#     4  11  24  42  67 106 142 179 233 279 338 420
#     4   9  21  43  67  99 137 177 230 282 336 412
#     4  10  22  44  73  99 136 184 230 282 343 404
#     4  11  24  44  70 101 143 183 225 289 344 403
#
# _framework density 23.418773000000002
#
# number of rings (size 3 to 8) (size 9 to 14) (size 15 to 20)
#    0.000    1.750    0.000    3.000    3.500    4.000 
#    0.000   15.000    0.000    0.000    0.000    0.000 
#    0.000    0.000    0.000    0.000    0.000    0.000 
#
# Total GULP energy -179112.671908 kJ/mol
# GULP energy per Si atom -5597.270997 kJ/mol
# Density = 2.336547 g / cm^3
# Si number density = 23.418773 Si / 1000 Ang^3
#
#
#
# Elastic Constant Matrix: (Units=GPa)
#
#
# Indices 1 2 3 4 5 6 
#
# 1 142.6665 37.4957 34.5013 0.0000 0.0000 0.0000
# 2 37.4957 120.9035 36.1096 0.0000 0.0000 0.0000
# 3 34.5013 36.1096 132.0835 0.0000 0.0000 0.0000
# 4 0.0000 0.0000 0.0000 -65.8925 0.0000 0.0000
# 5 0.0000 0.0000 0.0000 0.0000 31.3385 0.0000
# 6 0.0000 0.0000 0.0000 0.0000 0.0000 29.6291
#
#
#
# Elastic Compliance Matrix: (Units=1/GPa)
#
#
# Indices 1 2 3 4 5 6 
#
# 1 0.007901 -0.001997 -0.001518 0.000000 0.000000 0.000000
# 2 -0.001997 0.009511 -0.002079 0.000000 0.000000 0.000000
# 3 -0.001518 -0.002079 0.008536 0.000000 0.000000 0.000000
# 4 0.000000 0.000000 0.000000 -0.015176 0.000000 0.000000
# 5 0.000000 0.000000 0.000000 0.000000 0.031910 0.000000
# 6 0.000000 0.000000 0.000000 0.000000 0.000000 0.033751
#
#
# Mechanical properties :
#
#
# Convention : Reuss Voigt Hill
#
# Bulk Modulus (GPa) = 67.74561 67.98519 67.86540
# Shear Modulus (GPa) = 54.03087 18.18482 36.10784
#
# Velocity S-wave (km/s) = 4.80850 2.78961 3.93088
# Velocity P-wave (km/s) = 7.73432 6.28245 7.04588
#
# Compressibility (1/GPa) = 0.01476110
#
# Stress axis : x y z
#
# Youngs Moduli (GPa) = 126.56133 105.13917 117.15491
#
# Poissons Ratio (x) = 0.20997 0.17783
# Poissons Ratio (y) = 0.25275 0.24351
# Poissons Ratio (z) = 0.19211 0.21854
#
# Static dielectric constant tensor:
#      x y z
#    x 1.903750 0.000000 0.000000 
#    y 0.000000 1.856660 0.000000 
#    z 0.000000 0.000000 1.872780 
# 
# From -- ./inp_files/30126.got.cif
#   From: 2010.05.17/outbox.cif.g08.bks.cpg/sg72_16_cif.got.tgz:30126.got - 2010.06.03 17:03:01.
