data_PCOD9528336
_publ_section_title
;
Structure prediction by ZEFSAII (Michael W. Deem and Ramdas Pophale) SiO2 
 PCOD9528336
Probable space group: I B A M
;
_chemical_formula_sum "Si O2"
_cell_formula_units_Z 88
_cell_length_a 22.356281
_cell_length_b 7.631622
_cell_length_c 23.363191
_cell_angle_alpha 90.000000
_cell_angle_beta 90.000000
_cell_angle_gamma 90.000000
_cell_volume 3986.103495
_symmetry_space_group_name_H-M "I B A M"
_symmetry_group_IT_number 72
_symmetry_cell_setting 'orthorhombic'
loop_
_space_group_symop_operation_xyz
x,y,z
-x,-y,z
x,-y,1/2-z
-x,y,1/2-z
-x,-y,-z
x,y,-z
-x,y,1/2+z
x,-y,1/2+z
1/2+x,1/2+y,1/2+z
1/2-x,1/2-y,1/2+z
1/2+x,1/2-y,-z
1/2-x,1/2+y,-z
1/2-x,1/2-y,1/2-z
1/2+x,1/2+y,1/2-z
1/2-x,1/2+y,z
1/2+x,1/2-y,z
loop_
_atom_site_type_symbol
_atom_site_label
_atom_site_fract_x
_atom_site_fract_y
_atom_site_fract_z
Si Si1 0.278036 0.873437 0.296590
Si Si2 0.845351 0.655205 0.500000
Si Si3 0.626709 0.066201 0.625078
Si Si4 0.500000 0.000000 0.884437
Si Si5 0.673873 0.330072 0.117954
Si Si6 0.779526 0.970778 0.000000
Si Si7 0.551516 0.642637 0.434025
O O1 0.250000 0.750000 0.250000
O O2 0.328550 0.810432 0.340232
O O3 0.219334 0.912372 0.335831
O O4 0.309416 0.000000 0.250000
O O5 0.879703 0.625710 0.440847
O O6 0.791926 0.514099 0.500000
O O7 0.814811 0.846117 0.500000
O O8 0.559908 0.054717 0.649133
O O9 0.661713 0.878280 0.627783
O O10 0.475883 0.833194 0.920149
O O11 0.704915 0.366329 0.057362
O O12 0.606392 0.399057 0.108384
O O13 0.500000 0.500000 0.428972
O O14 0.573499 0.642638 0.500000
#
# Coordination Sequence:
#
# PCOD9528336 Si02
#       7
#    16   8  16   8  16   8  16
#     4  12  26  44  68  92 125 168 227 283 330 389
#     4  12  26  35  65  98 139 174 213 267 341 413
#     4  11  25  44  66  98 133 176 220 270 342 399
#     4  10  25  40  65  94 140 178 219 271 324 418
#     4  11  23  43  65  94 134 171 215 279 333 397
#     4  12  24  38  60 102 137 175 211 275 341 408
#     4  10  22  38  63  97 138 176 216 263 332 408
#
# _framework density 22.076696999999999
#
# number of rings (size 3 to 8) (size 9 to 14) (size 15 to 20)
#    0.000    0.909    4.545    1.909   10.182    0.000 
#    0.000    0.455    0.000    2.727    0.000    0.000 
#    0.000    0.000    0.000    0.000    0.000    0.000 
#
# Total GULP energy -245468.647264 kJ/mol
# GULP energy per Si atom -5578.832892 kJ/mol
# Density = 2.202645 g / cm^3
# Si number density = 22.076697 Si / 1000 Ang^3
#
#
#
# Elastic Constant Matrix: (Units=GPa)
#
#
# Indices 1 2 3 4 5 6 
#
# 1 161.9459 19.9938 52.7572 0.0000 0.0000 0.0000
# 2 19.9938 45.5149 17.1106 0.0000 0.0000 0.0000
# 3 52.7572 17.1106 115.8411 0.0000 0.0000 0.0000
# 4 0.0000 0.0000 0.0000 20.8654 0.0000 0.0000
# 5 0.0000 0.0000 0.0000 0.0000 8.9361 0.0000
# 6 0.0000 0.0000 0.0000 0.0000 0.0000 25.6834
#
#
#
# Elastic Compliance Matrix: (Units=1/GPa)
#
#
# Indices 1 2 3 4 5 6 
#
# 1 0.007437 -0.002111 -0.003075 0.000000 0.000000 0.000000
# 2 -0.002111 0.023862 -0.002563 0.000000 0.000000 0.000000
# 3 -0.003075 -0.002563 0.010412 0.000000 0.000000 0.000000
# 4 0.000000 0.000000 0.000000 0.047926 0.000000 0.000000
# 5 0.000000 0.000000 0.000000 0.000000 0.111905 0.000000
# 6 0.000000 0.000000 0.000000 0.000000 0.000000 0.038936
#
#
# Mechanical properties :
#
#
# Convention : Reuss Voigt Hill
#
# Bulk Modulus (GPa) = 38.15076 55.89168 47.02122
# Shear Modulus (GPa) = 18.88831 26.65968 22.77399
#
# Velocity S-wave (km/s) = 2.92820 3.47881 3.21531
# Velocity P-wave (km/s) = 5.36199 6.44269 5.92702
#
# Compressibility (1/GPa) = 0.02621180
#
# Stress axis : x y z
#
# Youngs Moduli (GPa) = 134.45582 41.90817 96.04558
#
# Poissons Ratio (x) = 0.08847 0.29538
# Poissons Ratio (y) = 0.28383 0.24618
# Poissons Ratio (z) = 0.41350 0.10742
#
# Static dielectric constant tensor:
#      x y z
#    x 1.817630 0.000000 0.000000 
#    y 0.000000 1.914540 0.000000 
#    z 0.000000 0.000000 1.775690 
# 
# From -- ./inp_files/45285.got.cif
#   From: 2010.05.17/outbox.cif.g08.bks.cpg/sg72_23_cif.got.tgz:45285.got - 2010.06.03 17:03:01.
