data_PCOD9528293
_publ_section_title
;
Structure prediction by ZEFSAII (Michael W. Deem and Ramdas Pophale) SiO2 
 PCOD9528293
Probable space group: I B A M
;
_chemical_formula_sum "Si O2"
_cell_formula_units_Z 72
_cell_length_a 11.147982
_cell_length_b 21.700629
_cell_length_c 14.400827
_cell_angle_alpha 90.000000
_cell_angle_beta 90.000000
_cell_angle_gamma 90.000000
_cell_volume 3483.822456
_symmetry_space_group_name_H-M "I B A M"
_symmetry_group_IT_number 72
_symmetry_cell_setting 'orthorhombic'
loop_
_space_group_symop_operation_xyz
x,y,z
-x,-y,z
x,-y,1/2-z
-x,y,1/2-z
-x,-y,-z
x,y,-z
-x,y,1/2+z
x,-y,1/2+z
1/2+x,1/2+y,1/2+z
1/2-x,1/2-y,1/2+z
1/2+x,1/2-y,-z
1/2-x,1/2+y,-z
1/2-x,1/2-y,1/2-z
1/2+x,1/2+y,1/2-z
1/2-x,1/2+y,z
1/2+x,1/2-y,z
loop_
_atom_site_type_symbol
_atom_site_label
_atom_site_fract_x
_atom_site_fract_y
_atom_site_fract_z
Si Si1 0.885013 0.380186 0.889552
Si Si2 0.834733 0.240601 0.889844
Si Si3 0.500000 0.334661 0.250000
Si Si4 0.161733 0.364882 0.890511
Si Si5 0.194895 0.931616 0.735489
O O1 0.831363 0.312589 0.867337
O O2 0.806044 0.429557 0.835697
O O3 0.024763 0.376421 0.862911
O O4 0.878735 0.389791 0.000000
O O5 0.708990 0.204978 0.874964
O O6 0.932390 0.206827 0.825897
O O7 0.865060 0.235326 0.000000
O O8 0.596102 0.381809 0.205247
O O9 0.250358 0.407050 0.831998
O O10 0.171632 0.376737 0.000000
O O11 0.147774 0.000000 0.750000
#
# Coordination Sequence:
#
# PCOD9528293 Si02
#       5
#    16  16   8  16  16
#     4  10  22  37  60  90 118 152 194 244 301 357
#     4   9  20  37  59  89 122 152 189 244 304 359
#     4  10  23  38  64  86 117 156 198 246 300 346
#     4   9  20  38  57  83 118 153 193 245 299 348
#     4  11  24  40  58  84 119 161 205 241 283 349
#
# _framework density 20.666955999999999
#
# number of rings (size 3 to 8) (size 9 to 14) (size 15 to 20)
#    0.000    2.222    0.000    1.000    6.222    5.333 
#    0.000    2.222    0.000    6.667    0.000    0.000 
#    0.000    0.000    0.000    0.000    0.000    0.000 
#
# Total GULP energy -201150.761038 kJ/mol
# GULP energy per Si atom -5587.521140 kJ/mol
# Density = 2.061992 g / cm^3
# Si number density = 20.666956 Si / 1000 Ang^3
#
#
#
# Elastic Constant Matrix: (Units=GPa)
#
#
# Indices 1 2 3 4 5 6 
#
# 1 78.9019 0.2476 16.1835 0.0000 0.0000 0.0000
# 2 0.2476 56.8676 6.2493 -0.0002 0.0000 0.0000
# 3 16.1835 6.2493 49.0399 -0.0001 0.0000 0.0000
# 4 0.0000 -0.0002 -0.0001 15.7580 0.0000 0.0000
# 5 0.0000 0.0000 0.0000 0.0000 30.0189 0.0000
# 6 0.0000 0.0000 0.0000 0.0000 0.0000 18.3298
#
#
#
# Elastic Compliance Matrix: (Units=1/GPa)
#
#
# Indices 1 2 3 4 5 6 
#
# 1 0.013605 0.000440 -0.004546 0.000000 0.000000 0.000000
# 2 0.000440 0.017849 -0.002420 0.000000 0.000000 0.000000
# 3 -0.004546 -0.002420 0.022200 0.000000 0.000000 0.000000
# 4 0.000000 0.000000 0.000000 0.063460 0.000000 0.000000
# 5 0.000000 0.000000 0.000000 0.000000 0.033312 0.000000
# 6 0.000000 0.000000 0.000000 0.000000 0.000000 0.054556
#
#
# Mechanical properties :
#
#
# Convention : Reuss Voigt Hill
#
# Bulk Modulus (GPa) = 24.62870 25.57448 25.10159
# Shear Modulus (GPa) = 21.59203 23.62994 22.61099
#
# Velocity S-wave (km/s) = 3.23578 3.38504 3.31125
# Velocity P-wave (km/s) = 5.08952 5.26113 5.17603
#
# Compressibility (1/GPa) = 0.04060304
#
# Stress axis : x y z
#
# Youngs Moduli (GPa) = 73.50255 56.02648 45.04488
#
# Poissons Ratio (x) = -0.02467 0.20477
# Poissons Ratio (y) = -0.03236 0.10900
# Poissons Ratio (z) = 0.33413 0.13557
#
# Static dielectric constant tensor:
#      x y z
#    x 1.752000 0.000000 0.000000 
#    y 0.000000 1.722260 0.000000 
#    z 0.000000 0.000000 1.730750 
# 
# From -- ./inp_files/20107.got.cif
#   From: 2010.05.17/outbox.cif.g08.bks.cpg/sg72_11_cif.got.tgz:20107.got - 2010.06.03 17:03:01.
