data_PCOD9528673
_publ_section_title
;
Structure prediction by ZEFSAII (Michael W. Deem and Ramdas Pophale) SiO2 
 PCOD9528673
Probable space group: I B A M
;
_chemical_formula_sum "Si O2"
_cell_formula_units_Z 72
_cell_length_a 23.958043
_cell_length_b 9.861858
_cell_length_c 16.526278
_cell_angle_alpha 90.000000
_cell_angle_beta 90.000000
_cell_angle_gamma 90.000000
_cell_volume 3904.677222
_symmetry_space_group_name_H-M "I B A M"
_symmetry_group_IT_number 72
_symmetry_cell_setting 'orthorhombic'
loop_
_space_group_symop_operation_xyz
x,y,z
-x,-y,z
x,-y,1/2-z
-x,y,1/2-z
-x,-y,-z
x,y,-z
-x,y,1/2+z
x,-y,1/2+z
1/2+x,1/2+y,1/2+z
1/2-x,1/2-y,1/2+z
1/2+x,1/2-y,-z
1/2-x,1/2+y,-z
1/2-x,1/2-y,1/2-z
1/2+x,1/2+y,1/2-z
1/2-x,1/2+y,z
1/2+x,1/2-y,z
loop_
_atom_site_type_symbol
_atom_site_label
_atom_site_fract_x
_atom_site_fract_y
_atom_site_fract_z
Si Si1 0.634522 0.500000 0.250000
Si Si2 0.298566 0.061639 0.088484
Si Si3 0.532341 0.642238 0.327753
Si Si4 0.480662 0.213298 0.500000
Si Si5 0.591845 0.941263 0.000000
Si Si6 0.268914 0.666715 0.671724
O O1 0.594236 0.602375 0.298400
O O2 0.674623 0.414931 0.308749
O O3 0.365395 0.063447 0.075659
O O4 0.278916 0.213106 0.108216
O O5 0.276280 0.946786 0.148067
O O6 0.275574 0.022622 0.000000
O O7 0.500000 0.500000 0.339216
O O8 0.500000 0.709090 0.250000
O O9 0.531592 0.714064 0.414413
O O10 0.546335 0.176412 0.500000
O O11 0.443050 0.078688 0.500000
O O12 0.250000 0.750000 0.750000
#
# Coordination Sequence:
#
# PCOD9528673 Si02
#       6
#     8  16  16   8   8  16
#     4  10  23  38  62  96 126 167 216 262 328 394
#     4  10  24  41  62  91 128 169 213 266 322 388
#     4   9  22  40  64  95 125 162 218 265 317 389
#     4  11  21  46  62  92 128 166 219 267 329 386
#     4   9  26  38  64  90 123 165 214 263 325 392
#     4  12  22  42  63  94 131 170 216 264 325 391
#
# _framework density 18.439423999999999
#
# number of rings (size 3 to 8) (size 9 to 14) (size 15 to 20)
#    0.667    1.333    2.222    1.000    9.333    0.000 
#    4.000    2.222    0.000    0.000    0.000    0.000 
#    0.000    0.000    0.000    0.000    0.000    0.000 
#
# Total GULP energy -200471.195846 kJ/mol
# GULP energy per Si atom -5568.644329 kJ/mol
# Density = 1.839745 g / cm^3
# Si number density = 18.439424 Si / 1000 Ang^3
#
#
#
# Elastic Constant Matrix: (Units=GPa)
#
#
# Indices 1 2 3 4 5 6 
#
# 1 116.2100 31.7419 35.8589 0.0000 0.0000 0.0000
# 2 31.7419 73.6491 36.2738 0.0000 0.0000 0.0000
# 3 35.8589 36.2738 113.6549 0.0000 0.0000 0.0000
# 4 0.0000 0.0000 0.0000 37.7098 0.0000 0.0000
# 5 0.0000 0.0000 0.0000 0.0000 26.2630 0.0000
# 6 0.0000 0.0000 0.0000 0.0000 0.0000 19.0193
#
#
#
# Elastic Compliance Matrix: (Units=1/GPa)
#
#
# Indices 1 2 3 4 5 6 
#
# 1 0.010177 -0.003328 -0.002149 0.000000 0.000000 0.000000
# 2 -0.003328 0.017199 -0.004439 0.000000 0.000000 0.000000
# 3 -0.002149 -0.004439 0.010893 0.000000 0.000000 0.000000
# 4 0.000000 0.000000 0.000000 0.026518 0.000000 0.000000
# 5 0.000000 0.000000 0.000000 0.000000 0.038076 0.000000
# 6 0.000000 0.000000 0.000000 0.000000 0.000000 0.052578
#
#
# Mechanical properties :
#
#
# Convention : Reuss Voigt Hill
#
# Bulk Modulus (GPa) = 54.23762 56.80704 55.52233
# Shear Modulus (GPa) = 27.56049 29.90772 28.73410
#
# Velocity S-wave (km/s) = 3.87026 4.03171 3.95181
# Velocity P-wave (km/s) = 7.03205 7.24894 7.14132
#
# Compressibility (1/GPa) = 0.01843739
#
# Stress axis : x y z
#
# Youngs Moduli (GPa) = 98.25909 58.14456 91.79960
#
# Poissons Ratio (x) = 0.19350 0.19726
# Poissons Ratio (y) = 0.32700 0.40750
# Poissons Ratio (z) = 0.21114 0.25811
#
# Static dielectric constant tensor:
#      x y z
#    x 1.637250 0.000000 0.000000 
#    y 0.000000 1.620130 0.000000 
#    z 0.000000 0.000000 1.678950 
# 
# From -- ./inp_files/33154.got.cif
#   From: 2010.05.17/outbox.cif.g08.bks.cpg/sg72_17_cif.got.tgz:33154.got - 2010.06.03 17:03:01.
