data_PCOD9528564
_publ_section_title
;
Structure prediction by ZEFSAII (Michael W. Deem and Ramdas Pophale) SiO2 
 PCOD9528564
Probable space group: I B A M
;
_chemical_formula_sum "Si O2"
_cell_formula_units_Z 64
_cell_length_a 9.534949
_cell_length_b 22.072000
_cell_length_c 14.228864
_cell_angle_alpha 90.000000
_cell_angle_beta 90.000000
_cell_angle_gamma 90.000000
_cell_volume 2994.541184
_symmetry_space_group_name_H-M "I B A M"
_symmetry_group_IT_number 72
_symmetry_cell_setting 'orthorhombic'
loop_
_space_group_symop_operation_xyz
x,y,z
-x,-y,z
x,-y,1/2-z
-x,y,1/2-z
-x,-y,-z
x,y,-z
-x,y,1/2+z
x,-y,1/2+z
1/2+x,1/2+y,1/2+z
1/2-x,1/2-y,1/2+z
1/2+x,1/2-y,-z
1/2-x,1/2+y,-z
1/2-x,1/2-y,1/2-z
1/2+x,1/2+y,1/2-z
1/2-x,1/2+y,z
1/2+x,1/2-y,z
loop_
_atom_site_type_symbol
_atom_site_label
_atom_site_fract_x
_atom_site_fract_y
_atom_site_fract_z
Si Si1 0.167542 0.816458 0.190105
Si Si2 0.524017 0.206579 0.890032
Si Si3 0.003161 0.931578 0.109013
Si Si4 0.749140 0.650897 0.393139
O O1 0.323947 0.809941 0.149044
O O2 0.187631 0.814387 0.302609
O O3 0.068309 0.762426 0.151989
O O4 0.096582 0.880573 0.161033
O O5 0.415367 0.150500 0.878633
O O6 0.538739 0.218765 0.000000
O O7 0.842040 0.909360 0.108938
O O8 0.051211 0.931755 0.000000
O O9 0.000000 0.000000 0.144434
O O10 0.727929 0.676101 0.500000
#
# Coordination Sequence:
#
# PCOD9528564 Si02
#       4
#    16  16  16  16
#     4  12  23  40  64  92 126 164 206 253 311 370
#     4  11  23  40  64  95 128 162 204 257 316 373
#     4  10  22  42  67  93 122 160 206 255 309 370
#     4  10  23  41  61  89 126 166 209 254 302 364
#
# _framework density 21.372223999999999
#
# number of rings (size 3 to 8) (size 9 to 14) (size 15 to 20)
#    0.000    1.250    0.000    6.000    0.000    6.000 
#    0.000    7.500    0.000    9.000    0.000    0.000 
#    0.000    0.000    0.000    0.000    0.000    0.000 
#
# Total GULP energy -178604.651198 kJ/mol
# GULP energy per Si atom -5581.395350 kJ/mol
# Density = 2.132358 g / cm^3
# Si number density = 21.372224 Si / 1000 Ang^3
#
#
#
# Elastic Constant Matrix: (Units=GPa)
#
#
# Indices 1 2 3 4 5 6 
#
# 1 226.0891 100.4105 60.2063 0.0000 0.0000 0.0000
# 2 100.4105 140.5134 35.0009 0.0000 0.0000 0.0000
# 3 60.2063 35.0009 178.6230 0.0000 0.0000 0.0000
# 4 0.0000 0.0000 0.0000 14.8434 0.0000 0.0000
# 5 0.0000 0.0000 0.0000 0.0000 40.7846 0.0000
# 6 0.0000 0.0000 0.0000 0.0000 0.0000 18.2522
#
#
#
# Elastic Compliance Matrix: (Units=1/GPa)
#
#
# Indices 1 2 3 4 5 6 
#
# 1 0.006801 -0.004509 -0.001409 0.000000 0.000000 0.000000
# 2 -0.004509 0.010471 -0.000532 0.000000 0.000000 0.000000
# 3 -0.001409 -0.000532 0.006177 0.000000 0.000000 0.000000
# 4 0.000000 0.000000 0.000000 0.067370 0.000000 0.000000
# 5 0.000000 0.000000 0.000000 0.000000 0.024519 0.000000
# 6 0.000000 0.000000 0.000000 0.000000 0.000000 0.054788
#
#
# Mechanical properties :
#
#
# Convention : Reuss Voigt Hill
#
# Bulk Modulus (GPa) = 94.78556 104.05121 99.41839
# Shear Modulus (GPa) = 26.80355 38.08321 32.44338
#
# Velocity S-wave (km/s) = 3.54521 4.22584 3.90040
# Velocity P-wave (km/s) = 7.82331 8.52063 8.17941
#
# Compressibility (1/GPa) = 0.01055013
#
# Stress axis : x y z
#
# Youngs Moduli (GPa) = 147.04558 95.49926 161.87873
#
# Poissons Ratio (x) = 0.43059 0.22804
# Poissons Ratio (y) = 0.66300 0.08614
# Poissons Ratio (z) = 0.20714 0.05082
#
# Static dielectric constant tensor:
#      x y z
#    x 1.796650 0.000000 0.000000 
#    y 0.000000 1.812770 0.000000 
#    z 0.000000 0.000000 1.858000 
# 
# From -- ./inp_files/18690.got.cif
#   From: 2010.05.17/outbox.cif.g08.bks.cpg/sg72_10_cif.got.tgz:18690.got - 2010.06.03 17:03:01.
