data_PCOD9528728
_publ_section_title
;
Structure prediction by ZEFSAII (Michael W. Deem and Ramdas Pophale) SiO2 
 PCOD9528728
Probable space group: I B A M
;
_chemical_formula_sum "Si O2"
_cell_formula_units_Z 64
_cell_length_a 7.896614
_cell_length_b 23.086997
_cell_length_c 16.658085
_cell_angle_alpha 90.000000
_cell_angle_beta 90.000000
_cell_angle_gamma 90.000000
_cell_volume 3036.920546
_symmetry_space_group_name_H-M "I B A M"
_symmetry_group_IT_number 72
_symmetry_cell_setting 'orthorhombic'
loop_
_space_group_symop_operation_xyz
x,y,z
-x,-y,z
x,-y,1/2-z
-x,y,1/2-z
-x,-y,-z
x,y,-z
-x,y,1/2+z
x,-y,1/2+z
1/2+x,1/2+y,1/2+z
1/2-x,1/2-y,1/2+z
1/2+x,1/2-y,-z
1/2-x,1/2+y,-z
1/2-x,1/2-y,1/2-z
1/2+x,1/2+y,1/2-z
1/2-x,1/2+y,z
1/2+x,1/2-y,z
loop_
_atom_site_type_symbol
_atom_site_label
_atom_site_fract_x
_atom_site_fract_y
_atom_site_fract_z
Si Si1 0.829599 0.622903 0.797871
Si Si2 0.367316 0.668582 0.853535
Si Si3 0.991040 0.715544 0.406705
Si Si4 0.910146 0.061193 0.907889
O O1 0.698589 0.650187 0.734208
O O2 0.740075 0.571441 0.845200
O O3 0.000000 0.606741 0.750000
O O4 0.884568 0.670680 0.863036
O O5 0.196702 0.689602 0.898202
O O6 0.490019 0.723760 0.860474
O O7 0.457782 0.613469 0.892917
O O8 0.033009 0.723693 0.500000
O O9 0.850175 0.063945 0.000000
O O10 0.000000 0.000000 0.895072
#
# Coordination Sequence:
#
# PCOD9528728 Si02
#       4
#    16  16  16  16
#     4  10  23  41  64  93 128 165 207 260 316 374
#     4  11  23  39  61  93 128 165 209 261 319 378
#     4  11  21  37  62  93 130 168 211 261 317 376
#     4  11  24  44  68  92 123 166 214 260 310 372
#
# _framework density 21.073979999999999
#
# number of rings (size 3 to 8) (size 9 to 14) (size 15 to 20)
#    0.000    1.250    0.000    6.000    0.000    6.000 
#    0.000    8.750    0.000   13.500    0.000    0.000 
#    0.000    0.000    0.000    0.000    0.000    0.000 
#
# Total GULP energy -179122.487724 kJ/mol
# GULP energy per Si atom -5597.577741 kJ/mol
# Density = 2.102601 g / cm^3
# Si number density = 21.073980 Si / 1000 Ang^3
#
#
#
# Elastic Constant Matrix: (Units=GPa)
#
#
# Indices 1 2 3 4 5 6 
#
# 1 97.5410 30.1425 61.3216 0.0000 0.0000 0.0000
# 2 30.1425 89.1898 47.6272 0.0000 0.0000 0.0000
# 3 61.3216 47.6272 151.9882 -0.0001 0.0000 0.0000
# 4 0.0000 0.0000 -0.0001 37.4255 0.0000 0.0000
# 5 0.0000 0.0000 0.0000 0.0000 25.2308 0.0000
# 6 0.0000 0.0000 0.0000 0.0000 0.0000 12.2290
#
#
#
# Elastic Compliance Matrix: (Units=1/GPa)
#
#
# Indices 1 2 3 4 5 6 
#
# 1 0.014046 -0.002067 -0.005020 0.000000 0.000000 0.000000
# 2 -0.002067 0.013769 -0.003481 0.000000 0.000000 0.000000
# 3 -0.005020 -0.003481 0.009695 0.000000 0.000000 0.000000
# 4 0.000000 0.000000 0.000000 0.026720 0.000000 0.000000
# 5 0.000000 0.000000 0.000000 0.000000 0.039634 0.000000
# 6 0.000000 0.000000 0.000000 0.000000 0.000000 0.081773
#
#
# Mechanical properties :
#
#
# Convention : Reuss Voigt Hill
#
# Bulk Modulus (GPa) = 61.06198 68.54463 64.80331
# Shear Modulus (GPa) = 23.55919 28.28557 25.92238
#
# Velocity S-wave (km/s) = 3.34717 3.66758 3.51103
# Velocity P-wave (km/s) = 6.63144 7.10853 6.87413
#
# Compressibility (1/GPa) = 0.01637680
#
# Stress axis : x y z
#
# Youngs Moduli (GPa) = 71.19239 72.62532 103.14089
#
# Poissons Ratio (x) = 0.15009 0.51773
# Poissons Ratio (y) = 0.14713 0.35903
# Poissons Ratio (z) = 0.35736 0.25280
#
# Static dielectric constant tensor:
#      x y z
#    x 1.795480 0.000000 0.000000 
#    y 0.000000 1.700400 0.000000 
#    z 0.000000 0.000000 1.752160 
# 
# From -- ./inp_files/18684.got.cif
#   From: 2010.05.17/outbox.cif.g08.bks.cpg/sg72_10_cif.got.tgz:18684.got - 2010.06.03 17:03:01.
