data_PCOD9528806
_publ_section_title
;
Structure prediction by ZEFSAII (Michael W. Deem and Ramdas Pophale) SiO2 
 PCOD9528806
Probable space group: I B A M
;
_chemical_formula_sum "Si O2"
_cell_formula_units_Z 64
_cell_length_a 19.572668
_cell_length_b 9.451413
_cell_length_c 16.492181
_cell_angle_alpha 90.000000
_cell_angle_beta 90.000000
_cell_angle_gamma 90.000000
_cell_volume 3050.878153
_symmetry_space_group_name_H-M "I B A M"
_symmetry_group_IT_number 72
_symmetry_cell_setting 'orthorhombic'
loop_
_space_group_symop_operation_xyz
x,y,z
-x,-y,z
x,-y,1/2-z
-x,y,1/2-z
-x,-y,-z
x,y,-z
-x,y,1/2+z
x,-y,1/2+z
1/2+x,1/2+y,1/2+z
1/2-x,1/2-y,1/2+z
1/2+x,1/2-y,-z
1/2-x,1/2+y,-z
1/2-x,1/2-y,1/2-z
1/2+x,1/2+y,1/2-z
1/2-x,1/2+y,z
1/2+x,1/2-y,z
loop_
_atom_site_type_symbol
_atom_site_label
_atom_site_fract_x
_atom_site_fract_y
_atom_site_fract_z
Si Si1 0.773155 0.951434 0.589442
Si Si2 0.609231 0.565348 0.500000
Si Si3 0.977026 0.223143 0.000000
Si Si4 0.959281 0.649316 0.322337
Si Si5 0.198535 0.678781 0.814510
O O1 0.740124 0.945203 0.500000
O O2 0.726650 0.029583 0.653744
O O3 0.839763 0.050919 0.576006
O O4 0.797096 0.796038 0.613925
O O5 0.558353 0.694443 0.500000
O O6 0.563823 0.424294 0.500000
O O7 0.960129 0.294678 0.085676
O O8 0.880515 0.654056 0.293812
O O9 0.000000 0.500000 0.328244
O O10 0.000000 0.729830 0.250000
O O11 0.250000 0.750000 0.750000
#
# Coordination Sequence:
#
# PCOD9528806 Si02
#       5
#    16   8   8  16  16
#     4  10  23  43  70  98 135 178 240 287 348 421
#     4   9  22  39  69 103 127 175 243 285 344 437
#     4  11  21  47  67  97 143 182 229 291 362 414
#     4  11  27  45  69 104 142 185 237 287 360 438
#     4  12  26  45  70 103 145 183 234 300 355 419
#
# _framework density 20.977567000000001
#
# number of rings (size 3 to 8) (size 9 to 14) (size 15 to 20)
#    0.750    0.500    2.500    1.875   12.250    0.000 
#    0.000    2.500    0.000    0.000    0.000    0.000 
#    0.000    0.000    0.000    0.000    0.000    0.000 
#
# Total GULP energy -178273.559682 kJ/mol
# GULP energy per Si atom -5571.048740 kJ/mol
# Density = 2.092982 g / cm^3
# Si number density = 20.977567 Si / 1000 Ang^3
#
#
#
# Elastic Constant Matrix: (Units=GPa)
#
#
# Indices 1 2 3 4 5 6 
#
# 1 150.7618 29.5590 45.0613 0.0000 0.0000 0.0000
# 2 29.5590 56.7662 17.8834 0.0000 0.0000 0.0000
# 3 45.0613 17.8834 123.9734 0.0000 0.0000 0.0000
# 4 0.0000 0.0000 0.0000 -5.0174 0.0000 0.0000
# 5 0.0000 0.0000 0.0000 0.0000 59.6122 0.0000
# 6 0.0000 0.0000 0.0000 0.0000 0.0000 29.4829
#
#
#
# Elastic Compliance Matrix: (Units=1/GPa)
#
#
# Indices 1 2 3 4 5 6 
#
# 1 0.008028 -0.003416 -0.002425 0.000000 0.000000 0.000000
# 2 -0.003416 0.019908 -0.001630 0.000000 0.000000 0.000000
# 3 -0.002425 -0.001630 0.009183 0.000000 0.000000 0.000000
# 4 0.000000 0.000000 0.000000 -0.199306 0.000000 0.000000
# 5 0.000000 0.000000 0.000000 0.000000 0.016775 0.000000
# 6 0.000000 0.000000 0.000000 0.000000 0.000000 0.033918
#
#
# Mechanical properties :
#
#
# Convention : Reuss Voigt Hill
#
# Bulk Modulus (GPa) = 45.09321 57.38984 51.24152
# Shear Modulus (GPa) = -56.07933 32.74872 -11.66530
#
# Velocity S-wave (km/s) = -5.17601 3.95540 -2.36070
# Velocity P-wave (km/s) = 3.76547 6.94819 4.12908
#
# Compressibility (1/GPa) = 0.02217629
#
# Stress axis : x y z
#
# Youngs Moduli (GPa) = 124.57053 50.22983 108.89875
#
# Poissons Ratio (x) = 0.17159 0.26408
# Poissons Ratio (y) = 0.42555 0.17752
# Poissons Ratio (z) = 0.30209 0.08188
#
# Static dielectric constant tensor:
#      x y z
#    x 1.774850 0.000000 0.000000 
#    y 0.000000 1.754950 0.000000 
#    z 0.000000 0.000000 1.891130 
# 
# From -- ./inp_files/33085.got.cif
#   From: 2010.05.17/outbox.cif.g08.bks.cpg/sg72_17_cif.got.tgz:33085.got - 2010.06.03 17:03:01.
