data_PCOD9528514
_publ_section_title
;
Structure prediction by ZEFSAII (Michael W. Deem and Ramdas Pophale) SiO2 
 PCOD9528514
Probable space group: I B A M
;
_chemical_formula_sum "Si O2"
_cell_formula_units_Z 88
_cell_length_a 10.922413
_cell_length_b 26.285823
_cell_length_c 15.304795
_cell_angle_alpha 90.000000
_cell_angle_beta 90.000000
_cell_angle_gamma 90.000000
_cell_volume 4394.077274
_symmetry_space_group_name_H-M "I B A M"
_symmetry_group_IT_number 72
_symmetry_cell_setting 'orthorhombic'
loop_
_space_group_symop_operation_xyz
x,y,z
-x,-y,z
x,-y,1/2-z
-x,y,1/2-z
-x,-y,-z
x,y,-z
-x,y,1/2+z
x,-y,1/2+z
1/2+x,1/2+y,1/2+z
1/2-x,1/2-y,1/2+z
1/2+x,1/2-y,-z
1/2-x,1/2+y,-z
1/2-x,1/2-y,1/2-z
1/2+x,1/2+y,1/2-z
1/2-x,1/2+y,z
1/2+x,1/2-y,z
loop_
_atom_site_type_symbol
_atom_site_label
_atom_site_fract_x
_atom_site_fract_y
_atom_site_fract_z
Si Si1 0.524899 0.291769 0.596633
Si Si2 0.333893 0.117692 0.602304
Si Si3 0.427802 0.946680 0.399774
Si Si4 0.784479 0.057874 0.257111
Si Si5 0.500000 0.369241 0.250000
Si Si6 0.721696 0.233662 0.849097
O O1 0.519299 0.314088 0.500000
O O2 0.542189 0.333383 0.671503
O O3 0.397123 0.263590 0.616303
O O4 0.648252 0.257834 0.602522
O O5 0.298111 0.116049 0.500000
O O6 0.474130 0.098796 0.607371
O O7 0.261307 0.078391 0.663374
O O8 0.313384 0.174364 0.638392
O O9 0.380737 0.947914 0.500000
O O10 0.325242 0.940895 0.326767
O O11 0.500000 0.000000 0.385853
O O12 0.891761 0.095513 0.284309
O O13 0.827078 0.000000 0.250000
O O14 0.750000 0.250000 0.750000
#
# Coordination Sequence:
#
# PCOD9528514 Si02
#       6
#    16  16  16  16   8  16
#     4  12  25  46  72  99 138 185 232 290 356 423
#     4  11  23  41  69 102 138 178 222 279 353 418
#     4  10  22  41  67 102 138 177 231 291 348 411
#     4  12  24  41  68  98 136 183 232 283 342 406
#     4  12  27  46  62  98 138 186 237 288 332 418
#     4  12  24  46  71 103 139 179 235 292 354 420
#
# _framework density 20.026956999999999
#
# number of rings (size 3 to 8) (size 9 to 14) (size 15 to 20)
#    0.000    0.545    5.455    2.455    0.000    5.091 
#    0.000    1.818    0.000    3.273    0.000    0.000 
#    0.000    0.000    0.000    0.000    0.000    0.000 
#
# Total GULP energy -245919.945325 kJ/mol
# GULP energy per Si atom -5589.089666 kJ/mol
# Density = 1.998137 g / cm^3
# Si number density = 20.026957 Si / 1000 Ang^3
#
#
#
# Elastic Constant Matrix: (Units=GPa)
#
#
# Indices 1 2 3 4 5 6 
#
# 1 120.6761 41.1608 39.9186 0.0000 0.0000 0.0000
# 2 41.1608 86.2942 50.5457 0.0000 0.0000 0.0000
# 3 39.9186 50.5457 132.7383 -0.0001 0.0001 0.0000
# 4 0.0000 0.0000 -0.0001 7.5677 0.0000 0.0000
# 5 0.0000 0.0000 0.0001 0.0000 -16.1386 0.0000
# 6 0.0000 0.0000 0.0000 0.0000 0.0000 39.9523
#
#
#
# Elastic Compliance Matrix: (Units=1/GPa)
#
#
# Indices 1 2 3 4 5 6 
#
# 1 0.010140 -0.003926 -0.001554 0.000000 0.000000 0.000000
# 2 -0.003926 0.016435 -0.005078 0.000000 0.000000 0.000000
# 3 -0.001554 -0.005078 0.009935 0.000000 0.000000 0.000000
# 4 0.000000 0.000000 0.000000 0.132140 0.000000 0.000000
# 5 0.000000 0.000000 0.000000 0.000000 -0.061963 0.000000
# 6 0.000000 0.000000 0.000000 0.000000 0.000000 0.025030
#
#
# Mechanical properties :
#
#
# Convention : Reuss Voigt Hill
#
# Bulk Modulus (GPa) = 64.96299 66.99543 65.97921
# Shear Modulus (GPa) = 31.65279 20.14852 25.90065
#
# Velocity S-wave (km/s) = 3.97988 3.17530 3.60014
# Velocity P-wave (km/s) = 7.32307 6.85337 7.09211
#
# Compressibility (1/GPa) = 0.01539338
#
# Stress axis : x y z
#
# Youngs Moduli (GPa) = 98.61977 60.84523 100.65825
#
# Poissons Ratio (x) = 0.23889 0.15646
# Poissons Ratio (y) = 0.38719 0.51111
# Poissons Ratio (z) = 0.15329 0.30895
#
# Static dielectric constant tensor:
#      x y z
#    x 1.734180 0.000000 0.000000 
#    y 0.000000 1.696530 0.000000 
#    z 0.000000 0.000000 1.696160 
# 
# From -- ./inp_files/20320.got.cif
#   From: 2010.05.17/outbox.cif.g08.bks.cpg/sg72_11_cif.got.tgz:20320.got - 2010.06.03 17:03:01.
