data_PCOD9528489
_publ_section_title
;
Structure prediction by ZEFSAII (Michael W. Deem and Ramdas Pophale) SiO2 
 PCOD9528489
Probable space group: I B A M
;
_chemical_formula_sum "Si O2"
_cell_formula_units_Z 64
_cell_length_a 8.773473
_cell_length_b 25.338091
_cell_length_c 14.095119
_cell_angle_alpha 90.000000
_cell_angle_beta 90.000000
_cell_angle_gamma 90.000000
_cell_volume 3133.388046
_symmetry_space_group_name_H-M "I B A M"
_symmetry_group_IT_number 72
_symmetry_cell_setting 'orthorhombic'
loop_
_space_group_symop_operation_xyz
x,y,z
-x,-y,z
x,-y,1/2-z
-x,y,1/2-z
-x,-y,-z
x,y,-z
-x,y,1/2+z
x,-y,1/2+z
1/2+x,1/2+y,1/2+z
1/2-x,1/2-y,1/2+z
1/2+x,1/2-y,-z
1/2-x,1/2+y,-z
1/2-x,1/2-y,1/2-z
1/2+x,1/2+y,1/2-z
1/2-x,1/2+y,z
1/2+x,1/2-y,z
loop_
_atom_site_type_symbol
_atom_site_label
_atom_site_fract_x
_atom_site_fract_y
_atom_site_fract_z
Si Si1 0.674510 0.481027 0.390423
Si Si2 0.623676 0.822790 0.894825
Si Si3 0.112919 0.234477 0.820140
Si Si4 0.830553 0.427900 0.779193
O O1 0.500000 0.500000 0.380109
O O2 0.700681 0.465704 0.500000
O O3 0.722873 0.437028 0.312875
O O4 0.771203 0.532299 0.359644
O O5 0.789549 0.794923 0.898491
O O6 0.490420 0.782325 0.860604
O O7 0.651763 0.869603 0.820837
O O8 0.582930 0.842176 0.000000
O O9 0.250000 0.250000 0.750000
O O10 0.000000 0.202573 0.750000
O O11 0.000000 0.443244 0.750000
#
# Coordination Sequence:
#
# PCOD9528489 Si02
#       4
#    16  16  16  16
#     4  10  22  41  64  90 121 158 201 250 305 369
#     4  11  22  38  61  90 123 163 208 252 305 366
#     4   9  19  37  58  81 116 158 202 254 305 353
#     4  11  22  37  60  91 125 159 198 251 306 363
#
# _framework density 20.425174999999999
#
# number of rings (size 3 to 8) (size 9 to 14) (size 15 to 20)
#    0.000    1.750    0.000    6.750    0.000    5.000 
#    0.000    0.000    0.000    4.500    0.000    0.000 
#    0.000    0.000    0.000    0.000    0.000    0.000 
#
# Total GULP energy -178217.369078 kJ/mol
# GULP energy per Si atom -5569.292784 kJ/mol
# Density = 2.037869 g / cm^3
# Si number density = 20.425175 Si / 1000 Ang^3
#
#
#
# Elastic Constant Matrix: (Units=GPa)
#
#
# Indices 1 2 3 4 5 6 
#
# 1 132.8064 45.1160 47.3910 0.0000 0.0000 0.0000
# 2 45.1160 113.8292 49.2744 0.0000 0.0000 0.0000
# 3 47.3910 49.2744 159.2592 0.0001 0.0000 0.0000
# 4 0.0000 0.0000 0.0001 12.1817 0.0000 0.0000
# 5 0.0000 0.0000 0.0000 0.0000 15.7998 0.0000
# 6 0.0000 0.0000 0.0000 0.0000 0.0000 11.2317
#
#
#
# Elastic Compliance Matrix: (Units=1/GPa)
#
#
# Indices 1 2 3 4 5 6 
#
# 1 0.009149 -0.002826 -0.001848 0.000000 0.000000 0.000000
# 2 -0.002826 0.011017 -0.002568 0.000000 0.000000 0.000000
# 3 -0.001848 -0.002568 0.007623 0.000000 0.000000 0.000000
# 4 0.000000 0.000000 0.000000 0.082090 0.000000 0.000000
# 5 0.000000 0.000000 0.000000 0.000000 0.063292 0.000000
# 6 0.000000 0.000000 0.000000 0.000000 0.000000 0.089033
#
#
# Mechanical properties :
#
#
# Convention : Reuss Voigt Hill
#
# Bulk Modulus (GPa) = 75.15652 76.60642 75.88147
# Shear Modulus (GPa) = 17.78574 25.45021 21.61798
#
# Velocity S-wave (km/s) = 2.95409 3.53373 3.25683
# Velocity P-wave (km/s) = 6.96502 7.36458 7.16758
#
# Compressibility (1/GPa) = 0.01330557
#
# Stress axis : x y z
#
# Youngs Moduli (GPa) = 109.29686 90.77105 131.17484
#
# Poissons Ratio (x) = 0.25655 0.24243
# Poissons Ratio (y) = 0.30891 0.33679
# Poissons Ratio (z) = 0.20200 0.23306
#
# Static dielectric constant tensor:
#      x y z
#    x 1.751260 0.000000 0.000000 
#    y 0.000000 1.793080 0.000000 
#    z 0.000000 0.000000 1.675980 
# 
# From -- ./inp_files/18677.got.cif
#   From: 2010.05.17/outbox.cif.g08.bks.cpg/sg72_10_cif.got.tgz:18677.got - 2010.06.03 17:03:01.
