data_PCOD9528403
_publ_section_title
;
Structure prediction by ZEFSAII (Michael W. Deem and Ramdas Pophale) SiO2 
 PCOD9528403
Probable space group: I B A M
;
_chemical_formula_sum "Si O2"
_cell_formula_units_Z 104
_cell_length_a 28.601201
_cell_length_b 21.878252
_cell_length_c 8.224357
_cell_angle_alpha 90.000000
_cell_angle_beta 90.000000
_cell_angle_gamma 90.000000
_cell_volume 5146.344374
_symmetry_space_group_name_H-M "I B A M"
_symmetry_group_IT_number 72
_symmetry_cell_setting 'orthorhombic'
loop_
_space_group_symop_operation_xyz
x,y,z
-x,-y,z
x,-y,1/2-z
-x,y,1/2-z
-x,-y,-z
x,y,-z
-x,y,1/2+z
x,-y,1/2+z
1/2+x,1/2+y,1/2+z
1/2-x,1/2-y,1/2+z
1/2+x,1/2-y,-z
1/2-x,1/2+y,-z
1/2-x,1/2-y,1/2-z
1/2+x,1/2+y,1/2-z
1/2-x,1/2+y,z
1/2+x,1/2-y,z
loop_
_atom_site_type_symbol
_atom_site_label
_atom_site_fract_x
_atom_site_fract_y
_atom_site_fract_z
Si Si1 0.872172 0.500000 0.750000
Si Si2 0.945573 0.402159 0.199062
Si Si3 0.794382 0.599805 0.685291
Si Si4 0.447095 0.237700 0.195584
Si Si5 0.308722 0.565301 0.191143
Si Si6 0.801045 0.269658 0.688805
Si Si7 0.129021 0.824854 0.186354
O O1 0.911130 0.448051 0.705818
O O2 0.833532 0.547241 0.677233
O O3 0.932434 0.331760 0.238942
O O4 0.000000 0.411086 0.250000
O O5 0.940846 0.411306 0.000000
O O6 0.787084 0.621902 0.500000
O O7 0.744240 0.577333 0.754128
O O8 0.808599 0.658373 0.789118
O O9 0.500000 0.243683 0.250000
O O10 0.417185 0.294431 0.261724
O O11 0.443901 0.239980 0.000000
O O12 0.325908 0.500000 0.250000
O O13 0.344209 0.619110 0.233272
O O14 0.303552 0.561888 0.000000
O O15 0.806944 0.252140 0.500000
O O16 0.750000 0.250000 0.750000
O O17 0.836116 0.232352 0.800878
O O18 0.120429 0.842215 0.000000
#
# Coordination Sequence:
#
# PCOD9528403 Si02
#       7
#     8  16  16  16  16  16  16
#     4  12  23  38  60  84 118 164 213 258 308 360
#     4  10  22  40  61  85 117 158 205 256 310 365
#     4  11  24  40  58  83 119 159 205 257 306 359
#     4   9  20  40  66  94 124 158 198 253 311 369
#     4  11  23  40  61  86 121 163 206 248 300 364
#     4  12  24  38  59  86 118 158 205 256 310 364
#     4  11  22  39  64  91 124 162 202 250 309 368
#
# _framework density 20.208521000000001
#
# number of rings (size 3 to 8) (size 9 to 14) (size 15 to 20)
#    0.000    1.231    2.308    3.923    0.000    6.154 
#    0.000    3.077    0.000    0.462    0.000    3.231 
#    0.000    0.000    0.000    0.000    0.000    0.000 
#
# Total GULP energy -289837.591990 kJ/mol
# GULP energy per Si atom -5573.799846 kJ/mol
# Density = 2.016253 g / cm^3
# Si number density = 20.208521 Si / 1000 Ang^3
#
#
#
# Elastic Constant Matrix: (Units=GPa)
#
#
# Indices 1 2 3 4 5 6 
#
# 1 97.0686 62.5897 0.3668 0.0000 0.0000 0.0000
# 2 62.5897 141.5785 15.8495 0.0000 0.0000 0.0000
# 3 0.3668 15.8495 29.6731 0.0000 0.0000 0.0000
# 4 0.0000 0.0000 0.0000 -203.2267 0.0000 0.0000
# 5 0.0000 0.0000 0.0000 0.0000 0.7233 0.0000
# 6 0.0000 0.0000 0.0000 0.0000 0.0000 31.0040
#
#
#
# Elastic Compliance Matrix: (Units=1/GPa)
#
#
# Indices 1 2 3 4 5 6 
#
# 1 0.014745 -0.006912 0.003509 0.000000 0.000000 0.000000
# 2 -0.006912 0.010752 -0.005658 0.000000 0.000000 0.000000
# 3 0.003509 -0.005658 0.036679 0.000000 0.000000 0.000000
# 4 0.000000 0.000000 0.000000 -0.004921 0.000000 0.000000
# 5 0.000000 0.000000 0.000000 0.000000 1.382479 0.000000
# 6 0.000000 0.000000 0.000000 0.000000 0.000000 0.032254
#
#
# Mechanical properties :
#
#
# Convention : Reuss Voigt Hill
#
# Bulk Modulus (GPa) = 22.69790 47.32579 35.01185
# Shear Modulus (GPa) = 3.32271 -21.66558 -9.17143
#
# Velocity S-wave (km/s) = 1.28366 -3.27785 -2.13266
# Velocity P-wave (km/s) = 3.66787 3.02388 3.36133
#
# Compressibility (1/GPa) = 0.04405694
#
# Stress axis : x y z
#
# Youngs Moduli (GPa) = 67.81835 93.00539 27.26349
#
# Poissons Ratio (x) = 0.64281 -0.09568
# Poissons Ratio (y) = 0.46873 0.15425
# Poissons Ratio (z) = -0.23800 0.52619
#
# Static dielectric constant tensor:
#      x y z
#    x 1.783580 0.000000 0.000000 
#    y 0.000000 1.762780 0.000000 
#    z 0.000000 0.000000 1.720950 
# 
# From -- ./inp_files/8158.got.cif
#   From: 2010.05.17/outbox.cif.g08.bks.cpg/sg72_5_cif.got.tgz:8158.got - 2010.06.03 17:03:01.
