data_PCOD9528300
_publ_section_title
;
Structure prediction by ZEFSAII (Michael W. Deem and Ramdas Pophale) SiO2 
 PCOD9528300
Probable space group: I B A M
;
_chemical_formula_sum "Si O2"
_cell_formula_units_Z 52
_cell_length_a 9.871776
_cell_length_b 21.617799
_cell_length_c 12.549669
_cell_angle_alpha 90.000000
_cell_angle_beta 90.000000
_cell_angle_gamma 90.000000
_cell_volume 2678.175533
_symmetry_space_group_name_H-M "I B A M"
_symmetry_group_IT_number 72
_symmetry_cell_setting 'orthorhombic'
loop_
_space_group_symop_operation_xyz
x,y,z
-x,-y,z
x,-y,1/2-z
-x,y,1/2-z
-x,-y,-z
x,y,-z
-x,y,1/2+z
x,-y,1/2+z
1/2+x,1/2+y,1/2+z
1/2-x,1/2-y,1/2+z
1/2+x,1/2-y,-z
1/2-x,1/2+y,-z
1/2-x,1/2-y,1/2-z
1/2+x,1/2+y,1/2-z
1/2-x,1/2+y,z
1/2+x,1/2-y,z
loop_
_atom_site_type_symbol
_atom_site_label
_atom_site_fract_x
_atom_site_fract_y
_atom_site_fract_z
Si Si1 0.336614 0.899029 0.121075
Si Si2 0.996455 0.307118 0.500000
Si Si3 0.500000 0.000000 0.750000
Si Si4 0.801174 0.808456 0.000000
Si Si5 0.340168 0.312765 0.734696
O O1 0.458923 0.849737 0.100783
O O2 0.219902 0.863217 0.184181
O O3 0.402581 0.956770 0.179449
O O4 0.291959 0.914118 0.000000
O O5 0.147795 0.285396 0.500000
O O6 0.898333 0.249909 0.500000
O O7 0.822565 0.839202 0.114450
O O8 0.500000 0.299787 0.750000
O O9 0.250000 0.250000 0.750000
#
# Coordination Sequence:
#
# PCOD9528300 Si02
#       5
#    16   8   4   8  16
#     4  10  24  42  66  98 134 170 235 280 333 391
#     4  10  22  37  64  97 143 160 222 277 330 418
#     4  12  22  44  74  94 128 190 238 286 322 396
#     4  12  22  36  62  99 138 179 210 258 352 417
#     4  12  25  40  68 100 145 177 216 278 345 416
#
# _framework density 19.416202999999999
#
# number of rings (size 3 to 8) (size 9 to 14) (size 15 to 20)
#    0.923    0.000    3.077    4.154    4.308    0.000 
#    2.769    0.769    0.000    1.846    0.000    0.000 
#    0.000    0.000    0.000    0.000    0.000    0.000 
#
# Total GULP energy -145065.462337 kJ/mol
# GULP energy per Si atom -5579.440859 kJ/mol
# Density = 1.937201 g / cm^3
# Si number density = 19.416203 Si / 1000 Ang^3
#
#
#
# Elastic Constant Matrix: (Units=GPa)
#
#
# Indices 1 2 3 4 5 6 
#
# 1 170.5488 43.3348 55.4893 0.0001 0.0000 0.0000
# 2 43.3348 67.4042 57.9831 0.0004 0.0000 -0.0001
# 3 55.4893 57.9831 178.0776 0.0004 0.0000 -0.0001
# 4 0.0001 0.0004 0.0004 17.8423 0.0000 -0.0001
# 5 0.0000 0.0000 0.0000 0.0000 25.3262 0.0000
# 6 0.0000 -0.0001 -0.0001 -0.0001 0.0000 17.0641
#
#
#
# Elastic Compliance Matrix: (Units=1/GPa)
#
#
# Indices 1 2 3 4 5 6 
#
# 1 0.007138 -0.003717 -0.001014 0.000000 0.000000 0.000000
# 2 -0.003717 0.022543 -0.006182 0.000000 0.000000 0.000000
# 3 -0.001014 -0.006182 0.007944 0.000000 0.000000 0.000000
# 4 0.000000 0.000000 0.000000 0.056047 0.000000 0.000000
# 5 0.000000 0.000000 0.000000 0.000000 0.039485 0.000000
# 6 0.000000 0.000000 0.000000 0.000000 0.000000 0.058603
#
#
# Mechanical properties :
#
#
# Convention : Reuss Voigt Hill
#
# Bulk Modulus (GPa) = 63.29111 81.07167 72.18139
# Shear Modulus (GPa) = 22.84652 29.32808 26.08730
#
# Velocity S-wave (km/s) = 3.43399 3.89072 3.66947
# Velocity P-wave (km/s) = 6.95635 7.87585 7.43034
#
# Compressibility (1/GPa) = 0.01580001
#
# Stress axis : x y z
#
# Youngs Moduli (GPa) = 140.10139 44.35887 125.87453
#
# Poissons Ratio (x) = 0.16487 0.12763
# Poissons Ratio (y) = 0.52071 0.77817
# Poissons Ratio (z) = 0.14206 0.27423
#
# Static dielectric constant tensor:
#      x y z
#    x 1.657640 0.000000 0.000000 
#    y 0.000000 1.641870 0.000000 
#    z 0.000000 0.000000 1.798760 
# 
# From -- ./inp_files/18355.got.cif
#   From: 2010.05.17/outbox.cif.g08.bks.cpg/sg72_10_cif.got.tgz:18355.got - 2010.06.03 17:03:01.
