data_PCOD9528698
_publ_section_title
;
Structure prediction by ZEFSAII (Michael W. Deem and Ramdas Pophale) SiO2 
 PCOD9528698
Probable space group: I B A M
;
_chemical_formula_sum "Si O2"
_cell_formula_units_Z 88
_cell_length_a 11.803732
_cell_length_b 24.575469
_cell_length_c 15.489430
_cell_angle_alpha 90.000000
_cell_angle_beta 90.000000
_cell_angle_gamma 90.000000
_cell_volume 4493.208703
_symmetry_space_group_name_H-M "I B A M"
_symmetry_group_IT_number 72
_symmetry_cell_setting 'orthorhombic'
loop_
_space_group_symop_operation_xyz
x,y,z
-x,-y,z
x,-y,1/2-z
-x,y,1/2-z
-x,-y,-z
x,y,-z
-x,y,1/2+z
x,-y,1/2+z
1/2+x,1/2+y,1/2+z
1/2-x,1/2-y,1/2+z
1/2+x,1/2-y,-z
1/2-x,1/2+y,-z
1/2-x,1/2-y,1/2-z
1/2+x,1/2+y,1/2-z
1/2-x,1/2+y,z
1/2+x,1/2-y,z
loop_
_atom_site_type_symbol
_atom_site_label
_atom_site_fract_x
_atom_site_fract_y
_atom_site_fract_z
Si Si1 0.766380 0.465286 0.000000
Si Si2 0.349578 0.151190 0.000000
Si Si3 0.401693 0.374493 0.500000
Si Si4 0.495461 0.794074 0.648848
Si Si5 0.374538 0.022997 0.655541
Si Si6 0.801348 0.638852 0.897921
Si Si7 0.950226 0.834225 0.343342
O O1 0.854766 0.414410 0.000000
O O2 0.646149 0.435611 0.000000
O O3 0.789237 0.499726 0.915314
O O4 0.214365 0.161287 0.000000
O O5 0.409279 0.174234 0.085662
O O6 0.475136 0.362087 0.583294
O O7 0.500000 0.809933 0.750000
O O8 0.619670 0.808410 0.613254
O O9 0.463288 0.730789 0.644719
O O10 0.365381 0.088008 0.646824
O O11 0.500000 0.000000 0.635599
O O12 0.346516 0.000000 0.750000
O O13 0.679748 0.648664 0.855440
O O14 0.788515 0.627746 0.000000
O O15 0.000000 0.848142 0.250000
#
# Coordination Sequence:
#
# PCOD9528698 Si02
#       7
#     8   8   8  16  16  16  16
#     4  10  23  41  66  94 132 170 216 275 333 397
#     4  10  23  39  70  93 137 175 222 277 342 407
#     4  10  25  42  70  92 138 181 229 270 343 408
#     4  11  26  41  67 102 135 179 223 279 343 402
#     4  11  25  43  69 101 136 171 220 282 340 395
#     4  12  26  43  72 100 139 176 231 282 335 403
#     4  11  27  46  66  98 140 182 229 279 331 408
#
# _framework density 19.585114000000001
#
# number of rings (size 3 to 8) (size 9 to 14) (size 15 to 20)
#    0.545    0.545    2.727    1.909   12.727    1.455 
#    0.000    1.818    0.000    0.000    0.000    0.000 
#    0.000    0.000    0.000    0.000    0.000    0.000 
#
# Total GULP energy -245768.567667 kJ/mol
# GULP energy per Si atom -5585.649265 kJ/mol
# Density = 1.954054 g / cm^3
# Si number density = 19.585114 Si / 1000 Ang^3
#
#
#
# Elastic Constant Matrix: (Units=GPa)
#
#
# Indices 1 2 3 4 5 6 
#
# 1 132.3056 25.1902 23.2732 0.0000 0.0000 0.0000
# 2 25.1902 68.8692 29.2113 -0.0001 0.0002 0.0000
# 3 23.2732 29.2113 81.4521 0.0000 0.0000 0.0000
# 4 0.0000 -0.0001 0.0000 16.7898 0.0001 0.0000
# 5 0.0000 0.0002 0.0000 0.0001 -23.8036 0.0001
# 6 0.0000 0.0000 0.0000 0.0000 0.0001 14.2121
#
#
#
# Elastic Compliance Matrix: (Units=1/GPa)
#
#
# Indices 1 2 3 4 5 6 
#
# 1 0.008278 -0.002388 -0.001509 0.000000 0.000000 0.000000
# 2 -0.002388 0.017814 -0.005706 0.000000 0.000000 0.000000
# 3 -0.001509 -0.005706 0.014755 0.000000 0.000000 0.000000
# 4 0.000000 0.000000 0.000000 0.059560 0.000000 0.000000
# 5 0.000000 0.000000 0.000000 0.000000 -0.042010 0.000000
# 6 0.000000 0.000000 0.000000 0.000000 0.000000 0.070363
#
#
# Mechanical properties :
#
#
# Convention : Reuss Voigt Hill
#
# Bulk Modulus (GPa) = 46.20929 48.66402 47.43666
# Shear Modulus (GPa) = 32.22076 15.10315 23.66196
#
# Velocity S-wave (km/s) = 4.06046 2.77998 3.47963
# Velocity P-wave (km/s) = 6.75489 5.93345 6.35745
#
# Compressibility (1/GPa) = 0.02164067
#
# Stress axis : x y z
#
# Youngs Moduli (GPa) = 120.79723 56.13523 67.77445
#
# Poissons Ratio (x) = 0.13405 0.10227
# Poissons Ratio (y) = 0.28845 0.38675
# Poissons Ratio (z) = 0.18228 0.32033
#
# Static dielectric constant tensor:
#      x y z
#    x 1.669060 0.000000 0.000000 
#    y 0.000000 1.723480 0.000000 
#    z 0.000000 0.000000 1.675670 
# 
# From -- ./inp_files/20354.got.cif
#   From: 2010.05.17/outbox.cif.g08.bks.cpg/sg72_11_cif.got.tgz:20354.got - 2010.06.03 17:03:01.
