data_PCOD9528005
_publ_section_title
;
Structure prediction by ZEFSAII (Michael W. Deem and Ramdas Pophale) SiO2 
 PCOD9528005
Probable space group: I B A M
;
_chemical_formula_sum "Si O2"
_cell_formula_units_Z 116
_cell_length_a 30.720676
_cell_length_b 11.052634
_cell_length_c 18.254430
_cell_angle_alpha 90.000000
_cell_angle_beta 90.000000
_cell_angle_gamma 90.000000
_cell_volume 6198.189264
_symmetry_space_group_name_H-M "I B A M"
_symmetry_group_IT_number 72
_symmetry_cell_setting 'orthorhombic'
loop_
_space_group_symop_operation_xyz
x,y,z
-x,-y,z
x,-y,1/2-z
-x,y,1/2-z
-x,-y,-z
x,y,-z
-x,y,1/2+z
x,-y,1/2+z
1/2+x,1/2+y,1/2+z
1/2-x,1/2-y,1/2+z
1/2+x,1/2-y,-z
1/2-x,1/2+y,-z
1/2-x,1/2-y,1/2-z
1/2+x,1/2+y,1/2-z
1/2-x,1/2+y,z
1/2+x,1/2-y,z
loop_
_atom_site_type_symbol
_atom_site_label
_atom_site_fract_x
_atom_site_fract_y
_atom_site_fract_z
Si Si1 0.230583 0.761269 0.668334
Si Si2 0.500000 0.000000 0.750000
Si Si3 0.373176 0.754902 0.164644
Si Si4 0.237045 0.494170 0.914299
Si Si5 0.578320 0.153777 0.309651
Si Si6 0.534206 0.330429 0.583942
Si Si7 0.438905 0.389952 0.584050
Si Si8 0.632793 0.992576 0.581559
O O1 0.250000 0.750000 0.750000
O O2 0.178106 0.762512 0.675456
O O3 0.244496 0.638337 0.623602
O O4 0.244405 0.887449 0.628309
O O5 0.533415 0.083216 0.705354
O O6 0.397264 0.806875 0.236011
O O7 0.399462 0.638812 0.137323
O O8 0.377660 0.854051 0.100399
O O9 0.184701 0.508162 0.914265
O O10 0.251472 0.492855 0.000000
O O11 0.565133 0.265229 0.359766
O O12 0.610132 0.070359 0.356423
O O13 0.538923 0.287049 0.500000
O O14 0.483199 0.318727 0.604540
O O15 0.547128 0.470800 0.584870
O O16 0.427772 0.360030 0.500000
O O17 0.617941 0.024884 0.500000
#
# Coordination Sequence:
#
# PCOD9528005 Si02
#       8
#    16   4  16  16  16  16  16  16
#     4  11  23  42  66  94 127 168 206 257 324 385
#     4  12  24  36  58  86 128 160 206 260 302 348
#     4  11  22  39  62  86 122 160 202 247 297 372
#     4  10  22  42  67  93 123 161 209 257 314 380
#     4  12  22  38  55  87 123 154 201 248 301 349
#     4   9  20  38  60  82 117 157 195 246 302 352
#     4   9  19  39  60  84 114 155 201 244 294 356
#     4  10  21  39  62  85 115 157 198 246 305 360
#
# _framework density 18.715143000000001
#
# number of rings (size 3 to 8) (size 9 to 14) (size 15 to 20)
#    0.000    1.655    1.379    4.138    0.000    4.414 
#    7.448    2.069    0.000    0.000    0.000    0.000 
#    0.000    0.000    0.000    0.000    0.000    0.000 
#
# Total GULP energy -323557.040874 kJ/mol
# GULP energy per Si atom -5578.569670 kJ/mol
# Density = 1.867255 g / cm^3
# Si number density = 18.715143 Si / 1000 Ang^3
#
#
#
# Elastic Constant Matrix: (Units=GPa)
#
#
# Indices 1 2 3 4 5 6 
#
# 1 73.7159 40.8460 53.2207 0.0000 0.0000 0.0000
# 2 40.8460 89.8883 52.6624 0.0000 0.0000 0.0000
# 3 53.2207 52.6624 109.2726 0.0000 0.0000 0.0000
# 4 0.0000 0.0000 0.0000 37.4426 0.0000 0.0000
# 5 0.0000 0.0000 0.0000 0.0000 33.0743 0.0000
# 6 0.0000 0.0000 0.0000 0.0000 0.0000 15.2032
#
#
#
# Elastic Compliance Matrix: (Units=1/GPa)
#
#
# Indices 1 2 3 4 5 6 
#
# 1 0.022617 -0.005328 -0.008448 0.000000 0.000000 0.000000
# 2 -0.005328 0.016757 -0.005481 0.000000 0.000000 0.000000
# 3 -0.008448 -0.005481 0.015907 0.000000 0.000000 0.000000
# 4 0.000000 0.000000 0.000000 0.026708 0.000000 0.000000
# 5 0.000000 0.000000 0.000000 0.000000 0.030235 0.000000
# 6 0.000000 0.000000 0.000000 0.000000 0.000000 0.065776
#
#
# Mechanical properties :
#
#
# Convention : Reuss Voigt Hill
#
# Bulk Modulus (GPa) = 59.63729 62.92610 61.28170
# Shear Modulus (GPa) = 22.51221 25.55386 24.03303
#
# Velocity S-wave (km/s) = 3.47203 3.69916 3.58739
# Velocity P-wave (km/s) = 6.92880 7.20702 7.06928
#
# Compressibility (1/GPa) = 0.01676803
#
# Stress axis : x y z
#
# Youngs Moduli (GPa) = 44.21492 59.67625 62.86470
#
# Poissons Ratio (x) = 0.31796 0.53105
# Poissons Ratio (y) = 0.23558 0.34455
# Poissons Ratio (z) = 0.37351 0.32707
#
# Static dielectric constant tensor:
#      x y z
#    x 1.630880 0.000000 0.000000 
#    y 0.000000 1.677330 0.000000 
#    z 0.000000 0.000000 1.651370 
# 
# From -- ./inp_files/34331.got.cif
#   From: 2010.05.17/outbox.cif.g08.bks.cpg/sg72_18_cif.got.tgz:34331.got - 2010.06.03 17:03:01.
