data_PCOD9528499
_publ_section_title
;
Structure prediction by ZEFSAII (Michael W. Deem and Ramdas Pophale) SiO2 
 PCOD9528499
Probable space group: I B A M
;
_chemical_formula_sum "Si O2"
_cell_formula_units_Z 100
_cell_length_a 27.694143
_cell_length_b 20.159982
_cell_length_c 8.866392
_cell_angle_alpha 90.000000
_cell_angle_beta 90.000000
_cell_angle_gamma 90.000000
_cell_volume 4950.225679
_symmetry_space_group_name_H-M "I B A M"
_symmetry_group_IT_number 72
_symmetry_cell_setting 'orthorhombic'
loop_
_space_group_symop_operation_xyz
x,y,z
-x,-y,z
x,-y,1/2-z
-x,y,1/2-z
-x,-y,-z
x,y,-z
-x,y,1/2+z
x,-y,1/2+z
1/2+x,1/2+y,1/2+z
1/2-x,1/2-y,1/2+z
1/2+x,1/2-y,-z
1/2-x,1/2+y,-z
1/2-x,1/2-y,1/2-z
1/2+x,1/2+y,1/2-z
1/2-x,1/2+y,z
1/2+x,1/2-y,z
loop_
_atom_site_type_symbol
_atom_site_label
_atom_site_fract_x
_atom_site_fract_y
_atom_site_fract_z
Si Si1 0.948986 0.765096 0.180703
Si Si2 0.551557 0.887004 0.318421
Si Si3 0.265771 0.180223 0.677882
Si Si4 0.810212 0.935975 0.323030
Si Si5 0.588400 0.597628 0.318705
Si Si6 0.500000 0.500000 0.250000
Si Si7 0.842276 0.430026 0.317289
O O1 0.939724 0.689854 0.228785
O O2 0.913503 0.824347 0.222008
O O3 0.000000 0.784349 0.250000
O O4 0.952220 0.764214 0.000000
O O5 0.500000 0.908715 0.250000
O O6 0.547137 0.889785 0.500000
O O7 0.601075 0.922980 0.275713
O O8 0.273783 0.192591 0.500000
O O9 0.250000 0.250000 0.750000
O O10 0.221610 0.129204 0.697254
O O11 0.311954 0.135744 0.731253
O O12 0.817072 0.947067 0.500000
O O13 0.861433 0.928290 0.242987
O O14 0.785621 0.000000 0.250000
O O15 0.585589 0.590444 0.500000
O O16 0.542819 0.557503 0.254049
O O17 0.825138 0.500000 0.250000
O O18 0.838328 0.432494 0.500000
#
# Coordination Sequence:
#
# PCOD9528499 Si02
#       7
#    16  16  16  16  16   4  16
#     4   9  18  33  52  77 108 152 198 241 297 352
#     4   9  19  36  59  88 123 160 202 249 298 363
#     4  10  24  44  67  96 126 160 205 261 314 372
#     4  11  24  41  61  89 122 160 207 255 311 371
#     4  11  23  36  56  83 117 162 205 254 313 367
#     4  12  22  36  56  86 126 156 216 260 304 376
#     4  10  22  41  65  92 126 165 207 253 308 370
#
# _framework density 20.201098999999999
#
# number of rings (size 3 to 8) (size 9 to 14) (size 15 to 20)
#    0.000    1.920    1.600    1.200    2.240    4.160 
#    0.000    1.600    0.000    0.000    0.000    0.000 
#    0.000    0.000    0.000    0.000    0.000    0.000 
#
# Total GULP energy -278377.028456 kJ/mol
# GULP energy per Si atom -5567.540569 kJ/mol
# Density = 2.015512 g / cm^3
# Si number density = 20.201099 Si / 1000 Ang^3
#
#
#
# Elastic Constant Matrix: (Units=GPa)
#
#
# Indices 1 2 3 4 5 6 
#
# 1 140.8827 52.2637 63.3770 0.0000 0.0000 0.0000
# 2 52.2637 134.5979 61.4412 0.0000 0.0000 0.0000
# 3 63.3770 61.4412 82.9292 0.0000 0.0000 0.0000
# 4 0.0000 0.0000 0.0000 28.3891 0.0000 0.0000
# 5 0.0000 0.0000 0.0000 0.0000 15.4328 0.0000
# 6 0.0000 0.0000 0.0000 0.0000 0.0000 13.1102
#
#
#
# Elastic Compliance Matrix: (Units=1/GPa)
#
#
# Indices 1 2 3 4 5 6 
#
# 1 0.010854 -0.000647 -0.007816 0.000000 0.000000 0.000000
# 2 -0.000647 0.011265 -0.007852 0.000000 0.000000 0.000000
# 3 -0.007816 -0.007852 0.023849 0.000000 0.000000 0.000000
# 4 0.000000 0.000000 0.000000 0.035225 0.000000 0.000000
# 5 0.000000 0.000000 0.000000 0.000000 0.064797 0.000000
# 6 0.000000 0.000000 0.000000 0.000000 0.000000 0.076276
#
#
# Mechanical properties :
#
#
# Convention : Reuss Voigt Hill
#
# Bulk Modulus (GPa) = 74.96757 79.17487 77.07122
# Shear Modulus (GPa) = 19.27968 23.47495 21.37731
#
# Velocity S-wave (km/s) = 3.09267 3.41260 3.25657
# Velocity P-wave (km/s) = 7.06711 7.40312 7.23707
#
# Compressibility (1/GPa) = 0.01333910
#
# Stress axis : x y z
#
# Youngs Moduli (GPa) = 92.13173 88.77199 41.93105
#
# Poissons Ratio (x) = 0.05742 0.32772
# Poissons Ratio (y) = 0.05959 0.32923
# Poissons Ratio (z) = 0.72008 0.69700
#
# Static dielectric constant tensor:
#      x y z
#    x 1.706600 0.000000 0.000000 
#    y 0.000000 1.744850 0.000000 
#    z 0.000000 0.000000 1.688580 
# 
# From -- ./inp_files/8182.got.cif
#   From: 2010.05.17/outbox.cif.g08.bks.cpg/sg72_5_cif.got.tgz:8182.got - 2010.06.03 17:03:01.
