data_PCOD9528428
_publ_section_title
;
Structure prediction by ZEFSAII (Michael W. Deem and Ramdas Pophale) SiO2 
 PCOD9528428
Probable space group: I B A M
;
_chemical_formula_sum "Si O2"
_cell_formula_units_Z 80
_cell_length_a 8.295892
_cell_length_b 21.386554
_cell_length_c 22.733154
_cell_angle_alpha 90.000000
_cell_angle_beta 90.000000
_cell_angle_gamma 90.000000
_cell_volume 4033.328509
_symmetry_space_group_name_H-M "I B A M"
_symmetry_group_IT_number 72
_symmetry_cell_setting 'orthorhombic'
loop_
_space_group_symop_operation_xyz
x,y,z
-x,-y,z
x,-y,1/2-z
-x,y,1/2-z
-x,-y,-z
x,y,-z
-x,y,1/2+z
x,-y,1/2+z
1/2+x,1/2+y,1/2+z
1/2-x,1/2-y,1/2+z
1/2+x,1/2-y,-z
1/2-x,1/2+y,-z
1/2-x,1/2-y,1/2-z
1/2+x,1/2+y,1/2-z
1/2-x,1/2+y,z
1/2+x,1/2-y,z
loop_
_atom_site_type_symbol
_atom_site_label
_atom_site_fract_x
_atom_site_fract_y
_atom_site_fract_z
Si Si1 0.775658 0.654847 0.337972
Si Si2 0.851458 0.151522 0.786278
Si Si3 0.609853 0.221087 0.870738
Si Si4 0.970388 0.927175 0.883005
Si Si5 0.014569 0.848319 0.500000
Si Si6 0.286273 0.237115 0.500000
O O1 0.767187 0.639499 0.268644
O O2 0.636857 0.705108 0.358344
O O3 0.715545 0.592231 0.370129
O O4 0.943053 0.687807 0.353955
O O5 0.752026 0.192129 0.831738
O O6 0.000000 0.182477 0.750000
O O7 0.929658 0.096168 0.825107
O O8 0.639854 0.211950 0.939540
O O9 0.014640 0.889627 0.942234
O O10 0.000000 0.000000 0.891019
O O11 0.187259 0.812335 0.500000
O O12 0.894395 0.789102 0.500000
#
# Coordination Sequence:
#
# PCOD9528428 Si02
#       6
#    16  16  16  16   8   8
#     4  11  23  38  64  94 130 174 214 275 330 398
#     4  10  22  40  63  93 129 173 215 270 330 388
#     4  12  22  41  63 100 134 166 217 274 349 391
#     4  11  24  43  66  91 130 177 226 263 312 390
#     4  12  23  44  65 102 126 169 210 272 341 380
#     4  12  24  38  71  94 136 160 205 281 323 398
#
# _framework density 19.834734000000001
#
# number of rings (size 3 to 8) (size 9 to 14) (size 15 to 20)
#    0.000    0.800    4.000    5.100    0.000    5.200 
#    0.000    1.000    0.000    6.000    0.000    0.000 
#    0.000    0.000    0.000    0.000    0.000    0.000 
#
# Total GULP energy -222991.994493 kJ/mol
# GULP energy per Si atom -5574.799862 kJ/mol
# Density = 1.978959 g / cm^3
# Si number density = 19.834734 Si / 1000 Ang^3
#
#
#
# Elastic Constant Matrix: (Units=GPa)
#
#
# Indices 1 2 3 4 5 6 
#
# 1 95.7990 52.9432 49.9609 0.0000 0.0000 0.0000
# 2 52.9432 114.5513 38.8525 0.0000 0.0000 0.0000
# 3 49.9609 38.8525 176.7503 0.0000 0.0000 0.0000
# 4 0.0000 0.0000 0.0000 21.0075 0.0000 0.0000
# 5 0.0000 0.0000 0.0000 0.0000 30.3293 0.0000
# 6 0.0000 0.0000 0.0000 0.0000 0.0000 17.7240
#
#
#
# Elastic Compliance Matrix: (Units=1/GPa)
#
#
# Indices 1 2 3 4 5 6 
#
# 1 0.015369 -0.006083 -0.003007 0.000000 0.000000 0.000000
# 2 -0.006083 0.011841 -0.000883 0.000000 0.000000 0.000000
# 3 -0.003007 -0.000883 0.006702 0.000000 0.000000 0.000000
# 4 0.000000 0.000000 0.000000 0.047602 0.000000 0.000000
# 5 0.000000 0.000000 0.000000 0.000000 0.032971 0.000000
# 6 0.000000 0.000000 0.000000 0.000000 0.000000 0.056421
#
#
# Mechanical properties :
#
#
# Convention : Reuss Voigt Hill
#
# Bulk Modulus (GPa) = 71.61093 74.51263 73.06178
# Shear Modulus (GPa) = 25.57453 30.16841 27.87147
#
# Velocity S-wave (km/s) = 3.59469 3.90422 3.75265
# Velocity P-wave (km/s) = 7.30830 7.61395 7.46269
#
# Compressibility (1/GPa) = 0.01396435
#
# Stress axis : x y z
#
# Youngs Moduli (GPa) = 65.06789 84.45365 149.21313
#
# Poissons Ratio (x) = 0.51374 0.44868
# Poissons Ratio (y) = 0.39582 0.13180
# Poissons Ratio (z) = 0.19566 0.07460
#
# Static dielectric constant tensor:
#      x y z
#    x 1.776470 0.000000 0.000000 
#    y 0.000000 1.700310 0.000000 
#    z 0.000000 0.000000 1.742440 
# 
# From -- ./inp_files/35766.got.cif
#   From: 2010.05.17/outbox.cif.g08.bks.cpg/sg72_18_cif.got.tgz:35766.got - 2010.06.03 17:03:01.
