data_PCOD9528139
_publ_section_title
;
Structure prediction by ZEFSAII (Michael W. Deem and Ramdas Pophale) SiO2 
 PCOD9528139
Probable space group: I B A M
;
_chemical_formula_sum "Si O2"
_cell_formula_units_Z 52
_cell_length_a 22.530872
_cell_length_b 5.105716
_cell_length_c 20.057776
_cell_angle_alpha 90.000000
_cell_angle_beta 90.000000
_cell_angle_gamma 90.000000
_cell_volume 2307.371007
_symmetry_space_group_name_H-M "I B A M"
_symmetry_group_IT_number 72
_symmetry_cell_setting 'orthorhombic'
loop_
_space_group_symop_operation_xyz
x,y,z
-x,-y,z
x,-y,1/2-z
-x,y,1/2-z
-x,-y,-z
x,y,-z
-x,y,1/2+z
x,-y,1/2+z
1/2+x,1/2+y,1/2+z
1/2-x,1/2-y,1/2+z
1/2+x,1/2-y,-z
1/2-x,1/2+y,-z
1/2-x,1/2-y,1/2-z
1/2+x,1/2+y,1/2-z
1/2-x,1/2+y,z
1/2+x,1/2-y,z
loop_
_atom_site_type_symbol
_atom_site_label
_atom_site_fract_x
_atom_site_fract_y
_atom_site_fract_z
Si Si1 0.290420 0.981992 0.923108
Si Si2 0.906273 0.333692 0.643715
Si Si3 0.000000 0.500000 0.750000
Si Si4 0.562960 0.349001 0.573856
O O1 0.260381 0.263682 0.917792
O O2 0.339234 0.938567 0.865303
O O3 0.314963 0.952356 0.000000
O O4 0.952613 0.340663 0.705096
O O5 0.937048 0.547619 0.594229
O O6 0.900614 0.032091 0.623064
O O7 0.500000 0.500000 0.574779
O O8 0.587384 0.374973 0.500000
#
# Coordination Sequence:
#
# PCOD9528139 Si02
#       4
#    16  16   4  16
#     4  10  21  40  66  96 126 161 211 273 334 382
#     4  12  24  42  64  94 136 173 216 266 319 388
#     4  12  28  46  62  94 136 186 224 254 308 394
#     4  11  21  37  62  95 127 161 210 271 337 389
#
# _framework density 22.536470999999999
#
# number of rings (size 3 to 8) (size 9 to 14) (size 15 to 20)
#    0.000    0.923    3.077    4.615    0.000    7.385 
#    0.000    1.538    0.000    0.000    0.000    0.000 
#    0.000    0.000    0.000    0.000    0.000    0.000 
#
# Total GULP energy -144840.882328 kJ/mol
# GULP energy per Si atom -5570.803166 kJ/mol
# Density = 2.248518 g / cm^3
# Si number density = 22.536471 Si / 1000 Ang^3
#
#
#
# Elastic Constant Matrix: (Units=GPa)
#
#
# Indices 1 2 3 4 5 6 
#
# 1 108.5447 2.5771 25.9034 0.0000 0.0000 0.0000
# 2 2.5771 64.3523 10.5399 0.0000 0.0000 0.0000
# 3 25.9034 10.5399 76.7006 0.0000 0.0000 0.0000
# 4 0.0000 0.0000 0.0000 1.7045 0.0000 0.0000
# 5 0.0000 0.0000 0.0000 0.0000 -28.1993 0.0000
# 6 0.0000 0.0000 0.0000 0.0000 0.0000 38.8922
#
#
#
# Elastic Compliance Matrix: (Units=1/GPa)
#
#
# Indices 1 2 3 4 5 6 
#
# 1 0.010022 0.000157 -0.003406 0.000000 0.000000 0.000000
# 2 0.000157 0.015900 -0.002238 0.000000 0.000000 0.000000
# 3 -0.003406 -0.002238 0.014496 0.000000 0.000000 0.000000
# 4 0.000000 0.000000 0.000000 0.586694 0.000000 0.000000
# 5 0.000000 0.000000 0.000000 0.000000 -0.035462 0.000000
# 6 0.000000 0.000000 0.000000 0.000000 0.000000 0.025712
#
#
# Mechanical properties :
#
#
# Convention : Reuss Voigt Hill
#
# Bulk Modulus (GPa) = 33.96452 36.40426 35.18439
# Shear Modulus (GPa) = 7.83515 16.51795 12.17655
#
# Velocity S-wave (km/s) = 1.86660 2.71023 2.32697
# Velocity P-wave (km/s) = 4.44401 5.09729 4.78182
#
# Compressibility (1/GPa) = 0.02944249
#
# Stress axis : x y z
#
# Youngs Moduli (GPa) = 99.78124 62.89429 68.98683
#
# Poissons Ratio (x) = -0.00984 0.23498
# Poissons Ratio (y) = -0.01562 0.15437
# Poissons Ratio (z) = 0.33987 0.14074
#
# Static dielectric constant tensor:
#      x y z
#    x 1.935340 0.000000 0.000000 
#    y 0.000000 1.794900 0.000000 
#    z 0.000000 0.000000 1.890070 
# 
# From -- ./inp_files/33605.got.cif
#   From: 2010.05.17/outbox.cif.g08.bks.cpg/sg72_17_cif.got.tgz:33605.got - 2010.06.03 17:03:01.
