data_PCOD9528740
_publ_section_title
;
Structure prediction by ZEFSAII (Michael W. Deem and Ramdas Pophale) SiO2 
 PCOD9528740
Probable space group: I B A M
;
_chemical_formula_sum "Si O2"
_cell_formula_units_Z 68
_cell_length_a 18.495344
_cell_length_b 8.851359
_cell_length_c 18.273811
_cell_angle_alpha 90.000000
_cell_angle_beta 90.000000
_cell_angle_gamma 90.000000
_cell_volume 2991.586038
_symmetry_space_group_name_H-M "I B A M"
_symmetry_group_IT_number 72
_symmetry_cell_setting 'orthorhombic'
loop_
_space_group_symop_operation_xyz
x,y,z
-x,-y,z
x,-y,1/2-z
-x,y,1/2-z
-x,-y,-z
x,y,-z
-x,y,1/2+z
x,-y,1/2+z
1/2+x,1/2+y,1/2+z
1/2-x,1/2-y,1/2+z
1/2+x,1/2-y,-z
1/2-x,1/2+y,-z
1/2-x,1/2-y,1/2-z
1/2+x,1/2+y,1/2-z
1/2-x,1/2+y,z
1/2+x,1/2-y,z
loop_
_atom_site_type_symbol
_atom_site_label
_atom_site_fract_x
_atom_site_fract_y
_atom_site_fract_z
Si Si1 0.707976 0.864342 0.196618
Si Si2 0.500000 0.500000 0.250000
Si Si3 0.043348 0.359962 0.083016
Si Si4 0.084939 0.835907 0.126076
Si Si5 0.165153 0.132201 0.083929
O O1 0.750000 0.750000 0.250000
O O2 0.644245 0.785539 0.151138
O O3 0.768080 0.905141 0.136193
O O4 0.684349 0.000000 0.250000
O O5 0.449712 0.602286 0.299555
O O6 0.114973 0.273263 0.111608
O O7 0.000000 0.500000 0.119855
O O8 0.980781 0.235082 0.081842
O O9 0.062416 0.408484 0.000000
O O10 0.118165 0.980052 0.086140
O O11 0.186661 0.164740 0.000000
#
# Coordination Sequence:
#
# PCOD9528740 Si02
#       5
#    16   4  16  16  16
#     4  12  27  47  68 101 144 188 236 296 356 433
#     4  12  24  44  72 100 132 180 234 284 352 432
#     4  10  23  41  67 103 138 174 229 295 352 420
#     4  12  24  42  74  97 136 183 236 285 359 424
#     4  11  24  46  72 102 143 190 239 294 362 434
#
# _framework density 22.730418
#
# number of rings (size 3 to 8) (size 9 to 14) (size 15 to 20)
#    0.000    0.706    4.706    2.118    3.294    3.765 
#    0.000    0.000    0.000    0.000    0.000    0.000 
#    0.000    0.000    0.000    0.000    0.000    0.000 
#
# Total GULP energy -189992.047777 kJ/mol
# GULP energy per Si atom -5588.001405 kJ/mol
# Density = 2.267868 g / cm^3
# Si number density = 22.730418 Si / 1000 Ang^3
#
#
#
# Elastic Constant Matrix: (Units=GPa)
#
#
# Indices 1 2 3 4 5 6 
#
# 1 82.5745 15.7182 17.1409 0.0000 0.0000 0.0000
# 2 15.7182 81.3942 9.0867 0.0000 0.0000 0.0000
# 3 17.1409 9.0867 77.9270 0.0000 0.0000 0.0000
# 4 0.0000 0.0000 0.0000 14.7033 0.0000 0.0000
# 5 0.0000 0.0000 0.0000 0.0000 24.1216 0.0000
# 6 0.0000 0.0000 0.0000 0.0000 0.0000 40.3153
#
#
#
# Elastic Compliance Matrix: (Units=1/GPa)
#
#
# Indices 1 2 3 4 5 6 
#
# 1 0.013079 -0.002234 -0.002616 0.000000 0.000000 0.000000
# 2 -0.002234 0.012829 -0.001005 0.000000 0.000000 0.000000
# 3 -0.002616 -0.001005 0.013525 0.000000 0.000000 0.000000
# 4 0.000000 0.000000 0.000000 0.068012 0.000000 0.000000
# 5 0.000000 0.000000 0.000000 0.000000 0.041457 0.000000
# 6 0.000000 0.000000 0.000000 0.000000 0.000000 0.024805
#
#
# Mechanical properties :
#
#
# Convention : Reuss Voigt Hill
#
# Bulk Modulus (GPa) = 36.06984 36.19857 36.13420
# Shear Modulus (GPa) = 25.68628 29.15803 27.42216
#
# Velocity S-wave (km/s) = 3.36525 3.58547 3.47711
# Velocity P-wave (km/s) = 5.56802 5.75331 5.66142
#
# Compressibility (1/GPa) = 0.02772399
#
# Stress axis : x y z
#
# Youngs Moduli (GPa) = 76.46113 77.94614 73.93623
#
# Poissons Ratio (x) = 0.17410 0.19344
# Poissons Ratio (y) = 0.17078 0.07428
# Poissons Ratio (z) = 0.20005 0.07831
#
# Static dielectric constant tensor:
#      x y z
#    x 1.789020 0.000000 0.000000 
#    y 0.000000 1.890170 0.000000 
#    z 0.000000 0.000000 1.859000 
# 
# From -- ./inp_files/35496.got.cif
#   From: 2010.05.17/outbox.cif.g08.bks.cpg/sg72_18_cif.got.tgz:35496.got - 2010.06.03 17:03:01.
