data_PCOD9528306
_publ_section_title
;
Structure prediction by ZEFSAII (Michael W. Deem and Ramdas Pophale) SiO2 
 PCOD9528306
Probable space group: I B A M
;
_chemical_formula_sum "Si O2"
_cell_formula_units_Z 80
_cell_length_a 26.499517
_cell_length_b 18.655914
_cell_length_c 8.575087
_cell_angle_alpha 90.000000
_cell_angle_beta 90.000000
_cell_angle_gamma 90.000000
_cell_volume 4239.289000
_symmetry_space_group_name_H-M "I B A M"
_symmetry_group_IT_number 72
_symmetry_cell_setting 'orthorhombic'
loop_
_space_group_symop_operation_xyz
x,y,z
-x,-y,z
x,-y,1/2-z
-x,y,1/2-z
-x,-y,-z
x,y,-z
-x,y,1/2+z
x,-y,1/2+z
1/2+x,1/2+y,1/2+z
1/2-x,1/2-y,1/2+z
1/2+x,1/2-y,-z
1/2-x,1/2+y,-z
1/2-x,1/2-y,1/2-z
1/2+x,1/2+y,1/2-z
1/2-x,1/2+y,z
1/2+x,1/2-y,z
loop_
_atom_site_type_symbol
_atom_site_label
_atom_site_fract_x
_atom_site_fract_y
_atom_site_fract_z
Si Si1 0.847832 0.580455 0.311540
Si Si2 0.251348 0.330625 0.312577
Si Si3 0.054564 0.669056 0.188200
Si Si4 0.846050 0.919637 0.312404
Si Si5 0.445558 0.664940 0.312124
O O1 0.844766 0.500000 0.250000
O O2 0.848363 0.578708 0.500000
O O3 0.799076 0.626562 0.263614
O O4 0.899121 0.619896 0.259007
O O5 0.252750 0.329360 0.500000
O O6 0.250000 0.250000 0.250000
O O7 0.300021 0.371988 0.249073
O O8 0.062346 0.752073 0.237228
O O9 0.000000 0.645548 0.250000
O O10 0.053502 0.668017 0.000000
O O11 0.844763 0.920141 0.500000
O O12 0.898947 0.883895 0.261159
O O13 0.841661 0.000000 0.250000
O O14 0.500000 0.641262 0.250000
O O15 0.446967 0.664127 0.500000
#
# Coordination Sequence:
#
# PCOD9528306 Si02
#       5
#    16  16  16  16  16
#     4  10  22  38  56  80 113 147 182 226 277 328
#     4  11  23  40  62  86 112 147 189 235 285 341
#     4   9  18  35  56  79 107 142 183 228 275 326
#     4  11  23  39  58  84 118 153 189 235 287 340
#     4   9  19  36  58  81 110 147 189 236 284 335
#
# _framework density 18.871089999999999
#
# number of rings (size 3 to 8) (size 9 to 14) (size 15 to 20)
#    0.000    2.000    0.000    3.000    0.000    9.600 
#    0.000    8.000    0.000    0.000    0.000    0.000 
#    0.000    0.000    0.000    0.000    0.000    0.000 
#
# Total GULP energy -223477.082490 kJ/mol
# GULP energy per Si atom -5586.927062 kJ/mol
# Density = 1.882814 g / cm^3
# Si number density = 18.871090 Si / 1000 Ang^3
#
#
#
# Elastic Constant Matrix: (Units=GPa)
#
#
# Indices 1 2 3 4 5 6 
#
# 1 211.5482 134.2041 42.9793 0.0000 0.0000 0.0000
# 2 134.2041 169.6988 35.7967 0.0000 0.0000 0.0000
# 3 42.9793 35.7967 27.7984 0.0000 0.0000 0.0000
# 4 0.0000 0.0000 0.0000 30.8982 0.0000 0.0000
# 5 0.0000 0.0000 0.0000 0.0000 32.6290 0.0000
# 6 0.0000 0.0000 0.0000 0.0000 0.0000 -20.5864
#
#
#
# Elastic Compliance Matrix: (Units=1/GPa)
#
#
# Indices 1 2 3 4 5 6 
#
# 1 0.010550 -0.006731 -0.007644 0.000000 0.000000 0.000000
# 2 -0.006731 0.012385 -0.005541 0.000000 0.000000 0.000000
# 3 -0.007644 -0.005541 0.054928 0.000000 0.000000 0.000000
# 4 0.000000 0.000000 0.000000 0.032364 0.000000 0.000000
# 5 0.000000 0.000000 0.000000 0.000000 0.030648 0.000000
# 6 0.000000 0.000000 0.000000 0.000000 0.000000 -0.048576
#
#
# Mechanical properties :
#
#
# Convention : Reuss Voigt Hill
#
# Bulk Modulus (GPa) = 26.29519 92.77840 59.53680
# Shear Modulus (GPa) = 34.52845 21.65918 28.09381
#
# Velocity S-wave (km/s) = 4.28214 3.39151 3.86258
# Velocity P-wave (km/s) = 6.19785 8.03788 7.17708
#
# Compressibility (1/GPa) = 0.03802977
#
# Stress axis : x y z
#
# Youngs Moduli (GPa) = 94.78582 80.74395 18.20578
#
# Poissons Ratio (x) = 0.54349 0.13916
# Poissons Ratio (y) = 0.63800 0.10089
# Poissons Ratio (z) = 0.72454 0.44744
#
# Static dielectric constant tensor:
#      x y z
#    x 1.636780 0.000000 0.000000 
#    y 0.000000 1.618690 0.000000 
#    z 0.000000 0.000000 1.646390 
# 
# From -- ./inp_files/7936.got.cif
#   From: 2010.05.17/outbox.cif.g08.bks.cpg/sg72_4_cif.got.tgz:7936.got - 2010.06.03 17:03:01.
