data_PCOD9528978
_publ_section_title
;
Structure prediction by ZEFSAII (Michael W. Deem and Ramdas Pophale) SiO2 
 PCOD9528978
Probable space group: I B A M
;
_chemical_formula_sum "Si O2"
_cell_formula_units_Z 104
_cell_length_a 18.390198
_cell_length_b 9.509514
_cell_length_c 25.472317
_cell_angle_alpha 90.000000
_cell_angle_beta 90.000000
_cell_angle_gamma 90.000000
_cell_volume 4454.645802
_symmetry_space_group_name_H-M "I B A M"
_symmetry_group_IT_number 72
_symmetry_cell_setting 'orthorhombic'
loop_
_space_group_symop_operation_xyz
x,y,z
-x,-y,z
x,-y,1/2-z
-x,y,1/2-z
-x,-y,-z
x,y,-z
-x,y,1/2+z
x,-y,1/2+z
1/2+x,1/2+y,1/2+z
1/2-x,1/2-y,1/2+z
1/2+x,1/2-y,-z
1/2-x,1/2+y,-z
1/2-x,1/2-y,1/2-z
1/2+x,1/2+y,1/2-z
1/2-x,1/2+y,z
1/2+x,1/2-y,z
loop_
_atom_site_type_symbol
_atom_site_label
_atom_site_fract_x
_atom_site_fract_y
_atom_site_fract_z
Si Si1 0.285985 0.195388 0.939388
Si Si2 0.936534 0.418569 0.898991
Si Si3 0.109560 0.598067 0.301186
Si Si4 0.729312 0.627550 0.210559
Si Si5 0.916492 0.127106 0.149031
Si Si6 0.156318 0.014611 0.938239
Si Si7 0.000000 0.821286 0.250000
O O1 0.357621 0.107681 0.924056
O O2 0.303315 0.361564 0.936749
O O3 0.211622 0.132675 0.916051
O O4 0.273731 0.163165 0.000000
O O5 0.926632 0.517498 0.848744
O O6 0.953134 0.260823 0.879089
O O7 0.000000 0.500000 0.930465
O O8 0.111539 0.500000 0.250000
O O9 0.193719 0.609271 0.318033
O O10 0.061533 0.728470 0.280786
O O11 0.709767 0.500000 0.250000
O O12 0.750000 0.750000 0.250000
O O13 0.665004 0.663420 0.170693
O O14 0.906862 0.006811 0.105264
O O15 0.955923 0.103850 0.203834
O O16 0.133891 0.036184 0.000000
#
# Coordination Sequence:
#
# PCOD9528978 Si02
#       7
#    16  16  16  16  16  16   8
#     4   9  19  35  57  86 119 154 198 255 311 358
#     4  11  19  31  54  85 119 154 197 246 303 370
#     4  11  18  31  52  79 110 151 194 237 286 364
#     4  11  22  37  56  84 117 153 198 251 295 359
#     4  11  21  35  56  85 117 161 200 244 306 362
#     4   9  19  37  60  89 121 155 204 258 305 356
#     4  12  19  32  55  78 122 154 206 232 306 378
#
# _framework density 23.346413999999999
#
# number of rings (size 3 to 8) (size 9 to 14) (size 15 to 20)
#    0.000    1.538    4.615    2.077    0.000    1.538 
#    0.000    0.385    0.000    1.846    0.000    3.231 
#    0.000   23.385    0.000    0.000    0.000    0.000 
#
# Total GULP energy -290076.455925 kJ/mol
# GULP energy per Si atom -5578.393383 kJ/mol
# Density = 2.329328 g / cm^3
# Si number density = 23.346414 Si / 1000 Ang^3
#
#
#
# Elastic Constant Matrix: (Units=GPa)
#
#
# Indices 1 2 3 4 5 6 
#
# 1 80.7176 1.9170 1.3395 0.0000 0.0000 0.0000
# 2 1.9170 41.2183 -3.5511 0.0000 0.0000 0.0000
# 3 1.3395 -3.5511 66.8078 0.0000 0.0000 0.0000
# 4 0.0000 0.0000 0.0000 11.7068 0.0000 0.0000
# 5 0.0000 0.0000 0.0000 0.0000 30.2633 0.0000
# 6 0.0000 0.0000 0.0000 0.0000 0.0000 29.6725
#
#
#
# Elastic Compliance Matrix: (Units=1/GPa)
#
#
# Indices 1 2 3 4 5 6 
#
# 1 0.012408 -0.000601 -0.000281 0.000000 0.000000 0.000000
# 2 -0.000601 0.024402 0.001309 0.000000 0.000000 0.000000
# 3 -0.000281 0.001309 0.015044 0.000000 0.000000 0.000000
# 4 0.000000 0.000000 0.000000 0.085420 0.000000 0.000000
# 5 0.000000 0.000000 0.000000 0.000000 0.033043 0.000000
# 6 0.000000 0.000000 0.000000 0.000000 0.000000 0.033701
#
#
# Mechanical properties :
#
#
# Convention : Reuss Voigt Hill
#
# Bulk Modulus (GPa) = 18.97266 20.90603 19.93935
# Shear Modulus (GPa) = 22.65183 26.93108 24.79146
#
# Velocity S-wave (km/s) = 3.11826 3.40007 3.26221
# Velocity P-wave (km/s) = 4.59445 4.93843 4.76954
#
# Compressibility (1/GPa) = 0.05270742
#
# Stress axis : x y z
#
# Youngs Moduli (GPa) = 80.59435 40.98060 66.47373
#
# Poissons Ratio (x) = 0.02464 0.01866
# Poissons Ratio (y) = 0.04846 -0.08702
# Poissons Ratio (z) = 0.02263 -0.05365
#
# Static dielectric constant tensor:
#      x y z
#    x 1.969860 0.000000 0.000000 
#    y 0.000000 2.049350 0.000000 
#    z 0.000000 0.000000 1.788690 
# 
# From -- ./inp_files/49092.got.cif
#   From: 2010.05.17/outbox.cif.g08.bks.cpg/sg72_25_cif.got.tgz:49092.got - 2010.06.03 17:03:01.
