data_PCOD9528982
_publ_section_title
;
Structure prediction by ZEFSAII (Michael W. Deem and Ramdas Pophale) SiO2 
 PCOD9528982
Probable space group: I B A M
;
_chemical_formula_sum "Si O2"
_cell_formula_units_Z 80
_cell_length_a 12.076334
_cell_length_b 15.473691
_cell_length_c 22.606389
_cell_angle_alpha 90.000000
_cell_angle_beta 90.000000
_cell_angle_gamma 90.000000
_cell_volume 4224.353296
_symmetry_space_group_name_H-M "I B A M"
_symmetry_group_IT_number 72
_symmetry_cell_setting 'orthorhombic'
loop_
_space_group_symop_operation_xyz
x,y,z
-x,-y,z
x,-y,1/2-z
-x,y,1/2-z
-x,-y,-z
x,y,-z
-x,y,1/2+z
x,-y,1/2+z
1/2+x,1/2+y,1/2+z
1/2-x,1/2-y,1/2+z
1/2+x,1/2-y,-z
1/2-x,1/2+y,-z
1/2-x,1/2-y,1/2-z
1/2+x,1/2+y,1/2-z
1/2-x,1/2+y,z
1/2+x,1/2-y,z
loop_
_atom_site_type_symbol
_atom_site_label
_atom_site_fract_x
_atom_site_fract_y
_atom_site_fract_z
Si Si1 0.517442 0.878595 0.679175
Si Si2 0.383165 0.448558 0.930747
Si Si3 0.646982 0.595508 0.271751
Si Si4 0.817501 0.482473 0.854051
Si Si5 0.550702 0.318013 0.663835
O O1 0.500000 0.892602 0.750000
O O2 0.429010 0.927957 0.636972
O O3 0.494475 0.778808 0.665433
O O4 0.635279 0.923935 0.665879
O O5 0.500000 0.500000 0.925034
O O6 0.279870 0.499530 0.900922
O O7 0.399150 0.358704 0.895269
O O8 0.362051 0.435584 0.000000
O O9 0.616815 0.500000 0.250000
O O10 0.761793 0.576983 0.303317
O O11 0.556173 0.625598 0.318411
O O12 0.636455 0.662175 0.217581
#
# Coordination Sequence:
#
# PCOD9528982 Si02
#       5
#    16  16  16  16  16
#     4  11  24  39  58  98 137 165 197 255 330 393
#     4  11  23  43  67  88 116 164 221 267 307 367
#     4  11  18  34  60  88 125 157 197 249 320 378
#     4  11  23  40  61  90 130 170 204 248 319 393
#     4  11  21  36  61  96 125 155 208 261 313 372
#
# _framework density 18.937809999999999
#
# number of rings (size 3 to 8) (size 9 to 14) (size 15 to 20)
#    0.000    1.000    6.000    3.600    0.000    2.400 
#    0.000    4.000    0.000    0.000    0.000    0.000 
#    0.000    0.000    0.000    0.000    0.000    0.000 
#
# Total GULP energy -222762.655701 kJ/mol
# GULP energy per Si atom -5569.066393 kJ/mol
# Density = 1.889471 g / cm^3
# Si number density = 18.937810 Si / 1000 Ang^3
#
#
#
# Elastic Constant Matrix: (Units=GPa)
#
#
# Indices 1 2 3 4 5 6 
#
# 1 98.6513 14.0475 41.6710 0.0000 0.0000 0.0000
# 2 14.0475 91.4457 27.5304 0.0000 0.0000 0.0000
# 3 41.6710 27.5304 114.9352 0.0000 0.0000 0.0000
# 4 0.0000 0.0000 0.0000 8.6988 0.0000 0.0000
# 5 0.0000 0.0000 0.0000 0.0000 21.1306 0.0000
# 6 0.0000 0.0000 0.0000 0.0000 0.0000 22.7133
#
#
#
# Elastic Compliance Matrix: (Units=1/GPa)
#
#
# Indices 1 2 3 4 5 6 
#
# 1 0.011998 -0.000575 -0.004212 0.000000 0.000000 0.000000
# 2 -0.000575 0.011813 -0.002621 0.000000 0.000000 0.000000
# 3 -0.004212 -0.002621 0.010856 0.000000 0.000000 0.000000
# 4 0.000000 0.000000 0.000000 0.114959 0.000000 0.000000
# 5 0.000000 0.000000 0.000000 0.000000 0.047325 0.000000
# 6 0.000000 0.000000 0.000000 0.000000 0.000000 0.044027
#
#
# Mechanical properties :
#
#
# Convention : Reuss Voigt Hill
#
# Bulk Modulus (GPa) = 50.37840 52.39224 51.38532
# Shear Modulus (GPa) = 19.05415 25.29408 22.17412
#
# Velocity S-wave (km/s) = 3.17542 3.65860 3.42554
# Velocity P-wave (km/s) = 6.33278 6.75075 6.54511
#
# Compressibility (1/GPa) = 0.01984978
#
# Stress axis : x y z
#
# Youngs Moduli (GPa) = 83.34813 84.65349 92.11857
#
# Poissons Ratio (x) = 0.04867 0.38803
# Poissons Ratio (y) = 0.04792 0.24145
# Poissons Ratio (z) = 0.35108 0.22188
#
# Static dielectric constant tensor:
#      x y z
#    x 1.818530 0.000000 0.000000 
#    y 0.000000 1.677790 0.000000 
#    z 0.000000 0.000000 1.665960 
# 
# From -- ./inp_files/43110.got.cif
#   From: 2010.05.17/outbox.cif.g08.bks.cpg/sg72_22_cif.got.tgz:43110.got - 2010.06.03 17:03:01.
