data_PCOD9528415
_publ_section_title
;
Structure prediction by ZEFSAII (Michael W. Deem and Ramdas Pophale) SiO2 
 PCOD9528415
Probable space group: I B A M
;
_chemical_formula_sum "Si O2"
_cell_formula_units_Z 64
_cell_length_a 19.617873
_cell_length_b 10.061888
_cell_length_c 13.923393
_cell_angle_alpha 90.000000
_cell_angle_beta 90.000000
_cell_angle_gamma 90.000000
_cell_volume 2748.378100
_symmetry_space_group_name_H-M "I B A M"
_symmetry_group_IT_number 72
_symmetry_cell_setting 'orthorhombic'
loop_
_space_group_symop_operation_xyz
x,y,z
-x,-y,z
x,-y,1/2-z
-x,y,1/2-z
-x,-y,-z
x,y,-z
-x,y,1/2+z
x,-y,1/2+z
1/2+x,1/2+y,1/2+z
1/2-x,1/2-y,1/2+z
1/2+x,1/2-y,-z
1/2-x,1/2+y,-z
1/2-x,1/2-y,1/2-z
1/2+x,1/2+y,1/2-z
1/2-x,1/2+y,z
1/2+x,1/2-y,z
loop_
_atom_site_type_symbol
_atom_site_label
_atom_site_fract_x
_atom_site_fract_y
_atom_site_fract_z
Si Si1 0.439804 0.080817 0.606659
Si Si2 0.158983 0.861666 0.205572
Si Si3 0.484359 0.649566 0.361923
Si Si4 0.698470 0.825593 0.615890
O O1 0.434110 0.024336 0.500000
O O2 0.466310 0.233294 0.601592
O O3 0.362699 0.073124 0.641338
O O4 0.500000 0.000000 0.654778
O O5 0.096030 0.812278 0.139214
O O6 0.226165 0.875143 0.140389
O O7 0.181484 0.784679 0.302873
O O8 0.134626 0.000000 0.250000
O O9 0.500000 0.500000 0.398219
O O10 0.500000 0.648338 0.250000
O O11 0.692964 0.793371 0.500000
#
# Coordination Sequence:
#
# PCOD9528415 Si02
#       4
#    16  16  16  16
#     4  10  22  40  62  91 125 163 210 261 314 375
#     4  11  22  40  64  91 123 165 209 260 321 377
#     4  11  20  39  64  91 123 156 207 262 308 377
#     4  10  23  41  60  90 128 165 207 260 314 377
#
# _framework density 23.286460000000002
#
# number of rings (size 3 to 8) (size 9 to 14) (size 15 to 20)
#    0.000    1.500    5.000    0.000    0.000    7.000 
#    0.000    2.500    0.000    0.750    0.000    0.000 
#    0.000    1.000    0.000    0.000    0.000    0.000 
#
# Total GULP energy -178137.160182 kJ/mol
# GULP energy per Si atom -5566.786256 kJ/mol
# Density = 2.323346 g / cm^3
# Si number density = 23.286460 Si / 1000 Ang^3
#
#
#
# Elastic Constant Matrix: (Units=GPa)
#
#
# Indices 1 2 3 4 5 6 
#
# 1 224.5643 2.7819 27.0970 0.0000 0.0000 0.0000
# 2 2.7819 23.7776 3.6027 0.0000 0.0000 0.0000
# 3 27.0970 3.6027 135.6203 0.0000 0.0000 0.0000
# 4 0.0000 0.0000 0.0000 12.0049 0.0000 0.0000
# 5 0.0000 0.0000 0.0000 0.0000 -15.3418 0.0000
# 6 0.0000 0.0000 0.0000 0.0000 0.0000 4.1584
#
#
#
# Elastic Compliance Matrix: (Units=1/GPa)
#
#
# Indices 1 2 3 4 5 6 
#
# 1 0.004567 -0.000398 -0.000902 0.000000 0.000000 0.000000
# 2 -0.000398 0.042261 -0.001043 0.000000 0.000000 0.000000
# 3 -0.000902 -0.001043 0.007581 0.000000 0.000000 0.000000
# 4 0.000000 0.000000 0.000000 0.083299 0.000000 0.000000
# 5 0.000000 0.000000 0.000000 0.000000 -0.065182 0.000000
# 6 0.000000 0.000000 0.000000 0.000000 0.000000 0.240477
#
#
# Mechanical properties :
#
#
# Convention : Reuss Voigt Hill
#
# Bulk Modulus (GPa) = 20.11115 50.10283 35.10699
# Shear Modulus (GPa) = 14.95822 23.52968 19.24395
#
# Velocity S-wave (km/s) = 2.53723 3.18220 2.87784
# Velocity P-wave (km/s) = 4.15193 5.92152 5.11385
#
# Compressibility (1/GPa) = 0.04972367
#
# Stress axis : x y z
#
# Youngs Moduli (GPa) = 218.97077 23.66254 131.90115
#
# Poissons Ratio (x) = 0.00941 0.11896
# Poissons Ratio (y) = 0.08707 0.13760
# Poissons Ratio (z) = 0.19749 0.02468
#
# Static dielectric constant tensor:
#      x y z
#    x 2.001120 0.000000 0.000000 
#    y 0.000000 1.944080 0.000000 
#    z 0.000000 0.000000 1.877660 
# 
# From -- ./inp_files/19704.got.cif
#   From: 2010.05.17/outbox.cif.g08.bks.cpg/sg72_10_cif.got.tgz:19704.got - 2010.06.03 17:03:01.
