data_PCOD9528152
_publ_section_title
;
Structure prediction by ZEFSAII (Michael W. Deem and Ramdas Pophale) SiO2 
 PCOD9528152
Probable space group: I B A M
;
_chemical_formula_sum "Si O2"
_cell_formula_units_Z 104
_cell_length_a 20.770913
_cell_length_b 8.965814
_cell_length_c 27.244044
_cell_angle_alpha 90.000000
_cell_angle_beta 90.000000
_cell_angle_gamma 90.000000
_cell_volume 5073.607710
_symmetry_space_group_name_H-M "I B A M"
_symmetry_group_IT_number 72
_symmetry_cell_setting 'orthorhombic'
loop_
_space_group_symop_operation_xyz
x,y,z
-x,-y,z
x,-y,1/2-z
-x,y,1/2-z
-x,-y,-z
x,y,-z
-x,y,1/2+z
x,-y,1/2+z
1/2+x,1/2+y,1/2+z
1/2-x,1/2-y,1/2+z
1/2+x,1/2-y,-z
1/2-x,1/2+y,-z
1/2-x,1/2-y,1/2-z
1/2+x,1/2+y,1/2-z
1/2-x,1/2+y,z
1/2+x,1/2-y,z
loop_
_atom_site_type_symbol
_atom_site_label
_atom_site_fract_x
_atom_site_fract_y
_atom_site_fract_z
Si Si1 0.455744 0.854755 0.102601
Si Si2 0.976352 0.199972 0.500000
Si Si3 0.978613 0.324904 0.801982
Si Si4 0.667053 0.062535 0.944427
Si Si5 0.797083 0.773657 0.422974
Si Si6 0.389771 0.596238 0.500000
Si Si7 0.739090 0.500000 0.250000
Si Si8 0.174110 0.731827 0.191006
O O1 0.481696 0.769654 0.150484
O O2 0.382655 0.911372 0.100087
O O3 0.500000 0.000000 0.097013
O O4 0.460707 0.762943 0.053228
O O5 0.054165 0.218316 0.500000
O O6 0.934325 0.048573 0.500000
O O7 0.902108 0.304797 0.806983
O O8 0.000000 0.500000 0.800696
O O9 0.000000 0.258287 0.750000
O O10 0.726228 0.172662 0.936607
O O11 0.690679 0.893150 0.941659
O O12 0.640624 0.085324 0.000000
O O13 0.845843 0.881713 0.452290
O O14 0.808004 0.769844 0.364947
O O15 0.785017 0.408414 0.212224
O O16 0.695396 0.375324 0.276762
#
# Coordination Sequence:
#
# PCOD9528152 Si02
#       8
#    16   8  16  16  16   8   8  16
#     4  11  23  39  67  95 128 173 229 278 333 406
#     4  11  23  39  63  92 128 176 218 275 330 410
#     4  10  21  40  68  95 130 176 228 280 330 406
#     4  12  24  40  64  97 135 179 224 277 337 401
#     4  12  25  42  68  95 140 176 221 274 342 411
#     4  11  24  41  61  90 134 175 216 268 336 397
#     4  10  24  44  72 102 136 170 224 292 340 410
#     4  11  23  45  71 103 133 177 227 281 352 406
#
# _framework density 20.498234
#
# number of rings (size 3 to 8) (size 9 to 14) (size 15 to 20)
#    0.000    0.923    2.308    5.769    2.154    2.462 
#    2.769    0.385    0.000    0.000    0.000    0.000 
#    0.000    0.000    0.000    0.000    0.000    0.000 
#
# Total GULP energy -290227.307267 kJ/mol
# GULP energy per Si atom -5581.294371 kJ/mol
# Density = 2.045158 g / cm^3
# Si number density = 20.498234 Si / 1000 Ang^3
#
#
#
# Elastic Constant Matrix: (Units=GPa)
#
#
# Indices 1 2 3 4 5 6 
#
# 1 143.9812 48.9039 55.6982 0.0000 0.0000 0.0000
# 2 48.9039 36.1401 45.1874 0.0000 0.0000 0.0000
# 3 55.6982 45.1874 166.1107 0.0000 0.0000 0.0000
# 4 0.0000 0.0000 0.0000 24.7286 0.0000 0.0000
# 5 0.0000 0.0000 0.0000 0.0000 35.3928 0.0000
# 6 0.0000 0.0000 0.0000 0.0000 0.0000 7.1863
#
#
#
# Elastic Compliance Matrix: (Units=1/GPa)
#
#
# Indices 1 2 3 4 5 6 
#
# 1 0.012897 -0.018254 0.000641 0.000000 0.000000 0.000000
# 2 -0.018254 0.067768 -0.012314 0.000000 0.000000 0.000000
# 3 0.000641 -0.012314 0.009155 0.000000 0.000000 0.000000
# 4 0.000000 0.000000 0.000000 0.040439 0.000000 0.000000
# 5 0.000000 0.000000 0.000000 0.000000 0.028254 0.000000
# 6 0.000000 0.000000 0.000000 0.000000 0.000000 0.139153
#
#
# Mechanical properties :
#
#
# Convention : Reuss Voigt Hill
#
# Bulk Modulus (GPa) = 33.37124 71.75680 52.56402
# Shear Modulus (GPa) = 13.60507 26.55770 20.08138
#
# Velocity S-wave (km/s) = 2.57907 3.60336 3.13335
# Velocity P-wave (km/s) = 5.01839 7.23841 6.22811
#
# Compressibility (1/GPa) = 0.02996592
#
# Stress axis : x y z
#
# Youngs Moduli (GPa) = 77.53486 14.75620 109.22959
#
# Poissons Ratio (x) = 0.26936 -0.07002
# Poissons Ratio (y) = 1.41532 1.34509
# Poissons Ratio (z) = -0.04971 0.18171
#
# Static dielectric constant tensor:
#      x y z
#    x 1.917290 0.000000 0.000000 
#    y 0.000000 1.773660 0.000000 
#    z 0.000000 0.000000 1.758790 
# 
# From -- ./inp_files/49458.got.cif
#   From: 2010.05.17/outbox.cif.g08.bks.cpg/sg72_25_cif.got.tgz:49458.got - 2010.06.03 17:03:01.
