data_PCOD9528915
_publ_section_title
;
Structure prediction by ZEFSAII (Michael W. Deem and Ramdas Pophale) SiO2 
 PCOD9528915
Probable space group: I B A M
;
_chemical_formula_sum "Si O2"
_cell_formula_units_Z 64
_cell_length_a 8.015260
_cell_length_b 22.039279
_cell_length_c 16.511763
_cell_angle_alpha 90.000000
_cell_angle_beta 90.000000
_cell_angle_gamma 90.000000
_cell_volume 2916.812038
_symmetry_space_group_name_H-M "I B A M"
_symmetry_group_IT_number 72
_symmetry_cell_setting 'orthorhombic'
loop_
_space_group_symop_operation_xyz
x,y,z
-x,-y,z
x,-y,1/2-z
-x,y,1/2-z
-x,-y,-z
x,y,-z
-x,y,1/2+z
x,-y,1/2+z
1/2+x,1/2+y,1/2+z
1/2-x,1/2-y,1/2+z
1/2+x,1/2-y,-z
1/2-x,1/2+y,-z
1/2-x,1/2-y,1/2-z
1/2+x,1/2+y,1/2-z
1/2-x,1/2+y,z
1/2+x,1/2-y,z
loop_
_atom_site_type_symbol
_atom_site_label
_atom_site_fract_x
_atom_site_fract_y
_atom_site_fract_z
Si Si1 0.991800 0.650871 0.839916
Si Si2 0.171280 0.527039 0.159188
Si Si3 0.468203 0.656543 0.000000
Si Si4 0.105287 0.284356 0.500000
Si Si5 0.688537 0.419626 0.409402
O O1 0.134696 0.598137 0.841676
O O2 0.018499 0.693623 0.916922
O O3 0.000000 0.679006 0.750000
O O4 0.813893 0.617038 0.851650
O O5 0.179593 0.500000 0.250000
O O6 0.313994 0.490066 0.113851
O O7 0.000000 0.500000 0.121827
O O8 0.599828 0.711847 0.000000
O O9 0.513676 0.614620 0.077287
O O10 0.288096 0.685916 0.000000
O O11 0.763508 0.415707 0.500000
#
# Coordination Sequence:
#
# PCOD9528915 Si02
#       5
#    16  16   8   8  16
#     4  11  20  35  63 101 126 164 212 256 322 379
#     4   9  15  29  56  93 127 154 205 253 294 380
#     4  10  24  45  62  87 121 168 228 266 321 382
#     4  12  24  43  66  85 127 168 214 284 317 374
#     4   9  18  35  61  86 128 164 210 255 315 372
#
# _framework density 21.941763999999999
#
# number of rings (size 3 to 8) (size 9 to 14) (size 15 to 20)
#    0.750    1.250    6.250    1.500    1.750    1.500 
#    0.000    8.750    0.000    1.500    0.000    0.000 
#    0.000    0.000    0.000    0.000    0.000    0.000 
#
# Total GULP energy -178192.197323 kJ/mol
# GULP energy per Si atom -5568.506166 kJ/mol
# Density = 2.189182 g / cm^3
# Si number density = 21.941764 Si / 1000 Ang^3
#
#
#
# Elastic Constant Matrix: (Units=GPa)
#
#
# Indices 1 2 3 4 5 6 
#
# 1 85.4534 10.7950 8.6909 0.0000 0.0000 0.0000
# 2 10.7950 92.8274 21.9932 0.0000 0.0000 0.0000
# 3 8.6909 21.9932 110.6461 -0.0001 -0.0001 0.0000
# 4 0.0000 0.0000 -0.0001 16.6378 0.0000 0.0000
# 5 0.0000 0.0000 -0.0001 0.0000 -113.0704 0.0000
# 6 0.0000 0.0000 0.0000 0.0000 0.0000 29.3323
#
#
#
# Elastic Compliance Matrix: (Units=1/GPa)
#
#
# Indices 1 2 3 4 5 6 
#
# 1 0.011927 -0.001223 -0.000694 0.000000 0.000000 0.000000
# 2 -0.001223 0.011430 -0.002176 0.000000 0.000000 0.000000
# 3 -0.000694 -0.002176 0.009525 0.000000 0.000000 0.000000
# 4 0.000000 0.000000 0.000000 0.060104 0.000000 0.000000
# 5 0.000000 0.000000 0.000000 0.000000 -0.008844 0.000000
# 6 0.000000 0.000000 0.000000 0.000000 0.000000 0.034092
#
#
# Mechanical properties :
#
#
# Convention : Reuss Voigt Hill
#
# Bulk Modulus (GPa) = 40.48974 41.32057 40.90515
# Shear Modulus (GPa) = 37.13271 3.07647 20.10459
#
# Velocity S-wave (km/s) = 4.11826 1.18539 3.03028
# Velocity P-wave (km/s) = 6.41145 4.55481 5.56116
#
# Compressibility (1/GPa) = 0.02469762
#
# Stress axis : x y z
#
# Youngs Moduli (GPa) = 83.84123 87.48584 104.98854
#
# Poissons Ratio (x) = 0.10696 0.07284
# Poissons Ratio (y) = 0.10251 0.22846
# Poissons Ratio (z) = 0.05817 0.19037
#
# Static dielectric constant tensor:
#      x y z
#    x 1.866550 0.000000 0.000000 
#    y 0.000000 1.810950 0.000000 
#    z 0.000000 0.000000 1.820160 
# 
# From -- ./inp_files/18712.got.cif
#   From: 2010.05.17/outbox.cif.g08.bks.cpg/sg72_10_cif.got.tgz:18712.got - 2010.06.03 17:03:01.
