data_PCOD9528818
_publ_section_title
;
Structure prediction by ZEFSAII (Michael W. Deem and Ramdas Pophale) SiO2 
 PCOD9528818
Probable space group: I B A M
;
_chemical_formula_sum "Si O2"
_cell_formula_units_Z 84
_cell_length_a 23.766146
_cell_length_b 12.048295
_cell_length_c 14.772873
_cell_angle_alpha 90.000000
_cell_angle_beta 90.000000
_cell_angle_gamma 90.000000
_cell_volume 4230.087176
_symmetry_space_group_name_H-M "I B A M"
_symmetry_group_IT_number 72
_symmetry_cell_setting 'orthorhombic'
loop_
_space_group_symop_operation_xyz
x,y,z
-x,-y,z
x,-y,1/2-z
-x,y,1/2-z
-x,-y,-z
x,y,-z
-x,y,1/2+z
x,-y,1/2+z
1/2+x,1/2+y,1/2+z
1/2-x,1/2-y,1/2+z
1/2+x,1/2-y,-z
1/2-x,1/2+y,-z
1/2-x,1/2-y,1/2-z
1/2+x,1/2+y,1/2-z
1/2-x,1/2+y,z
1/2+x,1/2-y,z
loop_
_atom_site_type_symbol
_atom_site_label
_atom_site_fract_x
_atom_site_fract_y
_atom_site_fract_z
Si Si1 0.500000 0.500000 0.500000
Si Si2 0.712591 0.466283 0.896959
Si Si3 0.829991 0.412685 0.169812
Si Si4 0.168656 0.158525 0.723324
Si Si5 0.042236 0.597094 0.892180
Si Si6 0.460169 0.348676 0.832163
O O1 0.473525 0.581096 0.579359
O O2 0.778421 0.436498 0.896776
O O3 0.703705 0.585643 0.849054
O O4 0.683442 0.382944 0.824451
O O5 0.690440 0.463026 0.000000
O O6 0.823911 0.500000 0.250000
O O7 0.822363 0.288592 0.208400
O O8 0.892357 0.426260 0.129673
O O9 0.103869 0.135545 0.699477
O O10 0.029709 0.717985 0.852052
O O11 0.000000 0.500000 0.859985
O O12 0.035805 0.604664 0.000000
O O13 0.500000 0.379678 0.750000
#
# Coordination Sequence:
#
# PCOD9528818 Si02
#       6
#     4  16  16  16  16  16
#     4  12  26  44  70  98 136 180 226 266 330 402
#     4  11  24  42  69  96 130 179 222 274 328 401
#     4  11  23  43  69  96 135 173 215 280 337 396
#     4  10  25  45  65  98 136 169 222 277 335 394
#     4  10  23  44  68 100 133 170 222 274 333 402
#     4  11  26  43  69  99 135 178 219 276 334 395
#
# _framework density 19.857747
#
# number of rings (size 3 to 8) (size 9 to 14) (size 15 to 20)
#    0.000    1.333    2.857    1.429   12.000    1.524 
#    0.000    0.952    0.000    0.000    0.000    0.000 
#    0.000    0.000    0.000    0.000    0.000    0.000 
#
# Total GULP energy -234193.634311 kJ/mol
# GULP energy per Si atom -5576.038912 kJ/mol
# Density = 1.981255 g / cm^3
# Si number density = 19.857747 Si / 1000 Ang^3
#
#
#
# Elastic Constant Matrix: (Units=GPa)
#
#
# Indices 1 2 3 4 5 6 
#
# 1 109.0248 83.1511 63.0162 0.0000 0.0000 0.0000
# 2 83.1511 130.4307 54.0011 0.0000 0.0000 0.0000
# 3 63.0162 54.0011 184.9325 0.0000 0.0000 0.0000
# 4 0.0000 0.0000 0.0000 49.7962 0.0000 0.0000
# 5 0.0000 0.0000 0.0000 0.0000 14.5089 0.0000
# 6 0.0000 0.0000 0.0000 0.0000 0.0000 31.1821
#
#
#
# Elastic Compliance Matrix: (Units=1/GPa)
#
#
# Indices 1 2 3 4 5 6 
#
# 1 0.019613 -0.011075 -0.003449 0.000000 0.000000 0.000000
# 2 -0.011075 0.014976 -0.000599 0.000000 0.000000 0.000000
# 3 -0.003449 -0.000599 0.006758 0.000000 0.000000 0.000000
# 4 0.000000 0.000000 0.000000 0.020082 0.000000 0.000000
# 5 0.000000 0.000000 0.000000 0.000000 0.068923 0.000000
# 6 0.000000 0.000000 0.000000 0.000000 0.000000 0.032070
#
#
# Mechanical properties :
#
#
# Convention : Reuss Voigt Hill
#
# Bulk Modulus (GPa) = 90.09738 91.63608 90.86673
# Shear Modulus (GPa) = 25.46255 34.04543 29.75399
#
# Velocity S-wave (km/s) = 3.58473 4.14510 3.87506
# Velocity P-wave (km/s) = 7.91225 8.31599 8.11663
#
# Compressibility (1/GPa) = 0.01109910
#
# Stress axis : x y z
#
# Youngs Moduli (GPa) = 50.98739 66.77553 147.98275
#
# Poissons Ratio (x) = 0.73956 0.51040
# Poissons Ratio (y) = 0.56470 0.08864
# Poissons Ratio (z) = 0.17586 0.04000
#
# Static dielectric constant tensor:
#      x y z
#    x 1.741440 0.000000 0.000000 
#    y 0.000000 1.700710 0.000000 
#    z 0.000000 0.000000 1.663370 
# 
# From -- ./inp_files/25022.got.cif
#   From: 2010.05.17/outbox.cif.g08.bks.cpg/sg72_13_cif.got.tgz:25022.got - 2010.06.03 17:03:01.
