data_PCOD9528048
_publ_section_title
;
Structure prediction by ZEFSAII (Michael W. Deem and Ramdas Pophale) SiO2 
 PCOD9528048
Probable space group: I B A M
;
_chemical_formula_sum "Si O2"
_cell_formula_units_Z 96
_cell_length_a 20.792039
_cell_length_b 13.575209
_cell_length_c 15.127456
_cell_angle_alpha 90.000000
_cell_angle_beta 90.000000
_cell_angle_gamma 90.000000
_cell_volume 4269.819380
_symmetry_space_group_name_H-M "I B A M"
_symmetry_group_IT_number 72
_symmetry_cell_setting 'orthorhombic'
loop_
_space_group_symop_operation_xyz
x,y,z
-x,-y,z
x,-y,1/2-z
-x,y,1/2-z
-x,-y,-z
x,y,-z
-x,y,1/2+z
x,-y,1/2+z
1/2+x,1/2+y,1/2+z
1/2-x,1/2-y,1/2+z
1/2+x,1/2-y,-z
1/2-x,1/2+y,-z
1/2-x,1/2-y,1/2-z
1/2+x,1/2+y,1/2-z
1/2-x,1/2+y,z
1/2+x,1/2-y,z
loop_
_atom_site_type_symbol
_atom_site_label
_atom_site_fract_x
_atom_site_fract_y
_atom_site_fract_z
Si Si1 0.636910 0.232985 0.240400
Si Si2 0.516453 0.228411 0.894870
Si Si3 0.181700 0.400879 0.903565
Si Si4 0.403725 0.907986 0.602936
Si Si5 0.944797 0.929134 0.394422
Si Si6 0.308478 0.431271 0.174656
O O1 0.572518 0.241176 0.177931
O O2 0.683166 0.180522 0.171127
O O3 0.627527 0.159256 0.322228
O O4 0.669361 0.329774 0.279545
O O5 0.479184 0.123229 0.887632
O O6 0.464845 0.316019 0.875386
O O7 0.534433 0.240102 0.000000
O O8 0.127038 0.483564 0.884829
O O9 0.255047 0.436407 0.900736
O O10 0.166564 0.360614 0.000000
O O11 0.388369 0.881723 0.500000
O O12 0.942937 0.935670 0.500000
O O13 0.877216 0.967126 0.359940
O O14 0.000000 0.000000 0.359542
O O15 0.280622 0.500000 0.250000
#
# Coordination Sequence:
#
# PCOD9528048 Si02
#       6
#    16  16  16  16  16  16
#     4  12  23  41  70  99 136 176 231 287 352 416
#     4  10  21  39  65 102 139 177 225 285 350 417
#     4  11  26  47  67  95 133 183 236 288 343 419
#     4  10  22  41  68  98 137 178 228 284 350 422
#     4  10  21  39  64  94 132 176 223 278 344 410
#     4  12  25  41  65  96 137 176 229 285 349 412
#
# _framework density 22.483385999999999
#
# number of rings (size 3 to 8) (size 9 to 14) (size 15 to 20)
#    0.000    1.167    1.667    4.500    0.000    3.000 
#    0.000    8.333    0.000    0.000    0.000    0.000 
#    0.000    0.000    0.000    0.000    0.000    0.000 
#
# Total GULP energy -267781.786319 kJ/mol
# GULP energy per Si atom -5578.787215 kJ/mol
# Density = 2.243221 g / cm^3
# Si number density = 22.483386 Si / 1000 Ang^3
#
#
#
# Elastic Constant Matrix: (Units=GPa)
#
#
# Indices 1 2 3 4 5 6 
#
# 1 91.5616 13.4562 10.2984 0.0000 0.0000 0.0000
# 2 13.4562 21.1728 13.8501 0.0000 0.0000 0.0000
# 3 10.2984 13.8501 88.0381 0.0000 0.0000 0.0000
# 4 0.0000 0.0000 0.0000 12.8164 0.0000 0.0000
# 5 0.0000 0.0000 0.0000 0.0000 49.2775 0.0000
# 6 0.0000 0.0000 0.0000 0.0000 0.0000 -0.8743
#
#
#
# Elastic Compliance Matrix: (Units=1/GPa)
#
#
# Indices 1 2 3 4 5 6 
#
# 1 0.012051 -0.007510 -0.000228 0.000000 0.000000 0.000000
# 2 -0.007510 0.057328 -0.008140 0.000000 0.000000 0.000000
# 3 -0.000228 -0.008140 0.012666 0.000000 0.000000 0.000000
# 4 0.000000 0.000000 0.000000 0.078025 0.000000 0.000000
# 5 0.000000 0.000000 0.000000 0.000000 0.020293 0.000000
# 6 0.000000 0.000000 0.000000 0.000000 0.000000 -1.143714
#
#
# Mechanical properties :
#
#
# Convention : Reuss Voigt Hill
#
# Bulk Modulus (GPa) = 19.88519 30.66466 25.27493
# Shear Modulus (GPa) = -5.46549 23.12178 8.82815
#
# Velocity S-wave (km/s) = -1.56083 3.21034 1.98369
# Velocity P-wave (km/s) = 2.36967 5.23547 4.06359
#
# Compressibility (1/GPa) = 0.05028868
#
# Stress axis : x y z
#
# Youngs Moduli (GPa) = 82.98131 17.44344 78.95113
#
# Poissons Ratio (x) = 0.13099 0.01802
# Poissons Ratio (y) = 0.62315 0.64269
# Poissons Ratio (z) = 0.01894 0.14200
#
# Static dielectric constant tensor:
#      x y z
#    x 1.904560 0.000000 0.000000 
#    y 0.000000 1.873970 0.000000 
#    z 0.000000 0.000000 1.801220 
# 
# From -- ./inp_files/24147.got.cif
#   From: 2010.05.17/outbox.cif.g08.bks.cpg/sg72_13_cif.got.tgz:24147.got - 2010.06.03 17:03:01.
