data_PCOD9528618
_publ_section_title
;
Structure prediction by ZEFSAII (Michael W. Deem and Ramdas Pophale) SiO2 
 PCOD9528618
Probable space group: I B A M
;
_chemical_formula_sum "Si O2"
_cell_formula_units_Z 72
_cell_length_a 9.270311
_cell_length_b 24.312920
_cell_length_c 14.172602
_cell_angle_alpha 90.000000
_cell_angle_beta 90.000000
_cell_angle_gamma 90.000000
_cell_volume 3194.339093
_symmetry_space_group_name_H-M "I B A M"
_symmetry_group_IT_number 72
_symmetry_cell_setting 'orthorhombic'
loop_
_space_group_symop_operation_xyz
x,y,z
-x,-y,z
x,-y,1/2-z
-x,y,1/2-z
-x,-y,-z
x,y,-z
-x,y,1/2+z
x,-y,1/2+z
1/2+x,1/2+y,1/2+z
1/2-x,1/2-y,1/2+z
1/2+x,1/2-y,-z
1/2-x,1/2+y,-z
1/2-x,1/2-y,1/2-z
1/2+x,1/2+y,1/2-z
1/2-x,1/2+y,z
1/2+x,1/2-y,z
loop_
_atom_site_type_symbol
_atom_site_label
_atom_site_fract_x
_atom_site_fract_y
_atom_site_fract_z
Si Si1 0.190136 0.367461 0.678066
Si Si2 0.494323 0.322805 0.609133
Si Si3 0.139065 0.070566 0.313232
Si Si4 0.744338 0.980517 0.500000
Si Si5 0.000000 0.724005 0.750000
Si Si6 0.449062 0.087370 0.000000
O O1 0.338203 0.349840 0.627821
O O2 0.225730 0.420413 0.743015
O O3 0.134635 0.316709 0.739932
O O4 0.075259 0.379314 0.596133
O O5 0.520951 0.315452 0.500000
O O6 0.604643 0.367764 0.649803
O O7 0.498971 0.265150 0.662119
O O8 0.168541 0.033101 0.404180
O O9 0.000000 0.056067 0.250000
O O10 0.604215 0.941034 0.500000
O O11 0.678583 0.041478 0.500000
#
# Coordination Sequence:
#
# PCOD9528618 Si02
#       6
#    16  16  16   8   8   8
#     4  11  23  44  61  97 139 176 230 284 346 418
#     4  11  22  39  64  97 134 175 226 283 339 419
#     4  10  22  43  72 100 140 176 228 297 347 422
#     4  11  24  47  72 104 131 184 238 284 367 409
#     4  12  24  40  64  99 135 190 220 282 358 410
#     4  11  26  45  72  96 137 183 232 298 339 427
#
# _framework density 22.539874000000001
#
# number of rings (size 3 to 8) (size 9 to 14) (size 15 to 20)
#    0.000    1.111    5.556    2.000    1.556    0.889 
#    2.000   14.444    0.000    0.000    0.000    0.000 
#    0.000    0.000    0.000    0.000    0.000    0.000 
#
# Total GULP energy -201486.684562 kJ/mol
# GULP energy per Si atom -5596.852349 kJ/mol
# Density = 2.248857 g / cm^3
# Si number density = 22.539874 Si / 1000 Ang^3
#
#
#
# Elastic Constant Matrix: (Units=GPa)
#
#
# Indices 1 2 3 4 5 6 
#
# 1 52.3077 14.3610 29.8350 0.0000 0.0000 0.0000
# 2 14.3610 87.3364 44.1731 0.0000 0.0000 0.0000
# 3 29.8350 44.1731 164.5171 0.0001 0.0000 0.0000
# 4 0.0000 0.0000 0.0001 28.1219 0.0000 0.0000
# 5 0.0000 0.0000 0.0000 0.0000 30.3722 0.0000
# 6 0.0000 0.0000 0.0000 0.0000 0.0000 -20.1702
#
#
#
# Elastic Compliance Matrix: (Units=1/GPa)
#
#
# Indices 1 2 3 4 5 6 
#
# 1 0.021569 -0.001815 -0.003424 0.000000 0.000000 0.000000
# 2 -0.001815 0.013402 -0.003269 0.000000 0.000000 0.000000
# 3 -0.003424 -0.003269 0.007577 0.000000 0.000000 0.000000
# 4 0.000000 0.000000 0.000000 0.035559 0.000000 0.000000
# 5 0.000000 0.000000 0.000000 0.000000 0.032925 0.000000
# 6 0.000000 0.000000 0.000000 0.000000 0.000000 -0.049578
#
#
# Mechanical properties :
#
#
# Convention : Reuss Voigt Hill
#
# Bulk Modulus (GPa) = 39.16733 53.43326 46.30029
# Shear Modulus (GPa) = 57.48345 22.05091 39.76718
#
# Velocity S-wave (km/s) = 5.05553 3.13118 4.20492
# Velocity P-wave (km/s) = 7.17582 6.06877 6.64539
#
# Compressibility (1/GPa) = 0.02553148
#
# Stress axis : x y z
#
# Youngs Moduli (GPa) = 46.36288 74.61599 131.97477
#
# Poissons Ratio (x) = 0.13541 0.45191
# Poissons Ratio (y) = 0.08414 0.43147
# Poissons Ratio (z) = 0.15876 0.24395
#
# Static dielectric constant tensor:
#      x y z
#    x 1.928570 0.000000 0.000000 
#    y 0.000000 1.811430 0.000000 
#    z 0.000000 0.000000 1.825490 
# 
# From -- ./inp_files/18943.got.cif
#   From: 2010.05.17/outbox.cif.g08.bks.cpg/sg72_10_cif.got.tgz:18943.got - 2010.06.03 17:03:01.
