data_PCOD9528475
_publ_section_title
;
Structure prediction by ZEFSAII (Michael W. Deem and Ramdas Pophale) SiO2 
 PCOD9528475
Probable space group: I B A M
;
_chemical_formula_sum "Si O2"
_cell_formula_units_Z 60
_cell_length_a 24.368954
_cell_length_b 5.343640
_cell_length_c 19.506894
_cell_angle_alpha 90.000000
_cell_angle_beta 90.000000
_cell_angle_gamma 90.000000
_cell_volume 2540.166618
_symmetry_space_group_name_H-M "I B A M"
_symmetry_group_IT_number 72
_symmetry_cell_setting 'orthorhombic'
loop_
_space_group_symop_operation_xyz
x,y,z
-x,-y,z
x,-y,1/2-z
-x,y,1/2-z
-x,-y,-z
x,y,-z
-x,y,1/2+z
x,-y,1/2+z
1/2+x,1/2+y,1/2+z
1/2-x,1/2-y,1/2+z
1/2+x,1/2-y,-z
1/2-x,1/2+y,-z
1/2-x,1/2-y,1/2-z
1/2+x,1/2+y,1/2-z
1/2-x,1/2+y,z
1/2+x,1/2-y,z
loop_
_atom_site_type_symbol
_atom_site_label
_atom_site_fract_x
_atom_site_fract_y
_atom_site_fract_z
Si Si1 0.037230 0.751687 0.500000
Si Si2 0.213914 0.295726 0.500000
Si Si3 0.557495 0.844743 0.646332
Si Si4 0.000000 0.000000 0.750000
Si Si5 0.714922 0.708175 0.148585
Si Si6 0.647446 0.000000 0.750000
O O1 0.070474 0.742811 0.429805
O O2 0.000000 0.500000 0.500000
O O3 0.000000 0.000000 0.500000
O O4 0.238869 0.577320 0.500000
O O5 0.185145 0.250980 0.574026
O O6 0.540777 0.630501 0.698077
O O7 0.608180 0.963278 0.684768
O O8 0.500000 0.000000 0.644414
O O9 0.738582 0.427733 0.146971
O O10 0.683780 0.776119 0.218896
#
# Coordination Sequence:
#
# PCOD9528475 Si02
#       6
#     8   8  16   4  16   8
#     4  10  22  41  64  87 124 172 208 260 318 380
#     4   8  16  35  62  81 117 164 201 250 314 370
#     4  11  23  41  60  93 126 166 212 265 320 386
#     4  12  18  38  70  82 132 156 214 260 326 366
#     4  10  22  41  61  91 127 165 210 263 319 383
#     4  12  23  38  63  92 128 163 213 268 326 384
#
# _framework density 23.620498000000001
#
# number of rings (size 3 to 8) (size 9 to 14) (size 15 to 20)
#    0.000    1.600    4.000    0.800    0.000    3.200 
#    0.000    0.000    0.000    9.600    0.000    0.000 
#    0.000    0.000    0.000    0.000    0.000    0.000 
#
# Total GULP energy -167244.722476 kJ/mol
# GULP energy per Si atom -5574.824083 kJ/mol
# Density = 2.356674 g / cm^3
# Si number density = 23.620498 Si / 1000 Ang^3
#
#
#
# Elastic Constant Matrix: (Units=GPa)
#
#
# Indices 1 2 3 4 5 6 
#
# 1 35.1735 5.8375 39.7446 0.0000 0.0000 0.0000
# 2 5.8375 79.1996 27.7810 0.0000 0.0000 0.0000
# 3 39.7446 27.7810 249.0065 0.0000 0.0000 0.0000
# 4 0.0000 0.0000 0.0000 35.4824 0.0000 0.0000
# 5 0.0000 0.0000 0.0000 0.0000 -71.0133 0.0000
# 6 0.0000 0.0000 0.0000 0.0000 0.0000 -64.6410
#
#
#
# Elastic Compliance Matrix: (Units=1/GPa)
#
#
# Indices 1 2 3 4 5 6 
#
# 1 0.034718 -0.000640 -0.005470 0.000000 0.000000 0.000000
# 2 -0.000640 0.013152 -0.001365 0.000000 0.000000 0.000000
# 3 -0.005470 -0.001365 0.005041 0.000000 0.000000 0.000000
# 4 0.000000 0.000000 0.000000 0.028183 0.000000 0.000000
# 5 0.000000 0.000000 0.000000 0.000000 -0.014082 0.000000
# 6 0.000000 0.000000 0.000000 0.000000 0.000000 -0.015470
#
#
# Mechanical properties :
#
#
# Convention : Reuss Voigt Hill
#
# Bulk Modulus (GPa) = 26.34308 56.67843 41.51075
# Shear Modulus (GPa) = 63.17387 -0.69995 31.23696
#
# Velocity S-wave (km/s) = 5.17720 -0.54496 3.64050
# Velocity P-wave (km/s) = 6.84943 4.86329 5.93996
#
# Compressibility (1/GPa) = 0.03796064
#
# Stress axis : x y z
#
# Youngs Moduli (GPa) = 28.80382 76.03190 198.35982
#
# Poissons Ratio (x) = 0.04868 1.08502
# Poissons Ratio (y) = 0.01844 0.27080
# Poissons Ratio (z) = 0.15756 0.10380
#
# Static dielectric constant tensor:
#      x y z
#    x 2.225370 0.000000 0.000000 
#    y 0.000000 1.940380 0.000000 
#    z 0.000000 0.000000 1.929310 
# 
# From -- ./inp_files/34736.got.cif
#   From: 2010.05.17/outbox.cif.g08.bks.cpg/sg72_18_cif.got.tgz:34736.got - 2010.06.03 17:03:01.
