data_PCOD9528923
_publ_section_title
;
Structure prediction by ZEFSAII (Michael W. Deem and Ramdas Pophale) SiO2 
 PCOD9528923
Probable space group: I B A M
;
_chemical_formula_sum "Si O2"
_cell_formula_units_Z 52
_cell_length_a 24.156457
_cell_length_b 11.393282
_cell_length_c 9.748191
_cell_angle_alpha 90.000000
_cell_angle_beta 90.000000
_cell_angle_gamma 90.000000
_cell_volume 2682.910060
_symmetry_space_group_name_H-M "I B A M"
_symmetry_group_IT_number 72
_symmetry_cell_setting 'orthorhombic'
loop_
_space_group_symop_operation_xyz
x,y,z
-x,-y,z
x,-y,1/2-z
-x,y,1/2-z
-x,-y,-z
x,y,-z
-x,y,1/2+z
x,-y,1/2+z
1/2+x,1/2+y,1/2+z
1/2-x,1/2-y,1/2+z
1/2+x,1/2-y,-z
1/2-x,1/2+y,-z
1/2-x,1/2-y,1/2-z
1/2+x,1/2+y,1/2-z
1/2-x,1/2+y,z
1/2+x,1/2-y,z
loop_
_atom_site_type_symbol
_atom_site_label
_atom_site_fract_x
_atom_site_fract_y
_atom_site_fract_z
Si Si1 0.820270 0.960051 0.500000
Si Si2 0.933089 0.111757 0.500000
Si Si3 0.868119 0.692030 0.000000
Si Si4 0.185884 0.754270 0.783325
Si Si5 0.000000 0.000000 0.250000
Si Si6 0.308316 0.945777 0.500000
O O1 0.824854 0.871842 0.630031
O O2 0.873041 0.045615 0.500000
O O3 0.757808 0.017731 0.500000
O O4 0.929106 0.253600 0.500000
O O5 0.963137 0.073127 0.640964
O O6 0.844369 0.745635 0.859889
O O7 0.846802 0.559626 0.000000
O O8 0.250000 0.750000 0.750000
O O9 0.177069 0.637249 0.872185
#
# Coordination Sequence:
#
# PCOD9528923 Si02
#       6
#     8   8   8  16   4   8
#     4  11  22  36  59  86 125 169 212 240 303 377
#     4  11  23  41  67  92 116 160 211 270 331 355
#     4  12  22  35  57  89 122 161 198 247 313 376
#     4  11  21  35  51  82 127 176 204 234 280 361
#     4  10  24  46  64  90 118 150 224 294 312 362
#     4  11  23  36  53  87 134 171 198 234 289 388
#
# _framework density 19.38194
#
# number of rings (size 3 to 8) (size 9 to 14) (size 15 to 20)
#    0.000    0.923    3.077    5.538    0.000    2.462 
#    0.000    0.000    0.000    0.000    0.000   73.231 
#    0.000    0.000    0.000    0.000    0.000    0.000 
#
# Total GULP energy -145020.211900 kJ/mol
# GULP energy per Si atom -5577.700458 kJ/mol
# Density = 1.933783 g / cm^3
# Si number density = 19.381940 Si / 1000 Ang^3
#
#
#
# Elastic Constant Matrix: (Units=GPa)
#
#
# Indices 1 2 3 4 5 6 
#
# 1 59.3479 56.2412 31.0172 0.0000 0.0000 0.0000
# 2 56.2412 127.3638 64.9906 0.0000 0.0000 0.0000
# 3 31.0172 64.9906 169.6531 0.0000 0.0000 0.0000
# 4 0.0000 0.0000 0.0000 14.9330 0.0000 0.0000
# 5 0.0000 0.0000 0.0000 0.0000 11.9479 0.0000
# 6 0.0000 0.0000 0.0000 0.0000 0.0000 15.1345
#
#
#
# Elastic Compliance Matrix: (Units=1/GPa)
#
#
# Indices 1 2 3 4 5 6 
#
# 1 0.029008 -0.012558 -0.000493 0.000000 0.000000 0.000000
# 2 -0.012558 0.015196 -0.003525 0.000000 0.000000 0.000000
# 3 -0.000493 -0.003525 0.007335 0.000000 0.000000 0.000000
# 4 0.000000 0.000000 0.000000 0.066966 0.000000 0.000000
# 5 0.000000 0.000000 0.000000 0.000000 0.083697 0.000000
# 6 0.000000 0.000000 0.000000 0.000000 0.000000 0.066074
#
#
# Mechanical properties :
#
#
# Convention : Reuss Voigt Hill
#
# Bulk Modulus (GPa) = 54.38704 73.42919 63.90812
# Shear Modulus (GPa) = 16.25721 22.01078 19.13400
#
# Velocity S-wave (km/s) = 2.89931 3.37357 3.14539
# Velocity P-wave (km/s) = 6.27133 7.28987 6.79970
#
# Compressibility (1/GPa) = 0.01838673
#
# Stress axis : x y z
#
# Youngs Moduli (GPa) = 34.47350 65.80846 136.33424
#
# Poissons Ratio (x) = 0.82641 0.06718
# Poissons Ratio (y) = 0.43291 0.48061
# Poissons Ratio (z) = 0.01699 0.23199
#
# Static dielectric constant tensor:
#      x y z
#    x 1.636750 0.000000 0.000000 
#    y 0.000000 1.641580 0.000000 
#    z 0.000000 0.000000 1.690940 
# 
# From -- ./inp_files/2358.got.cif
#   From: 2010.05.17/outbox.cif.g08.bks.cpg/sg72_2_cif.got.tgz:2358.got - 2010.06.03 17:03:01.
