data_PCOD9528972
_publ_section_title
;
Structure prediction by ZEFSAII (Michael W. Deem and Ramdas Pophale) SiO2 
 PCOD9528972
Probable space group: I B A M
;
_chemical_formula_sum "Si O2"
_cell_formula_units_Z 92
_cell_length_a 9.295964
_cell_length_b 22.081541
_cell_length_c 19.759409
_cell_angle_alpha 90.000000
_cell_angle_beta 90.000000
_cell_angle_gamma 90.000000
_cell_volume 4055.998279
_symmetry_space_group_name_H-M "I B A M"
_symmetry_group_IT_number 72
_symmetry_cell_setting 'orthorhombic'
loop_
_space_group_symop_operation_xyz
x,y,z
-x,-y,z
x,-y,1/2-z
-x,y,1/2-z
-x,-y,-z
x,y,-z
-x,y,1/2+z
x,-y,1/2+z
1/2+x,1/2+y,1/2+z
1/2-x,1/2-y,1/2+z
1/2+x,1/2-y,-z
1/2-x,1/2+y,-z
1/2-x,1/2-y,1/2-z
1/2+x,1/2+y,1/2-z
1/2-x,1/2+y,z
1/2+x,1/2-y,z
loop_
_atom_site_type_symbol
_atom_site_label
_atom_site_fract_x
_atom_site_fract_y
_atom_site_fract_z
Si Si1 0.934895 0.805150 0.872873
Si Si2 0.000000 0.604395 0.750000
Si Si3 0.500000 0.000000 0.000000
Si Si4 0.158718 0.717418 0.807493
Si Si5 0.080160 0.334445 0.000000
Si Si6 0.144383 0.431217 0.115519
Si Si7 0.466957 0.567170 0.330276
Si Si8 0.618834 0.270288 0.500000
O O1 0.020767 0.757831 0.824797
O O2 0.941709 0.875025 0.852479
O O3 0.768290 0.786546 0.870722
O O4 0.031904 0.799234 0.938187
O O5 0.882677 0.651315 0.719697
O O6 0.945147 0.567534 0.814725
O O7 0.381336 0.985111 0.061537
O O8 0.250000 0.750000 0.750000
O O9 0.093835 0.375187 0.067435
O O10 0.929955 0.299648 0.000000
O O11 0.215473 0.289188 0.000000
O O12 0.305105 0.421301 0.143345
O O13 0.500000 0.500000 0.357075
O O14 0.500000 0.564780 0.250000
#
# Coordination Sequence:
#
# PCOD9528972 Si02
#       8
#    16   8   4  16   8  16  16   8
#     4  12  24  42  66 104 143 194 248 300 385 458
#     4  12  24  41  78 114 147 198 244 324 388 466
#     4  10  28  50  80 100 152 212 248 328 384 464
#     4  12  23  39  66 105 148 185 236 310 391 448
#     4  11  24  47  69 103 157 198 247 309 382 468
#     4  11  25  50  74 106 150 200 259 324 391 452
#     4  11  25  46  73 104 146 194 255 326 380 449
#     4  12  24  40  70  99 143 202 235 296 373 463
#
# _framework density 22.682455999999998
#
# number of rings (size 3 to 8) (size 9 to 14) (size 15 to 20)
#    0.000    0.522    3.478    5.217    0.000    4.522 
#    0.000    8.261    0.000    0.000    0.000    0.000 
#    0.000    0.000    0.000    0.000    0.000    0.000 
#
# Total GULP energy -256333.523806 kJ/mol
# GULP energy per Si atom -5572.467909 kJ/mol
# Density = 2.263083 g / cm^3
# Si number density = 22.682456 Si / 1000 Ang^3
#
#
#
# Elastic Constant Matrix: (Units=GPa)
#
#
# Indices 1 2 3 4 5 6 
#
# 1 95.7778 9.4713 23.7277 0.0000 0.0000 0.0000
# 2 9.4713 81.3568 15.7163 0.0000 0.0000 0.0000
# 3 23.7277 15.7163 143.2689 0.0000 0.0000 0.0000
# 4 0.0000 0.0000 0.0000 32.5824 0.0000 0.0000
# 5 0.0000 0.0000 0.0000 0.0000 33.6053 0.0000
# 6 0.0000 0.0000 0.0000 0.0000 0.0000 11.7176
#
#
#
# Elastic Compliance Matrix: (Units=1/GPa)
#
#
# Indices 1 2 3 4 5 6 
#
# 1 0.010958 -0.000945 -0.001711 0.000000 0.000000 0.000000
# 2 -0.000945 0.012639 -0.001230 0.000000 0.000000 0.000000
# 3 -0.001711 -0.001230 0.007398 0.000000 0.000000 0.000000
# 4 0.000000 0.000000 0.000000 0.030691 0.000000 0.000000
# 5 0.000000 0.000000 0.000000 0.000000 0.029757 0.000000
# 6 0.000000 0.000000 0.000000 0.000000 0.000000 0.085342
#
#
# Mechanical properties :
#
#
# Convention : Reuss Voigt Hill
#
# Bulk Modulus (GPa) = 43.06074 46.47044 44.76559
# Shear Modulus (GPa) = 26.00109 33.68028 29.84069
#
# Velocity S-wave (km/s) = 3.38939 3.85757 3.63103
# Velocity P-wave (km/s) = 5.86026 6.35397 6.11211
#
# Compressibility (1/GPa) = 0.02322301
#
# Stress axis : x y z
#
# Youngs Moduli (GPa) = 91.25569 79.11912 135.16788
#
# Poissons Ratio (x) = 0.07478 0.23130
# Poissons Ratio (y) = 0.08625 0.16625
# Poissons Ratio (z) = 0.15616 0.09731
#
# Static dielectric constant tensor:
#      x y z
#    x 1.820830 0.000000 0.000000 
#    y 0.000000 1.900690 0.000000 
#    z 0.000000 0.000000 1.906600 
# 
# From -- ./inp_files/35923.got.cif
#   From: 2010.05.17/outbox.cif.g08.bks.cpg/sg72_18_cif.got.tgz:35923.got - 2010.06.03 17:03:01.
