data_PCOD9528448
_publ_section_title
;
Structure prediction by ZEFSAII (Michael W. Deem and Ramdas Pophale) SiO2 
 PCOD9528448
Probable space group: I B A M
;
_chemical_formula_sum "Si O2"
_cell_formula_units_Z 80
_cell_length_a 9.723954
_cell_length_b 16.564211
_cell_length_c 23.302598
_cell_angle_alpha 90.000000
_cell_angle_beta 90.000000
_cell_angle_gamma 90.000000
_cell_volume 3753.340740
_symmetry_space_group_name_H-M "I B A M"
_symmetry_group_IT_number 72
_symmetry_cell_setting 'orthorhombic'
loop_
_space_group_symop_operation_xyz
x,y,z
-x,-y,z
x,-y,1/2-z
-x,y,1/2-z
-x,-y,-z
x,y,-z
-x,y,1/2+z
x,-y,1/2+z
1/2+x,1/2+y,1/2+z
1/2-x,1/2-y,1/2+z
1/2+x,1/2-y,-z
1/2-x,1/2+y,-z
1/2-x,1/2-y,1/2-z
1/2+x,1/2+y,1/2-z
1/2-x,1/2+y,z
1/2+x,1/2-y,z
loop_
_atom_site_type_symbol
_atom_site_label
_atom_site_fract_x
_atom_site_fract_y
_atom_site_fract_z
Si Si1 0.450488 0.355588 0.000000
Si Si2 0.348705 0.789834 0.000000
Si Si3 0.999470 0.120941 0.876254
Si Si4 0.462334 0.187788 0.378326
Si Si5 0.293895 0.920529 0.669637
Si Si6 0.258379 0.099299 0.696914
O O1 0.589236 0.300917 0.000000
O O2 0.448646 0.402740 0.939981
O O3 0.315985 0.297454 0.000000
O O4 0.407541 0.829378 0.942244
O O5 0.896300 0.094076 0.826427
O O6 0.998295 0.218450 0.875916
O O7 0.152157 0.090725 0.864385
O O8 0.588482 0.131918 0.359867
O O9 0.338027 0.170610 0.334767
O O10 0.269167 0.891931 0.735152
O O11 0.327412 0.015164 0.676794
#
# Coordination Sequence:
#
# PCOD9528448 Si02
#       6
#     8   8  16  16  16  16
#     4  10  22  40  65  93 128 164 202 261 322 370
#     4  10  22  40  65  93 128 164 202 261 322 370
#     4  11  23  40  66  93 124 161 213 262 305 372
#     4  11  23  40  66  93 124 161 213 262 305 372
#     4  11  25  40  63  92 126 175 200 253 326 371
#     4  11  23  44  61  88 134 165 208 253 316 383
#
# _framework density 21.314346
#
# number of rings (size 3 to 8) (size 9 to 14) (size 15 to 20)
#    0.000    1.200    2.000    3.600    8.400    8.000 
#    0.000    6.000    0.000    0.000    0.000    0.000 
#    0.000    0.000    0.000    0.000    0.000    0.000 
#
# Total GULP energy -223725.055151 kJ/mol
# GULP energy per Si atom -5593.126379 kJ/mol
# Density = 2.126583 g / cm^3
# Si number density = 21.314346 Si / 1000 Ang^3
#
#
#
# Elastic Constant Matrix: (Units=GPa)
#
#
# Indices 1 2 3 4 5 6 
#
# 1 78.8052 6.8414 -1.6890 0.0000 0.0000 0.0000
# 2 6.8414 50.7439 21.3149 0.0000 0.0000 0.0000
# 3 -1.6890 21.3149 102.7926 0.0000 0.0000 0.0000
# 4 0.0000 0.0000 0.0000 31.8235 0.0000 0.0000
# 5 0.0000 0.0000 0.0000 0.0000 43.3296 0.0000
# 6 0.0000 0.0000 0.0000 0.0000 0.0000 27.2622
#
#
#
# Elastic Compliance Matrix: (Units=1/GPa)
#
#
# Indices 1 2 3 4 5 6 
#
# 1 0.012876 -0.001999 0.000626 0.000000 0.000000 0.000000
# 2 -0.001999 0.021897 -0.004573 0.000000 0.000000 0.000000
# 3 0.000626 -0.004573 0.010687 0.000000 0.000000 0.000000
# 4 0.000000 0.000000 0.000000 0.031423 0.000000 0.000000
# 5 0.000000 0.000000 0.000000 0.000000 0.023079 0.000000
# 6 0.000000 0.000000 0.000000 0.000000 0.000000 0.036681
#
#
# Mechanical properties :
#
#
# Convention : Reuss Voigt Hill
#
# Bulk Modulus (GPa) = 29.79023 31.69737 30.74380
# Shear Modulus (GPa) = 31.30359 34.20800 32.75579
#
# Velocity S-wave (km/s) = 3.83647 4.01050 3.92445
# Velocity P-wave (km/s) = 5.79928 6.02903 5.91527
#
# Compressibility (1/GPa) = 0.03356805
#
# Stress axis : x y z
#
# Youngs Moduli (GPa) = 77.66102 45.66755 93.57198
#
# Poissons Ratio (x) = 0.09129 -0.05858
# Poissons Ratio (y) = 0.15525 0.42795
# Poissons Ratio (z) = -0.04862 0.20886
#
# Static dielectric constant tensor:
#      x y z
#    x 1.750340 0.000000 0.000000 
#    y 0.000000 1.772180 0.000000 
#    z 0.000000 0.000000 1.759860 
# 
# From -- ./inp_files/47232.got.cif
#   From: 2010.05.17/outbox.cif.g08.bks.cpg/sg72_24_cif.got.tgz:47232.got - 2010.06.03 17:03:01.
