data_PCOD9528406
_publ_section_title
;
Structure prediction by ZEFSAII (Michael W. Deem and Ramdas Pophale) SiO2 
 PCOD9528406
Probable space group: I B A M
;
_chemical_formula_sum "Si O2"
_cell_formula_units_Z 80
_cell_length_a 7.467593
_cell_length_b 26.042855
_cell_length_c 18.279587
_cell_angle_alpha 90.000000
_cell_angle_beta 90.000000
_cell_angle_gamma 90.000000
_cell_volume 3554.967315
_symmetry_space_group_name_H-M "I B A M"
_symmetry_group_IT_number 72
_symmetry_cell_setting 'orthorhombic'
loop_
_space_group_symop_operation_xyz
x,y,z
-x,-y,z
x,-y,1/2-z
-x,y,1/2-z
-x,-y,-z
x,y,-z
-x,y,1/2+z
x,-y,1/2+z
1/2+x,1/2+y,1/2+z
1/2-x,1/2-y,1/2+z
1/2+x,1/2-y,-z
1/2-x,1/2+y,-z
1/2-x,1/2-y,1/2-z
1/2+x,1/2+y,1/2-z
1/2-x,1/2+y,z
1/2+x,1/2-y,z
loop_
_atom_site_type_symbol
_atom_site_label
_atom_site_fract_x
_atom_site_fract_y
_atom_site_fract_z
Si Si1 0.772445 0.375876 0.631156
Si Si2 0.621681 0.275179 0.690705
Si Si3 0.212733 0.943023 0.266936
Si Si4 0.098219 0.682374 0.917500
Si Si5 0.881881 0.899157 0.917063
O O1 0.705998 0.317820 0.641105
O O2 0.798887 0.402957 0.709932
O O3 0.597828 0.401577 0.593789
O O4 0.960949 0.365537 0.592018
O O5 0.500000 0.304956 0.750000
O O6 0.750000 0.250000 0.750000
O O7 0.561730 0.227533 0.640505
O O8 0.215075 0.930209 0.352547
O O9 0.000000 0.941481 0.250000
O O10 0.279353 0.000000 0.250000
O O11 0.297546 0.658346 0.908246
O O12 0.080584 0.702402 0.000000
O O13 0.840402 0.915215 0.000000
#
# Coordination Sequence:
#
# PCOD9528406 Si02
#       5
#    16  16  16  16  16
#     4  11  22  41  63  87 125 165 211 254 312 374
#     4  12  22  38  58  85 119 166 209 249 298 364
#     4   9  19  39  67  95 120 158 211 263 312 382
#     4  11  25  40  59  90 127 163 208 260 308 368
#     4  10  22  40  61  89 125 162 202 258 318 371
#
# _framework density 22.503720999999999
#
# number of rings (size 3 to 8) (size 9 to 14) (size 15 to 20)
#    0.000    1.400    2.000    4.800    0.000    1.600 
#    0.000   11.000    0.000    2.400    0.000    0.000 
#    0.000    0.000    0.000    0.000    0.000    0.000 
#
# Total GULP energy -223024.122702 kJ/mol
# GULP energy per Si atom -5575.603068 kJ/mol
# Density = 2.245250 g / cm^3
# Si number density = 22.503721 Si / 1000 Ang^3
#
#
#
# Elastic Constant Matrix: (Units=GPa)
#
#
# Indices 1 2 3 4 5 6 
#
# 1 63.7068 5.3491 23.4405 0.0000 0.0000 0.0000
# 2 5.3491 72.4249 48.8648 0.0000 0.0000 0.0000
# 3 23.4405 48.8648 183.6836 -0.0001 0.0000 0.0000
# 4 0.0000 0.0000 -0.0001 19.8818 0.0000 0.0000
# 5 0.0000 0.0000 0.0000 0.0000 21.5390 0.0000
# 6 0.0000 0.0000 0.0000 0.0000 0.0000 -6.6362
#
#
#
# Elastic Compliance Matrix: (Units=1/GPa)
#
#
# Indices 1 2 3 4 5 6 
#
# 1 0.016474 0.000246 -0.002168 0.000000 0.000000 0.000000
# 2 0.000246 0.016831 -0.004509 0.000000 0.000000 0.000000
# 3 -0.002168 -0.004509 0.006920 0.000000 0.000000 0.000000
# 4 0.000000 0.000000 0.000000 0.050297 0.000000 0.000000
# 5 0.000000 0.000000 0.000000 0.000000 0.046427 0.000000
# 6 0.000000 0.000000 0.000000 0.000000 0.000000 -0.150689
#
#
# Mechanical properties :
#
#
# Convention : Reuss Voigt Hill
#
# Bulk Modulus (GPa) = 36.54452 52.79156 44.66804
# Shear Modulus (GPa) = 606.46249 23.10099 314.78174
#
# Velocity S-wave (km/s) = 16.43409 3.20744 11.83991
# Velocity P-wave (km/s) = 19.40053 6.10138 14.38067
#
# Compressibility (1/GPa) = 0.02736388
#
# Stress axis : x y z
#
# Youngs Moduli (GPa) = 60.70223 59.41261 144.50286
#
# Poissons Ratio (x) = -0.01460 0.31324
# Poissons Ratio (y) = -0.01492 0.65156
# Poissons Ratio (z) = 0.13158 0.26789
#
# Static dielectric constant tensor:
#      x y z
#    x 1.702310 0.000000 0.000000 
#    y 0.000000 1.799080 0.000000 
#    z 0.000000 0.000000 1.743850 
# 
# From -- ./inp_files/28190.got.cif
#   From: 2010.05.17/outbox.cif.g08.bks.cpg/sg72_15_cif.got.tgz:28190.got - 2010.06.03 17:03:01.
