data_PCOD9528726
_publ_section_title
;
Structure prediction by ZEFSAII (Michael W. Deem and Ramdas Pophale) SiO2 
 PCOD9528726
Probable space group: I B A M
;
_chemical_formula_sum "Si O2"
_cell_formula_units_Z 88
_cell_length_a 13.625084
_cell_length_b 25.642895
_cell_length_c 12.979050
_cell_angle_alpha 90.000000
_cell_angle_beta 90.000000
_cell_angle_gamma 90.000000
_cell_volume 4534.706130
_symmetry_space_group_name_H-M "I B A M"
_symmetry_group_IT_number 72
_symmetry_cell_setting 'orthorhombic'
loop_
_space_group_symop_operation_xyz
x,y,z
-x,-y,z
x,-y,1/2-z
-x,y,1/2-z
-x,-y,-z
x,y,-z
-x,y,1/2+z
x,-y,1/2+z
1/2+x,1/2+y,1/2+z
1/2-x,1/2-y,1/2+z
1/2+x,1/2-y,-z
1/2-x,1/2+y,-z
1/2-x,1/2-y,1/2-z
1/2+x,1/2+y,1/2-z
1/2-x,1/2+y,z
1/2+x,1/2-y,z
loop_
_atom_site_type_symbol
_atom_site_label
_atom_site_fract_x
_atom_site_fract_y
_atom_site_fract_z
Si Si1 0.000000 0.769524 0.250000
Si Si2 0.212633 0.050095 0.700692
Si Si3 0.453198 0.915359 0.500000
Si Si4 0.128719 0.687854 0.622209
Si Si5 0.158224 0.473678 0.000000
Si Si6 0.146177 0.840354 0.120982
Si Si7 0.097849 0.405589 0.717903
O O1 0.070572 0.734555 0.322892
O O2 0.066831 0.805233 0.177282
O O3 0.272412 0.035943 0.597369
O O4 0.154689 0.102921 0.675410
O O5 0.301078 0.063968 0.778789
O O6 0.159532 0.000000 0.750000
O O7 0.566992 0.933025 0.500000
O O8 0.421452 0.885980 0.397042
O O9 0.392584 0.969888 0.500000
O O10 0.103513 0.683390 0.500000
O O11 0.247458 0.688224 0.627363
O O12 0.104810 0.638642 0.695679
O O13 0.125073 0.848037 0.000000
O O14 0.000000 0.437565 0.750000
#
# Coordination Sequence:
#
# PCOD9528726 Si02
#       7
#     8  16   8  16   8  16  16
#     4  12  22  42  71  96 121 158 220 270 314 380
#     4  11  21  37  59  84 123 170 212 249 312 374
#     4  11  22  30  48  87 128 169 222 253 300 374
#     4  10  23  41  63  93 128 165 208 258 323 383
#     4  11  20  32  52  79 125 176 209 252 305 374
#     4  10  23  42  68  94 126 166 205 257 329 384
#     4  11  21  31  51  85 122 169 207 250 304 374
#
# _framework density 19.405888000000001
#
# number of rings (size 3 to 8) (size 9 to 14) (size 15 to 20)
#    0.000    1.273    5.455    1.091    2.545    0.364 
#    1.636    0.455   20.000    1.091    0.000    0.000 
#    0.000    0.000    0.000    0.000    0.000    0.000 
#
# Total GULP energy -245538.636953 kJ/mol
# GULP energy per Si atom -5580.423567 kJ/mol
# Density = 1.936172 g / cm^3
# Si number density = 19.405888 Si / 1000 Ang^3
#
#
#
# Elastic Constant Matrix: (Units=GPa)
#
#
# Indices 1 2 3 4 5 6 
#
# 1 51.5696 51.2483 39.1907 0.0000 0.0000 0.0000
# 2 51.2483 125.0798 47.0022 -0.0001 0.0001 0.0002
# 3 39.1907 47.0022 142.1293 0.0001 0.0001 0.0001
# 4 0.0000 -0.0001 0.0001 28.2748 0.0000 0.0001
# 5 0.0000 0.0001 0.0001 0.0000 27.0422 0.0000
# 6 0.0000 0.0002 0.0001 0.0001 0.0000 4.1794
#
#
#
# Elastic Compliance Matrix: (Units=1/GPa)
#
#
# Indices 1 2 3 4 5 6 
#
# 1 0.036523 -0.012767 -0.005849 0.000000 0.000000 0.000000
# 2 -0.012767 0.013592 -0.000975 0.000000 0.000000 0.000000
# 3 -0.005849 -0.000975 0.008971 0.000000 0.000000 0.000000
# 4 0.000000 0.000000 0.000000 0.035367 0.000000 -0.000001
# 5 0.000000 0.000000 0.000000 0.000000 0.036979 0.000000
# 6 0.000000 0.000000 0.000000 -0.000001 0.000000 0.239270
#
#
# Mechanical properties :
#
#
# Convention : Reuss Voigt Hill
#
# Bulk Modulus (GPa) = 50.23660 65.96233 58.09946
# Shear Modulus (GPa) = 12.00426 23.98845 17.99636
#
# Velocity S-wave (km/s) = 2.48984 3.51970 3.04857
# Velocity P-wave (km/s) = 5.84887 7.11213 6.51121
#
# Compressibility (1/GPa) = 0.01990581
#
# Stress axis : x y z
#
# Youngs Moduli (GPa) = 27.37972 73.57303 111.47094
#
# Poissons Ratio (x) = 0.93928 0.65200
# Poissons Ratio (y) = 0.34955 0.10864
# Poissons Ratio (z) = 0.16014 0.07170
#
# Static dielectric constant tensor:
#      x y z
#    x 1.685700 0.000000 0.000000 
#    y 0.000000 1.710860 0.000000 
#    z 0.000000 0.000000 1.718520 
# 
# From -- ./inp_files/12880.got.cif
#   From: 2010.05.17/outbox.cif.g08.bks.cpg/sg72_7_cif.got.tgz:12880.got - 2010.06.03 17:03:01.
