data_PCOD9528540
_publ_section_title
;
Structure prediction by ZEFSAII (Michael W. Deem and Ramdas Pophale) SiO2 
 PCOD9528540
Probable space group: I B A M
;
_chemical_formula_sum "Si O2"
_cell_formula_units_Z 56
_cell_length_a 16.340856
_cell_length_b 9.071115
_cell_length_c 17.427211
_cell_angle_alpha 90.000000
_cell_angle_beta 90.000000
_cell_angle_gamma 90.000000
_cell_volume 2583.231722
_symmetry_space_group_name_H-M "I B A M"
_symmetry_group_IT_number 72
_symmetry_cell_setting 'orthorhombic'
loop_
_space_group_symop_operation_xyz
x,y,z
-x,-y,z
x,-y,1/2-z
-x,y,1/2-z
-x,-y,-z
x,y,-z
-x,y,1/2+z
x,-y,1/2+z
1/2+x,1/2+y,1/2+z
1/2-x,1/2-y,1/2+z
1/2+x,1/2-y,-z
1/2-x,1/2+y,-z
1/2-x,1/2-y,1/2-z
1/2+x,1/2+y,1/2-z
1/2-x,1/2+y,z
1/2+x,1/2-y,z
loop_
_atom_site_type_symbol
_atom_site_label
_atom_site_fract_x
_atom_site_fract_y
_atom_site_fract_z
Si Si1 0.640596 0.972406 0.000000
Si Si2 0.500000 0.000000 0.625366
Si Si3 0.709712 0.271696 0.000000
Si Si4 0.786876 0.500000 0.750000
Si Si5 0.500000 0.747027 0.250000
Si Si6 0.843094 0.795649 0.169483
O O1 0.579163 0.997657 0.929362
O O2 0.696683 0.827512 0.000000
O O3 0.710525 0.095539 0.000000
O O4 0.516078 0.141228 0.679219
O O5 0.659989 0.310023 0.077653
O O6 0.831803 0.625226 0.800959
O O7 0.731363 0.602518 0.696415
O O8 0.576284 0.658048 0.283774
#
# Coordination Sequence:
#
# PCOD9528540 Si02
#       6
#     8   8   8   8   8  16
#     4  11  24  42  70  99 142 174 232 281 354 402
#     4  10  22  42  64 100 132 188 230 282 326 422
#     4  12  24  42  68 108 132 180 222 298 344 416
#     4  10  24  42  68 100 132 178 232 284 338 410
#     4  11  22  39  68  94 134 182 232 274 336 410
#     4  11  24  42  68 100 137 177 229 285 346 411
#
# _framework density 21.678272
#
# number of rings (size 3 to 8) (size 9 to 14) (size 15 to 20)
#    0.000    1.143    2.857    3.429    8.000    0.571 
#    0.000    0.000    0.000    5.143    0.000    0.000 
#    0.000    0.000    0.000    0.000    0.000    0.000 
#
# Total GULP energy -156132.614170 kJ/mol
# GULP energy per Si atom -5576.164792 kJ/mol
# Density = 2.162893 g / cm^3
# Si number density = 21.678272 Si / 1000 Ang^3
#
#
#
# Elastic Constant Matrix: (Units=GPa)
#
#
# Indices 1 2 3 4 5 6 
#
# 1 128.0639 33.3677 80.0402 0.0000 0.0000 0.0000
# 2 33.3677 77.6430 43.0249 0.0000 0.0000 0.0000
# 3 80.0402 43.0249 199.4901 0.0000 0.0000 0.0000
# 4 0.0000 0.0000 0.0000 8.0469 0.0000 0.0000
# 5 0.0000 0.0000 0.0000 0.0000 18.4174 0.0000
# 6 0.0000 0.0000 0.0000 0.0000 0.0000 -1.0295
#
#
#
# Elastic Compliance Matrix: (Units=1/GPa)
#
#
# Indices 1 2 3 4 5 6 
#
# 1 0.010851 -0.002556 -0.003802 0.000000 0.000000 0.000000
# 2 -0.002556 0.015230 -0.002259 0.000000 0.000000 0.000000
# 3 -0.003802 -0.002259 0.007026 0.000000 0.000000 0.000000
# 4 0.000000 0.000000 0.000000 0.124271 0.000000 0.000000
# 5 0.000000 0.000000 0.000000 0.000000 0.054297 0.000000
# 6 0.000000 0.000000 0.000000 0.000000 0.000000 -0.971336
#
#
# Mechanical properties :
#
#
# Convention : Reuss Voigt Hill
#
# Bulk Modulus (GPa) = 63.00749 79.78473 71.39611
# Shear Modulus (GPa) = -6.78301 21.67124 7.44411
#
# Velocity S-wave (km/s) = -1.77080 3.16519 1.85509
# Velocity P-wave (km/s) = 4.99469 7.08815 6.13143
#
# Compressibility (1/GPa) = 0.01587113
#
# Stress axis : x y z
#
# Youngs Moduli (GPa) = 92.15584 65.66037 142.33616
#
# Poissons Ratio (x) = 0.16785 0.54122
# Poissons Ratio (y) = 0.23558 0.32154
# Poissons Ratio (z) = 0.35042 0.14833
#
# Static dielectric constant tensor:
#      x y z
#    x 1.862530 0.000000 0.000000 
#    y 0.000000 1.804530 0.000000 
#    z 0.000000 0.000000 1.794180 
# 
# From -- ./inp_files/31136.got.cif
#   From: 2010.05.17/outbox.cif.g08.bks.cpg/sg72_16_cif.got.tgz:31136.got - 2010.06.03 17:03:01.
