data_PCOD9528046
_publ_section_title
;
Structure prediction by ZEFSAII (Michael W. Deem and Ramdas Pophale) SiO2 
 PCOD9528046
Probable space group: I B A M
;
_chemical_formula_sum "Si O2"
_cell_formula_units_Z 64
_cell_length_a 19.561482
_cell_length_b 10.529337
_cell_length_c 13.801460
_cell_angle_alpha 90.000000
_cell_angle_beta 90.000000
_cell_angle_gamma 90.000000
_cell_volume 2842.678935
_symmetry_space_group_name_H-M "I B A M"
_symmetry_group_IT_number 72
_symmetry_cell_setting 'orthorhombic'
loop_
_space_group_symop_operation_xyz
x,y,z
-x,-y,z
x,-y,1/2-z
-x,y,1/2-z
-x,-y,-z
x,y,-z
-x,y,1/2+z
x,-y,1/2+z
1/2+x,1/2+y,1/2+z
1/2-x,1/2-y,1/2+z
1/2+x,1/2-y,-z
1/2-x,1/2+y,-z
1/2-x,1/2-y,1/2-z
1/2+x,1/2+y,1/2-z
1/2-x,1/2+y,z
1/2+x,1/2-y,z
loop_
_atom_site_type_symbol
_atom_site_label
_atom_site_fract_x
_atom_site_fract_y
_atom_site_fract_z
Si Si1 0.445920 0.104394 0.616347
Si Si2 0.161769 0.862773 0.214347
Si Si3 0.477665 0.644192 0.383776
Si Si4 0.698387 0.827065 0.614846
O O1 0.450472 0.104160 0.500000
O O2 0.468144 0.247039 0.645733
O O3 0.366030 0.080601 0.637119
O O4 0.500000 0.000000 0.649961
O O5 0.095690 0.813508 0.157534
O O6 0.226912 0.875555 0.143231
O O7 0.184733 0.786405 0.309660
O O8 0.141321 0.000000 0.250000
O O9 0.500000 0.500000 0.357758
O O10 0.473130 0.644994 0.500000
O O11 0.695526 0.794263 0.500000
#
# Coordination Sequence:
#
# PCOD9528046 Si02
#       4
#    16  16  16  16
#     4   9  19  37  62  90 120 159 205 252 308 371
#     4  11  24  40  62  92 122 162 213 260 314 382
#     4  10  21  39  64  94 128 165 207 260 318 376
#     4  10  23  42  61  87 125 164 205 259 318 377
#
# _framework density 22.513974000000001
#
# number of rings (size 3 to 8) (size 9 to 14) (size 15 to 20)
#    0.000    2.000    0.000    2.250    0.000   11.500 
#    0.000    3.750    0.000    0.750    0.000    0.000 
#    0.000    1.000    0.000    0.000    0.000    0.000 
#
# Total GULP energy -178673.951600 kJ/mol
# GULP energy per Si atom -5583.560988 kJ/mol
# Density = 2.246273 g / cm^3
# Si number density = 22.513974 Si / 1000 Ang^3
#
#
#
# Elastic Constant Matrix: (Units=GPa)
#
#
# Indices 1 2 3 4 5 6 
#
# 1 182.4384 14.3883 51.3363 0.0000 0.0000 0.0000
# 2 14.3883 52.9468 12.1069 0.0000 0.0000 0.0000
# 3 51.3363 12.1069 141.1356 0.0000 0.0000 0.0000
# 4 0.0000 0.0000 0.0000 -11.2999 0.0000 0.0000
# 5 0.0000 0.0000 0.0000 0.0000 38.0038 0.0000
# 6 0.0000 0.0000 0.0000 0.0000 0.0000 30.1889
#
#
#
# Elastic Compliance Matrix: (Units=1/GPa)
#
#
# Indices 1 2 3 4 5 6 
#
# 1 0.006179 -0.001188 -0.002145 0.000000 0.000000 0.000000
# 2 -0.001188 0.019493 -0.001240 0.000000 0.000000 0.000000
# 3 -0.002145 -0.001240 0.007972 0.000000 0.000000 0.000000
# 4 0.000000 0.000000 0.000000 -0.088496 0.000000 0.000000
# 5 0.000000 0.000000 0.000000 0.000000 0.026313 0.000000
# 6 0.000000 0.000000 0.000000 0.000000 0.000000 0.033125
#
#
# Mechanical properties :
#
#
# Convention : Reuss Voigt Hill
#
# Bulk Modulus (GPa) = 40.82208 59.13154 49.97681
# Shear Modulus (GPa) = 228.31888 31.29116 129.80502
#
# Velocity S-wave (km/s) = 10.08128 3.73212 7.60135
# Velocity P-wave (km/s) = 12.39681 6.70023 9.96428
#
# Compressibility (1/GPa) = 0.02449654
#
# Stress axis : x y z
#
# Youngs Moduli (GPa) = 161.84488 51.29946 125.43678
#
# Poissons Ratio (x) = 0.06097 0.26912
# Poissons Ratio (y) = 0.19235 0.15553
# Poissons Ratio (z) = 0.34724 0.06361
#
# Static dielectric constant tensor:
#      x y z
#    x 1.834170 0.000000 0.000000 
#    y 0.000000 1.815110 0.000000 
#    z 0.000000 0.000000 1.835660 
# 
# From -- ./inp_files/19705.got.cif
#   From: 2010.05.17/outbox.cif.g08.bks.cpg/sg72_10_cif.got.tgz:19705.got - 2010.06.03 17:03:01.
