data_PCOD9528632
_publ_section_title
;
Structure prediction by ZEFSAII (Michael W. Deem and Ramdas Pophale) SiO2 
 PCOD9528632
Probable space group: I B A M
;
_chemical_formula_sum "Si O2"
_cell_formula_units_Z 88
_cell_length_a 8.613860
_cell_length_b 18.604522
_cell_length_c 28.011001
_cell_angle_alpha 90.000000
_cell_angle_beta 90.000000
_cell_angle_gamma 90.000000
_cell_volume 4488.951925
_symmetry_space_group_name_H-M "I B A M"
_symmetry_group_IT_number 72
_symmetry_cell_setting 'orthorhombic'
loop_
_space_group_symop_operation_xyz
x,y,z
-x,-y,z
x,-y,1/2-z
-x,y,1/2-z
-x,-y,-z
x,y,-z
-x,y,1/2+z
x,-y,1/2+z
1/2+x,1/2+y,1/2+z
1/2-x,1/2-y,1/2+z
1/2+x,1/2-y,-z
1/2-x,1/2+y,-z
1/2-x,1/2-y,1/2-z
1/2+x,1/2+y,1/2-z
1/2-x,1/2+y,z
1/2+x,1/2-y,z
loop_
_atom_site_type_symbol
_atom_site_label
_atom_site_fract_x
_atom_site_fract_y
_atom_site_fract_z
Si Si1 0.232360 0.461703 0.701474
Si Si2 0.000000 0.870585 0.250000
Si Si3 0.363100 0.444509 0.884677
Si Si4 0.319411 0.694443 0.666685
Si Si5 0.071911 0.579278 0.446377
Si Si6 0.965126 0.344158 0.852485
O O1 0.180337 0.500000 0.750000
O O2 0.390829 0.420478 0.716919
O O3 0.271974 0.519118 0.660163
O O4 0.109354 0.406164 0.680075
O O5 0.112545 0.821532 0.218690
O O6 0.500000 0.500000 0.895659
O O7 0.404873 0.364658 0.866853
O O8 0.247167 0.432266 0.928304
O O9 0.357200 0.774473 0.650631
O O10 0.136858 0.678192 0.664655
O O11 0.063152 0.608733 0.500000
O O12 0.000000 0.500000 0.446072
O O13 0.986451 0.626341 0.406174
#
# Coordination Sequence:
#
# PCOD9528632 Si02
#       6
#    16   8  16  16  16  16
#     4  12  22  41  64  95 137 181 217 264 326 394
#     4  12  23  42  62  92 133 182 220 268 307 392
#     4  11  21  41  68 100 132 174 218 276 327 396
#     4  11  25  42  62  93 135 177 221 269 325 385
#     4  10  22  44  69  96 127 167 219 280 340 393
#     4  11  26  45  64  96 133 175 221 278 330 401
#
# _framework density 19.603684999999999
#
# number of rings (size 3 to 8) (size 9 to 14) (size 15 to 20)
#    0.000    0.909    5.455    1.364    0.000    4.000 
#    6.545    3.636    0.000    0.000    0.000    0.000 
#    0.000    0.000    0.000    0.000    0.000    0.000 
#
# Total GULP energy -246096.789063 kJ/mol
# GULP energy per Si atom -5593.108842 kJ/mol
# Density = 1.955907 g / cm^3
# Si number density = 19.603685 Si / 1000 Ang^3
#
#
#
# Elastic Constant Matrix: (Units=GPa)
#
#
# Indices 1 2 3 4 5 6 
#
# 1 80.0353 40.6340 55.7686 0.0000 0.0000 0.0000
# 2 40.6340 123.4915 59.7117 0.0000 0.0000 0.0000
# 3 55.7686 59.7117 138.0618 0.0000 0.0000 0.0000
# 4 0.0000 0.0000 0.0000 26.1531 0.0000 0.0000
# 5 0.0000 0.0000 0.0000 0.0000 51.9815 0.0000
# 6 0.0000 0.0000 0.0000 0.0000 0.0000 28.9580
#
#
#
# Elastic Compliance Matrix: (Units=1/GPa)
#
#
# Indices 1 2 3 4 5 6 
#
# 1 0.018276 -0.003090 -0.006046 0.000000 0.000000 0.000000
# 2 -0.003090 0.010761 -0.003406 0.000000 0.000000 0.000000
# 3 -0.006046 -0.003406 0.011158 0.000000 0.000000 0.000000
# 4 0.000000 0.000000 0.000000 0.038236 0.000000 0.000000
# 5 0.000000 0.000000 0.000000 0.000000 0.019238 0.000000
# 6 0.000000 0.000000 0.000000 0.000000 0.000000 0.034533
#
#
# Mechanical properties :
#
#
# Convention : Reuss Voigt Hill
#
# Bulk Modulus (GPa) = 66.17428 72.64636 69.41032
# Shear Modulus (GPa) = 30.80247 33.78349 32.29298
#
# Velocity S-wave (km/s) = 3.96821 4.15580 4.06309
# Velocity P-wave (km/s) = 7.40439 7.75664 7.58256
#
# Compressibility (1/GPa) = 0.01511161
#
# Stress axis : x y z
#
# Youngs Moduli (GPa) = 54.71582 92.92404 89.61821
#
# Poissons Ratio (x) = 0.28716 0.54183
# Poissons Ratio (y) = 0.16909 0.30524
# Poissons Ratio (z) = 0.33081 0.31650
#
# Static dielectric constant tensor:
#      x y z
#    x 1.732430 0.000000 0.000000 
#    y 0.000000 1.686630 0.000000 
#    z 0.000000 0.000000 1.682620 
# 
# From -- ./inp_files/50817.got.cif
#   From: 2010.05.17/outbox.cif.g08.bks.cpg/sg72_26_cif.got.tgz:50817.got - 2010.06.03 17:03:01.
