data_PCOD9528345
_publ_section_title
;
Structure prediction by ZEFSAII (Michael W. Deem and Ramdas Pophale) SiO2 
 PCOD9528345
Probable space group: I B A M
;
_chemical_formula_sum "Si O2"
_cell_formula_units_Z 112
_cell_length_a 12.419814
_cell_length_b 27.718735
_cell_length_c 16.748378
_cell_angle_alpha 90.000000
_cell_angle_beta 90.000000
_cell_angle_gamma 90.000000
_cell_volume 5765.822286
_symmetry_space_group_name_H-M "I B A M"
_symmetry_group_IT_number 72
_symmetry_cell_setting 'orthorhombic'
loop_
_space_group_symop_operation_xyz
x,y,z
-x,-y,z
x,-y,1/2-z
-x,y,1/2-z
-x,-y,-z
x,y,-z
-x,y,1/2+z
x,-y,1/2+z
1/2+x,1/2+y,1/2+z
1/2-x,1/2-y,1/2+z
1/2+x,1/2-y,-z
1/2-x,1/2+y,-z
1/2-x,1/2-y,1/2-z
1/2+x,1/2+y,1/2-z
1/2-x,1/2+y,z
1/2+x,1/2-y,z
loop_
_atom_site_type_symbol
_atom_site_label
_atom_site_fract_x
_atom_site_fract_y
_atom_site_fract_z
Si Si1 0.383665 0.302406 0.910600
Si Si2 0.726804 0.565607 0.405251
Si Si3 0.614572 0.480798 0.657790
Si Si4 0.510033 0.794182 0.591669
Si Si5 0.505048 0.615311 0.343120
Si Si6 0.702566 0.202703 0.209514
Si Si7 0.909965 0.621676 0.314976
O O1 0.419804 0.247149 0.899056
O O2 0.483111 0.338151 0.896421
O O3 0.294913 0.317230 0.847465
O O4 0.342603 0.307705 0.000000
O O5 0.734933 0.575514 0.500000
O O6 0.706185 0.508595 0.389934
O O7 0.619309 0.591734 0.368715
O O8 0.830304 0.583585 0.355757
O O9 0.500000 0.500000 0.626199
O O10 0.622460 0.500000 0.750000
O O11 0.592504 0.424058 0.650423
O O12 0.545865 0.792808 0.500000
O O13 0.603250 0.782215 0.653865
O O14 0.468091 0.846829 0.616447
O O15 0.500000 0.629053 0.250000
O O16 0.750000 0.250000 0.250000
O O17 0.661834 0.161613 0.268879
O O18 0.000000 0.604656 0.250000
#
# Coordination Sequence:
#
# PCOD9528345 Si02
#       7
#    16  16  16  16  16  16  16
#     4  11  24  36  53  85 122 158 199 247 299 349
#     4  11  22  36  62  95 120 154 199 250 306 358
#     4   9  17  36  56  86 123 160 190 229 293 364
#     4  10  22  39  56  79 118 157 199 253 299 344
#     4  11  21  35  59  89 131 160 194 238 296 371
#     4  11  22  37  57  78 111 160 207 242 292 359
#     4  10  22  40  60  86 114 157 209 253 300 351
#
# _framework density 19.424809
#
# number of rings (size 3 to 8) (size 9 to 14) (size 15 to 20)
#    0.000    1.571    4.286    2.143    4.000    3.143 
#    0.000    0.000    0.000    0.429    0.000    1.000 
#    0.000    0.000    0.000    0.000    0.000    0.000 
#
# Total GULP energy -312324.988296 kJ/mol
# GULP energy per Si atom -5577.231934 kJ/mol
# Density = 1.938060 g / cm^3
# Si number density = 19.424809 Si / 1000 Ang^3
#
#
#
# Elastic Constant Matrix: (Units=GPa)
#
#
# Indices 1 2 3 4 5 6 
#
# 1 72.3806 22.6256 39.5680 0.0000 0.0000 0.0000
# 2 22.6256 48.1737 26.7695 0.0000 0.0000 0.0000
# 3 39.5680 26.7695 100.0381 -0.0002 -0.0001 0.0001
# 4 0.0000 0.0000 -0.0002 9.9944 0.0000 0.0000
# 5 0.0000 0.0000 -0.0001 0.0000 45.4932 0.0000
# 6 0.0000 0.0000 0.0001 0.0000 0.0000 29.4966
#
#
#
# Elastic Compliance Matrix: (Units=1/GPa)
#
#
# Indices 1 2 3 4 5 6 
#
# 1 0.018798 -0.005518 -0.005959 0.000000 0.000000 0.000000
# 2 -0.005518 0.026004 -0.004776 0.000000 0.000000 0.000000
# 3 -0.005959 -0.004776 0.013631 0.000000 0.000000 0.000000
# 4 0.000000 0.000000 0.000000 0.100056 0.000000 0.000000
# 5 0.000000 0.000000 0.000000 0.000000 0.021981 0.000000
# 6 0.000000 0.000000 0.000000 0.000000 0.000000 0.033902
#
#
# Mechanical properties :
#
#
# Convention : Reuss Voigt Hill
#
# Bulk Modulus (GPa) = 38.56828 44.27984 41.42406
# Shear Modulus (GPa) = 19.56801 25.77214 22.67007
#
# Velocity S-wave (km/s) = 3.17736 3.64643 3.41994
# Velocity P-wave (km/s) = 5.77573 6.36974 6.07999
#
# Compressibility (1/GPa) = 0.02592805
#
# Stress axis : x y z
#
# Youngs Moduli (GPa) = 53.19706 38.45619 73.36195
#
# Poissons Ratio (x) = 0.21219 0.43714
# Poissons Ratio (y) = 0.29352 0.35038
# Poissons Ratio (z) = 0.31698 0.18367
#
# Static dielectric constant tensor:
#      x y z
#    x 1.704480 0.000000 0.000000 
#    y 0.000000 1.712250 0.000000 
#    z 0.000000 0.000000 1.651760 
# 
# From -- ./inp_files/20685.got.cif
#   From: 2010.05.17/outbox.cif.g08.bks.cpg/sg72_11_cif.got.tgz:20685.got - 2010.06.03 17:03:01.
