data_PCOD9528011
_publ_section_title
;
Structure prediction by ZEFSAII (Michael W. Deem and Ramdas Pophale) SiO2 
 PCOD9528011
Probable space group: I B A M
;
_chemical_formula_sum "Si O2"
_cell_formula_units_Z 116
_cell_length_a 11.956250
_cell_length_b 28.578768
_cell_length_c 17.902432
_cell_angle_alpha 90.000000
_cell_angle_beta 90.000000
_cell_angle_gamma 90.000000
_cell_volume 6117.169621
_symmetry_space_group_name_H-M "I B A M"
_symmetry_group_IT_number 72
_symmetry_cell_setting 'orthorhombic'
loop_
_space_group_symop_operation_xyz
x,y,z
-x,-y,z
x,-y,1/2-z
-x,y,1/2-z
-x,-y,-z
x,y,-z
-x,y,1/2+z
x,-y,1/2+z
1/2+x,1/2+y,1/2+z
1/2-x,1/2-y,1/2+z
1/2+x,1/2-y,-z
1/2-x,1/2+y,-z
1/2-x,1/2-y,1/2-z
1/2+x,1/2+y,1/2-z
1/2-x,1/2+y,z
1/2+x,1/2-y,z
loop_
_atom_site_type_symbol
_atom_site_label
_atom_site_fract_x
_atom_site_fract_y
_atom_site_fract_z
Si Si1 0.108216 0.173434 0.678932
Si Si2 0.865680 0.214013 0.663491
Si Si3 0.391437 0.051658 0.284669
Si Si4 0.984558 0.600078 0.087757
Si Si5 0.344212 0.583912 0.776766
Si Si6 0.000000 0.000000 0.750000
Si Si7 0.173525 0.311858 0.088787
Si Si8 0.262252 0.865548 0.589136
O O1 0.145668 0.207756 0.747122
O O2 0.105858 0.122811 0.719876
O O3 0.202124 0.175375 0.616090
O O4 0.987167 0.189715 0.649994
O O5 0.866012 0.266353 0.633751
O O6 0.766798 0.186155 0.620580
O O7 0.500000 0.077396 0.250000
O O8 0.426605 0.056455 0.370405
O O9 0.274526 0.073229 0.262123
O O10 0.388274 0.000000 0.250000
O O11 0.112844 0.614872 0.104206
O O12 0.907390 0.644737 0.105900
O O13 0.980193 0.591553 0.000000
O O14 0.416098 0.537083 0.787713
O O15 0.319380 0.604222 0.858465
O O16 0.170187 0.302999 0.000000
O O17 0.243210 0.867351 0.500000
#
# Coordination Sequence:
#
# PCOD9528011 Si02
#       8
#    16  16  16  16  16   4  16  16
#     4  10  22  42  60  87 125 166 209 252 307 355
#     4  10  22  39  59  89 123 166 215 252 294 359
#     4  11  21  39  64  93 115 154 205 248 310 374
#     4  10  22  40  61  92 129 160 199 255 315 366
#     4  11  21  40  65  89 121 160 204 256 304 369
#     4  12  24  40  68  92 116 152 212 264 300 364
#     4  11  23  37  60  91 125 165 207 255 305 355
#     4  10  21  39  62  89 126 164 198 250 310 365
#
# _framework density 18.963018999999999
#
# number of rings (size 3 to 8) (size 9 to 14) (size 15 to 20)
#    0.000    1.517    3.448    2.483    1.931    1.103 
#    4.966    2.414    0.000    0.828    0.000    0.000 
#    0.000    0.000    0.000    0.000    0.000    0.000 
#
# Total GULP energy -323187.106663 kJ/mol
# GULP energy per Si atom -5572.191494 kJ/mol
# Density = 1.891986 g / cm^3
# Si number density = 18.963019 Si / 1000 Ang^3
#
#
#
# Elastic Constant Matrix: (Units=GPa)
#
#
# Indices 1 2 3 4 5 6 
#
# 1 89.1597 23.6625 17.6296 0.0000 0.0000 0.0000
# 2 23.6625 89.1192 40.9479 0.0000 0.0000 0.0000
# 3 17.6296 40.9479 58.7022 0.0002 -0.0001 0.0000
# 4 0.0000 0.0000 0.0002 20.7666 0.0000 0.0000
# 5 0.0000 0.0000 -0.0001 0.0000 16.2517 0.0000
# 6 0.0000 0.0000 0.0000 0.0000 0.0000 26.8695
#
#
#
# Elastic Compliance Matrix: (Units=1/GPa)
#
#
# Indices 1 2 3 4 5 6 
#
# 1 0.012235 -0.002296 -0.002073 0.000000 0.000000 0.000000
# 2 -0.002296 0.016945 -0.011130 0.000000 0.000000 0.000000
# 3 -0.002073 -0.011130 0.025422 0.000000 0.000000 0.000000
# 4 0.000000 0.000000 0.000000 0.048154 0.000000 0.000000
# 5 0.000000 0.000000 0.000000 0.000000 0.061532 0.000000
# 6 0.000000 0.000000 0.000000 0.000000 0.000000 0.037217
#
#
# Mechanical properties :
#
#
# Convention : Reuss Voigt Hill
#
# Bulk Modulus (GPa) = 42.36757 44.60679 43.48718
# Shear Modulus (GPa) = 20.80125 23.09365 21.94745
#
# Velocity S-wave (km/s) = 3.31560 3.49352 3.40572
# Velocity P-wave (km/s) = 6.08673 6.31245 6.20062
#
# Compressibility (1/GPa) = 0.02360296
#
# Stress axis : x y z
#
# Youngs Moduli (GPa) = 81.73221 59.01576 39.33675
#
# Poissons Ratio (x) = 0.13551 0.08153
# Poissons Ratio (y) = 0.18768 0.43782
# Poissons Ratio (z) = 0.16941 0.65686
#
# Static dielectric constant tensor:
#      x y z
#    x 1.696020 0.000000 0.000000 
#    y 0.000000 1.686210 0.000000 
#    z 0.000000 0.000000 1.689780 
# 
# From -- ./inp_files/29710.got.cif
#   From: 2010.05.17/outbox.cif.g08.bks.cpg/sg72_15_cif.got.tgz:29710.got - 2010.06.03 17:03:01.
