data_PCOD9528289
_publ_section_title
;
Structure prediction by ZEFSAII (Michael W. Deem and Ramdas Pophale) SiO2 
 PCOD9528289
Probable space group: I B A M
;
_chemical_formula_sum "Si O2"
_cell_formula_units_Z 112
_cell_length_a 14.367943
_cell_length_b 24.877899
_cell_length_c 17.371060
_cell_angle_alpha 90.000000
_cell_angle_beta 90.000000
_cell_angle_gamma 90.000000
_cell_volume 6209.185249
_symmetry_space_group_name_H-M "I B A M"
_symmetry_group_IT_number 72
_symmetry_cell_setting 'orthorhombic'
loop_
_space_group_symop_operation_xyz
x,y,z
-x,-y,z
x,-y,1/2-z
-x,y,1/2-z
-x,-y,-z
x,y,-z
-x,y,1/2+z
x,-y,1/2+z
1/2+x,1/2+y,1/2+z
1/2-x,1/2-y,1/2+z
1/2+x,1/2-y,-z
1/2-x,1/2+y,-z
1/2-x,1/2-y,1/2-z
1/2+x,1/2+y,1/2-z
1/2-x,1/2+y,z
1/2+x,1/2-y,z
loop_
_atom_site_type_symbol
_atom_site_label
_atom_site_fract_x
_atom_site_fract_y
_atom_site_fract_z
Si Si1 0.390700 0.009113 0.591678
Si Si2 0.244769 0.225371 0.336103
Si Si3 0.808281 0.602514 0.356008
Si Si4 0.454055 0.285431 0.089022
Si Si5 0.019650 0.660086 0.915062
Si Si6 0.849204 0.826057 0.908146
Si Si7 0.141674 0.383501 0.821469
O O1 0.390508 0.015979 0.500000
O O2 0.346750 0.060978 0.632592
O O3 0.500000 0.000000 0.615015
O O4 0.332288 0.956442 0.613797
O O5 0.250000 0.250000 0.250000
O O6 0.138549 0.214906 0.360541
O O7 0.294597 0.270935 0.387581
O O8 0.296975 0.168472 0.343187
O O9 0.874195 0.642841 0.404272
O O10 0.705004 0.625058 0.368008
O O11 0.839229 0.606461 0.267700
O O12 0.488497 0.223741 0.088386
O O13 0.542910 0.319624 0.115843
O O14 0.431420 0.299550 0.000000
O O15 0.961784 0.633844 0.846723
O O16 0.987222 0.641359 0.000000
O O17 0.847402 0.833178 0.000000
#
# Coordination Sequence:
#
# PCOD9528289 Si02
#       7
#    16  16  16  16  16  16  16
#     4  11  24  40  61  88 121 165 211 259 318 381
#     4  12  23  39  59  92 127 164 200 256 316 370
#     4  12  23  39  58  86 123 166 207 254 316 379
#     4  10  22  37  58  88 123 164 208 253 306 375
#     4  11  20  33  56  85 121 163 205 253 306 378
#     4  11  22  38  61  87 120 166 209 249 310 382
#     4  12  24  37  58  91 124 161 207 257 319 377
#
# _framework density 18.037794000000002
#
# number of rings (size 3 to 8) (size 9 to 14) (size 15 to 20)
#    0.000    0.714    5.714    3.000    0.000    2.857 
#    0.000    0.000    0.000    0.857    0.000    5.000 
#    0.000    0.000    0.000    0.000    0.000    0.000 
#
# Total GULP energy -312764.428369 kJ/mol
# GULP energy per Si atom -5585.079078 kJ/mol
# Density = 1.799674 g / cm^3
# Si number density = 18.037794 Si / 1000 Ang^3
#
#
#
# Elastic Constant Matrix: (Units=GPa)
#
#
# Indices 1 2 3 4 5 6 
#
# 1 125.3393 42.7277 43.6216 0.0000 0.0000 0.0000
# 2 42.7277 107.9958 28.9083 0.0000 0.0000 0.0000
# 3 43.6216 28.9083 88.0084 0.0001 0.0000 0.0000
# 4 0.0000 0.0000 0.0001 24.9912 0.0000 0.0000
# 5 0.0000 0.0000 0.0000 0.0000 23.0148 0.0000
# 6 0.0000 0.0000 0.0000 0.0000 0.0000 22.9402
#
#
#
# Elastic Compliance Matrix: (Units=1/GPa)
#
#
# Indices 1 2 3 4 5 6 
#
# 1 0.010468 -0.003018 -0.004197 0.000000 0.000000 0.000000
# 2 -0.003018 0.011022 -0.002125 0.000000 0.000000 0.000000
# 3 -0.004197 -0.002125 0.014141 0.000000 0.000000 0.000000
# 4 0.000000 0.000000 0.000000 0.040014 0.000000 0.000000
# 5 0.000000 0.000000 0.000000 0.000000 0.043450 0.000000
# 6 0.000000 0.000000 0.000000 0.000000 0.000000 0.043592
#
#
# Mechanical properties :
#
#
# Convention : Reuss Voigt Hill
#
# Bulk Modulus (GPa) = 58.99200 61.31763 60.15482
# Shear Modulus (GPa) = 26.73551 27.92830 27.33190
#
# Velocity S-wave (km/s) = 3.85410 3.93914 3.89685
# Velocity P-wave (km/s) = 7.25129 7.39979 7.32591
#
# Compressibility (1/GPa) = 0.01695145
#
# Stress axis : x y z
#
# Youngs Moduli (GPa) = 95.53019 90.72417 70.71765
#
# Poissons Ratio (x) = 0.27381 0.29681
# Poissons Ratio (y) = 0.28832 0.15025
# Poissons Ratio (z) = 0.40095 0.19276
#
# Static dielectric constant tensor:
#      x y z
#    x 1.627900 0.000000 0.000000 
#    y 0.000000 1.610080 0.000000 
#    z 0.000000 0.000000 1.635370 
# 
# From -- ./inp_files/22134.got.cif
#   From: 2010.05.17/outbox.cif.g08.bks.cpg/sg72_12_cif.got.tgz:22134.got - 2010.06.03 17:03:01.
