data_PCOD9528351
_publ_section_title
;
Structure prediction by ZEFSAII (Michael W. Deem and Ramdas Pophale) SiO2 
 PCOD9528351
Probable space group: I B A M
;
_chemical_formula_sum "Si O2"
_cell_formula_units_Z 116
_cell_length_a 26.195214
_cell_length_b 8.426803
_cell_length_c 25.155966
_cell_angle_alpha 90.000000
_cell_angle_beta 90.000000
_cell_angle_gamma 90.000000
_cell_volume 5552.975930
_symmetry_space_group_name_H-M "I B A M"
_symmetry_group_IT_number 72
_symmetry_cell_setting 'orthorhombic'
loop_
_space_group_symop_operation_xyz
x,y,z
-x,-y,z
x,-y,1/2-z
-x,y,1/2-z
-x,-y,-z
x,y,-z
-x,y,1/2+z
x,-y,1/2+z
1/2+x,1/2+y,1/2+z
1/2-x,1/2-y,1/2+z
1/2+x,1/2-y,-z
1/2-x,1/2+y,-z
1/2-x,1/2-y,1/2-z
1/2+x,1/2+y,1/2-z
1/2-x,1/2+y,z
1/2+x,1/2-y,z
loop_
_atom_site_type_symbol
_atom_site_label
_atom_site_fract_x
_atom_site_fract_y
_atom_site_fract_z
Si Si1 0.296876 0.091218 0.695831
Si Si2 0.000000 0.000000 0.000000
Si Si3 0.082274 0.064197 0.083395
Si Si4 0.695321 0.490876 0.439196
Si Si5 0.550423 0.605623 0.184024
Si Si6 0.519705 0.165199 0.876620
Si Si7 0.094216 0.674140 0.723951
Si Si8 0.276502 0.194994 0.127105
O O1 0.347567 0.194902 0.705143
O O2 0.252630 0.200969 0.671928
O O3 0.282329 0.000000 0.750000
O O4 0.307939 0.946776 0.654627
O O5 0.043758 0.966021 0.046474
O O6 0.053883 0.233744 0.083301
O O7 0.139119 0.064659 0.062555
O O8 0.083731 0.002857 0.144550
O O9 0.711752 0.468269 0.500000
O O10 0.694063 0.322180 0.408732
O O11 0.734195 0.606116 0.408583
O O12 0.500000 0.500000 0.195516
O O13 0.529392 0.743171 0.145774
O O14 0.576237 0.689548 0.234657
O O15 0.555115 0.154427 0.824299
O O16 0.500000 0.000000 0.897959
O O17 0.094322 0.500000 0.750000
#
# Coordination Sequence:
#
# PCOD9528351 Si02
#       8
#    16   4  16  16  16  16  16  16
#     4  10  22  40  63  91 129 172 210 263 331 403
#     4  12  20  48  62  90 124 164 222 268 328 384
#     4  11  24  41  68  88 126 170 216 274 323 403
#     4  11  23  42  71  95 127 171 225 288 352 394
#     4  10  22  39  59  90 123 173 217 262 309 386
#     4  11  21  37  57  88 125 164 204 258 318 373
#     4  11  22  34  60  90 129 166 208 255 316 386
#     4  10  23  43  65  95 132 164 223 281 338 406
#
# _framework density 20.889697999999999
#
# number of rings (size 3 to 8) (size 9 to 14) (size 15 to 20)
#    0.000    1.379    4.138    2.069    3.862    3.862 
#    0.000    0.345    0.000    0.000    0.000    0.000 
#    0.000    0.000    0.000    0.000    0.000    0.000 
#
# Total GULP energy -323387.784274 kJ/mol
# GULP energy per Si atom -5575.651453 kJ/mol
# Density = 2.084215 g / cm^3
# Si number density = 20.889698 Si / 1000 Ang^3
#
#
#
# Elastic Constant Matrix: (Units=GPa)
#
#
# Indices 1 2 3 4 5 6 
#
# 1 65.1704 29.3145 31.8750 0.0000 0.0000 0.0000
# 2 29.3145 96.6693 18.9162 0.0000 0.0000 0.0000
# 3 31.8750 18.9162 99.6181 0.0000 0.0000 0.0000
# 4 0.0000 0.0000 0.0000 -5.1360 0.0000 0.0000
# 5 0.0000 0.0000 0.0000 0.0000 30.7726 0.0000
# 6 0.0000 0.0000 0.0000 0.0000 0.0000 26.9848
#
#
#
# Elastic Compliance Matrix: (Units=1/GPa)
#
#
# Indices 1 2 3 4 5 6 
#
# 1 0.020343 -0.005084 -0.005544 0.000000 0.000000 0.000000
# 2 -0.005084 0.012014 -0.000655 0.000000 0.000000 0.000000
# 3 -0.005544 -0.000655 0.011936 0.000000 0.000000 0.000000
# 4 0.000000 0.000000 0.000000 -0.194703 0.000000 0.000000
# 5 0.000000 0.000000 0.000000 0.000000 0.032496 0.000000
# 6 0.000000 0.000000 0.000000 0.000000 0.000000 0.037058
#
#
# Mechanical properties :
#
#
# Convention : Reuss Voigt Hill
#
# Bulk Modulus (GPa) = 46.02188 46.85214 46.43701
# Shear Modulus (GPa) = -97.94875 22.61442 -37.66716
#
# Velocity S-wave (km/s) = -6.85495 3.29380 -4.25095
# Velocity P-wave (km/s) = 6.36985 6.07804 1.34768
#
# Compressibility (1/GPa) = 0.02172879
#
# Stress axis : x y z
#
# Youngs Moduli (GPa) = 49.15772 83.23381 83.77684
#
# Poissons Ratio (x) = 0.42316 0.46443
# Poissons Ratio (y) = 0.24992 0.05484
# Poissons Ratio (z) = 0.27252 0.05449
#
# Static dielectric constant tensor:
#      x y z
#    x 1.750520 0.000000 0.000000 
#    y 0.000000 1.792230 0.000000 
#    z 0.000000 0.000000 4.860460 
# 
# From -- ./inp_files/46002.got.cif
#   From: 2010.05.17/outbox.cif.g08.bks.cpg/sg72_24_cif.got.tgz:46002.got - 2010.06.03 17:03:01.
