data_PCOD9528385
_publ_section_title
;
Structure prediction by ZEFSAII (Michael W. Deem and Ramdas Pophale) SiO2 
 PCOD9528385
Probable space group: I B A M
;
_chemical_formula_sum "Si O2"
_cell_formula_units_Z 108
_cell_length_a 5.485317
_cell_length_b 30.151117
_cell_length_c 27.864461
_cell_angle_alpha 90.000000
_cell_angle_beta 90.000000
_cell_angle_gamma 90.000000
_cell_volume 4608.459587
_symmetry_space_group_name_H-M "I B A M"
_symmetry_group_IT_number 72
_symmetry_cell_setting 'orthorhombic'
loop_
_space_group_symop_operation_xyz
x,y,z
-x,-y,z
x,-y,1/2-z
-x,y,1/2-z
-x,-y,-z
x,y,-z
-x,y,1/2+z
x,-y,1/2+z
1/2+x,1/2+y,1/2+z
1/2-x,1/2-y,1/2+z
1/2+x,1/2-y,-z
1/2-x,1/2+y,-z
1/2-x,1/2-y,1/2-z
1/2+x,1/2+y,1/2-z
1/2-x,1/2+y,z
1/2+x,1/2-y,z
loop_
_atom_site_type_symbol
_atom_site_label
_atom_site_fract_x
_atom_site_fract_y
_atom_site_fract_z
Si Si1 0.507320 0.188106 0.057195
Si Si2 0.493055 0.364309 0.442949
Si Si3 0.138058 0.543818 0.817857
Si Si4 0.500000 0.407622 0.750000
Si Si5 0.884906 0.366926 0.696442
Si Si6 0.500000 0.000000 0.000000
Si Si7 0.326526 0.539207 0.077441
Si Si8 0.477059 0.772122 0.847547
O O1 0.252253 0.163258 0.068926
O O2 0.520692 0.228500 0.094332
O O3 0.749541 0.158869 0.068454
O O4 0.509942 0.198843 0.000000
O O5 0.491483 0.368631 0.500000
O O6 0.459846 0.413746 0.423792
O O7 0.308682 0.560482 0.775241
O O8 0.264906 0.531140 0.867484
O O9 0.000000 0.500000 0.803129
O O10 0.976598 0.587713 0.827644
O O11 0.603205 0.376099 0.708181
O O12 0.948115 0.322974 0.668420
O O13 0.000000 0.363383 0.750000
O O14 0.594572 0.964927 0.042441
O O15 0.500000 0.500000 0.058324
O O16 0.734983 0.753099 0.830127
#
# Coordination Sequence:
#
# PCOD9528385 Si02
#       8
#    16  16  16   8  16   4  16  16
#     4  10  23  43  69 104 138 184 240 298 366 440
#     4  10  22  39  67  94 136 190 244 299 360 432
#     4  11  26  46  72 110 145 197 249 310 383 450
#     4  10  26  47  76 102 148 190 246 316 383 450
#     4  10  26  49  75 107 143 189 244 313 379 450
#     4  12  26  44  60  94 154 184 262 300 370 438
#     4  12  27  40  63  97 143 197 249 309 370 440
#     4  12  28  46  76 110 147 194 244 303 377 456
#
# _framework density 23.435161999999998
#
# number of rings (size 3 to 8) (size 9 to 14) (size 15 to 20)
#    0.000    1.185    1.481    2.000   10.370    4.444 
#    0.000    0.000    0.000    0.000    0.000    0.000 
#    0.000    0.000    0.000    0.000    0.000    0.000 
#
# Total GULP energy -301538.541463 kJ/mol
# GULP energy per Si atom -5584.047064 kJ/mol
# Density = 2.338182 g / cm^3
# Si number density = 23.435162 Si / 1000 Ang^3
#
#
#
# Elastic Constant Matrix: (Units=GPa)
#
#
# Indices 1 2 3 4 5 6 
#
# 1 104.3113 39.6874 18.2907 0.0000 0.0000 0.0000
# 2 39.6874 89.3710 21.8308 0.0000 0.0000 0.0000
# 3 18.2907 21.8308 69.7880 0.0000 0.0001 0.0000
# 4 0.0000 0.0000 0.0000 31.7015 0.0000 0.0000
# 5 0.0000 0.0000 0.0001 0.0000 3126.0775 0.0000
# 6 0.0000 0.0000 0.0000 0.0000 0.0000 33.1440
#
#
#
# Elastic Compliance Matrix: (Units=1/GPa)
#
#
# Indices 1 2 3 4 5 6 
#
# 1 0.011690 -0.004811 -0.001559 0.000000 0.000000 0.000000
# 2 -0.004811 0.014095 -0.003148 0.000000 0.000000 0.000000
# 3 -0.001559 -0.003148 0.015723 0.000000 0.000000 0.000000
# 4 0.000000 0.000000 0.000000 0.031544 0.000000 0.000000
# 5 0.000000 0.000000 0.000000 0.000000 0.000320 0.000000
# 6 0.000000 0.000000 0.000000 0.000000 0.000000 0.030171
#
#
# Mechanical properties :
#
#
# Convention : Reuss Voigt Hill
#
# Bulk Modulus (GPa) = 44.50032 47.00978 45.75505
# Shear Modulus (GPa) = 38.44105 650.42868 344.43487
#
# Velocity S-wave (km/s) = 4.05447 16.67772 12.13642
# Velocity P-wave (km/s) = 6.39908 19.77283 14.69546
#
# Compressibility (1/GPa) = 0.02247175
#
# Stress axis : x y z
#
# Youngs Moduli (GPa) = 85.54072 70.94930 63.60294
#
# Poissons Ratio (x) = 0.34130 0.09916
# Poissons Ratio (y) = 0.41150 0.20024
# Poissons Ratio (z) = 0.13337 0.22336
#
# Static dielectric constant tensor:
#      x y z
#    x 2.023780 0.000000 0.000000 
#    y 0.000000 1.877840 0.000000 
#    z 0.000000 0.000000 1.871370 
# 
# From -- ./inp_files/50467.got.cif
#   From: 2010.05.17/outbox.cif.g08.bks.cpg/sg72_26_cif.got.tgz:50467.got - 2010.06.03 17:03:01.
