data_PCOD9528566
_publ_section_title
;
Structure prediction by ZEFSAII (Michael W. Deem and Ramdas Pophale) SiO2 
 PCOD9528566
Probable space group: I B A M
;
_chemical_formula_sum "Si O2"
_cell_formula_units_Z 112
_cell_length_a 14.076582
_cell_length_b 14.541683
_cell_length_c 24.801043
_cell_angle_alpha 90.000000
_cell_angle_beta 90.000000
_cell_angle_gamma 90.000000
_cell_volume 5076.703890
_symmetry_space_group_name_H-M "I B A M"
_symmetry_group_IT_number 72
_symmetry_cell_setting 'orthorhombic'
loop_
_space_group_symop_operation_xyz
x,y,z
-x,-y,z
x,-y,1/2-z
-x,y,1/2-z
-x,-y,-z
x,y,-z
-x,y,1/2+z
x,-y,1/2+z
1/2+x,1/2+y,1/2+z
1/2-x,1/2-y,1/2+z
1/2+x,1/2-y,-z
1/2-x,1/2+y,-z
1/2-x,1/2-y,1/2-z
1/2+x,1/2+y,1/2-z
1/2-x,1/2+y,z
1/2+x,1/2-y,z
loop_
_atom_site_type_symbol
_atom_site_label
_atom_site_fract_x
_atom_site_fract_y
_atom_site_fract_z
Si Si1 0.403390 0.963568 0.937654
Si Si2 0.839043 0.738595 0.400500
Si Si3 0.397148 0.774181 0.277791
Si Si4 0.966363 0.259454 0.442268
Si Si5 0.284685 0.606869 0.763671
Si Si6 0.303029 0.446004 0.065220
Si Si7 0.153304 0.873889 0.612935
O O1 0.409455 0.853616 0.938251
O O2 0.300341 0.983420 0.914795
O O3 0.500000 0.000000 0.911254
O O4 0.402984 0.996206 0.000000
O O5 0.882791 0.713622 0.341958
O O6 0.822303 0.847692 0.408156
O O7 0.741866 0.684370 0.411741
O O8 0.923921 0.713849 0.440326
O O9 0.500000 0.788239 0.250000
O O10 0.360804 0.670328 0.267117
O O11 0.317307 0.843755 0.253695
O O12 0.944706 0.214516 0.500000
O O13 0.937174 0.191407 0.395103
O O14 0.281903 0.500000 0.750000
O O15 0.316673 0.613974 0.825679
O O16 0.367960 0.529650 0.084256
O O17 0.302488 0.435628 0.000000
#
# Coordination Sequence:
#
# PCOD9528566 Si02
#       7
#    16  16  16  16  16  16  16
#     4   9  18  34  56  84 117 163 213 255 302 360
#     4  11  23  40  62  92 124 164 213 262 323 382
#     4  10  22  42  67  94 125 164 211 270 332 393
#     4  11  22  37  60  88 128 170 208 256 309 376
#     4  10  22  42  67  94 125 164 211 270 332 393
#     4  11  22  37  60  88 128 170 208 256 309 376
#     4  11  23  40  62  92 124 164 213 262 323 382
#
# _framework density 22.061558999999999
#
# number of rings (size 3 to 8) (size 9 to 14) (size 15 to 20)
#    0.000    1.571    1.429    3.429    0.000    4.000 
#    2.571    4.286    0.000    0.000    0.000    0.000 
#    0.000    0.000    0.000    0.000    0.000    0.000 
#
# Total GULP energy -312664.242346 kJ/mol
# GULP energy per Si atom -5583.290042 kJ/mol
# Density = 2.201135 g / cm^3
# Si number density = 22.061559 Si / 1000 Ang^3
#
#
#
# Elastic Constant Matrix: (Units=GPa)
#
#
# Indices 1 2 3 4 5 6 
#
# 1 48.1783 -14.3305 9.3561 0.0000 0.0000 0.0000
# 2 -14.3305 86.6600 1.6380 0.0000 0.0000 0.0000
# 3 9.3561 1.6380 48.1153 0.0000 0.0000 0.0000
# 4 0.0000 0.0000 0.0000 20.5513 0.0000 0.0000
# 5 0.0000 0.0000 0.0000 0.0000 24.4925 0.0000
# 6 0.0000 0.0000 0.0000 0.0000 0.0000 27.3005
#
#
#
# Elastic Compliance Matrix: (Units=1/GPa)
#
#
# Indices 1 2 3 4 5 6 
#
# 1 0.022789 0.003855 -0.004563 0.000000 0.000000 0.000000
# 2 0.003855 0.012199 -0.001165 0.000000 0.000000 0.000000
# 3 -0.004563 -0.001165 0.021710 0.000000 0.000000 0.000000
# 4 0.000000 0.000000 0.000000 0.048659 0.000000 0.000000
# 5 0.000000 0.000000 0.000000 0.000000 0.040829 0.000000
# 6 0.000000 0.000000 0.000000 0.000000 0.000000 0.036629
#
#
# Mechanical properties :
#
#
# Convention : Reuss Voigt Hill
#
# Bulk Modulus (GPa) = 18.88484 19.58675 19.23580
# Shear Modulus (GPa) = 24.48447 26.88819 25.68633
#
# Velocity S-wave (km/s) = 3.33502 3.49489 3.41589
# Velocity P-wave (km/s) = 4.83823 5.01828 4.92908
#
# Compressibility (1/GPa) = 0.05295253
#
# Stress axis : x y z
#
# Youngs Moduli (GPa) = 43.88106 81.97523 46.06118
#
# Poissons Ratio (x) = -0.31599 0.21016
# Poissons Ratio (y) = -0.16915 0.05365
# Poissons Ratio (z) = 0.20021 0.09549
#
# Static dielectric constant tensor:
#      x y z
#    x 1.832060 0.000000 0.000000 
#    y 0.000000 1.815740 0.000000 
#    z 0.000000 0.000000 1.811800 
# 
# From -- ./inp_files/44344.got.cif
#   From: 2010.05.17/outbox.cif.g08.bks.cpg/sg72_23_cif.got.tgz:44344.got - 2010.06.03 17:03:01.
