data_PCOD9528630
_publ_section_title
;
Structure prediction by ZEFSAII (Michael W. Deem and Ramdas Pophale) SiO2 
 PCOD9528630
Probable space group: I B A M
;
_chemical_formula_sum "Si O2"
_cell_formula_units_Z 40
_cell_length_a 8.673085
_cell_length_b 20.191854
_cell_length_c 8.952233
_cell_angle_alpha 90.000000
_cell_angle_beta 90.000000
_cell_angle_gamma 90.000000
_cell_volume 1567.765767
_symmetry_space_group_name_H-M "I B A M"
_symmetry_group_IT_number 72
_symmetry_cell_setting 'orthorhombic'
loop_
_space_group_symop_operation_xyz
x,y,z
-x,-y,z
x,-y,1/2-z
-x,y,1/2-z
-x,-y,-z
x,y,-z
-x,y,1/2+z
x,-y,1/2+z
1/2+x,1/2+y,1/2+z
1/2-x,1/2-y,1/2+z
1/2+x,1/2-y,-z
1/2-x,1/2+y,-z
1/2-x,1/2-y,1/2-z
1/2+x,1/2+y,1/2-z
1/2-x,1/2+y,z
1/2+x,1/2-y,z
loop_
_atom_site_type_symbol
_atom_site_label
_atom_site_fract_x
_atom_site_fract_y
_atom_site_fract_z
Si Si1 0.176128 0.373681 0.500000
Si Si2 0.812479 0.079305 0.000000
Si Si3 0.500000 0.000000 0.500000
Si Si4 0.028208 0.193377 0.000000
Si Si5 0.500000 0.500000 0.250000
Si Si6 0.000000 0.293212 0.250000
O O1 0.357698 0.367529 0.500000
O O2 0.138709 0.449947 0.500000
O O3 0.108787 0.338378 0.352371
O O4 0.861078 0.157806 0.000000
O O5 0.890476 0.045592 0.854239
O O6 0.628605 0.064815 0.000000
O O7 0.071432 0.240826 0.863977
#
# Coordination Sequence:
#
# PCOD9528630 Si02
#       6
#     8   8   4   8   4   8
#     4  11  25  45  70 103 143 186 235 297 366 430
#     4  11  25  44  70 103 144 189 238 294 360 433
#     4  12  30  46  68 108 154 192 234 300 372 436
#     4  11  23  46  76 102 136 187 246 300 356 429
#     4  10  22  44  68  98 138 188 240 284 344 432
#     4  10  25  45  72 105 139 182 242 306 358 420
#
# _framework density 25.514016999999999
#
# number of rings (size 3 to 8) (size 9 to 14) (size 15 to 20)
#    0.000    1.200    0.000    4.800    0.000   17.600 
#    0.000    0.000    0.000    0.000    0.000    0.000 
#    0.000    0.000    0.000    0.000    0.000    0.000 
#
# Total GULP energy -111504.344923 kJ/mol
# GULP energy per Si atom -5575.217246 kJ/mol
# Density = 2.545595 g / cm^3
# Si number density = 25.514017 Si / 1000 Ang^3
#
#
#
# Elastic Constant Matrix: (Units=GPa)
#
#
# Indices 1 2 3 4 5 6 
#
# 1 99.7295 30.0362 20.5710 0.0016 -0.0001 0.0000
# 2 30.0362 149.6488 25.0385 -0.0012 0.0000 0.0000
# 3 20.5710 25.0385 154.5433 -0.0038 0.0004 0.0001
# 4 0.0016 -0.0012 -0.0038 -838.4539 -0.0036 -0.0009
# 5 -0.0001 0.0000 0.0004 -0.0036 -11.1250 0.0000
# 6 0.0000 0.0000 0.0001 -0.0009 0.0000 57.9596
#
#
#
# Elastic Compliance Matrix: (Units=1/GPa)
#
#
# Indices 1 2 3 4 5 6 
#
# 1 0.010859 -0.001992 -0.001123 0.000000 0.000000 0.000000
# 2 -0.001992 0.007234 -0.000907 0.000000 0.000000 0.000000
# 3 -0.001123 -0.000907 0.006767 0.000000 0.000000 0.000000
# 4 0.000000 0.000000 0.000000 -0.001193 0.000000 0.000000
# 5 0.000000 0.000000 0.000000 0.000000 -0.089888 0.000000
# 6 0.000000 0.000000 0.000000 0.000000 0.000000 0.017253
#
#
# Mechanical properties :
#
#
# Convention : Reuss Voigt Hill
#
# Bulk Modulus (GPa) = 59.46358 61.69033 60.57696
# Shear Modulus (GPa) = -141.56467 -136.43882 -139.00175
#
# Velocity S-wave (km/s) = -7.45691 -7.32066 -7.38910
# Velocity P-wave (km/s) = 7.12628 6.87202 7.00030
#
# Compressibility (1/GPa) = 0.01681702
#
# Stress axis : x y z
#
# Youngs Moduli (GPa) = 92.09358 138.24024 147.77487
#
# Poissons Ratio (x) = 0.27532 0.16591
# Poissons Ratio (y) = 0.18341 0.13402
# Poissons Ratio (z) = 0.10339 0.12537
#
# Static dielectric constant tensor:
#      x y z
#    x 1.963650 0.000000 0.000000 
#    y 0.000000 1.973270 0.000000 
#    z 0.000000 0.000000 1.975890 
# 
# From -- ./inp_files/1559.got.cif
#   From: 2010.05.17/outbox.cif.g08.bks.cpg/sg72_1_cif.got.tgz:1559.got - 2010.06.03 17:03:01.
