data_PCOD9528947
_publ_section_title
;
Structure prediction by ZEFSAII (Michael W. Deem and Ramdas Pophale) SiO2 
 PCOD9528947
Probable space group: I B A M
;
_chemical_formula_sum "Si O2"
_cell_formula_units_Z 48
_cell_length_a 26.313477
_cell_length_b 5.193864
_cell_length_c 15.138527
_cell_angle_alpha 90.000000
_cell_angle_beta 90.000000
_cell_angle_gamma 90.000000
_cell_volume 2068.961608
_symmetry_space_group_name_H-M "I B A M"
_symmetry_group_IT_number 72
_symmetry_cell_setting 'orthorhombic'
loop_
_space_group_symop_operation_xyz
x,y,z
-x,-y,z
x,-y,1/2-z
-x,y,1/2-z
-x,-y,-z
x,y,-z
-x,y,1/2+z
x,-y,1/2+z
1/2+x,1/2+y,1/2+z
1/2-x,1/2-y,1/2+z
1/2+x,1/2-y,-z
1/2-x,1/2+y,-z
1/2-x,1/2-y,1/2-z
1/2+x,1/2+y,1/2-z
1/2-x,1/2+y,z
1/2+x,1/2-y,z
loop_
_atom_site_type_symbol
_atom_site_label
_atom_site_fract_x
_atom_site_fract_y
_atom_site_fract_z
Si Si1 0.469184 0.750259 0.893089
Si Si2 0.353475 0.340341 0.341521
Si Si3 0.285401 0.000000 0.250000
Si Si4 0.714082 0.464843 0.500000
O O1 0.500000 0.500000 0.864202
O O2 0.411148 0.725113 0.864167
O O3 0.500000 0.000000 0.862125
O O4 0.468829 0.756433 0.000000
O O5 0.352440 0.500000 0.250000
O O6 0.323207 0.071600 0.329125
O O7 0.322611 0.495511 0.415749
O O8 0.250000 0.250000 0.250000
O O9 0.744750 0.197901 0.500000
#
# Coordination Sequence:
#
# PCOD9528947 Si02
#       4
#    16  16   8   8
#     4  10  24  48  77 108 149 195 248 310 376 447
#     4  12  28  50  78 114 153 200 256 313 379 454
#     4  12  26  46  71 102 149 196 246 310 368 434
#     4  12  30  48  76 110 152 204 252 306 380 454
#
# _framework density 23.200042
#
# number of rings (size 3 to 8) (size 9 to 14) (size 15 to 20)
#    0.000    0.667    3.333    2.000    9.333    0.667 
#    0.000    0.000    0.000    0.000    0.000    0.000 
#    0.000    0.000    0.000    0.000    0.000    0.000 
#
# Total GULP energy -134413.288532 kJ/mol
# GULP energy per Si atom -5600.553689 kJ/mol
# Density = 2.314724 g / cm^3
# Si number density = 23.200042 Si / 1000 Ang^3
#
#
#
# Elastic Constant Matrix: (Units=GPa)
#
#
# Indices 1 2 3 4 5 6 
#
# 1 254.6499 115.6161 53.6174 0.0000 0.0000 0.0000
# 2 115.6161 205.7483 47.0832 0.0000 0.0000 0.0000
# 3 53.6174 47.0832 119.8580 0.0000 0.0000 0.0000
# 4 0.0000 0.0000 0.0000 7.9583 0.0000 0.0000
# 5 0.0000 0.0000 0.0000 0.0000 24.7370 0.0000
# 6 0.0000 0.0000 0.0000 0.0000 0.0000 31.5271
#
#
#
# Elastic Compliance Matrix: (Units=1/GPa)
#
#
# Indices 1 2 3 4 5 6 
#
# 1 0.005467 -0.002761 -0.001361 0.000000 0.000000 0.000000
# 2 -0.002761 0.006734 -0.001411 0.000000 0.000000 0.000000
# 3 -0.001361 -0.001411 0.009506 0.000000 0.000000 0.000000
# 4 0.000000 0.000000 0.000000 0.125655 0.000000 0.000000
# 5 0.000000 0.000000 0.000000 0.000000 0.040425 0.000000
# 6 0.000000 0.000000 0.000000 0.000000 0.000000 0.031719
#
#
# Mechanical properties :
#
#
# Convention : Reuss Voigt Hill
#
# Bulk Modulus (GPa) = 93.95843 112.54328 103.25086
# Shear Modulus (GPa) = 21.35670 37.10712 29.23191
#
# Velocity S-wave (km/s) = 3.03734 4.00364 3.55349
# Velocity P-wave (km/s) = 7.27240 8.36585 7.83821
#
# Compressibility (1/GPa) = 0.01064300
#
# Stress axis : x y z
#
# Youngs Moduli (GPa) = 182.91940 148.49347 105.19456
#
# Poissons Ratio (x) = 0.40992 0.14319
# Poissons Ratio (y) = 0.50495 0.14838
# Poissons Ratio (z) = 0.24898 0.20945
#
# Static dielectric constant tensor:
#      x y z
#    x 1.830370 0.000000 0.000000 
#    y 0.000000 1.885400 0.000000 
#    z 0.000000 0.000000 1.942200 
# 
# From -- ./inp_files/25581.got.cif
#   From: 2010.05.17/outbox.cif.g08.bks.cpg/sg72_13_cif.got.tgz:25581.got - 2010.06.03 17:03:01.
