data_PCOD9528267
_publ_section_title
;
Structure prediction by ZEFSAII (Michael W. Deem and Ramdas Pophale) SiO2 
 PCOD9528267
Probable space group: I B A M
;
_chemical_formula_sum "Si O2"
_cell_formula_units_Z 112
_cell_length_a 27.855265
_cell_length_b 18.678380
_cell_length_c 11.160767
_cell_angle_alpha 90.000000
_cell_angle_beta 90.000000
_cell_angle_gamma 90.000000
_cell_volume 5806.849131
_symmetry_space_group_name_H-M "I B A M"
_symmetry_group_IT_number 72
_symmetry_cell_setting 'orthorhombic'
loop_
_space_group_symop_operation_xyz
x,y,z
-x,-y,z
x,-y,1/2-z
-x,y,1/2-z
-x,-y,-z
x,y,-z
-x,y,1/2+z
x,-y,1/2+z
1/2+x,1/2+y,1/2+z
1/2-x,1/2-y,1/2+z
1/2+x,1/2-y,-z
1/2-x,1/2+y,-z
1/2-x,1/2-y,1/2-z
1/2+x,1/2+y,1/2-z
1/2-x,1/2+y,z
1/2+x,1/2-y,z
loop_
_atom_site_type_symbol
_atom_site_label
_atom_site_fract_x
_atom_site_fract_y
_atom_site_fract_z
Si Si1 0.969963 0.791073 0.865641
Si Si2 0.703314 0.121514 0.872712
Si Si3 0.301862 0.711539 0.368893
Si Si4 0.358277 0.735356 0.133449
Si Si5 0.323137 0.455894 0.370414
Si Si6 0.564684 0.549020 0.633746
Si Si7 0.223791 0.379597 0.372082
O O1 0.915481 0.762843 0.856672
O O2 0.964440 0.877462 0.860807
O O3 0.000000 0.767655 0.750000
O O4 0.988498 0.772918 0.000000
O O5 0.755868 0.159714 0.868380
O O6 0.664893 0.185670 0.871565
O O7 0.700214 0.085149 0.744164
O O8 0.700035 0.082427 0.000000
O O9 0.325722 0.702799 0.500000
O O10 0.335987 0.701900 0.254702
O O11 0.282191 0.793385 0.363529
O O12 0.347054 0.703892 0.000000
O O13 0.315066 0.500000 0.250000
O O14 0.320033 0.495758 0.500000
O O15 0.378444 0.431096 0.362646
O O16 0.279415 0.400845 0.373829
O O17 0.555580 0.500000 0.750000
O O18 0.556775 0.516163 0.500000
O O19 0.202677 0.401030 0.500000
#
# Coordination Sequence:
#
# PCOD9528267 Si02
#       7
#    16  16  16  16  16  16  16
#     4  10  22  36  50  65  80 104 139 178 224 271
#     4   9  17  26  39  64  90 109 131 159 196 243
#     4   9  17  26  39  65  91 109 130 159 197 242
#     4   9  17  29  45  61  82 109 133 160 199 251
#     4   9  18  30  44  61  82 110 143 176 212 255
#     4   9  19  34  49  63  77  99 134 178 228 272
#     4   9  16  25  40  58  81 111 138 164 197 240
#
# _framework density 19.287569000000001
#
# number of rings (size 3 to 8) (size 9 to 14) (size 15 to 20)
#    0.000    2.857    0.000    1.714    4.000    3.714 
#    0.000    1.429    0.000    0.000    0.000    0.000 
#    0.000    0.000    0.000    0.000    0.000   11.429 
#
# Total GULP energy -312087.350200 kJ/mol
# GULP energy per Si atom -5572.988396 kJ/mol
# Density = 1.924367 g / cm^3
# Si number density = 19.287569 Si / 1000 Ang^3
#
#
#
# Elastic Constant Matrix: (Units=GPa)
#
#
# Indices 1 2 3 4 5 6 
#
# 1 62.4583 9.7742 55.7655 0.0000 0.0000 0.0000
# 2 9.7742 24.6589 24.0058 0.0000 0.0000 0.0000
# 3 55.7655 24.0058 241.3079 0.0000 0.0000 0.0000
# 4 0.0000 0.0000 0.0000 12.1680 0.0000 0.0000
# 5 0.0000 0.0000 0.0000 0.0000 14.3570 0.0000
# 6 0.0000 0.0000 0.0000 0.0000 0.0000 15.5626
#
#
#
# Elastic Compliance Matrix: (Units=1/GPa)
#
#
# Indices 1 2 3 4 5 6 
#
# 1 0.020505 -0.003891 -0.004351 0.000000 0.000000 0.000000
# 2 -0.003891 0.045640 -0.003641 0.000000 0.000000 0.000000
# 3 -0.004351 -0.003641 0.005512 0.000000 0.000000 0.000000
# 4 0.000000 0.000000 0.000000 0.082183 0.000000 0.000000
# 5 0.000000 0.000000 0.000000 0.000000 0.069652 0.000000
# 6 0.000000 0.000000 0.000000 0.000000 0.000000 0.064257
#
#
# Mechanical properties :
#
#
# Convention : Reuss Voigt Hill
#
# Bulk Modulus (GPa) = 20.88154 56.39068 38.63611
# Shear Modulus (GPa) = 15.26812 24.34284 19.80548
#
# Velocity S-wave (km/s) = 2.81660 3.55646 3.20793
# Velocity P-wave (km/s) = 4.62899 6.79447 5.81345
#
# Compressibility (1/GPa) = 0.04788920
#
# Stress axis : x y z
#
# Youngs Moduli (GPa) = 48.76899 21.91041 181.42495
#
# Poissons Ratio (x) = 0.08526 0.78947
# Poissons Ratio (y) = 0.18978 0.66059
# Poissons Ratio (z) = 0.21222 0.07978
#
# Static dielectric constant tensor:
#      x y z
#    x 1.645260 0.000000 0.000000 
#    y 0.000000 1.690870 0.000000 
#    z 0.000000 0.000000 1.816460 
# 
# From -- ./inp_files/14901.got.cif
#   From: 2010.05.17/outbox.cif.g08.bks.cpg/sg72_8_cif.got.tgz:14901.got - 2010.06.03 17:03:01.
