data_PCOD9528093
_publ_section_title
;
Structure prediction by ZEFSAII (Michael W. Deem and Ramdas Pophale) SiO2 
 PCOD9528093
Probable space group: I B A M
;
_chemical_formula_sum "Si O2"
_cell_formula_units_Z 104
_cell_length_a 20.940005
_cell_length_b 9.099589
_cell_length_c 26.125678
_cell_angle_alpha 90.000000
_cell_angle_beta 90.000000
_cell_angle_gamma 90.000000
_cell_volume 4978.128788
_symmetry_space_group_name_H-M "I B A M"
_symmetry_group_IT_number 72
_symmetry_cell_setting 'orthorhombic'
loop_
_space_group_symop_operation_xyz
x,y,z
-x,-y,z
x,-y,1/2-z
-x,y,1/2-z
-x,-y,-z
x,y,-z
-x,y,1/2+z
x,-y,1/2+z
1/2+x,1/2+y,1/2+z
1/2-x,1/2-y,1/2+z
1/2+x,1/2-y,-z
1/2-x,1/2+y,-z
1/2-x,1/2-y,1/2-z
1/2+x,1/2+y,1/2-z
1/2-x,1/2+y,z
1/2+x,1/2-y,z
loop_
_atom_site_type_symbol
_atom_site_label
_atom_site_fract_x
_atom_site_fract_y
_atom_site_fract_z
Si Si1 0.108641 0.785368 0.661996
Si Si2 0.780776 0.977201 0.191962
Si Si3 0.000000 0.000000 0.850767
Si Si4 0.069972 0.524712 0.809860
Si Si5 0.705091 0.083133 0.409239
Si Si6 0.381298 0.695520 0.637552
Si Si7 0.170109 0.746496 0.442830
O O1 0.168243 0.844972 0.693934
O O2 0.107702 0.612338 0.668489
O O3 0.123899 0.805420 0.601794
O O4 0.044580 0.875592 0.676937
O O5 0.727913 0.939970 0.149803
O O6 0.757781 0.000000 0.250000
O O7 0.824921 0.103246 0.165249
O O8 0.057345 0.904804 0.876463
O O9 0.067637 0.500000 0.750000
O O10 0.093572 0.685224 0.822262
O O11 0.000000 0.500000 0.832750
O O12 0.649073 0.204629 0.407106
O O13 0.765460 0.157605 0.436835
O O14 0.686805 0.925088 0.432049
O O15 0.144466 0.761458 0.500000
#
# Coordination Sequence:
#
# PCOD9528093 Si02
#       7
#    16  16   8  16  16  16  16
#     4  10  21  40  61  88 125 165 207 260 307 365
#     4  10  22  38  58  90 128 171 206 247 310 376
#     4  10  22  40  62  84 122 170 202 252 310 364
#     4  11  21  34  56  88 121 164 208 250 294 356
#     4  11  22  40  63  92 126 159 203 259 313 368
#     4  11  21  38  61  85 125 166 203 253 304 365
#     4  11  23  42  66  93 122 158 206 259 318 378
#
# _framework density 20.891383000000001
#
# number of rings (size 3 to 8) (size 9 to 14) (size 15 to 20)
#    0.000    1.385    4.615    1.385    0.000    1.231 
#    0.000    2.692    0.000    5.077    0.000    0.000 
#    0.000    0.000    0.000    0.000    0.000    0.000 
#
# Total GULP energy -290043.432426 kJ/mol
# GULP energy per Si atom -5577.758316 kJ/mol
# Density = 2.084383 g / cm^3
# Si number density = 20.891383 Si / 1000 Ang^3
#
#
#
# Elastic Constant Matrix: (Units=GPa)
#
#
# Indices 1 2 3 4 5 6 
#
# 1 66.7146 32.8117 -3.2998 0.0000 0.0000 0.0000
# 2 32.8117 113.0541 -2.3494 0.0000 0.0000 0.0000
# 3 -3.2998 -2.3494 74.1992 0.0000 0.0000 0.0000
# 4 0.0000 0.0000 0.0000 14.9518 0.0000 0.0000
# 5 0.0000 0.0000 0.0000 0.0000 8.8221 0.0000
# 6 0.0000 0.0000 0.0000 0.0000 0.0000 5.3677
#
#
#
# Elastic Compliance Matrix: (Units=1/GPa)
#
#
# Indices 1 2 3 4 5 6 
#
# 1 0.017513 -0.005070 0.000618 0.000000 0.000000 0.000000
# 2 -0.005070 0.010319 0.000101 0.000000 0.000000 0.000000
# 3 0.000618 0.000101 0.013508 0.000000 0.000000 0.000000
# 4 0.000000 0.000000 0.000000 0.066882 0.000000 0.000000
# 5 0.000000 0.000000 0.000000 0.000000 0.113352 0.000000
# 6 0.000000 0.000000 0.000000 0.000000 0.000000 0.186298
#
#
# Mechanical properties :
#
#
# Convention : Reuss Voigt Hill
#
# Bulk Modulus (GPa) = 30.63796 34.25477 32.44636
# Shear Modulus (GPa) = 11.69720 20.94869 16.32295
#
# Velocity S-wave (km/s) = 2.36880 3.17005 2.79825
# Velocity P-wave (km/s) = 4.70944 5.46179 5.09951
#
# Compressibility (1/GPa) = 0.03263925
#
# Stress axis : x y z
#
# Youngs Moduli (GPa) = 57.09930 96.90953 74.03058
#
# Poissons Ratio (x) = 0.49134 -0.04577
# Poissons Ratio (y) = 0.28950 -0.00750
# Poissons Ratio (z) = -0.03531 -0.00981
#
# Static dielectric constant tensor:
#      x y z
#    x 1.810940 0.000000 0.000000 
#    y 0.000000 1.780900 0.000000 
#    z 0.000000 0.000000 1.668290 
# 
# From -- ./inp_files/47423.got.cif
#   From: 2010.05.17/outbox.cif.g08.bks.cpg/sg72_24_cif.got.tgz:47423.got - 2010.06.03 17:03:01.
