data_PCOD9528439
_publ_section_title
;
Structure prediction by ZEFSAII (Michael W. Deem and Ramdas Pophale) SiO2 
 PCOD9528439
Probable space group: I B A M
;
_chemical_formula_sum "Si O2"
_cell_formula_units_Z 72
_cell_length_a 18.825654
_cell_length_b 17.957517
_cell_length_c 10.516354
_cell_angle_alpha 90.000000
_cell_angle_beta 90.000000
_cell_angle_gamma 90.000000
_cell_volume 3555.179684
_symmetry_space_group_name_H-M "I B A M"
_symmetry_group_IT_number 72
_symmetry_cell_setting 'orthorhombic'
loop_
_space_group_symop_operation_xyz
x,y,z
-x,-y,z
x,-y,1/2-z
-x,y,1/2-z
-x,-y,-z
x,y,-z
-x,y,1/2+z
x,-y,1/2+z
1/2+x,1/2+y,1/2+z
1/2-x,1/2-y,1/2+z
1/2+x,1/2-y,-z
1/2-x,1/2+y,-z
1/2-x,1/2-y,1/2-z
1/2+x,1/2+y,1/2-z
1/2-x,1/2+y,z
1/2+x,1/2-y,z
loop_
_atom_site_type_symbol
_atom_site_label
_atom_site_fract_x
_atom_site_fract_y
_atom_site_fract_z
Si Si1 0.805759 0.588318 0.232385
Si Si2 0.107925 0.349694 0.000000
Si Si3 0.147645 0.089568 0.249983
Si Si4 0.169298 0.328560 0.500000
Si Si5 0.326260 0.686881 0.000000
Si Si6 0.984075 0.736704 0.500000
Si Si7 0.000000 0.832576 0.250000
O O1 0.806776 0.500000 0.250000
O O2 0.724594 0.608082 0.187549
O O3 0.826290 0.624386 0.368618
O O4 0.860147 0.613398 0.125033
O O5 0.131796 0.263365 0.000000
O O6 0.023067 0.343193 0.000000
O O7 0.069733 0.119227 0.286754
O O8 0.143741 0.000000 0.250000
O O9 0.158553 0.132429 0.117144
O O10 0.244574 0.287246 0.500000
O O11 0.100264 0.277111 0.500000
O O12 0.007259 0.780636 0.373472
#
# Coordination Sequence:
#
# PCOD9528439 Si02
#       7
#    16   8  16   8   8   8   8
#     4  10  23  42  67  94 124 165 215 265 319 377
#     4  12  23  42  66  91 135 161 212 271 313 362
#     4  10  22  40  64  93 132 166 208 256 315 378
#     4  10  23  40  65  89 129 163 217 253 321 373
#     4  10  22  41  63  95 124 169 214 265 307 367
#     4  12  26  41  59  96 131 162 211 267 313 367
#     4  12  23  40  60  94 133 170 206 250 315 382
#
# _framework density 20.252140000000001
#
# number of rings (size 3 to 8) (size 9 to 14) (size 15 to 20)
#    0.000    1.333    2.222    2.333    3.111    5.333 
#    0.000    5.556    0.000    0.000    0.000    0.000 
#    0.000    0.000    0.000    0.000    0.000    0.000 
#
# Total GULP energy -200619.826135 kJ/mol
# GULP energy per Si atom -5572.772948 kJ/mol
# Density = 2.020605 g / cm^3
# Si number density = 20.252140 Si / 1000 Ang^3
#
#
#
# Elastic Constant Matrix: (Units=GPa)
#
#
# Indices 1 2 3 4 5 6 
#
# 1 121.5910 33.5426 21.1822 0.0000 0.0000 0.0000
# 2 33.5426 72.8974 27.0750 0.0000 0.0000 0.0000
# 3 21.1822 27.0750 89.1830 0.0000 0.0000 0.0000
# 4 0.0000 0.0000 0.0000 6.0724 0.0000 0.0000
# 5 0.0000 0.0000 0.0000 0.0000 8.0714 0.0000
# 6 0.0000 0.0000 0.0000 0.0000 0.0000 43.0091
#
#
#
# Elastic Compliance Matrix: (Units=1/GPa)
#
#
# Indices 1 2 3 4 5 6 
#
# 1 0.009506 -0.003985 -0.001048 0.000000 0.000000 0.000000
# 2 -0.003985 0.017132 -0.004255 0.000000 0.000000 0.000000
# 3 -0.001048 -0.004255 0.012753 0.000000 0.000000 0.000000
# 4 0.000000 0.000000 0.000000 0.164681 0.000000 0.000000
# 5 0.000000 0.000000 0.000000 0.000000 0.123894 0.000000
# 6 0.000000 0.000000 0.000000 0.000000 0.000000 0.023251
#
#
# Mechanical properties :
#
#
# Convention : Reuss Voigt Hill
#
# Bulk Modulus (GPa) = 48.03914 49.69677 48.86795
# Shear Modulus (GPa) = 13.27209 24.88866 19.08037
#
# Velocity S-wave (km/s) = 2.56274 3.50943 3.07276
# Velocity P-wave (km/s) = 5.70341 6.40420 6.06394
#
# Compressibility (1/GPa) = 0.02081636
#
# Stress axis : x y z
#
# Youngs Moduli (GPa) = 105.19495 58.37139 78.41001
#
# Poissons Ratio (x) = 0.23260 0.08218
# Poissons Ratio (y) = 0.41919 0.33360
# Poissons Ratio (z) = 0.11025 0.24834
#
# Static dielectric constant tensor:
#      x y z
#    x 1.802880 0.000000 0.000000 
#    y 0.000000 1.668870 0.000000 
#    z 0.000000 0.000000 1.678520 
# 
# From -- ./inp_files/13662.got.cif
#   From: 2010.05.17/outbox.cif.g08.bks.cpg/sg72_7_cif.got.tgz:13662.got - 2010.06.03 17:03:01.
