data_PCOD9528123
_publ_section_title
;
Structure prediction by ZEFSAII (Michael W. Deem and Ramdas Pophale) SiO2 
 PCOD9528123
Probable space group: I B A M
;
_chemical_formula_sum "Si O2"
_cell_formula_units_Z 116
_cell_length_a 9.172535
_cell_length_b 23.045376
_cell_length_c 26.696545
_cell_angle_alpha 90.000000
_cell_angle_beta 90.000000
_cell_angle_gamma 90.000000
_cell_volume 5643.236296
_symmetry_space_group_name_H-M "I B A M"
_symmetry_group_IT_number 72
_symmetry_cell_setting 'orthorhombic'
loop_
_space_group_symop_operation_xyz
x,y,z
-x,-y,z
x,-y,1/2-z
-x,y,1/2-z
-x,-y,-z
x,y,-z
-x,y,1/2+z
x,-y,1/2+z
1/2+x,1/2+y,1/2+z
1/2-x,1/2-y,1/2+z
1/2+x,1/2-y,-z
1/2-x,1/2+y,-z
1/2-x,1/2-y,1/2-z
1/2+x,1/2+y,1/2-z
1/2-x,1/2+y,z
1/2+x,1/2-y,z
loop_
_atom_site_type_symbol
_atom_site_label
_atom_site_fract_x
_atom_site_fract_y
_atom_site_fract_z
Si Si1 0.906863 0.945973 0.825855
Si Si2 0.291173 0.256505 0.625164
Si Si3 0.407800 0.412980 0.920747
Si Si4 0.392750 0.855020 0.179701
Si Si5 0.453918 0.716385 0.442532
Si Si6 0.839826 0.525108 0.126136
Si Si7 0.000000 0.000000 0.500000
Si Si8 0.727324 0.843547 0.212597
O O1 0.838712 0.897270 0.790794
O O2 0.014525 0.916057 0.866484
O O3 0.765884 0.975375 0.852281
O O4 0.000000 0.000000 0.805200
O O5 0.348171 0.191919 0.638041
O O6 0.387624 0.285601 0.581991
O O7 0.135595 0.252260 0.598622
O O8 0.289466 0.293190 0.676560
O O9 0.391138 0.348426 0.940118
O O10 0.252769 0.446203 0.918841
O O11 0.509005 0.449911 0.956749
O O12 0.353686 0.920792 0.164626
O O13 0.565564 0.855493 0.190424
O O14 0.305873 0.833949 0.229112
O O15 0.451991 0.737261 0.500000
O O16 0.000000 0.500000 0.115115
#
# Coordination Sequence:
#
# PCOD9528123 Si02
#       8
#    16  16  16  16  16  16   4  16
#     4  10  21  40  64  94 126 170 217 266 332 387
#     4  12  24  45  68  96 135 174 223 286 329 400
#     4  11  22  39  67  92 126 170 216 277 334 398
#     4  11  24  40  65 100 134 180 222 265 341 404
#     4  12  25  42  69  97 128 173 223 282 344 396
#     4  11  21  39  64  90 130 172 212 266 331 391
#     4  12  20  40  70  88 122 172 230 260 348 410
#     4  11  23  42  66  98 136 181 221 268 339 412
#
# _framework density 20.555582000000001
#
# number of rings (size 3 to 8) (size 9 to 14) (size 15 to 20)
#    0.000    0.828    8.276    0.828    0.000    0.552 
#    0.000    7.931    0.000    0.000    0.000    0.000 
#    0.000    0.000    0.000    0.000    0.000    0.000 
#
# Total GULP energy -323078.858579 kJ/mol
# GULP energy per Si atom -5570.325148 kJ/mol
# Density = 2.050880 g / cm^3
# Si number density = 20.555582 Si / 1000 Ang^3
#
#
#
# Elastic Constant Matrix: (Units=GPa)
#
#
# Indices 1 2 3 4 5 6 
#
# 1 85.0692 8.2580 6.5642 0.0000 0.0000 0.0000
# 2 8.2580 49.7650 16.8092 0.0000 0.0000 0.0000
# 3 6.5642 16.8092 74.1456 0.0000 0.0000 0.0000
# 4 0.0000 0.0000 0.0000 23.9300 0.0000 0.0000
# 5 0.0000 0.0000 0.0000 0.0000 -24.8633 0.0000
# 6 0.0000 0.0000 0.0000 0.0000 0.0000 33.0595
#
#
#
# Elastic Compliance Matrix: (Units=1/GPa)
#
#
# Indices 1 2 3 4 5 6 
#
# 1 0.011977 -0.001764 -0.000660 0.000000 0.000000 0.000000
# 2 -0.001764 0.022021 -0.004836 0.000000 0.000000 0.000000
# 3 -0.000660 -0.004836 0.014642 0.000000 0.000000 0.000000
# 4 0.000000 0.000000 0.000000 0.041789 0.000000 0.000000
# 5 0.000000 0.000000 0.000000 0.000000 -0.040220 0.000000
# 6 0.000000 0.000000 0.000000 0.000000 0.000000 0.030248
#
#
# Mechanical properties :
#
#
# Convention : Reuss Voigt Hill
#
# Bulk Modulus (GPa) = 29.30987 30.24918 29.77953
# Shear Modulus (GPa) = 47.01396 18.24847 32.63121
#
# Velocity S-wave (km/s) = 4.78762 2.98277 3.98862
# Velocity P-wave (km/s) = 6.69713 5.15851 5.97753
#
# Compressibility (1/GPa) = 0.03411820
#
# Stress axis : x y z
#
# Youngs Moduli (GPa) = 83.49074 45.41187 68.29768
#
# Poissons Ratio (x) = 0.08013 0.04510
# Poissons Ratio (y) = 0.14732 0.33029
# Poissons Ratio (z) = 0.05513 0.21961
#
# Static dielectric constant tensor:
#      x y z
#    x 1.777310 0.000000 0.000000 
#    y 0.000000 1.727300 0.000000 
#    z 0.000000 0.000000 1.693850 
# 
# From -- ./inp_files/46001.got.cif
#   From: 2010.05.17/outbox.cif.g08.bks.cpg/sg72_24_cif.got.tgz:46001.got - 2010.06.03 17:03:01.
