data_PCOD9528165
_publ_section_title
;
Structure prediction by ZEFSAII (Michael W. Deem and Ramdas Pophale) SiO2 
 PCOD9528165
Probable space group: I B A M
;
_chemical_formula_sum "Si O2"
_cell_formula_units_Z 72
_cell_length_a 25.079209
_cell_length_b 11.760081
_cell_length_c 11.302968
_cell_angle_alpha 90.000000
_cell_angle_beta 90.000000
_cell_angle_gamma 90.000000
_cell_volume 3333.624243
_symmetry_space_group_name_H-M "I B A M"
_symmetry_group_IT_number 72
_symmetry_cell_setting 'orthorhombic'
loop_
_space_group_symop_operation_xyz
x,y,z
-x,-y,z
x,-y,1/2-z
-x,y,1/2-z
-x,-y,-z
x,y,-z
-x,y,1/2+z
x,-y,1/2+z
1/2+x,1/2+y,1/2+z
1/2-x,1/2-y,1/2+z
1/2+x,1/2-y,-z
1/2-x,1/2+y,-z
1/2-x,1/2-y,1/2-z
1/2+x,1/2+y,1/2-z
1/2-x,1/2+y,z
1/2+x,1/2-y,z
loop_
_atom_site_type_symbol
_atom_site_label
_atom_site_fract_x
_atom_site_fract_y
_atom_site_fract_z
Si Si1 0.187865 0.807133 0.371763
Si Si2 0.961590 0.170656 0.136006
Si Si3 0.379806 0.500000 0.750000
Si Si4 0.079594 0.569310 0.129692
Si Si5 0.801646 0.387713 0.812384
O O1 0.168066 0.773375 0.500000
O O2 0.179854 0.704870 0.282381
O O3 0.251098 0.833027 0.376015
O O4 0.156652 0.916564 0.326743
O O5 0.941171 0.301133 0.139489
O O6 0.000000 0.156796 0.250000
O O7 0.915241 0.079761 0.164547
O O8 0.981952 0.151757 0.000000
O O9 0.065531 0.500000 0.250000
O O10 0.144064 0.575534 0.125475
O O11 0.062006 0.523072 0.000000
O O12 0.779657 0.500000 0.750000
#
# Coordination Sequence:
#
# PCOD9528165 Si02
#       5
#    16  16   8  16  16
#     4  11  23  38  63  95 132 179 223 267 324 396
#     4  11  26  47  71  97 131 172 222 282 339 394
#     4  12  23  46  64  98 136 170 223 272 334 392
#     4  10  22  42  67  98 136 174 216 271 332 392
#     4  10  21  41  60  94 134 176 222 267 322 389
#
# _framework density 21.598115
#
# number of rings (size 3 to 8) (size 9 to 14) (size 15 to 20)
#    0.000    1.333    3.333    1.667    0.000    8.444 
#    0.000    2.222    0.000    0.000    0.000    0.000 
#    0.000    0.000    0.000    0.000    0.000    0.000 
#
# Total GULP energy -200938.047372 kJ/mol
# GULP energy per Si atom -5581.612427 kJ/mol
# Density = 2.154896 g / cm^3
# Si number density = 21.598115 Si / 1000 Ang^3
#
#
#
# Elastic Constant Matrix: (Units=GPa)
#
#
# Indices 1 2 3 4 5 6 
#
# 1 64.2527 9.8290 43.3739 0.0000 0.0000 0.0000
# 2 9.8290 102.3265 61.9589 0.0000 0.0000 0.0000
# 3 43.3739 61.9589 206.7194 0.0000 0.0000 0.0000
# 4 0.0000 0.0000 0.0000-1888.0266 0.0000 0.0000
# 5 0.0000 0.0000 0.0000 0.0000 -71.1274 0.0000
# 6 0.0000 0.0000 0.0000 0.0000 0.0000 32.6987
#
#
#
# Elastic Compliance Matrix: (Units=1/GPa)
#
#
# Indices 1 2 3 4 5 6 
#
# 1 0.018171 0.000688 -0.004019 0.000000 0.000000 0.000000
# 2 0.000688 0.011966 -0.003731 0.000000 0.000000 0.000000
# 3 -0.004019 -0.003731 0.006799 0.000000 0.000000 0.000000
# 4 0.000000 0.000000 0.000000 -0.000530 0.000000 0.000000
# 5 0.000000 0.000000 0.000000 0.000000 -0.014059 0.000000
# 6 0.000000 0.000000 0.000000 0.000000 0.000000 0.030582
#
#
# Mechanical properties :
#
#
# Convention : Reuss Voigt Hill
#
# Bulk Modulus (GPa) = 43.83570 67.06914 55.45242
# Shear Modulus (GPa) = 66.97350 -368.08195 -150.55423
#
# Velocity S-wave (km/s) = 5.57461 -13.06879 -8.35814
# Velocity P-wave (km/s) = 7.85972 14.02154 8.21061
#
# Compressibility (1/GPa) = 0.02281246
#
# Stress axis : x y z
#
# Youngs Moduli (GPa) = 55.03189 83.57360 147.08230
#
# Poissons Ratio (x) = -0.05750 0.59111
# Poissons Ratio (y) = -0.03786 0.54872
# Poissons Ratio (z) = 0.22117 0.31179
#
# Static dielectric constant tensor:
#      x y z
#    x 1.788250 0.000000 0.000000 
#    y 0.000000 1.712030 0.000000 
#    z 0.000000 0.000000 1.799020 
# 
# From -- ./inp_files/16076.got.cif
#   From: 2010.05.17/outbox.cif.g08.bks.cpg/sg72_9_cif.got.tgz:16076.got - 2010.06.03 17:03:01.
