data_PCOD9528938
_publ_section_title
;
Structure prediction by ZEFSAII (Michael W. Deem and Ramdas Pophale) SiO2 
 PCOD9528938
Probable space group: I B A M
;
_chemical_formula_sum "Si O2"
_cell_formula_units_Z 64
_cell_length_a 14.836252
_cell_length_b 11.901751
_cell_length_c 16.923448
_cell_angle_alpha 90.000000
_cell_angle_beta 90.000000
_cell_angle_gamma 90.000000
_cell_volume 2988.298059
_symmetry_space_group_name_H-M "I B A M"
_symmetry_group_IT_number 72
_symmetry_cell_setting 'orthorhombic'
loop_
_space_group_symop_operation_xyz
x,y,z
-x,-y,z
x,-y,1/2-z
-x,y,1/2-z
-x,-y,-z
x,y,-z
-x,y,1/2+z
x,-y,1/2+z
1/2+x,1/2+y,1/2+z
1/2-x,1/2-y,1/2+z
1/2+x,1/2-y,-z
1/2-x,1/2+y,-z
1/2-x,1/2-y,1/2-z
1/2+x,1/2+y,1/2-z
1/2-x,1/2+y,z
1/2+x,1/2-y,z
loop_
_atom_site_type_symbol
_atom_site_label
_atom_site_fract_x
_atom_site_fract_y
_atom_site_fract_z
Si Si1 0.704956 0.758852 0.661825
Si Si2 0.543107 0.623354 0.596277
Si Si3 0.619138 0.217850 0.409162
Si Si4 0.598681 0.013267 0.156878
O O1 0.750000 0.750000 0.750000
O O2 0.637682 0.655924 0.638433
O O3 0.789149 0.783645 0.604760
O O4 0.642843 0.867357 0.647390
O O5 0.500000 0.500000 0.612632
O O6 0.554761 0.630528 0.500000
O O7 0.467086 0.714687 0.623480
O O8 0.599568 0.200950 0.500000
O O9 0.646375 0.098315 0.372600
O O10 0.500000 0.000000 0.119385
O O11 0.590787 0.000000 0.250000
#
# Coordination Sequence:
#
# PCOD9528938 Si02
#       4
#    16  16  16  16
#     4  12  25  43  71 103 138 183 229 286 349 416
#     4  10  24  47  70 100 144 186 230 287 349 417
#     4  11  25  43  70 104 135 182 235 284 343 411
#     4  11  23  44  70  94 137 180 225 288 339 408
#
# _framework density 21.416874
#
# number of rings (size 3 to 8) (size 9 to 14) (size 15 to 20)
#    0.000    1.000    5.000    0.750    3.500    3.500 
#    0.000    1.250    0.000    0.000    0.000    0.000 
#    0.000    0.000    0.000    0.000    0.000    0.000 
#
# Total GULP energy -178310.943974 kJ/mol
# GULP energy per Si atom -5572.216999 kJ/mol
# Density = 2.136813 g / cm^3
# Si number density = 21.416874 Si / 1000 Ang^3
#
#
#
# Elastic Constant Matrix: (Units=GPa)
#
#
# Indices 1 2 3 4 5 6 
#
# 1 143.5066 44.7380 27.1992 0.0000 0.0000 0.0000
# 2 44.7380 100.3313 27.5612 0.0000 0.0000 0.0000
# 3 27.1992 27.5612 47.1088 0.0000 0.0000 0.0000
# 4 0.0000 0.0000 0.0000 18.5208 0.0000 0.0000
# 5 0.0000 0.0000 0.0000 0.0000 32.9186 0.0000
# 6 0.0000 0.0000 0.0000 0.0000 0.0000 5.5176
#
#
#
# Elastic Compliance Matrix: (Units=1/GPa)
#
#
# Indices 1 2 3 4 5 6 
#
# 1 0.008479 -0.002903 -0.003198 0.000000 0.000000 0.000000
# 2 -0.002903 0.012869 -0.005853 0.000000 0.000000 0.000000
# 3 -0.003198 -0.005853 0.026498 0.000000 0.000000 0.000000
# 4 0.000000 0.000000 0.000000 0.053993 0.000000 0.000000
# 5 0.000000 0.000000 0.000000 0.000000 0.030378 0.000000
# 6 0.000000 0.000000 0.000000 0.000000 0.000000 0.181238
#
#
# Mechanical properties :
#
#
# Convention : Reuss Voigt Hill
#
# Bulk Modulus (GPa) = 41.77149 54.43817 48.10483
# Shear Modulus (GPa) = 14.47837 24.15460 19.31649
#
# Velocity S-wave (km/s) = 2.60287 3.36196 3.00647
# Velocity P-wave (km/s) = 5.34599 6.36741 5.87893
#
# Compressibility (1/GPa) = 0.02393977
#
# Stress axis : x y z
#
# Youngs Moduli (GPa) = 117.93536 77.70518 37.73851
#
# Poissons Ratio (x) = 0.22554 0.12067
# Poissons Ratio (y) = 0.34231 0.22090
# Poissons Ratio (z) = 0.37710 0.45483
#
# Static dielectric constant tensor:
#      x y z
#    x 2.225780 0.000000 0.000000 
#    y 0.000000 1.915360 0.000000 
#    z 0.000000 0.000000 1.784780 
# 
# From -- ./inp_files/28774.got.cif
#   From: 2010.05.17/outbox.cif.g08.bks.cpg/sg72_15_cif.got.tgz:28774.got - 2010.06.03 17:03:01.
