data_PCOD9528873
_publ_section_title
;
Structure prediction by ZEFSAII (Michael W. Deem and Ramdas Pophale) SiO2 
 PCOD9528873
Probable space group: I B A M
;
_chemical_formula_sum "Si O2"
_cell_formula_units_Z 64
_cell_length_a 14.883473
_cell_length_b 9.555919
_cell_length_c 21.640230
_cell_angle_alpha 90.000000
_cell_angle_beta 90.000000
_cell_angle_gamma 90.000000
_cell_volume 3077.787391
_symmetry_space_group_name_H-M "I B A M"
_symmetry_group_IT_number 72
_symmetry_cell_setting 'orthorhombic'
loop_
_space_group_symop_operation_xyz
x,y,z
-x,-y,z
x,-y,1/2-z
-x,y,1/2-z
-x,-y,-z
x,y,-z
-x,y,1/2+z
x,-y,1/2+z
1/2+x,1/2+y,1/2+z
1/2-x,1/2-y,1/2+z
1/2+x,1/2-y,-z
1/2-x,1/2+y,-z
1/2-x,1/2-y,1/2-z
1/2+x,1/2+y,1/2-z
1/2-x,1/2+y,z
1/2+x,1/2-y,z
loop_
_atom_site_type_symbol
_atom_site_label
_atom_site_fract_x
_atom_site_fract_y
_atom_site_fract_z
Si Si1 0.500000 0.500000 0.903515
Si Si2 0.803309 0.085169 0.569244
Si Si3 0.892479 0.500000 0.750000
Si Si4 0.736701 0.153443 0.844955
Si Si5 0.563070 0.283248 0.694550
O O1 0.593517 0.463776 0.935333
O O2 0.520916 0.640361 0.864192
O O3 0.771747 0.123207 0.500000
O O4 0.793241 0.206436 0.620310
O O5 0.749591 0.957871 0.600111
O O6 0.833268 0.403287 0.704869
O O7 0.938137 0.384843 0.795837
O O8 0.832162 0.173704 0.809791
O O9 0.500000 0.336565 0.750000
#
# Coordination Sequence:
#
# PCOD9528873 Si02
#       5
#     8  16   8  16  16
#     4  10  24  40  66  96 128 175 225 272 328 390
#     4  11  23  44  67  93 131 178 227 274 322 386
#     4  12  23  40  65  98 134 170 210 273 332 398
#     4  11  24  40  66  99 128 172 225 268 328 396
#     4  11  23  37  62  96 136 168 208 267 334 393
#
# _framework density 20.794159000000001
#
# number of rings (size 3 to 8) (size 9 to 14) (size 15 to 20)
#    0.000    1.000    2.500    4.125    7.000    0.000 
#    0.000    0.000    0.000    1.500    0.000    0.000 
#    0.000    0.000    0.000    0.000    0.000    0.000 
#
# Total GULP energy -178473.817879 kJ/mol
# GULP energy per Si atom -5577.306809 kJ/mol
# Density = 2.074683 g / cm^3
# Si number density = 20.794159 Si / 1000 Ang^3
#
#
#
# Elastic Constant Matrix: (Units=GPa)
#
#
# Indices 1 2 3 4 5 6 
#
# 1 66.3019 15.6284 35.6905 0.0000 0.0000 0.0000
# 2 15.6284 112.1497 30.8417 0.0000 0.0000 0.0000
# 3 35.6905 30.8417 100.7770 0.0000 0.0000 0.0000
# 4 0.0000 0.0000 0.0000 25.6035 0.0000 0.0000
# 5 0.0000 0.0000 0.0000 0.0000 4.3552 0.0000
# 6 0.0000 0.0000 0.0000 0.0000 0.0000 24.1951
#
#
#
# Elastic Compliance Matrix: (Units=1/GPa)
#
#
# Indices 1 2 3 4 5 6 
#
# 1 0.018710 -0.000857 -0.006364 0.000000 0.000000 0.000000
# 2 -0.000857 0.009775 -0.002688 0.000000 0.000000 0.000000
# 3 -0.006364 -0.002688 0.012999 0.000000 0.000000 0.000000
# 4 0.000000 0.000000 0.000000 0.039057 0.000000 0.000000
# 5 0.000000 0.000000 0.000000 0.000000 0.229608 0.000000
# 6 0.000000 0.000000 0.000000 0.000000 0.000000 0.041331
#
#
# Mechanical properties :
#
#
# Convention : Reuss Voigt Hill
#
# Bulk Modulus (GPa) = 46.15408 49.28329 47.71869
# Shear Modulus (GPa) = 13.20929 23.96864 18.58896
#
# Velocity S-wave (km/s) = 2.52313 3.39877 2.99315
# Velocity P-wave (km/s) = 5.54366 6.25733 5.91127
#
# Compressibility (1/GPa) = 0.02166656
#
# Stress axis : x y z
#
# Youngs Moduli (GPa) = 53.44639 102.29832 76.92680
#
# Poissons Ratio (x) = 0.08769 0.48956
# Poissons Ratio (y) = 0.04581 0.20678
# Poissons Ratio (z) = 0.34013 0.27498
#
# Static dielectric constant tensor:
#      x y z
#    x 1.828370 0.000000 0.000000 
#    y 0.000000 1.754400 0.000000 
#    z 0.000000 0.000000 1.746910 
# 
# From -- ./inp_files/38651.got.cif
#   From: 2010.05.17/outbox.cif.g08.bks.cpg/sg72_20_cif.got.tgz:38651.got - 2010.06.03 17:03:01.
