data_PCOD9528361
_publ_section_title
;
Structure prediction by ZEFSAII (Michael W. Deem and Ramdas Pophale) SiO2 
 PCOD9528361
Probable space group: I B A M
;
_chemical_formula_sum "Si O2"
_cell_formula_units_Z 88
_cell_length_a 16.834003
_cell_length_b 9.148512
_cell_length_c 25.564581
_cell_angle_alpha 90.000000
_cell_angle_beta 90.000000
_cell_angle_gamma 90.000000
_cell_volume 3937.100867
_symmetry_space_group_name_H-M "I B A M"
_symmetry_group_IT_number 72
_symmetry_cell_setting 'orthorhombic'
loop_
_space_group_symop_operation_xyz
x,y,z
-x,-y,z
x,-y,1/2-z
-x,y,1/2-z
-x,-y,-z
x,y,-z
-x,y,1/2+z
x,-y,1/2+z
1/2+x,1/2+y,1/2+z
1/2-x,1/2-y,1/2+z
1/2+x,1/2-y,-z
1/2-x,1/2+y,-z
1/2-x,1/2-y,1/2-z
1/2+x,1/2+y,1/2-z
1/2-x,1/2+y,z
1/2+x,1/2-y,z
loop_
_atom_site_type_symbol
_atom_site_label
_atom_site_fract_x
_atom_site_fract_y
_atom_site_fract_z
Si Si1 0.000000 0.500000 0.904746
Si Si2 0.891628 0.250083 0.420605
Si Si3 0.713769 0.250117 0.176190
Si Si4 0.500000 0.500000 0.618237
Si Si5 0.236559 0.000000 0.750000
Si Si6 0.719443 0.597088 0.500000
Si Si7 0.856325 0.781526 0.500000
Si Si8 0.389686 0.254408 0.877078
O O1 0.942543 0.609506 0.936835
O O2 0.942558 0.391783 0.872012
O O3 0.854208 0.284538 0.364825
O O4 0.818319 0.187717 0.452707
O O5 0.948988 0.111519 0.416282
O O6 0.694974 0.401817 0.205648
O O7 0.801116 0.257757 0.147452
O O8 0.715513 0.121648 0.218353
O O9 0.438190 0.608200 0.646897
O O10 0.811619 0.626402 0.500000
O O11 0.696590 0.429211 0.500000
O O12 0.890023 0.783741 0.440518
#
# Coordination Sequence:
#
# PCOD9528361 Si02
#       8
#     8  16  16   8   8   8   8  16
#     4  10  26  39  62 101 132 178 212 267 314 383
#     4  11  23  42  67  92 136 170 218 261 322 375
#     4  11  22  43  70  94 124 167 212 279 314 394
#     4  10  22  39  60  95 128 178 208 255 318 393
#     4  10  24  38  68 102 120 154 224 268 340 372
#     4  12  26  39  64 102 130 176 220 266 311 381
#     4  12  26  39  64 102 130 176 220 266 311 381
#     4  11  23  42  67  92 136 170 218 261 322 375
#
# _framework density 22.351472999999999
#
# number of rings (size 3 to 8) (size 9 to 14) (size 15 to 20)
#    0.000    1.091    3.636    2.182    2.545    4.364 
#    0.000    0.000    0.000   76.364    0.000    0.000 
#    0.000    0.000    0.000    0.000    0.000    0.000 
#
# Total GULP energy -245278.808597 kJ/mol
# GULP energy per Si atom -5574.518377 kJ/mol
# Density = 2.230060 g / cm^3
# Si number density = 22.351473 Si / 1000 Ang^3
#
#
#
# Elastic Constant Matrix: (Units=GPa)
#
#
# Indices 1 2 3 4 5 6 
#
# 1 91.5064 46.4424 29.9669 0.0000 0.0000 0.0000
# 2 46.4424 160.9231 20.6065 0.0000 0.0000 0.0000
# 3 29.9669 20.6065 70.2194 0.0000 0.0000 0.0000
# 4 0.0000 0.0000 0.0000 39.3310 0.0000 0.0000
# 5 0.0000 0.0000 0.0000 0.0000 -77.0964 0.0000
# 6 0.0000 0.0000 0.0000 0.0000 0.0000 41.3928
#
#
#
# Elastic Compliance Matrix: (Units=1/GPa)
#
#
# Indices 1 2 3 4 5 6 
#
# 1 0.014375 -0.003494 -0.005109 0.000000 0.000000 0.000000
# 2 -0.003494 0.007306 -0.000653 0.000000 0.000000 0.000000
# 3 -0.005109 -0.000653 0.016613 0.000000 0.000000 0.000000
# 4 0.000000 0.000000 0.000000 0.025425 0.000000 0.000000
# 5 0.000000 0.000000 0.000000 0.000000 -0.012971 0.000000
# 6 0.000000 0.000000 0.000000 0.000000 0.000000 0.024159
#
#
# Mechanical properties :
#
#
# Convention : Reuss Voigt Hill
#
# Bulk Modulus (GPa) = 50.55248 57.40896 53.98072
# Shear Modulus (GPa) = 49.99304 15.76767 32.88036
#
# Velocity S-wave (km/s) = 4.73448 2.65890 3.83960
# Velocity P-wave (km/s) = 7.24936 5.93015 6.62269
#
# Compressibility (1/GPa) = 0.01978142
#
# Stress axis : x y z
#
# Youngs Moduli (GPa) = 69.56585 136.86977 60.19362
#
# Poissons Ratio (x) = 0.47827 0.30754
# Poissons Ratio (y) = 0.24309 0.03930
# Poissons Ratio (z) = 0.35542 0.08935
#
# Static dielectric constant tensor:
#      x y z
#    x 1.841310 0.000000 0.000000 
#    y 0.000000 1.839360 0.000000 
#    z 0.000000 0.000000 2.034040 
# 
# From -- ./inp_files/42336.got.cif
#   From: 2010.05.17/outbox.cif.g08.bks.cpg/sg72_22_cif.got.tgz:42336.got - 2010.06.03 17:03:01.
