data_PCOD9528858
_publ_section_title
;
Structure prediction by ZEFSAII (Michael W. Deem and Ramdas Pophale) SiO2 
 PCOD9528858
Probable space group: I B A M
;
_chemical_formula_sum "Si O2"
_cell_formula_units_Z 56
_cell_length_a 8.386597
_cell_length_b 17.352582
_cell_length_c 17.497496
_cell_angle_alpha 90.000000
_cell_angle_beta 90.000000
_cell_angle_gamma 90.000000
_cell_volume 2546.395058
_symmetry_space_group_name_H-M "I B A M"
_symmetry_group_IT_number 72
_symmetry_cell_setting 'orthorhombic'
loop_
_space_group_symop_operation_xyz
x,y,z
-x,-y,z
x,-y,1/2-z
-x,y,1/2-z
-x,-y,-z
x,y,-z
-x,y,1/2+z
x,-y,1/2+z
1/2+x,1/2+y,1/2+z
1/2-x,1/2-y,1/2+z
1/2+x,1/2-y,-z
1/2-x,1/2+y,-z
1/2-x,1/2-y,1/2-z
1/2+x,1/2+y,1/2-z
1/2-x,1/2+y,z
1/2+x,1/2-y,z
loop_
_atom_site_type_symbol
_atom_site_label
_atom_site_fract_x
_atom_site_fract_y
_atom_site_fract_z
Si Si1 0.500000 0.253126 0.250000
Si Si2 0.780969 0.630967 0.500000
Si Si3 0.687388 0.508709 0.913038
Si Si4 0.888514 0.276979 0.500000
Si Si5 0.254798 0.338289 0.843664
O O1 0.426243 0.307517 0.184213
O O2 0.366350 0.197186 0.283187
O O3 0.771379 0.573835 0.573424
O O4 0.624430 0.684323 0.500000
O O5 0.938870 0.682525 0.500000
O O6 0.500000 0.500000 0.897561
O O7 0.754342 0.570052 0.854121
O O8 0.700020 0.542016 0.000000
O O9 0.795536 0.302682 0.575628
#
# Coordination Sequence:
#
# PCOD9528858 Si02
#       5
#     8   8  16   8  16
#     4  10  26  42  73 103 144 176 234 272 356 398
#     4  10  24  37  68 114 132 170 229 307 336 392
#     4   9  21  41  68  99 139 174 223 292 343 402
#     4  12  23  39  81 101 126 175 245 287 331 398
#     4  11  23  46  70 101 137 183 222 294 331 420
#
# _framework density 21.991873999999999
#
# number of rings (size 3 to 8) (size 9 to 14) (size 15 to 20)
#    0.857    0.857    1.429    1.714    8.000    2.286 
#    0.000    0.714    6.286    1.714    0.000    0.000 
#    0.000    0.000    0.000    0.000    0.000    0.000 
#
# Total GULP energy -156292.407556 kJ/mol
# GULP energy per Si atom -5581.871698 kJ/mol
# Density = 2.194182 g / cm^3
# Si number density = 21.991874 Si / 1000 Ang^3
#
#
#
# Elastic Constant Matrix: (Units=GPa)
#
#
# Indices 1 2 3 4 5 6 
#
# 1 89.6272 60.3084 30.3697 0.0000 0.0000 0.0000
# 2 60.3084 175.1716 37.9524 0.0000 0.0000 0.0000
# 3 30.3697 37.9524 47.3997 0.0000 0.0000 0.0000
# 4 0.0000 0.0000 0.0000 3.8510 0.0000 0.0000
# 5 0.0000 0.0000 0.0000 0.0000 17.6223 0.0000
# 6 0.0000 0.0000 0.0000 0.0000 0.0000 24.4896
#
#
#
# Elastic Compliance Matrix: (Units=1/GPa)
#
#
# Indices 1 2 3 4 5 6 
#
# 1 0.016334 -0.004060 -0.007214 0.000000 0.000000 0.000000
# 2 -0.004060 0.007916 -0.003737 0.000000 0.000000 0.000000
# 3 -0.007214 -0.003737 0.028711 0.000000 0.000000 0.000000
# 4 0.000000 0.000000 0.000000 0.259671 0.000000 0.000000
# 5 0.000000 0.000000 0.000000 0.000000 0.056746 0.000000
# 6 0.000000 0.000000 0.000000 0.000000 0.000000 0.040834
#
#
# Mechanical properties :
#
#
# Convention : Reuss Voigt Hill
#
# Bulk Modulus (GPa) = 43.59464 63.27329 53.43396
# Shear Modulus (GPa) = 11.16365 21.43046 16.29705
#
# Velocity S-wave (km/s) = 2.25550 3.12504 2.72517
# Velocity P-wave (km/s) = 5.16228 6.46953 5.85252
#
# Compressibility (1/GPa) = 0.02293860
#
# Stress axis : x y z
#
# Youngs Moduli (GPa) = 61.22175 126.32231 34.82926
#
# Poissons Ratio (x) = 0.51293 0.25127
# Poissons Ratio (y) = 0.24859 0.13015
# Poissons Ratio (z) = 0.44167 0.47205
#
# Static dielectric constant tensor:
#      x y z
#    x 1.838270 0.000000 0.000000 
#    y 0.000000 1.850030 0.000000 
#    z 0.000000 0.000000 1.786860 
# 
# From -- ./inp_files/27540.got.cif
#   From: 2010.05.17/outbox.cif.g08.bks.cpg/sg72_14_cif.got.tgz:27540.got - 2010.06.03 17:03:01.
