data_PCOD9528954
_publ_section_title
;
Structure prediction by ZEFSAII (Michael W. Deem and Ramdas Pophale) SiO2 
 PCOD9528954
Probable space group: I B A M
;
_chemical_formula_sum "Si O2"
_cell_formula_units_Z 64
_cell_length_a 28.021351
_cell_length_b 5.099075
_cell_length_c 21.173281
_cell_angle_alpha 90.000000
_cell_angle_beta 90.000000
_cell_angle_gamma 90.000000
_cell_volume 3025.301281
_symmetry_space_group_name_H-M "I B A M"
_symmetry_group_IT_number 72
_symmetry_cell_setting 'orthorhombic'
loop_
_space_group_symop_operation_xyz
x,y,z
-x,-y,z
x,-y,1/2-z
-x,y,1/2-z
-x,-y,-z
x,y,-z
-x,y,1/2+z
x,-y,1/2+z
1/2+x,1/2+y,1/2+z
1/2-x,1/2-y,1/2+z
1/2+x,1/2-y,-z
1/2-x,1/2+y,-z
1/2-x,1/2-y,1/2-z
1/2+x,1/2+y,1/2-z
1/2-x,1/2+y,z
1/2+x,1/2-y,z
loop_
_atom_site_type_symbol
_atom_site_label
_atom_site_fract_x
_atom_site_fract_y
_atom_site_fract_z
Si Si1 0.719104 0.749249 0.000000
Si Si2 0.381003 0.000000 0.250000
Si Si3 0.903296 0.910918 0.074132
Si Si4 0.649574 0.093629 0.613919
Si Si5 0.967143 0.752347 0.821632
O O1 0.689554 0.805965 0.935422
O O2 0.762821 0.952477 0.000000
O O3 0.348650 0.089893 0.190502
O O4 0.418836 0.209839 0.280085
O O5 0.862192 0.702226 0.092553
O O6 0.948975 0.789654 0.107373
O O7 0.893009 0.199153 0.101204
O O8 0.906682 0.927988 0.000000
O O9 0.000000 0.500000 0.815833
O O10 0.000000 0.000000 0.809209
#
# Coordination Sequence:
#
# PCOD9528954 Si02
#       5
#     8   8  16  16  16
#     4  12  24  44  72 102 126 156 198 260 326 384
#     4  10  25  42  66  90 128 178 216 256 312 374
#     4  11  21  39  63  89 127 176 218 263 312 370
#     4  11  23  42  67  96 125 165 214 252 311 399
#     4  11  24  38  58  90 129 171 224 276 313 350
#
# _framework density 21.154919
#
# number of rings (size 3 to 8) (size 9 to 14) (size 15 to 20)
#    0.000    1.000    2.500    4.875    0.000   13.000 
#    0.000    1.250    0.000    0.000    0.000    0.000 
#    0.000    0.000    0.000    0.000    0.000    0.000 
#
# Total GULP energy -178589.179580 kJ/mol
# GULP energy per Si atom -5580.911862 kJ/mol
# Density = 2.110677 g / cm^3
# Si number density = 21.154919 Si / 1000 Ang^3
#
#
#
# Elastic Constant Matrix: (Units=GPa)
#
#
# Indices 1 2 3 4 5 6 
#
# 1 44.8370 4.9852 25.9388 0.0000 0.0000 0.0000
# 2 4.9852 97.5315 18.8303 0.0000 0.0000 0.0000
# 3 25.9388 18.8303 209.6087 0.0000 0.0000 0.0000
# 4 0.0000 0.0000 0.0000 25.4007 0.0000 0.0000
# 5 0.0000 0.0000 0.0000 0.0000 54.1661 0.0000
# 6 0.0000 0.0000 0.0000 0.0000 0.0000 -72.6909
#
#
#
# Elastic Compliance Matrix: (Units=1/GPa)
#
#
# Indices 1 2 3 4 5 6 
#
# 1 0.024065 -0.000667 -0.002918 0.000000 0.000000 0.000000
# 2 -0.000667 0.010453 -0.000857 0.000000 0.000000 0.000000
# 3 -0.002918 -0.000857 0.005209 0.000000 0.000000 0.000000
# 4 0.000000 0.000000 0.000000 0.039369 0.000000 0.000000
# 5 0.000000 0.000000 0.000000 0.000000 0.018462 0.000000
# 6 0.000000 0.000000 0.000000 0.000000 0.000000 -0.013757
#
#
# Mechanical properties :
#
#
# Convention : Reuss Voigt Hill
#
# Bulk Modulus (GPa) = 32.42114 50.16508 41.29311
# Shear Modulus (GPa) = 48.56040 21.52339 35.04190
#
# Velocity S-wave (km/s) = 4.79630 3.19316 4.07436
# Velocity P-wave (km/s) = 6.78465 6.11226 6.45721
#
# Compressibility (1/GPa) = 0.03084407
#
# Stress axis : x y z
#
# Youngs Moduli (GPa) = 41.55352 95.67057 191.98071
#
# Poissons Ratio (x) = 0.06378 0.56023
# Poissons Ratio (y) = 0.02770 0.16443
# Poissons Ratio (z) = 0.12126 0.08194
#
# Static dielectric constant tensor:
#      x y z
#    x 1.783560 0.000000 0.000000 
#    y 0.000000 1.736350 0.000000 
#    z 0.000000 0.000000 1.826440 
# 
# From -- ./inp_files/34127.got.cif
#   From: 2010.05.17/outbox.cif.g08.bks.cpg/sg72_18_cif.got.tgz:34127.got - 2010.06.03 17:03:01.
