data_PCOD9528503
_publ_section_title
;
Structure prediction by ZEFSAII (Michael W. Deem and Ramdas Pophale) SiO2 
 PCOD9528503
Probable space group: I B A M
;
_chemical_formula_sum "Si O2"
_cell_formula_units_Z 120
_cell_length_a 18.323242
_cell_length_b 16.133967
_cell_length_c 21.821105
_cell_angle_alpha 90.000000
_cell_angle_beta 90.000000
_cell_angle_gamma 90.000000
_cell_volume 6450.898681
_symmetry_space_group_name_H-M "I B A M"
_symmetry_group_IT_number 72
_symmetry_cell_setting 'orthorhombic'
loop_
_space_group_symop_operation_xyz
x,y,z
-x,-y,z
x,-y,1/2-z
-x,y,1/2-z
-x,-y,-z
x,y,-z
-x,y,1/2+z
x,-y,1/2+z
1/2+x,1/2+y,1/2+z
1/2-x,1/2-y,1/2+z
1/2+x,1/2-y,-z
1/2-x,1/2+y,-z
1/2-x,1/2-y,1/2-z
1/2+x,1/2+y,1/2-z
1/2-x,1/2+y,z
1/2+x,1/2-y,z
loop_
_atom_site_type_symbol
_atom_site_label
_atom_site_fract_x
_atom_site_fract_y
_atom_site_fract_z
Si Si1 0.384563 0.675945 0.928531
Si Si2 0.964508 0.591199 0.687257
Si Si3 0.414816 0.500671 0.632678
Si Si4 0.527637 0.209302 0.570388
Si Si5 0.185362 0.000000 0.750000
Si Si6 0.271914 0.778406 0.152000
Si Si7 0.848729 0.154368 0.070076
Si Si8 0.306846 0.862756 0.728374
O O1 0.394394 0.587267 0.896797
O O2 0.459439 0.728088 0.924763
O O3 0.322946 0.727469 0.893466
O O4 0.366257 0.665249 0.000000
O O5 0.976972 0.643486 0.625407
O O6 0.877835 0.592221 0.701433
O O7 0.000000 0.500000 0.680503
O O8 0.000000 0.627802 0.750000
O O9 0.500000 0.500000 0.648204
O O10 0.366290 0.516822 0.692412
O O11 0.397022 0.574598 0.585954
O O12 0.527470 0.175593 0.500000
O O13 0.600463 0.264632 0.577888
O O14 0.238411 0.075920 0.766122
O O15 0.220507 0.839922 0.114225
O O16 0.318584 0.826035 0.203516
O O17 0.218505 0.714179 0.186786
O O18 0.824465 0.151001 0.000000
#
# Coordination Sequence:
#
# PCOD9528503 Si02
#       8
#    16  16  16  16   8  16  16  16
#     4  11  23  40  63  92 128 166 206 255 315 381
#     4  11  23  42  66  95 125 168 221 266 312 378
#     4  12  24  41  62  94 128 165 209 259 318 376
#     4  10  22  41  65  94 129 168 211 264 320 378
#     4  12  23  42  59  90 130 160 206 264 317 378
#     4  11  22  41  63  91 124 159 211 257 316 380
#     4  11  22  40  66  92 126 166 209 259 315 386
#     4  11  23  39  65  88 121 167 203 262 319 367
#
# _framework density 18.602060000000002
#
# number of rings (size 3 to 8) (size 9 to 14) (size 15 to 20)
#    0.000    0.933    5.333    2.600    0.000    0.800 
#    2.400    0.000    0.000    0.000    0.000    0.000 
#    0.000    0.000    0.000    0.000    0.000    0.000 
#
# Total GULP energy -335196.050658 kJ/mol
# GULP energy per Si atom -5586.600844 kJ/mol
# Density = 1.855972 g / cm^3
# Si number density = 18.602060 Si / 1000 Ang^3
#
#
#
# Elastic Constant Matrix: (Units=GPa)
#
#
# Indices 1 2 3 4 5 6 
#
# 1 82.7962 26.7401 38.6632 0.0000 0.0000 0.0000
# 2 26.7401 75.9017 40.7474 0.0000 0.0000 0.0000
# 3 38.6632 40.7474 122.4494 0.0000 0.0000 0.0000
# 4 0.0000 0.0000 0.0000 9.7188 0.0000 0.0000
# 5 0.0000 0.0000 0.0000 0.0000 16.3496 0.0000
# 6 0.0000 0.0000 0.0000 0.0000 0.0000 27.2248
#
#
#
# Elastic Compliance Matrix: (Units=1/GPa)
#
#
# Indices 1 2 3 4 5 6 
#
# 1 0.014815 -0.003297 -0.003581 0.000000 0.000000 0.000000
# 2 -0.003297 0.016774 -0.004541 0.000000 0.000000 0.000000
# 3 -0.003581 -0.004541 0.010808 0.000000 0.000000 0.000000
# 4 0.000000 0.000000 0.000000 0.102894 0.000000 0.000000
# 5 0.000000 0.000000 0.000000 0.000000 0.061164 0.000000
# 6 0.000000 0.000000 0.000000 0.000000 0.000000 0.036731
#
#
# Mechanical properties :
#
#
# Convention : Reuss Voigt Hill
#
# Bulk Modulus (GPa) = 51.12421 54.82763 52.97592
# Shear Modulus (GPa) = 18.34572 22.32505 20.33538
#
# Velocity S-wave (km/s) = 3.14382 3.46806 3.30991
# Velocity P-wave (km/s) = 6.38129 6.75089 6.56869
#
# Compressibility (1/GPa) = 0.01956020
#
# Stress axis : x y z
#
# Youngs Moduli (GPa) = 67.50066 59.61519 92.52157
#
# Poissons Ratio (x) = 0.19655 0.33128
# Poissons Ratio (y) = 0.22255 0.42014
# Poissons Ratio (z) = 0.24169 0.27071
#
# Static dielectric constant tensor:
#      x y z
#    x 1.625050 0.000000 0.000000 
#    y 0.000000 1.689100 0.000000 
#    z 0.000000 0.000000 1.638850 
# 
# From -- ./inp_files/39273.got.cif
#   From: 2010.05.17/outbox.cif.g08.bks.cpg/sg72_20_cif.got.tgz:39273.got - 2010.06.03 17:03:01.
