data_PCOD9528227
_publ_section_title
;
Structure prediction by ZEFSAII (Michael W. Deem and Ramdas Pophale) SiO2 
 PCOD9528227
Probable space group: I B A M
;
_chemical_formula_sum "Si O2"
_cell_formula_units_Z 96
_cell_length_a 9.005088
_cell_length_b 22.877286
_cell_length_c 21.803560
_cell_angle_alpha 90.000000
_cell_angle_beta 90.000000
_cell_angle_gamma 90.000000
_cell_volume 4491.794428
_symmetry_space_group_name_H-M "I B A M"
_symmetry_group_IT_number 72
_symmetry_cell_setting 'orthorhombic'
loop_
_space_group_symop_operation_xyz
x,y,z
-x,-y,z
x,-y,1/2-z
-x,y,1/2-z
-x,-y,-z
x,y,-z
-x,y,1/2+z
x,-y,1/2+z
1/2+x,1/2+y,1/2+z
1/2-x,1/2-y,1/2+z
1/2+x,1/2-y,-z
1/2-x,1/2+y,-z
1/2-x,1/2-y,1/2-z
1/2+x,1/2+y,1/2-z
1/2-x,1/2+y,z
1/2+x,1/2-y,z
loop_
_atom_site_type_symbol
_atom_site_label
_atom_site_fract_x
_atom_site_fract_y
_atom_site_fract_z
Si Si1 0.128117 0.675028 0.627950
Si Si2 0.310494 0.128689 0.135941
Si Si3 0.678252 0.007366 0.426127
Si Si4 0.352843 0.393269 0.931319
Si Si5 0.406002 0.701040 0.071994
Si Si6 0.322766 0.685968 0.744936
O O1 0.211076 0.649858 0.568815
O O2 0.080569 0.741461 0.613802
O O3 0.250574 0.666141 0.680938
O O4 0.984850 0.637996 0.644269
O O5 0.256880 0.175746 0.085204
O O6 0.233032 0.145946 0.199346
O O7 0.275900 0.065207 0.109930
O O8 0.696284 0.014142 0.500000
O O9 0.782014 0.952997 0.405230
O O10 0.500000 0.000000 0.416166
O O11 0.486311 0.352254 0.907721
O O12 0.401528 0.408690 0.000000
O O13 0.431577 0.713192 0.000000
O O14 0.500000 0.689780 0.750000
O O15 0.250000 0.750000 0.750000
#
# Coordination Sequence:
#
# PCOD9528227 Si02
#       6
#    16  16  16  16  16  16
#     4  12  23  40  67  99 134 179 224 284 345 413
#     4  12  24  41  69  99 128 180 235 282 336 409
#     4  10  21  42  70 100 136 181 233 282 338 408
#     4  10  22  41  65  96 138 182 224 279 343 406
#     4  11  24  38  60 101 143 178 221 280 347 416
#     4  12  26  46  68  98 132 178 227 280 349 416
#
# _framework density 21.372305000000001
#
# number of rings (size 3 to 8) (size 9 to 14) (size 15 to 20)
#    0.000    0.833    3.333    4.500    0.000    4.000 
#    0.000    3.333    0.000    1.000    0.000    0.000 
#    0.000    0.000    0.000    0.000    0.000    0.000 
#
# Total GULP energy -267932.599037 kJ/mol
# GULP energy per Si atom -5581.929147 kJ/mol
# Density = 2.132366 g / cm^3
# Si number density = 21.372305 Si / 1000 Ang^3
#
#
#
# Elastic Constant Matrix: (Units=GPa)
#
#
# Indices 1 2 3 4 5 6 
#
# 1 124.1600 30.2545 31.4737 0.0000 0.0000 0.0000
# 2 30.2545 137.0860 35.6963 0.0000 0.0000 0.0000
# 3 31.4737 35.6963 91.9254 0.0000 0.0000 0.0000
# 4 0.0000 0.0000 0.0000 31.1313 0.0000 0.0000
# 5 0.0000 0.0000 0.0000 0.0000 16.7633 0.0000
# 6 0.0000 0.0000 0.0000 0.0000 0.0000 33.7750
#
#
#
# Elastic Compliance Matrix: (Units=1/GPa)
#
#
# Indices 1 2 3 4 5 6 
#
# 1 0.009030 -0.001321 -0.002579 0.000000 0.000000 0.000000
# 2 -0.001321 0.008309 -0.002774 0.000000 0.000000 0.000000
# 3 -0.002579 -0.002774 0.012838 0.000000 0.000000 0.000000
# 4 0.000000 0.000000 0.000000 0.032122 0.000000 0.000000
# 5 0.000000 0.000000 0.000000 0.000000 0.059654 0.000000
# 6 0.000000 0.000000 0.000000 0.000000 0.000000 0.029608
#
#
# Mechanical properties :
#
#
# Convention : Reuss Voigt Hill
#
# Bulk Modulus (GPa) = 59.42113 60.89115 60.15614
# Shear Modulus (GPa) = 29.32241 33.38373 31.35307
#
# Velocity S-wave (km/s) = 3.70805 3.95651 3.83429
# Velocity P-wave (km/s) = 6.79677 7.03026 6.91450
#
# Compressibility (1/GPa) = 0.01682903
#
# Stress axis : x y z
#
# Youngs Moduli (GPa) = 110.74505 120.35657 77.89125
#
# Poissons Ratio (x) = 0.15904 0.20084
# Poissons Ratio (y) = 0.14634 0.21607
# Poissons Ratio (z) = 0.28556 0.33387
#
# Static dielectric constant tensor:
#      x y z
#    x 1.808910 0.000000 0.000000 
#    y 0.000000 1.791350 0.000000 
#    z 0.000000 0.000000 1.964290 
# 
# From -- ./inp_files/42443.got.cif
#   From: 2010.05.17/outbox.cif.g08.bks.cpg/sg72_22_cif.got.tgz:42443.got - 2010.06.03 17:03:01.
