data_PCOD9528085
_publ_section_title
;
Structure prediction by ZEFSAII (Michael W. Deem and Ramdas Pophale) SiO2 
 PCOD9528085
Probable space group: I B A M
;
_chemical_formula_sum "Si O2"
_cell_formula_units_Z 80
_cell_length_a 33.499273
_cell_length_b 5.500929
_cell_length_c 20.981691
_cell_angle_alpha 90.000000
_cell_angle_beta 90.000000
_cell_angle_gamma 90.000000
_cell_volume 3866.445639
_symmetry_space_group_name_H-M "I B A M"
_symmetry_group_IT_number 72
_symmetry_cell_setting 'orthorhombic'
loop_
_space_group_symop_operation_xyz
x,y,z
-x,-y,z
x,-y,1/2-z
-x,y,1/2-z
-x,-y,-z
x,y,-z
-x,y,1/2+z
x,-y,1/2+z
1/2+x,1/2+y,1/2+z
1/2-x,1/2-y,1/2+z
1/2+x,1/2-y,-z
1/2-x,1/2+y,-z
1/2-x,1/2-y,1/2-z
1/2+x,1/2+y,1/2-z
1/2-x,1/2+y,z
1/2+x,1/2-y,z
loop_
_atom_site_type_symbol
_atom_site_label
_atom_site_fract_x
_atom_site_fract_y
_atom_site_fract_z
Si Si1 0.775756 0.000000 0.250000
Si Si2 0.858542 0.500000 0.750000
Si Si3 0.767496 0.723048 0.425539
Si Si4 0.084679 0.890515 0.684875
Si Si5 0.025521 0.749229 0.427360
Si Si6 0.336129 0.644483 0.650405
O O1 0.750000 0.250000 0.250000
O O2 0.806914 0.970836 0.190775
O O3 0.887256 0.310496 0.715805
O O4 0.833675 0.380770 0.805517
O O5 0.758380 0.705570 0.500000
O O6 0.757493 0.454481 0.399368
O O7 0.813507 0.796099 0.414212
O O8 0.056165 0.783788 0.630859
O O9 0.064726 0.000000 0.750000
O O10 0.117647 0.067489 0.651581
O O11 0.042564 0.732609 0.500000
O O12 0.000000 0.500000 0.418250
O O13 0.000000 0.000000 0.426124
#
# Coordination Sequence:
#
# PCOD9528085 Si02
#       6
#     8   8  16  16  16  16
#     4  12  23  34  56  84 116 162 209 255 318 374
#     4  10  21  40  59  90 133 160 204 273 312 386
#     4  10  23  41  59  84 120 162 214 273 323 381
#     4  10  23  41  65  96 136 174 211 277 328 391
#     4  10  24  47  72 101 137 175 221 270 324 400
#     4  11  22  38  60  88 124 165 213 263 323 381
#
# _framework density 20.690836999999998
#
# number of rings (size 3 to 8) (size 9 to 14) (size 15 to 20)
#    0.000    1.600    3.000    1.800    8.400    1.200 
#    0.000    1.000    0.000    0.000    0.000    0.000 
#    0.000    0.000    0.000    0.000    0.000    0.000 
#
# Total GULP energy -222711.161549 kJ/mol
# GULP energy per Si atom -5567.779039 kJ/mol
# Density = 2.064374 g / cm^3
# Si number density = 20.690837 Si / 1000 Ang^3
#
#
#
# Elastic Constant Matrix: (Units=GPa)
#
#
# Indices 1 2 3 4 5 6 
#
# 1 61.2330 22.5875 42.5135 0.0000 0.0000 0.0000
# 2 22.5875 116.5250 27.3467 0.0000 0.0000 0.0000
# 3 42.5135 27.3467 70.8424 0.0000 0.0000 0.0000
# 4 0.0000 0.0000 0.0000 22.8111 0.0000 0.0000
# 5 0.0000 0.0000 0.0000 0.0000 36.6213 0.0000
# 6 0.0000 0.0000 0.0000 0.0000 0.0000 23.3788
#
#
#
# Elastic Compliance Matrix: (Units=1/GPa)
#
#
# Indices 1 2 3 4 5 6 
#
# 1 0.028280 -0.001648 -0.016335 0.000000 0.000000 0.000000
# 2 -0.001648 0.009533 -0.002691 0.000000 0.000000 0.000000
# 3 -0.016335 -0.002691 0.024957 0.000000 0.000000 0.000000
# 4 0.000000 0.000000 0.000000 0.043838 0.000000 0.000000
# 5 0.000000 0.000000 0.000000 0.000000 0.027307 0.000000
# 6 0.000000 0.000000 0.000000 0.000000 0.000000 0.042774
#
#
# Mechanical properties :
#
#
# Convention : Reuss Voigt Hill
#
# Bulk Modulus (GPa) = 46.68025 48.16619 47.42322
# Shear Modulus (GPa) = 22.20459 26.97242 24.58851
#
# Velocity S-wave (km/s) = 3.27947 3.61445 3.45102
# Velocity P-wave (km/s) = 6.07862 6.38346 6.23290
#
# Compressibility (1/GPa) = 0.02142234
#
# Stress axis : x y z
#
# Youngs Moduli (GPa) = 35.36007 104.90067 40.06813
#
# Poissons Ratio (x) = 0.17291 0.65452
# Poissons Ratio (y) = 0.05828 0.10781
# Poissons Ratio (z) = 0.57761 0.28226
#
# Static dielectric constant tensor:
#      x y z
#    x 1.735430 0.000000 0.000000 
#    y 0.000000 1.860360 0.000000 
#    z 0.000000 0.000000 1.770270 
# 
# From -- ./inp_files/46111.got.cif
#   From: 2010.05.17/outbox.cif.g08.bks.cpg/sg72_24_cif.got.tgz:46111.got - 2010.06.03 17:03:01.
