data_PCOD9528078
_publ_section_title
;
Structure prediction by ZEFSAII (Michael W. Deem and Ramdas Pophale) SiO2 
 PCOD9528078
Probable space group: I B A M
;
_chemical_formula_sum "Si O2"
_cell_formula_units_Z 80
_cell_length_a 22.147315
_cell_length_b 9.818770
_cell_length_c 14.932519
_cell_angle_alpha 90.000000
_cell_angle_beta 90.000000
_cell_angle_gamma 90.000000
_cell_volume 3247.216504
_symmetry_space_group_name_H-M "I B A M"
_symmetry_group_IT_number 72
_symmetry_cell_setting 'orthorhombic'
loop_
_space_group_symop_operation_xyz
x,y,z
-x,-y,z
x,-y,1/2-z
-x,y,1/2-z
-x,-y,-z
x,y,-z
-x,y,1/2+z
x,-y,1/2+z
1/2+x,1/2+y,1/2+z
1/2-x,1/2-y,1/2+z
1/2+x,1/2-y,-z
1/2-x,1/2+y,-z
1/2-x,1/2-y,1/2-z
1/2+x,1/2+y,1/2-z
1/2-x,1/2+y,z
1/2+x,1/2-y,z
loop_
_atom_site_type_symbol
_atom_site_label
_atom_site_fract_x
_atom_site_fract_y
_atom_site_fract_z
Si Si1 0.068547 0.832751 0.730831
Si Si2 0.171643 0.073913 0.896106
Si Si3 0.436791 0.080368 0.601226
Si Si4 0.876691 0.309651 0.098925
Si Si5 0.753758 0.194955 0.147860
O O1 0.113551 0.925432 0.670191
O O2 0.062857 0.697559 0.671806
O O3 0.096234 0.784331 0.824643
O O4 0.000000 0.873344 0.750000
O O5 0.222935 0.037621 0.637040
O O6 0.194648 0.231744 0.892370
O O7 0.157938 0.039541 0.000000
O O8 0.429674 0.131902 0.500000
O O9 0.500000 0.000000 0.605981
O O10 0.386703 0.967099 0.621032
O O11 0.807110 0.274895 0.098693
O O12 0.903860 0.287669 0.000000
O O13 0.750000 0.250000 0.250000
#
# Coordination Sequence:
#
# PCOD9528078 Si02
#       5
#    16  16  16  16  16
#     4  12  25  43  75 112 163 221 277 334 409 493
#     4  12  28  51  82 125 166 215 275 344 415 494
#     4  10  21  39  68 108 155 208 272 339 405 481
#     4  11  24  42  69 107 154 205 266 337 407 478
#     4  12  27  52  82 115 158 211 271 334 414 493
#
# _framework density 24.636485
#
# number of rings (size 3 to 8) (size 9 to 14) (size 15 to 20)
#    0.000    0.600    4.000    3.600    2.800    2.400 
#    0.000    2.000    0.000    2.400    0.000    0.000 
#    0.000    0.000    0.000    0.000    0.000    0.000 
#
# Total GULP energy -223681.402564 kJ/mol
# GULP energy per Si atom -5592.035064 kJ/mol
# Density = 2.458041 g / cm^3
# Si number density = 24.636485 Si / 1000 Ang^3
#
#
#
# Elastic Constant Matrix: (Units=GPa)
#
#
# Indices 1 2 3 4 5 6 
#
# 1 124.7153 42.6386 44.6625 0.0000 0.0000 0.0000
# 2 42.6386 165.6136 90.0858 0.0000 0.0000 0.0000
# 3 44.6625 90.0858 204.2966 0.0000 0.0000 0.0000
# 4 0.0000 0.0000 0.0000 4.2385 0.0000 0.0000
# 5 0.0000 0.0000 0.0000 0.0000 33.8213 0.0000
# 6 0.0000 0.0000 0.0000 0.0000 0.0000 7.5364
#
#
#
# Elastic Compliance Matrix: (Units=1/GPa)
#
#
# Indices 1 2 3 4 5 6 
#
# 1 0.009028 -0.001645 -0.001248 0.000000 0.000000 0.000000
# 2 -0.001645 0.008243 -0.003275 0.000000 0.000000 0.000000
# 3 -0.001248 -0.003275 0.006612 0.000000 0.000000 0.000000
# 4 0.000000 0.000000 0.000000 0.235934 0.000000 0.000000
# 5 0.000000 0.000000 0.000000 0.000000 0.029567 0.000000
# 6 0.000000 0.000000 0.000000 0.000000 0.000000 0.132689
#
#
# Mechanical properties :
#
#
# Convention : Reuss Voigt Hill
#
# Bulk Modulus (GPa) = 86.61284 94.37771 90.49528
# Shear Modulus (GPa) = 11.40877 30.26848 20.83863
#
# Velocity S-wave (km/s) = 2.15427 3.50895 2.91150
# Velocity P-wave (km/s) = 6.43588 7.40326 6.93645
#
# Compressibility (1/GPa) = 0.01154563
#
# Stress axis : x y z
#
# Youngs Moduli (GPa) = 110.76956 121.30998 151.24172
#
# Poissons Ratio (x) = 0.19960 0.18876
# Poissons Ratio (y) = 0.18226 0.49535
# Poissons Ratio (z) = 0.13825 0.39732
#
# Static dielectric constant tensor:
#      x y z
#    x 1.648960 0.000000 0.000000 
#    y 0.000000 2.069530 0.000000 
#    z 0.000000 0.000000 1.939150 
# 
# From -- ./inp_files/23416.got.cif
#   From: 2010.05.17/outbox.cif.g08.bks.cpg/sg72_12_cif.got.tgz:23416.got - 2010.06.03 17:03:01.
