data_PCOD9528596
_publ_section_title
;
Structure prediction by ZEFSAII (Michael W. Deem and Ramdas Pophale) SiO2 
 PCOD9528596
Probable space group: I B A M
;
_chemical_formula_sum "Si O2"
_cell_formula_units_Z 64
_cell_length_a 12.656372
_cell_length_b 19.434239
_cell_length_c 12.066616
_cell_angle_alpha 90.000000
_cell_angle_beta 90.000000
_cell_angle_gamma 90.000000
_cell_volume 2967.988835
_symmetry_space_group_name_H-M "I B A M"
_symmetry_group_IT_number 72
_symmetry_cell_setting 'orthorhombic'
loop_
_space_group_symop_operation_xyz
x,y,z
-x,-y,z
x,-y,1/2-z
-x,y,1/2-z
-x,-y,-z
x,y,-z
-x,y,1/2+z
x,-y,1/2+z
1/2+x,1/2+y,1/2+z
1/2-x,1/2-y,1/2+z
1/2+x,1/2-y,-z
1/2-x,1/2+y,-z
1/2-x,1/2-y,1/2-z
1/2+x,1/2+y,1/2-z
1/2-x,1/2+y,z
1/2+x,1/2-y,z
loop_
_atom_site_type_symbol
_atom_site_label
_atom_site_fract_x
_atom_site_fract_y
_atom_site_fract_z
Si Si1 0.309205 0.681758 0.870940
Si Si2 0.882620 0.674485 0.795019
Si Si3 0.398363 0.455778 0.374032
Si Si4 0.330387 0.026333 0.626894
O O1 0.198902 0.681823 0.806589
O O2 0.370345 0.753224 0.857765
O O3 0.373964 0.617496 0.818987
O O4 0.285634 0.670541 0.000000
O O5 0.847141 0.608001 0.864822
O O6 0.000000 0.664241 0.750000
O O7 0.500000 0.500000 0.348108
O O8 0.418802 0.435352 0.500000
O O9 0.291587 0.501027 0.370086
O O10 0.367562 0.004348 0.500000
O O11 0.372643 0.000000 0.750000
#
# Coordination Sequence:
#
# PCOD9528596 Si02
#       4
#    16  16  16  16
#     4  10  22  43  66  96 135 174 226 287 343 413
#     4  11  25  43  64  97 136 182 228 281 349 421
#     4   9  19  38  67  98 131 176 227 284 346 407
#     4  11  23  43  66  99 137 179 234 289 345 415
#
# _framework density 21.563421999999999
#
# number of rings (size 3 to 8) (size 9 to 14) (size 15 to 20)
#    0.000    1.750    2.500    0.750    0.000    7.000 
#    0.000    3.750    0.000    0.000    0.000    0.000 
#    0.000    0.000    0.000    0.000    0.000    0.000 
#
# Total GULP energy -178208.603979 kJ/mol
# GULP energy per Si atom -5569.018874 kJ/mol
# Density = 2.151434 g / cm^3
# Si number density = 21.563422 Si / 1000 Ang^3
#
#
#
# Elastic Constant Matrix: (Units=GPa)
#
#
# Indices 1 2 3 4 5 6 
#
# 1 85.6689 51.9126 2.7305 0.0000 0.0000 0.0000
# 2 51.9126 159.2618 10.5303 0.0000 0.0000 0.0000
# 3 2.7305 10.5303 129.0549 -0.0001 0.0000 0.0000
# 4 0.0000 0.0000 -0.0001 48.4372 0.0000 0.0000
# 5 0.0000 0.0000 0.0000 0.0000 2.5016 0.0000
# 6 0.0000 0.0000 0.0000 0.0000 0.0000 14.4758
#
#
#
# Elastic Compliance Matrix: (Units=1/GPa)
#
#
# Indices 1 2 3 4 5 6 
#
# 1 0.014547 -0.004747 0.000080 0.000000 0.000000 0.000000
# 2 -0.004747 0.007862 -0.000541 0.000000 0.000000 0.000000
# 3 0.000080 -0.000541 0.007791 0.000000 0.000000 0.000000
# 4 0.000000 0.000000 0.000000 0.020645 0.000000 0.000000
# 5 0.000000 0.000000 0.000000 0.000000 0.399745 0.000000
# 6 0.000000 0.000000 0.000000 0.000000 0.000000 0.069081
#
#
# Mechanical properties :
#
#
# Convention : Reuss Voigt Hill
#
# Bulk Modulus (GPa) = 50.54824 56.03693 53.29259
# Shear Modulus (GPa) = 9.31650 33.67041 21.49345
#
# Velocity S-wave (km/s) = 2.08084 3.95582 3.16057
# Velocity P-wave (km/s) = 5.40978 6.84895 6.17146
#
# Compressibility (1/GPa) = 0.01978308
#
# Stress axis : x y z
#
# Youngs Moduli (GPa) = 68.74378 127.19363 128.35149
#
# Poissons Ratio (x) = 0.60377 -0.01021
# Poissons Ratio (y) = 0.32632 0.06945
# Poissons Ratio (z) = -0.00547 0.06882
#
# Static dielectric constant tensor:
#      x y z
#    x 1.738600 0.000000 0.000000 
#    y 0.000000 1.795170 0.000000 
#    z 0.000000 0.000000 1.905860 
# 
# From -- ./inp_files/11177.got.cif
#   From: 2010.05.17/outbox.cif.g08.bks.cpg/sg72_6_cif.got.tgz:11177.got - 2010.06.03 17:03:01.
