data_PCOD9528563
_publ_section_title
;
Structure prediction by ZEFSAII (Michael W. Deem and Ramdas Pophale) SiO2 
 PCOD9528563
Probable space group: I B A M
;
_chemical_formula_sum "Si O2"
_cell_formula_units_Z 116
_cell_length_a 17.025423
_cell_length_b 12.114373
_cell_length_c 28.635761
_cell_angle_alpha 90.000000
_cell_angle_beta 90.000000
_cell_angle_gamma 90.000000
_cell_volume 5906.192276
_symmetry_space_group_name_H-M "I B A M"
_symmetry_group_IT_number 72
_symmetry_cell_setting 'orthorhombic'
loop_
_space_group_symop_operation_xyz
x,y,z
-x,-y,z
x,-y,1/2-z
-x,y,1/2-z
-x,-y,-z
x,y,-z
-x,y,1/2+z
x,-y,1/2+z
1/2+x,1/2+y,1/2+z
1/2-x,1/2-y,1/2+z
1/2+x,1/2-y,-z
1/2-x,1/2+y,-z
1/2-x,1/2-y,1/2-z
1/2+x,1/2+y,1/2-z
1/2-x,1/2+y,z
1/2+x,1/2-y,z
loop_
_atom_site_type_symbol
_atom_site_label
_atom_site_fract_x
_atom_site_fract_y
_atom_site_fract_z
Si Si1 0.170419 0.624552 0.859131
Si Si2 0.854306 0.065106 0.360958
Si Si3 0.077527 0.697794 0.051779
Si Si4 0.421863 0.695686 0.221300
Si Si5 0.678678 0.348028 0.307070
Si Si6 0.500000 0.000000 0.000000
Si Si7 0.855712 0.427402 0.296888
Si Si8 0.954586 0.115135 0.552503
O O1 0.263668 0.601598 0.857565
O O2 0.140865 0.664229 0.909647
O O3 0.156321 0.727105 0.824834
O O4 0.129801 0.513971 0.838831
O O5 0.911229 0.133651 0.327130
O O6 0.883956 0.091998 0.412536
O O7 0.856958 0.939932 0.341754
O O8 0.027973 0.589263 0.039729
O O9 0.017252 0.792315 0.068145
O O10 0.110074 0.733423 0.000000
O O11 0.500000 0.671811 0.250000
O O12 0.352573 0.648275 0.254345
O O13 0.414331 0.826206 0.211373
O O14 0.771689 0.369329 0.306319
O O15 0.849727 0.500000 0.250000
O O16 0.928901 0.147000 0.500000
O O17 0.000000 0.000000 0.550132
#
# Coordination Sequence:
#
# PCOD9528563 Si02
#       8
#    16  16  16  16  16   4  16  16
#     4  11  22  41  67  91 125 169 213 267 316 378
#     4  11  25  39  64  98 124 164 220 262 319 381
#     4   9  21  42  66  92 125 168 208 258 326 388
#     4  12  26  41  60  92 130 165 212 262 312 381
#     4  11  22  43  61  89 127 169 209 256 316 378
#     4   8  20  44  62  92 126 160 218 242 330 386
#     4  11  22  41  64  86 125 172 210 258 315 374
#     4  10  22  42  67  92 127 165 205 266 328 380
#
# _framework density 19.640404
#
# number of rings (size 3 to 8) (size 9 to 14) (size 15 to 20)
#    0.414    0.966    2.759    3.310    3.862    2.483 
#    0.000    0.000    0.000    0.828    0.000    0.000 
#    0.000    0.000    0.000    0.000    0.000    0.000 
#
# Total GULP energy -323180.639660 kJ/mol
# GULP energy per Si atom -5572.079994 kJ/mol
# Density = 1.959570 g / cm^3
# Si number density = 19.640404 Si / 1000 Ang^3
#
#
#
# Elastic Constant Matrix: (Units=GPa)
#
#
# Indices 1 2 3 4 5 6 
#
# 1 25.2304 19.6993 15.1533 0.0000 0.0000 0.0000
# 2 19.6993 73.1856 2.3373 0.0000 0.0000 0.0000
# 3 15.1533 2.3373 70.0404 0.0000 0.0000 0.0000
# 4 0.0000 0.0000 0.0000 58.7923 0.0000 0.0000
# 5 0.0000 0.0000 0.0000 0.0000 -151.7965 0.0000
# 6 0.0000 0.0000 0.0000 0.0000 0.0000 8.9074
#
#
#
# Elastic Compliance Matrix: (Units=1/GPa)
#
#
# Indices 1 2 3 4 5 6 
#
# 1 0.059127 -0.015523 -0.012274 0.000000 0.000000 0.000000
# 2 -0.015523 0.017754 0.002766 0.000000 0.000000 0.000000
# 3 -0.012274 0.002766 0.016841 0.000000 0.000000 0.000000
# 4 0.000000 0.000000 0.000000 0.017009 0.000000 0.000000
# 5 0.000000 0.000000 0.000000 0.000000 -0.006588 0.000000
# 6 0.000000 0.000000 0.000000 0.000000 0.000000 0.112267
#
#
# Mechanical properties :
#
#
# Convention : Reuss Voigt Hill
#
# Bulk Modulus (GPa) = 22.90490 26.98179 24.94334
# Shear Modulus (GPa) = 17.79206 -8.06826 4.86190
#
# Velocity S-wave (km/s) = 3.01307 -2.02902 1.57507
# Velocity P-wave (km/s) = 4.87773 2.87724 4.00442
#
# Compressibility (1/GPa) = 0.04365879
#
# Stress axis : x y z
#
# Youngs Moduli (GPa) = 16.91288 56.32569 59.37996
#
# Poissons Ratio (x) = 0.87435 0.72884
# Poissons Ratio (y) = 0.26254 -0.16424
# Poissons Ratio (z) = 0.20759 -0.15580
#
# Static dielectric constant tensor:
#      x y z
#    x 1.730770 0.000000 0.000000 
#    y 0.000000 1.680970 0.000000 
#    z 0.000000 0.000000 1.741820 
# 
# From -- ./inp_files/52109.got.cif
#   From: 2010.05.17/outbox.cif.g08.bks.cpg/sg72_27_cif.got.tgz:52109.got - 2010.06.03 17:03:01.
