data_PCOD9528192
_publ_section_title
;
Structure prediction by ZEFSAII (Michael W. Deem and Ramdas Pophale) SiO2 
 PCOD9528192
Probable space group: I B A M
;
_chemical_formula_sum "Si O2"
_cell_formula_units_Z 112
_cell_length_a 11.065822
_cell_length_b 14.683914
_cell_length_c 30.094374
_cell_angle_alpha 90.000000
_cell_angle_beta 90.000000
_cell_angle_gamma 90.000000
_cell_volume 4890.022149
_symmetry_space_group_name_H-M "I B A M"
_symmetry_group_IT_number 72
_symmetry_cell_setting 'orthorhombic'
loop_
_space_group_symop_operation_xyz
x,y,z
-x,-y,z
x,-y,1/2-z
-x,y,1/2-z
-x,-y,-z
x,y,-z
-x,y,1/2+z
x,-y,1/2+z
1/2+x,1/2+y,1/2+z
1/2-x,1/2-y,1/2+z
1/2+x,1/2-y,-z
1/2-x,1/2+y,-z
1/2-x,1/2-y,1/2-z
1/2+x,1/2+y,1/2-z
1/2-x,1/2+y,z
1/2+x,1/2-y,z
loop_
_atom_site_type_symbol
_atom_site_label
_atom_site_fract_x
_atom_site_fract_y
_atom_site_fract_z
Si Si1 0.490663 0.608112 0.368271
Si Si2 0.687355 0.672264 0.206936
Si Si3 0.657974 0.077448 0.550311
Si Si4 0.630136 0.039211 0.184503
Si Si5 0.400895 0.889115 0.914878
Si Si6 0.398029 0.690467 0.947206
Si Si7 0.704779 0.636711 0.697348
O O1 0.500000 0.500000 0.373791
O O2 0.382178 0.630303 0.334758
O O3 0.492278 0.655886 0.416240
O O4 0.608821 0.644105 0.342133
O O5 0.820355 0.626238 0.210592
O O6 0.636947 0.646181 0.255256
O O7 0.703586 0.778514 0.197805
O O8 0.626809 0.104198 0.500000
O O9 0.546858 0.110376 0.580286
O O10 0.786841 0.120820 0.560554
O O11 0.654522 0.968394 0.554461
O O12 0.626439 0.076136 0.134272
O O13 0.500000 0.000000 0.196492
O O14 0.725472 0.958016 0.191618
O O15 0.359975 0.789862 0.929631
O O16 0.423987 0.693319 0.000000
#
# Coordination Sequence:
#
# PCOD9528192 Si02
#       7
#    16  16  16  16  16  16  16
#     4  12  26  46  75 100 145 196 240 296 367 439
#     4  11  27  46  73 105 146 189 241 295 360 437
#     4  10  21  41  68  97 133 180 237 302 359 426
#     4  12  25  42  70 105 142 185 233 298 352 424
#     4  11  22  41  70  99 137 187 241 294 362 435
#     4  11  26  45  70 107 144 186 246 309 369 434
#     4  11  26  48  71 108 143 190 241 296 361 434
#
# _framework density 22.903780999999999
#
# number of rings (size 3 to 8) (size 9 to 14) (size 15 to 20)
#    0.000    0.857    2.857    4.286    4.000    3.143 
#    0.000    0.000    0.000    0.000    0.000    0.000 
#    0.000    0.000    0.000    0.000    0.000    0.000 
#
# Total GULP energy -313295.097974 kJ/mol
# GULP energy per Si atom -5594.555321 kJ/mol
# Density = 2.285165 g / cm^3
# Si number density = 22.903781 Si / 1000 Ang^3
#
#
#
# Elastic Constant Matrix: (Units=GPa)
#
#
# Indices 1 2 3 4 5 6 
#
# 1 46.9923 21.8299 36.2026 0.0000 0.0000 0.0000
# 2 21.8299 132.4431 49.1345 0.0000 0.0000 0.0000
# 3 36.2026 49.1345 142.3331 0.0000 0.0000 0.0000
# 4 0.0000 0.0000 0.0000 35.1115 0.0000 0.0000
# 5 0.0000 0.0000 0.0000 0.0000 21.2293 0.0000
# 6 0.0000 0.0000 0.0000 0.0000 0.0000 9.7044
#
#
#
# Elastic Compliance Matrix: (Units=1/GPa)
#
#
# Indices 1 2 3 4 5 6 
#
# 1 0.027005 -0.002182 -0.006115 0.000000 0.000000 0.000000
# 2 -0.002182 0.008836 -0.002495 0.000000 0.000000 0.000000
# 3 -0.006115 -0.002495 0.009443 0.000000 0.000000 0.000000
# 4 0.000000 0.000000 0.000000 0.028481 0.000000 0.000000
# 5 0.000000 0.000000 0.000000 0.000000 0.047105 0.000000
# 6 0.000000 0.000000 0.000000 0.000000 0.000000 0.103046
#
#
# Mechanical properties :
#
#
# Convention : Reuss Voigt Hill
#
# Bulk Modulus (GPa) = 42.19814 59.56694 50.88254
# Shear Modulus (GPa) = 19.73165 27.51579 23.62372
#
# Velocity S-wave (km/s) = 2.93832 3.46983 3.21508
# Velocity P-wave (km/s) = 5.47501 6.48975 6.00386
#
# Compressibility (1/GPa) = 0.02369772
#
# Stress axis : x y z
#
# Youngs Moduli (GPa) = 37.02987 113.17639 105.90344
#
# Poissons Ratio (x) = 0.24700 0.64765
# Poissons Ratio (y) = 0.08081 0.26424
# Poissons Ratio (z) = 0.22645 0.28238
#
# Static dielectric constant tensor:
#      x y z
#    x 1.884220 0.000000 0.000000 
#    y 0.000000 1.814360 0.000000 
#    z 0.000000 0.000000 1.933460 
# 
# From -- ./inp_files/51471.got.cif
#   From: 2010.05.17/outbox.cif.g08.bks.cpg/sg72_26_cif.got.tgz:51471.got - 2010.06.03 17:03:01.
