data_PCOD9528060
_publ_section_title
;
Structure prediction by ZEFSAII (Michael W. Deem and Ramdas Pophale) SiO2 
 PCOD9528060
Probable space group: I B A M
;
_chemical_formula_sum "Si O2"
_cell_formula_units_Z 64
_cell_length_a 14.133478
_cell_length_b 10.788266
_cell_length_c 15.193410
_cell_angle_alpha 90.000000
_cell_angle_beta 90.000000
_cell_angle_gamma 90.000000
_cell_volume 2316.626132
_symmetry_space_group_name_H-M "I B A M"
_symmetry_group_IT_number 72
_symmetry_cell_setting 'orthorhombic'
loop_
_space_group_symop_operation_xyz
x,y,z
-x,-y,z
x,-y,1/2-z
-x,y,1/2-z
-x,-y,-z
x,y,-z
-x,y,1/2+z
x,-y,1/2+z
1/2+x,1/2+y,1/2+z
1/2-x,1/2-y,1/2+z
1/2+x,1/2-y,-z
1/2-x,1/2+y,-z
1/2-x,1/2-y,1/2-z
1/2+x,1/2+y,1/2-z
1/2-x,1/2+y,z
1/2+x,1/2-y,z
loop_
_atom_site_type_symbol
_atom_site_label
_atom_site_fract_x
_atom_site_fract_y
_atom_site_fract_z
Si Si1 0.131202 0.261554 0.903482
Si Si2 0.130627 0.988903 0.903446
Si Si3 0.849024 0.519795 0.644025
Si Si4 0.605741 0.737773 0.784161
O O1 0.094643 0.404118 0.898309
O O2 0.171256 0.253006 0.803645
O O3 0.082367 0.125253 0.901828
O O4 0.179928 0.257558 0.000000
O O5 0.243394 0.010045 0.893339
O O6 0.109936 0.897715 0.824211
O O7 0.112552 0.935246 0.000000
O O8 0.852641 0.500000 0.750000
O O9 0.877182 0.337155 0.861172
O O10 0.500000 0.763132 0.750000
#
# Coordination Sequence:
#
# PCOD9528060 Si02
#       4
#    16  16  16  16
#     4  10  22  39  62  94 134 181 239 302 363 434
#     4  11  23  40  67 103 141 187 243 304 373 446
#     4  10  21  39  65  95 134 183 241 301 361 434
#     4  11  25  44  66  99 143 192 242 302 377 450
#
# _framework density 27.626384000000002
#
# number of rings (size 3 to 8) (size 9 to 14) (size 15 to 20)
#    0.000    1.500    0.000    4.500    0.000   15.500 
#    0.000    3.750    0.000    0.000    0.000    0.000 
#    0.000    0.000    0.000    0.000    0.000    0.000 
#
# Total GULP energy -178394.640734 kJ/mol
# GULP energy per Si atom -5574.832523 kJ/mol
# Density = 2.756351 g / cm^3
# Si number density = 27.626384 Si / 1000 Ang^3
#
#
#
# Elastic Constant Matrix: (Units=GPa)
#
#
# Indices 1 2 3 4 5 6 
#
# 1 81.8040 23.7981 22.5901 0.0000 0.0000 0.0000
# 2 23.7981 225.4538 78.3574 0.0000 0.0000 0.0000
# 3 22.5901 78.3574 178.8664 0.0000 0.0000 0.0000
# 4 0.0000 0.0000 0.0000 50.8426 0.0000 0.0000
# 5 0.0000 0.0000 0.0000 0.0000 25.2673 0.0000
# 6 0.0000 0.0000 0.0000 0.0000 0.0000 2.5043
#
#
#
# Elastic Compliance Matrix: (Units=1/GPa)
#
#
# Indices 1 2 3 4 5 6 
#
# 1 0.012830 -0.000933 -0.001212 0.000000 0.000000 0.000000
# 2 -0.000933 0.005300 -0.002204 0.000000 0.000000 0.000000
# 3 -0.001212 -0.002204 0.006709 0.000000 0.000000 0.000000
# 4 0.000000 0.000000 0.000000 0.019669 0.000000 0.000000
# 5 0.000000 0.000000 0.000000 0.000000 0.039577 0.000000
# 6 0.000000 0.000000 0.000000 0.000000 0.000000 0.399316
#
#
# Mechanical properties :
#
#
# Convention : Reuss Voigt Hill
#
# Bulk Modulus (GPa) = 61.94971 81.73507 71.84239
# Shear Modulus (GPa) = 10.05067 39.81473 24.93270
#
# Velocity S-wave (km/s) = 1.90944 3.80041 3.00742
# Velocity P-wave (km/s) = 5.22820 6.99340 6.17421
#
# Compressibility (1/GPa) = 0.01614212
#
# Stress axis : x y z
#
# Youngs Moduli (GPa) = 77.93980 188.67933 149.04719
#
# Poissons Ratio (x) = 0.17608 0.18059
# Poissons Ratio (y) = 0.07274 0.32849
# Poissons Ratio (z) = 0.09443 0.41584
#
# Static dielectric constant tensor:
#      x y z
#    x 2.311550 0.000000 0.000000 
#    y 0.000000 2.231030 0.000000 
#    z 0.000000 0.000000 2.107930 
# 
# From -- ./inp_files/22812.got.cif
#   From: 2010.05.17/outbox.cif.g08.bks.cpg/sg72_12_cif.got.tgz:22812.got - 2010.06.03 17:03:01.
