data_PCOD9528722
_publ_section_title
;
Structure prediction by ZEFSAII (Michael W. Deem and Ramdas Pophale) SiO2 
 PCOD9528722
Probable space group: I B A M
;
_chemical_formula_sum "Si O2"
_cell_formula_units_Z 64
_cell_length_a 11.286766
_cell_length_b 19.132099
_cell_length_c 13.471743
_cell_angle_alpha 90.000000
_cell_angle_beta 90.000000
_cell_angle_gamma 90.000000
_cell_volume 2909.081778
_symmetry_space_group_name_H-M "I B A M"
_symmetry_group_IT_number 72
_symmetry_cell_setting 'orthorhombic'
loop_
_space_group_symop_operation_xyz
x,y,z
-x,-y,z
x,-y,1/2-z
-x,y,1/2-z
-x,-y,-z
x,y,-z
-x,y,1/2+z
x,-y,1/2+z
1/2+x,1/2+y,1/2+z
1/2-x,1/2-y,1/2+z
1/2+x,1/2-y,-z
1/2-x,1/2+y,-z
1/2-x,1/2-y,1/2-z
1/2+x,1/2+y,1/2-z
1/2-x,1/2+y,z
1/2+x,1/2-y,z
loop_
_atom_site_type_symbol
_atom_site_label
_atom_site_fract_x
_atom_site_fract_y
_atom_site_fract_z
Si Si1 0.551563 0.402475 0.118845
Si Si2 0.704321 0.720489 0.616018
Si Si3 0.198790 0.037730 0.379670
Si Si4 0.137941 0.642651 0.274397
O O1 0.588294 0.324624 0.143029
O O2 0.656097 0.458177 0.140095
O O3 0.578835 0.421758 0.345570
O O4 0.540006 0.408011 0.000000
O O5 0.729101 0.713867 0.500000
O O6 0.804645 0.680376 0.677989
O O7 0.676552 0.799690 0.643539
O O8 0.216982 0.044476 0.500000
O O9 0.305657 0.071396 0.318362
O O10 0.000000 0.634687 0.250000
#
# Coordination Sequence:
#
# PCOD9528722 Si02
#       4
#    16  16  16  16
#     4   8  17  36  65  94 120 157 210 264 322 375
#     4  10  23  41  60  85 125 169 214 268 318 378
#     4   9  18  37  65  96 125 160 208 268 322 374
#     4  11  25  39  59  92 128 172 216 258 321 392
#
# _framework density 22.000070000000001
#
# number of rings (size 3 to 8) (size 9 to 14) (size 15 to 20)
#    0.000    2.500    0.000    2.250    7.000    3.000 
#    0.000    5.000    0.000    4.500    0.000    0.000 
#    0.000    0.000    0.000    0.000    0.000    0.000 
#
# Total GULP energy -178610.942759 kJ/mol
# GULP energy per Si atom -5581.591961 kJ/mol
# Density = 2.195000 g / cm^3
# Si number density = 22.000070 Si / 1000 Ang^3
#
#
#
# Elastic Constant Matrix: (Units=GPa)
#
#
# Indices 1 2 3 4 5 6 
#
# 1 114.2982 18.3869 44.7076 0.0000 0.0000 0.0000
# 2 18.3869 58.2139 21.3186 0.0001 0.0000 0.0000
# 3 44.7076 21.3186 119.8509 0.0002 -0.0001 -0.0001
# 4 0.0000 0.0001 0.0002 11.5498 0.0000 0.0000
# 5 0.0000 0.0000 -0.0001 0.0000 22.2877 0.0000
# 6 0.0000 0.0000 -0.0001 0.0000 0.0000 21.6072
#
#
#
# Elastic Compliance Matrix: (Units=1/GPa)
#
#
# Indices 1 2 3 4 5 6 
#
# 1 0.010458 -0.002005 -0.003544 0.000000 0.000000 0.000000
# 2 -0.002005 0.018759 -0.002589 0.000000 0.000000 0.000000
# 3 -0.003544 -0.002589 0.010126 0.000000 0.000000 0.000000
# 4 0.000000 0.000000 0.000000 0.086582 0.000000 0.000000
# 5 0.000000 0.000000 0.000000 0.000000 0.044868 0.000000
# 6 0.000000 0.000000 0.000000 0.000000 0.000000 0.046281
#
#
# Mechanical properties :
#
#
# Convention : Reuss Voigt Hill
#
# Bulk Modulus (GPa) = 43.35224 51.24326 47.29775
# Shear Modulus (GPa) = 20.74342 24.95226 22.84784
#
# Velocity S-wave (km/s) = 3.07397 3.37143 3.22613
# Velocity P-wave (km/s) = 5.68747 6.20470 5.95170
#
# Compressibility (1/GPa) = 0.02306686
#
# Stress axis : x y z
#
# Youngs Moduli (GPa) = 95.62036 53.30645 98.75195
#
# Poissons Ratio (x) = 0.10689 0.35002
# Poissons Ratio (y) = 0.19173 0.25566
# Poissons Ratio (z) = 0.33892 0.13800
#
# Static dielectric constant tensor:
#      x y z
#    x 1.789520 0.000000 0.000000 
#    y 0.000000 1.795520 0.000000 
#    z 0.000000 0.000000 1.866100 
# 
# From -- ./inp_files/11171.got.cif
#   From: 2010.05.17/outbox.cif.g08.bks.cpg/sg72_6_cif.got.tgz:11171.got - 2010.06.03 17:03:01.
