data_PCOD9528451
_publ_section_title
;
Structure prediction by ZEFSAII (Michael W. Deem and Ramdas Pophale) SiO2 
 PCOD9528451
Probable space group: I B A M
;
_chemical_formula_sum "Si O2"
_cell_formula_units_Z 60
_cell_length_a 4.933650
_cell_length_b 18.934065
_cell_length_c 28.598823
_cell_angle_alpha 90.000000
_cell_angle_beta 90.000000
_cell_angle_gamma 90.000000
_cell_volume 2671.531876
_symmetry_space_group_name_H-M "I B A M"
_symmetry_group_IT_number 72
_symmetry_cell_setting 'orthorhombic'
loop_
_space_group_symop_operation_xyz
x,y,z
-x,-y,z
x,-y,1/2-z
-x,y,1/2-z
-x,-y,-z
x,y,-z
-x,y,1/2+z
x,-y,1/2+z
1/2+x,1/2+y,1/2+z
1/2-x,1/2-y,1/2+z
1/2+x,1/2-y,-z
1/2-x,1/2+y,-z
1/2-x,1/2-y,1/2-z
1/2+x,1/2+y,1/2-z
1/2-x,1/2+y,z
1/2+x,1/2-y,z
loop_
_atom_site_type_symbol
_atom_site_label
_atom_site_fract_x
_atom_site_fract_y
_atom_site_fract_z
Si Si1 0.336573 0.574346 0.602384
Si Si2 0.500000 0.500000 0.250000
Si Si3 0.000000 0.198271 0.250000
Si Si4 0.500000 0.000000 0.677897
Si Si5 0.244986 0.447754 0.000000
Si Si6 0.898967 0.801038 0.849003
O O1 0.500000 0.500000 0.601799
O O2 0.233150 0.590053 0.550038
O O3 0.528984 0.639558 0.614472
O O4 0.107044 0.561223 0.642224
O O5 0.259322 0.519108 0.210754
O O6 0.250000 0.250000 0.250000
O O7 0.028202 0.161287 0.200852
O O8 0.500000 0.500000 0.000000
O O9 0.000000 0.500000 0.000000
O O10 0.604188 0.766079 0.851470
#
# Coordination Sequence:
#
# PCOD9528451 Si02
#       6
#    16   4   8   8   8  16
#     4  11  24  43  71  99 134 178 231 285 343 402
#     4  10  24  40  56 100 140 166 202 282 342 394
#     4   8  16  37  57  80 115 168 215 248 308 403
#     4  11  22  41  64  92 136 171 216 263 344 396
#     4  10  22  40  66 100 130 172 227 279 336 412
#     4  10  23  40  64  92 131 177 224 276 337 403
#
# _framework density 22.459025
#
# number of rings (size 3 to 8) (size 9 to 14) (size 15 to 20)
#    0.000    1.867    2.667    0.000    3.733    1.067 
#    0.000    4.000    0.000    0.000    0.000    0.000 
#    0.000    0.000    0.000    0.000    0.000    0.000 
#
# Total GULP energy -167020.100893 kJ/mol
# GULP energy per Si atom -5567.336696 kJ/mol
# Density = 2.240791 g / cm^3
# Si number density = 22.459025 Si / 1000 Ang^3
#
#
#
# Elastic Constant Matrix: (Units=GPa)
#
#
# Indices 1 2 3 4 5 6 
#
# 1 141.2813 12.0409 18.0153 0.0000 0.0000 0.0000
# 2 12.0409 72.3382 31.2057 0.0000 0.0000 0.0000
# 3 18.0153 31.2057 169.8949 0.0000 0.0000 0.0000
# 4 0.0000 0.0000 0.0000 30.8170 0.0000 0.0000
# 5 0.0000 0.0000 0.0000 0.0000 35.0575 0.0000
# 6 0.0000 0.0000 0.0000 0.0000 0.0000 32.0282
#
#
#
# Elastic Compliance Matrix: (Units=1/GPa)
#
#
# Indices 1 2 3 4 5 6 
#
# 1 0.007235 -0.000948 -0.000593 0.000000 0.000000 0.000000
# 2 -0.000948 0.015138 -0.002680 0.000000 0.000000 0.000000
# 3 -0.000593 -0.002680 0.006441 0.000000 0.000000 0.000000
# 4 0.000000 0.000000 0.000000 0.032450 0.000000 0.000000
# 5 0.000000 0.000000 0.000000 0.000000 0.028525 0.000000
# 6 0.000000 0.000000 0.000000 0.000000 0.000000 0.031222
#
#
# Mechanical properties :
#
#
# Convention : Reuss Voigt Hill
#
# Bulk Modulus (GPa) = 49.08942 56.22648 52.65795
# Shear Modulus (GPa) = 36.69912 41.06404 38.88158
#
# Velocity S-wave (km/s) = 4.04672 4.28062 4.16531
# Velocity P-wave (km/s) = 6.61358 7.03712 6.82863
#
# Compressibility (1/GPa) = 0.02037099
#
# Stress axis : x y z
#
# Youngs Moduli (GPa) = 138.22631 66.05934 155.25296
#
# Poissons Ratio (x) = 0.06265 0.09205
# Poissons Ratio (y) = 0.13110 0.41606
# Poissons Ratio (z) = 0.08196 0.17703
#
# Static dielectric constant tensor:
#      x y z
#    x 1.824690 0.000000 0.000000 
#    y 0.000000 1.830270 0.000000 
#    z 0.000000 0.000000 1.917090 
# 
# From -- ./inp_files/46488.got.cif
#   From: 2010.05.17/outbox.cif.g08.bks.cpg/sg72_24_cif.got.tgz:46488.got - 2010.06.03 17:03:01.
