data_PCOD9528569
_publ_section_title
;
Structure prediction by ZEFSAII (Michael W. Deem and Ramdas Pophale) SiO2 
 PCOD9528569
Probable space group: I B A M
;
_chemical_formula_sum "Si O2"
_cell_formula_units_Z 64
_cell_length_a 7.013843
_cell_length_b 14.235543
_cell_length_c 26.912984
_cell_angle_alpha 90.000000
_cell_angle_beta 90.000000
_cell_angle_gamma 90.000000
_cell_volume 2687.150130
_symmetry_space_group_name_H-M "I B A M"
_symmetry_group_IT_number 72
_symmetry_cell_setting 'orthorhombic'
loop_
_space_group_symop_operation_xyz
x,y,z
-x,-y,z
x,-y,1/2-z
-x,y,1/2-z
-x,-y,-z
x,y,-z
-x,y,1/2+z
x,-y,1/2+z
1/2+x,1/2+y,1/2+z
1/2-x,1/2-y,1/2+z
1/2+x,1/2-y,-z
1/2-x,1/2+y,-z
1/2-x,1/2-y,1/2-z
1/2+x,1/2+y,1/2-z
1/2-x,1/2+y,z
1/2+x,1/2-y,z
loop_
_atom_site_type_symbol
_atom_site_label
_atom_site_fract_x
_atom_site_fract_y
_atom_site_fract_z
Si Si1 0.286595 0.177839 0.101870
Si Si2 0.338456 0.879022 0.943149
Si Si3 0.534947 0.886351 0.306717
Si Si4 0.595918 0.412305 0.358322
O O1 0.434443 0.124685 0.065256
O O2 0.241291 0.277307 0.075366
O O3 0.404056 0.167875 0.153653
O O4 0.078813 0.141455 0.116960
O O5 0.230654 0.945732 0.904182
O O6 0.291646 0.896618 0.000000
O O7 0.500000 0.860774 0.250000
O O8 0.753099 0.865732 0.321830
O O9 0.500000 0.000000 0.311805
O O10 0.500000 0.500000 0.331357
#
# Coordination Sequence:
#
# PCOD9528569 Si02
#       4
#    16  16  16  16
#     4  11  22  40  64  94 131 168 219 268 318 386
#     4  11  24  41  67  94 129 179 218 261 327 393
#     4  10  22  42  67  97 129 171 220 265 328 393
#     4  11  23  42  67  97 133 170 216 275 320 379
#
# _framework density 23.817055
#
# number of rings (size 3 to 8) (size 9 to 14) (size 15 to 20)
#    0.000    1.250    5.000    0.750    0.000    2.500 
#    0.000    6.250    0.000    0.000    0.000    0.000 
#    0.000    0.000    0.000    0.000    0.000    0.000 
#
# Total GULP energy -178703.593667 kJ/mol
# GULP energy per Si atom -5584.487302 kJ/mol
# Density = 2.376285 g / cm^3
# Si number density = 23.817055 Si / 1000 Ang^3
#
#
#
# Elastic Constant Matrix: (Units=GPa)
#
#
# Indices 1 2 3 4 5 6 
#
# 1 180.9818 15.5211 31.6464 0.0000 0.0000 0.0000
# 2 15.5211 40.5485 -8.2140 0.0000 0.0000 0.0000
# 3 31.6464 -8.2140 169.1682 0.0000 0.0000 0.0000
# 4 0.0000 0.0000 0.0000 21.8801 0.0000 0.0000
# 5 0.0000 0.0000 0.0000 0.0000 17.4184 0.0000
# 6 0.0000 0.0000 0.0000 0.0000 0.0000 42.5119
#
#
#
# Elastic Compliance Matrix: (Units=1/GPa)
#
#
# Indices 1 2 3 4 5 6 
#
# 1 0.005959 -0.002532 -0.001238 0.000000 0.000000 0.000000
# 2 -0.002532 0.025982 0.001735 0.000000 0.000000 0.000000
# 3 -0.001238 0.001735 0.006227 0.000000 0.000000 0.000000
# 4 0.000000 0.000000 0.000000 0.045704 0.000000 0.000000
# 5 0.000000 0.000000 0.000000 0.000000 0.057411 0.000000
# 6 0.000000 0.000000 0.000000 0.000000 0.000000 0.023523
#
#
# Mechanical properties :
#
#
# Convention : Reuss Voigt Hill
#
# Bulk Modulus (GPa) = 29.32541 52.06727 40.69634
# Shear Modulus (GPa) = 27.74069 39.81172 33.77621
#
# Velocity S-wave (km/s) = 3.41653 4.09291 3.76992
# Velocity P-wave (km/s) = 5.28234 6.65167 6.00615
#
# Compressibility (1/GPa) = 0.03410012
#
# Stress axis : x y z
#
# Youngs Moduli (GPa) = 167.81470 38.48755 160.58939
#
# Poissons Ratio (x) = 0.09744 0.19876
# Poissons Ratio (y) = 0.42485 -0.27865
# Poissons Ratio (z) = 0.20770 -0.06678
#
# Static dielectric constant tensor:
#      x y z
#    x 1.881530 0.000000 0.000000 
#    y 0.000000 2.088280 0.000000 
#    z 0.000000 0.000000 1.828390 
# 
# From -- ./inp_files/50161.got.cif
#   From: 2010.05.17/outbox.cif.g08.bks.cpg/sg72_26_cif.got.tgz:50161.got - 2010.06.03 17:03:01.
