data_PCOD9528875
_publ_section_title
;
Structure prediction by ZEFSAII (Michael W. Deem and Ramdas Pophale) SiO2 
 PCOD9528875
Probable space group: I B A M
;
_chemical_formula_sum "Si O2"
_cell_formula_units_Z 72
_cell_length_a 7.945784
_cell_length_b 23.190841
_cell_length_c 16.223896
_cell_angle_alpha 90.000000
_cell_angle_beta 90.000000
_cell_angle_gamma 90.000000
_cell_volume 2989.567798
_symmetry_space_group_name_H-M "I B A M"
_symmetry_group_IT_number 72
_symmetry_cell_setting 'orthorhombic'
loop_
_space_group_symop_operation_xyz
x,y,z
-x,-y,z
x,-y,1/2-z
-x,y,1/2-z
-x,-y,-z
x,y,-z
-x,y,1/2+z
x,-y,1/2+z
1/2+x,1/2+y,1/2+z
1/2-x,1/2-y,1/2+z
1/2+x,1/2-y,-z
1/2-x,1/2+y,-z
1/2-x,1/2-y,1/2-z
1/2+x,1/2+y,1/2-z
1/2-x,1/2+y,z
1/2+x,1/2-y,z
loop_
_atom_site_type_symbol
_atom_site_label
_atom_site_fract_x
_atom_site_fract_y
_atom_site_fract_z
Si Si1 0.258181 0.187465 0.851979
Si Si2 0.500000 0.252071 0.250000
Si Si3 0.798636 0.562945 0.341431
Si Si4 0.794875 0.564251 0.853213
Si Si5 0.757895 0.152178 0.000000
Si Si6 0.068952 0.242663 0.000000
O O1 0.440590 0.209562 0.823121
O O2 0.148412 0.204228 0.772399
O O3 0.238505 0.122218 0.879719
O O4 0.180150 0.225791 0.921904
O O5 0.754232 0.570267 0.244093
O O6 0.738465 0.501300 0.374077
O O7 0.000971 0.563883 0.352234
O O8 0.734590 0.611681 0.918478
O O9 0.909004 0.199403 0.000000
O O10 0.578836 0.187401 0.000000
#
# Coordination Sequence:
#
# PCOD9528875 Si02
#       6
#    16   8  16  16   8   8
#     4  11  24  43  66 102 136 182 236 289 352 424
#     4  10  24  40  70 100 138 188 228 284 360 420
#     4   9  20  41  72 100 131 180 245 295 340 426
#     4   9  21  42  69 103 135 180 239 295 349 420
#     4  12  28  46  69 100 148 188 233 293 369 431
#     4  12  30  43  65 105 147 184 232 293 361 429
#
# _framework density 24.083749000000001
#
# number of rings (size 3 to 8) (size 9 to 14) (size 15 to 20)
#    0.000    1.778    0.000    4.000   15.556    2.667 
#    0.000    2.222    0.000    0.000    0.000    0.000 
#    0.000    0.000    0.000    0.000    0.000    0.000 
#
# Total GULP energy -200964.641922 kJ/mol
# GULP energy per Si atom -5582.351165 kJ/mol
# Density = 2.402893 g / cm^3
# Si number density = 24.083749 Si / 1000 Ang^3
#
#
#
# Elastic Constant Matrix: (Units=GPa)
#
#
# Indices 1 2 3 4 5 6 
#
# 1 51.4405 43.7750 31.9939 0.0000 0.0000 0.0000
# 2 43.7750 200.7098 54.5958 0.0000 0.0000 0.0000
# 3 31.9939 54.5958 70.3590 -0.0001 0.0000 0.0000
# 4 0.0000 0.0000 -0.0001 67.7626 0.0000 0.0000
# 5 0.0000 0.0000 0.0000 0.0000 21.1462 0.0000
# 6 0.0000 0.0000 0.0000 0.0000 0.0000 16.7952
#
#
#
# Elastic Compliance Matrix: (Units=1/GPa)
#
#
# Indices 1 2 3 4 5 6 
#
# 1 0.028881 -0.003456 -0.010451 0.000000 0.000000 0.000000
# 2 -0.003456 0.006729 -0.003650 0.000000 0.000000 0.000000
# 3 -0.010451 -0.003650 0.021797 0.000000 0.000000 0.000000
# 4 0.000000 0.000000 0.000000 0.014757 0.000000 0.000000
# 5 0.000000 0.000000 0.000000 0.000000 0.047290 0.000000
# 6 0.000000 0.000000 0.000000 0.000000 0.000000 0.059541
#
#
# Mechanical properties :
#
#
# Convention : Reuss Voigt Hill
#
# Bulk Modulus (GPa) = 44.85651 64.80428 54.83040
# Shear Modulus (GPa) = 22.56922 33.95044 28.25983
#
# Velocity S-wave (km/s) = 3.06455 3.75865 3.42921
# Velocity P-wave (km/s) = 5.58459 6.76778 6.20445
#
# Compressibility (1/GPa) = 0.02229331
#
# Stress axis : x y z
#
# Youngs Moduli (GPa) = 34.62450 148.61287 45.87734
#
# Poissons Ratio (x) = 0.51363 0.47947
# Poissons Ratio (y) = 0.11967 0.16744
# Poissons Ratio (z) = 0.36187 0.54240
#
# Static dielectric constant tensor:
#      x y z
#    x 2.042390 0.000000 0.000000 
#    y 0.000000 1.926830 0.000000 
#    z 0.000000 0.000000 1.956790 
# 
# From -- ./inp_files/27994.got.cif
#   From: 2010.05.17/outbox.cif.g08.bks.cpg/sg72_14_cif.got.tgz:27994.got - 2010.06.03 17:03:01.
