data_PCOD9528370
_publ_section_title
;
Structure prediction by ZEFSAII (Michael W. Deem and Ramdas Pophale) SiO2 
 PCOD9528370
Probable space group: I B A M
;
_chemical_formula_sum "Si O2"
_cell_formula_units_Z 64
_cell_length_a 9.181970
_cell_length_b 18.687251
_cell_length_c 15.557478
_cell_angle_alpha 90.000000
_cell_angle_beta 90.000000
_cell_angle_gamma 90.000000
_cell_volume 2669.441967
_symmetry_space_group_name_H-M "I B A M"
_symmetry_group_IT_number 72
_symmetry_cell_setting 'orthorhombic'
loop_
_space_group_symop_operation_xyz
x,y,z
-x,-y,z
x,-y,1/2-z
-x,y,1/2-z
-x,-y,-z
x,y,-z
-x,y,1/2+z
x,-y,1/2+z
1/2+x,1/2+y,1/2+z
1/2-x,1/2-y,1/2+z
1/2+x,1/2-y,-z
1/2-x,1/2+y,-z
1/2-x,1/2-y,1/2-z
1/2+x,1/2+y,1/2-z
1/2-x,1/2+y,z
1/2+x,1/2-y,z
loop_
_atom_site_type_symbol
_atom_site_label
_atom_site_fract_x
_atom_site_fract_y
_atom_site_fract_z
Si Si1 0.165825 0.492783 0.354653
Si Si2 0.622317 0.611812 0.180404
Si Si3 0.698386 0.833789 0.164015
Si Si4 0.036959 0.243625 0.902097
O O1 0.157735 0.500000 0.250000
O O2 0.288348 0.552310 0.372326
O O3 0.212164 0.412480 0.376872
O O4 0.000000 0.500000 0.386747
O O5 0.500000 0.584203 0.250000
O O6 0.264612 0.654542 0.258371
O O7 0.541728 0.669013 0.121525
O O8 0.535538 0.804922 0.155748
O O9 0.796664 0.775502 0.116280
O O10 0.015959 0.264507 0.000000
#
# Coordination Sequence:
#
# PCOD9528370 Si02
#       4
#    16  16  16  16
#     4   9  19  37  63  92 121 154 203 262 311 360
#     4   9  20  39  64  92 120 158 208 263 311 361
#     4  10  22  39  62  90 122 162 205 254 310 365
#     4  11  23  39  59  88 127 167 205 250 305 371
#
# _framework density 23.975048000000001
#
# number of rings (size 3 to 8) (size 9 to 14) (size 15 to 20)
#    0.000    2.250    0.000    1.500    3.500   11.500 
#    9.000    3.750    0.000    3.750    0.000    0.000 
#    0.000    0.000    0.000    0.000    0.000    0.000 
#
# Total GULP energy -178837.109358 kJ/mol
# GULP energy per Si atom -5588.659667 kJ/mol
# Density = 2.392048 g / cm^3
# Si number density = 23.975048 Si / 1000 Ang^3
#
#
#
# Elastic Constant Matrix: (Units=GPa)
#
#
# Indices 1 2 3 4 5 6 
#
# 1 117.7077 33.3727 23.1108 0.0000 0.0000 0.0000
# 2 33.3727 81.2719 17.6813 0.0000 0.0000 0.0000
# 3 23.1108 17.6813 58.1049 0.0001 0.0000 0.0000
# 4 0.0000 0.0000 0.0001 -6.2325 0.0000 0.0000
# 5 0.0000 0.0000 0.0000 0.0000 12.1707 0.0000
# 6 0.0000 0.0000 0.0000 0.0000 0.0000 43.9073
#
#
#
# Elastic Compliance Matrix: (Units=1/GPa)
#
#
# Indices 1 2 3 4 5 6 
#
# 1 0.010063 -0.003493 -0.002940 0.000000 0.000000 0.000000
# 2 -0.003493 0.014389 -0.002989 0.000000 0.000000 0.000000
# 3 -0.002940 -0.002989 0.019289 0.000000 0.000000 0.000000
# 4 0.000000 0.000000 0.000000 -0.160449 0.000000 0.000000
# 5 0.000000 0.000000 0.000000 0.000000 0.082164 0.000000
# 6 0.000000 0.000000 0.000000 0.000000 0.000000 0.022775
#
#
# Mechanical properties :
#
#
# Convention : Reuss Voigt Hill
#
# Bulk Modulus (GPa) = 40.16433 45.04603 42.60518
# Shear Modulus (GPa) = 325.22891 22.16375 173.69633
#
# Velocity S-wave (km/s) = 11.65966 3.04378 8.52092
# Velocity P-wave (km/s) = 14.07311 5.58411 10.70595
#
# Compressibility (1/GPa) = 0.02489771
#
# Stress axis : x y z
#
# Youngs Moduli (GPa) = 99.37353 69.49793 51.84255
#
# Poissons Ratio (x) = 0.24273 0.15240
# Poissons Ratio (y) = 0.34708 0.15498
# Poissons Ratio (z) = 0.29213 0.20776
#
# Static dielectric constant tensor:
#      x y z
#    x 1.954860 0.000000 0.000000 
#    y 0.000000 1.930990 0.000000 
#    z 0.000000 0.000000 1.909410 
# 
# From -- ./inp_files/42029.got.cif
#   From: 2010.05.17/outbox.cif.g08.bks.cpg/sg72_22_cif.got.tgz:42029.got - 2010.06.03 17:03:01.
