data_PCOD9528932
_publ_section_title
;
Structure prediction by ZEFSAII (Michael W. Deem and Ramdas Pophale) SiO2 
 PCOD9528932
Probable space group: I B A M
;
_chemical_formula_sum "Si O2"
_cell_formula_units_Z 68
_cell_length_a 7.748185
_cell_length_b 19.662982
_cell_length_c 18.217605
_cell_angle_alpha 90.000000
_cell_angle_beta 90.000000
_cell_angle_gamma 90.000000
_cell_volume 2775.496248
_symmetry_space_group_name_H-M "I B A M"
_symmetry_group_IT_number 72
_symmetry_cell_setting 'orthorhombic'
loop_
_space_group_symop_operation_xyz
x,y,z
-x,-y,z
x,-y,1/2-z
-x,y,1/2-z
-x,-y,-z
x,y,-z
-x,y,1/2+z
x,-y,1/2+z
1/2+x,1/2+y,1/2+z
1/2-x,1/2-y,1/2+z
1/2+x,1/2-y,-z
1/2-x,1/2+y,-z
1/2-x,1/2-y,1/2-z
1/2+x,1/2+y,1/2-z
1/2-x,1/2+y,z
1/2+x,1/2-y,z
loop_
_atom_site_type_symbol
_atom_site_label
_atom_site_fract_x
_atom_site_fract_y
_atom_site_fract_z
Si Si1 0.801015 0.495853 0.085871
Si Si2 0.812382 0.090557 0.209545
Si Si3 0.914946 0.228354 0.828164
Si Si4 0.000000 0.500000 0.750000
Si Si5 0.279902 0.662469 0.915516
O O1 0.689249 0.546051 0.135056
O O2 0.740267 0.418407 0.088086
O O3 0.000000 0.500000 0.116717
O O4 0.806024 0.517103 0.000000
O O5 0.776606 0.168877 0.189227
O O6 0.000000 0.086571 0.250000
O O7 0.656582 0.058590 0.255627
O O8 0.853719 0.296430 0.866020
O O9 0.000000 0.240446 0.750000
O O10 0.040806 0.188792 0.883591
O O11 0.258342 0.682498 0.000000
#
# Coordination Sequence:
#
# PCOD9528932 Si02
#       5
#    16  16  16   4  16
#     4  10  24  46  76 112 152 201 260 321 389 468
#     4  11  27  47  78 115 156 199 258 321 396 458
#     4  11  27  48  74 109 156 196 259 321 390 462
#     4  12  26  44  78 106 156 200 254 316 388 466
#     4  11  26  48  73 108 150 202 258 317 392 466
#
# _framework density 24.500124
#
# number of rings (size 3 to 8) (size 9 to 14) (size 15 to 20)
#    0.000    1.176    1.176    1.765   13.176    1.882 
#    4.235    2.353    0.000    1.412    0.000    0.000 
#    0.000    0.000    0.000    0.000    0.000    0.000 
#
# Total GULP energy -190170.813419 kJ/mol
# GULP energy per Si atom -5593.259218 kJ/mol
# Density = 2.444436 g / cm^3
# Si number density = 24.500124 Si / 1000 Ang^3
#
#
#
# Elastic Constant Matrix: (Units=GPa)
#
#
# Indices 1 2 3 4 5 6 
#
# 1 103.1917 29.2454 25.8050 0.0000 0.0000 0.0000
# 2 29.2454 105.5400 78.1866 0.0000 0.0000 0.0000
# 3 25.8050 78.1866 157.9844 0.0000 0.0000 0.0000
# 4 0.0000 0.0000 0.0000 48.2398 0.0000 0.0000
# 5 0.0000 0.0000 0.0000 0.0000 27.5478 0.0000
# 6 0.0000 0.0000 0.0000 0.0000 0.0000 45.3294
#
#
#
# Elastic Compliance Matrix: (Units=1/GPa)
#
#
# Indices 1 2 3 4 5 6 
#
# 1 0.010536 -0.002597 -0.000436 0.000000 0.000000 0.000000
# 2 -0.002597 0.015600 -0.007296 0.000000 0.000000 0.000000
# 3 -0.000436 -0.007296 0.010012 0.000000 0.000000 0.000000
# 4 0.000000 0.000000 0.000000 0.020730 0.000000 0.000000
# 5 0.000000 0.000000 0.000000 0.000000 0.036300 0.000000
# 6 0.000000 0.000000 0.000000 0.000000 0.000000 0.022061
#
#
# Mechanical properties :
#
#
# Convention : Reuss Voigt Hill
#
# Bulk Modulus (GPa) = 64.55790 70.35447 67.45618
# Shear Modulus (GPa) = 35.44619 39.78869 37.61744
#
# Velocity S-wave (km/s) = 3.80778 4.03428 3.92267
# Velocity P-wave (km/s) = 6.76310 7.10485 6.93608
#
# Compressibility (1/GPa) = 0.01548997
#
# Stress axis : x y z
#
# Youngs Moduli (GPa) = 94.91651 64.10324 99.88163
#
# Poissons Ratio (x) = 0.16645 0.04353
# Poissons Ratio (y) = 0.24646 0.72876
# Poissons Ratio (z) = 0.04137 0.46771
#
# Static dielectric constant tensor:
#      x y z
#    x 2.015600 0.000000 0.000000 
#    y 0.000000 1.890570 0.000000 
#    z 0.000000 0.000000 2.248560 
# 
# From -- ./inp_files/35497.got.cif
#   From: 2010.05.17/outbox.cif.g08.bks.cpg/sg72_18_cif.got.tgz:35497.got - 2010.06.03 17:03:01.
