data_PCOD9528766
_publ_section_title
;
Structure prediction by ZEFSAII (Michael W. Deem and Ramdas Pophale) SiO2 
 PCOD9528766
Probable space group: I B A M
;
_chemical_formula_sum "Si O2"
_cell_formula_units_Z 64
_cell_length_a 11.232088
_cell_length_b 9.093828
_cell_length_c 29.439752
_cell_angle_alpha 90.000000
_cell_angle_beta 90.000000
_cell_angle_gamma 90.000000
_cell_volume 3007.055060
_symmetry_space_group_name_H-M "I B A M"
_symmetry_group_IT_number 72
_symmetry_cell_setting 'orthorhombic'
loop_
_space_group_symop_operation_xyz
x,y,z
-x,-y,z
x,-y,1/2-z
-x,y,1/2-z
-x,-y,-z
x,y,-z
-x,y,1/2+z
x,-y,1/2+z
1/2+x,1/2+y,1/2+z
1/2-x,1/2-y,1/2+z
1/2+x,1/2-y,-z
1/2-x,1/2+y,-z
1/2-x,1/2-y,1/2-z
1/2+x,1/2+y,1/2-z
1/2-x,1/2+y,z
1/2+x,1/2-y,z
loop_
_atom_site_type_symbol
_atom_site_label
_atom_site_fract_x
_atom_site_fract_y
_atom_site_fract_z
Si Si1 0.500000 0.000000 0.428887
Si Si2 0.631803 0.831155 0.267377
Si Si3 0.500000 0.500000 0.086364
Si Si4 0.643850 0.234585 0.873886
Si Si5 0.333216 0.740324 0.451264
O O1 0.413184 0.095178 0.398246
O O2 0.577797 0.122088 0.453837
O O3 0.500000 0.778100 0.250000
O O4 0.750000 0.750000 0.250000
O O5 0.644248 0.807405 0.321360
O O6 0.638411 0.000000 0.250000
O O7 0.434935 0.620797 0.117249
O O8 0.407139 0.409479 0.055777
O O9 0.761115 0.260732 0.904408
O O10 0.265709 0.732863 0.500000
#
# Coordination Sequence:
#
# PCOD9528766 Si02
#       5
#     8  16   8  16  16
#     4  10  23  42  67  92 142 186 238 287 367 418
#     4  11  28  48  76 108 147 190 245 304 373 444
#     4  10  25  42  69  98 148 180 241 294 367 428
#     4  11  25  43  71  99 141 183 238 301 360 435
#     4  11  24  42  68 103 142 192 242 295 363 437
#
# _framework density 21.283283000000001
#
# number of rings (size 3 to 8) (size 9 to 14) (size 15 to 20)
#    0.000    1.250    0.000    3.750   14.000    8.500 
#    0.000    0.000    0.000    0.000    0.000    0.000 
#    0.000    0.000    0.000    0.000    0.000    0.000 
#
# Total GULP energy -178557.991197 kJ/mol
# GULP energy per Si atom -5579.937225 kJ/mol
# Density = 2.123484 g / cm^3
# Si number density = 21.283283 Si / 1000 Ang^3
#
#
#
# Elastic Constant Matrix: (Units=GPa)
#
#
# Indices 1 2 3 4 5 6 
#
# 1 98.3274 17.0391 51.4477 0.0000 0.0000 0.0000
# 2 17.0391 104.0469 34.9363 0.0000 0.0000 0.0000
# 3 51.4477 34.9363 207.4915 0.0000 0.0000 0.0000
# 4 0.0000 0.0000 0.0000 -159.7713 0.0000 0.0000
# 5 0.0000 0.0000 0.0000 0.0000 25.6317 0.0000
# 6 0.0000 0.0000 0.0000 0.0000 0.0000 8.5491
#
#
#
# Elastic Compliance Matrix: (Units=1/GPa)
#
#
# Indices 1 2 3 4 5 6 
#
# 1 0.011785 -0.001006 -0.002753 0.000000 0.000000 0.000000
# 2 -0.001006 0.010273 -0.001480 0.000000 0.000000 0.000000
# 3 -0.002753 -0.001480 0.005751 0.000000 0.000000 0.000000
# 4 0.000000 0.000000 0.000000 -0.006259 0.000000 0.000000
# 5 0.000000 0.000000 0.000000 0.000000 0.039014 0.000000
# 6 0.000000 0.000000 0.000000 0.000000 0.000000 0.116971
#
#
# Mechanical properties :
#
#
# Convention : Reuss Voigt Hill
#
# Bulk Modulus (GPa) = 57.69867 68.52355 63.11111
# Shear Modulus (GPa) = 25.80119 -4.68858 10.55630
#
# Velocity S-wave (km/s) = 3.48555 -1.48584 2.22950
# Velocity P-wave (km/s) = 6.58540 5.41500 6.02867
#
# Compressibility (1/GPa) = 0.01733142
#
# Stress axis : x y z
#
# Youngs Moduli (GPa) = 84.85614 97.34448 173.87503
#
# Poissons Ratio (x) = 0.09789 0.47862
# Poissons Ratio (y) = 0.08533 0.25739
# Poissons Ratio (z) = 0.23358 0.14410
#
# Static dielectric constant tensor:
#      x y z
#    x 4.101440 0.000000 0.000000 
#    y 0.000000 1.729420 0.000000 
#    z 0.000000 0.000000 1.656560 
# 
# From -- ./inp_files/50615.got.cif
#   From: 2010.05.17/outbox.cif.g08.bks.cpg/sg72_26_cif.got.tgz:50615.got - 2010.06.03 17:03:01.
