data_PCOD9528723
_publ_section_title
;
Structure prediction by ZEFSAII (Michael W. Deem and Ramdas Pophale) SiO2 
 PCOD9528723
Probable space group: I B A M
;
_chemical_formula_sum "Si O2"
_cell_formula_units_Z 64
_cell_length_a 23.708627
_cell_length_b 14.404577
_cell_length_c 8.547967
_cell_angle_alpha 90.000000
_cell_angle_beta 90.000000
_cell_angle_gamma 90.000000
_cell_volume 2919.239659
_symmetry_space_group_name_H-M "I B A M"
_symmetry_group_IT_number 72
_symmetry_cell_setting 'orthorhombic'
loop_
_space_group_symop_operation_xyz
x,y,z
-x,-y,z
x,-y,1/2-z
-x,y,1/2-z
-x,-y,-z
x,y,-z
-x,y,1/2+z
x,-y,1/2+z
1/2+x,1/2+y,1/2+z
1/2-x,1/2-y,1/2+z
1/2+x,1/2-y,-z
1/2-x,1/2+y,-z
1/2-x,1/2-y,1/2-z
1/2+x,1/2+y,1/2-z
1/2-x,1/2+y,z
1/2+x,1/2-y,z
loop_
_atom_site_type_symbol
_atom_site_label
_atom_site_fract_x
_atom_site_fract_y
_atom_site_fract_z
Si Si1 0.431059 0.878308 0.000000
Si Si2 0.548237 0.767062 0.000000
Si Si3 0.791809 0.825961 0.321871
Si Si4 0.281281 0.000000 0.750000
Si Si5 0.867201 0.431337 0.000000
Si Si6 0.909574 0.787761 0.179441
O O1 0.495427 0.839870 0.000000
O O2 0.404742 0.823453 0.147092
O O3 0.413753 0.984624 0.000000
O O4 0.601287 0.835099 0.000000
O O5 0.552872 0.708106 0.161664
O O6 0.805757 0.801224 0.500000
O O7 0.750000 0.750000 0.250000
O O8 0.849069 0.829222 0.221361
O O9 0.759235 0.923169 0.323309
O O10 0.324095 0.945704 0.640150
O O11 0.927302 0.820011 0.000000
#
# Coordination Sequence:
#
# PCOD9528723 Si02
#       6
#     8   8  16   8   8  16
#     4  10  23  41  60  96 129 173 229 265 329 398
#     4  12  21  41  68  88 131 181 215 275 333 386
#     4  12  24  42  65  92 131 178 222 280 342 397
#     4  12  28  40  61 100 135 176 228 270 332 408
#     4  12  23  38  58  90 136 176 217 266 320 404
#     4  10  24  39  61  91 121 164 223 268 318 388
#
# _framework density 21.923515999999999
#
# number of rings (size 3 to 8) (size 9 to 14) (size 15 to 20)
#    0.750    0.000    2.500    6.375    3.500    0.000 
#    0.000    3.750    0.000    0.000    0.000    5.250 
#    0.000    0.000    0.000    0.000    0.000    0.000 
#
# Total GULP energy -178394.095285 kJ/mol
# GULP energy per Si atom -5574.815478 kJ/mol
# Density = 2.187362 g / cm^3
# Si number density = 21.923516 Si / 1000 Ang^3
#
#
#
# Elastic Constant Matrix: (Units=GPa)
#
#
# Indices 1 2 3 4 5 6 
#
# 1 139.6319 41.9538 54.5298 0.0000 0.0000 0.0000
# 2 41.9538 46.1061 10.4691 0.0000 0.0000 0.0000
# 3 54.5298 10.4691 175.3472 0.0000 0.0000 0.0000
# 4 0.0000 0.0000 0.0000 18.5174 0.0000 0.0000
# 5 0.0000 0.0000 0.0000 0.0000 60.0030 0.0000
# 6 0.0000 0.0000 0.0000 0.0000 0.0000 42.5739
#
#
#
# Elastic Compliance Matrix: (Units=1/GPa)
#
#
# Indices 1 2 3 4 5 6 
#
# 1 0.011142 -0.009481 -0.002899 0.000000 0.000000 0.000000
# 2 -0.009481 0.030054 0.001154 0.000000 0.000000 0.000000
# 3 -0.002899 0.001154 0.006536 0.000000 0.000000 0.000000
# 4 0.000000 0.000000 0.000000 0.054003 0.000000 0.000000
# 5 0.000000 0.000000 0.000000 0.000000 0.016666 0.000000
# 6 0.000000 0.000000 0.000000 0.000000 0.000000 0.023489
#
#
# Mechanical properties :
#
#
# Convention : Reuss Voigt Hill
#
# Bulk Modulus (GPa) = 39.55632 63.88786 51.72209
# Shear Modulus (GPa) = 28.94060 41.16104 35.05082
#
# Velocity S-wave (km/s) = 3.63722 4.33769 4.00281
# Velocity P-wave (km/s) = 5.97672 7.36831 6.70869
#
# Compressibility (1/GPa) = 0.02528041
#
# Stress axis : x y z
#
# Youngs Moduli (GPa) = 89.74750 33.27362 153.00754
#
# Poissons Ratio (x) = 0.31545 0.44357
# Poissons Ratio (y) = 0.85086 -0.17656
# Poissons Ratio (z) = 0.26018 -0.03840
#
# Static dielectric constant tensor:
#      x y z
#    x 1.839430 0.000000 0.000000 
#    y 0.000000 1.744890 0.000000 
#    z 0.000000 0.000000 1.925580 
# 
# From -- ./inp_files/6655.got.cif
#   From: 2010.05.17/outbox.cif.g08.bks.cpg/sg72_4_cif.got.tgz:6655.got - 2010.06.03 17:03:01.
