data_PCOD9528707
_publ_section_title
;
Structure prediction by ZEFSAII (Michael W. Deem and Ramdas Pophale) SiO2 
 PCOD9528707
Probable space group: I B A M
;
_chemical_formula_sum "Si O2"
_cell_formula_units_Z 116
_cell_length_a 9.066541
_cell_length_b 27.419845
_cell_length_c 24.399857
_cell_angle_alpha 90.000000
_cell_angle_beta 90.000000
_cell_angle_gamma 90.000000
_cell_volume 6065.881283
_symmetry_space_group_name_H-M "I B A M"
_symmetry_group_IT_number 72
_symmetry_cell_setting 'orthorhombic'
loop_
_space_group_symop_operation_xyz
x,y,z
-x,-y,z
x,-y,1/2-z
-x,y,1/2-z
-x,-y,-z
x,y,-z
-x,y,1/2+z
x,-y,1/2+z
1/2+x,1/2+y,1/2+z
1/2-x,1/2-y,1/2+z
1/2+x,1/2-y,-z
1/2-x,1/2+y,-z
1/2-x,1/2-y,1/2-z
1/2+x,1/2+y,1/2-z
1/2-x,1/2+y,z
1/2+x,1/2-y,z
loop_
_atom_site_type_symbol
_atom_site_label
_atom_site_fract_x
_atom_site_fract_y
_atom_site_fract_z
Si Si1 0.080066 0.206765 0.193590
Si Si2 0.306894 0.261702 0.874043
Si Si3 0.636851 0.556464 0.894364
Si Si4 0.332023 0.160057 0.936237
Si Si5 0.672386 0.146971 0.064743
Si Si6 0.500000 0.500000 0.000000
Si Si7 0.156391 0.896281 0.652825
Si Si8 0.326955 0.988704 0.686476
O O1 0.216017 0.241473 0.178128
O O2 0.127655 0.150201 0.191665
O O3 0.000000 0.218439 0.250000
O O4 0.960846 0.215892 0.145588
O O5 0.329076 0.214538 0.912054
O O6 0.217291 0.303141 0.905458
O O7 0.735816 0.603112 0.909399
O O8 0.492640 0.574844 0.861385
O O9 0.730705 0.520914 0.855344
O O10 0.587830 0.530432 0.950721
O O11 0.497209 0.139746 0.928864
O O12 0.218028 0.127182 0.903107
O O13 0.295641 0.160755 0.000000
O O14 0.704030 0.150850 0.000000
O O15 0.278526 0.933102 0.675756
O O16 0.500000 0.000000 0.677510
O O17 0.293323 0.000000 0.750000
#
# Coordination Sequence:
#
# PCOD9528707 Si02
#       8
#    16  16  16  16  16   4  16  16
#     4  11  24  40  64  91 125 172 219 270 328 387
#     4  11  21  42  60  89 131 166 218 269 323 397
#     4  12  24  42  68  98 134 170 221 277 340 400
#     4  10  23  40  62  94 131 171 218 266 329 394
#     4  11  22  38  63  93 127 172 215 264 331 394
#     4  12  24  44  64 104 132 172 218 278 340 404
#     4  11  24  41  66  96 129 169 222 273 329 400
#     4  11  26  47  70  97 135 177 225 279 336 398
#
# _framework density 19.123355
#
# number of rings (size 3 to 8) (size 9 to 14) (size 15 to 20)
#    0.000    0.966    4.828    1.655    2.897    0.552 
#    0.000    0.345    0.000    0.000    0.000    0.000 
#    0.000    0.000    0.000    0.000    0.000    0.000 
#
# Total GULP energy -323640.459850 kJ/mol
# GULP energy per Si atom -5580.007928 kJ/mol
# Density = 1.907983 g / cm^3
# Si number density = 19.123355 Si / 1000 Ang^3
#
#
#
# Elastic Constant Matrix: (Units=GPa)
#
#
# Indices 1 2 3 4 5 6 
#
# 1 58.6507 42.8545 12.6541 0.0000 0.0000 0.0000
# 2 42.8545 107.6722 31.8533 0.0000 0.0000 0.0000
# 3 12.6541 31.8533 57.7625 0.0000 0.0000 0.0000
# 4 0.0000 0.0000 0.0000 3.3082 0.0000 0.0000
# 5 0.0000 0.0000 0.0000 0.0000 30.8544 0.0000
# 6 0.0000 0.0000 0.0000 0.0000 0.0000 32.7818
#
#
#
# Elastic Compliance Matrix: (Units=1/GPa)
#
#
# Indices 1 2 3 4 5 6 
#
# 1 0.024042 -0.009572 0.000012 0.000000 0.000000 0.000000
# 2 -0.009572 0.014909 -0.006125 0.000000 0.000000 0.000000
# 3 0.000012 -0.006125 0.020687 0.000000 0.000000 0.000000
# 4 0.000000 0.000000 0.000000 0.302282 0.000000 0.000000
# 5 0.000000 0.000000 0.000000 0.000000 0.032410 0.000000
# 6 0.000000 0.000000 0.000000 0.000000 0.000000 0.030505
#
#
# Mechanical properties :
#
#
# Convention : Reuss Voigt Hill
#
# Bulk Modulus (GPa) = 35.37598 44.31211 39.84404
# Shear Modulus (GPa) = 10.73817 22.50377 16.62097
#
# Velocity S-wave (km/s) = 2.37221 3.43413 2.95132
# Velocity P-wave (km/s) = 5.10316 6.24070 5.70037
#
# Compressibility (1/GPa) = 0.02826777
#
# Stress axis : x y z
#
# Youngs Moduli (GPa) = 41.59426 67.07255 48.33912
#
# Poissons Ratio (x) = 0.64204 -0.00057
# Poissons Ratio (y) = 0.39815 0.29606
# Poissons Ratio (z) = -0.00049 0.41080
#
# Static dielectric constant tensor:
#      x y z
#    x 1.667790 0.000000 0.000000 
#    y 0.000000 1.651730 0.000000 
#    z 0.000000 0.000000 1.634710 
# 
# From -- ./inp_files/42685.got.cif
#   From: 2010.05.17/outbox.cif.g08.bks.cpg/sg72_22_cif.got.tgz:42685.got - 2010.06.03 17:03:01.
