data_PCOD9528107
_publ_section_title
;
Structure prediction by ZEFSAII (Michael W. Deem and Ramdas Pophale) SiO2 
 PCOD9528107
Probable space group: I B A M
;
_chemical_formula_sum "Si O2"
_cell_formula_units_Z 96
_cell_length_a 21.195418
_cell_length_b 13.630895
_cell_length_c 15.158805
_cell_angle_alpha 90.000000
_cell_angle_beta 90.000000
_cell_angle_gamma 90.000000
_cell_volume 4379.568511
_symmetry_space_group_name_H-M "I B A M"
_symmetry_group_IT_number 72
_symmetry_cell_setting 'orthorhombic'
loop_
_space_group_symop_operation_xyz
x,y,z
-x,-y,z
x,-y,1/2-z
-x,y,1/2-z
-x,-y,-z
x,y,-z
-x,y,1/2+z
x,-y,1/2+z
1/2+x,1/2+y,1/2+z
1/2-x,1/2-y,1/2+z
1/2+x,1/2-y,-z
1/2-x,1/2+y,-z
1/2-x,1/2-y,1/2-z
1/2+x,1/2+y,1/2-z
1/2-x,1/2+y,z
1/2+x,1/2-y,z
loop_
_atom_site_type_symbol
_atom_site_label
_atom_site_fract_x
_atom_site_fract_y
_atom_site_fract_z
Si Si1 0.046607 0.627024 0.101735
Si Si2 0.143774 0.527711 0.652013
Si Si3 0.663864 0.277357 0.399935
Si Si4 0.367107 0.601600 0.771995
Si Si5 0.083043 0.725733 0.393220
Si Si6 0.255537 0.599464 0.096553
O O1 0.077003 0.528939 0.140831
O O2 0.102956 0.706092 0.104782
O O3 0.983638 0.677967 0.135817
O O4 0.033530 0.603901 0.000000
O O5 0.164098 0.500000 0.750000
O O6 0.133922 0.641027 0.629978
O O7 0.197727 0.476827 0.594808
O O8 0.666800 0.318701 0.500000
O O9 0.655145 0.350775 0.319810
O O10 0.723653 0.205726 0.387453
O O11 0.401968 0.500000 0.750000
O O12 0.403479 0.679662 0.833509
O O13 0.305462 0.576029 0.829266
O O14 0.082469 0.742943 0.500000
O O15 0.286097 0.601502 0.000000
#
# Coordination Sequence:
#
# PCOD9528107 Si02
#       6
#    16  16  16  16  16  16
#     4   9  19  38  63  93 127 158 193 245 315 389
#     4  11  21  35  62  99 135 165 198 247 316 391
#     4   9  20  40  65  88 116 157 201 255 322 387
#     4  12  26  41  58  84 121 168 222 270 310 360
#     4  11  23  40  64  95 129 167 212 259 314 383
#     4  10  21  40  63  89 123 161 206 259 319 382
#
# _framework density 21.919967
#
# number of rings (size 3 to 8) (size 9 to 14) (size 15 to 20)
#    0.000    1.667    0.000    6.500    0.000    7.333 
#    0.000    3.333    0.000    3.000    0.000    0.000 
#    0.000    0.000    0.000    0.000    0.000    0.000 
#
# Total GULP energy -268303.082837 kJ/mol
# GULP energy per Si atom -5589.647559 kJ/mol
# Density = 2.187008 g / cm^3
# Si number density = 21.919967 Si / 1000 Ang^3
#
#
#
# Elastic Constant Matrix: (Units=GPa)
#
#
# Indices 1 2 3 4 5 6 
#
# 1 62.2107 24.5876 9.2425 0.0000 0.0000 0.0000
# 2 24.5876 131.3962 61.3871 0.0000 0.0000 0.0000
# 3 9.2425 61.3871 128.2663 0.0000 0.0000 0.0000
# 4 0.0000 0.0000 0.0000 10.5592 0.0000 0.0000
# 5 0.0000 0.0000 0.0000 0.0000 80.4409 0.0000
# 6 0.0000 0.0000 0.0000 0.0000 0.0000 86.3567
#
#
#
# Elastic Compliance Matrix: (Units=1/GPa)
#
#
# Indices 1 2 3 4 5 6 
#
# 1 0.017373 -0.003434 0.000392 0.000000 0.000000 0.000000
# 2 -0.003434 0.010481 -0.004769 0.000000 0.000000 0.000000
# 3 0.000392 -0.004769 0.010050 0.000000 0.000000 0.000000
# 4 0.000000 0.000000 0.000000 0.094704 0.000000 0.000000
# 5 0.000000 0.000000 0.000000 0.000000 0.012431 0.000000
# 6 0.000000 0.000000 0.000000 0.000000 0.000000 0.011580
#
#
# Mechanical properties :
#
#
# Convention : Reuss Voigt Hill
#
# Bulk Modulus (GPa) = 44.87794 56.92306 50.90050
# Shear Modulus (GPa) = 27.82881 50.58175 39.20528
#
# Velocity S-wave (km/s) = 3.56696 4.80892 4.23373
# Velocity P-wave (km/s) = 6.12228 7.54051 6.86810
#
# Compressibility (1/GPa) = 0.02228266
#
# Stress axis : x y z
#
# Youngs Moduli (GPa) = 57.55911 95.41028 99.49930
#
# Poissons Ratio (x) = 0.32764 -0.03896
# Poissons Ratio (y) = 0.19766 0.47448
# Poissons Ratio (z) = -0.02254 0.45498
#
# Static dielectric constant tensor:
#      x y z
#    x 1.821820 0.000000 0.000000 
#    y 0.000000 1.824480 0.000000 
#    z 0.000000 0.000000 1.944210 
# 
# From -- ./inp_files/24169.got.cif
#   From: 2010.05.17/outbox.cif.g08.bks.cpg/sg72_13_cif.got.tgz:24169.got - 2010.06.03 17:03:01.
