data_PCOD9528655
_publ_section_title
;
Structure prediction by ZEFSAII (Michael W. Deem and Ramdas Pophale) SiO2 
 PCOD9528655
Probable space group: I B A M
;
_chemical_formula_sum "Si O2"
_cell_formula_units_Z 88
_cell_length_a 10.361789
_cell_length_b 26.813044
_cell_length_c 14.757989
_cell_angle_alpha 90.000000
_cell_angle_beta 90.000000
_cell_angle_gamma 90.000000
_cell_volume 4100.228382
_symmetry_space_group_name_H-M "I B A M"
_symmetry_group_IT_number 72
_symmetry_cell_setting 'orthorhombic'
loop_
_space_group_symop_operation_xyz
x,y,z
-x,-y,z
x,-y,1/2-z
-x,y,1/2-z
-x,-y,-z
x,y,-z
-x,y,1/2+z
x,-y,1/2+z
1/2+x,1/2+y,1/2+z
1/2-x,1/2-y,1/2+z
1/2+x,1/2-y,-z
1/2-x,1/2+y,-z
1/2-x,1/2-y,1/2-z
1/2+x,1/2+y,1/2-z
1/2-x,1/2+y,z
1/2+x,1/2-y,z
loop_
_atom_site_type_symbol
_atom_site_label
_atom_site_fract_x
_atom_site_fract_y
_atom_site_fract_z
Si Si1 0.041581 0.288138 0.389788
Si Si2 0.648950 0.014429 0.500000
Si Si3 0.000000 0.628569 0.750000
Si Si4 0.547471 0.606372 0.343226
Si Si5 0.332156 0.291829 0.605391
Si Si6 0.791629 0.449515 0.803883
Si Si7 0.406604 0.450862 0.000000
O O1 0.041063 0.293533 0.500000
O O2 0.991373 0.337006 0.338629
O O3 0.189614 0.281620 0.356948
O O4 0.949459 0.242517 0.361858
O O5 0.670062 0.044905 0.408432
O O6 0.500000 0.000000 0.500000
O O7 0.759589 0.971025 0.500000
O O8 0.874796 0.593889 0.740979
O O9 0.500000 0.630184 0.250000
O O10 0.631237 0.649993 0.388662
O O11 0.641183 0.562779 0.308273
O O12 0.445000 0.582635 0.412586
O O13 0.321209 0.278611 0.500000
O O14 0.817426 0.500000 0.750000
O O15 0.500000 0.500000 0.000000
#
# Coordination Sequence:
#
# PCOD9528655 Si02
#       7
#    16   8   8  16  16  16   8
#     4  10  24  44  74 100 143 187 238 301 367 430
#     4  12  26  46  74  99 144 191 228 298 360 417
#     4  12  25  42  72 102 138 192 239 298 370 438
#     4  12  25  41  74 102 139 188 241 298 357 420
#     4  10  22  47  72 102 142 186 239 298 364 436
#     4  12  26  46  67 105 146 187 242 296 359 435
#     4  12  24  46  74 103 136 189 244 286 355 440
#
# _framework density 21.462219000000001
#
# number of rings (size 3 to 8) (size 9 to 14) (size 15 to 20)
#    0.000    0.727    4.545    2.455    2.545    2.182 
#    1.636    0.000    0.000    0.000    0.000    0.000 
#    0.000    0.000    0.000    0.000    0.000    0.000 
#
# Total GULP energy -245866.777793 kJ/mol
# GULP energy per Si atom -5587.881313 kJ/mol
# Density = 2.141337 g / cm^3
# Si number density = 21.462219 Si / 1000 Ang^3
#
#
#
# Elastic Constant Matrix: (Units=GPa)
#
#
# Indices 1 2 3 4 5 6 
#
# 1 137.3207 46.1668 38.7076 0.0000 0.0000 0.0000
# 2 46.1668 105.4005 25.8771 0.0000 0.0000 0.0000
# 3 38.7076 25.8771 79.7334 -0.0002 0.0001 0.0001
# 4 0.0000 0.0000 -0.0002 34.5517 0.0000 0.0000
# 5 0.0000 0.0000 0.0001 0.0000 25.4056 0.0000
# 6 0.0000 0.0000 0.0001 0.0000 0.0000 23.2317
#
#
#
# Elastic Compliance Matrix: (Units=1/GPa)
#
#
# Indices 1 2 3 4 5 6 
#
# 1 0.009356 -0.003241 -0.003490 0.000000 0.000000 0.000000
# 2 -0.003241 0.011432 -0.002137 0.000000 0.000000 0.000000
# 3 -0.003490 -0.002137 0.014929 0.000000 0.000000 0.000000
# 4 0.000000 0.000000 0.000000 0.028942 0.000000 0.000000
# 5 0.000000 0.000000 0.000000 0.000000 0.039361 0.000000
# 6 0.000000 0.000000 0.000000 0.000000 0.000000 0.043045
#
#
# Mechanical properties :
#
#
# Convention : Reuss Voigt Hill
#
# Bulk Modulus (GPa) = 55.61275 60.43973 58.02624
# Shear Modulus (GPa) = 29.27500 30.75136 30.01318
#
# Velocity S-wave (km/s) = 3.69728 3.78936 3.74360
# Velocity P-wave (km/s) = 6.64791 6.88243 6.76618
#
# Compressibility (1/GPa) = 0.01798149
#
# Stress axis : x y z
#
# Youngs Moduli (GPa) = 106.88805 87.47494 66.98156
#
# Poissons Ratio (x) = 0.28351 0.23376
# Poissons Ratio (y) = 0.34643 0.14312
# Poissons Ratio (z) = 0.37303 0.18691
#
# Static dielectric constant tensor:
#      x y z
#    x 1.645990 0.000000 0.000000 
#    y 0.000000 1.772460 0.000000 
#    z 0.000000 0.000000 1.773290 
# 
# From -- ./inp_files/20359.got.cif
#   From: 2010.05.17/outbox.cif.g08.bks.cpg/sg72_11_cif.got.tgz:20359.got - 2010.06.03 17:03:01.
