data_PCOD9528732
_publ_section_title
;
Structure prediction by ZEFSAII (Michael W. Deem and Ramdas Pophale) SiO2 
 PCOD9528732
Probable space group: I B A M
;
_chemical_formula_sum "Si O2"
_cell_formula_units_Z 112
_cell_length_a 25.265541
_cell_length_b 13.178461
_cell_length_c 14.375094
_cell_angle_alpha 90.000000
_cell_angle_beta 90.000000
_cell_angle_gamma 90.000000
_cell_volume 4786.344907
_symmetry_space_group_name_H-M "I B A M"
_symmetry_group_IT_number 72
_symmetry_cell_setting 'orthorhombic'
loop_
_space_group_symop_operation_xyz
x,y,z
-x,-y,z
x,-y,1/2-z
-x,y,1/2-z
-x,-y,-z
x,y,-z
-x,y,1/2+z
x,-y,1/2+z
1/2+x,1/2+y,1/2+z
1/2-x,1/2-y,1/2+z
1/2+x,1/2-y,-z
1/2-x,1/2+y,-z
1/2-x,1/2-y,1/2-z
1/2+x,1/2+y,1/2-z
1/2-x,1/2+y,z
1/2+x,1/2-y,z
loop_
_atom_site_type_symbol
_atom_site_label
_atom_site_fract_x
_atom_site_fract_y
_atom_site_fract_z
Si Si1 0.978315 0.233715 0.649343
Si Si2 0.164875 0.550186 0.891030
Si Si3 0.588354 0.680278 0.898918
Si Si4 0.099075 0.052651 0.896972
Si Si5 0.714013 0.134311 0.800762
Si Si6 0.828467 0.839649 0.243402
Si Si7 0.944491 0.548117 0.888245
O O1 0.944497 0.140681 0.611123
O O2 0.944530 0.336966 0.650132
O O3 0.000000 0.205764 0.750000
O O4 0.034619 0.244406 0.598470
O O5 0.192692 0.608590 0.804615
O O6 0.190315 0.439206 0.877501
O O7 0.103477 0.527722 0.866004
O O8 0.169502 0.583395 0.000000
O O9 0.575417 0.560120 0.885524
O O10 0.627815 0.702632 0.815261
O O11 0.614572 0.691116 0.000000
O O12 0.143048 0.079280 0.821559
O O13 0.122521 0.056018 0.000000
O O14 0.777055 0.122471 0.798050
O O15 0.694830 0.248094 0.817825
O O16 0.000000 0.500000 0.859439
O O17 0.943752 0.559405 0.000000
#
# Coordination Sequence:
#
# PCOD9528732 Si02
#       7
#    16  16  16  16  16  16  16
#     4  12  24  39  65  96 134 176 216 274 334 404
#     4  10  23  43  69  96 132 176 222 276 336 397
#     4  11  25  41  66  97 132 174 221 276 337 403
#     4  11  24  42  66  94 130 172 219 270 335 404
#     4  10  25  43  66  94 132 173 223 281 337 392
#     4  11  24  44  65  96 131 172 224 282 334 402
#     4  10  23  41  64  96 132 173 222 273 330 402
#
# _framework density 23.399901
#
# number of rings (size 3 to 8) (size 9 to 14) (size 15 to 20)
#    0.000    1.286    1.429    3.000    6.000    6.571 
#    0.000    2.857    0.000    0.000    0.000    0.000 
#    0.000    0.000    0.000    0.000    0.000    0.000 
#
# Total GULP energy -313054.268036 kJ/mol
# GULP energy per Si atom -5590.254786 kJ/mol
# Density = 2.334664 g / cm^3
# Si number density = 23.399901 Si / 1000 Ang^3
#
#
#
# Elastic Constant Matrix: (Units=GPa)
#
#
# Indices 1 2 3 4 5 6 
#
# 1 113.3505 1.7839 10.0508 0.0000 0.0000 0.0000
# 2 1.7839 54.3044 -4.9636 0.0000 0.0000 0.0000
# 3 10.0508 -4.9636 93.9221 0.0000 0.0000 0.0000
# 4 0.0000 0.0000 0.0000 18.0609 0.0000 0.0000
# 5 0.0000 0.0000 0.0000 0.0000 0.6769 0.0000
# 6 0.0000 0.0000 0.0000 0.0000 0.0000 34.6924
#
#
#
# Elastic Compliance Matrix: (Units=1/GPa)
#
#
# Indices 1 2 3 4 5 6 
#
# 1 0.008915 -0.000382 -0.000974 0.000000 0.000000 0.000000
# 2 -0.000382 0.018520 0.001020 0.000000 0.000000 0.000000
# 3 -0.000974 0.001020 0.010805 0.000000 0.000000 0.000000
# 4 0.000000 0.000000 0.000000 0.055368 0.000000 0.000000
# 5 0.000000 0.000000 0.000000 0.000000 1.477407 0.000000
# 6 0.000000 0.000000 0.000000 0.000000 0.000000 0.028825
#
#
# Mechanical properties :
#
#
# Convention : Reuss Voigt Hill
#
# Bulk Modulus (GPa) = 26.61876 30.59102 28.60489
# Shear Modulus (GPa) = 3.09975 27.66642 15.38308
#
# Velocity S-wave (km/s) = 1.15220 3.44223 2.56676
# Velocity P-wave (km/s) = 3.62910 5.37589 4.58642
#
# Compressibility (1/GPa) = 0.03756749
#
# Stress axis : x y z
#
# Youngs Moduli (GPa) = 112.17577 53.99439 92.54761
#
# Poissons Ratio (x) = 0.02062 0.09015
# Poissons Ratio (y) = 0.04284 -0.09437
# Poissons Ratio (z) = 0.10928 -0.05506
#
# Static dielectric constant tensor:
#      x y z
#    x 1.871740 0.000000 0.000000 
#    y 0.000000 1.929490 0.000000 
#    z 0.000000 0.000000 1.934260 
# 
# From -- ./inp_files/25206.got.cif
#   From: 2010.05.17/outbox.cif.g08.bks.cpg/sg72_13_cif.got.tgz:25206.got - 2010.06.03 17:03:01.
