data_PCOD9528554
_publ_section_title
;
Structure prediction by ZEFSAII (Michael W. Deem and Ramdas Pophale) SiO2 
 PCOD9528554
Probable space group: I B A M
;
_chemical_formula_sum "Si O2"
_cell_formula_units_Z 48
_cell_length_a 14.335289
_cell_length_b 11.130784
_cell_length_c 13.790099
_cell_angle_alpha 90.000000
_cell_angle_beta 90.000000
_cell_angle_gamma 90.000000
_cell_volume 2200.389642
_symmetry_space_group_name_H-M "I B A M"
_symmetry_group_IT_number 72
_symmetry_cell_setting 'orthorhombic'
loop_
_space_group_symop_operation_xyz
x,y,z
-x,-y,z
x,-y,1/2-z
-x,y,1/2-z
-x,-y,-z
x,y,-z
-x,y,1/2+z
x,-y,1/2+z
1/2+x,1/2+y,1/2+z
1/2-x,1/2-y,1/2+z
1/2+x,1/2-y,-z
1/2-x,1/2+y,-z
1/2-x,1/2-y,1/2-z
1/2+x,1/2+y,1/2-z
1/2-x,1/2+y,z
1/2+x,1/2-y,z
loop_
_atom_site_type_symbol
_atom_site_label
_atom_site_fract_x
_atom_site_fract_y
_atom_site_fract_z
Si Si1 0.201534 0.041526 0.888662
Si Si2 0.589393 0.919437 0.113864
Si Si3 0.895099 0.169079 0.778514
O O1 0.311307 0.014440 0.876529
O O2 0.169104 0.146876 0.815934
O O3 0.144253 0.924404 0.857174
O O4 0.184703 0.074380 0.000000
O O5 0.599395 0.801639 0.178778
O O6 0.500000 0.000000 0.138383
O O7 0.579382 0.885110 0.000000
O O8 0.000000 0.135895 0.750000
#
# Coordination Sequence:
#
# PCOD9528554 Si02
#       3
#    16  16  16
#     4  10  22  42  66  94 128 167 214 265 320 379
#     4  10  23  43  67  95 128 168 214 265 319 379
#     4  11  24  40  63  95 130 170 212 262 319 380
#
# _framework density 21.814318
#
# number of rings (size 3 to 8) (size 9 to 14) (size 15 to 20)
#    0.000    1.667    0.000    4.000    0.000   12.667 
#    0.000    6.667    0.000    1.000    0.000    0.000 
#    0.000    0.000    0.000    0.000    0.000    0.000 
#
# Total GULP energy -134280.544809 kJ/mol
# GULP energy per Si atom -5595.022700 kJ/mol
# Density = 2.176467 g / cm^3
# Si number density = 21.814318 Si / 1000 Ang^3
#
#
#
# Elastic Constant Matrix: (Units=GPa)
#
#
# Indices 1 2 3 4 5 6 
#
# 1 178.3469 62.4540 57.1509 0.0000 0.0000 0.0000
# 2 62.4540 128.8121 55.5025 0.0000 0.0000 0.0000
# 3 57.1509 55.5025 147.0227 0.0000 0.0000 0.0000
# 4 0.0000 0.0000 0.0000 16.6928 0.0000 0.0000
# 5 0.0000 0.0000 0.0000 0.0000 35.0562 0.0000
# 6 0.0000 0.0000 0.0000 0.0000 0.0000 22.2122
#
#
#
# Elastic Compliance Matrix: (Units=1/GPa)
#
#
# Indices 1 2 3 4 5 6 
#
# 1 0.007110 -0.002695 -0.001747 0.000000 0.000000 0.000000
# 2 -0.002695 0.010293 -0.002838 0.000000 0.000000 0.000000
# 3 -0.001747 -0.002838 0.008552 0.000000 0.000000 0.000000
# 4 0.000000 0.000000 0.000000 0.059906 0.000000 0.000000
# 5 0.000000 0.000000 0.000000 0.000000 0.028526 0.000000
# 6 0.000000 0.000000 0.000000 0.000000 0.000000 0.045020
#
#
# Mechanical properties :
#
#
# Convention : Reuss Voigt Hill
#
# Bulk Modulus (GPa) = 87.74973 89.37741 88.56357
# Shear Modulus (GPa) = 28.12702 33.39719 30.76211
#
# Velocity S-wave (km/s) = 3.59469 3.91701 3.75931
# Velocity P-wave (km/s) = 7.58566 7.84335 7.71558
#
# Compressibility (1/GPa) = 0.01139605
#
# Stress axis : x y z
#
# Youngs Moduli (GPa) = 140.63787 97.15619 116.93143
#
# Poissons Ratio (x) = 0.26182 0.20424
# Poissons Ratio (y) = 0.37900 0.33186
# Poissons Ratio (z) = 0.24564 0.27573
#
# Static dielectric constant tensor:
#      x y z
#    x 1.792350 0.000000 0.000000 
#    y 0.000000 1.782400 0.000000 
#    z 0.000000 0.000000 1.809370 
# 
# From -- ./inp_files/19272.got.cif
#   From: 2010.05.17/outbox.cif.g08.bks.cpg/sg72_10_cif.got.tgz:19272.got - 2010.06.03 17:03:01.
