data_PCOD9528513
_publ_section_title
;
Structure prediction by ZEFSAII (Michael W. Deem and Ramdas Pophale) SiO2 
 PCOD9528513
Probable space group: I B A M
;
_chemical_formula_sum "Si O2"
_cell_formula_units_Z 64
_cell_length_a 9.688338
_cell_length_b 16.516933
_cell_length_c 18.345565
_cell_angle_alpha 90.000000
_cell_angle_beta 90.000000
_cell_angle_gamma 90.000000
_cell_volume 2935.687208
_symmetry_space_group_name_H-M "I B A M"
_symmetry_group_IT_number 72
_symmetry_cell_setting 'orthorhombic'
loop_
_space_group_symop_operation_xyz
x,y,z
-x,-y,z
x,-y,1/2-z
-x,y,1/2-z
-x,-y,-z
x,y,-z
-x,y,1/2+z
x,-y,1/2+z
1/2+x,1/2+y,1/2+z
1/2-x,1/2-y,1/2+z
1/2+x,1/2-y,-z
1/2-x,1/2+y,-z
1/2-x,1/2-y,1/2-z
1/2+x,1/2+y,1/2-z
1/2-x,1/2+y,z
1/2+x,1/2-y,z
loop_
_atom_site_type_symbol
_atom_site_label
_atom_site_fract_x
_atom_site_fract_y
_atom_site_fract_z
Si Si1 0.292392 0.836523 0.583602
Si Si2 0.868583 0.803420 0.301644
Si Si3 0.344801 0.085954 0.777841
Si Si4 0.016021 0.096201 0.577927
O O1 0.341705 0.832836 0.500000
O O2 0.333655 0.758636 0.632173
O O3 0.347482 0.909065 0.634592
O O4 0.128766 0.854931 0.580972
O O5 0.742817 0.837629 0.252872
O O6 0.000000 0.782055 0.250000
O O7 0.909164 0.881589 0.348654
O O8 0.500000 0.092943 0.750000
O O9 0.289057 0.000000 0.750000
O O10 0.083822 0.118626 0.500000
O O11 0.000000 0.000000 0.576612
#
# Coordination Sequence:
#
# PCOD9528513 Si02
#       4
#    16  16  16  16
#     4  11  24  43  66 100 137 173 217 284 347 401
#     4  12  24  40  70 100 134 177 233 275 343 399
#     4  11  25  45  67  97 134 180 230 282 337 408
#     4  10  22  41  66  99 134 174 227 281 334 402
#
# _framework density 21.800685999999999
#
# number of rings (size 3 to 8) (size 9 to 14) (size 15 to 20)
#    0.000    1.000    2.500    3.750    3.500    0.000 
#    0.000    5.000    0.000    0.000    0.000    0.000 
#    0.000    0.000    0.000    0.000    0.000    0.000 
#
# Total GULP energy -178454.577841 kJ/mol
# GULP energy per Si atom -5576.705558 kJ/mol
# Density = 2.175107 g / cm^3
# Si number density = 21.800686 Si / 1000 Ang^3
#
#
#
# Elastic Constant Matrix: (Units=GPa)
#
#
# Indices 1 2 3 4 5 6 
#
# 1 72.0131 8.9376 43.6753 0.0000 0.0000 0.0000
# 2 8.9376 114.4078 55.4386 0.0000 0.0000 0.0000
# 3 43.6753 55.4386 218.0260 0.0000 0.0000 0.0000
# 4 0.0000 0.0000 0.0000 35.2566 0.0000 0.0000
# 5 0.0000 0.0000 0.0000 0.0000 340.5758 0.0000
# 6 0.0000 0.0000 0.0000 0.0000 0.0000 9.8345
#
#
#
# Elastic Compliance Matrix: (Units=1/GPa)
#
#
# Indices 1 2 3 4 5 6 
#
# 1 0.015818 0.000342 -0.003256 0.000000 0.000000 0.000000
# 2 0.000342 0.009976 -0.002605 0.000000 0.000000 0.000000
# 3 -0.003256 -0.002605 0.005901 0.000000 0.000000 0.000000
# 4 0.000000 0.000000 0.000000 0.028364 0.000000 0.000000
# 5 0.000000 0.000000 0.000000 0.000000 0.002936 0.000000
# 6 0.000000 0.000000 0.000000 0.000000 0.000000 0.101683
#
#
# Mechanical properties :
#
#
# Convention : Reuss Voigt Hill
#
# Bulk Modulus (GPa) = 48.40749 68.95000 58.67874
# Shear Modulus (GPa) = 27.38182 96.89307 62.13745
#
# Velocity S-wave (km/s) = 3.54786 6.67394 5.34457
# Velocity P-wave (km/s) = 6.24787 9.54383 8.06600
#
# Compressibility (1/GPa) = 0.02065796
#
# Stress axis : x y z
#
# Youngs Moduli (GPa) = 63.21718 100.23685 169.45582
#
# Poissons Ratio (x) = -0.03427 0.55170
# Poissons Ratio (y) = -0.02161 0.44147
# Poissons Ratio (z) = 0.20582 0.26114
#
# Static dielectric constant tensor:
#      x y z
#    x 1.928030 0.000000 0.000000 
#    y 0.000000 1.878470 0.000000 
#    z 0.000000 0.000000 1.818080 
# 
# From -- ./inp_files/30134.got.cif
#   From: 2010.05.17/outbox.cif.g08.bks.cpg/sg72_16_cif.got.tgz:30134.got - 2010.06.03 17:03:01.
