data_PCOD9528224
_publ_section_title
;
Structure prediction by ZEFSAII (Michael W. Deem and Ramdas Pophale) SiO2 
 PCOD9528224
Probable space group: I B A M
;
_chemical_formula_sum "Si O2"
_cell_formula_units_Z 112
_cell_length_a 24.743985
_cell_length_b 11.308709
_cell_length_c 20.043600
_cell_angle_alpha 90.000000
_cell_angle_beta 90.000000
_cell_angle_gamma 90.000000
_cell_volume 5608.650779
_symmetry_space_group_name_H-M "I B A M"
_symmetry_group_IT_number 72
_symmetry_cell_setting 'orthorhombic'
loop_
_space_group_symop_operation_xyz
x,y,z
-x,-y,z
x,-y,1/2-z
-x,y,1/2-z
-x,-y,-z
x,y,-z
-x,y,1/2+z
x,-y,1/2+z
1/2+x,1/2+y,1/2+z
1/2-x,1/2-y,1/2+z
1/2+x,1/2-y,-z
1/2-x,1/2+y,-z
1/2-x,1/2-y,1/2-z
1/2+x,1/2+y,1/2-z
1/2-x,1/2+y,z
1/2+x,1/2-y,z
loop_
_atom_site_type_symbol
_atom_site_label
_atom_site_fract_x
_atom_site_fract_y
_atom_site_fract_z
Si Si1 0.634119 0.555708 0.819690
Si Si2 0.311241 0.789008 0.260696
Si Si3 0.303022 0.398282 0.573371
Si Si4 0.019590 0.629796 0.420043
Si Si5 0.859680 0.337084 0.383801
Si Si6 0.822273 0.403480 0.895185
Si Si7 0.084103 0.211375 0.576258
O O1 0.614387 0.500000 0.750000
O O2 0.663302 0.673454 0.794274
O O3 0.674423 0.473747 0.863735
O O4 0.591300 0.603714 0.872929
O O5 0.250000 0.750000 0.250000
O O6 0.339011 0.822303 0.191725
O O7 0.317495 0.891157 0.315187
O O8 0.314561 0.452385 0.500000
O O9 0.332096 0.271588 0.577961
O O10 0.238432 0.382648 0.579160
O O11 0.028813 0.624373 0.500000
O O12 0.075696 0.667502 0.387455
O O13 0.000000 0.500000 0.398031
O O14 0.970447 0.718280 0.407634
O O15 0.841747 0.464694 0.411715
O O16 0.865955 0.305580 0.918261
O O17 0.081940 0.170439 0.500000
#
# Coordination Sequence:
#
# PCOD9528224 Si02
#       7
#    16  16  16  16  16  16  16
#     4  11  22  43  66  89 130 178 223 275 339 403
#     4  11  21  41  66  92 131 181 217 267 330 408
#     4  12  26  40  64 101 137 173 225 281 334 410
#     4  10  21  42  68  98 136 174 220 283 343 400
#     4  12  23  41  69 100 133 173 225 271 341 404
#     4  11  23  39  63  99 136 174 216 272 345 401
#     4  10  22  41  68  97 130 176 226 276 342 402
#
# _framework density 19.969152999999999
#
# number of rings (size 3 to 8) (size 9 to 14) (size 15 to 20)
#    0.000    1.000    4.286    2.571    2.000    1.714 
#    0.000    3.571    3.143    2.571    0.000    0.000 
#    0.000    0.000    0.000    0.000    0.000    0.000 
#
# Total GULP energy -312823.796767 kJ/mol
# GULP energy per Si atom -5586.139228 kJ/mol
# Density = 1.992370 g / cm^3
# Si number density = 19.969153 Si / 1000 Ang^3
#
#
#
# Elastic Constant Matrix: (Units=GPa)
#
#
# Indices 1 2 3 4 5 6 
#
# 1 148.7922 39.9805 52.5678 0.0000 0.0000 0.0000
# 2 39.9805 79.9131 27.5274 0.0000 0.0000 0.0000
# 3 52.5678 27.5274 118.7315 0.0000 0.0000 0.0000
# 4 0.0000 0.0000 0.0000 27.0624 0.0000 0.0000
# 5 0.0000 0.0000 0.0000 0.0000 26.9844 0.0000
# 6 0.0000 0.0000 0.0000 0.0000 0.0000 24.5224
#
#
#
# Elastic Compliance Matrix: (Units=1/GPa)
#
#
# Indices 1 2 3 4 5 6 
#
# 1 0.008695 -0.003286 -0.003088 0.000000 0.000000 0.000000
# 2 -0.003286 0.014842 -0.001986 0.000000 0.000000 0.000000
# 3 -0.003088 -0.001986 0.010250 0.000000 0.000000 0.000000
# 4 0.000000 0.000000 0.000000 0.036952 0.000000 0.000000
# 5 0.000000 0.000000 0.000000 0.000000 0.037058 0.000000
# 6 0.000000 0.000000 0.000000 0.000000 0.000000 0.040779
#
#
# Mechanical properties :
#
#
# Convention : Reuss Voigt Hill
#
# Bulk Modulus (GPa) = 58.59452 65.28758 61.94105
# Shear Modulus (GPa) = 29.24244 30.87123 30.05684
#
# Velocity S-wave (km/s) = 3.83087 3.93612 3.88385
# Velocity P-wave (km/s) = 6.99812 7.30907 7.15529
#
# Compressibility (1/GPa) = 0.01706644
#
# Stress axis : x y z
#
# Youngs Moduli (GPa) = 115.01300 67.37696 97.56263
#
# Poissons Ratio (x) = 0.22143 0.30123
# Poissons Ratio (y) = 0.37798 0.19376
# Poissons Ratio (z) = 0.35511 0.13381
#
# Static dielectric constant tensor:
#      x y z
#    x 1.681760 0.000000 0.000000 
#    y 0.000000 1.654680 0.000000 
#    z 0.000000 0.000000 1.732920 
# 
# From -- ./inp_files/40360.got.cif
#   From: 2010.05.17/outbox.cif.g08.bks.cpg/sg72_21_cif.got.tgz:40360.got - 2010.06.03 17:03:01.
