data_PCOD9528346
_publ_section_title
;
Structure prediction by ZEFSAII (Michael W. Deem and Ramdas Pophale) SiO2 
 PCOD9528346
Probable space group: I B A M
;
_chemical_formula_sum "Si O2"
_cell_formula_units_Z 88
_cell_length_a 7.084628
_cell_length_b 30.725197
_cell_length_c 16.028235
_cell_angle_alpha 90.000000
_cell_angle_beta 90.000000
_cell_angle_gamma 90.000000
_cell_volume 3488.971554
_symmetry_space_group_name_H-M "I B A M"
_symmetry_group_IT_number 72
_symmetry_cell_setting 'orthorhombic'
loop_
_space_group_symop_operation_xyz
x,y,z
-x,-y,z
x,-y,1/2-z
-x,y,1/2-z
-x,-y,-z
x,y,-z
-x,y,1/2+z
x,-y,1/2+z
1/2+x,1/2+y,1/2+z
1/2-x,1/2-y,1/2+z
1/2+x,1/2-y,-z
1/2-x,1/2+y,-z
1/2-x,1/2-y,1/2-z
1/2+x,1/2+y,1/2-z
1/2-x,1/2+y,z
1/2+x,1/2-y,z
loop_
_atom_site_type_symbol
_atom_site_label
_atom_site_fract_x
_atom_site_fract_y
_atom_site_fract_z
Si Si1 0.229571 0.073934 0.746237
Si Si2 0.821596 0.032500 0.909931
Si Si3 0.000000 0.347713 0.250000
Si Si4 0.088725 0.709575 0.598998
Si Si5 0.141859 0.099190 0.907266
Si Si6 0.971892 0.192516 0.597650
O O1 0.282658 0.037896 0.677939
O O2 0.332704 0.118902 0.725766
O O3 0.268325 0.070277 0.845418
O O4 0.000000 0.074905 0.750000
O O5 0.933125 0.078650 0.915278
O O6 0.728282 0.024407 0.000000
O O7 0.000000 0.000000 0.903098
O O8 0.975079 0.317673 0.167941
O O9 0.027402 0.707550 0.500000
O O10 0.302475 0.692846 0.602645
O O11 0.092292 0.760100 0.627393
O O12 0.110267 0.147256 0.870394
O O13 0.224286 0.100469 0.000000
O O14 0.921618 0.191992 0.500000
#
# Coordination Sequence:
#
# PCOD9528346 Si02
#       6
#    16  16   8  16  16  16
#     4  10  22  39  61  90 126 161 203 256 315 373
#     4   9  18  36  65  94 118 155 203 251 312 380
#     4  12  26  40  58  95 124 168 217 256 320 382
#     4  10  22  39  57  83 119 165 219 269 311 371
#     4   9  18  34  58  85 117 158 200 245 307 376
#     4   9  19  37  59  83 119 166 212 262 317 364
#
# _framework density 25.222332000000002
#
# number of rings (size 3 to 8) (size 9 to 14) (size 15 to 20)
#    0.000    2.364    0.000    2.182    2.545    6.909 
#    4.909    0.000    0.000    8.727    0.000   11.455 
#    0.000    0.000    0.000    0.000    0.000    0.000 
#
# Total GULP energy -245287.114535 kJ/mol
# GULP energy per Si atom -5574.707149 kJ/mol
# Density = 2.516492 g / cm^3
# Si number density = 25.222332 Si / 1000 Ang^3
#
#
#
# Elastic Constant Matrix: (Units=GPa)
#
#
# Indices 1 2 3 4 5 6 
#
# 1 62.7951 25.6602 15.9012 0.0000 0.0000 0.0000
# 2 25.6602 95.6757 42.7560 0.0000 0.0000 0.0000
# 3 15.9012 42.7560 162.9279 0.0001 -0.0001 0.0000
# 4 0.0000 0.0000 0.0001 29.9579 0.0000 0.0000
# 5 0.0000 0.0000 -0.0001 0.0000 7.9812 0.0000
# 6 0.0000 0.0000 0.0000 0.0000 0.0000 27.5259
#
#
#
# Elastic Compliance Matrix: (Units=1/GPa)
#
#
# Indices 1 2 3 4 5 6 
#
# 1 0.017929 -0.004561 -0.000553 0.000000 0.000000 0.000000
# 2 -0.004561 0.013001 -0.002967 0.000000 0.000000 0.000000
# 3 -0.000553 -0.002967 0.006970 0.000000 0.000000 0.000000
# 4 0.000000 0.000000 0.000000 0.033380 0.000000 0.000000
# 5 0.000000 0.000000 0.000000 0.000000 0.125294 0.000000
# 6 0.000000 0.000000 0.000000 0.000000 0.000000 0.036329
#
#
# Mechanical properties :
#
#
# Convention : Reuss Voigt Hill
#
# Bulk Modulus (GPa) = 46.00171 54.44817 50.22494
# Shear Modulus (GPa) = 19.50752 28.89841 24.20297
#
# Velocity S-wave (km/s) = 2.78406 3.38856 3.10108
# Velocity P-wave (km/s) = 5.34909 6.07815 5.72524
#
# Compressibility (1/GPa) = 0.02173832
#
# Stress axis : x y z
#
# Youngs Moduli (GPa) = 55.77633 76.91662 143.46929
#
# Poissons Ratio (x) = 0.35085 0.07930
# Poissons Ratio (y) = 0.25442 0.42562
# Poissons Ratio (z) = 0.03083 0.22818
#
# Static dielectric constant tensor:
#      x y z
#    x 2.005200 0.000000 0.000000 
#    y 0.000000 2.049420 0.000000 
#    z 0.000000 0.000000 2.192570 
# 
# From -- ./inp_files/28376.got.cif
#   From: 2010.05.17/outbox.cif.g08.bks.cpg/sg72_15_cif.got.tgz:28376.got - 2010.06.03 17:03:01.
