data_PCOD9528654
_publ_section_title
;
Structure prediction by ZEFSAII (Michael W. Deem and Ramdas Pophale) SiO2 
 PCOD9528654
Probable space group: I B A M
;
_chemical_formula_sum "Si O2"
_cell_formula_units_Z 108
_cell_length_a 13.951308
_cell_length_b 24.830019
_cell_length_c 14.778460
_cell_angle_alpha 90.000000
_cell_angle_beta 90.000000
_cell_angle_gamma 90.000000
_cell_volume 5119.424694
_symmetry_space_group_name_H-M "I B A M"
_symmetry_group_IT_number 72
_symmetry_cell_setting 'orthorhombic'
loop_
_space_group_symop_operation_xyz
x,y,z
-x,-y,z
x,-y,1/2-z
-x,y,1/2-z
-x,-y,-z
x,y,-z
-x,y,1/2+z
x,-y,1/2+z
1/2+x,1/2+y,1/2+z
1/2-x,1/2-y,1/2+z
1/2+x,1/2-y,-z
1/2-x,1/2+y,-z
1/2-x,1/2-y,1/2-z
1/2+x,1/2+y,1/2-z
1/2-x,1/2+y,z
1/2+x,1/2-y,z
loop_
_atom_site_type_symbol
_atom_site_label
_atom_site_fract_x
_atom_site_fract_y
_atom_site_fract_z
Si Si1 0.500000 0.617000 0.250000
Si Si2 0.243289 0.307512 0.700530
Si Si3 0.275030 0.005377 0.392352
Si Si4 0.052466 0.802668 0.393283
Si Si5 0.535935 0.187702 0.392110
Si Si6 0.703177 0.578158 0.751751
Si Si7 0.532732 0.072342 0.150158
Si Si8 0.000000 0.500000 0.000000
O O1 0.513374 0.657046 0.164905
O O2 0.593056 0.583719 0.276000
O O3 0.250000 0.250000 0.750000
O O4 0.336491 0.310229 0.635109
O O5 0.141023 0.311917 0.651725
O O6 0.254741 0.361628 0.760796
O O7 0.265594 0.995440 0.500000
O O8 0.198664 0.044964 0.344815
O O9 0.367145 0.044766 0.377053
O O10 0.264475 0.953608 0.325587
O O11 0.041191 0.810827 0.500000
O O12 0.019846 0.742314 0.369200
O O13 0.546388 0.185322 0.500000
O O14 0.475291 0.135864 0.361929
O O15 0.500000 0.059161 0.250000
O O16 0.465486 0.043244 0.077811
#
# Coordination Sequence:
#
# PCOD9528654 Si02
#       8
#     8  16  16  16  16  16  16   4
#     4  10  22  47  70  98 134 179 230 300 354 416
#     4  11  24  42  67 101 135 186 235 295 352 425
#     4  11  25  45  65  99 137 176 226 288 349 416
#     4  10  23  42  66  97 139 180 233 294 358 426
#     4  11  23  41  65  98 135 182 231 284 349 427
#     4  10  25  43  69  98 134 179 233 287 354 423
#     4  12  27  41  67  95 135 183 229 282 343 417
#     4  12  26  44  60  98 132 182 226 280 336 412
#
# _framework density 21.096119999999999
#
# number of rings (size 3 to 8) (size 9 to 14) (size 15 to 20)
#    0.000    1.185    1.481    3.333   11.407    4.741 
#    0.000    1.481    0.000    0.000    0.000    0.000 
#    0.000    0.000    0.000    0.000    0.000    0.000 
#
# Total GULP energy -300935.142581 kJ/mol
# GULP energy per Si atom -5572.873011 kJ/mol
# Density = 2.104810 g / cm^3
# Si number density = 21.096120 Si / 1000 Ang^3
#
#
#
# Elastic Constant Matrix: (Units=GPa)
#
#
# Indices 1 2 3 4 5 6 
#
# 1 90.8983 30.8188 12.5578 0.0000 0.0000 0.0000
# 2 30.8188 109.3865 28.6565 0.0000 0.0000 0.0000
# 3 12.5578 28.6565 133.7243 0.0000 0.0000 0.0000
# 4 0.0000 0.0000 0.0000 37.8248 0.0000 0.0000
# 5 0.0000 0.0000 0.0000 0.0000 34.0053 0.0000
# 6 0.0000 0.0000 0.0000 0.0000 0.0000 22.7880
#
#
#
# Elastic Compliance Matrix: (Units=1/GPa)
#
#
# Indices 1 2 3 4 5 6 
#
# 1 0.012187 -0.003320 -0.000433 0.000000 0.000000 0.000000
# 2 -0.003320 0.010590 -0.001958 0.000000 0.000000 0.000000
# 3 -0.000433 -0.001958 0.007938 0.000000 0.000000 0.000000
# 4 0.000000 0.000000 0.000000 0.026438 0.000000 0.000000
# 5 0.000000 0.000000 0.000000 0.000000 0.029407 0.000000
# 6 0.000000 0.000000 0.000000 0.000000 0.000000 0.043883
#
#
# Mechanical properties :
#
#
# Convention : Reuss Voigt Hill
#
# Bulk Modulus (GPa) = 51.83013 53.11946 52.47480
# Shear Modulus (GPa) = 33.71648 36.38870 35.05259
#
# Velocity S-wave (km/s) = 4.00213 4.15770 4.08065
# Velocity P-wave (km/s) = 6.78070 6.94860 6.86516
#
# Compressibility (1/GPa) = 0.01929380
#
# Stress axis : x y z
#
# Youngs Moduli (GPa) = 82.05601 94.42724 125.97250
#
# Poissons Ratio (x) = 0.31351 0.05454
# Poissons Ratio (y) = 0.27244 0.24661
# Poissons Ratio (z) = 0.03553 0.18485
#
# Static dielectric constant tensor:
#      x y z
#    x 2.440170 0.000000 0.000000 
#    y 0.000000 1.852910 0.000000 
#    z 0.000000 0.000000 1.758440 
# 
# From -- ./inp_files/22202.got.cif
#   From: 2010.05.17/outbox.cif.g08.bks.cpg/sg72_12_cif.got.tgz:22202.got - 2010.06.03 17:03:01.
