data_PCOD9528667
_publ_section_title
;
Structure prediction by ZEFSAII (Michael W. Deem and Ramdas Pophale) SiO2 
 PCOD9528667
Probable space group: I B A M
;
_chemical_formula_sum "Si O2"
_cell_formula_units_Z 80
_cell_length_a 10.668662
_cell_length_b 27.612956
_cell_length_c 13.545902
_cell_angle_alpha 90.000000
_cell_angle_beta 90.000000
_cell_angle_gamma 90.000000
_cell_volume 3990.531896
_symmetry_space_group_name_H-M "I B A M"
_symmetry_group_IT_number 72
_symmetry_cell_setting 'orthorhombic'
loop_
_space_group_symop_operation_xyz
x,y,z
-x,-y,z
x,-y,1/2-z
-x,y,1/2-z
-x,-y,-z
x,y,-z
-x,y,1/2+z
x,-y,1/2+z
1/2+x,1/2+y,1/2+z
1/2-x,1/2-y,1/2+z
1/2+x,1/2-y,-z
1/2-x,1/2+y,-z
1/2-x,1/2-y,1/2-z
1/2+x,1/2+y,1/2-z
1/2-x,1/2+y,z
1/2+x,1/2-y,z
loop_
_atom_site_type_symbol
_atom_site_label
_atom_site_fract_x
_atom_site_fract_y
_atom_site_fract_z
Si Si1 0.689425 0.789146 0.322330
Si Si2 0.372715 0.446789 0.205722
Si Si3 0.636710 0.113429 0.716297
Si Si4 0.904417 0.774582 0.000000
Si Si5 0.756441 0.878894 0.000000
Si Si6 0.521958 0.570055 0.000000
Si Si7 0.652526 0.326897 0.500000
O O1 0.750000 0.750000 0.250000
O O2 0.635036 0.831068 0.253518
O O3 0.615257 0.756644 0.401342
O O4 0.774047 0.819482 0.399047
O O5 0.354526 0.500000 0.250000
O O6 0.500000 0.422690 0.250000
O O7 0.250285 0.415425 0.229878
O O8 0.415933 0.454454 0.094176
O O9 0.500000 0.093370 0.750000
O O10 0.673966 0.113916 0.599678
O O11 0.819505 0.824219 0.000000
O O12 0.048637 0.786429 0.000000
O O13 0.872918 0.917829 0.000000
O O14 0.582846 0.622969 0.000000
#
# Coordination Sequence:
#
# PCOD9528667 Si02
#       7
#    16  16  16   8   8   8   8
#     4  11  23  39  59  93 138 185 235 281 336 415
#     4  11  25  46  76 108 133 181 236 296 358 418
#     4  12  27  44  69 102 147 183 228 291 357 434
#     4  10  23  37  63  91 130 184 239 287 334 409
#     4  11  23  44  68 101 139 189 227 290 358 403
#     4  11  21  44  77 102 141 178 243 292 352 422
#     4  10  23  38  65  93 131 184 238 286 347 412
#
# _framework density 20.047453000000001
#
# number of rings (size 3 to 8) (size 9 to 14) (size 15 to 20)
#    0.000    1.000    6.000    0.000    2.800    5.200 
#    0.000    0.000    0.000    2.400    0.000    0.000 
#    0.000    0.000    0.000    0.000    0.000    0.000 
#
# Total GULP energy -222931.635236 kJ/mol
# GULP energy per Si atom -5573.290881 kJ/mol
# Density = 2.000182 g / cm^3
# Si number density = 20.047453 Si / 1000 Ang^3
#
#
#
# Elastic Constant Matrix: (Units=GPa)
#
#
# Indices 1 2 3 4 5 6 
#
# 1 135.9583 44.2877 63.4843 0.0000 0.0000 0.0000
# 2 44.2877 83.3643 40.7201 0.0000 0.0000 0.0000
# 3 63.4843 40.7201 192.0127 0.0001 0.0001 0.0000
# 4 0.0000 0.0000 0.0001 39.7729 0.0000 0.0000
# 5 0.0000 0.0000 0.0001 0.0000 -0.2610 0.0000
# 6 0.0000 0.0000 0.0000 0.0000 0.0000 22.2242
#
#
#
# Elastic Compliance Matrix: (Units=1/GPa)
#
#
# Indices 1 2 3 4 5 6 
#
# 1 0.009780 -0.004034 -0.002378 0.000000 0.000001 0.000000
# 2 -0.004034 0.015046 -0.001857 0.000000 -0.000002 0.000000
# 3 -0.002378 -0.001857 0.006388 0.000000 0.000001 0.000000
# 4 0.000000 0.000000 0.000000 0.025143 -0.000003 0.000000
# 5 0.000001 -0.000002 0.000001 -0.000003 -3.831300 0.000001
# 6 0.000000 0.000000 0.000000 0.000000 0.000001 0.044996
#
#
# Mechanical properties :
#
#
# Convention : Reuss Voigt Hill
#
# Bulk Modulus (GPa) = 68.14059 78.70218 73.42138
# Shear Modulus (GPa) = -1.34825 29.87010 14.26093
#
# Velocity S-wave (km/s) = -0.82097 3.86420 2.67002
# Velocity P-wave (km/s) = 5.75889 7.69757 6.79770
#
# Compressibility (1/GPa) = 0.01467554
#
# Stress axis : x y z
#
# Youngs Moduli (GPa) = 102.25398 66.46426 156.54350
#
# Poissons Ratio (x) = 0.26811 0.37224
# Poissons Ratio (y) = 0.41249 0.29070
# Poissons Ratio (z) = 0.24315 0.12342
#
# Static dielectric constant tensor:
#      x y z
#    x 1.342410 0.000000 0.000000 
#    y 0.000000 1.722600 0.000000 
#    z 0.000000 0.000000 1.776670 
# 
# From -- ./inp_files/11701.got.cif
#   From: 2010.05.17/outbox.cif.g08.bks.cpg/sg72_6_cif.got.tgz:11701.got - 2010.06.03 17:03:01.
