data_PCOD9528144
_publ_section_title
;
Structure prediction by ZEFSAII (Michael W. Deem and Ramdas Pophale) SiO2 
 PCOD9528144
Probable space group: I B A M
;
_chemical_formula_sum "Si O2"
_cell_formula_units_Z 80
_cell_length_a 14.528551
_cell_length_b 14.601066
_cell_length_c 18.746423
_cell_angle_alpha 90.000000
_cell_angle_beta 90.000000
_cell_angle_gamma 90.000000
_cell_volume 3976.722428
_symmetry_space_group_name_H-M "I B A M"
_symmetry_group_IT_number 72
_symmetry_cell_setting 'orthorhombic'
loop_
_space_group_symop_operation_xyz
x,y,z
-x,-y,z
x,-y,1/2-z
-x,y,1/2-z
-x,-y,-z
x,y,-z
-x,y,1/2+z
x,-y,1/2+z
1/2+x,1/2+y,1/2+z
1/2-x,1/2-y,1/2+z
1/2+x,1/2-y,-z
1/2-x,1/2+y,-z
1/2-x,1/2-y,1/2-z
1/2+x,1/2+y,1/2-z
1/2-x,1/2+y,z
1/2+x,1/2-y,z
loop_
_atom_site_type_symbol
_atom_site_label
_atom_site_fract_x
_atom_site_fract_y
_atom_site_fract_z
Si Si1 0.619009 0.826529 0.583689
Si Si2 0.258358 0.672629 0.839930
Si Si3 0.878016 0.093548 0.209956
Si Si4 0.545737 0.777280 0.177670
Si Si5 0.243306 0.981795 0.082925
O O1 0.623393 0.805130 0.500000
O O2 0.684741 0.756412 0.626573
O O3 0.516960 0.812340 0.613646
O O4 0.659857 0.928620 0.593359
O O5 0.308994 0.641987 0.766899
O O6 0.152094 0.696626 0.827422
O O7 0.257064 0.587031 0.893900
O O8 0.954184 0.166577 0.184999
O O9 0.825561 0.066435 0.137859
O O10 0.904960 0.000000 0.250000
O O11 0.500000 0.814318 0.250000
O O12 0.217686 0.971134 0.000000
#
# Coordination Sequence:
#
# PCOD9528144 Si02
#       5
#    16  16  16  16  16
#     4  11  24  41  63  96 131 169 217 265 323 397
#     4  11  22  43  67  90 129 172 216 265 324 379
#     4  10  21  40  67  94 125 169 216 264 321 388
#     4  12  23  39  67  95 128 167 216 266 321 382
#     4  10  22  41  65  94 129 171 215 265 323 387
#
# _framework density 20.117069000000001
#
# number of rings (size 3 to 8) (size 9 to 14) (size 15 to 20)
#    0.000    1.200    4.000    2.400    0.000    3.600 
#    0.000    3.000    0.000    3.600    0.000    0.000 
#    0.000    0.000    0.000    0.000    0.000    0.000 
#
# Total GULP energy -223480.742762 kJ/mol
# GULP energy per Si atom -5587.018569 kJ/mol
# Density = 2.007128 g / cm^3
# Si number density = 20.117069 Si / 1000 Ang^3
#
#
#
# Elastic Constant Matrix: (Units=GPa)
#
#
# Indices 1 2 3 4 5 6 
#
# 1 78.0605 -6.1747 21.8072 0.0000 0.0000 0.0000
# 2 -6.1747 51.6988 16.5447 0.0000 0.0000 0.0000
# 3 21.8072 16.5447 116.4340 0.0000 0.0000 0.0000
# 4 0.0000 0.0000 0.0000 30.1036 0.0000 0.0000
# 5 0.0000 0.0000 0.0000 0.0000 24.8446 0.0000
# 6 0.0000 0.0000 0.0000 0.0000 0.0000 18.2750
#
#
#
# Elastic Compliance Matrix: (Units=1/GPa)
#
#
# Indices 1 2 3 4 5 6 
#
# 1 0.013844 0.002602 -0.002963 0.000000 0.000000 0.000000
# 2 0.002602 0.020753 -0.003436 0.000000 0.000000 0.000000
# 3 -0.002963 -0.003436 0.009632 0.000000 0.000000 0.000000
# 4 0.000000 0.000000 0.000000 0.033219 0.000000 0.000000
# 5 0.000000 0.000000 0.000000 0.000000 0.040250 0.000000
# 6 0.000000 0.000000 0.000000 0.000000 0.000000 0.054719
#
#
# Mechanical properties :
#
#
# Convention : Reuss Voigt Hill
#
# Bulk Modulus (GPa) = 27.29668 34.50530 30.90099
# Shear Modulus (GPa) = 26.01147 28.91239 27.46193
#
# Velocity S-wave (km/s) = 3.59974 3.79516 3.69874
# Velocity P-wave (km/s) = 5.55661 6.03273 5.79956
#
# Compressibility (1/GPa) = 0.03663449
#
# Stress axis : x y z
#
# Youngs Moduli (GPa) = 72.23353 48.18543 103.82400
#
# Poissons Ratio (x) = -0.12536 0.30758
# Poissons Ratio (y) = -0.18792 0.35676
# Poissons Ratio (z) = 0.21399 0.16557
#
# Static dielectric constant tensor:
#      x y z
#    x 1.716610 0.000000 0.000000 
#    y 0.000000 1.743750 0.000000 
#    z 0.000000 0.000000 1.693390 
# 
# From -- ./inp_files/31357.got.cif
#   From: 2010.05.17/outbox.cif.g08.bks.cpg/sg72_16_cif.got.tgz:31357.got - 2010.06.03 17:03:01.
