data_PCOD9528996
_publ_section_title
;
Structure prediction by ZEFSAII (Michael W. Deem and Ramdas Pophale) SiO2 
 PCOD9528996
Probable space group: I B A M
;
_chemical_formula_sum "Si O2"
_cell_formula_units_Z 84
_cell_length_a 25.530837
_cell_length_b 9.138810
_cell_length_c 18.049211
_cell_angle_alpha 90.000000
_cell_angle_beta 90.000000
_cell_angle_gamma 90.000000
_cell_volume 4211.268415
_symmetry_space_group_name_H-M "I B A M"
_symmetry_group_IT_number 72
_symmetry_cell_setting 'orthorhombic'
loop_
_space_group_symop_operation_xyz
x,y,z
-x,-y,z
x,-y,1/2-z
-x,y,1/2-z
-x,-y,-z
x,y,-z
-x,y,1/2+z
x,-y,1/2+z
1/2+x,1/2+y,1/2+z
1/2-x,1/2-y,1/2+z
1/2+x,1/2-y,-z
1/2-x,1/2+y,-z
1/2-x,1/2-y,1/2-z
1/2+x,1/2+y,1/2-z
1/2-x,1/2+y,z
1/2+x,1/2-y,z
loop_
_atom_site_type_symbol
_atom_site_label
_atom_site_fract_x
_atom_site_fract_y
_atom_site_fract_z
Si Si1 0.387414 0.297478 0.000000
Si Si2 0.111099 0.500000 0.750000
Si Si3 0.830273 0.890018 0.000000
Si Si4 0.500000 0.500000 0.750000
Si Si5 0.347298 0.137828 0.611425
Si Si6 0.036630 0.639778 0.423857
Si Si7 0.550349 0.745764 0.842198
Si Si8 0.206979 0.438008 0.500000
O O1 0.362703 0.460279 0.000000
O O2 0.420816 0.271834 0.923138
O O3 0.336602 0.189892 0.000000
O O4 0.147576 0.399318 0.802701
O O5 0.076720 0.380549 0.703373
O O6 0.843020 0.797440 0.074757
O O7 0.767507 0.899927 0.000000
O O8 0.541460 0.596894 0.797871
O O9 0.404690 0.089799 0.583648
O O10 0.304853 0.038079 0.571422
O O11 0.032669 0.728764 0.500000
O O12 0.000000 0.500000 0.429237
O O13 0.011414 0.720615 0.356150
#
# Coordination Sequence:
#
# PCOD9528996 Si02
#       8
#     8   8   8   4  16  16  16   8
#     4  12  24  45  70 103 135 186 231 285 345 412
#     4  12  24  45  70  99 144 187 230 268 335 412
#     4  11  27  42  76  95 135 169 236 303 355 399
#     4  12  32  40  56 106 156 182 212 276 364 404
#     4  11  23  42  69 102 127 180 231 281 336 414
#     4  11  19  35  65 100 126 169 229 270 298 382
#     4  12  27  43  67 101 148 190 222 271 335 421
#     4  11  21  50  70  97 122 172 244 296 339 399
#
# _framework density 19.946483000000001
#
# number of rings (size 3 to 8) (size 9 to 14) (size 15 to 20)
#    0.000    0.571    6.667    2.286    5.333    1.143 
#    0.000    0.952    0.000    0.000    0.000    0.000 
#    0.000    0.000    0.000    0.000    0.000    0.000 
#
# Total GULP energy -233839.790427 kJ/mol
# GULP energy per Si atom -5567.614058 kJ/mol
# Density = 1.990108 g / cm^3
# Si number density = 19.946483 Si / 1000 Ang^3
#
#
#
# Elastic Constant Matrix: (Units=GPa)
#
#
# Indices 1 2 3 4 5 6 
#
# 1 85.9218 18.0947 25.9651 0.0000 0.0000 0.0000
# 2 18.0947 114.1264 51.3799 0.0000 0.0000 0.0000
# 3 25.9651 51.3799 126.1938 0.0000 0.0000 0.0000
# 4 0.0000 0.0000 0.0000 76.7118 0.0000 0.0000
# 5 0.0000 0.0000 0.0000 0.0000 28.8787 0.0000
# 6 0.0000 0.0000 0.0000 0.0000 0.0000 23.8869
#
#
#
# Elastic Compliance Matrix: (Units=1/GPa)
#
#
# Indices 1 2 3 4 5 6 
#
# 1 0.012504 -0.001009 -0.002162 0.000000 0.000000 0.000000
# 2 -0.001009 0.010810 -0.004194 0.000000 0.000000 0.000000
# 3 -0.002162 -0.004194 0.010077 0.000000 0.000000 0.000000
# 4 0.000000 0.000000 0.000000 0.013036 0.000000 0.000000
# 5 0.000000 0.000000 0.000000 0.000000 0.034628 0.000000
# 6 0.000000 0.000000 0.000000 0.000000 0.000000 0.041864
#
#
# Mechanical properties :
#
#
# Convention : Reuss Voigt Hill
#
# Bulk Modulus (GPa) = 53.58652 57.45791 55.52222
# Shear Modulus (GPa) = 34.75385 41.28229 38.01807
#
# Velocity S-wave (km/s) = 4.17868 4.55428 4.37052
# Velocity P-wave (km/s) = 7.08557 7.51823 7.30511
#
# Compressibility (1/GPa) = 0.01866141
#
# Stress axis : x y z
#
# Youngs Moduli (GPa) = 79.97209 92.50469 99.23946
#
# Poissons Ratio (x) = 0.09336 0.21455
# Poissons Ratio (y) = 0.08071 0.41618
# Poissons Ratio (z) = 0.17289 0.38794
#
# Static dielectric constant tensor:
#      x y z
#    x 1.685660 0.000000 0.000000 
#    y 0.000000 1.804820 0.000000 
#    z 0.000000 0.000000 1.885880 
# 
# From -- ./inp_files/40134.got.cif
#   From: 2010.05.17/outbox.cif.g08.bks.cpg/sg72_21_cif.got.tgz:40134.got - 2010.06.03 17:03:01.
