data_PCOD9528695
_publ_section_title
;
Structure prediction by ZEFSAII (Michael W. Deem and Ramdas Pophale) SiO2 
 PCOD9528695
Probable space group: I B A M
;
_chemical_formula_sum "Si O2"
_cell_formula_units_Z 64
_cell_length_a 18.747144
_cell_length_b 10.319475
_cell_length_c 15.429580
_cell_angle_alpha 90.000000
_cell_angle_beta 90.000000
_cell_angle_gamma 90.000000
_cell_volume 2985.017098
_symmetry_space_group_name_H-M "I B A M"
_symmetry_group_IT_number 72
_symmetry_cell_setting 'orthorhombic'
loop_
_space_group_symop_operation_xyz
x,y,z
-x,-y,z
x,-y,1/2-z
-x,y,1/2-z
-x,-y,-z
x,y,-z
-x,y,1/2+z
x,-y,1/2+z
1/2+x,1/2+y,1/2+z
1/2-x,1/2-y,1/2+z
1/2+x,1/2-y,-z
1/2-x,1/2+y,-z
1/2-x,1/2-y,1/2-z
1/2+x,1/2+y,1/2-z
1/2-x,1/2+y,z
1/2+x,1/2-y,z
loop_
_atom_site_type_symbol
_atom_site_label
_atom_site_fract_x
_atom_site_fract_y
_atom_site_fract_z
Si Si1 0.216900 0.577369 0.161478
Si Si2 0.536740 0.626796 0.844893
Si Si3 0.057548 0.595239 0.899864
Si Si4 0.196205 0.852226 0.099672
O O1 0.232702 0.500000 0.250000
O O2 0.132176 0.583523 0.148223
O O3 0.235658 0.728776 0.144625
O O4 0.256018 0.480211 0.096422
O O5 0.500000 0.500000 0.884663
O O6 0.500000 0.639111 0.750000
O O7 0.525892 0.761087 0.893667
O O8 0.622960 0.614330 0.848687
O O9 0.000000 0.500000 0.860935
O O10 0.070098 0.560375 0.000000
O O11 0.177670 0.813500 0.000000
#
# Coordination Sequence:
#
# PCOD9528695 Si02
#       4
#    16  16  16  16
#     4  11  24  40  67  96 130 170 216 269 323 381
#     4  10  23  39  64  90 129 165 213 265 316 375
#     4  10  23  41  64  94 128 170 218 260 321 386
#     4  11  24  44  67  95 133 171 215 266 325 386
#
# _framework density 21.440411999999998
#
# number of rings (size 3 to 8) (size 9 to 14) (size 15 to 20)
#    0.000    1.500    0.000    5.250   10.500    4.000 
#    0.000    2.500    0.000    0.000    0.000    0.000 
#    0.000    0.000    0.000    0.000    0.000    0.000 
#
# Total GULP energy -178429.992826 kJ/mol
# GULP energy per Si atom -5575.937276 kJ/mol
# Density = 2.139161 g / cm^3
# Si number density = 21.440412 Si / 1000 Ang^3
#
#
#
# Elastic Constant Matrix: (Units=GPa)
#
#
# Indices 1 2 3 4 5 6 
#
# 1 52.5241 67.0375 7.4717 0.0000 0.0000 0.0000
# 2 67.0375 168.6157 -3.4993 0.0000 0.0000 0.0000
# 3 7.4717 -3.4993 98.3692 0.0000 0.0000 0.0000
# 4 0.0000 0.0000 0.0000 28.8484 0.0000 0.0000
# 5 0.0000 0.0000 0.0000 0.0000 4.9647 0.0000
# 6 0.0000 0.0000 0.0000 0.0000 0.0000 49.7142
#
#
#
# Elastic Compliance Matrix: (Units=1/GPa)
#
#
# Indices 1 2 3 4 5 6 
#
# 1 0.039884 -0.015932 -0.003596 0.000000 0.000000 0.000000
# 2 -0.015932 0.012299 0.001648 0.000000 0.000000 0.000000
# 3 -0.003596 0.001648 0.010498 0.000000 0.000000 0.000000
# 4 0.000000 0.000000 0.000000 0.034664 0.000000 0.000000
# 5 0.000000 0.000000 0.000000 0.000000 0.201423 0.000000
# 6 0.000000 0.000000 0.000000 0.000000 0.000000 0.020115
#
#
# Mechanical properties :
#
#
# Convention : Reuss Voigt Hill
#
# Bulk Modulus (GPa) = 37.14674 51.28098 44.21386
# Shear Modulus (GPa) = 13.75075 33.27205 23.51140
#
# Velocity S-wave (km/s) = 2.53523 3.94361 3.31508
# Velocity P-wave (km/s) = 5.09245 6.68625 5.94302
#
# Compressibility (1/GPa) = 0.02692026
#
# Stress axis : x y z
#
# Youngs Moduli (GPa) = 25.07256 81.30833 95.26043
#
# Poissons Ratio (x) = 1.29537 0.34257
# Poissons Ratio (y) = 0.39945 -0.15695
# Poissons Ratio (z) = 0.09017 -0.13396
#
# Static dielectric constant tensor:
#      x y z
#    x 1.742550 0.000000 0.000000 
#    y 0.000000 1.798920 0.000000 
#    z 0.000000 0.000000 1.855660 
# 
# From -- ./inp_files/22817.got.cif
#   From: 2010.05.17/outbox.cif.g08.bks.cpg/sg72_12_cif.got.tgz:22817.got - 2010.06.03 17:03:01.
