data_PCOD9528447
_publ_section_title
;
Structure prediction by ZEFSAII (Michael W. Deem and Ramdas Pophale) SiO2 
 PCOD9528447
Probable space group: I B A M
;
_chemical_formula_sum "Si O2"
_cell_formula_units_Z 100
_cell_length_a 21.120502
_cell_length_b 25.663784
_cell_length_c 9.857150
_cell_angle_alpha 90.000000
_cell_angle_beta 90.000000
_cell_angle_gamma 90.000000
_cell_volume 5342.890742
_symmetry_space_group_name_H-M "I B A M"
_symmetry_group_IT_number 72
_symmetry_cell_setting 'orthorhombic'
loop_
_space_group_symop_operation_xyz
x,y,z
-x,-y,z
x,-y,1/2-z
-x,y,1/2-z
-x,-y,-z
x,y,-z
-x,y,1/2+z
x,-y,1/2+z
1/2+x,1/2+y,1/2+z
1/2-x,1/2-y,1/2+z
1/2+x,1/2-y,-z
1/2-x,1/2+y,-z
1/2-x,1/2-y,1/2-z
1/2+x,1/2+y,1/2-z
1/2-x,1/2+y,z
1/2+x,1/2-y,z
loop_
_atom_site_type_symbol
_atom_site_label
_atom_site_fract_x
_atom_site_fract_y
_atom_site_fract_z
Si Si1 0.000000 0.500000 0.000000
Si Si2 0.616415 0.075929 0.500000
Si Si3 0.807420 0.270405 0.341194
Si Si4 0.440654 0.717791 0.841156
Si Si5 0.196505 0.949972 0.339213
Si Si6 0.858672 0.538508 0.000000
Si Si7 0.941389 0.092512 0.658316
Si Si8 0.314804 0.889109 0.756278
O O1 0.064979 0.464563 0.000000
O O2 0.046097 0.552419 0.000000
O O3 0.634904 0.106810 0.634170
O O4 0.659156 0.022647 0.500000
O O5 0.795971 0.258499 0.500000
O O6 0.750000 0.250000 0.250000
O O7 0.874144 0.243860 0.302206
O O8 0.813270 0.332266 0.320483
O O9 0.500000 0.734742 0.750000
O O10 0.434866 0.655176 0.828154
O O11 0.452376 0.729598 0.000000
O O12 0.196924 0.960643 0.500000
O O13 0.125394 0.932510 0.302386
O O14 0.246677 0.904882 0.304272
O O15 0.213504 0.000000 0.250000
O O16 0.834175 0.568331 0.868458
O O17 0.953811 0.081200 0.500000
O O18 0.000000 0.075197 0.750000
#
# Coordination Sequence:
#
# PCOD9528447 Si02
#       8
#     4   8  16  16  16   8  16  16
#     4   8  24  42  64  94 124 186 210 262 332 390
#     4  10  22  40  65  89 127 170 214 255 315 387
#     4  11  25  43  64  92 128 165 213 269 325 383
#     4   9  19  40  62  88 119 156 199 251 306 368
#     4  11  24  39  60  89 121 161 202 250 306 358
#     4  10  22  42  63  89 131 162 218 259 315 377
#     4   9  19  38  62  85 117 155 195 241 300 367
#     4  12  23  41  63  93 124 168 211 267 313 376
#
# _framework density 18.716460000000001
#
# number of rings (size 3 to 8) (size 9 to 14) (size 15 to 20)
#    0.480    1.280    1.600    2.400    2.240    4.160 
#    2.880    3.200    0.000    0.000    0.000    0.000 
#    0.000    0.000    0.000    0.000    0.000    0.000 
#
# Total GULP energy -278600.679863 kJ/mol
# GULP energy per Si atom -5572.013597 kJ/mol
# Density = 1.867386 g / cm^3
# Si number density = 18.716460 Si / 1000 Ang^3
#
#
#
# Elastic Constant Matrix: (Units=GPa)
#
#
# Indices 1 2 3 4 5 6 
#
# 1 151.5626 20.8662 48.6794 0.0000 0.0000 0.0000
# 2 20.8662 29.2336 11.4015 0.0000 0.0000 0.0000
# 3 48.6794 11.4015 76.8609 0.0000 0.0000 0.0000
# 4 0.0000 0.0000 0.0000 15.2113 0.0000 0.0000
# 5 0.0000 0.0000 0.0000 0.0000 20.3280 0.0000
# 6 0.0000 0.0000 0.0000 0.0000 0.0000 33.5979
#
#
#
# Elastic Compliance Matrix: (Units=1/GPa)
#
#
# Indices 1 2 3 4 5 6 
#
# 1 0.008774 -0.004347 -0.004912 0.000000 0.000000 0.000000
# 2 -0.004347 0.038461 -0.002952 0.000000 0.000000 0.000000
# 3 -0.004912 -0.002952 0.016560 0.000000 0.000000 0.000000
# 4 0.000000 0.000000 0.000000 0.065741 0.000000 0.000000
# 5 0.000000 0.000000 0.000000 0.000000 0.049193 0.000000
# 6 0.000000 0.000000 0.000000 0.000000 0.000000 0.029764
#
#
# Mechanical properties :
#
#
# Convention : Reuss Voigt Hill
#
# Bulk Modulus (GPa) = 25.39857 46.61683 36.00770
# Shear Modulus (GPa) = 20.32192 25.60810 22.96501
#
# Velocity S-wave (km/s) = 3.29869 3.70295 3.50665
# Velocity P-wave (km/s) = 5.30171 6.57597 5.97292
#
# Compressibility (1/GPa) = 0.03937230
#
# Stress axis : x y z
#
# Youngs Moduli (GPa) = 113.97165 26.00010 60.38805
#
# Poissons Ratio (x) = 0.11302 0.29664
# Poissons Ratio (y) = 0.49543 0.17828
# Poissons Ratio (z) = 0.55985 0.07676
#
# Static dielectric constant tensor:
#      x y z
#    x 1.627480 0.000000 0.000000 
#    y 0.000000 1.634300 0.000000 
#    z 0.000000 0.000000 1.729550 
# 
# From -- ./inp_files/6235.got.cif
#   From: 2010.05.17/outbox.cif.g08.bks.cpg/sg72_4_cif.got.tgz:6235.got - 2010.06.03 17:03:01.
