data_PCOD9528065
_publ_section_title
;
Structure prediction by ZEFSAII (Michael W. Deem and Ramdas Pophale) SiO2 
 PCOD9528065
Probable space group: I B A M
;
_chemical_formula_sum "Si O2"
_cell_formula_units_Z 116
_cell_length_a 16.770274
_cell_length_b 18.120019
_cell_length_c 18.511906
_cell_angle_alpha 90.000000
_cell_angle_beta 90.000000
_cell_angle_gamma 90.000000
_cell_volume 5625.355113
_symmetry_space_group_name_H-M "I B A M"
_symmetry_group_IT_number 72
_symmetry_cell_setting 'orthorhombic'
loop_
_space_group_symop_operation_xyz
x,y,z
-x,-y,z
x,-y,1/2-z
-x,y,1/2-z
-x,-y,-z
x,y,-z
-x,y,1/2+z
x,-y,1/2+z
1/2+x,1/2+y,1/2+z
1/2-x,1/2-y,1/2+z
1/2+x,1/2-y,-z
1/2-x,1/2+y,-z
1/2-x,1/2-y,1/2-z
1/2+x,1/2+y,1/2-z
1/2-x,1/2+y,z
1/2+x,1/2-y,z
loop_
_atom_site_type_symbol
_atom_site_label
_atom_site_fract_x
_atom_site_fract_y
_atom_site_fract_z
Si Si1 0.070961 0.378815 0.418256
Si Si2 0.896250 0.374247 0.588272
Si Si3 0.943223 0.798374 0.421906
Si Si4 0.749611 0.407017 0.085915
Si Si5 0.377759 0.625811 0.285517
Si Si6 0.227689 0.464102 0.820794
Si Si7 0.117069 0.204649 0.867423
Si Si8 0.000000 0.000000 0.250000
O O1 0.072226 0.409121 0.500000
O O2 0.158405 0.395984 0.388740
O O3 0.984931 0.400423 0.387566
O O4 0.063654 0.290092 0.422056
O O5 0.894211 0.371073 0.500000
O O6 0.832407 0.428649 0.622483
O O7 0.878935 0.292487 0.619971
O O8 0.917074 0.826369 0.500000
O O9 0.035644 0.818157 0.408103
O O10 0.891776 0.827855 0.357006
O O11 0.721465 0.475769 0.133905
O O12 0.694129 0.336839 0.101315
O O13 0.748491 0.421127 0.000000
O O14 0.288838 0.594828 0.287903
O O15 0.391797 0.676319 0.214950
O O16 0.439606 0.557256 0.288183
O O17 0.188026 0.500000 0.750000
#
# Coordination Sequence:
#
# PCOD9528065 Si02
#       8
#    16  16  16  16  16  16  16   4
#     4   8  19  40  65  95 126 159 209 271 330 379
#     4  10  23  44  70  98 131 168 219 284 332 380
#     4  10  21  39  65  99 129 163 221 274 322 390
#     4  11  22  40  67  93 126 172 222 267 323 396
#     4  12  24  41  66  89 134 179 214 263 331 398
#     4  12  26  43  59  93 135 176 220 264 325 394
#     4  11  21  42  69  97 129 169 217 274 338 391
#     4  12  20  44  62  88 132 186 208 252 336 396
#
# _framework density 20.620920000000002
#
# number of rings (size 3 to 8) (size 9 to 14) (size 15 to 20)
#    0.000    1.379    3.448    2.483    1.931    3.310 
#    0.000    5.172    0.000    0.000    0.000    0.000 
#    0.000    0.000    0.000    0.000    0.000    0.000 
#
# Total GULP energy -323646.905616 kJ/mol
# GULP energy per Si atom -5580.119062 kJ/mol
# Density = 2.057399 g / cm^3
# Si number density = 20.620920 Si / 1000 Ang^3
#
#
#
# Elastic Constant Matrix: (Units=GPa)
#
#
# Indices 1 2 3 4 5 6 
#
# 1 57.6068 20.9183 23.3399 0.0000 0.0000 0.0000
# 2 20.9183 45.0684 27.1240 0.0000 0.0000 0.0000
# 3 23.3399 27.1240 123.0559 0.0000 0.0000 0.0000
# 4 0.0000 0.0000 0.0000 28.3434 0.0000 0.0000
# 5 0.0000 0.0000 0.0000 0.0000 24.2578 0.0000
# 6 0.0000 0.0000 0.0000 0.0000 0.0000 24.6057
#
#
#
# Elastic Compliance Matrix: (Units=1/GPa)
#
#
# Indices 1 2 3 4 5 6 
#
# 1 0.021361 -0.008620 -0.002152 0.000000 0.000000 0.000000
# 2 -0.008620 0.029060 -0.004771 0.000000 0.000000 0.000000
# 3 -0.002152 -0.004771 0.009586 0.000000 0.000000 0.000000
# 4 0.000000 0.000000 0.000000 0.035282 0.000000 0.000000
# 5 0.000000 0.000000 0.000000 0.000000 0.041224 0.000000
# 6 0.000000 0.000000 0.000000 0.000000 0.000000 0.040641
#
#
# Mechanical properties :
#
#
# Convention : Reuss Voigt Hill
#
# Bulk Modulus (GPa) = 34.57381 40.94394 37.75887
# Shear Modulus (GPa) = 22.94859 25.73130 24.33995
#
# Velocity S-wave (km/s) = 3.33960 3.53629 3.43935
# Velocity P-wave (km/s) = 5.62791 6.04751 5.84148
#
# Compressibility (1/GPa) = 0.02892363
#
# Stress axis : x y z
#
# Youngs Moduli (GPa) = 46.81490 34.41109 104.31861
#
# Poissons Ratio (x) = 0.29661 0.22445
# Poissons Ratio (y) = 0.40352 0.49767
# Poissons Ratio (z) = 0.10072 0.16416
#
# Static dielectric constant tensor:
#      x y z
#    x 1.763110 0.000000 0.000000 
#    y 0.000000 1.749710 0.000000 
#    z 0.000000 0.000000 1.721100 
# 
# From -- ./inp_files/31743.got.cif
#   From: 2010.05.17/outbox.cif.g08.bks.cpg/sg72_16_cif.got.tgz:31743.got - 2010.06.03 17:03:01.
