data_PCOD9528560
_publ_section_title
;
Structure prediction by ZEFSAII (Michael W. Deem and Ramdas Pophale) SiO2 
 PCOD9528560
Probable space group: I B A M
;
_chemical_formula_sum "Si O2"
_cell_formula_units_Z 112
_cell_length_a 13.903706
_cell_length_b 16.950654
_cell_length_c 22.924772
_cell_angle_alpha 90.000000
_cell_angle_beta 90.000000
_cell_angle_gamma 90.000000
_cell_volume 5402.839421
_symmetry_space_group_name_H-M "I B A M"
_symmetry_group_IT_number 72
_symmetry_cell_setting 'orthorhombic'
loop_
_space_group_symop_operation_xyz
x,y,z
-x,-y,z
x,-y,1/2-z
-x,y,1/2-z
-x,-y,-z
x,y,-z
-x,y,1/2+z
x,-y,1/2+z
1/2+x,1/2+y,1/2+z
1/2-x,1/2-y,1/2+z
1/2+x,1/2-y,-z
1/2-x,1/2+y,-z
1/2-x,1/2-y,1/2-z
1/2+x,1/2+y,1/2-z
1/2-x,1/2+y,z
1/2+x,1/2-y,z
loop_
_atom_site_type_symbol
_atom_site_label
_atom_site_fract_x
_atom_site_fract_y
_atom_site_fract_z
Si Si1 0.995930 0.821524 0.316352
Si Si2 0.328616 0.796394 0.647827
Si Si3 0.883034 0.593373 0.751143
Si Si4 0.079769 0.562694 0.569538
Si Si5 0.053289 0.916186 0.432429
Si Si6 0.281241 0.070505 0.068419
Si Si7 0.355952 0.804102 0.854440
O O1 0.902760 0.768869 0.329994
O O2 0.000000 0.856276 0.250000
O O3 0.011055 0.873144 0.375001
O O4 0.081152 0.757909 0.318615
O O5 0.327581 0.859175 0.700899
O O6 0.343351 0.858781 0.595948
O O7 0.236288 0.745801 0.628405
O O8 0.872169 0.500000 0.750000
O O9 0.836443 0.626032 0.809718
O O10 0.000000 0.608919 0.750000
O O11 0.067867 0.568634 0.500000
O O12 0.178033 0.515627 0.583833
O O13 0.085003 0.650171 0.595767
O O14 0.000000 0.500000 0.592284
O O15 0.043378 0.882790 0.500000
O O16 0.167688 0.922538 0.419935
O O17 0.000000 0.000000 0.434788
O O18 0.294325 0.077113 0.000000
#
# Coordination Sequence:
#
# PCOD9528560 Si02
#       7
#    16  16  16  16  16  16  16
#     4  12  25  44  66  97 140 172 218 283 337 403
#     4  12  23  40  65  94 134 170 214 275 337 393
#     4  11  23  40  64  89 123 177 222 262 322 401
#     4  10  23  41  66  99 135 171 220 281 337 399
#     4  10  24  47  71  93 129 181 230 271 325 403
#     4  10  22  42  66  97 131 170 221 273 327 400
#     4  12  23  39  64  94 133 168 214 270 335 400
#
# _framework density 20.729842000000001
#
# number of rings (size 3 to 8) (size 9 to 14) (size 15 to 20)
#    0.000    1.000    4.286    2.143    4.000    2.000 
#    0.000    0.000    0.000    0.000    0.000    0.000 
#    0.000    0.000    0.000    0.000    0.000    0.000 
#
# Total GULP energy -311942.139348 kJ/mol
# GULP energy per Si atom -5570.395345 kJ/mol
# Density = 2.068266 g / cm^3
# Si number density = 20.729842 Si / 1000 Ang^3
#
#
#
# Elastic Constant Matrix: (Units=GPa)
#
#
# Indices 1 2 3 4 5 6 
#
# 1 20.4244 -3.9578 6.5255 0.0000 0.0000 0.0000
# 2 -3.9578 64.5523 51.8151 0.0000 0.0000 0.0000
# 3 6.5255 51.8151 96.0269 0.0000 0.0000 0.0000
# 4 0.0000 0.0000 0.0000 64.1918 0.0000 0.0000
# 5 0.0000 0.0000 0.0000 0.0000 12.1414 0.0000
# 6 0.0000 0.0000 0.0000 0.0000 0.0000 61.3737
#
#
#
# Elastic Compliance Matrix: (Units=1/GPa)
#
#
# Indices 1 2 3 4 5 6 
#
# 1 0.054193 0.011076 -0.009659 0.000000 0.000000 0.000000
# 2 0.011076 0.029591 -0.016720 0.000000 0.000000 0.000000
# 3 -0.009659 -0.016720 0.020092 0.000000 0.000000 0.000000
# 4 0.000000 0.000000 0.000000 0.015578 0.000000 0.000000
# 5 0.000000 0.000000 0.000000 0.000000 0.082363 0.000000
# 6 0.000000 0.000000 0.000000 0.000000 0.000000 0.016294
#
#
# Mechanical properties :
#
#
# Convention : Reuss Voigt Hill
#
# Bulk Modulus (GPa) = 13.64807 32.19658 22.92232
# Shear Modulus (GPa) = 18.30563 35.98276 27.14419
#
# Velocity S-wave (km/s) = 2.97485 4.17081 3.62252
# Velocity P-wave (km/s) = 4.28926 6.22571 5.34589
#
# Compressibility (1/GPa) = 0.07327045
#
# Stress axis : x y z
#
# Youngs Moduli (GPa) = 18.45243 33.79415 49.77141
#
# Poissons Ratio (x) = -0.37430 0.48075
# Poissons Ratio (y) = -0.20438 0.83216
# Poissons Ratio (z) = 0.17824 0.56502
#
# Static dielectric constant tensor:
#      x y z
#    x 1.845290 0.000000 0.000000 
#    y 0.000000 1.730060 0.000000 
#    z 0.000000 0.000000 1.812680 
# 
# From -- ./inp_files/44341.got.cif
#   From: 2010.05.17/outbox.cif.g08.bks.cpg/sg72_23_cif.got.tgz:44341.got - 2010.06.03 17:03:01.
