data_PCOD9528353
_publ_section_title
;
Structure prediction by ZEFSAII (Michael W. Deem and Ramdas Pophale) SiO2 
 PCOD9528353
Probable space group: I B A M
;
_chemical_formula_sum "Si O2"
_cell_formula_units_Z 116
_cell_length_a 22.556783
_cell_length_b 18.601722
_cell_length_c 14.930374
_cell_angle_alpha 90.000000
_cell_angle_beta 90.000000
_cell_angle_gamma 90.000000
_cell_volume 6264.710377
_symmetry_space_group_name_H-M "I B A M"
_symmetry_group_IT_number 72
_symmetry_cell_setting 'orthorhombic'
loop_
_space_group_symop_operation_xyz
x,y,z
-x,-y,z
x,-y,1/2-z
-x,y,1/2-z
-x,-y,-z
x,y,-z
-x,y,1/2+z
x,-y,1/2+z
1/2+x,1/2+y,1/2+z
1/2-x,1/2-y,1/2+z
1/2+x,1/2-y,-z
1/2-x,1/2+y,-z
1/2-x,1/2-y,1/2-z
1/2+x,1/2+y,1/2-z
1/2-x,1/2+y,z
1/2+x,1/2-y,z
loop_
_atom_site_type_symbol
_atom_site_label
_atom_site_fract_x
_atom_site_fract_y
_atom_site_fract_z
Si Si1 0.304889 0.083614 0.727370
Si Si2 0.587375 0.052905 0.108090
Si Si3 0.810958 0.730807 0.301591
Si Si4 0.939839 0.753180 0.693055
Si Si5 0.432776 0.596338 0.397345
Si Si6 0.298067 0.368231 0.901789
Si Si7 0.500000 0.500000 0.250000
Si Si8 0.454974 0.899255 0.392786
O O1 0.360850 0.091627 0.660989
O O2 0.310759 0.144182 0.804520
O O3 0.246184 0.103766 0.672614
O O4 0.301429 0.000000 0.750000
O O5 0.523458 0.085728 0.131877
O O6 0.582812 0.968804 0.135964
O O7 0.594605 0.056692 0.000000
O O8 0.750000 0.750000 0.250000
O O9 0.874615 0.756438 0.259337
O O10 0.808069 0.782471 0.387880
O O11 0.945798 0.820511 0.626345
O O12 0.936710 0.677151 0.643500
O O13 0.000000 0.753517 0.750000
O O14 0.451603 0.579273 0.500000
O O15 0.361394 0.592940 0.394207
O O16 0.461565 0.548864 0.318560
O O17 0.273003 0.381686 0.000000
O O18 0.452646 0.899156 0.500000
#
# Coordination Sequence:
#
# PCOD9528353 Si02
#       8
#    16  16  16  16  16  16   4  16
#     4  11  20  32  53  84 110 144 184 236 280 325
#     4   9  18  32  48  74 113 155 188 220 276 324
#     4   9  20  36  53  76 110 147 182 227 277 335
#     4  11  19  33  55  84 107 146 192 235 276 330
#     4  10  22  39  60  86 111 141 183 228 290 358
#     4   9  20  39  59  77 105 148 188 227 277 342
#     4  12  22  40  64  86 112 142 166 230 308 350
#     4   9  18  31  49  74 112 152 188 233 269 315
#
# _framework density 18.516418999999999
#
# number of rings (size 3 to 8) (size 9 to 14) (size 15 to 20)
#    0.000    2.207    0.690    3.517    0.966    0.552 
#    0.000    2.759    0.000    0.828    0.000    0.000 
#    0.000    0.000    0.000    0.000    0.000    0.000 
#
# Total GULP energy -323085.639371 kJ/mol
# GULP energy per Si atom -5570.442058 kJ/mol
# Density = 1.847428 g / cm^3
# Si number density = 18.516419 Si / 1000 Ang^3
#
#
#
# Elastic Constant Matrix: (Units=GPa)
#
#
# Indices 1 2 3 4 5 6 
#
# 1 89.8828 27.1809 32.9146 0.0000 0.0000 0.0000
# 2 27.1809 102.9300 37.3402 0.0000 0.0000 0.0000
# 3 32.9146 37.3402 67.8604 0.0000 0.0000 0.0000
# 4 0.0000 0.0000 0.0000 24.6432 0.0000 0.0000
# 5 0.0000 0.0000 0.0000 0.0000 19.9510 0.0000
# 6 0.0000 0.0000 0.0000 0.0000 0.0000 24.3344
#
#
#
# Elastic Compliance Matrix: (Units=1/GPa)
#
#
# Indices 1 2 3 4 5 6 
#
# 1 0.013714 -0.001510 -0.005821 0.000000 0.000000 0.000000
# 2 -0.001510 0.012305 -0.006038 0.000000 0.000000 0.000000
# 3 -0.005821 -0.006038 0.020882 0.000000 0.000000 0.000000
# 4 0.000000 0.000000 0.000000 0.040579 0.000000 0.000000
# 5 0.000000 0.000000 0.000000 0.000000 0.050123 0.000000
# 6 0.000000 0.000000 0.000000 0.000000 0.000000 0.041094
#
#
# Mechanical properties :
#
#
# Convention : Reuss Voigt Hill
#
# Bulk Modulus (GPa) = 49.59717 50.61609 50.10663
# Shear Modulus (GPa) = 23.56767 24.66822 24.11795
#
# Velocity S-wave (km/s) = 3.57150 3.65394 3.61296
# Velocity P-wave (km/s) = 6.62202 6.72286 6.67263
#
# Compressibility (1/GPa) = 0.02016244
#
# Stress axis : x y z
#
# Youngs Moduli (GPa) = 72.91957 81.27073 47.88804
#
# Poissons Ratio (x) = 0.12270 0.27875
# Poissons Ratio (y) = 0.11009 0.28916
# Poissons Ratio (z) = 0.42446 0.49074
#
# Static dielectric constant tensor:
#      x y z
#    x 1.669080 0.000000 0.000000 
#    y 0.000000 1.648700 0.000000 
#    z 0.000000 0.000000 1.640260 
# 
# From -- ./inp_files/25384.got.cif
#   From: 2010.05.17/outbox.cif.g08.bks.cpg/sg72_13_cif.got.tgz:25384.got - 2010.06.03 17:03:01.
