data_PCOD9528856
_publ_section_title
;
Structure prediction by ZEFSAII (Michael W. Deem and Ramdas Pophale) SiO2 
 PCOD9528856
Probable space group: I B A M
;
_chemical_formula_sum "Si O2"
_cell_formula_units_Z 96
_cell_length_a 22.744764
_cell_length_b 9.136409
_cell_length_c 22.669517
_cell_angle_alpha 90.000000
_cell_angle_beta 90.000000
_cell_angle_gamma 90.000000
_cell_volume 4710.849556
_symmetry_space_group_name_H-M "I B A M"
_symmetry_group_IT_number 72
_symmetry_cell_setting 'orthorhombic'
loop_
_space_group_symop_operation_xyz
x,y,z
-x,-y,z
x,-y,1/2-z
-x,y,1/2-z
-x,-y,-z
x,y,-z
-x,y,1/2+z
x,-y,1/2+z
1/2+x,1/2+y,1/2+z
1/2-x,1/2-y,1/2+z
1/2+x,1/2-y,-z
1/2-x,1/2+y,-z
1/2-x,1/2-y,1/2-z
1/2+x,1/2+y,1/2-z
1/2-x,1/2+y,z
1/2+x,1/2-y,z
loop_
_atom_site_type_symbol
_atom_site_label
_atom_site_fract_x
_atom_site_fract_y
_atom_site_fract_z
Si Si1 0.238911 0.201794 0.395373
Si Si2 0.835124 0.061560 0.564768
Si Si3 0.511717 0.228299 0.000000
Si Si4 0.054976 0.572662 0.314525
Si Si5 0.170414 0.535839 0.875383
Si Si6 0.045011 0.126342 0.874876
Si Si7 0.394597 0.038993 0.000000
O O1 0.284742 0.314440 0.426055
O O2 0.196439 0.307251 0.358831
O O3 0.196855 0.095427 0.432782
O O4 0.280010 0.084771 0.363760
O O5 0.861040 0.083459 0.500000
O O6 0.888158 0.075085 0.611117
O O7 0.520841 0.312924 0.061924
O O8 0.563373 0.104534 0.000000
O O9 0.444719 0.165081 0.000000
O O10 0.055273 0.500000 0.250000
O O11 0.113894 0.516500 0.342359
O O12 0.048235 0.744587 0.326298
O O13 0.000000 0.500000 0.348058
O O14 0.148824 0.541760 0.943660
O O15 0.000000 0.000000 0.856381
#
# Coordination Sequence:
#
# PCOD9528856 Si02
#       7
#    16  16   8  16  16  16   8
#     4  10  24  36  61  89 134 181 221 260 322 389
#     4  11  22  37  57  94 139 180 216 260 318 400
#     4  11  21  38  56 106 138 182 208 266 340 411
#     4  11  25  48  73  91 120 171 223 276 336 399
#     4  11  23  41  63  94 131 173 223 272 323 396
#     4  12  25  40  66 100 141 168 214 280 341 399
#     4  11  22  32  66  92 138 180 229 258 318 408
#
# _framework density 20.378488999999998
#
# number of rings (size 3 to 8) (size 9 to 14) (size 15 to 20)
#    0.000    1.000    4.167    1.750   11.667    0.000 
#    0.000    2.500    0.000    0.000    0.000    0.000 
#    0.000    0.000    0.000    0.000    0.000    0.000 
#
# Total GULP energy -267780.190789 kJ/mol
# GULP energy per Si atom -5578.753975 kJ/mol
# Density = 2.033211 g / cm^3
# Si number density = 20.378489 Si / 1000 Ang^3
#
#
#
# Elastic Constant Matrix: (Units=GPa)
#
#
# Indices 1 2 3 4 5 6 
#
# 1 109.9290 70.9454 14.5420 0.0000 0.0000 0.0000
# 2 70.9454 154.8078 37.1243 0.0000 0.0000 0.0000
# 3 14.5420 37.1243 52.2261 0.0000 0.0000 0.0000
# 4 0.0000 0.0000 0.0000 49.7052 0.0000 0.0000
# 5 0.0000 0.0000 0.0000 0.0000 6.7713 0.0000
# 6 0.0000 0.0000 0.0000 0.0000 0.0000 46.2836
#
#
#
# Elastic Compliance Matrix: (Units=1/GPa)
#
#
# Indices 1 2 3 4 5 6 
#
# 1 0.012941 -0.006108 0.000738 0.000000 0.000000 0.000000
# 2 -0.006108 0.010670 -0.005884 0.000000 0.000000 0.000000
# 3 0.000738 -0.005884 0.023124 0.000000 0.000000 0.000000
# 4 0.000000 0.000000 0.000000 0.020119 0.000000 0.000000
# 5 0.000000 0.000000 0.000000 0.000000 0.147681 0.000000
# 6 0.000000 0.000000 0.000000 0.000000 0.000000 0.021606
#
#
# Mechanical properties :
#
#
# Convention : Reuss Voigt Hill
#
# Bulk Modulus (GPa) = 41.27361 62.46513 51.86937
# Shear Modulus (GPa) = 18.74605 33.50876 26.12741
#
# Velocity S-wave (km/s) = 3.03627 4.05942 3.58454
# Velocity P-wave (km/s) = 5.70871 7.25885 6.52994
#
# Compressibility (1/GPa) = 0.02422855
#
# Stress axis : x y z
#
# Youngs Moduli (GPa) = 77.27516 93.72463 43.24444
#
# Poissons Ratio (x) = 0.57243 -0.03192
# Poissons Ratio (y) = 0.47196 0.25444
# Poissons Ratio (z) = -0.05704 0.55145
#
# Static dielectric constant tensor:
#      x y z
#    x 1.770160 0.000000 0.000000 
#    y 0.000000 1.673020 0.000000 
#    z 0.000000 0.000000 1.648940 
# 
# From -- ./inp_files/45672.got.cif
#   From: 2010.05.17/outbox.cif.g08.bks.cpg/sg72_23_cif.got.tgz:45672.got - 2010.06.03 17:03:01.
