data_PCOD9528112
_publ_section_title
;
Structure prediction by ZEFSAII (Michael W. Deem and Ramdas Pophale) SiO2 
 PCOD9528112
Probable space group: I B A M
;
_chemical_formula_sum "Si O2"
_cell_formula_units_Z 96
_cell_length_a 16.129483
_cell_length_b 14.626046
_cell_length_c 18.897510
_cell_angle_alpha 90.000000
_cell_angle_beta 90.000000
_cell_angle_gamma 90.000000
_cell_volume 4458.122173
_symmetry_space_group_name_H-M "I B A M"
_symmetry_group_IT_number 72
_symmetry_cell_setting 'orthorhombic'
loop_
_space_group_symop_operation_xyz
x,y,z
-x,-y,z
x,-y,1/2-z
-x,y,1/2-z
-x,-y,-z
x,y,-z
-x,y,1/2+z
x,-y,1/2+z
1/2+x,1/2+y,1/2+z
1/2-x,1/2-y,1/2+z
1/2+x,1/2-y,-z
1/2-x,1/2+y,-z
1/2-x,1/2-y,1/2-z
1/2+x,1/2+y,1/2-z
1/2-x,1/2+y,z
1/2+x,1/2-y,z
loop_
_atom_site_type_symbol
_atom_site_label
_atom_site_fract_x
_atom_site_fract_y
_atom_site_fract_z
Si Si1 0.110953 0.738269 0.302902
Si Si2 0.930665 0.710437 0.351864
Si Si3 0.602396 0.402501 0.579969
Si Si4 0.299107 0.861576 0.922107
Si Si5 0.312825 0.067113 0.918741
Si Si6 0.151795 0.943585 0.321603
O O1 0.121328 0.712455 0.221211
O O2 0.179443 0.702676 0.357077
O O3 0.108235 0.847988 0.304853
O O4 0.025414 0.693480 0.330072
O O5 0.932994 0.810079 0.387336
O O6 0.886012 0.636982 0.401092
O O7 0.573319 0.417477 0.500000
O O8 0.701472 0.382369 0.577472
O O9 0.596337 0.491161 0.628962
O O10 0.340498 0.961243 0.913030
O O11 0.321832 0.823816 0.000000
O O12 0.236029 0.077453 0.865008
O O13 0.284389 0.080909 0.000000
O O14 0.170153 0.000000 0.250000
#
# Coordination Sequence:
#
# PCOD9528112 Si02
#       6
#    16  16  16  16  16  16
#     4  11  25  40  58  93 127 167 212 253 313 384
#     4  11  24  40  59  88 130 169 206 257 316 381
#     4  10  21  40  63  92 122 159 209 266 317 375
#     4   9  21  40  64  91 123 158 208 266 314 372
#     4  10  23  42  65  94 125 162 212 270 322 377
#     4  11  22  40  67  94 123 166 212 269 318 377
#
# _framework density 21.533729999999998
#
# number of rings (size 3 to 8) (size 9 to 14) (size 15 to 20)
#    0.000    1.667    1.667    3.000    4.667    6.667 
#    0.000    4.167    0.000    0.000    0.000    0.000 
#    0.000    0.000    0.000    0.000    0.000    0.000 
#
# Total GULP energy -268300.769003 kJ/mol
# GULP energy per Si atom -5589.599354 kJ/mol
# Density = 2.148472 g / cm^3
# Si number density = 21.533730 Si / 1000 Ang^3
#
#
#
# Elastic Constant Matrix: (Units=GPa)
#
#
# Indices 1 2 3 4 5 6 
#
# 1 41.9856 14.3187 23.2807 0.0000 0.0000 0.0000
# 2 14.3187 56.2084 21.3198 0.0000 0.0000 0.0000
# 3 23.2807 21.3198 124.9646 0.0000 0.0000 0.0000
# 4 0.0000 0.0000 0.0000 36.5459 0.0000 0.0000
# 5 0.0000 0.0000 0.0000 0.0000 110.7933 0.0000
# 6 0.0000 0.0000 0.0000 0.0000 0.0000 -2.8172
#
#
#
# Elastic Compliance Matrix: (Units=1/GPa)
#
#
# Indices 1 2 3 4 5 6 
#
# 1 0.028080 -0.005527 -0.004288 0.000000 0.000000 0.000000
# 2 -0.005527 0.020110 -0.002401 0.000000 0.000000 0.000000
# 3 -0.004288 -0.002401 0.009211 0.000000 0.000000 0.000000
# 4 0.000000 0.000000 0.000000 0.027363 0.000000 0.000000
# 5 0.000000 0.000000 0.000000 0.000000 0.009026 0.000000
# 6 0.000000 0.000000 0.000000 0.000000 0.000000 -0.354961
#
#
# Mechanical properties :
#
#
# Convention : Reuss Voigt Hill
#
# Bulk Modulus (GPa) = 30.33232 37.88857 34.11044
# Shear Modulus (GPa) = -22.14842 39.85368 8.85263
#
# Velocity S-wave (km/s) = -3.21057 4.30671 2.02977
# Velocity P-wave (km/s) = 0.61059 6.50873 4.62257
#
# Compressibility (1/GPa) = 0.03296814
#
# Stress axis : x y z
#
# Youngs Moduli (GPa) = 35.61201 49.72745 108.56745
#
# Poissons Ratio (x) = 0.27483 0.46559
# Poissons Ratio (y) = 0.19682 0.26069
# Poissons Ratio (z) = 0.15272 0.11941
#
# Static dielectric constant tensor:
#      x y z
#    x 1.798110 0.000000 0.000000 
#    y 0.000000 1.778390 0.000000 
#    z 0.000000 0.000000 1.782030 
# 
# From -- ./inp_files/24098.got.cif
#   From: 2010.05.17/outbox.cif.g08.bks.cpg/sg72_13_cif.got.tgz:24098.got - 2010.06.03 17:03:01.
