data_PCOD9528259
_publ_section_title
;
Structure prediction by ZEFSAII (Michael W. Deem and Ramdas Pophale) SiO2 
 PCOD9528259
Probable space group: I B A M
;
_chemical_formula_sum "Si O2"
_cell_formula_units_Z 112
_cell_length_a 25.276283
_cell_length_b 14.445529
_cell_length_c 14.341900
_cell_angle_alpha 90.000000
_cell_angle_beta 90.000000
_cell_angle_gamma 90.000000
_cell_volume 5236.647608
_symmetry_space_group_name_H-M "I B A M"
_symmetry_group_IT_number 72
_symmetry_cell_setting 'orthorhombic'
loop_
_space_group_symop_operation_xyz
x,y,z
-x,-y,z
x,-y,1/2-z
-x,y,1/2-z
-x,-y,-z
x,y,-z
-x,y,1/2+z
x,-y,1/2+z
1/2+x,1/2+y,1/2+z
1/2-x,1/2-y,1/2+z
1/2+x,1/2-y,-z
1/2-x,1/2+y,-z
1/2-x,1/2-y,1/2-z
1/2+x,1/2+y,1/2-z
1/2-x,1/2+y,z
1/2+x,1/2-y,z
loop_
_atom_site_type_symbol
_atom_site_label
_atom_site_fract_x
_atom_site_fract_y
_atom_site_fract_z
Si Si1 0.181700 0.282309 0.886497
Si Si2 0.826219 0.507340 0.894517
Si Si3 0.709717 0.811479 0.112092
Si Si4 0.555196 0.967126 0.642583
Si Si5 0.004727 0.105520 0.608848
Si Si6 0.094318 0.757742 0.106968
Si Si7 0.569947 0.762158 0.309072
O O1 0.183208 0.390124 0.856309
O O2 0.235548 0.232835 0.856739
O O3 0.129687 0.239193 0.840136
O O4 0.176402 0.279213 0.000000
O O5 0.801716 0.415041 0.851341
O O6 0.889691 0.495395 0.896835
O O7 0.805865 0.512251 0.000000
O O8 0.656963 0.749839 0.124592
O O9 0.714436 0.819181 0.000000
O O10 0.555930 0.855975 0.636914
O O11 0.500000 0.000000 0.602002
O O12 0.556281 0.000000 0.750000
O O13 0.988189 0.109221 0.500000
O O14 0.967656 0.177451 0.663795
O O15 0.065091 0.143001 0.611537
O O16 0.000000 0.000000 0.640456
O O17 0.068994 0.711360 0.199071
O O18 0.084673 0.723216 0.000000
#
# Coordination Sequence:
#
# PCOD9528259 Si02
#       7
#    16  16  16  16  16  16  16
#     4   9  19  37  57  87 120 156 204 250 305 368
#     4   9  18  34  55  80 113 155 198 244 300 361
#     4   9  18  35  58  82 117 160 201 250 306 364
#     4  10  22  34  53  83 120 156 196 249 302 357
#     4  10  23  43  65  92 125 162 205 255 309 367
#     4  10  22  38  60  87 119 158 202 249 302 362
#     4  11  22  37  64  87 122 165 201 254 308 365
#
# _framework density 21.387730999999999
#
# number of rings (size 3 to 8) (size 9 to 14) (size 15 to 20)
#    0.000    2.286    0.000    1.714    6.000    2.571 
#    2.571    0.000    0.000    0.429    0.000    0.000 
#    0.000    0.000    0.000    0.000    0.000    0.000 
#
# Total GULP energy -312435.743593 kJ/mol
# GULP energy per Si atom -5579.209707 kJ/mol
# Density = 2.133905 g / cm^3
# Si number density = 21.387731 Si / 1000 Ang^3
#
#
#
# Elastic Constant Matrix: (Units=GPa)
#
#
# Indices 1 2 3 4 5 6 
#
# 1 132.0267 83.2546 -6.1097 0.0000 0.0000 0.0000
# 2 83.2546 123.8478 0.1216 0.0000 0.0000 0.0000
# 3 -6.1097 0.1216 88.1144 0.0000 0.0000 0.0000
# 4 0.0000 0.0000 0.0000 8.4480 0.0000 0.0000
# 5 0.0000 0.0000 0.0000 0.0000 30.2004 0.0000
# 6 0.0000 0.0000 0.0000 0.0000 0.0000 33.0837
#
#
#
# Elastic Compliance Matrix: (Units=1/GPa)
#
#
# Indices 1 2 3 4 5 6 
#
# 1 0.013223 -0.008890 0.000929 0.000000 0.000000 0.000000
# 2 -0.008890 0.014051 -0.000636 0.000000 0.000000 0.000000
# 3 0.000929 -0.000636 0.011414 0.000000 0.000000 0.000000
# 4 0.000000 0.000000 0.000000 0.118371 0.000000 0.000000
# 5 0.000000 0.000000 0.000000 0.000000 0.033112 0.000000
# 6 0.000000 0.000000 0.000000 0.000000 0.000000 0.030226
#
#
# Mechanical properties :
#
#
# Convention : Reuss Voigt Hill
#
# Bulk Modulus (GPa) = 46.52185 55.39131 50.95658
# Shear Modulus (GPa) = 20.42847 32.12791 26.27819
#
# Velocity S-wave (km/s) = 3.09390 3.87998 3.50902
# Velocity P-wave (km/s) = 5.87893 6.78434 6.34780
#
# Compressibility (1/GPa) = 0.02149527
#
# Stress axis : x y z
#
# Youngs Moduli (GPa) = 75.62513 71.16852 87.61025
#
# Poissons Ratio (x) = 0.63268 -0.08140
# Poissons Ratio (y) = 0.67230 0.05570
# Poissons Ratio (z) = -0.07027 0.04525
#
# Static dielectric constant tensor:
#      x y z
#    x 1.759970 0.000000 0.000000 
#    y 0.000000 1.763880 0.000000 
#    z 0.000000 0.000000 1.860630 
# 
# From -- ./inp_files/25213.got.cif
#   From: 2010.05.17/outbox.cif.g08.bks.cpg/sg72_13_cif.got.tgz:25213.got - 2010.06.03 17:03:01.
