data_PCOD9528678
_publ_section_title
;
Structure prediction by ZEFSAII (Michael W. Deem and Ramdas Pophale) SiO2 
 PCOD9528678
Probable space group: I B A M
;
_chemical_formula_sum "Si O2"
_cell_formula_units_Z 60
_cell_length_a 6.921518
_cell_length_b 14.017784
_cell_length_c 25.977994
_cell_angle_alpha 90.000000
_cell_angle_beta 90.000000
_cell_angle_gamma 90.000000
_cell_volume 2520.497833
_symmetry_space_group_name_H-M "I B A M"
_symmetry_group_IT_number 72
_symmetry_cell_setting 'orthorhombic'
loop_
_space_group_symop_operation_xyz
x,y,z
-x,-y,z
x,-y,1/2-z
-x,y,1/2-z
-x,-y,-z
x,y,-z
-x,y,1/2+z
x,-y,1/2+z
1/2+x,1/2+y,1/2+z
1/2-x,1/2-y,1/2+z
1/2+x,1/2-y,-z
1/2-x,1/2+y,-z
1/2-x,1/2-y,1/2-z
1/2+x,1/2+y,1/2-z
1/2-x,1/2+y,z
1/2+x,1/2-y,z
loop_
_atom_site_type_symbol
_atom_site_label
_atom_site_fract_x
_atom_site_fract_y
_atom_site_fract_z
Si Si1 0.115174 0.880470 0.500000
Si Si2 0.166092 0.336871 0.000000
Si Si3 0.625007 0.904870 0.387024
Si Si4 0.500000 0.500000 0.913826
Si Si5 0.000000 0.000000 0.750000
Si Si6 0.685999 0.153939 0.780342
O O1 0.192558 0.775989 0.500000
O O2 0.882428 0.875932 0.500000
O O3 0.149561 0.939088 0.551253
O O4 0.077573 0.367707 0.945004
O O5 0.611912 0.831945 0.339272
O O6 0.500000 0.000000 0.376066
O O7 0.853559 0.930189 0.386622
O O8 0.145827 0.925709 0.777869
O O9 0.500000 0.116281 0.750000
O O10 0.750000 0.250000 0.750000
#
# Coordination Sequence:
#
# PCOD9528678 Si02
#       6
#     8   8  16   8   4  16
#     4   9  20  38  59  96 141 175 236 279 346 447
#     4  10  23  38  66 104 133 184 230 288 368 436
#     4  11  24  44  72 100 141 187 239 303 372 451
#     4   9  21  42  63  95 136 188 226 286 366 438
#     4  12  24  52  82 102 152 200 248 322 392 446
#     4  12  27  50  76 111 147 197 260 319 383 460
#
# _framework density 23.804822000000001
#
# number of rings (size 3 to 8) (size 9 to 14) (size 15 to 20)
#    0.000    1.333    1.333    4.000    3.733    4.267 
#    4.800    0.000    0.000    0.000    0.000    0.000 
#    0.000    0.000    0.000    0.000    0.000    0.000 
#
# Total GULP energy -167349.181943 kJ/mol
# GULP energy per Si atom -5578.306065 kJ/mol
# Density = 2.375064 g / cm^3
# Si number density = 23.804822 Si / 1000 Ang^3
#
#
#
# Elastic Constant Matrix: (Units=GPa)
#
#
# Indices 1 2 3 4 5 6 
#
# 1 82.8165 4.9788 27.4001 0.0000 0.0000 0.0000
# 2 4.9788 126.4245 58.8915 0.0000 0.0000 0.0000
# 3 27.4001 58.8915 209.1188 0.0000 0.0000 0.0000
# 4 0.0000 0.0000 0.0000 -0.6814 0.0000 0.0000
# 5 0.0000 0.0000 0.0000 0.0000 18.9351 0.0000
# 6 0.0000 0.0000 0.0000 0.0000 0.0000 40.0317
#
#
#
# Elastic Compliance Matrix: (Units=1/GPa)
#
#
# Indices 1 2 3 4 5 6 
#
# 1 0.012633 0.000315 -0.001744 0.000000 0.000000 0.000000
# 2 0.000315 0.009112 -0.002607 0.000000 0.000000 0.000000
# 3 -0.001744 -0.002607 0.005745 0.000000 0.000000 0.000000
# 4 0.000000 0.000000 0.000000 -1.467552 0.000000 0.000000
# 5 0.000000 0.000000 0.000000 0.000000 0.052812 0.000000
# 6 0.000000 0.000000 0.000000 0.000000 0.000000 0.024980
#
#
# Mechanical properties :
#
#
# Convention : Reuss Voigt Hill
#
# Bulk Modulus (GPa) = 51.50164 66.76675 59.13419
# Shear Modulus (GPa) = -3.70996 33.46304 14.87654
#
# Velocity S-wave (km/s) = -1.24975 3.75337 2.50259
# Velocity P-wave (km/s) = 4.42712 6.84778 5.76592
#
# Compressibility (1/GPa) = 0.01941686
#
# Stress axis : x y z
#
# Youngs Moduli (GPa) = 79.15814 109.74509 174.07209
#
# Poissons Ratio (x) = -0.03455 0.30357
# Poissons Ratio (y) = -0.02492 0.45387
# Poissons Ratio (z) = 0.13805 0.28614
#
# Static dielectric constant tensor:
#      x y z
#    x 1.964310 0.000000 0.000000 
#    y 0.000000 1.363290 0.000000 
#    z 0.000000 0.000000 1.997460 
# 
# From -- ./inp_files/46957.got.cif
#   From: 2010.05.17/outbox.cif.g08.bks.cpg/sg72_24_cif.got.tgz:46957.got - 2010.06.03 17:03:01.
