data_PCOD9528755
_publ_section_title
;
Structure prediction by ZEFSAII (Michael W. Deem and Ramdas Pophale) SiO2 
 PCOD9528755
Probable space group: I B A M
;
_chemical_formula_sum "Si O2"
_cell_formula_units_Z 116
_cell_length_a 23.071700
_cell_length_b 28.581251
_cell_length_c 8.325114
_cell_angle_alpha 90.000000
_cell_angle_beta 90.000000
_cell_angle_gamma 90.000000
_cell_volume 5489.730429
_symmetry_space_group_name_H-M "I B A M"
_symmetry_group_IT_number 72
_symmetry_cell_setting 'orthorhombic'
loop_
_space_group_symop_operation_xyz
x,y,z
-x,-y,z
x,-y,1/2-z
-x,y,1/2-z
-x,-y,-z
x,y,-z
-x,y,1/2+z
x,-y,1/2+z
1/2+x,1/2+y,1/2+z
1/2-x,1/2-y,1/2+z
1/2+x,1/2-y,-z
1/2-x,1/2+y,-z
1/2-x,1/2-y,1/2-z
1/2+x,1/2+y,1/2-z
1/2-x,1/2+y,z
1/2+x,1/2-y,z
loop_
_atom_site_type_symbol
_atom_site_label
_atom_site_fract_x
_atom_site_fract_y
_atom_site_fract_z
Si Si1 0.562322 0.285329 0.189938
Si Si2 0.097376 0.315329 0.305290
Si Si3 0.269267 0.801481 0.307282
Si Si4 0.658426 0.644540 0.188283
Si Si5 0.078985 0.417129 0.689218
Si Si6 0.805715 0.552091 0.188649
Si Si7 0.000000 0.500000 0.750000
Si Si8 0.823054 0.950340 0.187790
O O1 0.500000 0.302292 0.250000
O O2 0.568508 0.230982 0.236379
O O3 0.613507 0.314423 0.272074
O O4 0.567425 0.290520 0.000000
O O5 0.096138 0.313677 0.500000
O O6 0.165163 0.312662 0.254221
O O7 0.066709 0.364035 0.258671
O O8 0.268063 0.802527 0.500000
O O9 0.250000 0.750000 0.250000
O O10 0.221527 0.837441 0.243107
O O11 0.641530 0.596526 0.277427
O O12 0.659304 0.635510 0.000000
O O13 0.064431 0.425322 0.500000
O O14 0.148361 0.418693 0.710215
O O15 0.048332 0.458836 0.789541
O O16 0.817660 0.500000 0.250000
O O17 0.738199 0.558777 0.224008
O O18 0.816853 0.557572 0.000000
O O19 0.846650 0.000000 0.250000
O O20 0.811067 0.955198 0.000000
#
# Coordination Sequence:
#
# PCOD9528755 Si02
#       8
#    16  16  16  16  16  16   4  16
#     4  12  26  45  68  94 127 169 218 267 322 386
#     4  10  23  42  64  91 125 167 214 271 336 401
#     4  11  21  36  62  96 134 173 214 268 333 399
#     4  12  24  41  66  98 136 176 219 266 323 390
#     4  11  24  42  61  83 117 159 212 275 335 394
#     4  11  21  36  59  86 119 160 206 256 317 384
#     4  12  26  40  64  90 118 164 226 288 350 396
#     4  11  22  39  64  97 134 170 210 257 316 381
#
# _framework density 21.130364
#
# number of rings (size 3 to 8) (size 9 to 14) (size 15 to 20)
#    0.000    0.828    2.069    7.241    0.966    2.759 
#    0.000    0.000    0.000    0.414    0.000    2.897 
#    0.000    0.000    0.000    0.000    0.000    0.000 
#
# Total GULP energy -323960.598252 kJ/mol
# GULP energy per Si atom -5585.527556 kJ/mol
# Density = 2.108227 g / cm^3
# Si number density = 21.130364 Si / 1000 Ang^3
#
#
#
# Elastic Constant Matrix: (Units=GPa)
#
#
# Indices 1 2 3 4 5 6 
#
# 1 61.7621 2.7846 14.8920 0.0000 0.0000 0.0000
# 2 2.7846 128.7448 19.5091 0.0000 0.0000 0.0000
# 3 14.8920 19.5091 68.5067 0.0000 0.0000 0.0000
# 4 0.0000 0.0000 0.0000 23.3207 0.0000 0.0000
# 5 0.0000 0.0000 0.0000 0.0000 17.8885 0.0000
# 6 0.0000 0.0000 0.0000 0.0000 0.0000 5.4689
#
#
#
# Elastic Compliance Matrix: (Units=1/GPa)
#
#
# Indices 1 2 3 4 5 6 
#
# 1 0.017092 0.000202 -0.003773 0.000000 0.000000 0.000000
# 2 0.000202 0.008120 -0.002356 0.000000 0.000000 0.000000
# 3 -0.003773 -0.002356 0.016088 0.000000 0.000000 0.000000
# 4 0.000000 0.000000 0.000000 0.042880 0.000000 0.000000
# 5 0.000000 0.000000 0.000000 0.000000 0.055902 0.000000
# 6 0.000000 0.000000 0.000000 0.000000 0.000000 0.182854
#
#
# Mechanical properties :
#
#
# Convention : Reuss Voigt Hill
#
# Bulk Modulus (GPa) = 33.96088 37.04279 35.50184
# Shear Modulus (GPa) = 14.50934 24.12414 19.31674
#
# Velocity S-wave (km/s) = 2.62326 3.38254 3.02680
# Velocity P-wave (km/s) = 5.02815 5.72923 5.39010
#
# Compressibility (1/GPa) = 0.02944564
#
# Stress axis : x y z
#
# Youngs Moduli (GPa) = 58.50765 123.15288 62.15692
#
# Poissons Ratio (x) = -0.02488 0.23452
# Poissons Ratio (y) = -0.01182 0.14646
# Poissons Ratio (z) = 0.22075 0.29019
#
# Static dielectric constant tensor:
#      x y z
#    x 1.769110 0.000000 0.000000 
#    y 0.000000 1.768560 0.000000 
#    z 0.000000 0.000000 1.741610 
# 
# From -- ./inp_files/7255.got.cif
#   From: 2010.05.17/outbox.cif.g08.bks.cpg/sg72_4_cif.got.tgz:7255.got - 2010.06.03 17:03:01.
