data_PCOD9528257
_publ_section_title
;
Structure prediction by ZEFSAII (Michael W. Deem and Ramdas Pophale) SiO2 
 PCOD9528257
Probable space group: I B A M
;
_chemical_formula_sum "Si O2"
_cell_formula_units_Z 116
_cell_length_a 9.445309
_cell_length_b 23.660218
_cell_length_c 26.828982
_cell_angle_alpha 90.000000
_cell_angle_beta 90.000000
_cell_angle_gamma 90.000000
_cell_volume 5995.689118
_symmetry_space_group_name_H-M "I B A M"
_symmetry_group_IT_number 72
_symmetry_cell_setting 'orthorhombic'
loop_
_space_group_symop_operation_xyz
x,y,z
-x,-y,z
x,-y,1/2-z
-x,y,1/2-z
-x,-y,-z
x,y,-z
-x,y,1/2+z
x,-y,1/2+z
1/2+x,1/2+y,1/2+z
1/2-x,1/2-y,1/2+z
1/2+x,1/2-y,-z
1/2-x,1/2+y,-z
1/2-x,1/2-y,1/2-z
1/2+x,1/2+y,1/2-z
1/2-x,1/2+y,z
1/2+x,1/2-y,z
loop_
_atom_site_type_symbol
_atom_site_label
_atom_site_fract_x
_atom_site_fract_y
_atom_site_fract_z
Si Si1 0.766315 0.377762 0.812183
Si Si2 0.607881 0.719339 0.941783
Si Si3 0.961855 0.722217 0.693419
Si Si4 0.969573 0.155088 0.150588
Si Si5 0.237190 0.076194 0.701434
Si Si6 0.500000 0.500000 0.750000
Si Si7 0.012834 0.438117 0.871634
Si Si8 0.083945 0.682465 0.595651
O O1 0.820385 0.313247 0.817193
O O2 0.606740 0.378134 0.831098
O O3 0.775369 0.395675 0.754473
O O4 0.868654 0.416103 0.845691
O O5 0.522545 0.676340 0.906023
O O6 0.771698 0.707228 0.927412
O O7 0.546846 0.781358 0.927563
O O8 0.587482 0.709896 0.000000
O O9 0.952180 0.788124 0.683019
O O10 0.000000 0.711647 0.750000
O O11 0.075117 0.697515 0.654481
O O12 0.832847 0.118626 0.162119
O O13 0.375023 0.053372 0.673689
O O14 0.110051 0.034074 0.715642
O O15 0.062157 0.385238 0.906245
O O16 0.000000 0.500000 0.895918
#
# Coordination Sequence:
#
# PCOD9528257 Si02
#       8
#    16  16  16  16  16   4  16  16
#     4  11  22  38  58  87 137 179 220 257 313 387
#     4  11  24  44  70  97 127 166 218 285 349 402
#     4  10  22  33  58  90 134 177 206 248 326 400
#     4  11  24  37  58  93 128 166 217 269 333 392
#     4  12  22  40  57  91 132 179 225 266 310 383
#     4  12  24  36  62  88 134 184 238 268 310 372
#     4  11  24  40  63  93 135 183 221 263 313 386
#     4  10  23  42  64  99 131 167 221 269 335 399
#
# _framework density 19.347235000000001
#
# number of rings (size 3 to 8) (size 9 to 14) (size 15 to 20)
#    0.000    1.103    2.759    4.138   11.586    1.655 
#    0.000    0.000    0.000    1.655    0.000    3.379 
#    0.000    0.000    0.000    0.000    0.000    0.000 
#
# Total GULP energy -323900.753421 kJ/mol
# GULP energy per Si atom -5584.495749 kJ/mol
# Density = 1.930320 g / cm^3
# Si number density = 19.347235 Si / 1000 Ang^3
#
#
#
# Elastic Constant Matrix: (Units=GPa)
#
#
# Indices 1 2 3 4 5 6 
#
# 1 80.7458 33.0985 -3.4316 0.0000 0.0000 0.0000
# 2 33.0985 107.9451 9.2396 0.0000 0.0000 0.0000
# 3 -3.4316 9.2396 79.6771 0.0000 0.0000 0.0000
# 4 0.0000 0.0000 0.0000 21.5625 0.0000 0.0000
# 5 0.0000 0.0000 0.0000 0.0000 19.1580 0.0000
# 6 0.0000 0.0000 0.0000 0.0000 0.0000 22.2897
#
#
#
# Elastic Compliance Matrix: (Units=1/GPa)
#
#
# Indices 1 2 3 4 5 6 
#
# 1 0.014265 -0.004471 0.001133 0.000000 0.000000 0.000000
# 2 -0.004471 0.010758 -0.001440 0.000000 0.000000 0.000000
# 3 0.001133 -0.001440 0.012766 0.000000 0.000000 0.000000
# 4 0.000000 0.000000 0.000000 0.046377 0.000000 0.000000
# 5 0.000000 0.000000 0.000000 0.000000 0.052198 0.000000
# 6 0.000000 0.000000 0.000000 0.000000 0.000000 0.044864
#
#
# Mechanical properties :
#
#
# Convention : Reuss Voigt Hill
#
# Bulk Modulus (GPa) = 35.41904 38.46457 36.94180
# Shear Modulus (GPa) = 24.97552 27.89946 26.43749
#
# Velocity S-wave (km/s) = 3.59682 3.80154 3.70059
# Velocity P-wave (km/s) = 5.96626 6.26045 6.11513
#
# Compressibility (1/GPa) = 0.02823340
#
# Stress axis : x y z
#
# Youngs Moduli (GPa) = 70.09948 92.95259 78.33031
#
# Poissons Ratio (x) = 0.41560 -0.08874
# Poissons Ratio (y) = 0.31342 0.11280
# Poissons Ratio (z) = -0.07941 0.13386
#
# Static dielectric constant tensor:
#      x y z
#    x 1.703780 0.000000 0.000000 
#    y 0.000000 1.728180 0.000000 
#    z 0.000000 0.000000 1.645660 
# 
# From -- ./inp_files/47596.got.cif
#   From: 2010.05.17/outbox.cif.g08.bks.cpg/sg72_24_cif.got.tgz:47596.got - 2010.06.03 17:03:01.
