data_PCOD9528059
_publ_section_title
;
Structure prediction by ZEFSAII (Michael W. Deem and Ramdas Pophale) SiO2 
 PCOD9528059
Probable space group: I B A M
;
_chemical_formula_sum "Si O2"
_cell_formula_units_Z 96
_cell_length_a 13.838284
_cell_length_b 14.491546
_cell_length_c 21.538110
_cell_angle_alpha 90.000000
_cell_angle_beta 90.000000
_cell_angle_gamma 90.000000
_cell_volume 4319.212285
_symmetry_space_group_name_H-M "I B A M"
_symmetry_group_IT_number 72
_symmetry_cell_setting 'orthorhombic'
loop_
_space_group_symop_operation_xyz
x,y,z
-x,-y,z
x,-y,1/2-z
-x,y,1/2-z
-x,-y,-z
x,y,-z
-x,y,1/2+z
x,-y,1/2+z
1/2+x,1/2+y,1/2+z
1/2-x,1/2-y,1/2+z
1/2+x,1/2-y,-z
1/2-x,1/2+y,-z
1/2-x,1/2-y,1/2-z
1/2+x,1/2+y,1/2-z
1/2-x,1/2+y,z
1/2+x,1/2-y,z
loop_
_atom_site_type_symbol
_atom_site_label
_atom_site_fract_x
_atom_site_fract_y
_atom_site_fract_z
Si Si1 0.246908 0.177406 0.305607
Si Si2 0.478082 0.239137 0.571127
Si Si3 0.161126 0.916934 0.431134
Si Si4 0.609846 0.532841 0.815636
Si Si5 0.550091 0.899585 0.686624
Si Si6 0.205218 0.259202 0.567370
O O1 0.250000 0.250000 0.250000
O O2 0.138036 0.138530 0.310272
O O3 0.334379 0.103995 0.299641
O O4 0.259547 0.219925 0.373592
O O5 0.456169 0.206592 0.500000
O O6 0.417678 0.334640 0.579707
O O7 0.464297 0.165570 0.626553
O O8 0.592366 0.258536 0.571092
O O9 0.142164 0.955617 0.500000
O O10 0.264857 0.866739 0.431369
O O11 0.156330 0.990279 0.376793
O O12 0.500000 0.500000 0.817646
O O13 0.651327 0.500000 0.750000
O O14 0.500000 0.862227 0.750000
O O15 0.500000 0.000000 0.676702
O O16 0.239077 0.223902 0.500000
#
# Coordination Sequence:
#
# PCOD9528059 Si02
#       6
#    16  16  16  16  16  16
#     4  12  25  44  71  97 137 186 233 290 354 433
#     4  10  21  41  68  95 133 180 233 288 351 422
#     4  10  21  41  65  94 133 176 224 284 347 418
#     4  11  26  42  64  98 133 169 231 293 351 416
#     4  11  26  42  64  97 137 181 232 292 356 424
#     4  10  21  39  65  95 126 172 228 278 340 417
#
# _framework density 22.226275000000001
#
# number of rings (size 3 to 8) (size 9 to 14) (size 15 to 20)
#    0.000    1.333    1.667    3.000    4.667    1.333 
#    0.000    0.000    0.000    0.000    0.000    0.000 
#    0.000    0.000    0.000    0.000    0.000    0.000 
#
# Total GULP energy -267646.511716 kJ/mol
# GULP energy per Si atom -5575.968994 kJ/mol
# Density = 2.217569 g / cm^3
# Si number density = 22.226275 Si / 1000 Ang^3
#
#
#
# Elastic Constant Matrix: (Units=GPa)
#
#
# Indices 1 2 3 4 5 6 
#
# 1 108.1822 19.4530 17.1883 0.0000 0.0000 0.0000
# 2 19.4530 66.9553 60.9329 0.0000 0.0000 0.0000
# 3 17.1883 60.9329 185.8613 0.0000 0.0000 0.0000
# 4 0.0000 0.0000 0.0000 45.3416 0.0000 0.0000
# 5 0.0000 0.0000 0.0000 0.0000 60.5122 0.0000
# 6 0.0000 0.0000 0.0000 0.0000 0.0000 25.8390
#
#
#
# Elastic Compliance Matrix: (Units=1/GPa)
#
#
# Indices 1 2 3 4 5 6 
#
# 1 0.009753 -0.002869 0.000039 0.000000 0.000000 0.000000
# 2 -0.002869 0.022130 -0.006990 0.000000 0.000000 0.000000
# 3 0.000039 -0.006990 0.007668 0.000000 0.000000 0.000000
# 4 0.000000 0.000000 0.000000 0.022055 0.000000 0.000000
# 5 0.000000 0.000000 0.000000 0.000000 0.016526 0.000000
# 6 0.000000 0.000000 0.000000 0.000000 0.000000 0.038701
#
#
# Mechanical properties :
#
#
# Convention : Reuss Voigt Hill
#
# Bulk Modulus (GPa) = 50.22209 61.79412 56.00811
# Shear Modulus (GPa) = 34.93805 43.90019 39.41912
#
# Velocity S-wave (km/s) = 3.96905 4.44909 4.21591
# Velocity P-wave (km/s) = 6.60677 7.36581 6.99659
#
# Compressibility (1/GPa) = 0.01991156
#
# Stress axis : x y z
#
# Youngs Moduli (GPa) = 102.52839 45.18774 130.40651
#
# Poissons Ratio (x) = 0.12963 -0.00502
# Poissons Ratio (y) = 0.29413 0.91151
# Poissons Ratio (z) = -0.00395 0.31585
#
# Static dielectric constant tensor:
#      x y z
#    x 1.865610 0.000000 0.000000 
#    y 0.000000 1.930440 0.000000 
#    z 0.000000 0.000000 2.019310 
# 
# From -- ./inp_files/38048.got.cif
#   From: 2010.05.17/outbox.cif.g08.bks.cpg/sg72_20_cif.got.tgz:38048.got - 2010.06.03 17:03:01.
