data_PCOD9528973
_publ_section_title
;
Structure prediction by ZEFSAII (Michael W. Deem and Ramdas Pophale) SiO2 
 PCOD9528973
Probable space group: I B A M
;
_chemical_formula_sum "Si O2"
_cell_formula_units_Z 96
_cell_length_a 23.581381
_cell_length_b 8.335732
_cell_length_c 25.494996
_cell_angle_alpha 90.000000
_cell_angle_beta 90.000000
_cell_angle_gamma 90.000000
_cell_volume 5011.502215
_symmetry_space_group_name_H-M "I B A M"
_symmetry_group_IT_number 72
_symmetry_cell_setting 'orthorhombic'
loop_
_space_group_symop_operation_xyz
x,y,z
-x,-y,z
x,-y,1/2-z
-x,y,1/2-z
-x,-y,-z
x,y,-z
-x,y,1/2+z
x,-y,1/2+z
1/2+x,1/2+y,1/2+z
1/2-x,1/2-y,1/2+z
1/2+x,1/2-y,-z
1/2-x,1/2+y,-z
1/2-x,1/2-y,1/2-z
1/2+x,1/2+y,1/2-z
1/2-x,1/2+y,z
1/2+x,1/2-y,z
loop_
_atom_site_type_symbol
_atom_site_label
_atom_site_fract_x
_atom_site_fract_y
_atom_site_fract_z
Si Si1 0.014151 0.754521 0.063469
Si Si2 0.296918 0.390547 0.362141
Si Si3 0.306848 0.122543 0.059691
Si Si4 0.381734 0.448818 0.060287
Si Si5 0.912567 0.563547 0.936491
Si Si6 0.777288 0.622593 0.789475
O O1 0.945267 0.098246 0.077927
O O2 0.950151 0.715195 0.081293
O O3 0.050524 0.594761 0.076946
O O4 0.012460 0.762974 0.000000
O O5 0.244854 0.354164 0.401437
O O6 0.348106 0.447749 0.397987
O O7 0.270707 0.525866 0.322668
O O8 0.311783 0.233310 0.328945
O O9 0.345461 0.282221 0.058019
O O10 0.348185 0.978116 0.077976
O O11 0.287060 0.090090 0.000000
O O12 0.382805 0.511947 0.000000
O O13 0.911035 0.569285 0.000000
O O14 0.808053 0.500000 0.750000
O O15 0.750000 0.750000 0.750000
#
# Coordination Sequence:
#
# PCOD9528973 Si02
#       6
#    16  16  16  16  16  16
#     4   7  10  18  32  51  81 122 161 190 218 261
#     4  11  17  30  45  64  89 120 155 204 258 306
#     4   9  16  24  37  63  96 127 158 191 238 300
#     4   9  16  24  37  63  96 127 158 192 238 302
#     4   7  10  18  32  51  81 122 161 191 218 262
#     4   9  20  34  48  60  78 112 158 206 257 312
#
# _framework density 19.155932
#
# number of rings (size 3 to 8) (size 9 to 14) (size 15 to 20)
#    0.000    3.333    1.667    3.500    0.000    0.000 
#    0.000    0.000    0.000    0.000    0.000    1.167 
#    0.000    6.667    1.667    6.000    5.000    0.000 
#
# Total GULP energy -267347.765327 kJ/mol
# GULP energy per Si atom -5569.745111 kJ/mol
# Density = 1.911233 g / cm^3
# Si number density = 19.155932 Si / 1000 Ang^3
#
#
#
# Elastic Constant Matrix: (Units=GPa)
#
#
# Indices 1 2 3 4 5 6 
#
# 1 80.0688 32.9010 34.7910 0.0000 0.0000 0.0000
# 2 32.9010 87.4911 50.9479 0.0000 0.0000 0.0000
# 3 34.7910 50.9479 83.4394 0.0000 0.0000 0.0000
# 4 0.0000 0.0000 0.0000 44.4225 0.0000 0.0000
# 5 0.0000 0.0000 0.0000 0.0000 0.6350 0.0000
# 6 0.0000 0.0000 0.0000 0.0000 0.0000 33.3824
#
#
#
# Elastic Compliance Matrix: (Units=1/GPa)
#
#
# Indices 1 2 3 4 5 6 
#
# 1 0.015835 -0.003274 -0.004603 0.000000 0.000000 0.000000
# 2 -0.003274 0.018413 -0.009878 0.000000 0.000000 0.000000
# 3 -0.004603 -0.009878 0.019936 0.000000 0.000000 0.000000
# 4 0.000000 0.000000 0.000000 0.022511 0.000000 0.000000
# 5 0.000000 0.000000 0.000000 0.000000 1.574694 0.000000
# 6 0.000000 0.000000 0.000000 0.000000 0.000000 0.029956
#
#
# Mechanical properties :
#
#
# Convention : Reuss Voigt Hill
#
# Bulk Modulus (GPa) = 53.55343 54.25321 53.90332
# Shear Modulus (GPa) = 2.90178 24.51197 13.70688
#
# Velocity S-wave (km/s) = 1.23212 3.58103 2.67786
# Velocity P-wave (km/s) = 5.48101 6.74402 6.14505
#
# Compressibility (1/GPa) = 0.01867294
#
# Stress axis : x y z
#
# Youngs Moduli (GPa) = 63.15196 54.30958 50.16174
#
# Poissons Ratio (x) = 0.17781 0.23091
# Poissons Ratio (y) = 0.20676 0.49549
# Poissons Ratio (z) = 0.29071 0.53646
#
# Static dielectric constant tensor:
#      x y z
#    x 1.690950 0.000000 0.000000 
#    y 0.000000 1.791560 0.000000 
#    z 0.000000 0.000000 1.642300 
# 
# From -- ./inp_files/42447.got.cif
#   From: 2010.05.17/outbox.cif.g08.bks.cpg/sg72_22_cif.got.tgz:42447.got - 2010.06.03 17:03:01.
