data_PCOD9528255
_publ_section_title
;
Structure prediction by ZEFSAII (Michael W. Deem and Ramdas Pophale) SiO2 
 PCOD9528255
Probable space group: I B A M
;
_chemical_formula_sum "Si O2"
_cell_formula_units_Z 92
_cell_length_a 16.545996
_cell_length_b 9.839764
_cell_length_c 24.730368
_cell_angle_alpha 90.000000
_cell_angle_beta 90.000000
_cell_angle_gamma 90.000000
_cell_volume 4026.318960
_symmetry_space_group_name_H-M "I B A M"
_symmetry_group_IT_number 72
_symmetry_cell_setting 'orthorhombic'
loop_
_space_group_symop_operation_xyz
x,y,z
-x,-y,z
x,-y,1/2-z
-x,y,1/2-z
-x,-y,-z
x,y,-z
-x,y,1/2+z
x,-y,1/2+z
1/2+x,1/2+y,1/2+z
1/2-x,1/2-y,1/2+z
1/2+x,1/2-y,-z
1/2-x,1/2+y,-z
1/2-x,1/2-y,1/2-z
1/2+x,1/2+y,1/2-z
1/2-x,1/2+y,z
1/2+x,1/2-y,z
loop_
_atom_site_type_symbol
_atom_site_label
_atom_site_fract_x
_atom_site_fract_y
_atom_site_fract_z
Si Si1 0.219045 0.045991 0.124467
Si Si2 0.912844 0.904959 0.698144
Si Si3 0.000000 0.500000 0.128862
Si Si4 0.144617 0.391708 0.296218
Si Si5 0.000000 0.000000 0.000000
Si Si6 0.725272 0.718791 0.936491
Si Si7 0.033303 0.218764 0.593216
O O1 0.144488 0.990782 0.158287
O O2 0.254784 0.911885 0.096480
O O3 0.276913 0.116967 0.167143
O O4 0.215364 0.156612 0.077136
O O5 0.877726 0.761381 0.720455
O O6 0.976692 0.846795 0.653608
O O7 0.925254 0.000000 0.750000
O O8 0.926359 0.458034 0.167827
O O9 0.010723 0.364032 0.093878
O O10 0.161029 0.500000 0.250000
O O11 0.004711 0.882605 0.952487
O O12 0.630725 0.742511 0.918009
O O13 0.722671 0.691495 0.000000
#
# Coordination Sequence:
#
# PCOD9528255 Si02
#       7
#    16  16   8  16   4  16  16
#     4  11  21  40  64  97 129 173 213 274 336 397
#     4  10  23  42  66  97 137 172 217 279 338 394
#     4  10  21  47  64  96 132 176 226 266 326 388
#     4  11  23  39  65  95 133 174 220 271 319 400
#     4  12  24  46  70  92 136 174 216 276 330 390
#     4  11  22  43  65  93 136 167 219 278 333 388
#     4  10  23  45  68  95 134 173 223 280 323 397
#
# _framework density 22.849656
#
# number of rings (size 3 to 8) (size 9 to 14) (size 15 to 20)
#    0.000    1.391    6.087    1.304    2.435    3.130 
#    3.130    2.174    0.000    0.000    0.000    0.000 
#    0.000    0.000    0.000    0.000    0.000    0.000 
#
# Total GULP energy -256266.678549 kJ/mol
# GULP energy per Si atom -5571.014751 kJ/mol
# Density = 2.279765 g / cm^3
# Si number density = 22.849656 Si / 1000 Ang^3
#
#
#
# Elastic Constant Matrix: (Units=GPa)
#
#
# Indices 1 2 3 4 5 6 
#
# 1 21.9648 21.0653 9.5627 0.0000 0.0000 0.0000
# 2 21.0653 190.9835 61.5906 0.0000 0.0000 0.0000
# 3 9.5627 61.5906 124.9104 0.0000 0.0000 0.0000
# 4 0.0000 0.0000 0.0000 28.5383 0.0000 0.0000
# 5 0.0000 0.0000 0.0000 0.0000 -42.7591 0.0000
# 6 0.0000 0.0000 0.0000 0.0000 0.0000 6.8939
#
#
#
# Elastic Compliance Matrix: (Units=1/GPa)
#
#
# Indices 1 2 3 4 5 6 
#
# 1 0.051103 -0.005202 -0.001347 0.000000 0.000000 0.000000
# 2 -0.005202 0.006756 -0.002933 0.000000 0.000000 0.000000
# 3 -0.001347 -0.002933 0.009555 0.000000 0.000000 0.000000
# 4 0.000000 0.000000 0.000000 0.035041 0.000000 0.000000
# 5 0.000000 0.000000 0.000000 0.000000 -0.023387 0.000000
# 6 0.000000 0.000000 0.000000 0.000000 0.000000 0.145057
#
#
# Mechanical properties :
#
#
# Convention : Reuss Voigt Hill
#
# Bulk Modulus (GPa) = 20.64010 58.03287 39.33648
# Shear Modulus (GPa) = 19.28727 14.91061 17.09894
#
# Velocity S-wave (km/s) = 2.90848 2.55728 2.73852
# Velocity P-wave (km/s) = 4.50906 5.84572 5.22035
#
# Compressibility (1/GPa) = 0.04844939
#
# Stress axis : x y z
#
# Youngs Moduli (GPa) = 19.56829 148.02411 104.65747
#
# Poissons Ratio (x) = 0.77005 0.14099
# Poissons Ratio (y) = 0.10180 0.30694
# Poissons Ratio (z) = 0.02636 0.43413
#
# Static dielectric constant tensor:
#      x y z
#    x 1.953330 0.000000 0.000000 
#    y 0.000000 1.809220 0.000000 
#    z 0.000000 0.000000 1.842090 
# 
# From -- ./inp_files/49378.got.cif
#   From: 2010.05.17/outbox.cif.g08.bks.cpg/sg72_25_cif.got.tgz:49378.got - 2010.06.03 17:03:01.
