data_PCOD9528414
_publ_section_title
;
Structure prediction by ZEFSAII (Michael W. Deem and Ramdas Pophale) SiO2 
 PCOD9528414
Probable space group: I B A M
;
_chemical_formula_sum "Si O2"
_cell_formula_units_Z 72
_cell_length_a 13.367106
_cell_length_b 8.475901
_cell_length_c 30.082020
_cell_angle_alpha 90.000000
_cell_angle_beta 90.000000
_cell_angle_gamma 90.000000
_cell_volume 3408.240737
_symmetry_space_group_name_H-M "I B A M"
_symmetry_group_IT_number 72
_symmetry_cell_setting 'orthorhombic'
loop_
_space_group_symop_operation_xyz
x,y,z
-x,-y,z
x,-y,1/2-z
-x,y,1/2-z
-x,-y,-z
x,y,-z
-x,y,1/2+z
x,-y,1/2+z
1/2+x,1/2+y,1/2+z
1/2-x,1/2-y,1/2+z
1/2+x,1/2-y,-z
1/2-x,1/2+y,-z
1/2-x,1/2-y,1/2-z
1/2+x,1/2+y,1/2-z
1/2-x,1/2+y,z
1/2+x,1/2-y,z
loop_
_atom_site_type_symbol
_atom_site_label
_atom_site_fract_x
_atom_site_fract_y
_atom_site_fract_z
Si Si1 0.040606 0.322199 0.384506
Si Si2 0.257728 0.500000 0.750000
Si Si3 0.188600 0.805427 0.950043
Si Si4 0.405148 0.765849 0.284477
Si Si5 0.105698 0.158626 0.049906
O O1 0.143225 0.302731 0.411599
O O2 0.051324 0.270753 0.333735
O O3 0.000000 0.500000 0.386486
O O4 0.969980 0.203713 0.411825
O O5 0.334571 0.615143 0.724787
O O6 0.178008 0.595575 0.779964
O O7 0.307030 0.787456 0.948125
O O8 0.152814 0.985211 0.944900
O O9 0.160409 0.750278 0.000000
O O10 0.500000 0.776858 0.250000
O O11 0.061364 0.164226 0.000000
#
# Coordination Sequence:
#
# PCOD9528414 Si02
#       5
#    16   8  16  16  16
#     4  12  25  39  63  94 129 170 214 267 327 392
#     4  10  24  46  72  94 128 174 214 266 334 396
#     4  10  22  40  62  90 127 170 218 271 327 394
#     4  11  25  46  69  98 132 169 217 272 330 397
#     4  10  22  41  63  90 127 170 218 273 331 393
#
# _framework density 21.12527
#
# number of rings (size 3 to 8) (size 9 to 14) (size 15 to 20)
#    0.000    1.333    0.000    4.667    0.000   16.000 
#    0.000    0.000    0.000    0.000    0.000    0.000 
#    0.000    0.000    0.000    0.000    0.000    0.000 
#
# Total GULP energy -201095.916293 kJ/mol
# GULP energy per Si atom -5585.997675 kJ/mol
# Density = 2.107719 g / cm^3
# Si number density = 21.125270 Si / 1000 Ang^3
#
#
#
# Elastic Constant Matrix: (Units=GPa)
#
#
# Indices 1 2 3 4 5 6 
#
# 1 117.8285 40.6162 59.9280 0.0000 0.0000 0.0000
# 2 40.6162 127.3594 66.5007 0.0000 0.0000 0.0000
# 3 59.9280 66.5007 178.3912 0.0000 0.0000 0.0000
# 4 0.0000 0.0000 0.0000 -26.5381 0.0000 0.0000
# 5 0.0000 0.0000 0.0000 0.0000 49.5199 0.0000
# 6 0.0000 0.0000 0.0000 0.0000 0.0000 46.1022
#
#
#
# Elastic Compliance Matrix: (Units=1/GPa)
#
#
# Indices 1 2 3 4 5 6 
#
# 1 0.010589 -0.001887 -0.002854 0.000000 0.000000 0.000000
# 2 -0.001887 0.010086 -0.003126 0.000000 0.000000 0.000000
# 3 -0.002854 -0.003126 0.007730 0.000000 0.000000 0.000000
# 4 0.000000 0.000000 0.000000 -0.037682 0.000000 0.000000
# 5 0.000000 0.000000 0.000000 0.000000 0.020194 0.000000
# 6 0.000000 0.000000 0.000000 0.000000 0.000000 0.021691
#
#
# Mechanical properties :
#
#
# Convention : Reuss Voigt Hill
#
# Bulk Modulus (GPa) = 78.91954 84.18546 81.55250
# Shear Modulus (GPa) = 95.12248 30.91909 63.02078
#
# Velocity S-wave (km/s) = 6.71756 3.82986 5.46779
# Velocity P-wave (km/s) = 9.87960 7.71325 8.86286
#
# Compressibility (1/GPa) = 0.01267113
#
# Stress axis : x y z
#
# Youngs Moduli (GPa) = 94.44002 99.15031 129.37232
#
# Poissons Ratio (x) = 0.18707 0.36920
# Poissons Ratio (y) = 0.17818 0.40441
# Poissons Ratio (z) = 0.26951 0.30994
#
# Static dielectric constant tensor:
#      x y z
#    x 1.797680 0.000000 0.000000 
#    y 0.000000 1.788660 0.000000 
#    z 0.000000 0.000000 1.714890 
# 
# From -- ./inp_files/48471.got.cif
#   From: 2010.05.17/outbox.cif.g08.bks.cpg/sg72_25_cif.got.tgz:48471.got - 2010.06.03 17:03:01.
