data_PCOD9528628
_publ_section_title
;
Structure prediction by ZEFSAII (Michael W. Deem and Ramdas Pophale) SiO2 
 PCOD9528628
Probable space group: I B A M
;
_chemical_formula_sum "Si O2"
_cell_formula_units_Z 88
_cell_length_a 13.705564
_cell_length_b 11.426450
_cell_length_c 23.375293
_cell_angle_alpha 90.000000
_cell_angle_beta 90.000000
_cell_angle_gamma 90.000000
_cell_volume 3660.709774
_symmetry_space_group_name_H-M "I B A M"
_symmetry_group_IT_number 72
_symmetry_cell_setting 'orthorhombic'
loop_
_space_group_symop_operation_xyz
x,y,z
-x,-y,z
x,-y,1/2-z
-x,y,1/2-z
-x,-y,-z
x,y,-z
-x,y,1/2+z
x,-y,1/2+z
1/2+x,1/2+y,1/2+z
1/2-x,1/2-y,1/2+z
1/2+x,1/2-y,-z
1/2-x,1/2+y,-z
1/2-x,1/2-y,1/2-z
1/2+x,1/2+y,1/2-z
1/2-x,1/2+y,z
1/2+x,1/2-y,z
loop_
_atom_site_type_symbol
_atom_site_label
_atom_site_fract_x
_atom_site_fract_y
_atom_site_fract_z
Si Si1 0.396941 0.324937 0.227369
Si Si2 0.344200 0.446487 0.000000
Si Si3 0.874966 0.353207 0.320622
Si Si4 0.307216 0.293491 0.892111
Si Si5 0.052808 0.182726 0.000000
Si Si6 0.766348 0.500000 0.250000
Si Si7 0.023534 0.632424 0.086554
O O1 0.500000 0.370120 0.250000
O O2 0.386730 0.199922 0.257689
O O3 0.379347 0.334120 0.159724
O O4 0.308105 0.393917 0.255524
O O5 0.298045 0.389282 0.057229
O O6 0.453178 0.392018 0.000000
O O7 0.360003 0.587502 0.000000
O O8 0.796300 0.284236 0.359740
O O9 0.827418 0.478056 0.307230
O O10 0.977930 0.361012 0.350476
O O11 0.364974 0.179209 0.916099
O O12 0.040789 0.271876 0.052462
O O13 0.000000 0.500000 0.066720
#
# Coordination Sequence:
#
# PCOD9528628 Si02
#       7
#    16   8  16  16   8   8  16
#     4  11  22  42  64  98 136 182 232 286 347 419
#     4   9  20  43  73  97 135 180 238 301 349 406
#     4  11  25  40  68 100 142 185 229 288 351 417
#     4  10  22  44  66 102 136 185 241 289 348 416
#     4   9  21  45  67 101 133 180 238 297 350 406
#     4  10  23  38  61  94 134 174 224 285 343 408
#     4  11  24  41  69 100 139 188 231 287 355 425
#
# _framework density 24.039055000000001
#
# number of rings (size 3 to 8) (size 9 to 14) (size 15 to 20)
#    0.000    1.636    1.818    2.727    5.091    3.636 
#   13.091    0.000    0.000    0.000    0.000    0.000 
#    0.000    0.000    0.000    0.000    0.000    0.000 
#
# Total GULP energy -245456.638766 kJ/mol
# GULP energy per Si atom -5578.559972 kJ/mol
# Density = 2.398434 g / cm^3
# Si number density = 24.039055 Si / 1000 Ang^3
#
#
#
# Elastic Constant Matrix: (Units=GPa)
#
#
# Indices 1 2 3 4 5 6 
#
# 1 100.4300 18.7939 20.0594 0.0000 0.0000 0.0000
# 2 18.7939 128.9018 38.3714 0.0000 0.0000 0.0000
# 3 20.0594 38.3714 131.1762 0.0000 0.0000 0.0000
# 4 0.0000 0.0000 0.0000 16.7391 0.0000 0.0000
# 5 0.0000 0.0000 0.0000 0.0000 23.1727 0.0000
# 6 0.0000 0.0000 0.0000 0.0000 0.0000 -1.7912
#
#
#
# Elastic Compliance Matrix: (Units=1/GPa)
#
#
# Indices 1 2 3 4 5 6 
#
# 1 0.010423 -0.001145 -0.001259 0.000000 0.000000 0.000000
# 2 -0.001145 0.008624 -0.002347 0.000000 0.000000 0.000000
# 3 -0.001259 -0.002347 0.008503 0.000000 0.000000 0.000000
# 4 0.000000 0.000000 0.000000 0.059740 0.000000 0.000000
# 5 0.000000 0.000000 0.000000 0.000000 0.043154 0.000000
# 6 0.000000 0.000000 0.000000 0.000000 0.000000 -0.558298
#
#
# Mechanical properties :
#
#
# Convention : Reuss Voigt Hill
#
# Bulk Modulus (GPa) = 55.41293 57.21751 56.31522
# Shear Modulus (GPa) = -12.12603 26.50968 7.19182
#
# Velocity S-wave (km/s) = -2.24839 3.32441 1.73154
# Velocity P-wave (km/s) = 4.04486 6.21202 5.24166
#
# Compressibility (1/GPa) = 0.01804633
#
# Stress axis : x y z
#
# Youngs Moduli (GPa) = 95.94269 115.96134 117.61200
#
# Poissons Ratio (x) = 0.13276 0.14807
# Poissons Ratio (y) = 0.10984 0.27609
# Poissons Ratio (z) = 0.12079 0.27222
#
# Static dielectric constant tensor:
#      x y z
#    x 1.959560 0.000000 0.000000 
#    y 0.000000 1.992740 0.000000 
#    z 0.000000 0.000000 1.962500 
# 
# From -- ./inp_files/44175.got.cif
#   From: 2010.05.17/outbox.cif.g08.bks.cpg/sg72_23_cif.got.tgz:44175.got - 2010.06.03 17:03:01.
