data_PCOD9528575
_publ_section_title
;
Structure prediction by ZEFSAII (Michael W. Deem and Ramdas Pophale) SiO2 
 PCOD9528575
Probable space group: I B A M
;
_chemical_formula_sum "Si O2"
_cell_formula_units_Z 88
_cell_length_a 16.464995
_cell_length_b 18.297022
_cell_length_c 14.358756
_cell_angle_alpha 90.000000
_cell_angle_beta 90.000000
_cell_angle_gamma 90.000000
_cell_volume 4325.724228
_symmetry_space_group_name_H-M "I B A M"
_symmetry_group_IT_number 72
_symmetry_cell_setting 'orthorhombic'
loop_
_space_group_symop_operation_xyz
x,y,z
-x,-y,z
x,-y,1/2-z
-x,y,1/2-z
-x,-y,-z
x,y,-z
-x,y,1/2+z
x,-y,1/2+z
1/2+x,1/2+y,1/2+z
1/2-x,1/2-y,1/2+z
1/2+x,1/2-y,-z
1/2-x,1/2+y,-z
1/2-x,1/2-y,1/2-z
1/2+x,1/2+y,1/2-z
1/2-x,1/2+y,z
1/2+x,1/2-y,z
loop_
_atom_site_type_symbol
_atom_site_label
_atom_site_fract_x
_atom_site_fract_y
_atom_site_fract_z
Si Si1 0.000000 0.182247 0.250000
Si Si2 0.833561 0.088223 0.253473
Si Si3 0.760989 0.808030 0.393857
Si Si4 0.594856 0.078801 0.752465
Si Si5 0.921513 0.706852 0.105907
Si Si6 0.703364 0.846301 0.888731
O O1 0.920703 0.129363 0.242670
O O2 0.976719 0.237923 0.334628
O O3 0.777771 0.123181 0.171299
O O4 0.782948 0.114992 0.344238
O O5 0.841535 0.000000 0.250000
O O6 0.781669 0.827460 0.500000
O O7 0.672615 0.769016 0.397408
O O8 0.810225 0.738140 0.358107
O O9 0.500000 0.068845 0.750000
O O10 0.598142 0.130442 0.842402
O O11 0.627012 0.115917 0.659498
O O12 0.636807 0.000000 0.750000
O O13 0.951254 0.698614 0.000000
O O14 0.704464 0.849648 0.000000
#
# Coordination Sequence:
#
# PCOD9528575 Si02
#       6
#     8  16  16  16  16  16
#     4  12  25  44  69  96 140 184 238 284 341 400
#     4  12  25  43  67 101 141 183 227 285 344 409
#     4  10  22  42  68  95 124 166 224 278 331 396
#     4  11  24  42  62  96 139 172 215 277 348 417
#     4  11  23  42  69  97 130 175 226 281 335 398
#     4  11  23  42  69  97 130 178 229 277 338 409
#
# _framework density 20.343415
#
# number of rings (size 3 to 8) (size 9 to 14) (size 15 to 20)
#    0.000    0.909    4.545    2.455    0.000    2.909 
#    0.000    1.818    0.000    3.273    0.000    0.000 
#    0.000    0.000    0.000    0.000    0.000    0.000 
#
# Total GULP energy -245005.964403 kJ/mol
# GULP energy per Si atom -5568.317373 kJ/mol
# Density = 2.029711 g / cm^3
# Si number density = 20.343415 Si / 1000 Ang^3
#
#
#
# Elastic Constant Matrix: (Units=GPa)
#
#
# Indices 1 2 3 4 5 6 
#
# 1 102.7973 36.0933 35.5746 0.0000 0.0000 0.0000
# 2 36.0933 174.2345 87.8428 0.0000 0.0000 0.0000
# 3 35.5746 87.8428 119.5502 0.0000 0.0000 0.0000
# 4 0.0000 0.0000 0.0000 7.4764 0.0000 0.0000
# 5 0.0000 0.0000 0.0000 0.0000 16.7756 0.0000
# 6 0.0000 0.0000 0.0000 0.0000 0.0000 34.3797
#
#
#
# Elastic Compliance Matrix: (Units=1/GPa)
#
#
# Indices 1 2 3 4 5 6 
#
# 1 0.010952 -0.000994 -0.002529 0.000000 0.000000 0.000000
# 2 -0.000994 0.009207 -0.006469 0.000000 0.000000 0.000000
# 3 -0.002529 -0.006469 0.013871 0.000000 0.000000 0.000000
# 4 0.000000 0.000000 0.000000 0.133754 0.000000 0.000000
# 5 0.000000 0.000000 0.000000 0.000000 0.059610 0.000000
# 6 0.000000 0.000000 0.000000 0.000000 0.000000 0.029087
#
#
# Mechanical properties :
#
#
# Convention : Reuss Voigt Hill
#
# Bulk Modulus (GPa) = 71.19574 79.51148 75.35361
# Shear Modulus (GPa) = 17.78435 27.53110 22.65773
#
# Velocity S-wave (km/s) = 2.95991 3.68274 3.34093
# Velocity P-wave (km/s) = 6.83771 7.56656 7.21135
#
# Compressibility (1/GPa) = 0.01404578
#
# Stress axis : x y z
#
# Youngs Moduli (GPa) = 91.30807 108.61509 72.09494
#
# Poissons Ratio (x) = 0.10795 0.18231
# Poissons Ratio (y) = 0.09075 0.46640
# Poissons Ratio (z) = 0.23089 0.70266
#
# Static dielectric constant tensor:
#      x y z
#    x 1.663470 0.000000 0.000000 
#    y 0.000000 1.978600 0.000000 
#    z 0.000000 0.000000 2.761940 
# 
# From -- ./inp_files/23203.got.cif
#   From: 2010.05.17/outbox.cif.g08.bks.cpg/sg72_12_cif.got.tgz:23203.got - 2010.06.03 17:03:01.
