data_PCOD9528430
_publ_section_title
;
Structure prediction by ZEFSAII (Michael W. Deem and Ramdas Pophale) SiO2 
 PCOD9528430
Probable space group: I B A M
;
_chemical_formula_sum "Si O2"
_cell_formula_units_Z 116
_cell_length_a 17.455580
_cell_length_b 18.450897
_cell_length_c 18.039591
_cell_angle_alpha 90.000000
_cell_angle_beta 90.000000
_cell_angle_gamma 90.000000
_cell_volume 5810.031073
_symmetry_space_group_name_H-M "I B A M"
_symmetry_group_IT_number 72
_symmetry_cell_setting 'orthorhombic'
loop_
_space_group_symop_operation_xyz
x,y,z
-x,-y,z
x,-y,1/2-z
-x,y,1/2-z
-x,-y,-z
x,y,-z
-x,y,1/2+z
x,-y,1/2+z
1/2+x,1/2+y,1/2+z
1/2-x,1/2-y,1/2+z
1/2+x,1/2-y,-z
1/2-x,1/2+y,-z
1/2-x,1/2-y,1/2-z
1/2+x,1/2+y,1/2-z
1/2-x,1/2+y,z
1/2+x,1/2-y,z
loop_
_atom_site_type_symbol
_atom_site_label
_atom_site_fract_x
_atom_site_fract_y
_atom_site_fract_z
Si Si1 0.193269 0.855052 0.587974
Si Si2 0.310023 0.786519 0.691962
Si Si3 0.562299 0.442892 0.585707
Si Si4 0.427786 0.279415 0.914760
Si Si5 0.409615 0.224130 0.586156
Si Si6 0.292795 0.489938 0.834400
Si Si7 0.000000 0.500000 0.750000
Si Si8 0.136555 0.596376 0.307925
O O1 0.191065 0.863935 0.500000
O O2 0.266153 0.812625 0.618802
O O3 0.124416 0.801549 0.611718
O O4 0.198865 0.932987 0.625610
O O5 0.250000 0.750000 0.750000
O O6 0.373340 0.734062 0.655838
O O7 0.343644 0.857238 0.733805
O O8 0.500000 0.500000 0.616399
O O9 0.574712 0.464614 0.500000
O O10 0.536468 0.360009 0.587446
O O11 0.644133 0.441881 0.625126
O O12 0.498986 0.225041 0.907542
O O13 0.395617 0.272437 0.000000
O O14 0.388820 0.217466 0.500000
O O15 0.374902 0.158271 0.631246
O O16 0.316904 0.500000 0.750000
O O17 0.208145 0.454834 0.830369
O O18 0.059206 0.550288 0.703953
#
# Coordination Sequence:
#
# PCOD9528430 Si02
#       8
#    16  16  16  16  16  16   4  16
#     4  11  23  41  65  94 131 176 220 275 338 398
#     4  12  22  40  64  97 130 168 220 282 338 400
#     4  10  22  41  65  93 132 178 218 269 345 418
#     4  10  22  40  63  94 129 169 221 277 331 405
#     4  10  23  42  66  95 129 172 228 279 335 402
#     4  12  24  41  63  96 137 173 225 280 336 412
#     4  12  24  44  66  92 134 188 226 278 348 404
#     4  12  24  44  66  97 133 180 229 283 345 403
#
# _framework density 19.96547
#
# number of rings (size 3 to 8) (size 9 to 14) (size 15 to 20)
#    0.000    0.966    3.448    3.310    0.000    3.586 
#    0.000    1.724    0.000    0.000    0.000    0.000 
#    0.000    0.000    0.000    0.000    0.000    0.000 
#
# Total GULP energy -323598.541237 kJ/mol
# GULP energy per Si atom -5579.285194 kJ/mol
# Density = 1.992003 g / cm^3
# Si number density = 19.965470 Si / 1000 Ang^3
#
#
#
# Elastic Constant Matrix: (Units=GPa)
#
#
# Indices 1 2 3 4 5 6 
#
# 1 96.2850 43.8119 42.1210 0.0000 0.0000 0.0000
# 2 43.8119 105.9979 45.5544 0.0000 0.0000 0.0000
# 3 42.1210 45.5544 80.5826 0.0000 0.0000 0.0000
# 4 0.0000 0.0000 0.0000 34.6757 0.0000 0.0000
# 5 0.0000 0.0000 0.0000 0.0000 42.4368 0.0000
# 6 0.0000 0.0000 0.0000 0.0000 0.0000 44.5520
#
#
#
# Elastic Compliance Matrix: (Units=1/GPa)
#
#
# Indices 1 2 3 4 5 6 
#
# 1 0.014434 -0.003597 -0.005511 0.000000 0.000000 0.000000
# 2 -0.003597 0.013358 -0.005671 0.000000 0.000000 0.000000
# 3 -0.005511 -0.005671 0.018496 0.000000 0.000000 0.000000
# 4 0.000000 0.000000 0.000000 0.028839 0.000000 0.000000
# 5 0.000000 0.000000 0.000000 0.000000 0.023564 0.000000
# 6 0.000000 0.000000 0.000000 0.000000 0.000000 0.022446
#
#
# Mechanical properties :
#
#
# Convention : Reuss Voigt Hill
#
# Bulk Modulus (GPa) = 59.77610 60.64889 60.21250
# Shear Modulus (GPa) = 31.99543 34.42478 33.21010
#
# Velocity S-wave (km/s) = 4.00751 4.15687 4.08288
# Velocity P-wave (km/s) = 7.17066 7.31316 7.24226
#
# Compressibility (1/GPa) = 0.01672909
#
# Stress axis : x y z
#
# Youngs Moduli (GPa) = 69.28323 74.85929 54.06511
#
# Poissons Ratio (x) = 0.26930 0.29794
# Poissons Ratio (y) = 0.24924 0.30662
# Poissons Ratio (z) = 0.38181 0.42455
#
# Static dielectric constant tensor:
#      x y z
#    x 1.742550 0.000000 0.000000 
#    y 0.000000 1.745990 0.000000 
#    z 0.000000 0.000000 1.688810 
# 
# From -- ./inp_files/31733.got.cif
#   From: 2010.05.17/outbox.cif.g08.bks.cpg/sg72_16_cif.got.tgz:31733.got - 2010.06.03 17:03:01.
