data_PCOD9528853
_publ_section_title
;
Structure prediction by ZEFSAII (Michael W. Deem and Ramdas Pophale) SiO2 
 PCOD9528853
Probable space group: I B A M
;
_chemical_formula_sum "Si O2"
_cell_formula_units_Z 56
_cell_length_a 10.923158
_cell_length_b 9.967422
_cell_length_c 21.495508
_cell_angle_alpha 90.000000
_cell_angle_beta 90.000000
_cell_angle_gamma 90.000000
_cell_volume 2340.339025
_symmetry_space_group_name_H-M "I B A M"
_symmetry_group_IT_number 72
_symmetry_cell_setting 'orthorhombic'
loop_
_space_group_symop_operation_xyz
x,y,z
-x,-y,z
x,-y,1/2-z
-x,y,1/2-z
-x,-y,-z
x,y,-z
-x,y,1/2+z
x,-y,1/2+z
1/2+x,1/2+y,1/2+z
1/2-x,1/2-y,1/2+z
1/2+x,1/2-y,-z
1/2-x,1/2+y,-z
1/2-x,1/2-y,1/2-z
1/2+x,1/2+y,1/2-z
1/2-x,1/2+y,z
1/2+x,1/2-y,z
loop_
_atom_site_type_symbol
_atom_site_label
_atom_site_fract_x
_atom_site_fract_y
_atom_site_fract_z
Si Si1 0.243659 0.891955 0.344464
Si Si2 0.446232 0.203309 0.930865
Si Si3 0.500000 0.500000 0.601329
Si Si4 0.099326 0.357665 0.806324
O O1 0.311898 0.839748 0.406761
O O2 0.199333 0.760736 0.307880
O O3 0.332438 0.999475 0.312189
O O4 0.118906 0.968561 0.358402
O O5 0.465261 0.363449 0.933286
O O6 0.532099 0.157777 0.873640
O O7 0.471716 0.150659 0.000000
O O8 0.000000 0.339767 0.750000
#
# Coordination Sequence:
#
# PCOD9528853 Si02
#       4
#    16  16   8  16
#     4  11  24  51  80 114 157 210 257 328 392 462
#     4  11  25  47  80 117 160 209 263 323 390 464
#     4  10  23  50  75 118 157 204 259 318 391 464
#     4  11  27  53  81 118 159 206 267 325 391 470
#
# _framework density 23.928159000000001
#
# number of rings (size 3 to 8) (size 9 to 14) (size 15 to 20)
#    0.000    1.143    2.857    1.286    0.000   11.429 
#   10.286    7.857    0.000    0.000    0.000    0.000 
#    0.000    0.000    0.000    0.000    0.000    0.000 
#
# Total GULP energy -156460.062732 kJ/mol
# GULP energy per Si atom -5587.859383 kJ/mol
# Density = 2.387370 g / cm^3
# Si number density = 23.928159 Si / 1000 Ang^3
#
#
#
# Elastic Constant Matrix: (Units=GPa)
#
#
# Indices 1 2 3 4 5 6 
#
# 1 88.9131 54.4730 76.8732 0.0000 0.0000 0.0000
# 2 54.4730 196.7904 60.5222 0.0000 0.0000 0.0000
# 3 76.8732 60.5222 217.9805 0.0000 0.0000 0.0000
# 4 0.0000 0.0000 0.0000 5.3283 0.0000 0.0000
# 5 0.0000 0.0000 0.0000 0.0000 -1.7670 0.0000
# 6 0.0000 0.0000 0.0000 0.0000 0.0000 69.5959
#
#
#
# Elastic Compliance Matrix: (Units=1/GPa)
#
#
# Indices 1 2 3 4 5 6 
#
# 1 0.017952 -0.003304 -0.005413 0.000000 0.000000 0.000000
# 2 -0.003304 0.006164 -0.000546 0.000000 0.000000 0.000000
# 3 -0.005413 -0.000546 0.006648 0.000000 0.000000 0.000000
# 4 0.000000 0.000000 0.000000 0.187678 0.000000 0.000000
# 5 0.000000 0.000000 0.000000 0.000000 -0.565938 0.000000
# 6 0.000000 0.000000 0.000000 0.000000 0.000000 0.014369
#
#
# Mechanical properties :
#
#
# Convention : Reuss Voigt Hill
#
# Bulk Modulus (GPa) = 81.72342 98.60232 90.16287
# Shear Modulus (GPa) = -16.10199 35.41914 9.65858
#
# Velocity S-wave (km/s) = -2.59690 3.85155 2.01128
# Velocity P-wave (km/s) = 5.02354 7.81513 6.56933
#
# Compressibility (1/GPa) = 0.01223639
#
# Stress axis : x y z
#
# Youngs Moduli (GPa) = 55.70507 162.22771 150.41395
#
# Poissons Ratio (x) = 0.53604 0.81425
# Poissons Ratio (y) = 0.18406 0.08216
# Poissons Ratio (z) = 0.30156 0.08861
#
# Static dielectric constant tensor:
#      x y z
#    x 1.936230 0.000000 0.000000 
#    y 0.000000 1.902520 0.000000 
#    z 0.000000 0.000000 1.956230 
# 
# From -- ./inp_files/36441.got.cif
#   From: 2010.05.17/outbox.cif.g08.bks.cpg/sg72_19_cif.got.tgz:36441.got - 2010.06.03 17:03:01.
