data_PCOD9528828
_publ_section_title
;
Structure prediction by ZEFSAII (Michael W. Deem and Ramdas Pophale) SiO2 
 PCOD9528828
Probable space group: I B A M
;
_chemical_formula_sum "Si O2"
_cell_formula_units_Z 96
_cell_length_a 13.296218
_cell_length_b 14.198168
_cell_length_c 22.231840
_cell_angle_alpha 90.000000
_cell_angle_beta 90.000000
_cell_angle_gamma 90.000000
_cell_volume 4196.969817
_symmetry_space_group_name_H-M "I B A M"
_symmetry_group_IT_number 72
_symmetry_cell_setting 'orthorhombic'
loop_
_space_group_symop_operation_xyz
x,y,z
-x,-y,z
x,-y,1/2-z
-x,y,1/2-z
-x,-y,-z
x,y,-z
-x,y,1/2+z
x,-y,1/2+z
1/2+x,1/2+y,1/2+z
1/2-x,1/2-y,1/2+z
1/2+x,1/2-y,-z
1/2-x,1/2+y,-z
1/2-x,1/2-y,1/2-z
1/2+x,1/2+y,1/2-z
1/2-x,1/2+y,z
1/2+x,1/2-y,z
loop_
_atom_site_type_symbol
_atom_site_label
_atom_site_fract_x
_atom_site_fract_y
_atom_site_fract_z
Si Si1 0.719594 0.534157 0.401999
Si Si2 0.888075 0.521380 0.818883
Si Si3 0.133385 0.435161 0.500000
Si Si4 0.936399 0.188678 0.400827
Si Si5 0.197586 0.269463 0.185494
Si Si6 0.920788 0.657213 0.000000
Si Si7 0.172139 0.816475 0.928385
O O1 0.786875 0.531580 0.341474
O O2 0.799951 0.585494 0.443495
O O3 0.617191 0.589735 0.413969
O O4 0.703610 0.426133 0.420738
O O5 0.900561 0.500000 0.750000
O O6 0.855807 0.629505 0.820237
O O7 0.000000 0.500000 0.848660
O O8 0.118636 0.549366 0.500000
O O9 0.037296 0.370720 0.500000
O O10 0.895881 0.203103 0.332943
O O11 0.898535 0.276421 0.442709
O O12 0.053574 0.187266 0.414037
O O13 0.250000 0.250000 0.250000
O O14 0.275314 0.264479 0.128966
O O15 0.190131 0.793221 0.000000
#
# Coordination Sequence:
#
# PCOD9528828 Si02
#       7
#    16  16   8  16  16   8  16
#     4  11  24  43  70  97 145 195 227 292 364 436
#     4  10  23  44  72 100 135 186 245 293 358 428
#     4  11  25  41  64  93 148 184 222 280 364 425
#     4  12  26  41  72 104 141 182 247 292 360 421
#     4  11  27  47  70 106 147 190 243 303 363 427
#     4  11  25  41  62 107 135 185 231 293 355 425
#     4  11  25  45  70 104 146 187 242 300 363 434
#
# _framework density 22.873645
#
# number of rings (size 3 to 8) (size 9 to 14) (size 15 to 20)
#    0.000    1.000    1.667    4.000    8.167    4.000 
#    0.000    0.000    0.000    3.000    0.000    0.000 
#    0.000    0.000    0.000    0.000    0.000    0.000 
#
# Total GULP energy -267552.585614 kJ/mol
# GULP energy per Si atom -5574.012200 kJ/mol
# Density = 2.282158 g / cm^3
# Si number density = 22.873645 Si / 1000 Ang^3
#
#
#
# Elastic Constant Matrix: (Units=GPa)
#
#
# Indices 1 2 3 4 5 6 
#
# 1 149.1670 23.3098 68.5096 0.0000 0.0000 0.0000
# 2 23.3098 92.6231 32.3234 0.0000 0.0000 0.0000
# 3 68.5096 32.3234 148.3614 0.0000 0.0000 0.0000
# 4 0.0000 0.0000 0.0000 32.1889 0.0000 0.0000
# 5 0.0000 0.0000 0.0000 0.0000 26.8406 0.0000
# 6 0.0000 0.0000 0.0000 0.0000 0.0000 37.8313
#
#
#
# Elastic Compliance Matrix: (Units=1/GPa)
#
#
# Indices 1 2 3 4 5 6 
#
# 1 0.008568 -0.000839 -0.003774 0.000000 0.000000 0.000000
# 2 -0.000839 0.011767 -0.002176 0.000000 0.000000 0.000000
# 3 -0.003774 -0.002176 0.008957 0.000000 0.000000 0.000000
# 4 0.000000 0.000000 0.000000 0.031067 0.000000 0.000000
# 5 0.000000 0.000000 0.000000 0.000000 0.037257 0.000000
# 6 0.000000 0.000000 0.000000 0.000000 0.000000 0.026433
#
#
# Mechanical properties :
#
#
# Convention : Reuss Voigt Hill
#
# Bulk Modulus (GPa) = 63.63758 70.93746 67.28752
# Shear Modulus (GPa) = 34.99793 37.10606 36.05199
#
# Velocity S-wave (km/s) = 3.91584 4.03205 3.97437
# Velocity P-wave (km/s) = 6.95175 7.26337 7.10927
#
# Compressibility (1/GPa) = 0.01571398
#
# Stress axis : x y z
#
# Youngs Moduli (GPa) = 116.70976 84.98277 111.64431
#
# Poissons Ratio (x) = 0.07133 0.42132
# Poissons Ratio (y) = 0.09796 0.24295
# Poissons Ratio (z) = 0.44043 0.18493
#
# Static dielectric constant tensor:
#      x y z
#    x 1.901420 0.000000 0.000000 
#    y 0.000000 2.053580 0.000000 
#    z 0.000000 0.000000 1.555060 
# 
# From -- ./inp_files/38086.got.cif
#   From: 2010.05.17/outbox.cif.g08.bks.cpg/sg72_20_cif.got.tgz:38086.got - 2010.06.03 17:03:01.
