data_PCOD9528831
_publ_section_title
;
Structure prediction by ZEFSAII (Michael W. Deem and Ramdas Pophale) SiO2 
 PCOD9528831
Probable space group: I B A M
;
_chemical_formula_sum "Si O2"
_cell_formula_units_Z 56
_cell_length_a 7.654876
_cell_length_b 16.447228
_cell_length_c 16.481519
_cell_angle_alpha 90.000000
_cell_angle_beta 90.000000
_cell_angle_gamma 90.000000
_cell_volume 2075.047814
_symmetry_space_group_name_H-M "I B A M"
_symmetry_group_IT_number 72
_symmetry_cell_setting 'orthorhombic'
loop_
_space_group_symop_operation_xyz
x,y,z
-x,-y,z
x,-y,1/2-z
-x,y,1/2-z
-x,-y,-z
x,y,-z
-x,y,1/2+z
x,-y,1/2+z
1/2+x,1/2+y,1/2+z
1/2-x,1/2-y,1/2+z
1/2+x,1/2-y,-z
1/2-x,1/2+y,-z
1/2-x,1/2-y,1/2-z
1/2+x,1/2+y,1/2-z
1/2-x,1/2+y,z
1/2+x,1/2-y,z
loop_
_atom_site_type_symbol
_atom_site_label
_atom_site_fract_x
_atom_site_fract_y
_atom_site_fract_z
Si Si1 0.000000 0.677306 0.750000
Si Si2 0.784687 0.906784 0.347171
Si Si3 0.627963 0.244367 0.588061
Si Si4 0.164932 0.923838 0.593834
O O1 0.167008 0.620577 0.728828
O O2 0.029313 0.736005 0.826398
O O3 0.766185 0.828751 0.405863
O O4 0.995562 0.915364 0.348437
O O5 0.730296 0.995289 0.380130
O O6 0.537921 0.247436 0.500000
O O7 0.731659 0.159877 0.591874
O O8 0.108470 0.934900 0.500000
#
# Coordination Sequence:
#
# PCOD9528831 Si02
#       4
#     8  16  16  16
#     4  12  28  45  70 111 150 194 244 303 372 439
#     4  11  23  44  71 103 144 187 241 305 360 427
#     4  11  25  46  72 105 149 198 247 303 364 430
#     4  10  23  44  75 108 138 193 255 294 359 443
#
# _framework density 26.98733
#
# number of rings (size 3 to 8) (size 9 to 14) (size 15 to 20)
#    0.000    1.143    0.000    6.000    0.000   10.286 
#    0.000    8.571    0.000    0.000    0.000    0.000 
#    0.000    0.000    0.000    0.000    0.000    0.000 
#
# Total GULP energy -156460.939279 kJ/mol
# GULP energy per Si atom -5587.890689 kJ/mol
# Density = 2.692591 g / cm^3
# Si number density = 26.987330 Si / 1000 Ang^3
#
#
#
# Elastic Constant Matrix: (Units=GPa)
#
#
# Indices 1 2 3 4 5 6 
#
# 1 46.3074 32.0263 67.1065 0.0000 0.0000 0.0000
# 2 32.0263 273.1615 68.7844 0.0000 0.0000 0.0000
# 3 67.1065 68.7844 214.2259 0.0000 0.0000 0.0000
# 4 0.0000 0.0000 0.0000 -4.1672 0.0000 0.0000
# 5 0.0000 0.0000 0.0000 0.0000 50.8998 0.0000
# 6 0.0000 0.0000 0.0000 0.0000 0.0000 41.3680
#
#
#
# Elastic Compliance Matrix: (Units=1/GPa)
#
#
# Indices 1 2 3 4 5 6 
#
# 1 0.040243 -0.001680 -0.012067 0.000000 0.000000 0.000000
# 2 -0.001680 0.004053 -0.000775 0.000000 0.000000 0.000000
# 3 -0.012067 -0.000775 0.008697 0.000000 0.000000 0.000000
# 4 0.000000 0.000000 0.000000 -0.239970 0.000000 0.000000
# 5 0.000000 0.000000 0.000000 0.000000 0.019646 0.000000
# 6 0.000000 0.000000 0.000000 0.000000 0.000000 0.024173
#
#
# Mechanical properties :
#
#
# Convention : Reuss Voigt Hill
#
# Bulk Modulus (GPa) = 41.75449 96.61436 69.18443
# Shear Modulus (GPa) = -47.11190 42.00528 -2.55331
#
# Velocity S-wave (km/s) = -4.18270 3.94951 -0.97374
# Velocity P-wave (km/s) = 2.79662 7.52833 4.94240
#
# Compressibility (1/GPa) = 0.02394952
#
# Stress axis : x y z
#
# Youngs Moduli (GPa) = 24.84884 246.73285 114.98410
#
# Poissons Ratio (x) = 0.41443 1.38751
# Poissons Ratio (y) = 0.04174 0.08913
# Poissons Ratio (z) = 0.29985 0.19126
#
# Static dielectric constant tensor:
#      x y z
#    x 2.356230 0.000000 0.000000 
#    y 0.000000 2.099790 0.000000 
#    z 0.000000 0.000000 2.077070 
# 
# From -- ./inp_files/27504.got.cif
#   From: 2010.05.17/outbox.cif.g08.bks.cpg/sg72_14_cif.got.tgz:27504.got - 2010.06.03 17:03:01.
