data_PCOD9528868
_publ_section_title
;
Structure prediction by ZEFSAII (Michael W. Deem and Ramdas Pophale) SiO2 
 PCOD9528868
Probable space group: I B A M
;
_chemical_formula_sum "Si O2"
_cell_formula_units_Z 72
_cell_length_a 12.745966
_cell_length_b 8.368058
_cell_length_c 26.903334
_cell_angle_alpha 90.000000
_cell_angle_beta 90.000000
_cell_angle_gamma 90.000000
_cell_volume 2869.482237
_symmetry_space_group_name_H-M "I B A M"
_symmetry_group_IT_number 72
_symmetry_cell_setting 'orthorhombic'
loop_
_space_group_symop_operation_xyz
x,y,z
-x,-y,z
x,-y,1/2-z
-x,y,1/2-z
-x,-y,-z
x,y,-z
-x,y,1/2+z
x,-y,1/2+z
1/2+x,1/2+y,1/2+z
1/2-x,1/2-y,1/2+z
1/2+x,1/2-y,-z
1/2-x,1/2+y,-z
1/2-x,1/2-y,1/2-z
1/2+x,1/2+y,1/2-z
1/2-x,1/2+y,z
1/2+x,1/2-y,z
loop_
_atom_site_type_symbol
_atom_site_label
_atom_site_fract_x
_atom_site_fract_y
_atom_site_fract_z
Si Si1 0.905388 0.309805 0.500000
Si Si2 0.660014 0.722743 0.318251
Si Si3 0.500000 0.000000 0.410120
Si Si4 0.244828 0.404374 0.500000
Si Si5 0.500000 0.500000 0.126779
Si Si6 0.161323 0.741474 0.102219
Si Si7 0.694372 0.000000 0.250000
O O1 0.961189 0.364893 0.449594
O O2 0.800755 0.419237 0.500000
O O3 0.868364 0.128893 0.500000
O O4 0.560785 0.631003 0.340259
O O5 0.739149 0.772317 0.362747
O O6 0.633203 0.871383 0.283042
O O7 0.728640 0.600018 0.285810
O O8 0.411634 0.907318 0.379589
O O9 0.199882 0.324506 0.450346
O O10 0.408931 0.400729 0.099123
#
# Coordination Sequence:
#
# PCOD9528868 Si02
#       7
#     8  16   8   8   8  16   8
#     4   9  20  38  60  94 135 193 261 300 357 444
#     4  11  25  50  73 115 148 191 247 316 378 459
#     4   9  22  40  64  95 142 200 246 301 378 433
#     4  10  24  39  66 100 145 206 241 314 370 428
#     4  12  28  44  78 112 152 196 250 310 372 466
#     4  11  26  44  70 109 151 199 254 315 368 453
#     4  10  24  51  81 100 150 188 238 320 390 440
#
# _framework density 25.091636999999999
#
# number of rings (size 3 to 8) (size 9 to 14) (size 15 to 20)
#    0.000    1.556    2.222    0.667   12.444    0.889 
#    0.000    1.111    0.000    0.000    0.000    0.000 
#    0.000    0.000    0.000    0.000    0.000    0.000 
#
# Total GULP energy -201579.385212 kJ/mol
# GULP energy per Si atom -5599.427367 kJ/mol
# Density = 2.503453 g / cm^3
# Si number density = 25.091637 Si / 1000 Ang^3
#
#
#
# Elastic Constant Matrix: (Units=GPa)
#
#
# Indices 1 2 3 4 5 6 
#
# 1 81.2922 40.9970 11.4696 0.0000 0.0000 0.0000
# 2 40.9970 104.9163 47.9384 0.0000 0.0000 0.0000
# 3 11.4696 47.9384 60.9977 0.0000 0.0000 0.0000
# 4 0.0000 0.0000 0.0000 37.7467 0.0000 0.0000
# 5 0.0000 0.0000 0.0000 0.0000 27.6350 0.0000
# 6 0.0000 0.0000 0.0000 0.0000 0.0000 63.1480
#
#
#
# Elastic Compliance Matrix: (Units=1/GPa)
#
#
# Indices 1 2 3 4 5 6 
#
# 1 0.015644 -0.007441 0.002906 0.000000 0.000000 0.000000
# 2 -0.007441 0.018411 -0.013070 0.000000 0.000000 0.000000
# 3 0.002906 -0.013070 0.026120 0.000000 0.000000 0.000000
# 4 0.000000 0.000000 0.000000 0.026492 0.000000 0.000000
# 5 0.000000 0.000000 0.000000 0.000000 0.036186 0.000000
# 6 0.000000 0.000000 0.000000 0.000000 0.000000 0.015836
#
#
# Mechanical properties :
#
#
# Convention : Reuss Voigt Hill
#
# Bulk Modulus (GPa) = 40.05646 49.77956 44.91801
# Shear Modulus (GPa) = 27.43938 35.49266 31.46602
#
# Velocity S-wave (km/s) = 3.31050 3.76509 3.54509
# Velocity P-wave (km/s) = 5.53275 6.22763 5.89044
#
# Compressibility (1/GPa) = 0.02496476
#
# Stress axis : x y z
#
# Youngs Moduli (GPa) = 63.92299 54.31526 38.28557
#
# Poissons Ratio (x) = 0.40415 -0.11127
# Poissons Ratio (y) = 0.47564 0.50040
# Poissons Ratio (z) = -0.18578 0.70991
#
# Static dielectric constant tensor:
#      x y z
#    x 2.026340 0.000000 0.000000 
#    y 0.000000 2.002090 0.000000 
#    z 0.000000 0.000000 1.938570 
# 
# From -- ./inp_files/48508.got.cif
#   From: 2010.05.17/outbox.cif.g08.bks.cpg/sg72_25_cif.got.tgz:48508.got - 2010.06.03 17:03:01.
