data_PCOD9528940
_publ_section_title
;
Structure prediction by ZEFSAII (Michael W. Deem and Ramdas Pophale) SiO2 
 PCOD9528940
Probable space group: I B A M
;
_chemical_formula_sum "Si O2"
_cell_formula_units_Z 112
_cell_length_a 14.023567
_cell_length_b 27.351441
_cell_length_c 14.147798
_cell_angle_alpha 90.000000
_cell_angle_beta 90.000000
_cell_angle_gamma 90.000000
_cell_volume 5426.596821
_symmetry_space_group_name_H-M "I B A M"
_symmetry_group_IT_number 72
_symmetry_cell_setting 'orthorhombic'
loop_
_space_group_symop_operation_xyz
x,y,z
-x,-y,z
x,-y,1/2-z
-x,y,1/2-z
-x,-y,-z
x,y,-z
-x,y,1/2+z
x,-y,1/2+z
1/2+x,1/2+y,1/2+z
1/2-x,1/2-y,1/2+z
1/2+x,1/2-y,-z
1/2-x,1/2+y,-z
1/2-x,1/2-y,1/2-z
1/2+x,1/2+y,1/2-z
1/2-x,1/2+y,z
1/2+x,1/2-y,z
loop_
_atom_site_type_symbol
_atom_site_label
_atom_site_fract_x
_atom_site_fract_y
_atom_site_fract_z
Si Si1 0.959706 0.351389 0.392804
Si Si2 0.648258 0.322503 0.401604
Si Si3 0.028925 0.237075 0.139725
Si Si4 0.011218 0.941742 0.890046
Si Si5 0.652787 0.402240 0.753549
Si Si6 0.254519 0.727562 0.853551
Si Si7 0.652193 0.129877 0.299175
O O1 0.932028 0.365127 0.500000
O O2 0.981502 0.293113 0.393272
O O3 0.882226 0.358585 0.308846
O O4 0.054959 0.379554 0.357217
O O5 0.669252 0.350237 0.500000
O O6 0.541023 0.302890 0.401601
O O7 0.659314 0.350034 0.301568
O O8 0.708566 0.272994 0.406185
O O9 0.136231 0.220990 0.120688
O O10 0.000000 0.239227 0.250000
O O11 0.926671 0.912513 0.834363
O O12 0.109634 0.932541 0.833996
O O13 0.011938 0.927918 0.000000
O O14 0.000000 0.000000 0.883841
O O15 0.760159 0.408348 0.792235
O O16 0.250000 0.750000 0.750000
O O17 0.196310 0.677628 0.850826
#
# Coordination Sequence:
#
# PCOD9528940 Si02
#       7
#    16  16  16  16  16  16  16
#     4  11  21  37  55  75 111 165 217 261 307 348
#     4  12  25  36  51  82 118 161 216 265 304 349
#     4  12  20  34  52  67 103 158 215 263 307 348
#     4  10  24  47  72 100 130 157 188 236 315 404
#     4  11  22  38  64  92 126 157 197 252 309 365
#     4  12  20  36  52  70 108 167 213 267 311 341
#     4  11  22  38  55  82 118 160 215 265 305 360
#
# _framework density 20.639085999999999
#
# number of rings (size 3 to 8) (size 9 to 14) (size 15 to 20)
#    0.000    0.714    7.143    1.714    6.000    4.000 
#    0.000    0.000    0.000    0.000    0.000    8.000 
#    0.000   13.714    0.000    0.000    0.000    0.000 
#
# Total GULP energy -312271.801218 kJ/mol
# GULP energy per Si atom -5576.282165 kJ/mol
# Density = 2.059211 g / cm^3
# Si number density = 20.639086 Si / 1000 Ang^3
#
#
#
# Elastic Constant Matrix: (Units=GPa)
#
#
# Indices 1 2 3 4 5 6 
#
# 1 130.5456 24.3026 11.7570 0.0000 0.0000 0.0000
# 2 24.3026 35.0240 26.5374 -0.0001 0.0000 0.0001
# 3 11.7570 26.5374 135.1707 -0.0001 0.0000 0.0000
# 4 0.0000 -0.0001 -0.0001 20.0573 0.0000 0.0000
# 5 0.0000 0.0000 0.0000 0.0000 11.9198 0.0000
# 6 0.0000 0.0001 0.0000 0.0000 0.0000 19.6968
#
#
#
# Elastic Compliance Matrix: (Units=1/GPa)
#
#
# Indices 1 2 3 4 5 6 
#
# 1 0.008826 -0.006511 0.000511 0.000000 0.000000 0.000000
# 2 -0.006511 0.038345 -0.006962 0.000000 0.000000 0.000000
# 3 0.000511 -0.006962 0.008720 0.000000 0.000000 0.000000
# 4 0.000000 0.000000 0.000000 0.049857 0.000000 0.000000
# 5 0.000000 0.000000 0.000000 0.000000 0.083894 0.000000
# 6 0.000000 0.000000 0.000000 0.000000 0.000000 0.050770
#
#
# Mechanical properties :
#
#
# Convention : Reuss Voigt Hill
#
# Bulk Modulus (GPa) = 33.37038 47.32602 40.34820
# Shear Modulus (GPa) = 18.09455 26.21098 22.15277
#
# Velocity S-wave (km/s) = 2.96415 3.56753 3.27974
# Velocity P-wave (km/s) = 5.28380 6.32058 5.82530
#
# Compressibility (1/GPa) = 0.02996670
#
# Stress axis : x y z
#
# Youngs Moduli (GPa) = 113.29721 26.07914 114.67371
#
# Poissons Ratio (x) = 0.16981 -0.05856
# Poissons Ratio (y) = 0.73772 0.79832
# Poissons Ratio (z) = -0.05785 0.18156
#
# Static dielectric constant tensor:
#      x y z
#    x 1.991020 0.000000 0.000000 
#    y 0.000000 1.767820 0.000000 
#    z 0.000000 0.000000 1.829360 
# 
# From -- ./inp_files/22308.got.cif
#   From: 2010.05.17/outbox.cif.g08.bks.cpg/sg72_12_cif.got.tgz:22308.got - 2010.06.03 17:03:01.
