data_PCOD9528914
_publ_section_title
;
Structure prediction by ZEFSAII (Michael W. Deem and Ramdas Pophale) SiO2 
 PCOD9528914
Probable space group: I B A M
;
_chemical_formula_sum "Si O2"
_cell_formula_units_Z 72
_cell_length_a 9.218838
_cell_length_b 14.669307
_cell_length_c 26.274449
_cell_angle_alpha 90.000000
_cell_angle_beta 90.000000
_cell_angle_gamma 90.000000
_cell_volume 3553.197911
_symmetry_space_group_name_H-M "I B A M"
_symmetry_group_IT_number 72
_symmetry_cell_setting 'orthorhombic'
loop_
_space_group_symop_operation_xyz
x,y,z
-x,-y,z
x,-y,1/2-z
-x,y,1/2-z
-x,-y,-z
x,y,-z
-x,y,1/2+z
x,-y,1/2+z
1/2+x,1/2+y,1/2+z
1/2-x,1/2-y,1/2+z
1/2+x,1/2-y,-z
1/2-x,1/2+y,-z
1/2-x,1/2-y,1/2-z
1/2+x,1/2+y,1/2-z
1/2-x,1/2+y,z
1/2+x,1/2-y,z
loop_
_atom_site_type_symbol
_atom_site_label
_atom_site_fract_x
_atom_site_fract_y
_atom_site_fract_z
Si Si1 0.500000 0.500000 0.322917
Si Si2 0.245632 0.000000 0.750000
Si Si3 0.000000 0.500000 0.678333
Si Si4 0.013981 0.665004 0.109038
Si Si5 0.652156 0.546984 0.000000
Si Si6 0.328896 0.645502 0.608409
Si Si7 0.406288 0.090702 0.000000
O O1 0.626406 0.546447 0.287545
O O2 0.590713 0.430076 0.357268
O O3 0.367327 0.958325 0.788195
O O4 0.934206 0.579828 0.643407
O O5 0.841194 0.663934 0.116986
O O6 0.085796 0.761497 0.119644
O O7 0.055810 0.644501 0.050715
O O8 0.500000 0.500000 0.000000
O O9 0.668082 0.608529 0.050299
O O10 0.751414 0.456492 0.000000
O O11 0.500000 0.000000 0.000000
#
# Coordination Sequence:
#
# PCOD9528914 Si02
#       7
#     8   8   8  16   8  16   8
#     4  11  24  49  68  98 138 177 234 287 350 400
#     4  10  24  44  76  94 130 180 230 300 342 406
#     4  11  22  47  72  98 132 181 232 281 358 400
#     4  12  26  43  71 104 143 182 228 278 345 413
#     4  12  25  42  70 103 139 185 223 273 333 400
#     4  12  26  43  69 105 141 184 225 281 341 418
#     4  12  23  44  70  97 141 183 227 269 329 404
#
# _framework density 20.263437
#
# number of rings (size 3 to 8) (size 9 to 14) (size 15 to 20)
#    0.000    0.444    6.667    0.667    6.222    0.000 
#    0.000    6.667    0.000    0.000    0.000    0.000 
#    0.000    0.000    0.000    0.000    0.000    0.000 
#
# Total GULP energy -200504.149514 kJ/mol
# GULP energy per Si atom -5569.559709 kJ/mol
# Density = 2.021732 g / cm^3
# Si number density = 20.263437 Si / 1000 Ang^3
#
#
#
# Elastic Constant Matrix: (Units=GPa)
#
#
# Indices 1 2 3 4 5 6 
#
# 1 166.9975 40.7811 40.5049 0.0000 0.0000 0.0000
# 2 40.7811 108.4142 39.6210 0.0000 0.0000 0.0000
# 3 40.5049 39.6210 114.4399 0.0000 0.0000 0.0000
# 4 0.0000 0.0000 0.0000 3.6061 0.0000 0.0000
# 5 0.0000 0.0000 0.0000 0.0000 24.1164 0.0000
# 6 0.0000 0.0000 0.0000 0.0000 0.0000 40.0193
#
#
#
# Elastic Compliance Matrix: (Units=1/GPa)
#
#
# Indices 1 2 3 4 5 6 
#
# 1 0.006892 -0.001947 -0.001765 0.000000 0.000000 0.000000
# 2 -0.001947 0.011110 -0.003157 0.000000 0.000000 0.000000
# 3 -0.001765 -0.003157 0.010456 0.000000 0.000000 0.000000
# 4 0.000000 0.000000 0.000000 0.277305 0.000000 0.000000
# 5 0.000000 0.000000 0.000000 0.000000 0.041466 0.000000
# 6 0.000000 0.000000 0.000000 0.000000 0.000000 0.024988
#
#
# Mechanical properties :
#
#
# Convention : Reuss Voigt Hill
#
# Bulk Modulus (GPa) = 67.94111 70.18506 69.06309
# Shear Modulus (GPa) = 12.79223 31.47800 22.13512
#
# Velocity S-wave (km/s) = 2.51529 3.94564 3.30868
# Velocity P-wave (km/s) = 6.48361 7.44775 6.98234
#
# Compressibility (1/GPa) = 0.01471863
#
# Stress axis : x y z
#
# Youngs Moduli (GPa) = 145.10043 90.00680 95.63840
#
# Poissons Ratio (x) = 0.17527 0.16881
# Poissons Ratio (y) = 0.28256 0.30196
# Poissons Ratio (z) = 0.25611 0.28418
#
# Static dielectric constant tensor:
#      x y z
#    x 1.704040 0.000000 0.000000 
#    y 0.000000 1.633400 0.000000 
#    z 0.000000 0.000000 1.756270 
# 
# From -- ./inp_files/47074.got.cif
#   From: 2010.05.17/outbox.cif.g08.bks.cpg/sg72_24_cif.got.tgz:47074.got - 2010.06.03 17:03:01.
