data_PCOD9528189
_publ_section_title
;
Structure prediction by ZEFSAII (Michael W. Deem and Ramdas Pophale) SiO2 
 PCOD9528189
Probable space group: I B A M
;
_chemical_formula_sum "Si O2"
_cell_formula_units_Z 96
_cell_length_a 11.999184
_cell_length_b 22.458835
_cell_length_c 16.325793
_cell_angle_alpha 90.000000
_cell_angle_beta 90.000000
_cell_angle_gamma 90.000000
_cell_volume 4399.600302
_symmetry_space_group_name_H-M "I B A M"
_symmetry_group_IT_number 72
_symmetry_cell_setting 'orthorhombic'
loop_
_space_group_symop_operation_xyz
x,y,z
-x,-y,z
x,-y,1/2-z
-x,y,1/2-z
-x,-y,-z
x,y,-z
-x,y,1/2+z
x,-y,1/2+z
1/2+x,1/2+y,1/2+z
1/2-x,1/2-y,1/2+z
1/2+x,1/2-y,-z
1/2-x,1/2+y,-z
1/2-x,1/2-y,1/2-z
1/2+x,1/2+y,1/2-z
1/2-x,1/2+y,z
1/2+x,1/2-y,z
loop_
_atom_site_type_symbol
_atom_site_label
_atom_site_fract_x
_atom_site_fract_y
_atom_site_fract_z
Si Si1 0.322322 0.868361 0.340804
Si Si2 0.242569 0.084494 0.666560
Si Si3 0.435264 0.852955 0.905097
Si Si4 0.662446 0.273271 0.098464
Si Si5 0.832658 0.964497 0.093279
Si Si6 0.978153 0.128191 0.902694
O O1 0.288837 0.896454 0.254167
O O2 0.453284 0.864422 0.354740
O O3 0.265455 0.804249 0.356181
O O4 0.262363 0.913701 0.403803
O O5 0.345083 0.095238 0.605076
O O6 0.136854 0.125369 0.644606
O O7 0.199474 0.017769 0.652883
O O8 0.370708 0.793220 0.877602
O O9 0.466979 0.844698 0.000000
O O10 0.555518 0.315226 0.114747
O O11 0.684076 0.274293 0.000000
O O12 0.945678 0.929587 0.116094
O O13 0.844426 0.987077 0.000000
O O14 0.955490 0.127937 0.000000
#
# Coordination Sequence:
#
# PCOD9528189 Si02
#       6
#    16  16  16  16  16  16
#     4  11  24  43  61  94 133 168 207 270 339 383
#     4  12  24  38  61 100 132 167 209 264 331 390
#     4  11  24  42  65  90 123 173 226 269 314 388
#     4   9  21  41  66  89 118 169 222 266 314 381
#     4  10  21  41  68  93 127 172 217 260 310 385
#     4   9  19  39  65  96 128 166 216 266 314 376
#
# _framework density 21.820163999999998
#
# number of rings (size 3 to 8) (size 9 to 14) (size 15 to 20)
#    0.000    1.667    0.000    5.500    2.333    5.333 
#    3.000    6.667    0.000    0.000    0.000    0.000 
#    0.000    0.000    0.000    0.000    0.000    0.000 
#
# Total GULP energy -268520.653178 kJ/mol
# GULP energy per Si atom -5594.180275 kJ/mol
# Density = 2.177050 g / cm^3
# Si number density = 21.820164 Si / 1000 Ang^3
#
#
#
# Elastic Constant Matrix: (Units=GPa)
#
#
# Indices 1 2 3 4 5 6 
#
# 1 117.1265 24.2441 36.9747 0.0000 0.0000 0.0000
# 2 24.2441 43.4836 27.9501 0.0000 0.0000 0.0000
# 3 36.9747 27.9501 70.6330 -0.0001 0.0000 0.0000
# 4 0.0000 0.0000 -0.0001 25.9352 0.0000 0.0000
# 5 0.0000 0.0000 0.0000 0.0000 26.4575 0.0000
# 6 0.0000 0.0000 0.0000 0.0000 0.0000 12.8921
#
#
#
# Elastic Compliance Matrix: (Units=1/GPa)
#
#
# Indices 1 2 3 4 5 6 
#
# 1 0.010535 -0.003123 -0.004279 0.000000 0.000000 0.000000
# 2 -0.003123 0.031768 -0.010936 0.000000 0.000000 0.000000
# 3 -0.004279 -0.010936 0.020725 0.000000 0.000000 0.000000
# 4 0.000000 0.000000 0.000000 0.038558 0.000000 0.000000
# 5 0.000000 0.000000 0.000000 0.000000 0.037796 0.000000
# 6 0.000000 0.000000 0.000000 0.000000 0.000000 0.077567
#
#
# Mechanical properties :
#
#
# Convention : Reuss Voigt Hill
#
# Bulk Modulus (GPa) = 37.94819 45.50897 41.72858
# Shear Modulus (GPa) = 19.05422 22.52857 20.79140
#
# Velocity S-wave (km/s) = 2.95827 3.21669 3.09018
# Velocity P-wave (km/s) = 5.39422 5.89048 5.64780
#
# Compressibility (1/GPa) = 0.02635172
#
# Stress axis : x y z
#
# Youngs Moduli (GPa) = 94.92107 31.47832 48.25100
#
# Poissons Ratio (x) = 0.09832 0.20646
# Poissons Ratio (y) = 0.29648 0.52766
# Poissons Ratio (z) = 0.40616 0.34424
#
# Static dielectric constant tensor:
#      x y z
#    x 1.754500 0.000000 0.000000 
#    y 0.000000 1.799100 0.000000 
#    z 0.000000 0.000000 1.832350 
# 
# From -- ./inp_files/29479.got.cif
#   From: 2010.05.17/outbox.cif.g08.bks.cpg/sg72_15_cif.got.tgz:29479.got - 2010.06.03 17:03:01.
