data_PCOD9528272
_publ_section_title
;
Structure prediction by ZEFSAII (Michael W. Deem and Ramdas Pophale) SiO2 
 PCOD9528272
Probable space group: I B A M
;
_chemical_formula_sum "Si O2"
_cell_formula_units_Z 80
_cell_length_a 11.951373
_cell_length_b 19.102019
_cell_length_c 17.383774
_cell_angle_alpha 90.000000
_cell_angle_beta 90.000000
_cell_angle_gamma 90.000000
_cell_volume 3968.634841
_symmetry_space_group_name_H-M "I B A M"
_symmetry_group_IT_number 72
_symmetry_cell_setting 'orthorhombic'
loop_
_space_group_symop_operation_xyz
x,y,z
-x,-y,z
x,-y,1/2-z
-x,y,1/2-z
-x,-y,-z
x,y,-z
-x,y,1/2+z
x,-y,1/2+z
1/2+x,1/2+y,1/2+z
1/2-x,1/2-y,1/2+z
1/2+x,1/2-y,-z
1/2-x,1/2+y,-z
1/2-x,1/2-y,1/2-z
1/2+x,1/2+y,1/2-z
1/2-x,1/2+y,z
1/2+x,1/2-y,z
loop_
_atom_site_type_symbol
_atom_site_label
_atom_site_fract_x
_atom_site_fract_y
_atom_site_fract_z
Si Si1 0.119871 0.213930 0.500000
Si Si2 0.985693 0.638344 0.500000
Si Si3 0.092544 0.858444 0.500000
Si Si4 0.605528 0.049618 0.129424
Si Si5 0.773950 0.225311 0.628012
Si Si6 0.775914 0.536902 0.500000
Si Si7 0.867167 0.660355 0.243570
O O1 0.197896 0.225565 0.426332
O O2 0.033635 0.279597 0.500000
O O3 0.041143 0.146658 0.500000
O O4 0.051919 0.609460 0.573834
O O5 0.863130 0.602490 0.500000
O O6 0.142032 0.817820 0.574399
O O7 0.151819 0.933524 0.500000
O O8 0.661330 0.087772 0.201197
O O9 0.500000 0.000000 0.150045
O O10 0.689614 0.007139 0.075040
O O11 0.834491 0.274839 0.689073
O O12 0.693834 0.173017 0.675744
O O13 0.000000 0.659512 0.250000
#
# Coordination Sequence:
#
# PCOD9528272 Si02
#       7
#     8   8   8  16  16   8  16
#     4  11  20  36  63  84 108 159 203 235 298 348
#     4   9  14  31  52  77 114 143 197 241 292 355
#     4  11  20  35  57  77 115 159 197 248 292 339
#     4   9  19  32  54  82 115 157 183 241 304 356
#     4  10  22  36  56  84 118 152 191 251 290 357
#     4   9  18  32  52  81 120 150 195 247 284 352
#     4  11  22  36  54  86 122 148 189 238 310 368
#
# _framework density 20.158065000000001
#
# number of rings (size 3 to 8) (size 9 to 14) (size 15 to 20)
#    0.000    2.000    2.000    4.800    2.800    2.800 
#    0.000    0.000    0.000    2.400    0.000    0.000 
#    6.000    0.000    0.000    0.000    0.000    0.000 
#
# Total GULP energy -223667.712385 kJ/mol
# GULP energy per Si atom -5591.692810 kJ/mol
# Density = 2.011218 g / cm^3
# Si number density = 20.158065 Si / 1000 Ang^3
#
#
#
# Elastic Constant Matrix: (Units=GPa)
#
#
# Indices 1 2 3 4 5 6 
#
# 1 35.2704 6.9957 18.0973 0.0000 0.0000 0.0000
# 2 6.9957 43.2517 11.4339 0.0000 0.0000 0.0000
# 3 18.0973 11.4339 100.4121 0.0000 0.0000 0.0000
# 4 0.0000 0.0000 0.0000 29.0949 0.0000 0.0000
# 5 0.0000 0.0000 0.0000 0.0000 14.9371 0.0000
# 6 0.0000 0.0000 0.0000 0.0000 0.0000 23.7628
#
#
#
# Elastic Compliance Matrix: (Units=1/GPa)
#
#
# Indices 1 2 3 4 5 6 
#
# 1 0.031819 -0.003743 -0.005308 0.000000 0.000000 0.000000
# 2 -0.003743 0.024278 -0.002090 0.000000 0.000000 0.000000
# 3 -0.005308 -0.002090 0.011154 0.000000 0.000000 0.000000
# 4 0.000000 0.000000 0.000000 0.034370 0.000000 0.000000
# 5 0.000000 0.000000 0.000000 0.000000 0.066947 0.000000
# 6 0.000000 0.000000 0.000000 0.000000 0.000000 0.042083
#
#
# Mechanical properties :
#
#
# Convention : Reuss Voigt Hill
#
# Bulk Modulus (GPa) = 22.23821 27.99866 25.11844
# Shear Modulus (GPa) = 20.16753 23.05278 21.61015
#
# Velocity S-wave (km/s) = 3.16645 3.38539 3.27775
# Velocity P-wave (km/s) = 4.94211 5.40378 5.17809
#
# Compressibility (1/GPa) = 0.04496764
#
# Stress axis : x y z
#
# Youngs Moduli (GPa) = 31.42814 41.18893 89.65640
#
# Poissons Ratio (x) = 0.15417 0.47594
# Poissons Ratio (y) = 0.11764 0.18738
# Poissons Ratio (z) = 0.16684 0.08608
#
# Static dielectric constant tensor:
#      x y z
#    x 1.709340 0.000000 0.000000 
#    y 0.000000 1.745350 0.000000 
#    z 0.000000 0.000000 1.742600 
# 
# From -- ./inp_files/29232.got.cif
#   From: 2010.05.17/outbox.cif.g08.bks.cpg/sg72_15_cif.got.tgz:29232.got - 2010.06.03 17:03:01.
