data_PCOD9528609
_publ_section_title
;
Structure prediction by ZEFSAII (Michael W. Deem and Ramdas Pophale) SiO2 
 PCOD9528609
Probable space group: I B A M
;
_chemical_formula_sum "Si O2"
_cell_formula_units_Z 116
_cell_length_a 12.953490
_cell_length_b 19.636123
_cell_length_c 21.860025
_cell_angle_alpha 90.000000
_cell_angle_beta 90.000000
_cell_angle_gamma 90.000000
_cell_volume 5560.235578
_symmetry_space_group_name_H-M "I B A M"
_symmetry_group_IT_number 72
_symmetry_cell_setting 'orthorhombic'
loop_
_space_group_symop_operation_xyz
x,y,z
-x,-y,z
x,-y,1/2-z
-x,y,1/2-z
-x,-y,-z
x,y,-z
-x,y,1/2+z
x,-y,1/2+z
1/2+x,1/2+y,1/2+z
1/2-x,1/2-y,1/2+z
1/2+x,1/2-y,-z
1/2-x,1/2+y,-z
1/2-x,1/2-y,1/2-z
1/2+x,1/2+y,1/2-z
1/2-x,1/2+y,z
1/2+x,1/2-y,z
loop_
_atom_site_type_symbol
_atom_site_label
_atom_site_fract_x
_atom_site_fract_y
_atom_site_fract_z
Si Si1 0.256043 0.921810 0.363260
Si Si2 0.236127 0.208922 0.432524
Si Si3 0.982689 0.377124 0.820473
Si Si4 0.500000 0.500000 0.750000
Si Si5 0.844444 0.108619 0.766219
Si Si6 0.604351 0.327184 0.069089
Si Si7 0.558284 0.722534 0.162705
Si Si8 0.691650 0.077658 0.871223
O O1 0.369419 0.894768 0.345336
O O2 0.187674 0.909069 0.302263
O O3 0.194110 0.880959 0.414842
O O4 0.272314 0.000621 0.379702
O O5 0.190993 0.218557 0.500000
O O6 0.338953 0.254047 0.428937
O O7 0.157351 0.233525 0.380968
O O8 0.265099 0.130664 0.420457
O O9 0.069940 0.412610 0.861683
O O10 0.000000 0.399211 0.750000
O O11 0.991700 0.295005 0.822771
O O12 0.573895 0.449041 0.713241
O O13 0.897349 0.180984 0.779303
O O14 0.743668 0.102708 0.807724
O O15 0.517565 0.323788 0.121409
O O16 0.564841 0.338464 0.000000
#
# Coordination Sequence:
#
# PCOD9528609 Si02
#       8
#    16  16  16   4  16  16  16  16
#     4  12  24  43  65  98 138 173 221 271 329 402
#     4  10  22  43  69  93 128 172 223 279 329 387
#     4  12  25  39  66  99 139 174 218 267 333 399
#     4  12  20  40  56  90 130 172 206 260 328 380
#     4  11  24  38  65  93 132 174 215 265 330 395
#     4  11  24  43  68  95 130 173 223 282 331 385
#     4  11  24  42  66  99 129 171 223 274 333 394
#     4  11  23  43  64  96 133 179 219 264 330 396
#
# _framework density 20.862425999999999
#
# number of rings (size 3 to 8) (size 9 to 14) (size 15 to 20)
#    0.000    0.828    5.517    1.655    2.897    1.655 
#    0.000    0.690    0.000    4.138    0.000    0.000 
#    0.000    0.000    0.000    0.000    0.000    0.000 
#
# Total GULP energy -324094.041827 kJ/mol
# GULP energy per Si atom -5587.828307 kJ/mol
# Density = 2.081494 g / cm^3
# Si number density = 20.862426 Si / 1000 Ang^3
#
#
#
# Elastic Constant Matrix: (Units=GPa)
#
#
# Indices 1 2 3 4 5 6 
#
# 1 76.9812 2.8781 5.2954 0.0000 0.0000 0.0000
# 2 2.8781 114.8840 15.5734 0.0000 0.0000 0.0000
# 3 5.2954 15.5734 37.9947 0.0000 0.0000 0.0000
# 4 0.0000 0.0000 0.0000 12.4559 0.0000 0.0000
# 5 0.0000 0.0000 0.0000 0.0000 22.4989 0.0000
# 6 0.0000 0.0000 0.0000 0.0000 0.0000 34.5731
#
#
#
# Elastic Compliance Matrix: (Units=1/GPa)
#
#
# Indices 1 2 3 4 5 6 
#
# 1 0.013117 -0.000086 -0.001793 0.000000 0.000000 0.000000
# 2 -0.000086 0.009217 -0.003766 0.000000 0.000000 0.000000
# 3 -0.001793 -0.003766 0.028113 0.000000 0.000000 0.000000
# 4 0.000000 0.000000 0.000000 0.080283 0.000000 0.000000
# 5 0.000000 0.000000 0.000000 0.000000 0.044447 0.000000
# 6 0.000000 0.000000 0.000000 0.000000 0.000000 0.028924
#
#
# Mechanical properties :
#
#
# Convention : Reuss Voigt Hill
#
# Bulk Modulus (GPa) = 25.53781 30.81708 28.17745
# Shear Modulus (GPa) = 21.88733 27.64643 24.76688
#
# Velocity S-wave (km/s) = 3.24254 3.64425 3.44925
# Velocity P-wave (km/s) = 5.12702 5.70185 5.42206
#
# Compressibility (1/GPa) = 0.03915762
#
# Stress axis : x y z
#
# Youngs Moduli (GPa) = 76.23858 108.49409 35.57072
#
# Poissons Ratio (x) = 0.00928 0.06378
# Poissons Ratio (y) = 0.00652 0.13396
# Poissons Ratio (z) = 0.13670 0.40859
#
# Static dielectric constant tensor:
#      x y z
#    x 1.759620 0.000000 0.000000 
#    y 0.000000 1.750450 0.000000 
#    z 0.000000 0.000000 1.733440 
# 
# From -- ./inp_files/48233.got.cif
#   From: 2010.05.17/outbox.cif.g08.bks.cpg/sg72_25_cif.got.tgz:48233.got - 2010.06.03 17:03:01.
