data_PCOD9528636
_publ_section_title
;
Structure prediction by ZEFSAII (Michael W. Deem and Ramdas Pophale) SiO2 
 PCOD9528636
Probable space group: I B A M
;
_chemical_formula_sum "Si O2"
_cell_formula_units_Z 68
_cell_length_a 21.091689
_cell_length_b 10.442821
_cell_length_c 13.845934
_cell_angle_alpha 90.000000
_cell_angle_beta 90.000000
_cell_angle_gamma 90.000000
_cell_volume 3049.660186
_symmetry_space_group_name_H-M "I B A M"
_symmetry_group_IT_number 72
_symmetry_cell_setting 'orthorhombic'
loop_
_space_group_symop_operation_xyz
x,y,z
-x,-y,z
x,-y,1/2-z
-x,y,1/2-z
-x,-y,-z
x,y,-z
-x,y,1/2+z
x,-y,1/2+z
1/2+x,1/2+y,1/2+z
1/2-x,1/2-y,1/2+z
1/2+x,1/2-y,-z
1/2-x,1/2+y,-z
1/2-x,1/2-y,1/2-z
1/2+x,1/2+y,1/2-z
1/2-x,1/2+y,z
1/2+x,1/2-y,z
loop_
_atom_site_type_symbol
_atom_site_label
_atom_site_fract_x
_atom_site_fract_y
_atom_site_fract_z
Si Si1 0.000000 0.500000 0.250000
Si Si2 0.400176 0.861097 0.386765
Si Si3 0.769820 0.514068 0.115205
Si Si4 0.818691 0.214286 0.383004
Si Si5 0.424389 0.349387 0.754248
O O1 0.045353 0.579788 0.179597
O O2 0.414490 0.868062 0.500000
O O3 0.335954 0.939691 0.368805
O O4 0.395589 0.715293 0.350152
O O5 0.778993 0.660017 0.148390
O O6 0.715601 0.416869 0.148859
O O7 0.760603 0.523232 0.000000
O O8 0.823321 0.216726 0.500000
O O9 0.887499 0.217395 0.334132
O O10 0.413321 0.500000 0.750000
O O11 0.500000 0.331608 0.750000
#
# Coordination Sequence:
#
# PCOD9528636 Si02
#       5
#     4  16  16  16  16
#     4  12  22  44  70 102 136 180 240 286 360 442
#     4  11  24  43  69 100 141 182 233 302 358 421
#     4   9  21  40  68 104 138 178 230 285 361 429
#     4  10  22  44  72 104 142 183 233 297 361 430
#     4  11  26  46  65  99 140 185 247 291 353 437
#
# _framework density 22.297566
#
# number of rings (size 3 to 8) (size 9 to 14) (size 15 to 20)
#    0.000    1.647    1.176    1.765    3.294    2.824 
#    2.118    2.353    0.000    0.000    0.000    0.000 
#    0.000    0.000    0.000    0.000    0.000    0.000 
#
# Total GULP energy -190148.857319 kJ/mol
# GULP energy per Si atom -5592.613451 kJ/mol
# Density = 2.224682 g / cm^3
# Si number density = 22.297566 Si / 1000 Ang^3
#
#
#
# Elastic Constant Matrix: (Units=GPa)
#
#
# Indices 1 2 3 4 5 6 
#
# 1 113.7080 56.4931 44.5858 0.0000 0.0000 0.0000
# 2 56.4931 142.4157 31.2406 0.0000 0.0000 0.0000
# 3 44.5858 31.2406 123.1547 0.0000 0.0000 0.0000
# 4 0.0000 0.0000 0.0000 31.4703 0.0000 0.0000
# 5 0.0000 0.0000 0.0000 0.0000 38.1484 0.0000
# 6 0.0000 0.0000 0.0000 0.0000 0.0000 12.8479
#
#
#
# Elastic Compliance Matrix: (Units=1/GPa)
#
#
# Indices 1 2 3 4 5 6 
#
# 1 0.012138 -0.004078 -0.003360 0.000000 0.000000 0.000000
# 2 -0.004078 0.008805 -0.000757 0.000000 0.000000 0.000000
# 3 -0.003360 -0.000757 0.009528 0.000000 0.000000 0.000000
# 4 0.000000 0.000000 0.000000 0.031776 0.000000 0.000000
# 5 0.000000 0.000000 0.000000 0.000000 0.026213 0.000000
# 6 0.000000 0.000000 0.000000 0.000000 0.000000 0.077834
#
#
# Mechanical properties :
#
#
# Convention : Reuss Voigt Hill
#
# Bulk Modulus (GPa) = 71.01487 71.54638 71.28063
# Shear Modulus (GPa) = 26.68389 32.95722 29.82056
#
# Velocity S-wave (km/s) = 3.46311 3.84873 3.66100
# Velocity P-wave (km/s) = 6.92161 7.20465 7.06455
#
# Compressibility (1/GPa) = 0.01408156
#
# Stress axis : x y z
#
# Youngs Moduli (GPa) = 82.38700 113.56665 104.94976
#
# Poissons Ratio (x) = 0.46310 0.35262
# Poissons Ratio (y) = 0.33596 0.07949
# Poissons Ratio (z) = 0.27681 0.08601
#
# Static dielectric constant tensor:
#      x y z
#    x 1.789540 0.000000 0.000000 
#    y 0.000000 1.876490 0.000000 
#    z 0.000000 0.000000 1.814170 
# 
# From -- ./inp_files/23891.got.cif
#   From: 2010.05.17/outbox.cif.g08.bks.cpg/sg72_12_cif.got.tgz:23891.got - 2010.06.03 17:03:01.
