data_PCOD9528561
_publ_section_title
;
Structure prediction by ZEFSAII (Michael W. Deem and Ramdas Pophale) SiO2 
 PCOD9528561
Probable space group: I B A M
;
_chemical_formula_sum "Si O2"
_cell_formula_units_Z 56
_cell_length_a 21.148285
_cell_length_b 11.884547
_cell_length_c 10.586021
_cell_angle_alpha 90.000000
_cell_angle_beta 90.000000
_cell_angle_gamma 90.000000
_cell_volume 2660.667092
_symmetry_space_group_name_H-M "I B A M"
_symmetry_group_IT_number 72
_symmetry_cell_setting 'orthorhombic'
loop_
_space_group_symop_operation_xyz
x,y,z
-x,-y,z
x,-y,1/2-z
-x,y,1/2-z
-x,-y,-z
x,y,-z
-x,y,1/2+z
x,-y,1/2+z
1/2+x,1/2+y,1/2+z
1/2-x,1/2-y,1/2+z
1/2+x,1/2-y,-z
1/2-x,1/2+y,-z
1/2-x,1/2-y,1/2-z
1/2+x,1/2+y,1/2-z
1/2-x,1/2+y,z
1/2+x,1/2-y,z
loop_
_atom_site_type_symbol
_atom_site_label
_atom_site_fract_x
_atom_site_fract_y
_atom_site_fract_z
Si Si1 0.240879 0.660056 0.360197
Si Si2 0.051428 0.158212 0.144151
Si Si3 0.903714 0.585146 0.141422
Si Si4 0.841507 0.000000 0.250000
O O1 0.244741 0.712418 0.500000
O O2 0.250000 0.750000 0.250000
O O3 0.172007 0.603896 0.349333
O O4 0.295648 0.568587 0.342522
O O5 0.067018 0.290766 0.154610
O O6 0.000000 0.130239 0.250000
O O7 0.113856 0.086786 0.175573
O O8 0.030548 0.135888 0.000000
O O9 0.923923 0.500000 0.250000
O O10 0.917952 0.542351 0.000000
#
# Coordination Sequence:
#
# PCOD9528561 Si02
#       4
#    16  16  16   8
#     4  11  23  39  64  97 134 172 210 266 331 395
#     4  11  26  46  66  94 133 176 225 273 322 388
#     4  10  22  42  66  97 132 171 219 273 329 391
#     4  12  23  42  70 102 133 170 220 266 336 396
#
# _framework density 21.047353000000001
#
# number of rings (size 3 to 8) (size 9 to 14) (size 15 to 20)
#    0.000    1.143    4.286    1.286    0.000    7.429 
#    0.000    2.857    0.000    0.000    0.000    0.000 
#    0.000    0.000    0.000    0.000    0.000    0.000 
#
# Total GULP energy -156666.086858 kJ/mol
# GULP energy per Si atom -5595.217388 kJ/mol
# Density = 2.099945 g / cm^3
# Si number density = 21.047353 Si / 1000 Ang^3
#
#
#
# Elastic Constant Matrix: (Units=GPa)
#
#
# Indices 1 2 3 4 5 6 
#
# 1 101.6939 17.5877 46.2675 0.0000 0.0000 0.0000
# 2 17.5877 93.7296 73.5586 0.0000 0.0000 0.0000
# 3 46.2675 73.5586 192.2886 0.0000 0.0000 0.0000
# 4 0.0000 0.0000 0.0000 23.8631 0.0000 0.0000
# 5 0.0000 0.0000 0.0000 0.0000 10.9072 0.0000
# 6 0.0000 0.0000 0.0000 0.0000 0.0000 9.8904
#
#
#
# Elastic Compliance Matrix: (Units=1/GPa)
#
#
# Indices 1 2 3 4 5 6 
#
# 1 0.011042 0.000019 -0.002664 0.000000 0.000000 0.000000
# 2 0.000019 0.015246 -0.005837 0.000000 0.000000 0.000000
# 3 -0.002664 -0.005837 0.008074 0.000000 0.000000 0.000000
# 4 0.000000 0.000000 0.000000 0.041906 0.000000 0.000000
# 5 0.000000 0.000000 0.000000 0.000000 0.091682 0.000000
# 6 0.000000 0.000000 0.000000 0.000000 0.000000 0.101108
#
#
# Mechanical properties :
#
#
# Convention : Reuss Voigt Hill
#
# Bulk Modulus (GPa) = 57.47620 73.61553 65.54586
# Shear Modulus (GPa) = 17.13366 25.61869 21.37618
#
# Velocity S-wave (km/s) = 2.85626 3.49261 3.19034
# Velocity P-wave (km/s) = 6.18425 7.16356 6.69184
#
# Compressibility (1/GPa) = 0.01739851
#
# Stress axis : x y z
#
# Youngs Moduli (GPa) = 90.56101 65.59012 123.84837
#
# Poissons Ratio (x) = -0.00123 0.32995
# Poissons Ratio (y) = -0.00170 0.72288
# Poissons Ratio (z) = 0.24127 0.38284
#
# Static dielectric constant tensor:
#      x y z
#    x 1.741470 0.000000 0.000000 
#    y 0.000000 1.741170 0.000000 
#    z 0.000000 0.000000 1.742610 
# 
# From -- ./inp_files/11110.got.cif
#   From: 2010.05.17/outbox.cif.g08.bks.cpg/sg72_6_cif.got.tgz:11110.got - 2010.06.03 17:03:01.
