data_PCOD9528883
_publ_section_title
;
Structure prediction by ZEFSAII (Michael W. Deem and Ramdas Pophale) SiO2 
 PCOD9528883
Probable space group: I B A M
;
_chemical_formula_sum "Si O2"
_cell_formula_units_Z 88
_cell_length_a 19.561948
_cell_length_b 10.536572
_cell_length_c 17.112126
_cell_angle_alpha 90.000000
_cell_angle_beta 90.000000
_cell_angle_gamma 90.000000
_cell_volume 3527.080799
_symmetry_space_group_name_H-M "I B A M"
_symmetry_group_IT_number 72
_symmetry_cell_setting 'orthorhombic'
loop_
_space_group_symop_operation_xyz
x,y,z
-x,-y,z
x,-y,1/2-z
-x,y,1/2-z
-x,-y,-z
x,y,-z
-x,y,1/2+z
x,-y,1/2+z
1/2+x,1/2+y,1/2+z
1/2-x,1/2-y,1/2+z
1/2+x,1/2-y,-z
1/2-x,1/2+y,-z
1/2-x,1/2-y,1/2-z
1/2+x,1/2+y,1/2-z
1/2-x,1/2+y,z
1/2+x,1/2-y,z
loop_
_atom_site_type_symbol
_atom_site_label
_atom_site_fract_x
_atom_site_fract_y
_atom_site_fract_z
Si Si1 0.867631 0.550966 0.414698
Si Si2 0.280294 0.444446 0.585420
Si Si3 0.874851 0.175232 0.879370
Si Si4 0.353565 0.721593 0.795960
Si Si5 0.623594 0.000000 0.250000
Si Si6 0.474741 0.641950 0.090473
O O1 0.897873 0.523520 0.500000
O O2 0.792917 0.484970 0.408965
O O3 0.840937 0.696049 0.409149
O O4 0.909784 0.525544 0.335391
O O5 0.284375 0.382449 0.500000
O O6 0.340176 0.550229 0.587425
O O7 0.295005 0.350014 0.656734
O O8 0.870428 0.157599 0.786559
O O9 0.952142 0.208015 0.904011
O O10 0.340117 0.866456 0.769499
O O11 0.419327 0.704371 0.852878
O O12 0.500000 0.500000 0.113910
O O13 0.452006 0.640074 0.000000
#
# Coordination Sequence:
#
# PCOD9528883 Si02
#       6
#    16  16  16  16   8  16
#     4  10  24  42  64  93 134 182 226 282 340 404
#     4  11  23  38  64  97 129 171 224 278 339 402
#     4  11  23  41  65  97 134 171 219 281 346 398
#     4  11  24  41  64  96 131 177 218 273 331 399
#     4  10  26  44  65  96 134 185 232 270 322 420
#     4  11  22  39  67 101 133 165 218 279 342 404
#
# _framework density 24.949811
#
# number of rings (size 3 to 8) (size 9 to 14) (size 15 to 20)
#    0.000    1.273    1.818    3.273    5.091    3.636 
#    0.000    7.273    0.000    5.455    0.000    0.000 
#    0.000    0.000    0.000    0.000    0.000    0.000 
#
# Total GULP energy -245492.888154 kJ/mol
# GULP energy per Si atom -5579.383822 kJ/mol
# Density = 2.489302 g / cm^3
# Si number density = 24.949811 Si / 1000 Ang^3
#
#
#
# Elastic Constant Matrix: (Units=GPa)
#
#
# Indices 1 2 3 4 5 6 
#
# 1 83.0402 -7.1505 29.7784 0.0000 0.0000 0.0000
# 2 -7.1505 69.8066 40.2213 0.0000 0.0000 0.0000
# 3 29.7784 40.2213 236.9201 0.0000 0.0000 0.0000
# 4 0.0000 0.0000 0.0000 28.5274 0.0000 0.0000
# 5 0.0000 0.0000 0.0000 0.0000 29.9941 0.0000
# 6 0.0000 0.0000 0.0000 0.0000 0.0000 14.9734
#
#
#
# Elastic Compliance Matrix: (Units=1/GPa)
#
#
# Indices 1 2 3 4 5 6 
#
# 1 0.012999 0.002519 -0.002061 0.000000 0.000000 0.000000
# 2 0.002519 0.016367 -0.003095 0.000000 0.000000 0.000000
# 3 -0.002061 -0.003095 0.005005 0.000000 0.000000 0.000000
# 4 0.000000 0.000000 0.000000 0.035054 0.000000 0.000000
# 5 0.000000 0.000000 0.000000 0.000000 0.033340 0.000000
# 6 0.000000 0.000000 0.000000 0.000000 0.000000 0.066785
#
#
# Mechanical properties :
#
#
# Convention : Reuss Voigt Hill
#
# Bulk Modulus (GPa) = 34.36910 57.27392 45.82151
# Shear Modulus (GPa) = 27.09689 36.49349 31.79519
#
# Velocity S-wave (km/s) = 3.29911 3.82864 3.57370
# Velocity P-wave (km/s) = 5.32141 6.52305 5.95263
#
# Compressibility (1/GPa) = 0.02909590
#
# Stress axis : x y z
#
# Youngs Moduli (GPa) = 76.93173 61.09949 199.78431
#
# Poissons Ratio (x) = -0.15393 0.41185
# Poissons Ratio (y) = -0.19381 0.61837
# Poissons Ratio (z) = 0.15859 0.18911
#
# Static dielectric constant tensor:
#      x y z
#    x 2.106140 0.000000 0.000000 
#    y 0.000000 2.140880 0.000000 
#    z 0.000000 0.000000 1.977630 
# 
# From -- ./inp_files/24988.got.cif
#   From: 2010.05.17/outbox.cif.g08.bks.cpg/sg72_13_cif.got.tgz:24988.got - 2010.06.03 17:03:01.
