data_PCOD9528991
_publ_section_title
;
Structure prediction by ZEFSAII (Michael W. Deem and Ramdas Pophale) SiO2 
 PCOD9528991
Probable space group: I B A M
;
_chemical_formula_sum "Si O2"
_cell_formula_units_Z 120
_cell_length_a 19.671070
_cell_length_b 11.511785
_cell_length_c 25.708670
_cell_angle_alpha 90.000000
_cell_angle_beta 90.000000
_cell_angle_gamma 90.000000
_cell_volume 5821.705918
_symmetry_space_group_name_H-M "I B A M"
_symmetry_group_IT_number 72
_symmetry_cell_setting 'orthorhombic'
loop_
_space_group_symop_operation_xyz
x,y,z
-x,-y,z
x,-y,1/2-z
-x,y,1/2-z
-x,-y,-z
x,y,-z
-x,y,1/2+z
x,-y,1/2+z
1/2+x,1/2+y,1/2+z
1/2-x,1/2-y,1/2+z
1/2+x,1/2-y,-z
1/2-x,1/2+y,-z
1/2-x,1/2-y,1/2-z
1/2+x,1/2+y,1/2-z
1/2-x,1/2+y,z
1/2+x,1/2-y,z
loop_
_atom_site_type_symbol
_atom_site_label
_atom_site_fract_x
_atom_site_fract_y
_atom_site_fract_z
Si Si1 0.025765 0.690363 0.942092
Si Si2 0.893692 0.551246 0.923534
Si Si3 0.759521 0.851869 0.895116
Si Si4 0.580476 0.866454 0.757666
Si Si5 0.878738 0.768840 0.359763
Si Si6 0.837809 0.672528 0.166224
Si Si7 0.776102 0.477379 0.000000
Si Si8 0.293824 0.542508 0.691677
O O1 0.067695 0.569477 0.935169
O O2 0.057808 0.772850 0.898874
O O3 0.947717 0.651766 0.936921
O O4 0.039157 0.734427 0.000000
O O5 0.875546 0.568088 0.863470
O O6 0.824256 0.542704 0.955380
O O7 0.687036 0.785040 0.889548
O O8 0.817928 0.760327 0.879588
O O9 0.767642 0.944790 0.848441
O O10 0.762651 0.906699 0.952383
O O11 0.500000 0.866136 0.750000
O O12 0.601700 0.815830 0.812703
O O13 0.613743 0.788369 0.712378
O O14 0.604614 0.000000 0.750000
O O15 0.856136 0.890635 0.335186
O O16 0.767854 0.634745 0.193086
O O17 0.307192 0.500000 0.750000
#
# Coordination Sequence:
#
# PCOD9528991 Si02
#       8
#    16  16  16  16  16  16   8  16
#     4  11  19  34  57  89 119 155 199 256 320 371
#     4  11  19  34  59  86 121 156 196 256 312 372
#     4  11  23  39  57  88 125 164 204 253 301 374
#     4  11  22  37  60  91 125 154 199 266 315 369
#     4  11  22  37  59  88 120 159 203 253 311 379
#     4  11  22  36  59  86 119 164 199 254 313 373
#     4  12  20  39  56  88 130 157 205 249 306 378
#     4  11  22  39  60  84 117 163 209 251 306 373
#
# _framework density 20.612514000000001
#
# number of rings (size 3 to 8) (size 9 to 14) (size 15 to 20)
#    0.000    0.933    4.000    4.800    0.000    4.800 
#    1.200    0.000    0.000    7.600    0.000    0.933 
#    0.000    0.000    0.000    0.000    0.000    0.000 
#
# Total GULP energy -334022.711562 kJ/mol
# GULP energy per Si atom -5567.045193 kJ/mol
# Density = 2.056560 g / cm^3
# Si number density = 20.612514 Si / 1000 Ang^3
#
#
#
# Elastic Constant Matrix: (Units=GPa)
#
#
# Indices 1 2 3 4 5 6 
#
# 1 59.2664 20.6204 40.4381 0.0000 0.0000 0.0000
# 2 20.6204 39.5246 30.7068 0.0000 0.0000 0.0000
# 3 40.4381 30.7068 177.2257 0.0000 0.0000 0.0000
# 4 0.0000 0.0000 0.0000 11.0895 0.0000 0.0000
# 5 0.0000 0.0000 0.0000 0.0000 12.5148 0.0000
# 6 0.0000 0.0000 0.0000 0.0000 0.0000 27.3754
#
#
#
# Elastic Compliance Matrix: (Units=1/GPa)
#
#
# Indices 1 2 3 4 5 6 
#
# 1 0.022411 -0.008920 -0.003568 0.000000 0.000000 0.000000
# 2 -0.008920 0.032786 -0.003645 0.000000 0.000000 0.000000
# 3 -0.003568 -0.003645 0.007088 0.000000 0.000000 0.000000
# 4 0.000000 0.000000 0.000000 0.090175 0.000000 0.000000
# 5 0.000000 0.000000 0.000000 0.000000 0.079906 0.000000
# 6 0.000000 0.000000 0.000000 0.000000 0.000000 0.036529
#
#
# Mechanical properties :
#
#
# Convention : Reuss Voigt Hill
#
# Bulk Modulus (GPa) = 33.31249 51.06082 42.18665
# Shear Modulus (GPa) = 16.06843 22.47936 19.27389
#
# Velocity S-wave (km/s) = 2.79507 3.30596 3.06119
# Velocity P-wave (km/s) = 5.15877 6.27678 5.74504
#
# Compressibility (1/GPa) = 0.03001877
#
# Stress axis : x y z
#
# Youngs Moduli (GPa) = 44.62083 30.50038 141.07802
#
# Poissons Ratio (x) = 0.27206 0.50338
# Poissons Ratio (y) = 0.39802 0.51428
# Poissons Ratio (z) = 0.15921 0.11119
#
# Static dielectric constant tensor:
#      x y z
#    x 1.757280 0.000000 0.000000 
#    y 0.000000 1.810230 0.000000 
#    z 0.000000 0.000000 1.810260 
# 
# From -- ./inp_files/45464.got.cif
#   From: 2010.05.17/outbox.cif.g08.bks.cpg/sg72_23_cif.got.tgz:45464.got - 2010.06.03 17:03:01.
