data_PCOD9528933
_publ_section_title
;
Structure prediction by ZEFSAII (Michael W. Deem and Ramdas Pophale) SiO2 
 PCOD9528933
Probable space group: I B A M
;
_chemical_formula_sum "Si O2"
_cell_formula_units_Z 80
_cell_length_a 10.006145
_cell_length_b 24.408914
_cell_length_c 16.175033
_cell_angle_alpha 90.000000
_cell_angle_beta 90.000000
_cell_angle_gamma 90.000000
_cell_volume 3950.576033
_symmetry_space_group_name_H-M "I B A M"
_symmetry_group_IT_number 72
_symmetry_cell_setting 'orthorhombic'
loop_
_space_group_symop_operation_xyz
x,y,z
-x,-y,z
x,-y,1/2-z
-x,y,1/2-z
-x,-y,-z
x,y,-z
-x,y,1/2+z
x,-y,1/2+z
1/2+x,1/2+y,1/2+z
1/2-x,1/2-y,1/2+z
1/2+x,1/2-y,-z
1/2-x,1/2+y,-z
1/2-x,1/2-y,1/2-z
1/2+x,1/2+y,1/2-z
1/2-x,1/2+y,z
1/2+x,1/2-y,z
loop_
_atom_site_type_symbol
_atom_site_label
_atom_site_fract_x
_atom_site_fract_y
_atom_site_fract_z
Si Si1 0.097516 0.190152 0.500000
Si Si2 0.752450 0.076007 0.594250
Si Si3 0.053383 0.915576 0.094738
Si Si4 0.688585 0.032654 0.164593
Si Si5 0.991944 0.364041 0.841787
Si Si6 0.089070 0.294820 0.000000
O O1 0.074506 0.149044 0.422416
O O2 0.250279 0.210362 0.500000
O O3 0.990443 0.238041 0.500000
O O4 0.761310 0.095108 0.500000
O O5 0.660354 0.117962 0.642946
O O6 0.904518 0.072094 0.624986
O O7 0.684833 0.016344 0.598473
O O8 0.168198 0.939055 0.151832
O O9 0.068043 0.938987 0.000000
O O10 0.579130 0.079916 0.157988
O O11 0.676952 0.000000 0.250000
O O12 0.000000 0.339116 0.750000
O O13 0.044691 0.328017 0.917805
#
# Coordination Sequence:
#
# PCOD9528933 Si02
#       6
#     8  16  16  16  16   8
#     4  10  24  46  77  99 126 178 247 299 361 408
#     4  11  23  36  65  96 136 185 224 268 349 424
#     4   9  21  43  64  99 134 172 239 287 336 432
#     4  12  23  39  61  99 146 189 220 275 343 424
#     4  12  25  45  64 104 142 181 240 289 342 438
#     4  12  26  48  81  93 134 188 235 313 369 392
#
# _framework density 20.250212999999999
#
# number of rings (size 3 to 8) (size 9 to 14) (size 15 to 20)
#    0.600    0.400    5.000    1.800    4.200    4.000 
#    0.000    1.000    4.400    0.000    0.000    0.000 
#    0.000    0.000    0.000    0.000    0.000    0.000 
#
# Total GULP energy -223422.412173 kJ/mol
# GULP energy per Si atom -5585.560304 kJ/mol
# Density = 2.020412 g / cm^3
# Si number density = 20.250213 Si / 1000 Ang^3
#
#
#
# Elastic Constant Matrix: (Units=GPa)
#
#
# Indices 1 2 3 4 5 6 
#
# 1 90.6287 20.5198 19.8529 0.0000 0.0000 0.0000
# 2 20.5198 97.0892 26.2292 0.0000 0.0000 0.0000
# 3 19.8529 26.2292 76.0553 0.0001 0.0000 0.0000
# 4 0.0000 0.0000 0.0001 20.3065 0.0000 0.0000
# 5 0.0000 0.0000 0.0000 0.0000 20.1796 0.0000
# 6 0.0000 0.0000 0.0000 0.0000 0.0000 33.3595
#
#
#
# Elastic Compliance Matrix: (Units=1/GPa)
#
#
# Indices 1 2 3 4 5 6 
#
# 1 0.012001 -0.001864 -0.002490 0.000000 0.000000 0.000000
# 2 -0.001864 0.011647 -0.003530 0.000000 0.000000 0.000000
# 3 -0.002490 -0.003530 0.015016 0.000000 0.000000 0.000000
# 4 0.000000 0.000000 0.000000 0.049245 0.000000 0.000000
# 5 0.000000 0.000000 0.000000 0.000000 0.049555 0.000000
# 6 0.000000 0.000000 0.000000 0.000000 0.000000 0.029976
#
#
# Mechanical properties :
#
#
# Convention : Reuss Voigt Hill
#
# Bulk Modulus (GPa) = 43.67492 44.10853 43.89173
# Shear Modulus (GPa) = 26.19968 27.91388 27.05678
#
# Velocity S-wave (km/s) = 3.60084 3.71677 3.65927
# Velocity P-wave (km/s) = 6.23719 6.34415 6.29090
#
# Compressibility (1/GPa) = 0.02289643
#
# Stress axis : x y z
#
# Youngs Moduli (GPa) = 83.32303 85.85561 66.59646
#
# Poissons Ratio (x) = 0.16002 0.16583
# Poissons Ratio (y) = 0.15530 0.23511
# Poissons Ratio (z) = 0.20747 0.30310
#
# Static dielectric constant tensor:
#      x y z
#    x 1.719970 0.000000 0.000000 
#    y 0.000000 1.705780 0.000000 
#    z 0.000000 0.000000 1.756280 
# 
# From -- ./inp_files/28235.got.cif
#   From: 2010.05.17/outbox.cif.g08.bks.cpg/sg72_15_cif.got.tgz:28235.got - 2010.06.03 17:03:01.
