data_PCOD9528845
_publ_section_title
;
Structure prediction by ZEFSAII (Michael W. Deem and Ramdas Pophale) SiO2 
 PCOD9528845
Probable space group: I B A M
;
_chemical_formula_sum "Si O2"
_cell_formula_units_Z 64
_cell_length_a 11.919487
_cell_length_b 7.229620
_cell_length_c 29.588985
_cell_angle_alpha 90.000000
_cell_angle_beta 90.000000
_cell_angle_gamma 90.000000
_cell_volume 2549.782304
_symmetry_space_group_name_H-M "I B A M"
_symmetry_group_IT_number 72
_symmetry_cell_setting 'orthorhombic'
loop_
_space_group_symop_operation_xyz
x,y,z
-x,-y,z
x,-y,1/2-z
-x,y,1/2-z
-x,-y,-z
x,y,-z
-x,y,1/2+z
x,-y,1/2+z
1/2+x,1/2+y,1/2+z
1/2-x,1/2-y,1/2+z
1/2+x,1/2-y,-z
1/2-x,1/2+y,-z
1/2-x,1/2-y,1/2-z
1/2+x,1/2+y,1/2-z
1/2-x,1/2+y,z
1/2+x,1/2-y,z
loop_
_atom_site_type_symbol
_atom_site_label
_atom_site_fract_x
_atom_site_fract_y
_atom_site_fract_z
Si Si1 0.122782 0.788702 0.233830
Si Si2 0.905277 0.638196 0.069854
Si Si3 0.655173 0.443876 0.449766
Si Si4 0.042306 0.203890 0.639075
O O1 0.250000 0.750000 0.250000
O O2 0.118216 0.739013 0.180577
O O3 0.000000 0.708966 0.250000
O O4 0.113635 0.000000 0.250000
O O5 0.787043 0.546594 0.059522
O O6 0.895124 0.848541 0.051687
O O7 0.000000 0.500000 0.052048
O O8 0.936997 0.672611 0.122898
O O9 0.636843 0.367469 0.500000
O O10 0.608063 0.327405 0.407864
O O11 0.000000 0.000000 0.652375
#
# Coordination Sequence:
#
# PCOD9528845 Si02
#       4
#    16  16  16  16
#     4  11  25  47  76 112 154 199 256 319 387 464
#     4  11  25  44  69 103 143 194 251 304 386 449
#     4  11  25  42  68 104 144 192 247 313 376 453
#     4  10  23  46  73 102 148 194 246 312 379 454
#
# _framework density 25.100180000000002
#
# number of rings (size 3 to 8) (size 9 to 14) (size 15 to 20)
#    0.000    1.250    2.500    2.250    3.500   10.000 
#    0.000    0.000    0.000    0.000    0.000    0.000 
#    0.000    0.000    0.000    0.000    0.000    0.000 
#
# Total GULP energy -178616.447399 kJ/mol
# GULP energy per Si atom -5581.763981 kJ/mol
# Density = 2.504305 g / cm^3
# Si number density = 25.100180 Si / 1000 Ang^3
#
#
#
# Elastic Constant Matrix: (Units=GPa)
#
#
# Indices 1 2 3 4 5 6 
#
# 1 223.2018 23.8284 104.1184 0.0000 0.0000 0.0000
# 2 23.8284 74.3557 38.4584 0.0000 0.0000 0.0000
# 3 104.1184 38.4584 215.7032 0.0000 0.0000 0.0000
# 4 0.0000 0.0000 0.0000 7.1382 0.0000 0.0000
# 5 0.0000 0.0000 0.0000 0.0000-1499.9613 0.0000
# 6 0.0000 0.0000 0.0000 0.0000 0.0000 23.5726
#
#
#
# Elastic Compliance Matrix: (Units=1/GPa)
#
#
# Indices 1 2 3 4 5 6 
#
# 1 0.005796 -0.000452 -0.002717 0.000000 0.000000 0.000000
# 2 -0.000452 0.014850 -0.002429 0.000000 0.000000 0.000000
# 3 -0.002717 -0.002429 0.006381 0.000000 0.000000 0.000000
# 4 0.000000 0.000000 0.000000 0.140092 0.000000 0.000000
# 5 0.000000 0.000000 0.000000 0.000000 -0.000667 0.000000
# 6 0.000000 0.000000 0.000000 0.000000 0.000000 0.042422
#
#
# Mechanical properties :
#
#
# Convention : Reuss Voigt Hill
#
# Bulk Modulus (GPa) = 63.17247 94.00791 78.59019
# Shear Modulus (GPa) = 22.18791 -270.72642 -124.26925
#
# Velocity S-wave (km/s) = 2.97640 -10.39675 -7.04392
# Velocity P-wave (km/s) = 6.08561 10.32419 5.89721
#
# Compressibility (1/GPa) = 0.01582968
#
# Stress axis : x y z
#
# Youngs Moduli (GPa) = 172.53395 67.33856 156.72338
#
# Poissons Ratio (x) = 0.03044 0.42583
# Poissons Ratio (y) = 0.07800 0.38076
# Poissons Ratio (z) = 0.46879 0.16360
#
# Static dielectric constant tensor:
#      x y z
#    x 2.058640 0.000000 0.000000 
#    y 0.000000 2.073840 0.000000 
#    z 0.000000 0.000000 1.980790 
# 
# From -- ./inp_files/51133.got.cif
#   From: 2010.05.17/outbox.cif.g08.bks.cpg/sg72_26_cif.got.tgz:51133.got - 2010.06.03 17:03:01.
