data_PCOD9528251
_publ_section_title
;
Structure prediction by ZEFSAII (Michael W. Deem and Ramdas Pophale) SiO2 
 PCOD9528251
Probable space group: I B A M
;
_chemical_formula_sum "Si O2"
_cell_formula_units_Z 104
_cell_length_a 9.747102
_cell_length_b 20.502868
_cell_length_c 25.930394
_cell_angle_alpha 90.000000
_cell_angle_beta 90.000000
_cell_angle_gamma 90.000000
_cell_volume 5182.021878
_symmetry_space_group_name_H-M "I B A M"
_symmetry_group_IT_number 72
_symmetry_cell_setting 'orthorhombic'
loop_
_space_group_symop_operation_xyz
x,y,z
-x,-y,z
x,-y,1/2-z
-x,y,1/2-z
-x,-y,-z
x,y,-z
-x,y,1/2+z
x,-y,1/2+z
1/2+x,1/2+y,1/2+z
1/2-x,1/2-y,1/2+z
1/2+x,1/2-y,-z
1/2-x,1/2+y,-z
1/2-x,1/2-y,1/2-z
1/2+x,1/2+y,1/2-z
1/2-x,1/2+y,z
1/2+x,1/2-y,z
loop_
_atom_site_type_symbol
_atom_site_label
_atom_site_fract_x
_atom_site_fract_y
_atom_site_fract_z
Si Si1 0.000802 0.121925 0.500000
Si Si2 0.773353 0.996452 0.692106
Si Si3 0.805085 0.569705 0.000000
Si Si4 0.205144 0.417574 0.500000
Si Si5 0.874785 0.669115 0.400616
Si Si6 0.059072 0.203527 0.102392
Si Si7 0.517812 0.608248 0.307055
Si Si8 0.072078 0.434287 0.107978
O O1 0.144622 0.085990 0.500000
O O2 0.869351 0.075873 0.500000
O O3 0.980400 0.165667 0.449569
O O4 0.677432 0.962957 0.649845
O O5 0.901612 0.947008 0.693428
O O6 0.712978 0.000000 0.750000
O O7 0.841010 0.067810 0.681776
O O8 0.835712 0.492604 0.000000
O O9 0.861911 0.595340 0.944658
O O10 0.157233 0.374520 0.451490
O O11 0.724995 0.700580 0.389171
O O12 0.985108 0.727212 0.403422
O O13 0.959523 0.614852 0.367919
O O14 0.999010 0.162383 0.149914
O O15 0.500000 0.637707 0.250000
O O16 0.000000 0.500000 0.090493
#
# Coordination Sequence:
#
# PCOD9528251 Si02
#       8
#     8  16   8   8  16  16  16  16
#     4  10  24  37  65  95 126 164 214 263 318 385
#     4   9  20  38  67  97 124 165 215 263 327 386
#     4  12  23  37  65  97 129 163 208 264 341 382
#     4  10  21  45  57  95 129 171 207 269 318 391
#     4  11  25  41  64  89 133 174 222 265 321 386
#     4  11  24  44  63  94 128 174 223 264 314 393
#     4   9  19  40  67  95 128 164 210 268 322 384
#     4  12  23  39  62  91 131 171 209 273 330 381
#
# _framework density 20.069388
#
# number of rings (size 3 to 8) (size 9 to 14) (size 15 to 20)
#    0.000    1.538    1.538    4.154    6.462    0.308 
#    0.000    0.769    3.385    0.000    0.000    0.000 
#    0.000    0.000    0.000    0.000    0.000    0.000 
#
# Total GULP energy -289593.432945 kJ/mol
# GULP energy per Si atom -5569.104480 kJ/mol
# Density = 2.002371 g / cm^3
# Si number density = 20.069388 Si / 1000 Ang^3
#
#
#
# Elastic Constant Matrix: (Units=GPa)
#
#
# Indices 1 2 3 4 5 6 
#
# 1 119.4974 36.7475 55.0495 0.0000 0.0000 0.0000
# 2 36.7475 87.5349 24.0580 0.0000 0.0000 0.0000
# 3 55.0495 24.0580 109.9089 0.0000 0.0000 0.0000
# 4 0.0000 0.0000 0.0000 10.7722 0.0000 0.0000
# 5 0.0000 0.0000 0.0000 0.0000 2.7827 0.0000
# 6 0.0000 0.0000 0.0000 0.0000 0.0000 35.8020
#
#
#
# Elastic Compliance Matrix: (Units=1/GPa)
#
#
# Indices 1 2 3 4 5 6 
#
# 1 0.011833 -0.003552 -0.005149 0.000000 0.000000 0.000000
# 2 -0.003552 0.013222 -0.001115 0.000000 0.000000 0.000000
# 3 -0.005149 -0.001115 0.011921 0.000000 0.000000 0.000000
# 4 0.000000 0.000000 0.000000 0.092832 0.000000 0.000000
# 5 0.000000 0.000000 0.000000 0.000000 0.359363 0.000000
# 6 0.000000 0.000000 0.000000 0.000000 0.000000 0.027931
#
#
# Mechanical properties :
#
#
# Convention : Reuss Voigt Hill
#
# Bulk Modulus (GPa) = 57.65859 60.96126 59.30992
# Shear Modulus (GPa) = 9.21632 23.27713 16.24673
#
# Velocity S-wave (km/s) = 2.14527 3.40933 2.84831
# Velocity P-wave (km/s) = 5.91001 6.77785 6.35875
#
# Compressibility (1/GPa) = 0.01734347
#
# Stress axis : x y z
#
# Youngs Moduli (GPa) = 84.51065 75.63328 83.88228
#
# Poissons Ratio (x) = 0.26867 0.43192
# Poissons Ratio (y) = 0.30021 0.09352
# Poissons Ratio (z) = 0.43515 0.08432
#
# Static dielectric constant tensor:
#      x y z
#    x 1.791680 0.000000 0.000000 
#    y 0.000000 1.692480 0.000000 
#    z 0.000000 0.000000 1.775980 
# 
# From -- ./inp_files/47459.got.cif
#   From: 2010.05.17/outbox.cif.g08.bks.cpg/sg72_24_cif.got.tgz:47459.got - 2010.06.03 17:03:01.
