data_PCOD9528573
_publ_section_title
;
Structure prediction by ZEFSAII (Michael W. Deem and Ramdas Pophale) SiO2 
 PCOD9528573
Probable space group: I B A M
;
_chemical_formula_sum "Si O2"
_cell_formula_units_Z 68
_cell_length_a 21.502741
_cell_length_b 9.793378
_cell_length_c 14.545396
_cell_angle_alpha 90.000000
_cell_angle_beta 90.000000
_cell_angle_gamma 90.000000
_cell_volume 3063.034517
_symmetry_space_group_name_H-M "I B A M"
_symmetry_group_IT_number 72
_symmetry_cell_setting 'orthorhombic'
loop_
_space_group_symop_operation_xyz
x,y,z
-x,-y,z
x,-y,1/2-z
-x,y,1/2-z
-x,-y,-z
x,y,-z
-x,y,1/2+z
x,-y,1/2+z
1/2+x,1/2+y,1/2+z
1/2-x,1/2-y,1/2+z
1/2+x,1/2-y,-z
1/2-x,1/2+y,-z
1/2-x,1/2-y,1/2-z
1/2+x,1/2+y,1/2-z
1/2-x,1/2+y,z
1/2+x,1/2-y,z
loop_
_atom_site_type_symbol
_atom_site_label
_atom_site_fract_x
_atom_site_fract_y
_atom_site_fract_z
Si Si1 0.324057 0.180103 0.389091
Si Si2 0.427440 0.163491 0.253957
Si Si3 0.735674 0.548382 0.391360
Si Si4 0.000000 0.000000 0.000000
Si Si5 0.396564 0.419874 0.845778
O O1 0.327188 0.183496 0.500000
O O2 0.391796 0.203125 0.347246
O O3 0.279341 0.301709 0.355288
O O4 0.293559 0.038820 0.356786
O O5 0.500000 0.198411 0.250000
O O6 0.397511 0.257602 0.175297
O O7 0.422674 0.000000 0.250000
O O8 0.746080 0.563256 0.500000
O O9 0.672216 0.464341 0.376804
O O10 0.052020 0.960440 0.919842
O O11 0.409092 0.500000 0.750000
#
# Coordination Sequence:
#
# PCOD9528573 Si02
#       5
#    16  16  16   4  16
#     4  10  23  44  72 102 146 189 240 303 368 438
#     4  11  26  47  65 100 144 187 244 298 367 446
#     4  10  22  42  68 107 140 184 240 298 370 434
#     4  12  26  44  76 108 148 188 250 324 362 436
#     4  12  24  44  74 105 142 191 247 304 372 438
#
# _framework density 22.200206999999999
#
# number of rings (size 3 to 8) (size 9 to 14) (size 15 to 20)
#    0.000    1.176    3.529    1.765    3.294    1.882 
#    2.118    1.176    0.000    0.000    0.000    0.000 
#    0.000    0.000    0.000    0.000    0.000    0.000 
#
# Total GULP energy -189527.116994 kJ/mol
# GULP energy per Si atom -5574.326970 kJ/mol
# Density = 2.214968 g / cm^3
# Si number density = 22.200207 Si / 1000 Ang^3
#
#
#
# Elastic Constant Matrix: (Units=GPa)
#
#
# Indices 1 2 3 4 5 6 
#
# 1 105.7304 16.2341 28.1042 0.0000 0.0000 0.0000
# 2 16.2341 85.8640 16.6562 0.0000 0.0000 0.0000
# 3 28.1042 16.6562 41.6069 0.0000 0.0000 0.0000
# 4 0.0000 0.0000 0.0000 23.9229 0.0000 0.0000
# 5 0.0000 0.0000 0.0000 0.0000 39.4686 0.0000
# 6 0.0000 0.0000 0.0000 0.0000 0.0000 -13.2644
#
#
#
# Elastic Compliance Matrix: (Units=1/GPa)
#
#
# Indices 1 2 3 4 5 6 
#
# 1 0.011570 -0.000728 -0.007523 0.000000 0.000000 0.000000
# 2 -0.000728 0.012673 -0.004581 0.000000 0.000000 0.000000
# 3 -0.007523 -0.004581 0.030950 0.000000 0.000000 0.000000
# 4 0.000000 0.000000 0.000000 0.041801 0.000000 0.000000
# 5 0.000000 0.000000 0.000000 0.000000 0.025337 0.000000
# 6 0.000000 0.000000 0.000000 0.000000 0.000000 -0.075390
#
#
# Mechanical properties :
#
#
# Convention : Reuss Voigt Hill
#
# Bulk Modulus (GPa) = 33.86742 39.46557 36.66650
# Shear Modulus (GPa) = 60.64385 21.50588 41.07486
#
# Velocity S-wave (km/s) = 5.23222 3.11581 4.30606
# Velocity P-wave (km/s) = 7.19653 5.54618 6.42457
#
# Compressibility (1/GPa) = 0.02952690
#
# Stress axis : x y z
#
# Youngs Moduli (GPa) = 86.43325 78.90988 32.30973
#
# Poissons Ratio (x) = 0.05745 0.24308
# Poissons Ratio (y) = 0.06292 0.14802
# Poissons Ratio (z) = 0.65028 0.36152
#
# Static dielectric constant tensor:
#      x y z
#    x 1.781010 0.000000 0.000000 
#    y 0.000000 1.879590 0.000000 
#    z 0.000000 0.000000 1.796620 
# 
# From -- ./inp_files/32269.got.cif
#   From: 2010.05.17/outbox.cif.g08.bks.cpg/sg72_17_cif.got.tgz:32269.got - 2010.06.03 17:03:01.
