data_PCOD9528548
_publ_section_title
;
Structure prediction by ZEFSAII (Michael W. Deem and Ramdas Pophale) SiO2 
 PCOD9528548
Probable space group: I B A M
;
_chemical_formula_sum "Si O2"
_cell_formula_units_Z 96
_cell_length_a 23.410331
_cell_length_b 11.485384
_cell_length_c 17.054160
_cell_angle_alpha 90.000000
_cell_angle_beta 90.000000
_cell_angle_gamma 90.000000
_cell_volume 4585.465258
_symmetry_space_group_name_H-M "I B A M"
_symmetry_group_IT_number 72
_symmetry_cell_setting 'orthorhombic'
loop_
_space_group_symop_operation_xyz
x,y,z
-x,-y,z
x,-y,1/2-z
-x,y,1/2-z
-x,-y,-z
x,y,-z
-x,y,1/2+z
x,-y,1/2+z
1/2+x,1/2+y,1/2+z
1/2-x,1/2-y,1/2+z
1/2+x,1/2-y,-z
1/2-x,1/2+y,-z
1/2-x,1/2-y,1/2-z
1/2+x,1/2+y,1/2-z
1/2-x,1/2+y,z
1/2+x,1/2-y,z
loop_
_atom_site_type_symbol
_atom_site_label
_atom_site_fract_x
_atom_site_fract_y
_atom_site_fract_z
Si Si1 0.262198 0.126153 0.205989
Si Si2 0.558740 0.444995 0.337359
Si Si3 0.618541 0.041433 0.666737
Si Si4 0.399246 0.819746 0.907256
Si Si5 0.530396 0.796210 0.092735
Si Si6 0.158328 0.917647 0.593375
O O1 0.250000 0.250000 0.250000
O O2 0.328251 0.125926 0.180109
O O3 0.218133 0.107000 0.134927
O O4 0.256259 0.000000 0.250000
O O5 0.500000 0.500000 0.373426
O O6 0.561960 0.500000 0.250000
O O7 0.548431 0.308361 0.349488
O O8 0.618724 0.476232 0.378199
O O9 0.573061 0.098988 0.609837
O O10 0.593503 0.000000 0.750000
O O11 0.638805 0.920018 0.629717
O O12 0.465852 0.833192 0.888526
O O13 0.380147 0.692844 0.882184
O O14 0.393191 0.826032 0.000000
O O15 0.532475 0.762003 0.000000
O O16 0.164702 0.922626 0.500000
#
# Coordination Sequence:
#
# PCOD9528548 Si02
#       6
#    16  16  16  16  16  16
#     4  11  26  48  70  94 135 180 229 295 346 404
#     4  11  24  39  65  98 136 176 221 276 338 409
#     4  11  25  41  67  95 128 174 227 278 334 408
#     4  10  22  42  65  94 138 174 208 271 345 406
#     4  11  24  42  66  99 138 176 218 273 342 415
#     4  11  23  41  69  97 132 177 223 277 340 409
#
# _framework density 20.935715999999999
#
# number of rings (size 3 to 8) (size 9 to 14) (size 15 to 20)
#    0.000    1.167    1.667    4.000    7.000    4.667 
#    0.000    0.833    0.000    0.000    0.000    0.000 
#    0.000    0.000    0.000    0.000    0.000    0.000 
#
# Total GULP energy -267869.445978 kJ/mol
# GULP energy per Si atom -5580.613458 kJ/mol
# Density = 2.088807 g / cm^3
# Si number density = 20.935716 Si / 1000 Ang^3
#
#
#
# Elastic Constant Matrix: (Units=GPa)
#
#
# Indices 1 2 3 4 5 6 
#
# 1 52.0040 3.6946 41.4958 0.0000 0.0000 0.0000
# 2 3.6946 82.9220 17.6463 0.0000 0.0000 0.0000
# 3 41.4958 17.6463 54.6626 0.0000 0.0000 0.0000
# 4 0.0000 0.0000 0.0000 30.4831 0.0000 0.0000
# 5 0.0000 0.0000 0.0000 0.0000 44.4649 0.0000
# 6 0.0000 0.0000 0.0000 0.0000 0.0000 31.5518
#
#
#
# Elastic Compliance Matrix: (Units=1/GPa)
#
#
# Indices 1 2 3 4 5 6 
#
# 1 0.051854 0.006514 -0.041467 0.000000 0.000000 0.000000
# 2 0.006514 0.013767 -0.009389 0.000000 0.000000 0.000000
# 3 -0.041467 -0.009389 0.052804 0.000000 0.000000 0.000000
# 4 0.000000 0.000000 0.000000 0.032805 0.000000 0.000000
# 5 0.000000 0.000000 0.000000 0.000000 0.022490 0.000000
# 6 0.000000 0.000000 0.000000 0.000000 0.000000 0.031694
#
#
# Mechanical properties :
#
#
# Convention : Reuss Voigt Hill
#
# Bulk Modulus (GPa) = 33.62360 35.02912 34.32636
# Shear Modulus (GPa) = 16.44674 29.75010 23.09842
#
# Velocity S-wave (km/s) = 2.80587 3.77373 3.32520
# Velocity P-wave (km/s) = 5.15679 5.97965 5.58340
#
# Compressibility (1/GPa) = 0.02974102
#
# Stress axis : x y z
#
# Youngs Moduli (GPa) = 19.28485 72.63526 18.93810
#
# Poissons Ratio (x) = -0.47315 0.78530
# Poissons Ratio (y) = -0.12562 0.17782
# Poissons Ratio (z) = 0.79968 0.68200
#
# Static dielectric constant tensor:
#      x y z
#    x 1.765520 0.000000 0.000000 
#    y 0.000000 -2.899530 0.000000 
#    z 0.000000 0.000000 1.823760 
# 
# From -- ./inp_files/33294.got.cif
#   From: 2010.05.17/outbox.cif.g08.bks.cpg/sg72_17_cif.got.tgz:33294.got - 2010.06.03 17:03:01.
