data_PCOD9528729
_publ_section_title
;
Structure prediction by ZEFSAII (Michael W. Deem and Ramdas Pophale) SiO2 
 PCOD9528729
Probable space group: I B A M
;
_chemical_formula_sum "Si O2"
_cell_formula_units_Z 64
_cell_length_a 13.741234
_cell_length_b 8.554560
_cell_length_c 23.479214
_cell_angle_alpha 90.000000
_cell_angle_beta 90.000000
_cell_angle_gamma 90.000000
_cell_volume 2759.986553
_symmetry_space_group_name_H-M "I B A M"
_symmetry_group_IT_number 72
_symmetry_cell_setting 'orthorhombic'
loop_
_space_group_symop_operation_xyz
x,y,z
-x,-y,z
x,-y,1/2-z
-x,y,1/2-z
-x,-y,-z
x,y,-z
-x,y,1/2+z
x,-y,1/2+z
1/2+x,1/2+y,1/2+z
1/2-x,1/2-y,1/2+z
1/2+x,1/2-y,-z
1/2-x,1/2+y,-z
1/2-x,1/2-y,1/2-z
1/2+x,1/2+y,1/2-z
1/2-x,1/2+y,z
1/2+x,1/2-y,z
loop_
_atom_site_type_symbol
_atom_site_label
_atom_site_fract_x
_atom_site_fract_y
_atom_site_fract_z
Si Si1 0.225925 0.990411 0.683362
Si Si2 0.368124 0.193583 0.373448
Si Si3 0.128615 0.350015 0.000000
Si Si4 0.395378 0.796835 0.500000
Si Si5 0.935139 0.156214 0.115886
O O1 0.322072 0.032204 0.647549
O O2 0.142134 0.113456 0.664131
O O3 0.244572 0.000000 0.750000
O O4 0.181462 0.825332 0.665134
O O5 0.341502 0.221008 0.439733
O O6 0.484336 0.213479 0.368972
O O7 0.153870 0.533852 0.000000
O O8 0.011581 0.331327 0.000000
O O9 0.380652 0.701291 0.557774
O O10 0.000000 0.000000 0.105345
#
# Coordination Sequence:
#
# PCOD9528729 Si02
#       5
#    16  16   8   8  16
#     4  11  24  43  65  92 133 174 220 270 318 395
#     4  10  23  41  64  94 131 169 218 271 330 389
#     4   9  20  37  61  94 132 164 210 273 334 384
#     4   9  17  35  63  92 129 164 216 272 318 392
#     4   9  20  38  65  94 130 174 215 266 341 389
#
# _framework density 23.18852
#
# number of rings (size 3 to 8) (size 9 to 14) (size 15 to 20)
#    0.000    2.250    0.000    1.125    3.500    9.500 
#    0.000    0.000    0.000    0.000    0.000    0.000 
#    0.000    0.000    0.000    0.000    0.000    0.000 
#
# Total GULP energy -178969.912388 kJ/mol
# GULP energy per Si atom -5592.809762 kJ/mol
# Density = 2.313574 g / cm^3
# Si number density = 23.188520 Si / 1000 Ang^3
#
#
#
# Elastic Constant Matrix: (Units=GPa)
#
#
# Indices 1 2 3 4 5 6 
#
# 1 97.2681 14.5899 1.2329 0.0000 0.0000 0.0000
# 2 14.5899 15.8629 7.7901 0.0000 0.0000 0.0000
# 3 1.2329 7.7901 125.3510 0.0000 0.0000 0.0000
# 4 0.0000 0.0000 0.0000 7.3218 0.0000 0.0000
# 5 0.0000 0.0000 0.0000 0.0000 4.7590 0.0000
# 6 0.0000 0.0000 0.0000 0.0000 0.0000 34.7986
#
#
#
# Elastic Compliance Matrix: (Units=1/GPa)
#
#
# Indices 1 2 3 4 5 6 
#
# 1 0.011968 -0.011294 0.000584 0.000000 0.000000 0.000000
# 2 -0.011294 0.075683 -0.004592 0.000000 0.000000 0.000000
# 3 0.000584 -0.004592 0.008257 0.000000 0.000000 0.000000
# 4 0.000000 0.000000 0.000000 0.136578 0.000000 0.000000
# 5 0.000000 0.000000 0.000000 0.000000 0.210127 0.000000
# 6 0.000000 0.000000 0.000000 0.000000 0.000000 0.028737
#
#
# Mechanical properties :
#
#
# Convention : Reuss Voigt Hill
#
# Bulk Modulus (GPa) = 15.31315 31.74533 23.52924
# Shear Modulus (GPa) = 9.54706 23.70050 16.62378
#
# Velocity S-wave (km/s) = 2.03128 3.20047 2.68040
# Velocity P-wave (km/s) = 3.48131 5.23232 4.44391
#
# Compressibility (1/GPa) = 0.06530333
#
# Stress axis : x y z
#
# Youngs Moduli (GPa) = 83.55955 13.21304 121.10571
#
# Poissons Ratio (x) = 0.14923 -0.07075
# Poissons Ratio (y) = 0.94372 0.55616
# Poissons Ratio (z) = -0.04881 0.06068
#
# Static dielectric constant tensor:
#      x y z
#    x 1.896950 0.000000 0.000000 
#    y 0.000000 1.925220 0.000000 
#    z 0.000000 0.000000 1.792330 
# 
# From -- ./inp_files/41950.got.cif
#   From: 2010.05.17/outbox.cif.g08.bks.cpg/sg72_21_cif.got.tgz:41950.got - 2010.06.03 17:03:01.
