data_PCOD9528054
_publ_section_title
;
Structure prediction by ZEFSAII (Michael W. Deem and Ramdas Pophale) SiO2 
 PCOD9528054
Probable space group: I B A M
;
_chemical_formula_sum "Si O2"
_cell_formula_units_Z 84
_cell_length_a 10.296749
_cell_length_b 24.100567
_cell_length_c 15.266241
_cell_angle_alpha 90.000000
_cell_angle_beta 90.000000
_cell_angle_gamma 90.000000
_cell_volume 3788.432035
_symmetry_space_group_name_H-M "I B A M"
_symmetry_group_IT_number 72
_symmetry_cell_setting 'orthorhombic'
loop_
_space_group_symop_operation_xyz
x,y,z
-x,-y,z
x,-y,1/2-z
-x,y,1/2-z
-x,-y,-z
x,y,-z
-x,y,1/2+z
x,-y,1/2+z
1/2+x,1/2+y,1/2+z
1/2-x,1/2-y,1/2+z
1/2+x,1/2-y,-z
1/2-x,1/2+y,-z
1/2-x,1/2-y,1/2-z
1/2+x,1/2+y,1/2-z
1/2-x,1/2+y,z
1/2+x,1/2-y,z
loop_
_atom_site_type_symbol
_atom_site_label
_atom_site_fract_x
_atom_site_fract_y
_atom_site_fract_z
Si Si1 0.460262 0.082109 0.098092
Si Si2 0.000000 0.000000 0.250000
Si Si3 0.119937 0.809654 0.816208
Si Si4 0.800941 0.478633 0.346715
Si Si5 0.959079 0.078611 0.097548
Si Si6 0.632780 0.814273 0.194772
O O1 0.582038 0.065882 0.159448
O O2 0.385507 0.136776 0.126286
O O3 0.363072 0.030433 0.103972
O O4 0.512531 0.087240 0.000000
O O5 0.038225 0.952221 0.324802
O O6 0.075126 0.857299 0.882632
O O7 0.246929 0.825532 0.759663
O O8 0.148032 0.746868 0.848013
O O9 0.000000 0.805499 0.750000
O O10 0.762836 0.500000 0.250000
O O11 0.680182 0.451524 0.393941
O O12 0.013895 0.071692 0.000000
O O13 0.500000 0.813399 0.250000
#
# Coordination Sequence:
#
# PCOD9528054 Si02
#       6
#    16   4  16  16  16  16
#     4  11  21  34  57  95 129 157 208 262 319 387
#     4  12  26  44  60  88 124 164 218 270 330 382
#     4  10  22  42  63  90 124 168 217 261 320 386
#     4  11  21  37  60  89 127 166 206 257 324 390
#     4  12  24  41  65  90 124 169 219 267 321 390
#     4  10  21  39  65  89 123 170 211 262 325 379
#
# _framework density 22.172761999999999
#
# number of rings (size 3 to 8) (size 9 to 14) (size 15 to 20)
#    0.000    1.143    1.905    7.143    0.000    0.762 
#    0.000    0.952    0.000    6.857    0.000    0.000 
#    0.000    0.000    0.000    0.000    0.000    0.000 
#
# Total GULP energy -234504.926832 kJ/mol
# GULP energy per Si atom -5583.450639 kJ/mol
# Density = 2.212230 g / cm^3
# Si number density = 22.172762 Si / 1000 Ang^3
#
#
#
# Elastic Constant Matrix: (Units=GPa)
#
#
# Indices 1 2 3 4 5 6 
#
# 1 89.1954 10.0553 10.4904 0.0000 0.0000 0.0000
# 2 10.0553 149.2120 47.0330 0.0000 0.0000 0.0000
# 3 10.4904 47.0330 118.2300 0.0000 0.0000 0.0000
# 4 0.0000 0.0000 0.0000 5.1186 0.0000 0.0000
# 5 0.0000 0.0000 0.0000 0.0000 20.2774 0.0000
# 6 0.0000 0.0000 0.0000 0.0000 0.0000 28.2405
#
#
#
# Elastic Compliance Matrix: (Units=1/GPa)
#
#
# Indices 1 2 3 4 5 6 
#
# 1 0.011364 -0.000512 -0.000805 0.000000 0.000000 0.000000
# 2 -0.000512 0.007686 -0.003012 0.000000 0.000000 0.000000
# 3 -0.000805 -0.003012 0.009728 0.000000 0.000000 0.000000
# 4 0.000000 0.000000 0.000000 0.195368 0.000000 0.000000
# 5 0.000000 0.000000 0.000000 0.000000 0.049316 0.000000
# 6 0.000000 0.000000 0.000000 0.000000 0.000000 0.035410
#
#
# Mechanical properties :
#
#
# Convention : Reuss Voigt Hill
#
# Bulk Modulus (GPa) = 49.70261 54.64388 52.17325
# Shear Modulus (GPa) = 15.42092 29.99788 22.70940
#
# Velocity S-wave (km/s) = 2.64007 3.68219 3.20379
# Velocity P-wave (km/s) = 5.63543 6.54035 6.10468
#
# Compressibility (1/GPa) = 0.02011967
#
# Stress axis : x y z
#
# Youngs Moduli (GPa) = 87.99950 130.10988 102.79933
#
# Poissons Ratio (x) = 0.06664 0.08271
# Poissons Ratio (y) = 0.04507 0.30964
# Poissons Ratio (z) = 0.07080 0.39190
#
# Static dielectric constant tensor:
#      x y z
#    x 2.539210 0.000000 0.000000 
#    y 0.000000 1.860380 0.000000 
#    z 0.000000 0.000000 1.800450 
# 
# From -- ./inp_files/20322.got.cif
#   From: 2010.05.17/outbox.cif.g08.bks.cpg/sg72_11_cif.got.tgz:20322.got - 2010.06.03 17:03:01.
