data_PCOD9528041
_publ_section_title
;
Structure prediction by ZEFSAII (Michael W. Deem and Ramdas Pophale) SiO2 
 PCOD9528041
Probable space group: I B A M
;
_chemical_formula_sum "Si O2"
_cell_formula_units_Z 80
_cell_length_a 25.912391
_cell_length_b 8.724926
_cell_length_c 16.734314
_cell_angle_alpha 90.000000
_cell_angle_beta 90.000000
_cell_angle_gamma 90.000000
_cell_volume 3783.355525
_symmetry_space_group_name_H-M "I B A M"
_symmetry_group_IT_number 72
_symmetry_cell_setting 'orthorhombic'
loop_
_space_group_symop_operation_xyz
x,y,z
-x,-y,z
x,-y,1/2-z
-x,y,1/2-z
-x,-y,-z
x,y,-z
-x,y,1/2+z
x,-y,1/2+z
1/2+x,1/2+y,1/2+z
1/2-x,1/2-y,1/2+z
1/2+x,1/2-y,-z
1/2-x,1/2+y,-z
1/2-x,1/2-y,1/2-z
1/2+x,1/2+y,1/2-z
1/2-x,1/2+y,z
1/2+x,1/2-y,z
loop_
_atom_site_type_symbol
_atom_site_label
_atom_site_fract_x
_atom_site_fract_y
_atom_site_fract_z
Si Si1 0.048277 0.385981 0.908760
Si Si2 0.274752 0.723868 0.592234
Si Si3 0.307773 0.581645 0.165494
Si Si4 0.921451 0.839654 0.783073
Si Si5 0.632367 0.904846 0.172881
O O1 0.042717 0.251101 0.844304
O O2 0.098295 0.482854 0.881327
O O3 0.000000 0.500000 0.904232
O O4 0.053545 0.331949 0.000000
O O5 0.263872 0.755403 0.500000
O O6 0.292149 0.548788 0.602840
O O7 0.225527 0.769232 0.645656
O O8 0.321463 0.827784 0.625086
O O9 0.295637 0.500000 0.250000
O O10 0.367973 0.621726 0.170031
O O11 0.903984 0.727393 0.711162
O O12 0.941050 0.000000 0.750000
O O13 0.651427 0.000000 0.250000
#
# Coordination Sequence:
#
# PCOD9528041 Si02
#       5
#    16  16  16  16  16
#     4  10  23  43  68  98 132 166 205 262 333 394
#     4  12  24  37  57  90 126 167 218 267 320 377
#     4  11  23  40  60  84 126 172 215 266 315 381
#     4  10  21  42  67  93 125 167 219 264 318 377
#     4  10  21  39  64  89 124 170 214 262 316 384
#
# _framework density 21.145250000000001
#
# number of rings (size 3 to 8) (size 9 to 14) (size 15 to 20)
#    0.000    1.400    4.000    2.400    5.600    5.200 
#    0.000    2.000    0.000    2.400    0.000    0.000 
#    0.000    0.000    0.000    0.000    0.000    0.000 
#
# Total GULP energy -223764.097856 kJ/mol
# GULP energy per Si atom -5594.102446 kJ/mol
# Density = 2.109712 g / cm^3
# Si number density = 21.145250 Si / 1000 Ang^3
#
#
#
# Elastic Constant Matrix: (Units=GPa)
#
#
# Indices 1 2 3 4 5 6 
#
# 1 57.6145 2.4497 15.0636 0.0000 0.0000 0.0000
# 2 2.4497 92.7860 23.3177 0.0000 0.0000 0.0000
# 3 15.0636 23.3177 99.4460 0.0000 0.0000 0.0000
# 4 0.0000 0.0000 0.0000 39.9235 0.0000 0.0000
# 5 0.0000 0.0000 0.0000 0.0000 22.2905 0.0000
# 6 0.0000 0.0000 0.0000 0.0000 0.0000 23.9906
#
#
#
# Elastic Compliance Matrix: (Units=1/GPa)
#
#
# Indices 1 2 3 4 5 6 
#
# 1 0.018077 0.000224 -0.002791 0.000000 0.000000 0.000000
# 2 0.000224 0.011455 -0.002720 0.000000 0.000000 0.000000
# 3 -0.002791 -0.002720 0.011116 0.000000 0.000000 0.000000
# 4 0.000000 0.000000 0.000000 0.025048 0.000000 0.000000
# 5 0.000000 0.000000 0.000000 0.000000 0.044862 0.000000
# 6 0.000000 0.000000 0.000000 0.000000 0.000000 0.041683
#
#
# Mechanical properties :
#
#
# Convention : Reuss Voigt Hill
#
# Bulk Modulus (GPa) = 33.25017 36.83427 35.04222
# Shear Modulus (GPa) = 28.92859 31.17527 30.05193
#
# Velocity S-wave (km/s) = 3.70278 3.84388 3.77399
# Velocity P-wave (km/s) = 5.83434 6.09574 5.96647
#
# Compressibility (1/GPa) = 0.03007503
#
# Stress axis : x y z
#
# Youngs Moduli (GPa) = 55.31937 87.29737 89.95890
#
# Poissons Ratio (x) = -0.01956 0.25105
# Poissons Ratio (y) = -0.01240 0.24468
# Poissons Ratio (z) = 0.15438 0.23744
#
# Static dielectric constant tensor:
#      x y z
#    x 1.758620 0.000000 0.000000 
#    y 0.000000 1.786750 0.000000 
#    z 0.000000 0.000000 1.746880 
# 
# From -- ./inp_files/28115.got.cif
#   From: 2010.05.17/outbox.cif.g08.bks.cpg/sg72_15_cif.got.tgz:28115.got - 2010.06.03 17:03:01.
