data_PCOD9528657
_publ_section_title
;
Structure prediction by ZEFSAII (Michael W. Deem and Ramdas Pophale) SiO2 
 PCOD9528657
Probable space group: I B A M
;
_chemical_formula_sum "Si O2"
_cell_formula_units_Z 88
_cell_length_a 11.125796
_cell_length_b 13.985665
_cell_length_c 27.305701
_cell_angle_alpha 90.000000
_cell_angle_beta 90.000000
_cell_angle_gamma 90.000000
_cell_volume 4248.812286
_symmetry_space_group_name_H-M "I B A M"
_symmetry_group_IT_number 72
_symmetry_cell_setting 'orthorhombic'
loop_
_space_group_symop_operation_xyz
x,y,z
-x,-y,z
x,-y,1/2-z
-x,y,1/2-z
-x,-y,-z
x,y,-z
-x,y,1/2+z
x,-y,1/2+z
1/2+x,1/2+y,1/2+z
1/2-x,1/2-y,1/2+z
1/2+x,1/2-y,-z
1/2-x,1/2+y,-z
1/2-x,1/2-y,1/2-z
1/2+x,1/2+y,1/2-z
1/2-x,1/2+y,z
1/2+x,1/2-y,z
loop_
_atom_site_type_symbol
_atom_site_label
_atom_site_fract_x
_atom_site_fract_y
_atom_site_fract_z
Si Si1 0.874761 0.023032 0.089500
Si Si2 0.262442 0.822259 0.866331
Si Si3 0.500000 0.736272 0.250000
Si Si4 0.633710 0.631520 0.325612
Si Si5 0.189157 0.399398 0.760327
Si Si6 0.618474 0.938060 0.556186
O O1 0.855387 0.133620 0.106950
O O2 0.746077 0.005663 0.063134
O O3 0.881737 0.953013 0.136304
O O4 0.000000 0.000000 0.062644
O O5 0.284790 0.713452 0.851354
O O6 0.279444 0.883374 0.816765
O O7 0.366837 0.853597 0.904492
O O8 0.516391 0.678642 0.300467
O O9 0.612491 0.806942 0.245873
O O10 0.699574 0.597535 0.276385
O O11 0.126545 0.500000 0.750000
O O12 0.611719 0.905216 0.500000
O O13 0.500000 0.000000 0.566504
#
# Coordination Sequence:
#
# PCOD9528657 Si02
#       6
#    16  16   8  16  16  16
#     4  10  23  39  62  94 127 166 207 269 326 381
#     4   9  21  38  56  90 121 164 216 263 315 374
#     4  10  23  30  55  80 118 166 212 261 303 370
#     4  11  23  37  59  87 130 175 217 259 315 388
#     4  11  20  37  53  82 120 166 212 259 308 373
#     4   9  20  43  69  92 123 166 217 271 331 393
#
# _framework density 20.711670000000002
#
# number of rings (size 3 to 8) (size 9 to 14) (size 15 to 20)
#    1.091    0.909    1.818    2.455    5.091    6.182 
#    0.000    0.909    0.000    0.000    0.000    0.000 
#    0.000    0.000    0.000    0.000    0.000    0.000 
#
# Total GULP energy -244952.009219 kJ/mol
# GULP energy per Si atom -5567.091119 kJ/mol
# Density = 2.066453 g / cm^3
# Si number density = 20.711670 Si / 1000 Ang^3
#
#
#
# Elastic Constant Matrix: (Units=GPa)
#
#
# Indices 1 2 3 4 5 6 
#
# 1 97.9342 10.0221 12.3690 0.0000 0.0000 0.0000
# 2 10.0221 75.8184 19.6970 0.0000 0.0000 0.0000
# 3 12.3690 19.6970 78.7617 0.0000 0.0000 0.0000
# 4 0.0000 0.0000 0.0000 -25.8799 0.0000 0.0000
# 5 0.0000 0.0000 0.0000 0.0000 19.1198 0.0000
# 6 0.0000 0.0000 0.0000 0.0000 0.0000 -8.9389
#
#
#
# Elastic Compliance Matrix: (Units=1/GPa)
#
#
# Indices 1 2 3 4 5 6 
#
# 1 0.010492 -0.001025 -0.001391 0.000000 0.000000 0.000000
# 2 -0.001025 0.014206 -0.003392 0.000000 0.000000 0.000000
# 3 -0.001391 -0.003392 0.013763 0.000000 0.000000 0.000000
# 4 0.000000 0.000000 0.000000 -0.038640 0.000000 0.000000
# 5 0.000000 0.000000 0.000000 0.000000 0.052302 0.000000
# 6 0.000000 0.000000 0.000000 0.000000 0.000000 -0.111870
#
#
# Mechanical properties :
#
#
# Convention : Reuss Voigt Hill
#
# Bulk Modulus (GPa) = 37.25186 37.41007 37.33096
# Shear Modulus (GPa) = -127.60671 10.88860 -58.35906
#
# Velocity S-wave (km/s) = -7.85778 2.29535 -5.31395
# Velocity P-wave (km/s) = 8.01881 5.01262 4.42578
#
# Compressibility (1/GPa) = 0.02684430
#
# Stress axis : x y z
#
# Youngs Moduli (GPa) = 95.31456 70.39243 72.65752
#
# Poissons Ratio (x) = 0.07218 0.10108
# Poissons Ratio (y) = 0.09774 0.24643
# Poissons Ratio (z) = 0.13260 0.23875
#
# Static dielectric constant tensor:
#      x y z
#    x 1.868070 0.000000 0.000000 
#    y 0.000000 1.911510 0.000000 
#    z 0.000000 0.000000 1.707940 
# 
# From -- ./inp_files/51383.got.cif
#   From: 2010.05.17/outbox.cif.g08.bks.cpg/sg72_26_cif.got.tgz:51383.got - 2010.06.03 17:03:01.
