data_PCOD9528347
_publ_section_title
;
Structure prediction by ZEFSAII (Michael W. Deem and Ramdas Pophale) SiO2 
 PCOD9528347
Probable space group: I B A M
;
_chemical_formula_sum "Si O2"
_cell_formula_units_Z 80
_cell_length_a 25.701616
_cell_length_b 11.105141
_cell_length_c 14.498242
_cell_angle_alpha 90.000000
_cell_angle_beta 90.000000
_cell_angle_gamma 90.000000
_cell_volume 4138.089241
_symmetry_space_group_name_H-M "I B A M"
_symmetry_group_IT_number 72
_symmetry_cell_setting 'orthorhombic'
loop_
_space_group_symop_operation_xyz
x,y,z
-x,-y,z
x,-y,1/2-z
-x,y,1/2-z
-x,-y,-z
x,y,-z
-x,y,1/2+z
x,-y,1/2+z
1/2+x,1/2+y,1/2+z
1/2-x,1/2-y,1/2+z
1/2+x,1/2-y,-z
1/2-x,1/2+y,-z
1/2-x,1/2-y,1/2-z
1/2+x,1/2+y,1/2-z
1/2-x,1/2+y,z
1/2+x,1/2-y,z
loop_
_atom_site_type_symbol
_atom_site_label
_atom_site_fract_x
_atom_site_fract_y
_atom_site_fract_z
Si Si1 0.047662 0.329971 0.000000
Si Si2 0.940120 0.024212 0.889504
Si Si3 0.429342 0.889725 0.500000
Si Si4 0.624319 0.256542 0.352194
Si Si5 0.121239 0.203440 0.147860
Si Si6 0.791523 0.852644 0.000000
Si Si7 0.796021 0.857030 0.500000
O O1 0.057563 0.471362 0.000000
O O2 0.077611 0.273863 0.912012
O O3 0.984784 0.317156 0.000000
O O4 0.904633 0.926856 0.839700
O O5 0.925061 0.155623 0.857745
O O6 0.929947 0.012807 0.000000
O O7 0.000000 0.000000 0.873535
O O8 0.393964 0.856649 0.411939
O O9 0.635283 0.236791 0.245189
O O10 0.668538 0.328042 0.409774
O O11 0.172271 0.179147 0.087399
O O12 0.746210 0.751569 0.000000
O O13 0.780124 0.999289 0.000000
#
# Coordination Sequence:
#
# PCOD9528347 Si02
#       7
#     8  16   8  16  16   8   8
#     4  10  22  39  57  85 130 174 206 242 295 368
#     4  11  19  33  61  96 129 159 192 241 307 370
#     4  10  22  39  57  85 130 174 206 242 295 368
#     4  11  22  39  63  90 121 157 204 256 309 371
#     4  11  22  39  63  90 121 157 204 256 309 371
#     4  11  24  44  65  89 122 164 211 271 332 384
#     4  11  24  44  65  89 122 164 211 271 332 384
#
# _framework density 19.332594
#
# number of rings (size 3 to 8) (size 9 to 14) (size 15 to 20)
#    0.000    1.200    6.000    1.800    0.000    8.800 
#    0.000    2.000    0.000    0.000    0.000    0.000 
#    0.000    0.000    0.000    0.000    0.000    0.000 
#
# Total GULP energy -223115.277820 kJ/mol
# GULP energy per Si atom -5577.881946 kJ/mol
# Density = 1.928859 g / cm^3
# Si number density = 19.332594 Si / 1000 Ang^3
#
#
#
# Elastic Constant Matrix: (Units=GPa)
#
#
# Indices 1 2 3 4 5 6 
#
# 1 66.7549 26.1827 29.8596 0.0000 0.0000 0.0000
# 2 26.1827 84.6007 27.2347 0.0000 0.0000 0.0000
# 3 29.8596 27.2347 143.1881 0.0000 0.0000 0.0000
# 4 0.0000 0.0000 0.0000 12.4446 0.0000 0.0000
# 5 0.0000 0.0000 0.0000 0.0000 1589.1374 0.0000
# 6 0.0000 0.0000 0.0000 0.0000 0.0000 33.0053
#
#
#
# Elastic Compliance Matrix: (Units=1/GPa)
#
#
# Indices 1 2 3 4 5 6 
#
# 1 0.018104 -0.004674 -0.002886 0.000000 0.000000 0.000000
# 2 -0.004674 0.013798 -0.001650 0.000000 0.000000 0.000000
# 3 -0.002886 -0.001650 0.007900 0.000000 0.000000 0.000000
# 4 0.000000 0.000000 0.000000 0.080356 0.000000 0.000000
# 5 0.000000 0.000000 0.000000 0.000000 0.000629 0.000000
# 6 0.000000 0.000000 0.000000 0.000000 0.000000 0.030298
#
#
# Mechanical properties :
#
#
# Convention : Reuss Voigt Hill
#
# Bulk Modulus (GPa) = 46.76879 51.23307 49.00093
# Shear Modulus (GPa) = 28.30739 341.00193 184.65466
#
# Velocity S-wave (km/s) = 3.83068 13.29549 9.78376
# Velocity P-wave (km/s) = 6.61889 16.19419 12.37056
#
# Compressibility (1/GPa) = 0.02138178
#
# Stress axis : x y z
#
# Youngs Moduli (GPa) = 55.23503 72.47527 126.59005
#
# Poissons Ratio (x) = 0.33874 0.36539
# Poissons Ratio (y) = 0.25816 0.20884
# Poissons Ratio (z) = 0.15943 0.11956
#
# Static dielectric constant tensor:
#      x y z
#    x 1.684960 0.000000 0.000000 
#    y 0.000000 1.672430 0.000000 
#    z 0.000000 0.000000 1.760330 
# 
# From -- ./inp_files/24972.got.cif
#   From: 2010.05.17/outbox.cif.g08.bks.cpg/sg72_13_cif.got.tgz:24972.got - 2010.06.03 17:03:01.
