data_PCOD9528412
_publ_section_title
;
Structure prediction by ZEFSAII (Michael W. Deem and Ramdas Pophale) SiO2 
 PCOD9528412
Probable space group: I B A M
;
_chemical_formula_sum "Si O2"
_cell_formula_units_Z 112
_cell_length_a 26.701666
_cell_length_b 11.467971
_cell_length_c 16.684621
_cell_angle_alpha 90.000000
_cell_angle_beta 90.000000
_cell_angle_gamma 90.000000
_cell_volume 5109.063389
_symmetry_space_group_name_H-M "I B A M"
_symmetry_group_IT_number 72
_symmetry_cell_setting 'orthorhombic'
loop_
_space_group_symop_operation_xyz
x,y,z
-x,-y,z
x,-y,1/2-z
-x,y,1/2-z
-x,-y,-z
x,y,-z
-x,y,1/2+z
x,-y,1/2+z
1/2+x,1/2+y,1/2+z
1/2-x,1/2-y,1/2+z
1/2+x,1/2-y,-z
1/2-x,1/2+y,-z
1/2-x,1/2-y,1/2-z
1/2+x,1/2+y,1/2-z
1/2-x,1/2+y,z
1/2+x,1/2-y,z
loop_
_atom_site_type_symbol
_atom_site_label
_atom_site_fract_x
_atom_site_fract_y
_atom_site_fract_z
Si Si1 0.552388 0.230346 0.795476
Si Si2 0.947701 0.066093 0.410696
Si Si3 0.634711 0.171516 0.589913
Si Si4 0.440852 0.024019 0.594832
Si Si5 0.617423 0.383168 0.326276
Si Si6 0.754183 0.297371 0.096451
Si Si7 0.731522 0.455869 0.667361
O O1 0.500000 0.209661 0.750000
O O2 0.540642 0.310456 0.872284
O O3 0.573774 0.116970 0.838050
O O4 0.591055 0.300585 0.739229
O O5 0.925706 0.074188 0.500000
O O6 0.913331 0.997224 0.347941
O O7 0.000000 0.000000 0.415094
O O8 0.644436 0.132763 0.500000
O O9 0.616270 0.303419 0.594370
O O10 0.689453 0.173440 0.627868
O O11 0.590820 0.089289 0.618396
O O12 0.431467 0.054586 0.500000
O O13 0.500000 0.000000 0.600602
O O14 0.674889 0.414948 0.312208
O O15 0.727286 0.422144 0.116328
O O16 0.743612 0.164890 0.131604
O O17 0.753041 0.282177 0.000000
O O18 0.755901 0.500000 0.750000
#
# Coordination Sequence:
#
# PCOD9528412 Si02
#       7
#    16  16  16  16  16  16  16
#     4  12  23  38  59  87 128 164 209 260 317 384
#     4  11  23  38  58  84 117 163 210 253 307 375
#     4   9  20  41  64  90 123 165 212 259 318 389
#     4  10  22  40  62  89 124 166 215 270 320 379
#     4  11  23  40  65  93 127 167 210 258 325 386
#     4  10  22  43  71  97 130 175 223 276 336 400
#     4  11  23  44  68 100 136 171 219 278 340 405
#
# _framework density 21.921827
#
# number of rings (size 3 to 8) (size 9 to 14) (size 15 to 20)
#    0.000    1.429    1.429    3.857    0.000    3.714 
#   10.286    0.000    0.000    0.000    0.000    0.000 
#    0.000    0.000    0.000    0.000    0.000    0.000 
#
# Total GULP energy -311905.474017 kJ/mol
# GULP energy per Si atom -5569.740607 kJ/mol
# Density = 2.187193 g / cm^3
# Si number density = 21.921827 Si / 1000 Ang^3
#
#
#
# Elastic Constant Matrix: (Units=GPa)
#
#
# Indices 1 2 3 4 5 6 
#
# 1 40.2563 21.6730 8.4635 0.0000 0.0000 0.0000
# 2 21.6730 128.8593 49.1577 0.0000 0.0000 0.0000
# 3 8.4635 49.1577 96.4844 0.0000 0.0000 0.0000
# 4 0.0000 0.0000 0.0000 40.4871 0.0000 0.0000
# 5 0.0000 0.0000 0.0000 0.0000 13.4124 0.0000
# 6 0.0000 0.0000 0.0000 0.0000 0.0000 29.0179
#
#
#
# Elastic Compliance Matrix: (Units=1/GPa)
#
#
# Indices 1 2 3 4 5 6 
#
# 1 0.027314 -0.004568 -0.000069 0.000000 0.000000 0.000000
# 2 -0.004568 0.010396 -0.004896 0.000000 0.000000 0.000000
# 3 -0.000069 -0.004896 0.012865 0.000000 0.000000 0.000000
# 4 0.000000 0.000000 0.000000 0.024699 0.000000 0.000000
# 5 0.000000 0.000000 0.000000 0.000000 0.074558 0.000000
# 6 0.000000 0.000000 0.000000 0.000000 0.000000 0.034461
#
#
# Mechanical properties :
#
#
# Convention : Reuss Voigt Hill
#
# Bulk Modulus (GPa) = 31.73556 47.13204 39.43380
# Shear Modulus (GPa) = 23.37939 29.00387 26.19163
#
# Velocity S-wave (km/s) = 3.26926 3.64133 3.46030
# Velocity P-wave (km/s) = 5.36273 6.26305 5.83029
#
# Compressibility (1/GPa) = 0.03151039
#
# Stress axis : x y z
#
# Youngs Moduli (GPa) = 36.61064 96.18627 77.73048
#
# Poissons Ratio (x) = 0.43936 0.00534
# Poissons Ratio (y) = 0.16723 0.38059
# Poissons Ratio (z) = 0.00252 0.47095
#
# Static dielectric constant tensor:
#      x y z
#    x 1.831160 0.000000 0.000000 
#    y 0.000000 1.902720 0.000000 
#    z 0.000000 0.000000 1.874200 
# 
# From -- ./inp_files/26346.got.cif
#   From: 2010.05.17/outbox.cif.g08.bks.cpg/sg72_14_cif.got.tgz:26346.got - 2010.06.03 17:03:01.
