data_PCOD9528465
_publ_section_title
;
Structure prediction by ZEFSAII (Michael W. Deem and Ramdas Pophale) SiO2 
 PCOD9528465
Probable space group: I B A M
;
_chemical_formula_sum "Si O2"
_cell_formula_units_Z 64
_cell_length_a 10.444844
_cell_length_b 13.152066
_cell_length_c 21.549329
_cell_angle_alpha 90.000000
_cell_angle_beta 90.000000
_cell_angle_gamma 90.000000
_cell_volume 2960.258857
_symmetry_space_group_name_H-M "I B A M"
_symmetry_group_IT_number 72
_symmetry_cell_setting 'orthorhombic'
loop_
_space_group_symop_operation_xyz
x,y,z
-x,-y,z
x,-y,1/2-z
-x,y,1/2-z
-x,-y,-z
x,y,-z
-x,y,1/2+z
x,-y,1/2+z
1/2+x,1/2+y,1/2+z
1/2-x,1/2-y,1/2+z
1/2+x,1/2-y,-z
1/2-x,1/2+y,-z
1/2-x,1/2-y,1/2-z
1/2+x,1/2+y,1/2-z
1/2-x,1/2+y,z
1/2+x,1/2-y,z
loop_
_atom_site_type_symbol
_atom_site_label
_atom_site_fract_x
_atom_site_fract_y
_atom_site_fract_z
Si Si1 0.949510 0.765794 0.868118
Si Si2 0.298978 0.992737 0.500000
Si Si3 0.502157 0.820704 0.500000
Si Si4 0.720403 0.676740 0.191748
Si Si5 0.647616 0.481328 0.871597
O O1 0.855355 0.678032 0.845236
O O2 0.858199 0.862959 0.855461
O O3 0.087365 0.776869 0.835871
O O4 0.979252 0.748259 0.939928
O O5 0.369319 0.882874 0.500000
O O6 0.223231 0.999566 0.435269
O O7 0.395565 0.087725 0.500000
O O8 0.750000 0.750000 0.250000
O O9 0.686310 0.556329 0.184461
O O10 0.500000 0.500000 0.886927
#
# Coordination Sequence:
#
# PCOD9528465 Si02
#       5
#    16   8   8  16  16
#     4  11  23  43  67 100 138 183 229 289 360 423
#     4  11  20  39  63 103 143 178 227 283 356 429
#     4  11  23  37  68  99 141 177 222 289 358 426
#     4  11  24  43  66  95 134 184 238 295 343 416
#     4  10  22  40  67  97 138 184 232 284 357 435
#
# _framework density 21.619731999999999
#
# number of rings (size 3 to 8) (size 9 to 14) (size 15 to 20)
#    0.000    1.250    2.500    3.375    0.000    5.000 
#    0.000    3.750    0.000    3.000    0.000    0.000 
#    0.000    0.000    0.000    0.000    0.000    0.000 
#
# Total GULP energy -178264.555676 kJ/mol
# GULP energy per Si atom -5570.767365 kJ/mol
# Density = 2.157052 g / cm^3
# Si number density = 21.619732 Si / 1000 Ang^3
#
#
#
# Elastic Constant Matrix: (Units=GPa)
#
#
# Indices 1 2 3 4 5 6 
#
# 1 69.6517 36.2613 61.5261 0.0000 0.0000 0.0000
# 2 36.2613 109.4340 68.3247 0.0000 0.0000 0.0000
# 3 61.5261 68.3247 157.3513 0.0000 0.0000 0.0000
# 4 0.0000 0.0000 0.0000 28.9073 0.0000 0.0000
# 5 0.0000 0.0000 0.0000 0.0000 17.3705 0.0000
# 6 0.0000 0.0000 0.0000 0.0000 0.0000 19.0080
#
#
#
# Elastic Compliance Matrix: (Units=1/GPa)
#
#
# Indices 1 2 3 4 5 6 
#
# 1 0.022496 -0.002692 -0.007627 0.000000 0.000000 0.000000
# 2 -0.002692 0.012859 -0.004531 0.000000 0.000000 0.000000
# 3 -0.007627 -0.004531 0.011305 0.000000 0.000000 0.000000
# 4 0.000000 0.000000 0.000000 0.034593 0.000000 0.000000
# 5 0.000000 0.000000 0.000000 0.000000 0.057569 0.000000
# 6 0.000000 0.000000 0.000000 0.000000 0.000000 0.052609
#
#
# Mechanical properties :
#
#
# Convention : Reuss Voigt Hill
#
# Bulk Modulus (GPa) = 58.96445 74.29569 66.63007
# Shear Modulus (GPa) = 22.04730 24.41216 23.22973
#
# Velocity S-wave (km/s) = 3.19686 3.36394 3.28147
# Velocity P-wave (km/s) = 6.39994 7.03758 6.72632
#
# Compressibility (1/GPa) = 0.01695937
#
# Stress axis : x y z
#
# Youngs Moduli (GPa) = 44.45209 77.76770 88.45691
#
# Poissons Ratio (x) = 0.20936 0.67468
# Poissons Ratio (y) = 0.11967 0.40079
# Poissons Ratio (z) = 0.33905 0.35236
#
# Static dielectric constant tensor:
#      x y z
#    x 1.774520 0.000000 0.000000 
#    y 0.000000 1.975970 0.000000 
#    z 0.000000 0.000000 1.812370 
# 
# From -- ./inp_files/42978.got.cif
#   From: 2010.05.17/outbox.cif.g08.bks.cpg/sg72_22_cif.got.tgz:42978.got - 2010.06.03 17:03:01.
