data_PCOD9528935
_publ_section_title
;
Structure prediction by ZEFSAII (Michael W. Deem and Ramdas Pophale) SiO2 
 PCOD9528935
Probable space group: I B A M
;
_chemical_formula_sum "Si O2"
_cell_formula_units_Z 92
_cell_length_a 9.236344
_cell_length_b 21.650582
_cell_length_c 19.573549
_cell_angle_alpha 90.000000
_cell_angle_beta 90.000000
_cell_angle_gamma 90.000000
_cell_volume 3914.166109
_symmetry_space_group_name_H-M "I B A M"
_symmetry_group_IT_number 72
_symmetry_cell_setting 'orthorhombic'
loop_
_space_group_symop_operation_xyz
x,y,z
-x,-y,z
x,-y,1/2-z
-x,y,1/2-z
-x,-y,-z
x,y,-z
-x,y,1/2+z
x,-y,1/2+z
1/2+x,1/2+y,1/2+z
1/2-x,1/2-y,1/2+z
1/2+x,1/2-y,-z
1/2-x,1/2+y,-z
1/2-x,1/2-y,1/2-z
1/2+x,1/2+y,1/2-z
1/2-x,1/2+y,z
1/2+x,1/2-y,z
loop_
_atom_site_type_symbol
_atom_site_label
_atom_site_fract_x
_atom_site_fract_y
_atom_site_fract_z
Si Si1 0.935301 0.807415 0.875588
Si Si2 0.000000 0.603439 0.750000
Si Si3 0.500000 0.000000 0.000000
Si Si4 0.157950 0.719607 0.809611
Si Si5 0.047944 0.337954 0.000000
Si Si6 0.139522 0.433463 0.111996
Si Si7 0.469362 0.571216 0.417012
Si Si8 0.640623 0.271845 0.500000
O O1 0.022342 0.763562 0.823641
O O2 0.931845 0.881513 0.873880
O O3 0.042939 0.797463 0.938407
O O4 0.771028 0.784056 0.872656
O O5 0.109338 0.651525 0.786988
O O6 0.078295 0.566537 0.688566
O O7 0.378580 0.992341 0.062000
O O8 0.250000 0.750000 0.750000
O O9 0.055968 0.382153 0.934238
O O10 0.900553 0.300343 0.000000
O O11 0.194471 0.296193 0.000000
O O12 0.306423 0.415095 0.108279
O O13 0.500000 0.500000 0.401846
O O14 0.480409 0.578336 0.500000
#
# Coordination Sequence:
#
# PCOD9528935 Si02
#       8
#    16   8   4  16   8  16  16   8
#     4  12  23  42  68 105 145 194 244 306 375 442
#     4  12  26  45  74 110 149 200 230 308 382 454
#     4  10  24  46  80 100 136 200 240 320 364 420
#     4  12  25  42  68 102 152 195 238 294 375 455
#     4  11  22  41  67 103 157 188 239 311 374 446
#     4  11  23  48  72 104 147 191 251 309 372 437
#     4  11  23  45  75 104 145 193 253 319 370 434
#     4  12  22  36  66 107 139 188 239 308 371 437
#
# _framework density 23.504366000000001
#
# number of rings (size 3 to 8) (size 9 to 14) (size 15 to 20)
#    0.000    0.522    6.087    3.130    0.000    1.739 
#    0.000    2.609    0.000    7.304    0.000    0.000 
#    0.000    0.000    0.000    0.000    0.000    0.000 
#
# Total GULP energy -256257.150548 kJ/mol
# GULP energy per Si atom -5570.807621 kJ/mol
# Density = 2.345087 g / cm^3
# Si number density = 23.504366 Si / 1000 Ang^3
#
#
#
# Elastic Constant Matrix: (Units=GPa)
#
#
# Indices 1 2 3 4 5 6 
#
# 1 108.2012 29.7510 42.0379 0.0000 0.0000 0.0000
# 2 29.7510 102.0503 27.6977 0.0000 0.0000 0.0000
# 3 42.0379 27.6977 126.6151 0.0000 0.0000 0.0000
# 4 0.0000 0.0000 0.0000 19.2315 0.0000 0.0000
# 5 0.0000 0.0000 0.0000 0.0000 25.3211 0.0000
# 6 0.0000 0.0000 0.0000 0.0000 0.0000 41.8738
#
#
#
# Elastic Compliance Matrix: (Units=1/GPa)
#
#
# Indices 1 2 3 4 5 6 
#
# 1 0.011131 -0.002383 -0.003174 0.000000 0.000000 0.000000
# 2 -0.002383 0.010928 -0.001599 0.000000 0.000000 0.000000
# 3 -0.003174 -0.001599 0.009302 0.000000 0.000000 0.000000
# 4 0.000000 0.000000 0.000000 0.051998 0.000000 0.000000
# 5 0.000000 0.000000 0.000000 0.000000 0.039493 0.000000
# 6 0.000000 0.000000 0.000000 0.000000 0.000000 0.023881
#
#
# Mechanical properties :
#
#
# Convention : Reuss Voigt Hill
#
# Bulk Modulus (GPa) = 58.66249 59.53776 59.10013
# Shear Modulus (GPa) = 29.98896 33.11061 31.54979
#
# Velocity S-wave (km/s) = 3.57583 3.75734 3.66771
# Velocity P-wave (km/s) = 6.48545 6.64898 6.56773
#
# Compressibility (1/GPa) = 0.01704667
#
# Stress axis : x y z
#
# Youngs Moduli (GPa) = 89.84257 91.50815 107.50793
#
# Poissons Ratio (x) = 0.21810 0.34124
# Poissons Ratio (y) = 0.21413 0.17193
# Poissons Ratio (z) = 0.28517 0.14634
#
# Static dielectric constant tensor:
#      x y z
#    x 2.008350 0.000000 0.000000 
#    y 0.000000 2.166600 0.000000 
#    z 0.000000 0.000000 1.452500 
# 
# From -- ./inp_files/35924.got.cif
#   From: 2010.05.17/outbox.cif.g08.bks.cpg/sg72_18_cif.got.tgz:35924.got - 2010.06.03 17:03:01.
