data_PCOD9528804
_publ_section_title
;
Structure prediction by ZEFSAII (Michael W. Deem and Ramdas Pophale) SiO2 
 PCOD9528804
Probable space group: I B A M
;
_chemical_formula_sum "Si O2"
_cell_formula_units_Z 64
_cell_length_a 9.683605
_cell_length_b 19.502137
_cell_length_c 13.967705
_cell_angle_alpha 90.000000
_cell_angle_beta 90.000000
_cell_angle_gamma 90.000000
_cell_volume 2637.814936
_symmetry_space_group_name_H-M "I B A M"
_symmetry_group_IT_number 72
_symmetry_cell_setting 'orthorhombic'
loop_
_space_group_symop_operation_xyz
x,y,z
-x,-y,z
x,-y,1/2-z
-x,y,1/2-z
-x,-y,-z
x,y,-z
-x,y,1/2+z
x,-y,1/2+z
1/2+x,1/2+y,1/2+z
1/2-x,1/2-y,1/2+z
1/2+x,1/2-y,-z
1/2-x,1/2+y,-z
1/2-x,1/2-y,1/2-z
1/2+x,1/2+y,1/2-z
1/2-x,1/2+y,z
1/2+x,1/2-y,z
loop_
_atom_site_type_symbol
_atom_site_label
_atom_site_fract_x
_atom_site_fract_y
_atom_site_fract_z
Si Si1 0.726927 0.620798 0.605865
Si Si2 0.021503 0.218192 0.387528
Si Si3 0.689826 0.831242 0.311172
Si Si4 0.152704 0.517303 0.362014
O O1 0.772760 0.646001 0.500000
O O2 0.574636 0.650590 0.621551
O O3 0.739088 0.538819 0.602231
O O4 0.812203 0.646666 0.698822
O O5 0.046735 0.228211 0.500000
O O6 0.928514 0.280105 0.346990
O O7 0.164406 0.204666 0.333863
O O8 0.683449 0.902591 0.370105
O O9 0.147860 0.500000 0.250000
O O10 0.000000 0.500000 0.399290
#
# Coordination Sequence:
#
# PCOD9528804 Si02
#       4
#    16  16  16  16
#     4  10  23  43  70 105 143 190 245 299 360 436
#     4  11  25  44  70 106 146 191 244 299 365 440
#     4  11  24  46  74 105 148 192 239 301 370 430
#     4   9  21  43  72 104 141 189 241 298 365 431
#
# _framework density 24.262505000000001
#
# number of rings (size 3 to 8) (size 9 to 14) (size 15 to 20)
#    0.000    1.750    0.000    2.250    3.500    3.500 
#    4.500   10.000    0.000    0.000    0.000    0.000 
#    0.000    0.000    0.000    0.000    0.000    0.000 
#
# Total GULP energy -179080.732957 kJ/mol
# GULP energy per Si atom -5596.272905 kJ/mol
# Density = 2.420728 g / cm^3
# Si number density = 24.262505 Si / 1000 Ang^3
#
#
#
# Elastic Constant Matrix: (Units=GPa)
#
#
# Indices 1 2 3 4 5 6 
#
# 1 131.5932 108.2929 34.1969 0.0000 0.0000 0.0000
# 2 108.2929 224.1680 26.7340 0.0000 -0.0002 0.0000
# 3 34.1969 26.7340 189.1761 0.0000 -0.0006 0.0000
# 4 0.0000 0.0000 0.0000 10.0628 -0.0003 0.0000
# 5 0.0000 -0.0002 -0.0006 -0.0003 613.5120 0.0000
# 6 0.0000 0.0000 0.0000 0.0000 0.0000 28.3698
#
#
#
# Elastic Compliance Matrix: (Units=1/GPa)
#
#
# Indices 1 2 3 4 5 6 
#
# 1 0.013014 -0.006109 -0.001489 0.000000 0.000000 0.000000
# 2 -0.006109 0.007405 0.000058 0.000000 0.000000 0.000000
# 3 -0.001489 0.000058 0.005547 0.000000 0.000000 0.000000
# 4 0.000000 0.000000 0.000000 0.099376 0.000000 0.000000
# 5 0.000000 0.000000 0.000000 0.000000 0.001630 0.000000
# 6 0.000000 0.000000 0.000000 0.000000 0.000000 0.035249
#
#
# Mechanical properties :
#
#
# Convention : Reuss Voigt Hill
#
# Bulk Modulus (GPa) = 91.86813 98.15388 95.01101
# Shear Modulus (GPa) = 27.63503 155.43649 91.53576
#
# Velocity S-wave (km/s) = 3.37857 8.01271 6.14891
# Velocity P-wave (km/s) = 7.29151 11.23154 9.46873
#
# Compressibility (1/GPa) = 0.01088517
#
# Stress axis : x y z
#
# Youngs Moduli (GPa) = 76.84288 135.03870 180.27471
#
# Poissons Ratio (x) = 0.82497 0.26845
# Poissons Ratio (y) = 0.46944 -0.01042
# Poissons Ratio (z) = 0.11443 -0.00781
#
# Static dielectric constant tensor:
#      x y z
#    x 1.887890 0.000000 0.000000 
#    y 0.000000 1.968290 0.000000 
#    z 0.000000 0.000000 1.996780 
# 
# From -- ./inp_files/35369.got.cif
#   From: 2010.05.17/outbox.cif.g08.bks.cpg/sg72_18_cif.got.tgz:35369.got - 2010.06.03 17:03:01.
