data_PCOD9528038
_publ_section_title
;
Structure prediction by ZEFSAII (Michael W. Deem and Ramdas Pophale) SiO2 
 PCOD9528038
Probable space group: I B A M
;
_chemical_formula_sum "Si O2"
_cell_formula_units_Z 116
_cell_length_a 16.629730
_cell_length_b 11.128423
_cell_length_c 30.400515
_cell_angle_alpha 90.000000
_cell_angle_beta 90.000000
_cell_angle_gamma 90.000000
_cell_volume 5626.000470
_symmetry_space_group_name_H-M "I B A M"
_symmetry_group_IT_number 72
_symmetry_cell_setting 'orthorhombic'
loop_
_space_group_symop_operation_xyz
x,y,z
-x,-y,z
x,-y,1/2-z
-x,y,1/2-z
-x,-y,-z
x,y,-z
-x,y,1/2+z
x,-y,1/2+z
1/2+x,1/2+y,1/2+z
1/2-x,1/2-y,1/2+z
1/2+x,1/2-y,-z
1/2-x,1/2+y,-z
1/2-x,1/2-y,1/2-z
1/2+x,1/2+y,1/2-z
1/2-x,1/2+y,z
1/2+x,1/2-y,z
loop_
_atom_site_type_symbol
_atom_site_label
_atom_site_fract_x
_atom_site_fract_y
_atom_site_fract_z
Si Si1 0.221543 0.826878 0.947710
Si Si2 0.610793 0.704147 0.184947
Si Si3 0.181008 0.000622 0.368209
Si Si4 0.500000 0.000000 0.500000
Si Si5 0.908039 0.371953 0.576208
Si Si6 0.156545 0.618415 0.888454
Si Si7 0.904565 0.365586 0.737466
Si Si8 0.938634 0.789667 0.155944
O O1 0.184648 0.931387 0.915897
O O2 0.318365 0.826723 0.938786
O O3 0.182107 0.703452 0.929483
O O4 0.208286 0.843656 0.000000
O O5 0.671609 0.604238 0.167944
O O6 0.611210 0.806741 0.147939
O O7 0.632053 0.765076 0.230556
O O8 0.518028 0.664027 0.181306
O O9 0.262020 0.926343 0.365975
O O10 0.112097 0.905538 0.357905
O O11 0.533136 0.905649 0.462666
O O12 0.889800 0.500158 0.598185
O O13 0.947558 0.280402 0.610027
O O14 0.874902 0.500000 0.750000
O O15 0.898791 0.310572 0.688540
O O16 0.000000 0.368626 0.750000
#
# Coordination Sequence:
#
# PCOD9528038 Si02
#       8
#    16  16  16   4  16  16  16  16
#     4  10  21  40  63  86 115 171 217 248 308 393
#     4  10  21  39  64  92 125 166 214 257 311 383
#     4  10  22  38  62  92 126 168 210 251 325 381
#     4  12  24  36  52  96 120 148 214 272 328 354
#     4  11  22  37  59  88 120 157 204 267 316 366
#     4  10  21  39  64  84 127 165 206 257 315 381
#     4   9  19  36  64  96 123 166 214 255 316 385
#     4  11  21  40  64  92 130 165 207 268 324 376
#
# _framework density 20.618554
#
# number of rings (size 3 to 8) (size 9 to 14) (size 15 to 20)
#    0.000    1.793    2.069    2.069    0.966    3.310 
#    1.241    2.759    6.069    1.655    0.000    0.000 
#    0.000    0.000    0.000    0.000    0.000    0.000 
#
# Total GULP energy -322991.434402 kJ/mol
# GULP energy per Si atom -5568.817835 kJ/mol
# Density = 2.057163 g / cm^3
# Si number density = 20.618554 Si / 1000 Ang^3
#
#
#
# Elastic Constant Matrix: (Units=GPa)
#
#
# Indices 1 2 3 4 5 6 
#
# 1 23.1501 -0.4345 3.1314 0.0000 0.0000 0.0000
# 2 -0.4345 44.0303 7.9736 0.0000 0.0000 0.0000
# 3 3.1314 7.9736 101.6752 0.0000 0.0000 0.0000
# 4 0.0000 0.0000 0.0000 16.6621 0.0000 0.0000
# 5 0.0000 0.0000 0.0000 0.0000 46.7093 0.0000
# 6 0.0000 0.0000 0.0000 0.0000 0.0000 57.3086
#
#
#
# Elastic Compliance Matrix: (Units=1/GPa)
#
#
# Indices 1 2 3 4 5 6 
#
# 1 0.043397 0.000680 -0.001390 0.000000 0.000000 0.000000
# 2 0.000680 0.023049 -0.001829 0.000000 0.000000 0.000000
# 3 -0.001390 -0.001829 0.010021 0.000000 0.000000 0.000000
# 4 0.000000 0.000000 0.000000 0.060016 0.000000 0.000000
# 5 0.000000 0.000000 0.000000 0.000000 0.021409 0.000000
# 6 0.000000 0.000000 0.000000 0.000000 0.000000 0.017449
#
#
# Mechanical properties :
#
#
# Convention : Reuss Voigt Hill
#
# Bulk Modulus (GPa) = 14.00732 21.13295 17.57014
# Shear Modulus (GPa) = 24.48379 34.68169 29.58274
#
# Velocity S-wave (km/s) = 3.44970 4.10574 3.79194
# Velocity P-wave (km/s) = 4.76188 5.72258 5.26419
#
# Compressibility (1/GPa) = 0.07139122
#
# Stress axis : x y z
#
# Youngs Moduli (GPa) = 23.04296 43.38491 99.78608
#
# Poissons Ratio (x) = -0.02950 0.13869
# Poissons Ratio (y) = -0.01567 0.18246
# Poissons Ratio (z) = 0.03203 0.07933
#
# Static dielectric constant tensor:
#      x y z
#    x 1.862210 0.000000 0.000000 
#    y 0.000000 1.840500 0.000000 
#    z 0.000000 0.000000 1.737280 
# 
# From -- ./inp_files/49143.got.cif
#   From: 2010.05.17/outbox.cif.g08.bks.cpg/sg72_25_cif.got.tgz:49143.got - 2010.06.03 17:03:01.
