data_PCOD9528970
_publ_section_title
;
Structure prediction by ZEFSAII (Michael W. Deem and Ramdas Pophale) SiO2 
 PCOD9528970
Probable space group: I B A M
;
_chemical_formula_sum "Si O2"
_cell_formula_units_Z 56
_cell_length_a 18.802629
_cell_length_b 14.348709
_cell_length_c 9.744618
_cell_angle_alpha 90.000000
_cell_angle_beta 90.000000
_cell_angle_gamma 90.000000
_cell_volume 2629.034128
_symmetry_space_group_name_H-M "I B A M"
_symmetry_group_IT_number 72
_symmetry_cell_setting 'orthorhombic'
loop_
_space_group_symop_operation_xyz
x,y,z
-x,-y,z
x,-y,1/2-z
-x,y,1/2-z
-x,-y,-z
x,y,-z
-x,y,1/2+z
x,-y,1/2+z
1/2+x,1/2+y,1/2+z
1/2-x,1/2-y,1/2+z
1/2+x,1/2-y,-z
1/2-x,1/2+y,-z
1/2-x,1/2-y,1/2-z
1/2+x,1/2+y,1/2-z
1/2-x,1/2+y,z
1/2+x,1/2-y,z
loop_
_atom_site_type_symbol
_atom_site_label
_atom_site_fract_x
_atom_site_fract_y
_atom_site_fract_z
Si Si1 0.688091 0.607402 0.500000
Si Si2 0.933695 0.746154 0.000000
Si Si3 0.576022 0.625142 0.000000
Si Si4 0.084777 0.606000 0.747163
Si Si5 0.661375 0.797402 0.000000
Si Si6 0.373200 0.500000 0.250000
O O1 0.617599 0.667699 0.500000
O O2 0.757717 0.670315 0.500000
O O3 0.678754 0.550822 0.358710
O O4 0.912045 0.679039 0.875867
O O5 0.011555 0.797737 0.000000
O O6 0.647669 0.687251 0.000000
O O7 0.579767 0.563800 0.141871
O O8 0.113957 0.500000 0.750000
O O9 0.121186 0.658028 0.871689
O O10 0.000000 0.594458 0.750000
#
# Coordination Sequence:
#
# PCOD9528970 Si02
#       6
#     8   8   8  16   8   8
#     4  11  28  45  70 106 143 187 230 291 353 419
#     4  12  25  44  72 106 141 184 239 289 348 412
#     4  11  24  47  75 102 138 188 241 289 340 418
#     4  11  23  43  71 104 139 180 230 293 349 412
#     4  12  25  45  72 104 140 184 233 284 356 420
#     4  10  26  49  70 102 145 184 238 288 353 404
#
# _framework density 21.300598000000001
#
# number of rings (size 3 to 8) (size 9 to 14) (size 15 to 20)
#    0.000    0.857    2.857    2.571    2.000   10.286 
#    5.143    0.000    0.000    0.000    0.000    0.000 
#    0.000    0.000    0.000    0.000    0.000    0.000 
#
# Total GULP energy -155975.630678 kJ/mol
# GULP energy per Si atom -5570.558239 kJ/mol
# Density = 2.125212 g / cm^3
# Si number density = 21.300598 Si / 1000 Ang^3
#
#
#
# Elastic Constant Matrix: (Units=GPa)
#
#
# Indices 1 2 3 4 5 6 
#
# 1 85.5002 17.9448 30.9666 0.0000 0.0000 0.0000
# 2 17.9448 110.7283 62.7141 0.0000 0.0000 0.0000
# 3 30.9666 62.7141 171.5982 0.0000 0.0000 0.0000
# 4 0.0000 0.0000 0.0000 35.2524 0.0000 0.0000
# 5 0.0000 0.0000 0.0000 0.0000 11.3844 0.0000
# 6 0.0000 0.0000 0.0000 0.0000 0.0000 12.0116
#
#
#
# Elastic Compliance Matrix: (Units=1/GPa)
#
#
# Indices 1 2 3 4 5 6 
#
# 1 0.012593 -0.000950 -0.001925 0.000000 0.000000 0.000000
# 2 -0.000950 0.011460 -0.004017 0.000000 0.000000 0.000000
# 3 -0.001925 -0.004017 0.007643 0.000000 0.000000 0.000000
# 4 0.000000 0.000000 0.000000 0.028367 0.000000 0.000000
# 5 0.000000 0.000000 0.000000 0.000000 0.087840 0.000000
# 6 0.000000 0.000000 0.000000 0.000000 0.000000 0.083253
#
#
# Mechanical properties :
#
#
# Convention : Reuss Voigt Hill
#
# Bulk Modulus (GPa) = 55.83154 65.67530 60.75342
# Shear Modulus (GPa) = 19.92744 28.80976 24.36860
#
# Velocity S-wave (km/s) = 3.06197 3.68167 3.38603
# Velocity P-wave (km/s) = 6.22648 6.99803 6.62350
#
# Compressibility (1/GPa) = 0.01791102
#
# Stress axis : x y z
#
# Youngs Moduli (GPa) = 79.41179 87.25848 130.83851
#
# Poissons Ratio (x) = 0.08293 0.25188
# Poissons Ratio (y) = 0.07548 0.52556
# Poissons Ratio (z) = 0.15288 0.35050
#
# Static dielectric constant tensor:
#      x y z
#    x 1.742180 0.000000 0.000000 
#    y 0.000000 1.870310 0.000000 
#    z 0.000000 0.000000 1.645370 
# 
# From -- ./inp_files/3279.got.cif
#   From: 2010.05.17/outbox.cif.g08.bks.cpg/sg72_2_cif.got.tgz:3279.got - 2010.06.03 17:03:01.
