data_PCOD9528222
_publ_section_title
;
Structure prediction by ZEFSAII (Michael W. Deem and Ramdas Pophale) SiO2 
 PCOD9528222
Probable space group: I B A M
;
_chemical_formula_sum "Si O2"
_cell_formula_units_Z 88
_cell_length_a 12.277552
_cell_length_b 10.519547
_cell_length_c 30.904704
_cell_angle_alpha 90.000000
_cell_angle_beta 90.000000
_cell_angle_gamma 90.000000
_cell_volume 3991.474958
_symmetry_space_group_name_H-M "I B A M"
_symmetry_group_IT_number 72
_symmetry_cell_setting 'orthorhombic'
loop_
_space_group_symop_operation_xyz
x,y,z
-x,-y,z
x,-y,1/2-z
-x,y,1/2-z
-x,-y,-z
x,y,-z
-x,y,1/2+z
x,-y,1/2+z
1/2+x,1/2+y,1/2+z
1/2-x,1/2-y,1/2+z
1/2+x,1/2-y,-z
1/2-x,1/2+y,-z
1/2-x,1/2-y,1/2-z
1/2+x,1/2+y,1/2-z
1/2-x,1/2+y,z
1/2+x,1/2-y,z
loop_
_atom_site_type_symbol
_atom_site_label
_atom_site_fract_x
_atom_site_fract_y
_atom_site_fract_z
Si Si1 0.191170 0.975902 0.052570
Si Si2 0.414581 0.900351 0.096775
Si Si3 0.000000 0.184038 0.250000
Si Si4 0.346894 0.741247 0.824765
Si Si5 0.192163 0.960018 0.203878
Si Si6 0.012638 0.818848 0.449900
O O1 0.301674 0.958207 0.079491
O O2 0.101055 0.872138 0.068417
O O3 0.123938 0.105549 0.061231
O O4 0.212682 0.966350 0.000000
O O5 0.402219 0.787404 0.131512
O O6 0.472332 0.829046 0.057189
O O7 0.500000 0.000000 0.115367
O O8 0.076495 0.259096 0.217228
O O9 0.077900 0.099994 0.280684
O O10 0.251470 0.843735 0.818846
O O11 0.316749 0.591478 0.822720
O O12 0.246046 0.000000 0.250000
O O13 0.999993 0.848877 0.500000
#
# Coordination Sequence:
#
# PCOD9528222 Si02
#       6
#    16  16   8  16  16  16
#     4   9  21  44  70  93 129 180 231 279 343 418
#     4  12  28  40  62 106 142 175 226 288 353 416
#     4  10  21  46  71  96 129 178 235 284 349 418
#     4  11  25  41  66  96 134 176 222 280 346 414
#     4  10  21  42  68  94 123 172 228 279 341 414
#     4   9  21  44  70  94 128 184 234 279 345 416
#
# _framework density 22.046990000000001
#
# number of rings (size 3 to 8) (size 9 to 14) (size 15 to 20)
#    0.000    1.818    0.000    6.273    5.091    5.818 
#    3.273    0.909    0.000    0.000    0.000    0.000 
#    0.000    0.000    0.000    0.000    0.000    0.000 
#
# Total GULP energy -245324.037541 kJ/mol
# GULP energy per Si atom -5575.546308 kJ/mol
# Density = 2.199681 g / cm^3
# Si number density = 22.046990 Si / 1000 Ang^3
#
#
#
# Elastic Constant Matrix: (Units=GPa)
#
#
# Indices 1 2 3 4 5 6 
#
# 1 82.8133 49.3319 34.1799 0.0000 0.0000 0.0000
# 2 49.3319 105.8080 39.8151 0.0000 0.0000 0.0000
# 3 34.1799 39.8151 59.6136 0.0000 0.0000 0.0000
# 4 0.0000 0.0000 0.0000 29.6373 0.0000 0.0000
# 5 0.0000 0.0000 0.0000 0.0000 2.9198 0.0000
# 6 0.0000 0.0000 0.0000 0.0000 0.0000 12.1557
#
#
#
# Elastic Compliance Matrix: (Units=1/GPa)
#
#
# Indices 1 2 3 4 5 6 
#
# 1 0.018400 -0.006156 -0.006438 0.000000 0.000000 0.000000
# 2 -0.006156 0.014683 -0.006277 0.000000 0.000000 0.000000
# 3 -0.006438 -0.006277 0.024658 0.000000 0.000000 0.000000
# 4 0.000000 0.000000 0.000000 0.033741 0.000000 0.000000
# 5 0.000000 0.000000 0.000000 0.000000 0.342492 0.000000
# 6 0.000000 0.000000 0.000000 0.000000 0.000000 0.082266
#
#
# Mechanical properties :
#
#
# Convention : Reuss Voigt Hill
#
# Bulk Modulus (GPa) = 50.00277 54.98765 52.49521
# Shear Modulus (GPa) = 8.91822 17.26974 13.09398
#
# Velocity S-wave (km/s) = 2.01342 2.80181 2.43968
# Velocity P-wave (km/s) = 5.30420 5.95501 5.63900
#
# Compressibility (1/GPa) = 0.01999889
#
# Stress axis : x y z
#
# Youngs Moduli (GPa) = 54.34861 68.10422 40.55405
#
# Poissons Ratio (x) = 0.41925 0.26109
# Poissons Ratio (y) = 0.33457 0.25457
# Poissons Ratio (z) = 0.34990 0.42750
#
# Static dielectric constant tensor:
#      x y z
#    x 1.885910 0.000000 0.000000 
#    y 0.000000 1.846430 0.000000 
#    z 0.000000 0.000000 1.881870 
# 
# From -- ./inp_files/51306.got.cif
#   From: 2010.05.17/outbox.cif.g08.bks.cpg/sg72_26_cif.got.tgz:51306.got - 2010.06.03 17:03:01.
