data_PCOD9528547
_publ_section_title
;
Structure prediction by ZEFSAII (Michael W. Deem and Ramdas Pophale) SiO2 
 PCOD9528547
Probable space group: I B A M
;
_chemical_formula_sum "Si O2"
_cell_formula_units_Z 96
_cell_length_a 10.458174
_cell_length_b 24.769834
_cell_length_c 17.618049
_cell_angle_alpha 90.000000
_cell_angle_beta 90.000000
_cell_angle_gamma 90.000000
_cell_volume 4563.906861
_symmetry_space_group_name_H-M "I B A M"
_symmetry_group_IT_number 72
_symmetry_cell_setting 'orthorhombic'
loop_
_space_group_symop_operation_xyz
x,y,z
-x,-y,z
x,-y,1/2-z
-x,y,1/2-z
-x,-y,-z
x,y,-z
-x,y,1/2+z
x,-y,1/2+z
1/2+x,1/2+y,1/2+z
1/2-x,1/2-y,1/2+z
1/2+x,1/2-y,-z
1/2-x,1/2+y,-z
1/2-x,1/2-y,1/2-z
1/2+x,1/2+y,1/2-z
1/2-x,1/2+y,z
1/2+x,1/2-y,z
loop_
_atom_site_type_symbol
_atom_site_label
_atom_site_fract_x
_atom_site_fract_y
_atom_site_fract_z
Si Si1 0.117288 0.310603 0.798255
Si Si2 0.871359 0.919378 0.217240
Si Si3 0.104195 0.185455 0.500000
Si Si4 0.345024 0.507470 0.918227
Si Si5 0.330404 0.693070 0.834229
Si Si6 0.195138 0.783532 0.500000
Si Si7 0.228641 0.890241 0.880076
O O1 0.229511 0.305674 0.735068
O O2 0.094021 0.249577 0.828158
O O3 0.152616 0.349528 0.868116
O O4 0.000000 0.331745 0.750000
O O5 0.905887 0.862007 0.179443
O O6 0.794522 0.906393 0.292627
O O7 0.000000 0.944106 0.250000
O O8 0.808559 0.956705 0.154016
O O9 0.220029 0.228850 0.500000
O O10 0.128526 0.146664 0.572903
O O11 0.962576 0.212329 0.500000
O O12 0.500000 0.500000 0.913596
O O13 0.276887 0.449242 0.917094
O O14 0.319750 0.534009 0.000000
O O15 0.270843 0.690598 0.918318
#
# Coordination Sequence:
#
# PCOD9528547 Si02
#       7
#    16  16   8  16  16   8  16
#     4  10  22  42  65  92 126 177 230 276 337 411
#     4  11  21  36  60  89 127 171 211 271 327 402
#     4  12  26  44  62 105 136 189 220 289 350 413
#     4  11  23  36  60  93 132 172 208 272 340 407
#     4  10  23  37  62  94 128 172 215 283 328 407
#     4  12  26  38  65  92 137 178 228 271 349 424
#     4  11  22  41  62  93 135 172 220 273 339 406
#
# _framework density 21.034609
#
# number of rings (size 3 to 8) (size 9 to 14) (size 15 to 20)
#    0.000    1.167    4.167    2.000    3.500    0.000 
#    0.000    0.000    0.000    8.000    0.000    4.667 
#    0.000    0.000    0.000    0.000    0.000    0.000 
#
# Total GULP energy -267238.365210 kJ/mol
# GULP energy per Si atom -5567.465942 kJ/mol
# Density = 2.098673 g / cm^3
# Si number density = 21.034609 Si / 1000 Ang^3
#
#
#
# Elastic Constant Matrix: (Units=GPa)
#
#
# Indices 1 2 3 4 5 6 
#
# 1 35.9890 28.7834 -8.5432 0.0000 0.0000 0.0000
# 2 28.7834 128.2494 51.2752 0.0000 0.0000 0.0000
# 3 -8.5432 51.2752 133.1533 0.0001 0.0000 0.0000
# 4 0.0000 0.0000 0.0001 -277.6107 0.0000 0.0000
# 5 0.0000 0.0000 0.0000 0.0000 19.0644 0.0000
# 6 0.0000 0.0000 0.0000 0.0000 0.0000 0.5309
#
#
#
# Elastic Compliance Matrix: (Units=1/GPa)
#
#
# Indices 1 2 3 4 5 6 
#
# 1 0.038521 -0.011387 0.006856 0.000000 0.000000 0.000000
# 2 -0.011387 0.012582 -0.005576 0.000000 0.000000 0.000000
# 3 0.006856 -0.005576 0.010097 0.000000 0.000000 0.000000
# 4 0.000000 0.000000 0.000000 -0.003602 0.000000 0.000000
# 5 0.000000 0.000000 0.000000 0.000000 0.052454 0.000000
# 6 0.000000 0.000000 0.000000 0.000000 0.000000 1.883723
#
#
# Mechanical properties :
#
#
# Convention : Reuss Voigt Hill
#
# Bulk Modulus (GPa) = 24.39743 48.93582 36.66662
# Shear Modulus (GPa) = 2.46591 -36.54467 -17.03938
#
# Velocity S-wave (km/s) = 1.08391 -4.17269 -2.84925
# Velocity P-wave (km/s) = 3.63185 0.31600 2.57781
#
# Compressibility (1/GPa) = 0.04098793
#
# Stress axis : x y z
#
# Youngs Moduli (GPa) = 25.96013 79.47842 99.03777
#
# Poissons Ratio (x) = 0.90498 -0.67903
# Poissons Ratio (y) = 0.29560 0.55221
# Poissons Ratio (z) = -0.17799 0.44315
#
# Static dielectric constant tensor:
#      x y z
#    x 1.824520 0.000000 0.000000 
#    y 0.000000 1.834180 0.000000 
#    z 0.000000 0.000000 1.890170 
# 
# From -- ./inp_files/29516.got.cif
#   From: 2010.05.17/outbox.cif.g08.bks.cpg/sg72_15_cif.got.tgz:29516.got - 2010.06.03 17:03:01.
