data_PCOD9528426
_publ_section_title
;
Structure prediction by ZEFSAII (Michael W. Deem and Ramdas Pophale) SiO2 
 PCOD9528426
Probable space group: I B A M
;
_chemical_formula_sum "Si O2"
_cell_formula_units_Z 64
_cell_length_a 31.938388
_cell_length_b 11.091279
_cell_length_c 9.750529
_cell_angle_alpha 90.000000
_cell_angle_beta 90.000000
_cell_angle_gamma 90.000000
_cell_volume 3454.003720
_symmetry_space_group_name_H-M "I B A M"
_symmetry_group_IT_number 72
_symmetry_cell_setting 'orthorhombic'
loop_
_space_group_symop_operation_xyz
x,y,z
-x,-y,z
x,-y,1/2-z
-x,y,1/2-z
-x,-y,-z
x,y,-z
-x,y,1/2+z
x,-y,1/2+z
1/2+x,1/2+y,1/2+z
1/2-x,1/2-y,1/2+z
1/2+x,1/2-y,-z
1/2-x,1/2+y,-z
1/2-x,1/2-y,1/2-z
1/2+x,1/2+y,1/2-z
1/2-x,1/2+y,z
1/2+x,1/2-y,z
loop_
_atom_site_type_symbol
_atom_site_label
_atom_site_fract_x
_atom_site_fract_y
_atom_site_fract_z
Si Si1 0.039416 0.375441 0.335635
Si Si2 0.684859 0.000000 0.250000
Si Si3 0.829223 0.899594 0.500000
Si Si4 0.870884 0.272411 0.213509
Si Si5 0.269494 0.128053 0.500000
Si Si6 0.839287 0.814675 0.000000
O O1 0.047463 0.500000 0.250000
O O2 0.031264 0.393636 0.500000
O O3 0.081166 0.296921 0.322598
O O4 0.000000 0.322777 0.250000
O O5 0.655272 0.104608 0.311563
O O6 0.713372 0.941373 0.366866
O O7 0.850901 0.835599 0.371714
O O8 0.780164 0.868225 0.500000
O O9 0.835852 0.042170 0.500000
O O10 0.863572 0.237718 0.370144
O O11 0.292598 0.257331 0.500000
#
# Coordination Sequence:
#
# PCOD9528426 Si02
#       6
#    16   8   8  16   8   8
#     4  11  23  39  67 102 134 165 206 269 333 397
#     4  10  22  40  63  92 126 166 209 264 328 386
#     4  12  25  42  62  91 128 174 227 261 318 387
#     4  11  23  41  67  92 131 169 212 268 327 387
#     4  10  25  38  63  89 127 168 219 276 317 372
#     4  10  26  40  61  92 124 179 215 267 316 385
#
# _framework density 18.529222000000001
#
# number of rings (size 3 to 8) (size 9 to 14) (size 15 to 20)
#    0.000    1.250    2.500    3.000   10.500    2.000 
#    0.000    0.000    0.000    4.500    0.000    0.000 
#    0.000    0.000    0.000    0.000    0.000    0.000 
#
# Total GULP energy -178739.396140 kJ/mol
# GULP energy per Si atom -5585.606129 kJ/mol
# Density = 1.848705 g / cm^3
# Si number density = 18.529222 Si / 1000 Ang^3
#
#
#
# Elastic Constant Matrix: (Units=GPa)
#
#
# Indices 1 2 3 4 5 6 
#
# 1 169.7341 51.9894 57.8108 0.0000 0.0000 0.0000
# 2 51.9894 113.4822 32.4471 0.0000 0.0000 0.0000
# 3 57.8108 32.4471 142.6890 0.0000 0.0000 0.0000
# 4 0.0000 0.0000 0.0000 33.4678 0.0000 0.0000
# 5 0.0000 0.0000 0.0000 0.0000 19.7168 0.0000
# 6 0.0000 0.0000 0.0000 0.0000 0.0000 20.1858
#
#
#
# Elastic Compliance Matrix: (Units=1/GPa)
#
#
# Indices 1 2 3 4 5 6 
#
# 1 0.007570 -0.002771 -0.002437 0.000000 0.000000 0.000000
# 2 -0.002771 0.010439 -0.001251 0.000000 0.000000 0.000000
# 3 -0.002437 -0.001251 0.008280 0.000000 0.000000 0.000000
# 4 0.000000 0.000000 0.000000 0.029879 0.000000 0.000000
# 5 0.000000 0.000000 0.000000 0.000000 0.050718 0.000000
# 6 0.000000 0.000000 0.000000 0.000000 0.000000 0.049540
#
#
# Mechanical properties :
#
#
# Convention : Reuss Voigt Hill
#
# Bulk Modulus (GPa) = 74.78880 78.93331 76.86106
# Shear Modulus (GPa) = 28.76816 33.58460 31.17638
#
# Velocity S-wave (km/s) = 3.94456 4.26199 4.10634
# Velocity P-wave (km/s) = 7.82281 8.17993 8.00336
#
# Compressibility (1/GPa) = 0.01337099
#
# Stress axis : x y z
#
# Youngs Moduli (GPa) = 132.09174 95.79149 120.77187
#
# Poissons Ratio (x) = 0.26548 0.29432
# Poissons Ratio (y) = 0.36609 0.15109
# Poissons Ratio (z) = 0.32190 0.11984
#
# Static dielectric constant tensor:
#      x y z
#    x 1.628450 0.000000 0.000000 
#    y 0.000000 1.620080 0.000000 
#    z 0.000000 0.000000 1.681190 
# 
# From -- ./inp_files/2681.got.cif
#   From: 2010.05.17/outbox.cif.g08.bks.cpg/sg72_2_cif.got.tgz:2681.got - 2010.06.03 17:03:01.
