data_PCOD9528481
_publ_section_title
;
Structure prediction by ZEFSAII (Michael W. Deem and Ramdas Pophale) SiO2 
 PCOD9528481
Probable space group: I B A M
;
_chemical_formula_sum "Si O2"
_cell_formula_units_Z 116
_cell_length_a 9.260247
_cell_length_b 25.978851
_cell_length_c 25.266748
_cell_angle_alpha 90.000000
_cell_angle_beta 90.000000
_cell_angle_gamma 90.000000
_cell_volume 6078.436146
_symmetry_space_group_name_H-M "I B A M"
_symmetry_group_IT_number 72
_symmetry_cell_setting 'orthorhombic'
loop_
_space_group_symop_operation_xyz
x,y,z
-x,-y,z
x,-y,1/2-z
-x,y,1/2-z
-x,-y,-z
x,y,-z
-x,y,1/2+z
x,-y,1/2+z
1/2+x,1/2+y,1/2+z
1/2-x,1/2-y,1/2+z
1/2+x,1/2-y,-z
1/2-x,1/2+y,-z
1/2-x,1/2-y,1/2-z
1/2+x,1/2+y,1/2-z
1/2-x,1/2+y,z
1/2+x,1/2-y,z
loop_
_atom_site_type_symbol
_atom_site_label
_atom_site_fract_x
_atom_site_fract_y
_atom_site_fract_z
Si Si1 0.544848 0.349847 0.875453
Si Si2 0.684236 0.227811 0.196678
Si Si3 0.970725 0.439419 0.136367
Si Si4 0.232265 0.112415 0.330316
Si Si5 0.500000 0.500000 0.750000
Si Si6 0.337618 0.141119 0.937472
Si Si7 0.302388 0.416316 0.290218
Si Si8 0.921644 0.263868 0.131506
O O1 0.402736 0.386325 0.870568
O O2 0.670434 0.358605 0.918137
O O3 0.624687 0.366962 0.819711
O O4 0.478314 0.292698 0.884637
O O5 0.750000 0.250000 0.250000
O O6 0.740670 0.171256 0.185931
O O7 0.756416 0.260257 0.149383
O O8 0.515077 0.225883 0.184707
O O9 0.905112 0.411543 0.084952
O O10 0.852070 0.426934 0.182401
O O11 0.000000 0.500000 0.132281
O O12 0.123092 0.412494 0.147845
O O13 0.204399 0.089327 0.272718
O O14 0.596017 0.533825 0.709250
O O15 0.423278 0.188904 0.909225
O O16 0.347630 0.145926 0.000000
#
# Coordination Sequence:
#
# PCOD9528481 Si02
#       8
#    16  16  16  16   4  16  16  16
#     4  10  22  41  62  92 132 168 217 267 329 399
#     4  11  22  33  61  92 134 173 202 247 316 398
#     4  11  25  42  65  96 130 173 222 286 338 389
#     4  11  21  38  62  93 134 172 213 259 315 403
#     4  12  20  36  58  92 134 192 222 252 302 384
#     4  11  25  46  68  90 123 170 229 292 344 392
#     4  11  22  36  61  94 135 182 218 255 320 391
#     4  11  21  40  59  93 129 169 214 262 324 398
#
# _framework density 19.083856000000001
#
# number of rings (size 3 to 8) (size 9 to 14) (size 15 to 20)
#    0.000    1.103    4.138    2.483    1.931    4.690 
#    0.000    0.690    0.000    0.828    0.000    0.000 
#    0.000    0.000    0.000    0.000    0.000    0.000 
#
# Total GULP energy -323103.139100 kJ/mol
# GULP energy per Si atom -5570.743778 kJ/mol
# Density = 1.904042 g / cm^3
# Si number density = 19.083856 Si / 1000 Ang^3
#
#
#
# Elastic Constant Matrix: (Units=GPa)
#
#
# Indices 1 2 3 4 5 6 
#
# 1 126.5026 36.5608 32.6410 0.0000 0.0000 0.0000
# 2 36.5608 94.8134 33.6679 0.0000 0.0000 0.0000
# 3 32.6410 33.6679 79.3644 0.0000 0.0000 0.0000
# 4 0.0000 0.0000 0.0000 16.2906 0.0000 0.0000
# 5 0.0000 0.0000 0.0000 0.0000 15.0867 0.0000
# 6 0.0000 0.0000 0.0000 0.0000 0.0000 -21.6640
#
#
#
# Elastic Compliance Matrix: (Units=1/GPa)
#
#
# Indices 1 2 3 4 5 6 
#
# 1 0.009375 -0.002644 -0.002734 0.000000 0.000000 0.000000
# 2 -0.002644 0.013163 -0.004497 0.000000 0.000000 0.000000
# 3 -0.002734 -0.004497 0.015632 0.000000 0.000000 0.000000
# 4 0.000000 0.000000 0.000000 0.061385 0.000000 0.000000
# 5 0.000000 0.000000 0.000000 0.000000 0.066283 0.000000
# 6 0.000000 0.000000 0.000000 0.000000 0.000000 -0.046160
#
#
# Mechanical properties :
#
#
# Convention : Reuss Voigt Hill
#
# Bulk Modulus (GPa) = 54.28688 56.26886 55.27787
# Shear Modulus (GPa) = 34.34807 15.13005 24.73906
#
# Velocity S-wave (km/s) = 4.24707 2.81876 3.60437
# Velocity P-wave (km/s) = 7.24971 6.33585 6.80813
#
# Compressibility (1/GPa) = 0.01842066
#
# Stress axis : x y z
#
# Youngs Moduli (GPa) = 106.67155 75.96834 63.97101
#
# Poissons Ratio (x) = 0.20087 0.17489
# Poissons Ratio (y) = 0.28205 0.28766
# Poissons Ratio (z) = 0.29163 0.34161
#
# Static dielectric constant tensor:
#      x y z
#    x 1.679770 0.000000 0.000000 
#    y 0.000000 1.738980 0.000000 
#    z 0.000000 0.000000 1.644110 
# 
# From -- ./inp_files/42714.got.cif
#   From: 2010.05.17/outbox.cif.g08.bks.cpg/sg72_22_cif.got.tgz:42714.got - 2010.06.03 17:03:01.
