data_PCOD9528975
_publ_section_title
;
Structure prediction by ZEFSAII (Michael W. Deem and Ramdas Pophale) SiO2 
 PCOD9528975
Probable space group: I B A M
;
_chemical_formula_sum "Si O2"
_cell_formula_units_Z 96
_cell_length_a 21.014282
_cell_length_b 17.247743
_cell_length_c 16.877050
_cell_angle_alpha 90.000000
_cell_angle_beta 90.000000
_cell_angle_gamma 90.000000
_cell_volume 6117.068803
_symmetry_space_group_name_H-M "I B A M"
_symmetry_group_IT_number 72
_symmetry_cell_setting 'orthorhombic'
loop_
_space_group_symop_operation_xyz
x,y,z
-x,-y,z
x,-y,1/2-z
-x,y,1/2-z
-x,-y,-z
x,y,-z
-x,y,1/2+z
x,-y,1/2+z
1/2+x,1/2+y,1/2+z
1/2-x,1/2-y,1/2+z
1/2+x,1/2-y,-z
1/2-x,1/2+y,-z
1/2-x,1/2-y,1/2-z
1/2+x,1/2+y,1/2-z
1/2-x,1/2+y,z
1/2+x,1/2-y,z
loop_
_atom_site_type_symbol
_atom_site_label
_atom_site_fract_x
_atom_site_fract_y
_atom_site_fract_z
Si Si1 0.263062 0.947275 0.829650
Si Si2 0.386797 0.399424 0.409759
Si Si3 0.232788 0.401113 0.589680
Si Si4 0.189827 0.693305 0.759967
Si Si5 0.070405 0.195734 0.242292
Si Si6 0.382726 0.551998 0.670123
O O1 0.304121 0.872633 0.807885
O O2 0.190099 0.923129 0.845978
O O3 0.261341 0.000000 0.750000
O O4 0.284018 0.008393 0.895891
O O5 0.400728 0.376920 0.500000
O O6 0.309662 0.395936 0.397673
O O7 0.417680 0.345979 0.342528
O O8 0.404631 0.489760 0.394724
O O9 0.218991 0.377597 0.500000
O O10 0.198917 0.349580 0.655891
O O11 0.250000 0.750000 0.750000
O O12 0.125758 0.742065 0.754367
O O13 0.077421 0.127399 0.308068
O O14 0.000000 0.228811 0.250000
O O15 0.381670 0.500000 0.750000
#
# Coordination Sequence:
#
# PCOD9528975 Si02
#       6
#    16  16  16  16  16  16
#     4   8  14  27  49  69  88 122 162 202 244 286
#     4   9  17  31  50  73 101 133 168 204 242 290
#     4   9  17  31  52  79 102 125 163 213 254 289
#     4  11  17  31  53  73  99 135 167 200 250 300
#     4  11  21  32  47  72 103 139 172 200 241 300
#     4   8  14  27  45  66  92 125 164 194 230 288
#
# _framework density 15.693792
#
# number of rings (size 3 to 8) (size 9 to 14) (size 15 to 20)
#    0.000    2.667    3.333    2.000    0.000    3.000 
#    0.000    5.000    0.000    4.500    0.000    1.167 
#    0.000    0.000    0.000    0.000    0.000    0.000 
#
# Total GULP energy -267251.852285 kJ/mol
# GULP energy per Si atom -5567.746923 kJ/mol
# Density = 1.565807 g / cm^3
# Si number density = 15.693792 Si / 1000 Ang^3
#
#
#
# Elastic Constant Matrix: (Units=GPa)
#
#
# Indices 1 2 3 4 5 6 
#
# 1 85.5067 45.8360 25.7604 0.0000 0.0000 0.0000
# 2 45.8360 72.0326 28.0902 0.0000 0.0000 0.0000
# 3 25.7604 28.0902 80.8450 0.0000 0.0000 0.0000
# 4 0.0000 0.0000 0.0000 17.7864 0.0000 0.0000
# 5 0.0000 0.0000 0.0000 0.0000 7.8114 0.0000
# 6 0.0000 0.0000 0.0000 0.0000 0.0000 16.7743
#
#
#
# Elastic Compliance Matrix: (Units=1/GPa)
#
#
# Indices 1 2 3 4 5 6 
#
# 1 0.018034 -0.010682 -0.002035 0.000000 0.000000 0.000000
# 2 -0.010682 0.022386 -0.004374 0.000000 0.000000 0.000000
# 3 -0.002035 -0.004374 0.014538 0.000000 0.000000 0.000000
# 4 0.000000 0.000000 0.000000 0.056223 0.000000 0.000000
# 5 0.000000 0.000000 0.000000 0.000000 0.128019 0.000000
# 6 0.000000 0.000000 0.000000 0.000000 0.000000 0.059615
#
#
# Mechanical properties :
#
#
# Convention : Reuss Voigt Hill
#
# Bulk Modulus (GPa) = 48.13476 48.63972 48.38724
# Shear Modulus (GPa) = 14.70930 17.72093 16.21511
#
# Velocity S-wave (km/s) = 3.06481 3.36396 3.21786
# Velocity P-wave (km/s) = 6.57737 6.79327 6.68619
#
# Compressibility (1/GPa) = 0.02077501
#
# Stress axis : x y z
#
# Youngs Moduli (GPa) = 55.45045 44.67143 68.78700
#
# Poissons Ratio (x) = 0.47718 0.13997
# Poissons Ratio (y) = 0.59232 0.30090
# Poissons Ratio (z) = 0.11283 0.19541
#
# Static dielectric constant tensor:
#      x y z
#    x 1.515110 0.000000 0.000000 
#    y 0.000000 1.539570 0.000000 
#    z 0.000000 0.000000 1.553520 
# 
# From -- ./inp_files/31640.got.cif
#   From: 2010.05.17/outbox.cif.g08.bks.cpg/sg72_16_cif.got.tgz:31640.got - 2010.06.03 17:03:01.
