data_PCOD9528098
_publ_section_title
;
Structure prediction by ZEFSAII (Michael W. Deem and Ramdas Pophale) SiO2 
 PCOD9528098
Probable space group: I B A M
;
_chemical_formula_sum "Si O2"
_cell_formula_units_Z 96
_cell_length_a 21.052449
_cell_length_b 27.298898
_cell_length_c 8.457352
_cell_angle_alpha 90.000000
_cell_angle_beta 90.000000
_cell_angle_gamma 90.000000
_cell_volume 4860.513417
_symmetry_space_group_name_H-M "I B A M"
_symmetry_group_IT_number 72
_symmetry_cell_setting 'orthorhombic'
loop_
_space_group_symop_operation_xyz
x,y,z
-x,-y,z
x,-y,1/2-z
-x,y,1/2-z
-x,-y,-z
x,y,-z
-x,y,1/2+z
x,-y,1/2+z
1/2+x,1/2+y,1/2+z
1/2-x,1/2-y,1/2+z
1/2+x,1/2-y,-z
1/2-x,1/2+y,-z
1/2-x,1/2-y,1/2-z
1/2+x,1/2+y,1/2-z
1/2-x,1/2+y,z
1/2+x,1/2-y,z
loop_
_atom_site_type_symbol
_atom_site_label
_atom_site_fract_x
_atom_site_fract_y
_atom_site_fract_z
Si Si1 0.433862 0.394216 0.684997
Si Si2 0.786712 0.795109 0.179846
Si Si3 0.915302 0.209564 0.179500
Si Si4 0.698158 0.555214 0.692573
Si Si5 0.813799 0.617797 0.679591
Si Si6 0.431492 0.820494 0.188015
O O1 0.500000 0.416071 0.750000
O O2 0.433204 0.403041 0.500000
O O3 0.438359 0.335883 0.716076
O O4 0.365694 0.415040 0.745173
O O5 0.750000 0.750000 0.250000
O O6 0.841104 0.801784 0.307113
O O7 0.737993 0.839044 0.169935
O O8 0.811942 0.786821 0.000000
O O9 0.923428 0.265174 0.241388
O O10 0.938854 0.206752 0.000000
O O11 0.690443 0.500000 0.750000
O O12 0.700155 0.558414 0.500000
O O13 0.767432 0.575541 0.748591
O O14 0.833325 0.604455 0.500000
O O15 0.874782 0.642427 0.762908
O O16 0.500000 0.838217 0.250000
O O17 0.432297 0.816071 0.000000
#
# Coordination Sequence:
#
# PCOD9528098 Si02
#       6
#    16  16  16  16  16  16
#     4  11  23  41  60  86 122 163 206 251 300 351
#     4  11  20  33  55  84 119 156 199 243 292 346
#     4  12  23  36  56  85 123 165 207 247 288 345
#     4  10  23  43  66  90 119 151 195 251 307 363
#     4  10  21  40  62  86 119 157 197 248 303 357
#     4  12  25  40  60  88 124 164 204 245 295 359
#
# _framework density 19.751000999999999
#
# number of rings (size 3 to 8) (size 9 to 14) (size 15 to 20)
#    0.000    1.000    3.333    4.500    0.000    3.000 
#    0.000    1.667    0.000    0.500    0.000    3.500 
#    0.000    0.000    0.000    0.000    0.000    0.000 
#
# Total GULP energy -267482.870901 kJ/mol
# GULP energy per Si atom -5572.559810 kJ/mol
# Density = 1.970605 g / cm^3
# Si number density = 19.751001 Si / 1000 Ang^3
#
#
#
# Elastic Constant Matrix: (Units=GPa)
#
#
# Indices 1 2 3 4 5 6 
#
# 1 145.2957 47.0939 27.4941 0.0000 0.0000 0.0000
# 2 47.0939 83.1934 11.8191 0.0000 0.0000 0.0000
# 3 27.4941 11.8191 72.6106 0.0000 0.0000 0.0000
# 4 0.0000 0.0000 0.0000 21.6240 0.0000 0.0000
# 5 0.0000 0.0000 0.0000 0.0000 32.4351 0.0000
# 6 0.0000 0.0000 0.0000 0.0000 0.0000 -0.0421
#
#
#
# Elastic Compliance Matrix: (Units=1/GPa)
#
#
# Indices 1 2 3 4 5 6 
#
# 1 0.008886 -0.004660 -0.002606 0.000000 0.000000 0.000000
# 2 -0.004660 0.014748 -0.000636 0.000000 0.000000 0.000000
# 3 -0.002606 -0.000636 0.014862 0.000000 0.000000 0.000000
# 4 0.000000 0.000000 0.000000 0.046245 0.000000 0.000000
# 5 0.000000 0.000000 0.000000 0.000000 0.030831 0.000000
# 6 0.000000 0.000000 0.000000 0.000000 0.000000-23.730517
#
#
# Mechanical properties :
#
#
# Convention : Reuss Voigt Hill
#
# Bulk Modulus (GPa) = 44.06763 52.65708 48.36235
# Shear Modulus (GPa) = -0.21194 25.11623 12.45215
#
# Velocity S-wave (km/s) = -0.32793 3.56988 2.51361
# Velocity P-wave (km/s) = 4.71345 6.61138 5.74139
#
# Compressibility (1/GPa) = 0.02269239
#
# Stress axis : x y z
#
# Youngs Moduli (GPa) = 112.53536 67.80369 67.28344
#
# Poissons Ratio (x) = 0.31596 0.17535
# Poissons Ratio (y) = 0.52441 0.04280
# Poissons Ratio (z) = 0.29329 0.04313
#
# Static dielectric constant tensor:
#      x y z
#    x 1.750770 0.000000 0.000000 
#    y 0.000000 1.674780 0.000000 
#    z 0.000000 0.000000 1.793800 
# 
# From -- ./inp_files/6001.got.cif
#   From: 2010.05.17/outbox.cif.g08.bks.cpg/sg72_4_cif.got.tgz:6001.got - 2010.06.03 17:03:01.
