data_PCOD9528145
_publ_section_title
;
Structure prediction by ZEFSAII (Michael W. Deem and Ramdas Pophale) SiO2 
 PCOD9528145
Probable space group: I B A M
;
_chemical_formula_sum "Si O2"
_cell_formula_units_Z 88
_cell_length_a 10.151866
_cell_length_b 23.435218
_cell_length_c 19.221108
_cell_angle_alpha 90.000000
_cell_angle_beta 90.000000
_cell_angle_gamma 90.000000
_cell_volume 4572.916732
_symmetry_space_group_name_H-M "I B A M"
_symmetry_group_IT_number 72
_symmetry_cell_setting 'orthorhombic'
loop_
_space_group_symop_operation_xyz
x,y,z
-x,-y,z
x,-y,1/2-z
-x,y,1/2-z
-x,-y,-z
x,y,-z
-x,y,1/2+z
x,-y,1/2+z
1/2+x,1/2+y,1/2+z
1/2-x,1/2-y,1/2+z
1/2+x,1/2-y,-z
1/2-x,1/2+y,-z
1/2-x,1/2-y,1/2-z
1/2+x,1/2+y,1/2-z
1/2-x,1/2+y,z
1/2+x,1/2-y,z
loop_
_atom_site_type_symbol
_atom_site_label
_atom_site_fract_x
_atom_site_fract_y
_atom_site_fract_z
Si Si1 0.361124 0.644119 0.080851
Si Si2 0.877468 0.421246 0.367204
Si Si3 0.802196 0.273088 0.176582
Si Si4 0.659196 0.664729 0.920350
Si Si5 0.338828 0.042791 0.918653
Si Si6 0.500000 0.854397 0.250000
O O1 0.305564 0.690717 0.134165
O O2 0.516709 0.635726 0.089117
O O3 0.279004 0.586616 0.092317
O O4 0.337528 0.661844 0.000000
O O5 0.777015 0.378994 0.405086
O O6 0.828026 0.486176 0.372277
O O7 0.022886 0.426040 0.401618
O O8 0.899286 0.394954 0.290958
O O9 0.750000 0.250000 0.250000
O O10 0.837122 0.218809 0.130062
O O11 0.924893 0.314063 0.195133
O O12 0.668841 0.684357 0.000000
O O13 0.340592 0.025342 0.000000
#
# Coordination Sequence:
#
# PCOD9528145 Si02
#       6
#    16  16  16  16  16   8
#     4  10  23  42  64  95 130 167 210 265 323 378
#     4  11  22  41  63  95 126 165 215 257 317 378
#     4  12  23  43  62  90 130 170 214 260 320 375
#     4  11  24  41  66  97 129 167 211 262 321 384
#     4  10  21  40  67  94 126 164 210 268 319 375
#     4  12  24  41  62  94 124 177 212 264 312 382
#
# _framework density 19.243735000000001
#
# number of rings (size 3 to 8) (size 9 to 14) (size 15 to 20)
#    0.000    1.091    3.636    3.818    0.000    2.182 
#    0.000    2.727    0.000    0.000    0.000    0.000 
#    0.000    0.000    0.000    0.000    0.000    0.000 
#
# Total GULP energy -245844.748473 kJ/mol
# GULP energy per Si atom -5587.380647 kJ/mol
# Density = 1.919994 g / cm^3
# Si number density = 19.243735 Si / 1000 Ang^3
#
#
#
# Elastic Constant Matrix: (Units=GPa)
#
#
# Indices 1 2 3 4 5 6 
#
# 1 83.6524 68.4845 57.7725 0.0000 0.0000 0.0000
# 2 68.4845 131.1545 72.5027 0.0000 0.0000 0.0000
# 3 57.7725 72.5027 102.5118 0.0000 0.0000 0.0000
# 4 0.0000 0.0000 0.0000 29.5486 0.0000 0.0000
# 5 0.0000 0.0000 0.0000 0.0000 26.8529 0.0000
# 6 0.0000 0.0000 0.0000 0.0000 0.0000 20.6206
#
#
#
# Elastic Compliance Matrix: (Units=1/GPa)
#
#
# Indices 1 2 3 4 5 6 
#
# 1 0.024073 -0.008325 -0.007679 0.000000 0.000000 0.000000
# 2 -0.008325 0.015399 -0.006199 0.000000 0.000000 0.000000
# 3 -0.007679 -0.006199 0.018467 0.000000 0.000000 0.000000
# 4 0.000000 0.000000 0.000000 0.033843 0.000000 0.000000
# 5 0.000000 0.000000 0.000000 0.000000 0.037240 0.000000
# 6 0.000000 0.000000 0.000000 0.000000 0.000000 0.048495
#
#
# Mechanical properties :
#
#
# Convention : Reuss Voigt Hill
#
# Bulk Modulus (GPa) = 73.89609 79.42645 76.66127
# Shear Modulus (GPa) = 22.08160 23.30834 22.69497
#
# Velocity S-wave (km/s) = 3.39111 3.48403 3.43788
# Velocity P-wave (km/s) = 7.33596 7.58605 7.46205
#
# Compressibility (1/GPa) = 0.01353251
#
# Stress axis : x y z
#
# Youngs Moduli (GPa) = 41.54019 64.94087 54.15162
#
# Poissons Ratio (x) = 0.54066 0.41581
# Poissons Ratio (y) = 0.34584 0.33568
# Poissons Ratio (z) = 0.31897 0.40256
#
# Static dielectric constant tensor:
#      x y z
#    x 1.670030 0.000000 0.000000 
#    y 0.000000 1.653870 0.000000 
#    z 0.000000 0.000000 1.676770 
# 
# From -- ./inp_files/35860.got.cif
#   From: 2010.05.17/outbox.cif.g08.bks.cpg/sg72_18_cif.got.tgz:35860.got - 2010.06.03 17:03:01.
