data_PCOD9528660
_publ_section_title
;
Structure prediction by ZEFSAII (Michael W. Deem and Ramdas Pophale) SiO2 
 PCOD9528660
Probable space group: I B A M
;
_chemical_formula_sum "Si O2"
_cell_formula_units_Z 96
_cell_length_a 8.641276
_cell_length_b 21.323732
_cell_length_c 24.843023
_cell_angle_alpha 90.000000
_cell_angle_beta 90.000000
_cell_angle_gamma 90.000000
_cell_volume 4577.681089
_symmetry_space_group_name_H-M "I B A M"
_symmetry_group_IT_number 72
_symmetry_cell_setting 'orthorhombic'
loop_
_space_group_symop_operation_xyz
x,y,z
-x,-y,z
x,-y,1/2-z
-x,y,1/2-z
-x,-y,-z
x,y,-z
-x,y,1/2+z
x,-y,1/2+z
1/2+x,1/2+y,1/2+z
1/2-x,1/2-y,1/2+z
1/2+x,1/2-y,-z
1/2-x,1/2+y,-z
1/2-x,1/2-y,1/2-z
1/2+x,1/2+y,1/2-z
1/2-x,1/2+y,z
1/2+x,1/2-y,z
loop_
_atom_site_type_symbol
_atom_site_label
_atom_site_fract_x
_atom_site_fract_y
_atom_site_fract_z
Si Si1 0.078612 0.330569 0.063750
Si Si2 0.040088 0.073424 0.558761
Si Si3 0.371574 0.955651 0.098522
Si Si4 0.346648 0.259712 0.120061
Si Si5 0.898171 0.843623 0.153971
Si Si6 0.176214 0.975453 0.308386
O O1 0.041102 0.389269 0.103335
O O2 0.243105 0.304213 0.082962
O O3 0.962501 0.275578 0.080244
O O4 0.067197 0.344164 0.000000
O O5 0.997844 0.097054 0.500000
O O6 0.224590 0.068032 0.565069
O O7 0.948734 0.115273 0.601493
O O8 0.000000 0.000000 0.562865
O O9 0.500000 0.000000 0.072563
O O10 0.294234 0.993656 0.148277
O O11 0.236114 0.207222 0.145851
O O12 0.445960 0.301958 0.162055
O O13 0.840492 0.900020 0.191897
O O14 0.222709 0.000000 0.250000
O O15 0.000000 0.000000 0.318655
#
# Coordination Sequence:
#
# PCOD9528660 Si02
#       6
#    16  16  16  16  16  16
#     4  11  22  36  55  84 122 168 217 254 303 378
#     4  11  22  37  60  89 126 171 213 258 314 381
#     4  12  23  39  59  91 129 163 207 274 332 377
#     4  10  23  36  61  84 127 171 208 257 303 370
#     4  11  20  43  61  95 126 166 213 258 317 375
#     4  11  22  42  73  94 116 160 212 272 333 399
#
# _framework density 20.971316999999999
#
# number of rings (size 3 to 8) (size 9 to 14) (size 15 to 20)
#    0.000    1.000    5.000    2.000    0.000    5.000 
#    0.000    0.000    0.000   18.000    0.000    0.000 
#    0.000    0.000    0.000    0.000    0.000    0.000 
#
# Total GULP energy -267471.737294 kJ/mol
# GULP energy per Si atom -5572.327860 kJ/mol
# Density = 2.092359 g / cm^3
# Si number density = 20.971317 Si / 1000 Ang^3
#
#
#
# Elastic Constant Matrix: (Units=GPa)
#
#
# Indices 1 2 3 4 5 6 
#
# 1 66.8127 55.0752 11.1057 0.0000 0.0000 0.0000
# 2 55.0752 169.7910 31.6212 0.0000 0.0000 0.0000
# 3 11.1057 31.6212 44.6238 0.0000 0.0000 0.0000
# 4 0.0000 0.0000 0.0000 13.6973 0.0000 0.0000
# 5 0.0000 0.0000 0.0000 0.0000 3.5774 0.0000
# 6 0.0000 0.0000 0.0000 0.0000 0.0000 41.2777
#
#
#
# Elastic Compliance Matrix: (Units=1/GPa)
#
#
# Indices 1 2 3 4 5 6 
#
# 1 0.020438 -0.006546 -0.000448 0.000000 0.000000 0.000000
# 2 -0.006546 0.008882 -0.004665 0.000000 0.000000 0.000000
# 3 -0.000448 -0.004665 0.025826 0.000000 0.000000 0.000000
# 4 0.000000 0.000000 0.000000 0.073007 0.000000 0.000000
# 5 0.000000 0.000000 0.000000 0.000000 0.279530 0.000000
# 6 0.000000 0.000000 0.000000 0.000000 0.000000 0.024226
#
#
# Mechanical properties :
#
#
# Convention : Reuss Voigt Hill
#
# Bulk Modulus (GPa) = 31.41789 52.98129 42.19959
# Shear Modulus (GPa) = 10.73340 23.93885 17.33613
#
# Velocity S-wave (km/s) = 2.26478 3.38228 2.87829
# Velocity P-wave (km/s) = 4.67471 6.36959 5.58679
#
# Compressibility (1/GPa) = 0.03182900
#
# Stress axis : x y z
#
# Youngs Moduli (GPa) = 48.92936 112.59215 38.72006
#
# Poissons Ratio (x) = 0.73702 0.01734
# Poissons Ratio (y) = 0.32029 0.18061
# Poissons Ratio (z) = 0.02191 0.52519
#
# Static dielectric constant tensor:
#      x y z
#    x 1.824630 0.000000 0.000000 
#    y 0.000000 1.878960 0.000000 
#    z 0.000000 0.000000 1.745260 
# 
# From -- ./inp_files/47344.got.cif
#   From: 2010.05.17/outbox.cif.g08.bks.cpg/sg72_24_cif.got.tgz:47344.got - 2010.06.03 17:03:01.
