data_PCOD9528416
_publ_section_title
;
Structure prediction by ZEFSAII (Michael W. Deem and Ramdas Pophale) SiO2 
 PCOD9528416
Probable space group: I B A M
;
_chemical_formula_sum "Si O2"
_cell_formula_units_Z 72
_cell_length_a 26.508288
_cell_length_b 13.213069
_cell_length_c 9.022315
_cell_angle_alpha 90.000000
_cell_angle_beta 90.000000
_cell_angle_gamma 90.000000
_cell_volume 3160.118505
_symmetry_space_group_name_H-M "I B A M"
_symmetry_group_IT_number 72
_symmetry_cell_setting 'orthorhombic'
loop_
_space_group_symop_operation_xyz
x,y,z
-x,-y,z
x,-y,1/2-z
-x,y,1/2-z
-x,-y,-z
x,y,-z
-x,y,1/2+z
x,-y,1/2+z
1/2+x,1/2+y,1/2+z
1/2-x,1/2-y,1/2+z
1/2+x,1/2-y,-z
1/2-x,1/2+y,-z
1/2-x,1/2-y,1/2-z
1/2+x,1/2+y,1/2-z
1/2-x,1/2+y,z
1/2+x,1/2-y,z
loop_
_atom_site_type_symbol
_atom_site_label
_atom_site_fract_x
_atom_site_fract_y
_atom_site_fract_z
Si Si1 0.266566 0.500000 0.750000
Si Si2 0.572782 0.898407 0.830634
Si Si3 0.448503 0.668008 0.320891
Si Si4 0.689455 0.843530 0.825983
Si Si5 0.153239 0.853739 0.663986
O O1 0.226996 0.408911 0.775900
O O2 0.307554 0.555068 0.851809
O O3 0.555450 0.787775 0.777231
O O4 0.633752 0.892060 0.825445
O O5 0.556738 0.000000 0.750000
O O6 0.556429 0.905760 0.000000
O O7 0.500000 0.627917 0.250000
O O8 0.447856 0.660273 0.500000
O O9 0.398151 0.620895 0.250445
O O10 0.681130 0.732496 0.760140
O O11 0.706082 0.841863 0.000000
O O12 0.140448 0.814524 0.500000
#
# Coordination Sequence:
#
# PCOD9528416 Si02
#       5
#     8  16  16  16  16
#     4  12  24  40  63  94 129 170 216 260 314 376
#     4   9  18  33  55  87 123 161 202 250 307 372
#     4  10  22  42  65  89 122 163 209 265 327 381
#     4  10  22  40  62  91 130 174 214 260 318 374
#     4  11  25  42  65  97 130 168 215 266 320 381
#
# _framework density 22.783956
#
# number of rings (size 3 to 8) (size 9 to 14) (size 15 to 20)
#    0.000    1.778    1.111    4.000    0.000   10.222 
#    0.000    2.778    0.000    2.667    0.000    0.000 
#    0.000    0.000    0.000    0.000    0.000    0.000 
#
# Total GULP energy -200760.376418 kJ/mol
# GULP energy per Si atom -5576.677123 kJ/mol
# Density = 2.273210 g / cm^3
# Si number density = 22.783956 Si / 1000 Ang^3
#
#
#
# Elastic Constant Matrix: (Units=GPa)
#
#
# Indices 1 2 3 4 5 6 
#
# 1 166.4668 39.7574 45.8269 0.0000 0.0000 0.0000
# 2 39.7574 78.8386 50.7778 0.0000 0.0000 0.0000
# 3 45.8269 50.7778 70.8047 0.0000 0.0000 0.0000
# 4 0.0000 0.0000 0.0000 7.4378 0.0000 0.0000
# 5 0.0000 0.0000 0.0000 0.0000 11.1829 0.0000
# 6 0.0000 0.0000 0.0000 0.0000 0.0000 -19.6881
#
#
#
# Elastic Compliance Matrix: (Units=1/GPa)
#
#
# Indices 1 2 3 4 5 6 
#
# 1 0.007370 -0.001197 -0.003911 0.000000 0.000000 0.000000
# 2 -0.001197 0.023767 -0.016269 0.000000 0.000000 0.000000
# 3 -0.003911 -0.016269 0.028322 0.000000 0.000000 0.000000
# 4 0.000000 0.000000 0.000000 0.134449 0.000000 0.000000
# 5 0.000000 0.000000 0.000000 0.000000 0.089422 0.000000
# 6 0.000000 0.000000 0.000000 0.000000 0.000000 -0.050792
#
#
# Mechanical properties :
#
#
# Convention : Reuss Voigt Hill
#
# Bulk Modulus (GPa) = 59.86966 65.42604 62.64785
# Shear Modulus (GPa) = 17.80239 11.76972 14.78605
#
# Velocity S-wave (km/s) = 2.79831 2.27530 2.55025
# Velocity P-wave (km/s) = 6.06423 5.97335 6.01896
#
# Compressibility (1/GPa) = 0.01670295
#
# Stress axis : x y z
#
# Youngs Moduli (GPa) = 135.68639 42.07583 35.30765
#
# Poissons Ratio (x) = 0.05038 0.13810
# Poissons Ratio (y) = 0.16247 0.57443
# Poissons Ratio (z) = 0.53071 0.68454
#
# Static dielectric constant tensor:
#      x y z
#    x 1.862060 0.000000 0.000000 
#    y 0.000000 1.864800 0.000000 
#    z 0.000000 0.000000 1.830070 
# 
# From -- ./inp_files/3837.got.cif
#   From: 2010.05.17/outbox.cif.g08.bks.cpg/sg72_2_cif.got.tgz:3837.got - 2010.06.03 17:03:01.
