data_PCOD9528457
_publ_section_title
;
Structure prediction by ZEFSAII (Michael W. Deem and Ramdas Pophale) SiO2 
 PCOD9528457
Probable space group: I B A M
;
_chemical_formula_sum "Si O2"
_cell_formula_units_Z 56
_cell_length_a 7.943184
_cell_length_b 12.532689
_cell_length_c 25.894220
_cell_angle_alpha 90.000000
_cell_angle_beta 90.000000
_cell_angle_gamma 90.000000
_cell_volume 2577.755482
_symmetry_space_group_name_H-M "I B A M"
_symmetry_group_IT_number 72
_symmetry_cell_setting 'orthorhombic'
loop_
_space_group_symop_operation_xyz
x,y,z
-x,-y,z
x,-y,1/2-z
-x,y,1/2-z
-x,-y,-z
x,y,-z
-x,y,1/2+z
x,-y,1/2+z
1/2+x,1/2+y,1/2+z
1/2-x,1/2-y,1/2+z
1/2+x,1/2-y,-z
1/2-x,1/2+y,-z
1/2-x,1/2-y,1/2-z
1/2+x,1/2+y,1/2-z
1/2-x,1/2+y,z
1/2+x,1/2-y,z
loop_
_atom_site_type_symbol
_atom_site_label
_atom_site_fract_x
_atom_site_fract_y
_atom_site_fract_z
Si Si1 0.912309 0.167038 0.695899
Si Si2 0.444733 0.122488 0.836713
Si Si3 0.000000 0.000000 0.610700
Si Si4 0.164798 0.425274 0.442918
O O1 0.719604 0.132547 0.698277
O O2 0.999701 0.100546 0.649714
O O3 0.000000 0.146643 0.750000
O O4 0.921970 0.291752 0.681796
O O5 0.382267 0.150511 0.894986
O O6 0.500000 0.000000 0.836349
O O7 0.831677 0.011814 0.576258
O O8 0.194482 0.378625 0.500000
O O9 0.000000 0.500000 0.446800
#
# Coordination Sequence:
#
# PCOD9528457 Si02
#       4
#    16  16   8  16
#     4  11  24  43  67  96 138 178 230 277 343 404
#     4  10  24  43  67  99 135 174 229 281 336 410
#     4  10  22  40  66  94 134 170 226 276 336 402
#     4   9  19  39  65  92 129 168 217 277 336 397
#
# _framework density 21.724326999999999
#
# number of rings (size 3 to 8) (size 9 to 14) (size 15 to 20)
#    0.000    2.000    0.000    1.714   12.000    0.571 
#   10.286    7.143    0.000    0.000    0.000    0.000 
#    0.000    0.000    0.000    0.000    0.000    0.000 
#
# Total GULP energy -156379.622094 kJ/mol
# GULP energy per Si atom -5584.986503 kJ/mol
# Density = 2.167488 g / cm^3
# Si number density = 21.724327 Si / 1000 Ang^3
#
#
#
# Elastic Constant Matrix: (Units=GPa)
#
#
# Indices 1 2 3 4 5 6 
#
# 1 114.4825 35.1373 51.9524 0.0000 0.0000 0.0000
# 2 35.1373 101.1965 40.2108 0.0000 0.0000 0.0000
# 3 51.9524 40.2108 128.8677 0.0000 0.0000 0.0000
# 4 0.0000 0.0000 0.0000 14.6504 0.0000 0.0000
# 5 0.0000 0.0000 0.0000 0.0000 41.8876 0.0000
# 6 0.0000 0.0000 0.0000 0.0000 0.0000 18.8328
#
#
#
# Elastic Compliance Matrix: (Units=1/GPa)
#
#
# Indices 1 2 3 4 5 6 
#
# 1 0.011174 -0.002386 -0.003760 0.000000 0.000000 0.000000
# 2 -0.002386 0.011790 -0.002717 0.000000 0.000000 0.000000
# 3 -0.003760 -0.002717 0.010124 0.000000 0.000000 0.000000
# 4 0.000000 0.000000 0.000000 0.068258 0.000000 0.000000
# 5 0.000000 0.000000 0.000000 0.000000 0.023873 0.000000
# 6 0.000000 0.000000 0.000000 0.000000 0.000000 0.053099
#
#
# Mechanical properties :
#
#
# Convention : Reuss Voigt Hill
#
# Bulk Modulus (GPa) = 65.09870 66.57196 65.83533
# Shear Modulus (GPa) = 24.85553 29.55724 27.20638
#
# Velocity S-wave (km/s) = 3.38617 3.69258 3.54269
# Velocity P-wave (km/s) = 6.73195 6.99219 6.86330
#
# Compressibility (1/GPa) = 0.01536129
#
# Stress axis : x y z
#
# Youngs Moduli (GPa) = 89.49737 84.81988 98.77912
#
# Poissons Ratio (x) = 0.20234 0.37143
# Poissons Ratio (y) = 0.21350 0.26839
# Poissons Ratio (z) = 0.33653 0.23046
#
# Static dielectric constant tensor:
#      x y z
#    x 1.811690 0.000000 0.000000 
#    y 0.000000 1.810970 0.000000 
#    z 0.000000 0.000000 1.841770 
# 
# From -- ./inp_files/46859.got.cif
#   From: 2010.05.17/outbox.cif.g08.bks.cpg/sg72_24_cif.got.tgz:46859.got - 2010.06.03 17:03:01.
