data_PCOD9528950
_publ_section_title
;
Structure prediction by ZEFSAII (Michael W. Deem and Ramdas Pophale) SiO2 
 PCOD9528950
Probable space group: I B A M
;
_chemical_formula_sum "Si O2"
_cell_formula_units_Z 80
_cell_length_a 9.473104
_cell_length_b 24.741990
_cell_length_c 16.365958
_cell_angle_alpha 90.000000
_cell_angle_beta 90.000000
_cell_angle_gamma 90.000000
_cell_volume 3835.909608
_symmetry_space_group_name_H-M "I B A M"
_symmetry_group_IT_number 72
_symmetry_cell_setting 'orthorhombic'
loop_
_space_group_symop_operation_xyz
x,y,z
-x,-y,z
x,-y,1/2-z
-x,y,1/2-z
-x,-y,-z
x,y,-z
-x,y,1/2+z
x,-y,1/2+z
1/2+x,1/2+y,1/2+z
1/2-x,1/2-y,1/2+z
1/2+x,1/2-y,-z
1/2-x,1/2+y,-z
1/2-x,1/2-y,1/2-z
1/2+x,1/2+y,1/2-z
1/2-x,1/2+y,z
1/2+x,1/2-y,z
loop_
_atom_site_type_symbol
_atom_site_label
_atom_site_fract_x
_atom_site_fract_y
_atom_site_fract_z
Si Si1 0.917743 0.184452 0.500000
Si Si2 0.693577 0.052597 0.591523
Si Si3 0.009286 0.916860 0.090565
Si Si4 0.723734 0.045773 0.177797
Si Si5 0.999454 0.360457 0.836677
Si Si6 0.924381 0.297420 0.000000
O O1 0.748662 0.197127 0.500000
O O2 0.961117 0.145560 0.423422
O O3 0.016294 0.236574 0.500000
O O4 0.659821 0.070586 0.500000
O O5 0.626809 0.095988 0.652000
O O6 0.862103 0.053131 0.601808
O O7 0.656161 0.990846 0.606097
O O8 0.119477 0.933616 0.158491
O O9 0.068785 0.931678 0.000000
O O10 0.632585 0.100026 0.173707
O O11 0.718098 0.000000 0.250000
O O12 0.000000 0.329448 0.750000
O O13 0.987405 0.324778 0.917718
#
# Coordination Sequence:
#
# PCOD9528950 Si02
#       6
#     8  16  16  16  16   8
#     4  10  24  48  79 105 130 184 253 309 381 434
#     4  11  21  41  63  92 140 187 230 280 352 435
#     4   9  21  43  65  99 136 177 245 291 347 445
#     4  12  25  36  62 105 146 192 232 279 349 434
#     4  12  25  45  65 103 146 186 244 299 356 448
#     4  12  26  50  81  97 138 192 243 327 385 414
#
# _framework density 20.855547999999999
#
# number of rings (size 3 to 8) (size 9 to 14) (size 15 to 20)
#    0.600    0.400    5.000    1.800    5.600    4.000 
#    0.000    1.000    4.400    0.000    0.000    0.000 
#    0.000    0.000    0.000    0.000    0.000    0.000 
#
# Total GULP energy -222817.198553 kJ/mol
# GULP energy per Si atom -5570.429964 kJ/mol
# Density = 2.080808 g / cm^3
# Si number density = 20.855548 Si / 1000 Ang^3
#
#
#
# Elastic Constant Matrix: (Units=GPa)
#
#
# Indices 1 2 3 4 5 6 
#
# 1 101.7529 39.7240 45.3717 0.0000 0.0000 0.0000
# 2 39.7240 115.7339 33.3765 0.0000 0.0000 0.0000
# 3 45.3717 33.3765 89.4873 0.0000 0.0001 0.0000
# 4 0.0000 0.0000 0.0000 21.4620 0.0000 0.0000
# 5 0.0000 0.0000 0.0001 0.0000 26.4660 0.0000
# 6 0.0000 0.0000 0.0000 0.0000 0.0000 34.2917
#
#
#
# Elastic Compliance Matrix: (Units=1/GPa)
#
#
# Indices 1 2 3 4 5 6 
#
# 1 0.013566 -0.002995 -0.005761 0.000000 0.000000 0.000000
# 2 -0.002995 0.010343 -0.002339 0.000000 0.000000 0.000000
# 3 -0.005761 -0.002339 0.014968 0.000000 0.000000 0.000000
# 4 0.000000 0.000000 0.000000 0.046594 0.000000 0.000000
# 5 0.000000 0.000000 0.000000 0.000000 0.037784 0.000000
# 6 0.000000 0.000000 0.000000 0.000000 0.000000 0.029162
#
#
# Mechanical properties :
#
#
# Convention : Reuss Voigt Hill
#
# Bulk Modulus (GPa) = 59.92799 60.43539 60.18169
# Shear Modulus (GPa) = 27.75163 29.01073 28.38118
#
# Velocity S-wave (km/s) = 3.65178 3.73370 3.69297
# Velocity P-wave (km/s) = 6.82479 6.90133 6.86317
#
# Compressibility (1/GPa) = 0.01668669
#
# Stress axis : x y z
#
# Youngs Moduli (GPa) = 73.71493 96.68319 66.80816
#
# Poissons Ratio (x) = 0.28955 0.38489
# Poissons Ratio (y) = 0.22076 0.15628
# Poissons Ratio (z) = 0.42468 0.22617
#
# Static dielectric constant tensor:
#      x y z
#    x 1.791580 0.000000 0.000000 
#    y 0.000000 1.758250 0.000000 
#    z 0.000000 0.000000 1.912090 
# 
# From -- ./inp_files/28234.got.cif
#   From: 2010.05.17/outbox.cif.g08.bks.cpg/sg72_15_cif.got.tgz:28234.got - 2010.06.03 17:03:01.
