data_PCOD9528611
_publ_section_title
;
Structure prediction by ZEFSAII (Michael W. Deem and Ramdas Pophale) SiO2 
 PCOD9528611
Probable space group: I B A M
;
_chemical_formula_sum "Si O2"
_cell_formula_units_Z 64
_cell_length_a 10.475403
_cell_length_b 8.530090
_cell_length_c 31.471112
_cell_angle_alpha 90.000000
_cell_angle_beta 90.000000
_cell_angle_gamma 90.000000
_cell_volume 2812.136787
_symmetry_space_group_name_H-M "I B A M"
_symmetry_group_IT_number 72
_symmetry_cell_setting 'orthorhombic'
loop_
_space_group_symop_operation_xyz
x,y,z
-x,-y,z
x,-y,1/2-z
-x,y,1/2-z
-x,-y,-z
x,y,-z
-x,y,1/2+z
x,-y,1/2+z
1/2+x,1/2+y,1/2+z
1/2-x,1/2-y,1/2+z
1/2+x,1/2-y,-z
1/2-x,1/2+y,-z
1/2-x,1/2-y,1/2-z
1/2+x,1/2+y,1/2-z
1/2-x,1/2+y,z
1/2+x,1/2-y,z
loop_
_atom_site_type_symbol
_atom_site_label
_atom_site_fract_x
_atom_site_fract_y
_atom_site_fract_z
Si Si1 0.691442 0.621578 0.156160
Si Si2 0.340848 0.655159 0.902949
Si Si3 0.433215 0.829901 0.548867
Si Si4 0.878856 0.421623 0.797013
O O1 0.637052 0.515364 0.117999
O O2 0.804235 0.721491 0.134136
O O3 0.748702 0.489812 0.185971
O O4 0.616687 0.741400 0.187329
O O5 0.461560 0.718660 0.928905
O O6 0.206253 0.654687 0.929244
O O7 0.414397 0.780426 0.500000
O O8 0.500000 0.000000 0.549725
O O9 0.880770 0.500000 0.750000
O O10 0.000000 0.500000 0.819397
#
# Coordination Sequence:
#
# PCOD9528611 Si02
#       4
#    16  16  16  16
#     4  10  23  39  68  98 138 180 229 296 351 425
#     4  11  23  43  69 103 140 187 248 294 361 429
#     4  11  24  45  69 101 145 191 242 303 364 427
#     4  10  22  43  69  99 140 180 230 288 358 431
#
# _framework density 22.758493000000001
#
# number of rings (size 3 to 8) (size 9 to 14) (size 15 to 20)
#    0.000    1.500    2.500    1.500    7.000    1.000 
#    4.500    1.250    0.000    7.500    0.000    0.000 
#    0.000    0.000    0.000    0.000    0.000    0.000 
#
# Total GULP energy -178170.761936 kJ/mol
# GULP energy per Si atom -5567.836311 kJ/mol
# Density = 2.270669 g / cm^3
# Si number density = 22.758493 Si / 1000 Ang^3
#
#
#
# Elastic Constant Matrix: (Units=GPa)
#
#
# Indices 1 2 3 4 5 6 
#
# 1 138.8313 55.9849 64.6238 0.0000 0.0000 0.0000
# 2 55.9849 153.3461 57.7922 0.0000 0.0000 0.0000
# 3 64.6238 57.7922 125.0082 0.0000 0.0000 0.0000
# 4 0.0000 0.0000 0.0000 37.2193 0.0000 0.0000
# 5 0.0000 0.0000 0.0000 0.0000 -93.3182 0.0000
# 6 0.0000 0.0000 0.0000 0.0000 0.0000 52.8700
#
#
#
# Elastic Compliance Matrix: (Units=1/GPa)
#
#
# Indices 1 2 3 4 5 6 
#
# 1 0.009996 -0.002061 -0.004215 0.000000 0.000000 0.000000
# 2 -0.002061 0.008322 -0.002782 0.000000 0.000000 0.000000
# 3 -0.004215 -0.002782 0.011464 0.000000 0.000000 0.000000
# 4 0.000000 0.000000 0.000000 0.026868 0.000000 0.000000
# 5 0.000000 0.000000 0.000000 0.000000 -0.010716 0.000000
# 6 0.000000 0.000000 0.000000 0.000000 0.000000 0.018914
#
#
# Mechanical properties :
#
#
# Convention : Reuss Voigt Hill
#
# Bulk Modulus (GPa) = 85.70994 85.99859 85.85426
# Shear Modulus (GPa) = 57.56875 15.27320 36.42097
#
# Velocity S-wave (km/s) = 5.03492 2.59337 4.00475
# Velocity P-wave (km/s) = 8.45831 6.84375 7.69350
#
# Compressibility (1/GPa) = 0.01166726
#
# Stress axis : x y z
#
# Youngs Moduli (GPa) = 100.04037 120.16227 87.22687
#
# Poissons Ratio (x) = 0.24766 0.36763
# Poissons Ratio (y) = 0.20619 0.24266
# Poissons Ratio (z) = 0.42164 0.33428
#
# Static dielectric constant tensor:
#      x y z
#    x 1.845420 0.000000 0.000000 
#    y 0.000000 1.849660 0.000000 
#    z 0.000000 0.000000 10.696900 
# 
# From -- ./inp_files/50607.got.cif
#   From: 2010.05.17/outbox.cif.g08.bks.cpg/sg72_26_cif.got.tgz:50607.got - 2010.06.03 17:03:01.
