data_PCOD9528281
_publ_section_title
;
Structure prediction by ZEFSAII (Michael W. Deem and Ramdas Pophale) SiO2 
 PCOD9528281
Probable space group: I B A M
;
_chemical_formula_sum "Si O2"
_cell_formula_units_Z 60
_cell_length_a 19.430959
_cell_length_b 5.209228
_cell_length_c 26.181491
_cell_angle_alpha 90.000000
_cell_angle_beta 90.000000
_cell_angle_gamma 90.000000
_cell_volume 2650.098261
_symmetry_space_group_name_H-M "I B A M"
_symmetry_group_IT_number 72
_symmetry_cell_setting 'orthorhombic'
loop_
_space_group_symop_operation_xyz
x,y,z
-x,-y,z
x,-y,1/2-z
-x,y,1/2-z
-x,-y,-z
x,y,-z
-x,y,1/2+z
x,-y,1/2+z
1/2+x,1/2+y,1/2+z
1/2-x,1/2-y,1/2+z
1/2+x,1/2-y,-z
1/2-x,1/2+y,-z
1/2-x,1/2-y,1/2-z
1/2+x,1/2+y,1/2-z
1/2-x,1/2+y,z
1/2+x,1/2-y,z
loop_
_atom_site_type_symbol
_atom_site_label
_atom_site_fract_x
_atom_site_fract_y
_atom_site_fract_z
Si Si1 0.566328 0.817528 0.662066
Si Si2 0.000000 0.000000 0.082948
Si Si3 0.166204 0.763808 0.500000
Si Si4 0.500000 0.500000 0.750000
Si Si5 0.579904 0.779528 0.000000
Si Si6 0.709311 0.840858 0.383778
O O1 0.559313 0.602130 0.618831
O O2 0.549553 0.678022 0.715438
O O3 0.640930 0.924442 0.647767
O O4 0.500000 0.000000 0.654959
O O5 0.034102 0.786454 0.048389
O O6 0.101724 0.571174 0.500000
O O7 0.200473 0.680621 0.553982
O O8 0.141117 0.061370 0.500000
O O9 0.734228 0.555177 0.370623
#
# Coordination Sequence:
#
# PCOD9528281 Si02
#       6
#    16   8   8   4   8  16
#     4  11  24  46  76 102 138 184 240 301 368 432
#     4  10  22  36  64 102 138 182 238 296 342 412
#     4  12  22  42  62  95 152 202 237 273 333 416
#     4  10  26  46  80 108 132 170 244 310 382 438
#     4  11  22  35  62 103 139 187 243 291 336 395
#     4  12  27  45  69 106 150 196 237 286 347 421
#
# _framework density 22.640671999999999
#
# number of rings (size 3 to 8) (size 9 to 14) (size 15 to 20)
#    0.000    0.800    2.667    4.400    7.467    1.067 
#    0.000    1.333    0.000    0.000    0.000    0.000 
#    0.000    0.000    0.000    0.000    0.000    0.000 
#
# Total GULP energy -167572.802689 kJ/mol
# GULP energy per Si atom -5585.760090 kJ/mol
# Density = 2.258914 g / cm^3
# Si number density = 22.640672 Si / 1000 Ang^3
#
#
#
# Elastic Constant Matrix: (Units=GPa)
#
#
# Indices 1 2 3 4 5 6 
#
# 1 110.9700 26.5242 33.0975 0.0000 0.0000 0.0000
# 2 26.5242 71.1602 17.0721 0.0000 0.0000 0.0000
# 3 33.0975 17.0721 105.1717 0.0000 0.0000 0.0000
# 4 0.0000 0.0000 0.0000 22.5259 0.0000 0.0000
# 5 0.0000 0.0000 0.0000 0.0000 -200.0416 0.0000
# 6 0.0000 0.0000 0.0000 0.0000 0.0000 53.2642
#
#
#
# Elastic Compliance Matrix: (Units=1/GPa)
#
#
# Indices 1 2 3 4 5 6 
#
# 1 0.010637 -0.003290 -0.002813 0.000000 0.000000 0.000000
# 2 -0.003290 0.015640 -0.001503 0.000000 0.000000 0.000000
# 3 -0.002813 -0.001503 0.010638 0.000000 0.000000 0.000000
# 4 0.000000 0.000000 0.000000 0.044393 0.000000 0.000000
# 5 0.000000 0.000000 0.000000 0.000000 -0.004999 0.000000
# 6 0.000000 0.000000 0.000000 0.000000 0.000000 0.018774
#
#
# Mechanical properties :
#
#
# Convention : Reuss Voigt Hill
#
# Bulk Modulus (GPa) = 46.08081 48.96548 47.52315
# Shear Modulus (GPa) = 42.54232 -10.80977 15.86628
#
# Velocity S-wave (km/s) = 4.33947 -2.18743 2.65011
# Velocity P-wave (km/s) = 6.74576 3.91080 5.51360
#
# Compressibility (1/GPa) = 0.02170101
#
# Stress axis : x y z
#
# Youngs Moduli (GPa) = 94.01236 63.93976 94.00545
#
# Poissons Ratio (x) = 0.21035 0.26448
# Poissons Ratio (y) = 0.30928 0.14133
# Poissons Ratio (z) = 0.26449 0.09613
#
# Static dielectric constant tensor:
#      x y z
#    x 3.015570 0.000000 0.000000 
#    y 0.000000 1.913820 0.000000 
#    z 0.000000 0.000000 1.837390 
# 
# From -- ./inp_files/41369.got.cif
#   From: 2010.05.17/outbox.cif.g08.bks.cpg/sg72_21_cif.got.tgz:41369.got - 2010.06.03 17:03:01.
