data_PCOD9528895
_publ_section_title
;
Structure prediction by ZEFSAII (Michael W. Deem and Ramdas Pophale) SiO2 
 PCOD9528895
Probable space group: I B A M
;
_chemical_formula_sum "Si O2"
_cell_formula_units_Z 64
_cell_length_a 8.754379
_cell_length_b 19.614950
_cell_length_c 15.540684
_cell_angle_alpha 90.000000
_cell_angle_beta 90.000000
_cell_angle_gamma 90.000000
_cell_volume 2668.595071
_symmetry_space_group_name_H-M "I B A M"
_symmetry_group_IT_number 72
_symmetry_cell_setting 'orthorhombic'
loop_
_space_group_symop_operation_xyz
x,y,z
-x,-y,z
x,-y,1/2-z
-x,y,1/2-z
-x,-y,-z
x,y,-z
-x,y,1/2+z
x,-y,1/2+z
1/2+x,1/2+y,1/2+z
1/2-x,1/2-y,1/2+z
1/2+x,1/2-y,-z
1/2-x,1/2+y,-z
1/2-x,1/2-y,1/2-z
1/2+x,1/2+y,1/2-z
1/2-x,1/2+y,z
1/2+x,1/2-y,z
loop_
_atom_site_type_symbol
_atom_site_label
_atom_site_fract_x
_atom_site_fract_y
_atom_site_fract_z
Si Si1 0.158929 0.957091 0.603945
Si Si2 0.306660 0.911178 0.903891
Si Si3 0.866118 0.210642 0.188022
Si Si4 0.096476 0.644368 0.841711
O O1 0.156548 0.943310 0.500000
O O2 0.278249 0.014809 0.633368
O O3 0.234804 0.889610 0.649049
O O4 0.000000 0.000000 0.623001
O O5 0.213545 0.851425 0.858054
O O6 0.484190 0.895720 0.903784
O O7 0.244143 0.914092 0.000000
O O8 0.750000 0.250000 0.250000
O O9 0.912881 0.275892 0.131087
O O10 0.000000 0.187210 0.250000
O O11 0.000000 0.639533 0.750000
#
# Coordination Sequence:
#
# PCOD9528895 Si02
#       4
#    16  16  16  16
#     4  10  24  43  65  98 136 175 227 287 337 401
#     4  11  24  42  66  97 133 175 225 281 343 404
#     4  11  23  45  66  94 134 174 222 282 335 403
#     4  11  23  43  68  96 137 180 228 278 342 408
#
# _framework density 23.982659000000002
#
# number of rings (size 3 to 8) (size 9 to 14) (size 15 to 20)
#    0.000    1.250    5.000    1.500    3.500    6.000 
#    0.000    1.250    0.000    0.000    0.000    0.000 
#    0.000    0.000    0.000    0.000    0.000    0.000 
#
# Total GULP energy -178307.899050 kJ/mol
# GULP energy per Si atom -5572.121845 kJ/mol
# Density = 2.392807 g / cm^3
# Si number density = 23.982659 Si / 1000 Ang^3
#
#
#
# Elastic Constant Matrix: (Units=GPa)
#
#
# Indices 1 2 3 4 5 6 
#
# 1 123.3887 38.1459 17.4140 0.0000 0.0000 0.0000
# 2 38.1459 135.6182 24.4831 0.0000 0.0000 0.0000
# 3 17.4140 24.4831 58.2551 0.0000 0.0000 0.0000
# 4 0.0000 0.0000 0.0000 27.7583 0.0000 0.0000
# 5 0.0000 0.0000 0.0000 0.0000 35.4756 0.0000
# 6 0.0000 0.0000 0.0000 0.0000 0.0000 59.2835
#
#
#
# Elastic Compliance Matrix: (Units=1/GPa)
#
#
# Indices 1 2 3 4 5 6 
#
# 1 0.009042 -0.002224 -0.001768 0.000000 0.000000 0.000000
# 2 -0.002224 0.008526 -0.002918 0.000000 0.000000 0.000000
# 3 -0.001768 -0.002918 0.018921 0.000000 0.000000 0.000000
# 4 0.000000 0.000000 0.000000 0.036025 0.000000 0.000000
# 5 0.000000 0.000000 0.000000 0.000000 0.028188 0.000000
# 6 0.000000 0.000000 0.000000 0.000000 0.000000 0.016868
#
#
# Mechanical properties :
#
#
# Convention : Reuss Voigt Hill
#
# Bulk Modulus (GPa) = 44.11598 53.03865 48.57731
# Shear Modulus (GPa) = 35.98489 40.31808 38.15149
#
# Velocity S-wave (km/s) = 3.87777 4.10461 3.99280
# Velocity P-wave (km/s) = 6.20358 6.68036 6.44638
#
# Compressibility (1/GPa) = 0.02266752
#
# Stress axis : x y z
#
# Youngs Moduli (GPa) = 110.60064 117.28752 52.85144
#
# Poissons Ratio (x) = 0.26084 0.09345
# Poissons Ratio (y) = 0.24597 0.15425
# Poissons Ratio (z) = 0.19555 0.34230
#
# Static dielectric constant tensor:
#      x y z
#    x 2.064380 0.000000 0.000000 
#    y 0.000000 2.289760 0.000000 
#    z 0.000000 0.000000 2.088670 
# 
# From -- ./inp_files/27631.got.cif
#   From: 2010.05.17/outbox.cif.g08.bks.cpg/sg72_14_cif.got.tgz:27631.got - 2010.06.03 17:03:01.
