data_PCOD9528963
_publ_section_title
;
Structure prediction by ZEFSAII (Michael W. Deem and Ramdas Pophale) SiO2 
 PCOD9528963
Probable space group: I B A M
;
_chemical_formula_sum "Si O2"
_cell_formula_units_Z 64
_cell_length_a 19.747105
_cell_length_b 16.034335
_cell_length_c 9.551305
_cell_angle_alpha 90.000000
_cell_angle_beta 90.000000
_cell_angle_gamma 90.000000
_cell_volume 3024.245909
_symmetry_space_group_name_H-M "I B A M"
_symmetry_group_IT_number 72
_symmetry_cell_setting 'orthorhombic'
loop_
_space_group_symop_operation_xyz
x,y,z
-x,-y,z
x,-y,1/2-z
-x,y,1/2-z
-x,-y,-z
x,y,-z
-x,y,1/2+z
x,-y,1/2+z
1/2+x,1/2+y,1/2+z
1/2-x,1/2-y,1/2+z
1/2+x,1/2-y,-z
1/2-x,1/2+y,-z
1/2-x,1/2-y,1/2-z
1/2+x,1/2+y,1/2-z
1/2-x,1/2+y,z
1/2+x,1/2-y,z
loop_
_atom_site_type_symbol
_atom_site_label
_atom_site_fract_x
_atom_site_fract_y
_atom_site_fract_z
Si Si1 0.848325 0.716298 0.500000
Si Si2 0.790271 0.314976 0.500000
Si Si3 0.088633 0.189837 0.000000
Si Si4 0.907981 0.899943 0.500000
Si Si5 0.687876 0.087532 0.720478
Si Si6 0.500000 0.631197 0.750000
Si Si7 0.196898 0.042897 0.000000
O O1 0.770824 0.749422 0.500000
O O2 0.891722 0.800627 0.500000
O O3 0.854261 0.655707 0.366679
O O4 0.860985 0.266597 0.500000
O O5 0.788129 0.370264 0.362220
O O6 0.044542 0.184592 0.140956
O O7 0.135255 0.107534 0.000000
O O8 0.950791 0.917522 0.358527
O O9 0.839707 0.953626 0.500000
O O10 0.753731 0.061729 0.629831
O O11 0.650953 0.000000 0.750000
#
# Coordination Sequence:
#
# PCOD9528963 Si02
#       7
#     8   8   8   8  16   8   8
#     4  11  22  39  65  92 126 168 215 265 345 381
#     4  12  22  38  69  93 125 170 220 266 338 386
#     4  11  24  43  62  93 126 175 224 276 312 388
#     4  11  24  45  65  94 132 185 219 278 309 387
#     4  11  23  39  57 100 131 165 203 266 335 397
#     4  10  26  43  62  92 129 178 240 258 315 370
#     4  11  26  38  61  88 141 174 216 261 317 375
#
# _framework density 21.162300999999999
#
# number of rings (size 3 to 8) (size 9 to 14) (size 15 to 20)
#    0.000    1.000    2.500    5.250    7.000    3.000 
#    0.000    0.000    0.000    0.000    0.000   61.250 
#    0.000    0.000    0.000    0.000    0.000    0.000 
#
# Total GULP energy -178994.296296 kJ/mol
# GULP energy per Si atom -5593.571759 kJ/mol
# Density = 2.111413 g / cm^3
# Si number density = 21.162301 Si / 1000 Ang^3
#
#
#
# Elastic Constant Matrix: (Units=GPa)
#
#
# Indices 1 2 3 4 5 6 
#
# 1 62.5544 14.6942 30.6212 0.0000 0.0000 0.0000
# 2 14.6942 136.1371 45.9366 0.0000 0.0000 0.0000
# 3 30.6212 45.9366 175.7867 0.0000 0.0000 0.0000
# 4 0.0000 0.0000 0.0000 34.9607 0.0000 0.0000
# 5 0.0000 0.0000 0.0000 0.0000 14.4537 0.0000
# 6 0.0000 0.0000 0.0000 0.0000 0.0000 34.1448
#
#
#
# Elastic Compliance Matrix: (Units=1/GPa)
#
#
# Indices 1 2 3 4 5 6 
#
# 1 0.017587 -0.000948 -0.002816 0.000000 0.000000 0.000000
# 2 -0.000948 0.008107 -0.001953 0.000000 0.000000 0.000000
# 3 -0.002816 -0.001953 0.006690 0.000000 0.000000 0.000000
# 4 0.000000 0.000000 0.000000 0.028604 0.000000 0.000000
# 5 0.000000 0.000000 0.000000 0.000000 0.069186 0.000000
# 6 0.000000 0.000000 0.000000 0.000000 0.000000 0.029287
#
#
# Mechanical properties :
#
#
# Convention : Reuss Voigt Hill
#
# Bulk Modulus (GPa) = 47.73463 61.88693 54.81078
# Shear Modulus (GPa) = 28.10907 35.59359 31.85133
#
# Velocity S-wave (km/s) = 3.64849 4.10559 3.88377
# Velocity P-wave (km/s) = 6.35248 7.19596 6.78734
#
# Compressibility (1/GPa) = 0.02094915
#
# Stress axis : x y z
#
# Youngs Moduli (GPa) = 56.85959 123.35023 149.48429
#
# Poissons Ratio (x) = 0.11696 0.42092
# Poissons Ratio (y) = 0.05391 0.29200
# Poissons Ratio (z) = 0.16011 0.24095
#
# Static dielectric constant tensor:
#      x y z
#    x 1.744650 0.000000 0.000000 
#    y 0.000000 1.803490 0.000000 
#    z 0.000000 0.000000 1.769360 
# 
# From -- ./inp_files/4379.got.cif
#   From: 2010.05.17/outbox.cif.g08.bks.cpg/sg72_3_cif.got.tgz:4379.got - 2010.06.03 17:03:01.
