data_PCOD9528148
_publ_section_title
;
Structure prediction by ZEFSAII (Michael W. Deem and Ramdas Pophale) SiO2 
 PCOD9528148
Probable space group: I B A M
;
_chemical_formula_sum "Si O2"
_cell_formula_units_Z 80
_cell_length_a 10.353143
_cell_length_b 19.163696
_cell_length_c 16.367115
_cell_angle_alpha 90.000000
_cell_angle_beta 90.000000
_cell_angle_gamma 90.000000
_cell_volume 3247.309024
_symmetry_space_group_name_H-M "I B A M"
_symmetry_group_IT_number 72
_symmetry_cell_setting 'orthorhombic'
loop_
_space_group_symop_operation_xyz
x,y,z
-x,-y,z
x,-y,1/2-z
-x,y,1/2-z
-x,-y,-z
x,y,-z
-x,y,1/2+z
x,-y,1/2+z
1/2+x,1/2+y,1/2+z
1/2-x,1/2-y,1/2+z
1/2+x,1/2-y,-z
1/2-x,1/2+y,-z
1/2-x,1/2-y,1/2-z
1/2+x,1/2+y,1/2-z
1/2-x,1/2+y,z
1/2+x,1/2-y,z
loop_
_atom_site_type_symbol
_atom_site_label
_atom_site_fract_x
_atom_site_fract_y
_atom_site_fract_z
Si Si1 0.989435 0.084105 0.157771
Si Si2 0.292932 0.073138 0.597982
Si Si3 0.926373 0.709856 0.905876
Si Si4 0.266981 0.086357 0.095052
Si Si5 0.316896 0.227531 0.166114
O O1 0.112655 0.099988 0.102110
O O2 0.000000 0.111362 0.250000
O O3 0.848367 0.099748 0.123961
O O4 0.000000 0.000000 0.162806
O O5 0.297033 0.071619 0.500000
O O6 0.397357 0.130478 0.623410
O O7 0.302005 0.992153 0.623487
O O8 0.786809 0.745843 0.899870
O O9 0.035887 0.748294 0.852966
O O10 0.969500 0.709184 0.000000
O O11 0.322924 0.144388 0.154466
O O12 0.306073 0.093634 0.000000
O O13 0.250000 0.250000 0.250000
#
# Coordination Sequence:
#
# PCOD9528148 Si02
#       5
#    16  16  16  16  16
#     4   9  18  32  58  99 142 182 225 285 362 428
#     4   9  20  39  68 103 139 181 242 306 362 428
#     4  11  25  47  73 102 140 189 241 296 362 438
#     4  10  21  40  68 100 136 185 241 301 364 431
#     4  12  28  47  68 101 142 189 239 295 362 436
#
# _framework density 24.635784999999998
#
# number of rings (size 3 to 8) (size 9 to 14) (size 15 to 20)
#    0.000    1.800    0.000    3.000    5.600    3.200 
#    0.000    3.000    0.000    2.400    0.000    0.000 
#    0.000    0.000    0.000    0.000    0.000    0.000 
#
# Total GULP energy -223733.509264 kJ/mol
# GULP energy per Si atom -5593.337732 kJ/mol
# Density = 2.457971 g / cm^3
# Si number density = 24.635785 Si / 1000 Ang^3
#
#
#
# Elastic Constant Matrix: (Units=GPa)
#
#
# Indices 1 2 3 4 5 6 
#
# 1 148.8469 46.5422 26.6367 0.0000 0.0000 0.0000
# 2 46.5422 131.5659 32.1225 0.0000 0.0000 0.0000
# 3 26.6367 32.1225 58.5451 0.0000 0.0000 0.0000
# 4 0.0000 0.0000 0.0000 26.5822 0.0000 0.0000
# 5 0.0000 0.0000 0.0000 0.0000 23.1925 0.0000
# 6 0.0000 0.0000 0.0000 0.0000 0.0000 44.5590
#
#
#
# Elastic Compliance Matrix: (Units=1/GPa)
#
#
# Indices 1 2 3 4 5 6 
#
# 1 0.007826 -0.002193 -0.002357 0.000000 0.000000 0.000000
# 2 -0.002193 0.009391 -0.004155 0.000000 0.000000 0.000000
# 3 -0.002357 -0.004155 0.020433 0.000000 0.000000 0.000000
# 4 0.000000 0.000000 0.000000 0.037619 0.000000 0.000000
# 5 0.000000 0.000000 0.000000 0.000000 0.043117 0.000000
# 6 0.000000 0.000000 0.000000 0.000000 0.000000 0.022442
#
#
# Mechanical properties :
#
#
# Convention : Reuss Voigt Hill
#
# Bulk Modulus (GPa) = 49.40821 61.06230 55.23525
# Shear Modulus (GPa) = 30.30571 34.44385 32.37478
#
# Velocity S-wave (km/s) = 3.51115 3.74320 3.62903
# Velocity P-wave (km/s) = 6.04455 6.59712 6.32687
#
# Compressibility (1/GPa) = 0.02023955
#
# Stress axis : x y z
#
# Youngs Moduli (GPa) = 127.78155 106.48568 48.94018
#
# Poissons Ratio (x) = 0.23351 0.11537
# Poissons Ratio (y) = 0.28021 0.20334
# Poissons Ratio (z) = 0.30123 0.44244
#
# Static dielectric constant tensor:
#      x y z
#    x 1.983170 0.000000 0.000000 
#    y 0.000000 2.077770 0.000000 
#    z 0.000000 0.000000 1.918250 
# 
# From -- ./inp_files/20433.got.cif
#   From: 2010.05.17/outbox.cif.g08.bks.cpg/sg72_11_cif.got.tgz:20433.got - 2010.06.03 17:03:01.
