data_PCOD9528878
_publ_section_title
;
Structure prediction by ZEFSAII (Michael W. Deem and Ramdas Pophale) SiO2 
 PCOD9528878
Probable space group: I B A M
;
_chemical_formula_sum "Si O2"
_cell_formula_units_Z 64
_cell_length_a 11.004253
_cell_length_b 8.834883
_cell_length_c 29.544146
_cell_angle_alpha 90.000000
_cell_angle_beta 90.000000
_cell_angle_gamma 90.000000
_cell_volume 2872.319920
_symmetry_space_group_name_H-M "I B A M"
_symmetry_group_IT_number 72
_symmetry_cell_setting 'orthorhombic'
loop_
_space_group_symop_operation_xyz
x,y,z
-x,-y,z
x,-y,1/2-z
-x,y,1/2-z
-x,-y,-z
x,y,-z
-x,y,1/2+z
x,-y,1/2+z
1/2+x,1/2+y,1/2+z
1/2-x,1/2-y,1/2+z
1/2+x,1/2-y,-z
1/2-x,1/2+y,-z
1/2-x,1/2-y,1/2-z
1/2+x,1/2+y,1/2-z
1/2-x,1/2+y,z
1/2+x,1/2-y,z
loop_
_atom_site_type_symbol
_atom_site_label
_atom_site_fract_x
_atom_site_fract_y
_atom_site_fract_z
Si Si1 0.126006 0.327211 0.732092
Si Si2 0.912933 0.710683 0.951533
Si Si3 0.104946 0.710717 0.874787
Si Si4 0.799235 0.003698 0.079127
O O1 0.131064 0.500000 0.750000
O O2 0.250000 0.250000 0.750000
O O3 0.105686 0.319780 0.678230
O O4 0.000000 0.255895 0.750000
O O5 0.789907 0.612421 0.949241
O O6 0.989484 0.673017 0.906531
O O7 0.881824 0.888508 0.948781
O O8 0.976043 0.680683 0.000000
O O9 0.131227 0.885474 0.886795
O O10 0.214401 0.609939 0.893259
#
# Coordination Sequence:
#
# PCOD9528878 Si02
#       4
#    16  16  16  16
#     4  11  27  47  75 105 143 188 240 300 365 433
#     4  11  24  42  67 101 139 186 234 287 354 427
#     4  11  24  43  69  97 136 179 233 293 350 424
#     4  10  24  41  68  93 141 178 232 283 357 415
#
# _framework density 22.281641
#
# number of rings (size 3 to 8) (size 9 to 14) (size 15 to 20)
#    0.000    1.250    0.000    3.750   14.000    8.500 
#    4.500    0.000    0.000    0.000    0.000    0.000 
#    0.000    0.000    0.000    0.000    0.000    0.000 
#
# Total GULP energy -178758.066547 kJ/mol
# GULP energy per Si atom -5586.189580 kJ/mol
# Density = 2.223093 g / cm^3
# Si number density = 22.281641 Si / 1000 Ang^3
#
#
#
# Elastic Constant Matrix: (Units=GPa)
#
#
# Indices 1 2 3 4 5 6 
#
# 1 107.7926 30.1450 57.6718 0.0000 0.0000 0.0000
# 2 30.1450 132.7693 42.7810 0.0000 0.0000 0.0000
# 3 57.6718 42.7810 223.2185 0.0000 0.0000 0.0000
# 4 0.0000 0.0000 0.0000 -18.5468 0.0000 0.0000
# 5 0.0000 0.0000 0.0000 0.0000 24.2273 0.0000
# 6 0.0000 0.0000 0.0000 0.0000 0.0000 44.2145
#
#
#
# Elastic Compliance Matrix: (Units=1/GPa)
#
#
# Indices 1 2 3 4 5 6 
#
# 1 0.011115 -0.001704 -0.002545 0.000000 0.000000 0.000000
# 2 -0.001704 0.008289 -0.001148 0.000000 0.000000 0.000000
# 3 -0.002545 -0.001148 0.005358 0.000000 0.000000 0.000000
# 4 0.000000 0.000000 0.000000 -0.053918 0.000000 0.000000
# 5 0.000000 0.000000 0.000000 0.000000 0.041276 0.000000
# 6 0.000000 0.000000 0.000000 0.000000 0.000000 0.022617
#
#
# Mechanical properties :
#
#
# Convention : Reuss Voigt Hill
#
# Bulk Modulus (GPa) = 71.59717 80.55291 76.07504
# Shear Modulus (GPa) = 99.62718 32.19117 65.90918
#
# Velocity S-wave (km/s) = 6.69401 3.80510 5.44465
# Velocity P-wave (km/s) = 9.58900 7.45222 8.58733
#
# Compressibility (1/GPa) = 0.01396703
#
# Stress axis : x y z
#
# Youngs Moduli (GPa) = 89.96617 120.64616 186.64942
#
# Poissons Ratio (x) = 0.20553 0.47508
# Poissons Ratio (y) = 0.15326 0.21435
# Poissons Ratio (z) = 0.22899 0.13855
#
# Static dielectric constant tensor:
#      x y z
#    x 1.886860 0.000000 0.000000 
#    y 0.000000 1.874290 0.000000 
#    z 0.000000 0.000000 1.850540 
# 
# From -- ./inp_files/50576.got.cif
#   From: 2010.05.17/outbox.cif.g08.bks.cpg/sg72_26_cif.got.tgz:50576.got - 2010.06.03 17:03:01.
