data_PCOD9528798
_publ_section_title
;
Structure prediction by ZEFSAII (Michael W. Deem and Ramdas Pophale) SiO2 
 PCOD9528798
Probable space group: I B A M
;
_chemical_formula_sum "Si O2"
_cell_formula_units_Z 96
_cell_length_a 14.468468
_cell_length_b 18.241415
_cell_length_c 16.517481
_cell_angle_alpha 90.000000
_cell_angle_beta 90.000000
_cell_angle_gamma 90.000000
_cell_volume 4359.381611
_symmetry_space_group_name_H-M "I B A M"
_symmetry_group_IT_number 72
_symmetry_cell_setting 'orthorhombic'
loop_
_space_group_symop_operation_xyz
x,y,z
-x,-y,z
x,-y,1/2-z
-x,y,1/2-z
-x,-y,-z
x,y,-z
-x,y,1/2+z
x,-y,1/2+z
1/2+x,1/2+y,1/2+z
1/2-x,1/2-y,1/2+z
1/2+x,1/2-y,-z
1/2-x,1/2+y,-z
1/2-x,1/2-y,1/2-z
1/2+x,1/2+y,1/2-z
1/2-x,1/2+y,z
1/2+x,1/2-y,z
loop_
_atom_site_type_symbol
_atom_site_label
_atom_site_fract_x
_atom_site_fract_y
_atom_site_fract_z
Si Si1 0.752251 0.916630 0.741073
Si Si2 0.705351 0.215682 0.331435
Si Si3 0.910998 0.447065 0.370447
Si Si4 0.002820 0.183853 0.500000
Si Si5 0.679652 0.953349 0.000000
Si Si6 0.284678 0.693717 0.000000
Si Si7 0.001841 0.649759 0.000000
Si Si8 0.070370 0.833077 0.174987
O O1 0.731838 0.869296 0.820995
O O2 0.649867 0.919050 0.702850
O O3 0.834422 0.877003 0.691779
O O4 0.781972 0.000000 0.750000
O O5 0.750000 0.250000 0.250000
O O6 0.746640 0.233581 0.419276
O O7 0.602095 0.247370 0.327292
O O8 0.837353 0.493502 0.423833
O O9 0.944614 0.377544 0.422382
O O10 0.000000 0.500000 0.354698
O O11 0.893794 0.195308 0.500000
O O12 0.036029 0.268036 0.500000
O O13 0.032467 0.148523 0.414438
O O14 0.759313 0.893236 0.000000
O O15 0.590519 0.901401 0.000000
O O16 0.000000 0.844988 0.250000
#
# Coordination Sequence:
#
# PCOD9528798 Si02
#       8
#    16  16  16   8   8   8   8  16
#     4  11  24  43  68  99 139 187 232 293 361 419
#     4  10  23  43  67  96 132 179 232 287 356 420
#     4   9  20  38  65 100 137 172 221 285 366 430
#     4  12  25  39  68 103 130 187 240 289 351 415
#     4   9  18  39  58  94 135 178 211 271 351 424
#     4  12  23  41  69  92 136 179 232 285 355 419
#     4   9  20  35  63  96 136 168 219 289 349 427
#     4  11  26  46  67  99 143 184 239 292 355 434
#
# _framework density 22.021470999999998
#
# number of rings (size 3 to 8) (size 9 to 14) (size 15 to 20)
#    0.000    1.667    0.000    5.500    7.000    3.333 
#    0.000    0.833    0.000    5.000    0.000    0.000 
#    0.000    0.000    0.000    0.000    0.000    0.000 
#
# Total GULP energy -267726.308123 kJ/mol
# GULP energy per Si atom -5577.631419 kJ/mol
# Density = 2.197135 g / cm^3
# Si number density = 22.021471 Si / 1000 Ang^3
#
#
#
# Elastic Constant Matrix: (Units=GPa)
#
#
# Indices 1 2 3 4 5 6 
#
# 1 76.0845 -2.1990 53.7992 0.0000 0.0000 0.0000
# 2 -2.1990 58.5656 20.3643 0.0000 0.0000 0.0000
# 3 53.7992 20.3643 163.5898 0.0000 0.0000 0.0000
# 4 0.0000 0.0000 0.0000 11.6229 0.0000 0.0000
# 5 0.0000 0.0000 0.0000 0.0000 22.1410 0.0000
# 6 0.0000 0.0000 0.0000 0.0000 0.0000 4.4722
#
#
#
# Elastic Compliance Matrix: (Units=1/GPa)
#
#
# Indices 1 2 3 4 5 6 
#
# 1 0.017550 0.002787 -0.006119 0.000000 0.000000 0.000000
# 2 0.002787 0.018290 -0.003193 0.000000 0.000000 0.000000
# 3 -0.006119 -0.003193 0.008523 0.000000 0.000000 0.000000
# 4 0.000000 0.000000 0.000000 0.086037 0.000000 0.000000
# 5 0.000000 0.000000 0.000000 0.000000 0.045165 0.000000
# 6 0.000000 0.000000 0.000000 0.000000 0.000000 0.223603
#
#
# Mechanical properties :
#
#
# Convention : Reuss Voigt Hill
#
# Bulk Modulus (GPa) = 31.93649 49.12987 40.53318
# Shear Modulus (GPa) = 11.82996 22.73224 17.28110
#
# Velocity S-wave (km/s) = 2.32027 3.21639 2.80436
# Velocity P-wave (km/s) = 4.65963 6.01265 5.37885
#
# Compressibility (1/GPa) = 0.03131215
#
# Stress axis : x y z
#
# Youngs Moduli (GPa) = 56.97928 54.67519 117.33590
#
# Poissons Ratio (x) = -0.15235 0.71793
# Poissons Ratio (y) = -0.15877 0.37468
# Poissons Ratio (z) = 0.34863 0.17459
#
# Static dielectric constant tensor:
#      x y z
#    x 1.821300 0.000000 0.000000 
#    y 0.000000 3.477700 0.000000 
#    z 0.000000 0.000000 1.912520 
# 
# From -- ./inp_files/21927.got.cif
#   From: 2010.05.17/outbox.cif.g08.bks.cpg/sg72_11_cif.got.tgz:21927.got - 2010.06.03 17:03:01.
