data_PCOD9528446
_publ_section_title
;
Structure prediction by ZEFSAII (Michael W. Deem and Ramdas Pophale) SiO2 
 PCOD9528446
Probable space group: I B A M
;
_chemical_formula_sum "Si O2"
_cell_formula_units_Z 80
_cell_length_a 16.208219
_cell_length_b 9.784023
_cell_length_c 22.182765
_cell_angle_alpha 90.000000
_cell_angle_beta 90.000000
_cell_angle_gamma 90.000000
_cell_volume 3517.778089
_symmetry_space_group_name_H-M "I B A M"
_symmetry_group_IT_number 72
_symmetry_cell_setting 'orthorhombic'
loop_
_space_group_symop_operation_xyz
x,y,z
-x,-y,z
x,-y,1/2-z
-x,y,1/2-z
-x,-y,-z
x,y,-z
-x,y,1/2+z
x,-y,1/2+z
1/2+x,1/2+y,1/2+z
1/2-x,1/2-y,1/2+z
1/2+x,1/2-y,-z
1/2-x,1/2+y,-z
1/2-x,1/2-y,1/2-z
1/2+x,1/2+y,1/2-z
1/2-x,1/2+y,z
1/2+x,1/2-y,z
loop_
_atom_site_type_symbol
_atom_site_label
_atom_site_fract_x
_atom_site_fract_y
_atom_site_fract_z
Si Si1 0.306092 0.323034 0.934212
Si Si2 0.189319 0.031603 0.179864
Si Si3 0.877391 0.459622 0.817382
Si Si4 0.128733 0.737846 0.393862
Si Si5 0.533285 0.850253 0.082939
O O1 0.315467 0.415474 0.873164
O O2 0.214918 0.257238 0.929022
O O3 0.378963 0.209988 0.936996
O O4 0.309202 0.396858 0.000000
O O5 0.283077 0.092425 0.180649
O O6 0.129952 0.148851 0.157104
O O7 0.172860 0.000000 0.250000
O O8 0.895763 0.500000 0.750000
O O9 0.873322 0.590874 0.861072
O O10 0.946560 0.363896 0.845699
O O11 0.043430 0.747290 0.429520
O O12 0.500000 0.000000 0.062867
#
# Coordination Sequence:
#
# PCOD9528446 Si02
#       5
#    16  16  16  16  16
#     4  11  25  44  67  96 133 174 226 284 338 402
#     4  10  22  41  67  96 136 183 221 271 340 405
#     4   9  19  36  66  97 131 172 220 274 325 394
#     4  10  22  40  64  98 131 175 217 274 338 397
#     4  10  22  42  65 101 130 172 228 276 338 398
#
# _framework density 22.741627000000001
#
# number of rings (size 3 to 8) (size 9 to 14) (size 15 to 20)
#    0.000    2.000    2.000    0.000    2.800    8.800 
#    0.000    2.000    0.000    0.000    0.000    0.000 
#    0.000    0.000    0.000    0.000    0.000    0.000 
#
# Total GULP energy -222801.922506 kJ/mol
# GULP energy per Si atom -5570.048063 kJ/mol
# Density = 2.268987 g / cm^3
# Si number density = 22.741627 Si / 1000 Ang^3
#
#
#
# Elastic Constant Matrix: (Units=GPa)
#
#
# Indices 1 2 3 4 5 6 
#
# 1 179.1948 41.5723 45.7257 0.0000 0.0000 0.0000
# 2 41.5723 37.2211 18.0030 0.0000 0.0000 0.0000
# 3 45.7257 18.0030 170.6754 0.0000 0.0000 0.0000
# 4 0.0000 0.0000 0.0000 -4.8292 0.0000 0.0000
# 5 0.0000 0.0000 0.0000 0.0000 -24.0546 0.0000
# 6 0.0000 0.0000 0.0000 0.0000 0.0000 35.8727
#
#
#
# Elastic Compliance Matrix: (Units=1/GPa)
#
#
# Indices 1 2 3 4 5 6 
#
# 1 0.007769 -0.008083 -0.001229 0.000000 0.000000 0.000000
# 2 -0.008083 0.036721 -0.001708 0.000000 0.000000 0.000000
# 3 -0.001229 -0.001708 0.006368 0.000000 0.000000 0.000000
# 4 0.000000 0.000000 0.000000 -0.207072 0.000000 0.000000
# 5 0.000000 0.000000 0.000000 0.000000 -0.041572 0.000000
# 6 0.000000 0.000000 0.000000 0.000000 0.000000 0.027876
#
#
# Mechanical properties :
#
#
# Convention : Reuss Voigt Hill
#
# Bulk Modulus (GPa) = 34.69965 66.41037 50.55501
# Shear Modulus (GPa) = -36.16277 20.18379 -7.98949
#
# Velocity S-wave (km/s) = -3.99200 2.98237 -1.87638
# Velocity P-wave (km/s) = 2.44065 6.41287 4.19333
#
# Compressibility (1/GPa) = 0.02881874
#
# Stress axis : x y z
#
# Youngs Moduli (GPa) = 128.71069 27.23266 157.02447
#
# Poissons Ratio (x) = 0.22013 0.19296
# Poissons Ratio (y) = 1.04040 0.26816
# Poissons Ratio (z) = 0.15817 0.04651
#
# Static dielectric constant tensor:
#      x y z
#    x 1.892960 0.000000 0.000000 
#    y 0.000000 1.901390 0.000000 
#    z 0.000000 0.000000 1.889530 
# 
# From -- ./inp_files/44082.got.cif
#   From: 2010.05.17/outbox.cif.g08.bks.cpg/sg72_23_cif.got.tgz:44082.got - 2010.06.03 17:03:01.
