data_PCOD9528186
_publ_section_title
;
Structure prediction by ZEFSAII (Michael W. Deem and Ramdas Pophale) SiO2 
 PCOD9528186
Probable space group: I B A M
;
_chemical_formula_sum "Si O2"
_cell_formula_units_Z 108
_cell_length_a 8.397572
_cell_length_b 19.326939
_cell_length_c 23.865054
_cell_angle_alpha 90.000000
_cell_angle_beta 90.000000
_cell_angle_gamma 90.000000
_cell_volume 3873.283033
_symmetry_space_group_name_H-M "I B A M"
_symmetry_group_IT_number 72
_symmetry_cell_setting 'orthorhombic'
loop_
_space_group_symop_operation_xyz
x,y,z
-x,-y,z
x,-y,1/2-z
-x,y,1/2-z
-x,-y,-z
x,y,-z
-x,y,1/2+z
x,-y,1/2+z
1/2+x,1/2+y,1/2+z
1/2-x,1/2-y,1/2+z
1/2+x,1/2-y,-z
1/2-x,1/2+y,-z
1/2-x,1/2-y,1/2-z
1/2+x,1/2+y,1/2-z
1/2-x,1/2+y,z
1/2+x,1/2-y,z
loop_
_atom_site_type_symbol
_atom_site_label
_atom_site_fract_x
_atom_site_fract_y
_atom_site_fract_z
Si Si1 0.020243 0.837717 0.579346
Si Si2 0.707505 0.349744 0.816121
Si Si3 0.778264 0.489317 0.323494
Si Si4 0.857994 0.652123 0.209863
Si Si5 0.674011 0.464894 0.440863
Si Si6 0.820899 0.619948 0.500000
Si Si7 0.500000 0.500000 0.750000
Si Si8 0.512648 0.815929 0.899624
O O1 0.051158 0.845310 0.645920
O O2 0.176694 0.866866 0.547973
O O3 0.872603 0.884723 0.560248
O O4 0.997678 0.757079 0.568697
O O5 0.763156 0.429908 0.812905
O O6 0.711242 0.328962 0.750996
O O7 0.839665 0.314546 0.855872
O O8 0.891797 0.430801 0.299650
O O9 0.781822 0.482691 0.389550
O O10 0.615167 0.462683 0.293910
O O11 0.000000 0.677083 0.250000
O O12 0.868617 0.678067 0.145934
O O13 0.500000 0.500000 0.432849
O O14 0.740344 0.493207 0.500000
O O15 0.955688 0.627734 0.448377
#
# Coordination Sequence:
#
# PCOD9528186 Si02
#       8
#    16  16  16  16  16   8   4  16
#     4  11  21  42  65  96 133 178 222 287 347 397
#     4  10  21  41  67  94 136 175 218 285 349 400
#     4  12  22  40  70 103 136 177 226 291 345 413
#     4  10  23  44  68  97 136 182 230 276 343 421
#     4  11  23  39  66 101 133 168 219 283 346 405
#     4  10  22  42  69  87 131 184 228 277 326 404
#     4  12  20  36  64 112 132 172 244 280 350 404
#     4  10  24  40  65  97 127 180 236 268 339 420
#
# _framework density 27.883323000000001
#
# number of rings (size 3 to 8) (size 9 to 14) (size 15 to 20)
#    0.000    1.333    4.444    0.444    0.000    7.111 
#    1.333    2.963    0.000    3.556    0.000    0.000 
#    0.000    0.000    0.000    0.000    0.000    0.000 
#
# Total GULP energy -300709.945176 kJ/mol
# GULP energy per Si atom -5568.702688 kJ/mol
# Density = 2.781986 g / cm^3
# Si number density = 27.883323 Si / 1000 Ang^3
#
#
#
# Elastic Constant Matrix: (Units=GPa)
#
#
# Indices 1 2 3 4 5 6 
#
# 1 33.4298 -27.6053 15.9336 0.0000 0.0000 0.0000
# 2 -27.6053 62.9388 -37.7308 0.0000 0.0000 0.0000
# 3 15.9336 -37.7308 167.2468 0.0000 0.0000 0.0000
# 4 0.0000 0.0000 0.0000 -53.2394 0.0000 0.0000
# 5 0.0000 0.0000 0.0000 0.0000 94.3018 0.0000
# 6 0.0000 0.0000 0.0000 0.0000 0.0000 -43.5341
#
#
#
# Elastic Compliance Matrix: (Units=1/GPa)
#
#
# Indices 1 2 3 4 5 6 
#
# 1 0.046906 0.020693 0.000200 0.000000 0.000000 0.000000
# 2 0.020693 0.027502 0.004233 0.000000 0.000000 0.000000
# 3 0.000200 0.004233 0.006915 0.000000 0.000000 0.000000
# 4 0.000000 0.000000 0.000000 -0.018783 0.000000 0.000000
# 5 0.000000 0.000000 0.000000 0.000000 0.010604 0.000000
# 6 0.000000 0.000000 0.000000 0.000000 0.000000 -0.022970
#
#
# Mechanical properties :
#
#
# Convention : Reuss Voigt Hill
#
# Bulk Modulus (GPa) = 7.60030 18.31227 12.95629
# Shear Modulus (GPa) = 114.20515 20.37350 67.28932
#
# Velocity S-wave (km/s) = 6.40680 2.70602 4.91781
# Velocity P-wave (km/s) = 7.58032 4.04291 6.07480
#
# Compressibility (1/GPa) = 0.13157369
#
# Stress axis : x y z
#
# Youngs Moduli (GPa) = 21.31933 36.36094 144.61006
#
# Poissons Ratio (x) = -0.75241 -0.02886
# Poissons Ratio (y) = -0.44116 -0.61214
# Poissons Ratio (z) = -0.00425 -0.15392
#
# Static dielectric constant tensor:
#      x y z
#    x 2.247820 0.000000 0.000000 
#    y 0.000000 2.379680 0.000000 
#    z 0.000000 0.000000 2.195690 
# 
# From -- ./inp_files/43557.got.cif
#   From: 2010.05.17/outbox.cif.g08.bks.cpg/sg72_22_cif.got.tgz:43557.got - 2010.06.03 17:03:01.
