data_PCOD9528018
_publ_section_title
;
Structure prediction by ZEFSAII (Michael W. Deem and Ramdas Pophale) SiO2 
 PCOD9528018
Probable space group: I B A M
;
_chemical_formula_sum "Si O2"
_cell_formula_units_Z 112
_cell_length_a 23.548584
_cell_length_b 15.266096
_cell_length_c 14.088149
_cell_angle_alpha 90.000000
_cell_angle_beta 90.000000
_cell_angle_gamma 90.000000
_cell_volume 5064.618336
_symmetry_space_group_name_H-M "I B A M"
_symmetry_group_IT_number 72
_symmetry_cell_setting 'orthorhombic'
loop_
_space_group_symop_operation_xyz
x,y,z
-x,-y,z
x,-y,1/2-z
-x,y,1/2-z
-x,-y,-z
x,y,-z
-x,y,1/2+z
x,-y,1/2+z
1/2+x,1/2+y,1/2+z
1/2-x,1/2-y,1/2+z
1/2+x,1/2-y,-z
1/2-x,1/2+y,-z
1/2-x,1/2-y,1/2-z
1/2+x,1/2+y,1/2-z
1/2-x,1/2+y,z
1/2+x,1/2-y,z
loop_
_atom_site_type_symbol
_atom_site_label
_atom_site_fract_x
_atom_site_fract_y
_atom_site_fract_z
Si Si1 0.285791 0.896924 0.733785
Si Si2 0.442923 0.040698 0.608259
Si Si3 0.324706 0.370506 0.391579
Si Si4 0.349127 0.831258 0.109121
Si Si5 0.388574 0.147319 0.893540
Si Si6 0.930891 0.094719 0.712421
Si Si7 0.538189 0.309649 0.613167
O O1 0.228217 0.882041 0.677601
O O2 0.291735 0.858243 0.838444
O O3 0.336091 0.846733 0.677569
O O4 0.296377 0.000000 0.750000
O O5 0.458394 0.068340 0.500000
O O6 0.405190 0.119369 0.650181
O O7 0.500000 0.000000 0.650792
O O8 0.403368 0.955302 0.605804
O O9 0.308570 0.389360 0.500000
O O10 0.350539 0.272546 0.387052
O O11 0.377493 0.424902 0.353808
O O12 0.346829 0.859754 0.000000
O O13 0.444871 0.206787 0.876582
O O14 0.369537 0.172103 0.000000
O O15 0.918660 0.147608 0.810134
O O16 0.978370 0.151058 0.653393
O O17 0.947858 0.000000 0.750000
O O18 0.542144 0.330103 0.500000
#
# Coordination Sequence:
#
# PCOD9528018 Si02
#       7
#    16  16  16  16  16  16  16
#     4  12  23  41  65  94 135 184 235 288 340 410
#     4   9  18  34  59  92 132 173 216 269 336 413
#     4  11  25  43  67  96 133 184 239 293 347 410
#     4  10  22  40  62  93 132 180 232 287 348 410
#     4  10  21  39  62  94 133 173 220 279 340 406
#     4  11  24  44  66  98 138 177 228 289 346 416
#     4  10  22  40  68  98 132 175 220 277 341 407
#
# _framework density 22.114204000000001
#
# number of rings (size 3 to 8) (size 9 to 14) (size 15 to 20)
#    0.000    1.571    1.429    3.429    2.000    2.286 
#    0.000    2.857    0.000    0.000    0.000    0.000 
#    0.000    0.000    0.000    0.000    0.000    0.000 
#
# Total GULP energy -312092.382926 kJ/mol
# GULP energy per Si atom -5573.078267 kJ/mol
# Density = 2.206387 g / cm^3
# Si number density = 22.114204 Si / 1000 Ang^3
#
#
#
# Elastic Constant Matrix: (Units=GPa)
#
#
# Indices 1 2 3 4 5 6 
#
# 1 114.0521 24.1319 43.8594 0.0000 0.0000 0.0000
# 2 24.1319 81.9849 35.2107 0.0000 0.0000 0.0000
# 3 43.8594 35.2107 93.8402 0.0000 0.0000 0.0000
# 4 0.0000 0.0000 0.0000 22.3737 0.0000 0.0000
# 5 0.0000 0.0000 0.0000 0.0000 23.0706 0.0000
# 6 0.0000 0.0000 0.0000 0.0000 0.0000 8.2136
#
#
#
# Elastic Compliance Matrix: (Units=1/GPa)
#
#
# Indices 1 2 3 4 5 6 
#
# 1 0.010788 -0.001204 -0.004590 0.000000 0.000000 0.000000
# 2 -0.001204 0.014675 -0.004944 0.000000 0.000000 0.000000
# 3 -0.004590 -0.004944 0.014657 0.000000 0.000000 0.000000
# 4 0.000000 0.000000 0.000000 0.044695 0.000000 0.000000
# 5 0.000000 0.000000 0.000000 0.000000 0.043345 0.000000
# 6 0.000000 0.000000 0.000000 0.000000 0.000000 0.121750
#
#
# Mechanical properties :
#
#
# Convention : Reuss Voigt Hill
#
# Bulk Modulus (GPa) = 53.63703 55.14236 54.38969
# Shear Modulus (GPa) = 18.01150 23.17658 20.59404
#
# Velocity S-wave (km/s) = 2.85700 3.24086 3.05496
# Velocity P-wave (km/s) = 5.93216 6.24449 6.09032
#
# Compressibility (1/GPa) = 0.01864383
#
# Stress axis : x y z
#
# Youngs Moduli (GPa) = 92.69641 68.14346 68.22762
#
# Poissons Ratio (x) = 0.08204 0.31319
# Poissons Ratio (y) = 0.11160 0.33729
# Poissons Ratio (z) = 0.42551 0.33688
#
# Static dielectric constant tensor:
#      x y z
#    x 1.856030 0.000000 0.000000 
#    y 0.000000 1.839260 0.000000 
#    z 0.000000 0.000000 1.883950 
# 
# From -- ./inp_files/25184.got.cif
#   From: 2010.05.17/outbox.cif.g08.bks.cpg/sg72_13_cif.got.tgz:25184.got - 2010.06.03 17:03:01.
