data_PCOD9528661
_publ_section_title
;
Structure prediction by ZEFSAII (Michael W. Deem and Ramdas Pophale) SiO2 
 PCOD9528661
Probable space group: I B A M
;
_chemical_formula_sum "Si O2"
_cell_formula_units_Z 96
_cell_length_a 20.863558
_cell_length_b 8.765241
_cell_length_c 27.001341
_cell_angle_alpha 90.000000
_cell_angle_beta 90.000000
_cell_angle_gamma 90.000000
_cell_volume 4937.846312
_symmetry_space_group_name_H-M "I B A M"
_symmetry_group_IT_number 72
_symmetry_cell_setting 'orthorhombic'
loop_
_space_group_symop_operation_xyz
x,y,z
-x,-y,z
x,-y,1/2-z
-x,y,1/2-z
-x,-y,-z
x,y,-z
-x,y,1/2+z
x,-y,1/2+z
1/2+x,1/2+y,1/2+z
1/2-x,1/2-y,1/2+z
1/2+x,1/2-y,-z
1/2-x,1/2+y,-z
1/2-x,1/2-y,1/2-z
1/2+x,1/2+y,1/2-z
1/2-x,1/2+y,z
1/2+x,1/2-y,z
loop_
_atom_site_type_symbol
_atom_site_label
_atom_site_fract_x
_atom_site_fract_y
_atom_site_fract_z
Si Si1 0.152828 0.930813 0.553381
Si Si2 0.752806 0.821271 0.415777
Si Si3 0.567284 0.938785 0.306289
Si Si4 0.461516 0.159389 0.056440
Si Si5 0.455859 0.640808 0.133031
Si Si6 0.161468 0.412405 0.620403
O O1 0.119390 0.914198 0.500000
O O2 0.207965 0.801149 0.557003
O O3 0.105071 0.914036 0.600033
O O4 0.191838 0.088705 0.555309
O O5 0.791283 0.729797 0.373541
O O6 0.704810 0.948406 0.396950
O O7 0.566268 0.760928 0.323988
O O8 0.500000 0.000000 0.327185
O O9 0.568571 0.000000 0.250000
O O10 0.623623 0.029070 0.332673
O O11 0.499610 0.270375 0.093268
O O12 0.391597 0.126780 0.078997
O O13 0.500000 0.000000 0.055157
O O14 0.457544 0.217398 0.000000
O O15 0.500000 0.500000 0.151585
#
# Coordination Sequence:
#
# PCOD9528661 Si02
#       6
#    16  16  16  16  16  16
#     4  11  22  37  58  91 133 174 217 255 301 370
#     4  10  23  36  61  85 128 174 216 253 300 360
#     4  11  23  45  72  91 115 160 208 262 333 397
#     4  11  21  36  62  91 127 176 217 251 309 383
#     4  12  23  39  64  97 132 159 205 273 333 375
#     4  11  20  42  61  88 124 166 213 258 308 368
#
# _framework density 19.441675
#
# number of rings (size 3 to 8) (size 9 to 14) (size 15 to 20)
#    0.000    1.000    5.000    2.000    0.000    8.000 
#    0.000    2.500    0.000    0.000    0.000    0.000 
#    0.000    0.000    0.000    0.000    0.000    0.000 
#
# Total GULP energy -267700.466635 kJ/mol
# GULP energy per Si atom -5577.093055 kJ/mol
# Density = 1.939743 g / cm^3
# Si number density = 19.441675 Si / 1000 Ang^3
#
#
#
# Elastic Constant Matrix: (Units=GPa)
#
#
# Indices 1 2 3 4 5 6 
#
# 1 96.8550 30.2745 28.4289 0.0000 0.0000 0.0000
# 2 30.2745 78.1770 29.3701 0.0000 0.0000 0.0000
# 3 28.4289 29.3701 100.8834 0.0000 0.0000 0.0000
# 4 0.0000 0.0000 0.0000 39.3638 0.0000 0.0000
# 5 0.0000 0.0000 0.0000 0.0000 84.5563 0.0000
# 6 0.0000 0.0000 0.0000 0.0000 0.0000 48.3504
#
#
#
# Elastic Compliance Matrix: (Units=1/GPa)
#
#
# Indices 1 2 3 4 5 6 
#
# 1 0.012211 -0.003858 -0.002318 0.000000 0.000000 0.000000
# 2 -0.003858 0.015581 -0.003449 0.000000 0.000000 0.000000
# 3 -0.002318 -0.003449 0.011570 0.000000 0.000000 0.000000
# 4 0.000000 0.000000 0.000000 0.025404 0.000000 0.000000
# 5 0.000000 0.000000 0.000000 0.000000 0.011826 0.000000
# 6 0.000000 0.000000 0.000000 0.000000 0.000000 0.020682
#
#
# Mechanical properties :
#
#
# Convention : Reuss Voigt Hill
#
# Bulk Modulus (GPa) = 49.72091 50.22915 49.97503
# Shear Modulus (GPa) = 40.57502 46.97688 43.77595
#
# Velocity S-wave (km/s) = 4.57334 4.92092 4.75031
# Velocity P-wave (km/s) = 7.31554 7.62753 7.47316
#
# Compressibility (1/GPa) = 0.02011226
#
# Stress axis : x y z
#
# Youngs Moduli (GPa) = 81.89368 64.17974 86.43257
#
# Poissons Ratio (x) = 0.24760 0.20034
# Poissons Ratio (y) = 0.31594 0.29810
# Poissons Ratio (z) = 0.18982 0.22135
#
# Static dielectric constant tensor:
#      x y z
#    x 1.690270 0.000000 0.000000 
#    y 0.000000 1.724750 0.000000 
#    z 0.000000 0.000000 1.695270 
# 
# From -- ./inp_files/47327.got.cif
#   From: 2010.05.17/outbox.cif.g08.bks.cpg/sg72_24_cif.got.tgz:47327.got - 2010.06.03 17:03:01.
