data_PCOD9528834
_publ_section_title
;
Structure prediction by ZEFSAII (Michael W. Deem and Ramdas Pophale) SiO2 
 PCOD9528834
Probable space group: I B A M
;
_chemical_formula_sum "Si O2"
_cell_formula_units_Z 64
_cell_length_a 14.415408
_cell_length_b 11.471502
_cell_length_c 15.770316
_cell_angle_alpha 90.000000
_cell_angle_beta 90.000000
_cell_angle_gamma 90.000000
_cell_volume 2607.880095
_symmetry_space_group_name_H-M "I B A M"
_symmetry_group_IT_number 72
_symmetry_cell_setting 'orthorhombic'
loop_
_space_group_symop_operation_xyz
x,y,z
-x,-y,z
x,-y,1/2-z
-x,y,1/2-z
-x,-y,-z
x,y,-z
-x,y,1/2+z
x,-y,1/2+z
1/2+x,1/2+y,1/2+z
1/2-x,1/2-y,1/2+z
1/2+x,1/2-y,-z
1/2-x,1/2+y,-z
1/2-x,1/2-y,1/2-z
1/2+x,1/2+y,1/2-z
1/2-x,1/2+y,z
1/2+x,1/2-y,z
loop_
_atom_site_type_symbol
_atom_site_label
_atom_site_fract_x
_atom_site_fract_y
_atom_site_fract_z
Si Si1 0.564926 0.817164 0.828031
Si Si2 0.182523 0.527657 0.596784
Si Si3 0.678808 0.613474 0.247094
Si Si4 0.894904 0.213807 0.592297
O O1 0.612160 0.923078 0.877973
O O2 0.645225 0.735333 0.791089
O O3 0.500398 0.723525 0.876297
O O4 0.677622 0.651332 0.653974
O O5 0.219624 0.507002 0.500000
O O6 0.247120 0.560286 0.678933
O O7 0.128507 0.649385 0.588877
O O8 0.611650 0.500000 0.250000
O O9 0.500000 0.859400 0.250000
O O10 0.890173 0.161201 0.500000
#
# Coordination Sequence:
#
# PCOD9528834 Si02
#       4
#    16  16  16  16
#     4  10  24  44  74 105 139 191 241 298 364 426
#     4  11  25  43  71 108 141 182 241 303 362 424
#     4  11  27  44  69 101 148 190 232 292 363 435
#     4  10  23  45  71 102 139 185 242 298 357 429
#
# _framework density 24.541007
#
# number of rings (size 3 to 8) (size 9 to 14) (size 15 to 20)
#    0.000    1.500    0.000    2.250   10.500   12.500 
#    0.000    1.250    0.000    0.000    0.000    0.000 
#    0.000    0.000    0.000    0.000    0.000    0.000 
#
# Total GULP energy -178191.819779 kJ/mol
# GULP energy per Si atom -5568.494368 kJ/mol
# Density = 2.448515 g / cm^3
# Si number density = 24.541007 Si / 1000 Ang^3
#
#
#
# Elastic Constant Matrix: (Units=GPa)
#
#
# Indices 1 2 3 4 5 6 
#
# 1 83.3500 -14.0754 74.8207 0.0000 0.0000 0.0000
# 2 -14.0754 77.9864 28.4829 0.0000 0.0000 0.0000
# 3 74.8207 28.4829 234.0181 0.0000 0.0000 0.0000
# 4 0.0000 0.0000 0.0000 4.1284 0.0000 0.0000
# 5 0.0000 0.0000 0.0000 0.0000 12.5457 0.0000
# 6 0.0000 0.0000 0.0000 0.0000 0.0000 15.7062
#
#
#
# Elastic Compliance Matrix: (Units=1/GPa)
#
#
# Indices 1 2 3 4 5 6 
#
# 1 0.019151 0.005958 -0.006848 0.000000 0.000000 0.000000
# 2 0.005958 0.015273 -0.003764 0.000000 0.000000 0.000000
# 3 -0.006848 -0.003764 0.006921 0.000000 0.000000 0.000000
# 4 0.000000 0.000000 0.000000 0.242223 0.000000 0.000000
# 5 0.000000 0.000000 0.000000 0.000000 0.079709 0.000000
# 6 0.000000 0.000000 0.000000 0.000000 0.000000 0.063669
#
#
# Mechanical properties :
#
#
# Convention : Reuss Voigt Hill
#
# Bulk Modulus (GPa) = 31.21483 63.75677 47.48580
# Shear Modulus (GPa) = 11.18739 26.88447 19.03593
#
# Velocity S-wave (km/s) = 2.13742 3.31341 2.78812
# Velocity P-wave (km/s) = 4.34033 6.37764 5.45494
#
# Compressibility (1/GPa) = 0.03203605
#
# Stress axis : x y z
#
# Youngs Moduli (GPa) = 52.21659 65.47673 144.49310
#
# Poissons Ratio (x) = -0.39008 0.98950
# Poissons Ratio (y) = -0.31109 0.54382
# Poissons Ratio (z) = 0.35758 0.24643
#
# Static dielectric constant tensor:
#      x y z
#    x 2.380040 0.000000 0.000000 
#    y 0.000000 1.937990 0.000000 
#    z 0.000000 0.000000 2.057490 
# 
# From -- ./inp_files/21210.got.cif
#   From: 2010.05.17/outbox.cif.g08.bks.cpg/sg72_11_cif.got.tgz:21210.got - 2010.06.03 17:03:01.
