data_PCOD9528697
_publ_section_title
;
Structure prediction by ZEFSAII (Michael W. Deem and Ramdas Pophale) SiO2 
 PCOD9528697
Probable space group: I B A M
;
_chemical_formula_sum "Si O2"
_cell_formula_units_Z 112
_cell_length_a 13.921199
_cell_length_b 16.469188
_cell_length_c 23.956427
_cell_angle_alpha 90.000000
_cell_angle_beta 90.000000
_cell_angle_gamma 90.000000
_cell_volume 5492.510226
_symmetry_space_group_name_H-M "I B A M"
_symmetry_group_IT_number 72
_symmetry_cell_setting 'orthorhombic'
loop_
_space_group_symop_operation_xyz
x,y,z
-x,-y,z
x,-y,1/2-z
-x,y,1/2-z
-x,-y,-z
x,y,-z
-x,y,1/2+z
x,-y,1/2+z
1/2+x,1/2+y,1/2+z
1/2-x,1/2-y,1/2+z
1/2+x,1/2-y,-z
1/2-x,1/2+y,-z
1/2-x,1/2-y,1/2-z
1/2+x,1/2+y,1/2-z
1/2-x,1/2+y,z
1/2+x,1/2-y,z
loop_
_atom_site_type_symbol
_atom_site_label
_atom_site_fract_x
_atom_site_fract_y
_atom_site_fract_z
Si Si1 0.133032 0.863373 0.297613
Si Si2 0.519975 0.804506 0.311826
Si Si3 0.198154 0.580401 0.063256
Si Si4 0.103885 0.984697 0.397406
Si Si5 0.296379 0.603736 0.319786
Si Si6 0.693379 0.215222 0.351678
Si Si7 0.601025 0.963761 0.655286
O O1 0.078751 0.777954 0.302502
O O2 0.093462 0.924663 0.343830
O O3 0.137045 0.894805 0.234782
O O4 0.244152 0.844552 0.312811
O O5 0.500000 0.840552 0.250000
O O6 0.416919 0.783452 0.335717
O O7 0.569670 0.869763 0.352335
O O8 0.309008 0.550983 0.066609
O O9 0.199273 0.671524 0.088503
O O10 0.135194 0.521109 0.103775
O O11 0.163418 0.577319 0.000000
O O12 0.145339 0.066645 0.370969
O O13 0.000000 0.000000 0.423437
O O14 0.269821 0.694981 0.337932
O O15 0.200480 0.549528 0.310739
O O16 0.500000 0.000000 0.677369
#
# Coordination Sequence:
#
# PCOD9528697 Si02
#       7
#    16  16  16  16  16  16  16
#     4  11  22  38  60  93 140 178 204 251 314 385
#     4  12  22  36  62  95 133 177 213 253 314 390
#     4  10  24  46  67  88 123 168 219 289 344 377
#     4  10  23  39  64  95 125 163 214 269 316 395
#     4  11  21  39  63  92 136 174 212 251 317 392
#     4  11  21  38  61  90 126 169 215 260 319 386
#     4  11  23  42  61  94 128 170 221 271 317 385
#
# _framework density 20.391406
#
# number of rings (size 3 to 8) (size 9 to 14) (size 15 to 20)
#    0.000    1.143    4.286    2.571    0.000    1.429 
#    7.714    2.857    0.000    8.571    0.000    0.000 
#    0.000    0.000    0.000    0.000    0.000    0.000 
#
# Total GULP energy -312351.774108 kJ/mol
# GULP energy per Si atom -5577.710252 kJ/mol
# Density = 2.034499 g / cm^3
# Si number density = 20.391406 Si / 1000 Ang^3
#
#
#
# Elastic Constant Matrix: (Units=GPa)
#
#
# Indices 1 2 3 4 5 6 
#
# 1 107.4245 0.8619 -5.1851 0.0000 0.0000 0.0000
# 2 0.8619 68.7036 26.9540 0.0000 0.0000 0.0000
# 3 -5.1851 26.9540 72.5284 0.0000 0.0000 0.0000
# 4 0.0000 0.0000 0.0000 9.2412 0.0000 0.0000
# 5 0.0000 0.0000 0.0000 0.0000 6.3630 0.0000
# 6 0.0000 0.0000 0.0000 0.0000 0.0000 40.7139
#
#
#
# Elastic Compliance Matrix: (Units=1/GPa)
#
#
# Indices 1 2 3 4 5 6 
#
# 1 0.009353 -0.000444 0.000834 0.000000 0.000000 0.000000
# 2 -0.000444 0.017061 -0.006372 0.000000 0.000000 0.000000
# 3 0.000834 -0.006372 0.016215 0.000000 0.000000 0.000000
# 4 0.000000 0.000000 0.000000 0.108212 0.000000 0.000000
# 5 0.000000 0.000000 0.000000 0.000000 0.157158 0.000000
# 6 0.000000 0.000000 0.000000 0.000000 0.000000 0.024562
#
#
# Mechanical properties :
#
#
# Convention : Reuss Voigt Hill
#
# Bulk Modulus (GPa) = 32.61226 32.65755 32.63491
# Shear Modulus (GPa) = 14.09457 26.33200 20.21328
#
# Velocity S-wave (km/s) = 2.63192 3.59740 3.15185
# Velocity P-wave (km/s) = 5.02632 5.77107 5.41152
#
# Compressibility (1/GPa) = 0.03066332
#
# Stress axis : x y z
#
# Youngs Moduli (GPa) = 106.92126 58.61389 61.66975
#
# Poissons Ratio (x) = 0.02605 -0.05142
# Poissons Ratio (y) = 0.04752 0.39297
# Poissons Ratio (z) = -0.08915 0.37350
#
# Static dielectric constant tensor:
#      x y z
#    x 1.791120 0.000000 0.000000 
#    y 0.000000 1.777270 0.000000 
#    z 0.000000 0.000000 1.721970 
# 
# From -- ./inp_files/48683.got.cif
#   From: 2010.05.17/outbox.cif.g08.bks.cpg/sg72_25_cif.got.tgz:48683.got - 2010.06.03 17:03:01.
