data_PCOD9528206
_publ_section_title
;
Structure prediction by ZEFSAII (Michael W. Deem and Ramdas Pophale) SiO2 
 PCOD9528206
Probable space group: I B A M
;
_chemical_formula_sum "Si O2"
_cell_formula_units_Z 48
_cell_length_a 16.088762
_cell_length_b 10.040914
_cell_length_c 15.818155
_cell_angle_alpha 90.000000
_cell_angle_beta 90.000000
_cell_angle_gamma 90.000000
_cell_volume 2555.357700
_symmetry_space_group_name_H-M "I B A M"
_symmetry_group_IT_number 72
_symmetry_cell_setting 'orthorhombic'
loop_
_space_group_symop_operation_xyz
x,y,z
-x,-y,z
x,-y,1/2-z
-x,y,1/2-z
-x,-y,-z
x,y,-z
-x,y,1/2+z
x,-y,1/2+z
1/2+x,1/2+y,1/2+z
1/2-x,1/2-y,1/2+z
1/2+x,1/2-y,-z
1/2-x,1/2+y,-z
1/2-x,1/2-y,1/2-z
1/2+x,1/2+y,1/2-z
1/2-x,1/2+y,z
1/2+x,1/2-y,z
loop_
_atom_site_type_symbol
_atom_site_label
_atom_site_fract_x
_atom_site_fract_y
_atom_site_fract_z
Si Si1 0.181236 0.690528 0.403405
Si Si2 0.021348 0.345064 0.000000
Si Si3 0.193466 0.986570 0.655429
Si Si4 0.416861 0.588992 0.500000
O O1 0.214711 0.683323 0.500000
O O2 0.082261 0.683309 0.419912
O O3 0.221145 0.569779 0.352542
O O4 0.205268 0.831707 0.365101
O O5 0.000000 0.500000 0.000000
O O6 0.945278 0.242905 0.000000
O O7 0.133813 0.047993 0.583676
O O8 0.159768 0.000000 0.750000
O O9 0.500000 0.500000 0.500000
#
# Coordination Sequence:
#
# PCOD9528206 Si02
#       4
#    16   8  16   8
#     4  10  21  42  63  91 124 164 214 253 315 372
#     4  10  23  38  68  88 125 172 204 254 325 375
#     4  12  24  40  68  93 123 168 214 264 308 377
#     4  12  21  44  62  90 131 160 208 259 317 381
#
# _framework density 18.784063
#
# number of rings (size 3 to 8) (size 9 to 14) (size 15 to 20)
#    1.000    0.000    6.667    1.000    4.667    0.667 
#    0.000    0.000    0.000    0.000    0.000    0.000 
#    0.000    0.000    0.000    0.000    0.000    0.000 
#
# Total GULP energy -133830.709319 kJ/mol
# GULP energy per Si atom -5576.279555 kJ/mol
# Density = 1.874131 g / cm^3
# Si number density = 18.784063 Si / 1000 Ang^3
#
#
#
# Elastic Constant Matrix: (Units=GPa)
#
#
# Indices 1 2 3 4 5 6 
#
# 1 24.9795 -4.9403 15.5613 0.0000 0.0000 0.0000
# 2 -4.9403 128.4874 15.2118 0.0000 0.0000 0.0000
# 3 15.5613 15.2118 119.5403 0.0000 0.0000 0.0000
# 4 0.0000 0.0000 0.0000 14.2492 0.0000 0.0000
# 5 0.0000 0.0000 0.0000 0.0000 8.4027 0.0000
# 6 0.0000 0.0000 0.0000 0.0000 0.0000 45.3782
#
#
#
# Elastic Compliance Matrix: (Units=1/GPa)
#
#
# Indices 1 2 3 4 5 6 
#
# 1 0.044296 0.002422 -0.006075 0.000000 0.000000 0.000000
# 2 0.002422 0.008034 -0.001338 0.000000 0.000000 0.000000
# 3 -0.006075 -0.001338 0.009326 0.000000 0.000000 0.000000
# 4 0.000000 0.000000 0.000000 0.070180 0.000000 0.000000
# 5 0.000000 0.000000 0.000000 0.000000 0.119009 0.000000
# 6 0.000000 0.000000 0.000000 0.000000 0.000000 0.022037
#
#
# Mechanical properties :
#
#
# Convention : Reuss Voigt Hill
#
# Bulk Modulus (GPa) = 19.35093 36.07474 27.71283
# Shear Modulus (GPa) = 16.66178 30.08431 23.37305
#
# Velocity S-wave (km/s) = 2.98151 4.00632 3.53129
# Velocity P-wave (km/s) = 4.70922 6.37554 5.60465
#
# Compressibility (1/GPa) = 0.05167710
#
# Stress axis : x y z
#
# Youngs Moduli (GPa) = 22.57530 124.46517 107.22281
#
# Poissons Ratio (x) = -0.30150 0.65133
# Poissons Ratio (y) = -0.05469 0.14343
# Poissons Ratio (z) = 0.13714 0.16650
#
# Static dielectric constant tensor:
#      x y z
#    x 1.693930 0.000000 0.000000 
#    y 0.000000 1.631360 0.000000 
#    z 0.000000 0.000000 1.644920 
# 
# From -- ./inp_files/18224.got.cif
#   From: 2010.05.17/outbox.cif.g08.bks.cpg/sg72_10_cif.got.tgz:18224.got - 2010.06.03 17:03:01.
