data_PCOD9528986
_publ_section_title
;
Structure prediction by ZEFSAII (Michael W. Deem and Ramdas Pophale) SiO2 
 PCOD9528986
Probable space group: I B A M
;
_chemical_formula_sum "Si O2"
_cell_formula_units_Z 72
_cell_length_a 11.971619
_cell_length_b 13.974309
_cell_length_c 17.550433
_cell_angle_alpha 90.000000
_cell_angle_beta 90.000000
_cell_angle_gamma 90.000000
_cell_volume 2936.101499
_symmetry_space_group_name_H-M "I B A M"
_symmetry_group_IT_number 72
_symmetry_cell_setting 'orthorhombic'
loop_
_space_group_symop_operation_xyz
x,y,z
-x,-y,z
x,-y,1/2-z
-x,y,1/2-z
-x,-y,-z
x,y,-z
-x,y,1/2+z
x,-y,1/2+z
1/2+x,1/2+y,1/2+z
1/2-x,1/2-y,1/2+z
1/2+x,1/2-y,-z
1/2-x,1/2+y,-z
1/2-x,1/2-y,1/2-z
1/2+x,1/2+y,1/2-z
1/2-x,1/2+y,z
1/2+x,1/2-y,z
loop_
_atom_site_type_symbol
_atom_site_label
_atom_site_fract_x
_atom_site_fract_y
_atom_site_fract_z
Si Si1 0.352556 0.149186 0.704322
Si Si2 0.000000 0.500000 0.377826
Si Si3 0.710242 0.893510 0.877720
Si Si4 0.941734 0.861346 0.827017
Si Si5 0.334596 0.675508 0.585276
O O1 0.453235 0.088385 0.670635
O O2 0.321262 0.115880 0.788123
O O3 0.386434 0.260542 0.700777
O O4 0.248317 0.133329 0.648414
O O5 0.114769 0.460360 0.414186
O O6 0.842147 0.917304 0.870572
O O7 0.694458 0.788664 0.913308
O O8 0.000000 0.899937 0.750000
O O9 0.039632 0.839029 0.886433
O O10 0.316852 0.638617 0.500000
#
# Coordination Sequence:
#
# PCOD9528986 Si02
#       5
#    16   8  16  16  16
#     4  11  20  37  66  93 128 161 205 264 318 378
#     4  12  23  40  67 104 127 158 211 270 327 386
#     4  11  21  37  65  94 128 164 208 263 323 380
#     4  11  18  37  65  90 121 169 214 259 309 374
#     4  11  23  39  62  93 125 166 220 263 308 378
#
# _framework density 24.522311999999999
#
# number of rings (size 3 to 8) (size 9 to 14) (size 15 to 20)
#    0.000    0.889    6.667    3.333    0.000    3.556 
#    0.000    3.333    0.000    1.333    0.000    0.000 
#    0.000    0.000    0.000    0.000    0.000    0.000 
#
# Total GULP energy -201359.476823 kJ/mol
# GULP energy per Si atom -5593.318801 kJ/mol
# Density = 2.446650 g / cm^3
# Si number density = 24.522312 Si / 1000 Ang^3
#
#
#
# Elastic Constant Matrix: (Units=GPa)
#
#
# Indices 1 2 3 4 5 6 
#
# 1 219.7440 21.8756 51.7483 0.0000 0.0000 0.0000
# 2 21.8756 65.4525 -7.1903 0.0000 0.0000 0.0000
# 3 51.7483 -7.1903 147.9267 0.0000 0.0000 0.0000
# 4 0.0000 0.0000 0.0000 -0.8521 0.0000 0.0000
# 5 0.0000 0.0000 0.0000 0.0000 -1.6095 0.0000
# 6 0.0000 0.0000 0.0000 0.0000 0.0000 44.1871
#
#
#
# Elastic Compliance Matrix: (Units=1/GPa)
#
#
# Indices 1 2 3 4 5 6 
#
# 1 0.005195 -0.001946 -0.001912 0.000000 0.000000 0.000000
# 2 -0.001946 0.016089 0.001463 0.000000 0.000000 0.000000
# 3 -0.001912 0.001463 0.007500 0.000000 0.000000 0.000000
# 4 0.000000 0.000000 0.000000 -1.173541 0.000001 0.000000
# 5 0.000000 0.000000 0.000000 0.000001 -0.621326 0.000000
# 6 0.000000 0.000000 0.000000 0.000000 0.000000 0.022631
#
#
# Mechanical properties :
#
#
# Convention : Reuss Voigt Hill
#
# Bulk Modulus (GPa) = 41.67733 62.88780 52.28256
# Shear Modulus (GPa) = -2.88907 32.79107 14.95100
#
# Velocity S-wave (km/s) = -1.08660 3.66073 2.47187
# Velocity P-wave (km/s) = 3.93171 6.60066 5.43264
#
# Compressibility (1/GPa) = 0.02399386
#
# Stress axis : x y z
#
# Youngs Moduli (GPa) = 192.50313 62.15263 133.33296
#
# Poissons Ratio (x) = 0.12096 0.25491
# Poissons Ratio (y) = 0.37465 -0.19505
# Poissons Ratio (z) = 0.36803 -0.09092
#
# Static dielectric constant tensor:
#      x y z
#    x 1.998230 0.000000 0.000000 
#    y 0.000000 2.001590 0.000000 
#    z 0.000000 0.000000 1.922230 
# 
# From -- ./inp_files/29031.got.cif
#   From: 2010.05.17/outbox.cif.g08.bks.cpg/sg72_15_cif.got.tgz:29031.got - 2010.06.03 17:03:01.
