data_PCOD9528602
_publ_section_title
;
Structure prediction by ZEFSAII (Michael W. Deem and Ramdas Pophale) SiO2 
 PCOD9528602
Probable space group: I B A M
;
_chemical_formula_sum "Si O2"
_cell_formula_units_Z 64
_cell_length_a 9.759544
_cell_length_b 19.000955
_cell_length_c 13.546761
_cell_angle_alpha 90.000000
_cell_angle_beta 90.000000
_cell_angle_gamma 90.000000
_cell_volume 2512.120251
_symmetry_space_group_name_H-M "I B A M"
_symmetry_group_IT_number 72
_symmetry_cell_setting 'orthorhombic'
loop_
_space_group_symop_operation_xyz
x,y,z
-x,-y,z
x,-y,1/2-z
-x,y,1/2-z
-x,-y,-z
x,y,-z
-x,y,1/2+z
x,-y,1/2+z
1/2+x,1/2+y,1/2+z
1/2-x,1/2-y,1/2+z
1/2+x,1/2-y,-z
1/2-x,1/2+y,-z
1/2-x,1/2-y,1/2-z
1/2+x,1/2+y,1/2-z
1/2-x,1/2+y,z
1/2+x,1/2-y,z
loop_
_atom_site_type_symbol
_atom_site_label
_atom_site_fract_x
_atom_site_fract_y
_atom_site_fract_z
Si Si1 0.677977 0.478395 0.884202
Si Si2 0.257556 0.781818 0.119061
Si Si3 0.844733 0.408345 0.742711
Si Si4 0.459232 0.342199 0.617377
O O1 0.793619 0.420730 0.854500
O O2 0.739817 0.544624 0.824659
O O3 0.550408 0.426076 0.855142
O O4 0.669866 0.494607 0.000000
O O5 0.343050 0.835786 0.184820
O O6 0.329287 0.707286 0.142006
O O7 0.099154 0.801286 0.144763
O O8 0.271039 0.792495 0.000000
O O9 0.000000 0.430409 0.750000
O O10 0.460727 0.346020 0.500000
#
# Coordination Sequence:
#
# PCOD9528602 Si02
#       4
#    16  16  16  16
#     4  10  22  43  67  94 134 179 229 288 343 411
#     4  10  22  43  69 103 143 181 229 287 345 416
#     4  11  25  41  64 103 135 181 236 280 349 415
#     4   9  21  41  69 103 138 185 231 277 351 416
#
# _framework density 25.476486999999999
#
# number of rings (size 3 to 8) (size 9 to 14) (size 15 to 20)
#    0.000    2.000    0.000    2.250    3.500    6.000 
#    0.000    6.250    0.000    0.000    0.000    0.000 
#    0.000    0.000    0.000    0.000    0.000    0.000 
#
# Total GULP energy -178212.052501 kJ/mol
# GULP energy per Si atom -5569.126641 kJ/mol
# Density = 2.541850 g / cm^3
# Si number density = 25.476487 Si / 1000 Ang^3
#
#
#
# Elastic Constant Matrix: (Units=GPa)
#
#
# Indices 1 2 3 4 5 6 
#
# 1 160.6723 34.9749 26.0994 0.0000 0.0000 0.0000
# 2 34.9749 153.1627 12.1004 0.0000 0.0000 0.0000
# 3 26.0994 12.1004 139.6886 0.0000 0.0000 0.0000
# 4 0.0000 0.0000 0.0000 40.0089 0.0000 0.0000
# 5 0.0000 0.0000 0.0000 0.0000 28.4440 0.0000
# 6 0.0000 0.0000 0.0000 0.0000 0.0000 -56.5131
#
#
#
# Elastic Compliance Matrix: (Units=1/GPa)
#
#
# Indices 1 2 3 4 5 6 
#
# 1 0.006722 -0.001446 -0.001131 0.000000 0.000000 0.000000
# 2 -0.001446 0.006885 -0.000326 0.000000 0.000000 0.000000
# 3 -0.001131 -0.000326 0.007398 0.000000 0.000000 0.000000
# 4 0.000000 0.000000 0.000000 0.024994 0.000000 0.000000
# 5 0.000000 0.000000 0.000000 0.000000 0.035157 0.000000
# 6 0.000000 0.000000 0.000000 0.000000 0.000000 -0.017695
#
#
# Mechanical properties :
#
#
# Convention : Reuss Voigt Hill
#
# Bulk Modulus (GPa) = 65.78952 66.65255 66.22104
# Shear Modulus (GPa) = 67.26417 27.74454 47.50436
#
# Velocity S-wave (km/s) = 5.14391 3.30362 4.32283
# Velocity P-wave (km/s) = 7.82045 6.38522 7.13899
#
# Compressibility (1/GPa) = 0.01519999
#
# Stress axis : x y z
#
# Youngs Moduli (GPa) = 148.76033 145.24523 135.16591
#
# Poissons Ratio (x) = 0.20998 0.15284
# Poissons Ratio (y) = 0.21506 0.04410
# Poissons Ratio (z) = 0.16821 0.04739
#
# Static dielectric constant tensor:
#      x y z
#    x 2.050550 0.000000 0.000000 
#    y 0.000000 2.099660 0.000000 
#    z 0.000000 0.000000 2.103570 
# 
# From -- ./inp_files/19741.got.cif
#   From: 2010.05.17/outbox.cif.g08.bks.cpg/sg72_10_cif.got.tgz:19741.got - 2010.06.03 17:03:01.
