data_PCOD9528782
_publ_section_title
;
Structure prediction by ZEFSAII (Michael W. Deem and Ramdas Pophale) SiO2 
 PCOD9528782
Probable space group: I B A M
;
_chemical_formula_sum "Si O2"
_cell_formula_units_Z 52
_cell_length_a 18.284269
_cell_length_b 8.803596
_cell_length_c 12.375820
_cell_angle_alpha 90.000000
_cell_angle_beta 90.000000
_cell_angle_gamma 90.000000
_cell_volume 1992.102546
_symmetry_space_group_name_H-M "I B A M"
_symmetry_group_IT_number 72
_symmetry_cell_setting 'orthorhombic'
loop_
_space_group_symop_operation_xyz
x,y,z
-x,-y,z
x,-y,1/2-z
-x,y,1/2-z
-x,-y,-z
x,y,-z
-x,y,1/2+z
x,-y,1/2+z
1/2+x,1/2+y,1/2+z
1/2-x,1/2-y,1/2+z
1/2+x,1/2-y,-z
1/2-x,1/2+y,-z
1/2-x,1/2-y,1/2-z
1/2+x,1/2+y,1/2-z
1/2-x,1/2+y,z
1/2+x,1/2-y,z
loop_
_atom_site_type_symbol
_atom_site_label
_atom_site_fract_x
_atom_site_fract_y
_atom_site_fract_z
Si Si1 0.092322 0.741134 0.666227
Si Si2 0.893966 0.591393 0.388900
Si Si3 0.219154 0.057519 0.876248
Si Si4 0.000000 0.000000 0.750000
O O1 0.074382 0.579090 0.614418
O O2 0.085295 0.694352 0.790630
O O3 0.047636 0.896237 0.668110
O O4 0.173469 0.785907 0.627687
O O5 0.914134 0.667449 0.500000
O O6 0.806197 0.575842 0.379369
O O7 0.203801 0.000000 0.750000
O O8 0.201243 0.991193 0.000000
#
# Coordination Sequence:
#
# PCOD9528782 Si02
#       4
#    16  16  16   4
#     4  11  23  46  65  99 144 188 235 294 345 429
#     4  10  23  42  73 105 139 181 232 295 367 431
#     4  11  22  40  71 110 144 180 225 290 363 430
#     4  12  28  46  70  92 138 194 254 290 354 410
#
# _framework density 26.103071
#
# number of rings (size 3 to 8) (size 9 to 14) (size 15 to 20)
#    0.000    1.231    4.615    1.846    0.000    3.692 
#    0.000    8.462    0.000    0.000    0.000    0.000 
#    0.000    0.000    0.000    0.000    0.000    0.000 
#
# Total GULP energy -144923.439957 kJ/mol
# GULP energy per Si atom -5573.978460 kJ/mol
# Density = 2.604366 g / cm^3
# Si number density = 26.103071 Si / 1000 Ang^3
#
#
#
# Elastic Constant Matrix: (Units=GPa)
#
#
# Indices 1 2 3 4 5 6 
#
# 1 89.5838 55.7494 6.1673 0.0000 0.0000 0.0000
# 2 55.7494 106.0072 28.6423 0.0000 0.0000 0.0000
# 3 6.1673 28.6423 248.4126 0.0000 0.0000 0.0000
# 4 0.0000 0.0000 0.0000 -854.1472 0.0000 0.0000
# 5 0.0000 0.0000 0.0000 0.0000 -582.9254 0.0000
# 6 0.0000 0.0000 0.0000 0.0000 0.0000 36.8623
#
#
#
# Elastic Compliance Matrix: (Units=1/GPa)
#
#
# Indices 1 2 3 4 5 6 
#
# 1 0.016684 -0.008941 0.000617 0.000000 0.000000 0.000000
# 2 -0.008941 0.014528 -0.001453 0.000000 0.000000 0.000000
# 3 0.000617 -0.001453 0.004178 0.000000 0.000000 0.000000
# 4 0.000000 0.000000 0.000000 -0.001171 0.000000 0.000000
# 5 0.000000 0.000000 0.000000 0.000000 -0.001715 0.000000
# 6 0.000000 0.000000 0.000000 0.000000 0.000000 0.027128
#
#
# Mechanical properties :
#
#
# Convention : Reuss Voigt Hill
#
# Bulk Modulus (GPa) = 63.14976 69.45796 66.30386
# Shear Modulus (GPa) = 59.19593 -256.47910 -98.64158
#
# Velocity S-wave (km/s) = 4.76728 -9.92318 -6.15397
# Velocity P-wave (km/s) = 7.38564 10.22868 5.00391
#
# Compressibility (1/GPa) = 0.01583537
#
# Stress axis : x y z
#
# Youngs Moduli (GPa) = 59.93630 68.83249 239.36053
#
# Poissons Ratio (x) = 0.61543 -0.14761
# Poissons Ratio (y) = 0.53589 0.34782
# Poissons Ratio (z) = -0.03696 0.10002
#
# Static dielectric constant tensor:
#      x y z
#    x 2.101480 0.000000 0.000000 
#    y 0.000000 1.996370 0.000000 
#    z 0.000000 0.000000 2.063720 
# 
# From -- ./inp_files/23721.got.cif
#   From: 2010.05.17/outbox.cif.g08.bks.cpg/sg72_12_cif.got.tgz:23721.got - 2010.06.03 17:03:01.
