data_PCOD9528870
_publ_section_title
;
Structure prediction by ZEFSAII (Michael W. Deem and Ramdas Pophale) SiO2 
 PCOD9528870
Probable space group: I B A M
;
_chemical_formula_sum "Si O2"
_cell_formula_units_Z 60
_cell_length_a 25.664582
_cell_length_b 11.954553
_cell_length_c 9.092456
_cell_angle_alpha 90.000000
_cell_angle_beta 90.000000
_cell_angle_gamma 90.000000
_cell_volume 2789.643748
_symmetry_space_group_name_H-M "I B A M"
_symmetry_group_IT_number 72
_symmetry_cell_setting 'orthorhombic'
loop_
_space_group_symop_operation_xyz
x,y,z
-x,-y,z
x,-y,1/2-z
-x,y,1/2-z
-x,-y,-z
x,y,-z
-x,y,1/2+z
x,-y,1/2+z
1/2+x,1/2+y,1/2+z
1/2-x,1/2-y,1/2+z
1/2+x,1/2-y,-z
1/2-x,1/2+y,-z
1/2-x,1/2-y,1/2-z
1/2+x,1/2+y,1/2-z
1/2-x,1/2+y,z
1/2+x,1/2-y,z
loop_
_atom_site_type_symbol
_atom_site_label
_atom_site_fract_x
_atom_site_fract_y
_atom_site_fract_z
Si Si1 0.894957 0.344084 0.500000
Si Si2 0.518372 0.338348 0.000000
Si Si3 0.500000 0.500000 0.750000
Si Si4 0.311941 0.847442 0.500000
Si Si5 0.354987 0.000000 0.750000
Si Si6 0.153109 0.000000 0.250000
Si Si7 0.104663 0.848884 0.000000
Si Si8 0.304357 0.341482 0.500000
O O1 0.947144 0.271248 0.500000
O O2 0.889053 0.421302 0.356366
O O3 0.846938 0.256535 0.500000
O O4 0.529756 0.416309 0.140376
O O5 0.456245 0.318579 0.000000
O O6 0.320195 0.924338 0.642889
O O7 0.357857 0.757531 0.500000
O O8 0.254395 0.796514 0.500000
O O9 0.119727 0.921790 0.141911
O O10 0.186018 0.919369 0.357371
#
# Coordination Sequence:
#
# PCOD9528870 Si02
#       8
#     8   8   4   8   8   8   8   8
#     4  11  26  46  71  96 135 180 236 271 336 391
#     4  11  26  43  71 105 140 178 213 281 343 418
#     4  10  26  42  74 104 148 172 208 284 356 394
#     4  11  24  44  68  95 133 178 230 276 335 384
#     4  10  25  48  66  92 134 185 226 286 320 392
#     4  10  24  40  65 102 140 168 210 271 352 410
#     4  11  24  42  67  98 134 175 216 272 335 407
#     4  11  24  41  68 103 133 175 220 279 337 411
#
# _framework density 21.508122
#
# number of rings (size 3 to 8) (size 9 to 14) (size 15 to 20)
#    0.000    1.333    0.000    3.200   14.933    8.533 
#    0.000    4.000    0.000    0.000    0.000    0.000 
#    0.000    0.000    0.000    0.000    0.000    0.000 
#
# Total GULP energy -167978.101146 kJ/mol
# GULP energy per Si atom -5599.270038 kJ/mol
# Density = 2.145917 g / cm^3
# Si number density = 21.508122 Si / 1000 Ang^3
#
#
#
# Elastic Constant Matrix: (Units=GPa)
#
#
# Indices 1 2 3 4 5 6 
#
# 1 161.2107 65.6518 38.7822 0.0000 0.0000 0.0000
# 2 65.6518 117.4121 54.1299 0.0000 0.0000 0.0000
# 3 38.7822 54.1299 166.4716 0.0000 0.0000 0.0000
# 4 0.0000 0.0000 0.0000 -19.0216 0.0000 0.0000
# 5 0.0000 0.0000 0.0000 0.0000 5.3359 0.0000
# 6 0.0000 0.0000 0.0000 0.0000 0.0000 29.0688
#
#
#
# Elastic Compliance Matrix: (Units=1/GPa)
#
#
# Indices 1 2 3 4 5 6 
#
# 1 0.008065 -0.004286 -0.000485 0.000000 0.000000 0.000000
# 2 -0.004286 0.012297 -0.003000 0.000000 0.000000 0.000000
# 3 -0.000485 -0.003000 0.007096 0.000000 0.000000 0.000000
# 4 0.000000 0.000000 0.000000 -0.052572 0.000000 0.000000
# 5 0.000000 0.000000 0.000000 0.000000 0.187409 0.000000
# 6 0.000000 0.000000 0.000000 0.000000 0.000000 0.034401
#
#
# Mechanical properties :
#
#
# Convention : Reuss Voigt Hill
#
# Bulk Modulus (GPa) = 83.92766 84.69138 84.30952
# Shear Modulus (GPa) = 23.12563 22.17864 22.65214
#
# Velocity S-wave (km/s) = 3.28259 3.21468 3.24881
# Velocity P-wave (km/s) = 7.31254 7.29663 7.30459
#
# Compressibility (1/GPa) = 0.01191502
#
# Stress axis : x y z
#
# Youngs Moduli (GPa) = 123.98870 81.32351 140.93402
#
# Poissons Ratio (x) = 0.34855 0.06839
# Poissons Ratio (y) = 0.53142 0.42278
# Poissons Ratio (z) = 0.06017 0.24396
#
# Static dielectric constant tensor:
#      x y z
#    x 1.781390 0.000000 0.000000 
#    y 0.000000 1.752560 0.000000 
#    z 0.000000 0.000000 1.767570 
# 
# From -- ./inp_files/2464.got.cif
#   From: 2010.05.17/outbox.cif.g08.bks.cpg/sg72_2_cif.got.tgz:2464.got - 2010.06.03 17:03:01.
