data_PCOD9528783
_publ_section_title
;
Structure prediction by ZEFSAII (Michael W. Deem and Ramdas Pophale) SiO2 
 PCOD9528783
Probable space group: I B A M
;
_chemical_formula_sum "Si O2"
_cell_formula_units_Z 112
_cell_length_a 14.329023
_cell_length_b 14.082364
_cell_length_c 26.489352
_cell_angle_alpha 90.000000
_cell_angle_beta 90.000000
_cell_angle_gamma 90.000000
_cell_volume 5345.194095
_symmetry_space_group_name_H-M "I B A M"
_symmetry_group_IT_number 72
_symmetry_cell_setting 'orthorhombic'
loop_
_space_group_symop_operation_xyz
x,y,z
-x,-y,z
x,-y,1/2-z
-x,y,1/2-z
-x,-y,-z
x,y,-z
-x,y,1/2+z
x,-y,1/2+z
1/2+x,1/2+y,1/2+z
1/2-x,1/2-y,1/2+z
1/2+x,1/2-y,-z
1/2-x,1/2+y,-z
1/2-x,1/2-y,1/2-z
1/2+x,1/2+y,1/2-z
1/2-x,1/2+y,z
1/2+x,1/2-y,z
loop_
_atom_site_type_symbol
_atom_site_label
_atom_site_fract_x
_atom_site_fract_y
_atom_site_fract_z
Si Si1 0.231050 0.326585 0.442202
Si Si2 0.303385 0.749573 0.659788
Si Si3 0.094705 0.439141 0.835005
Si Si4 0.632438 0.372315 0.137281
Si Si5 0.110610 0.479594 0.944823
Si Si6 0.293771 0.464877 0.195351
Si Si7 0.501656 0.247592 0.805927
O O1 0.232647 0.296782 0.500000
O O2 0.193969 0.250544 0.401504
O O3 0.332340 0.354828 0.419517
O O4 0.166375 0.421248 0.437960
O O5 0.213413 0.815507 0.669354
O O6 0.297148 0.647027 0.685015
O O7 0.400489 0.790692 0.679077
O O8 0.122708 0.419736 0.893757
O O9 0.184257 0.489572 0.811656
O O10 0.071282 0.341322 0.807662
O O11 0.000000 0.500000 0.834092
O O12 0.645303 0.479914 0.153977
O O13 0.536935 0.324470 0.153768
O O14 0.000000 0.500000 0.946852
O O15 0.137637 0.439500 0.000000
O O16 0.325125 0.500000 0.250000
O O17 0.500000 0.289439 0.750000
#
# Coordination Sequence:
#
# PCOD9528783 Si02
#       7
#    16  16  16  16  16  16  16
#     4   9  18  39  65  89 129 170 206 270 336 387
#     4  10  23  43  60  90 131 161 214 269 316 390
#     4  11  21  34  55  94 122 152 212 266 320 378
#     4  10  23  43  61  90 131 161 221 267 318 395
#     4   9  16  30  56  89 124 160 197 254 326 380
#     4  12  24  38  62  87 124 173 210 259 321 375
#     4  12  25  39  63  88 127 178 216 264 324 385
#
# _framework density 20.953400999999999
#
# number of rings (size 3 to 8) (size 9 to 14) (size 15 to 20)
#    0.857    0.714    2.857    3.429    4.000    1.714 
#    0.000    5.714    0.000    0.000    0.000    2.000 
#    0.000    0.000    0.000    0.000    0.000    0.000 
#
# Total GULP energy -312322.917391 kJ/mol
# GULP energy per Si atom -5577.194953 kJ/mol
# Density = 2.090571 g / cm^3
# Si number density = 20.953401 Si / 1000 Ang^3
#
#
#
# Elastic Constant Matrix: (Units=GPa)
#
#
# Indices 1 2 3 4 5 6 
#
# 1 43.3962 0.7694 3.2701 0.0000 0.0000 0.0000
# 2 0.7694 53.9338 -1.0588 0.0000 0.0000 0.0000
# 3 3.2701 -1.0588 114.2009 0.0000 0.0000 0.0000
# 4 0.0000 0.0000 0.0000 14.5181 0.0000 0.0000
# 5 0.0000 0.0000 0.0000 0.0000 8.4725 0.0000
# 6 0.0000 0.0000 0.0000 0.0000 0.0000 27.1861
#
#
#
# Elastic Compliance Matrix: (Units=1/GPa)
#
#
# Indices 1 2 3 4 5 6 
#
# 1 0.023100 -0.000343 -0.000665 0.000000 0.000000 0.000000
# 2 -0.000343 0.018550 0.000182 0.000000 0.000000 0.000000
# 3 -0.000665 0.000182 0.008777 0.000000 0.000000 0.000000
# 4 0.000000 0.000000 0.000000 0.068880 0.000000 0.000000
# 5 0.000000 0.000000 0.000000 0.000000 0.118029 0.000000
# 6 0.000000 0.000000 0.000000 0.000000 0.000000 0.036783
#
#
# Mechanical properties :
#
#
# Convention : Reuss Voigt Hill
#
# Bulk Modulus (GPa) = 20.50201 24.16582 22.33391
# Shear Modulus (GPa) = 17.12163 23.93869 20.53016
#
# Velocity S-wave (km/s) = 2.86165 3.38372 3.13357
# Velocity P-wave (km/s) = 4.55242 5.17921 4.87590
#
# Compressibility (1/GPa) = 0.04877571
#
# Stress axis : x y z
#
# Youngs Moduli (GPa) = 43.29070 53.90922 113.93135
#
# Poissons Ratio (x) = 0.01847 0.07572
# Poissons Ratio (y) = 0.01483 -0.02071
# Poissons Ratio (z) = 0.02877 -0.00980
#
# Static dielectric constant tensor:
#      x y z
#    x 1.767910 0.000000 0.000000 
#    y 0.000000 1.752780 0.000000 
#    z 0.000000 0.000000 1.777980 
# 
# From -- ./inp_files/48738.got.cif
#   From: 2010.05.17/outbox.cif.g08.bks.cpg/sg72_25_cif.got.tgz:48738.got - 2010.06.03 17:03:01.
