data_PCOD9528466
_publ_section_title
;
Structure prediction by ZEFSAII (Michael W. Deem and Ramdas Pophale) SiO2 
 PCOD9528466
Probable space group: I B A M
;
_chemical_formula_sum "Si O2"
_cell_formula_units_Z 48
_cell_length_a 4.656475
_cell_length_b 19.335396
_cell_length_c 20.506180
_cell_angle_alpha 90.000000
_cell_angle_beta 90.000000
_cell_angle_gamma 90.000000
_cell_volume 1846.269571
_symmetry_space_group_name_H-M "I B A M"
_symmetry_group_IT_number 72
_symmetry_cell_setting 'orthorhombic'
loop_
_space_group_symop_operation_xyz
x,y,z
-x,-y,z
x,-y,1/2-z
-x,y,1/2-z
-x,-y,-z
x,y,-z
-x,y,1/2+z
x,-y,1/2+z
1/2+x,1/2+y,1/2+z
1/2-x,1/2-y,1/2+z
1/2+x,1/2-y,-z
1/2-x,1/2+y,-z
1/2-x,1/2-y,1/2-z
1/2+x,1/2+y,1/2-z
1/2-x,1/2+y,z
1/2+x,1/2-y,z
loop_
_atom_site_type_symbol
_atom_site_label
_atom_site_fract_x
_atom_site_fract_y
_atom_site_fract_z
Si Si1 0.231691 0.117223 0.705762
Si Si2 0.307218 0.431509 0.930573
Si Si3 0.907344 0.795895 0.108313
O O1 0.500000 0.135953 0.750000
O O2 0.340302 0.077995 0.640281
O O3 0.038130 0.180609 0.678038
O O4 0.000000 0.077283 0.750000
O O5 0.500000 0.500000 0.927212
O O6 0.507515 0.363349 0.931429
O O7 0.145671 0.432205 0.000000
O O8 0.082328 0.725237 0.095929
#
# Coordination Sequence:
#
# PCOD9528466 Si02
#       3
#    16  16  16
#     4  10  22  41  67  99 136 175 226 280 340 408
#     4   9  22  45  70  98 138 185 230 282 345 411
#     4  10  22  40  68 100 137 177 227 281 340 406
#
# _framework density 25.998370999999999
#
# number of rings (size 3 to 8) (size 9 to 14) (size 15 to 20)
#    2.000    0.333    0.000    2.000    0.000    6.000 
#    0.000   13.333    0.000   16.000    0.000    0.000 
#    0.000    0.000    0.000    0.000    0.000    0.000 
#
# Total GULP energy -133766.557125 kJ/mol
# GULP energy per Si atom -5573.606547 kJ/mol
# Density = 2.593920 g / cm^3
# Si number density = 25.998371 Si / 1000 Ang^3
#
#
#
# Elastic Constant Matrix: (Units=GPa)
#
#
# Indices 1 2 3 4 5 6 
#
# 1 91.6499 14.9061 26.6210 0.0000 0.0000 0.0000
# 2 14.9061 131.7943 25.2364 0.0000 0.0000 0.0000
# 3 26.6210 25.2364 174.9847 0.0000 0.0000 0.0000
# 4 0.0000 0.0000 0.0000 3.5044 0.0000 0.0000
# 5 0.0000 0.0000 0.0000 0.0000 -2.6268 0.0000
# 6 0.0000 0.0000 0.0000 0.0000 0.0000 28.8203
#
#
#
# Elastic Compliance Matrix: (Units=1/GPa)
#
#
# Indices 1 2 3 4 5 6 
#
# 1 0.011541 -0.000997 -0.001612 0.000000 0.000000 0.000000
# 2 -0.000997 0.007889 -0.000986 0.000000 0.000000 0.000000
# 3 -0.001612 -0.000986 0.006102 0.000000 0.000000 0.000000
# 4 0.000000 0.000000 0.000000 0.285356 0.000000 0.000000
# 5 0.000000 0.000000 0.000000 0.000000 -0.380691 0.000000
# 6 0.000000 0.000000 0.000000 0.000000 0.000000 0.034698
#
#
# Mechanical properties :
#
#
# Convention : Reuss Voigt Hill
#
# Bulk Modulus (GPa) = 54.51665 59.10622 56.81143
# Shear Modulus (GPa) = -229.34864 28.05061 -100.64902
#
# Velocity S-wave (km/s) = -9.40256 3.28828 -6.22877
# Velocity P-wave (km/s) = 9.84188 6.09926 5.46176
#
# Compressibility (1/GPa) = 0.01834302
#
# Stress axis : x y z
#
# Youngs Moduli (GPa) = 86.64424 126.75656 163.87366
#
# Poissons Ratio (x) = 0.12633 0.26418
# Poissons Ratio (y) = 0.08636 0.16160
# Poissons Ratio (z) = 0.13968 0.12500
#
# Static dielectric constant tensor:
#      x y z
#    x 2.049990 0.000000 0.000000 
#    y 0.000000 2.014290 0.000000 
#    z 0.000000 0.000000 2.180220 
# 
# From -- ./inp_files/41374.got.cif
#   From: 2010.05.17/outbox.cif.g08.bks.cpg/sg72_21_cif.got.tgz:41374.got - 2010.06.03 17:03:01.
