data_PCOD9528029
_publ_section_title
;
Structure prediction by ZEFSAII (Michael W. Deem and Ramdas Pophale) SiO2 
 PCOD9528029
Probable space group: I B A M
;
_chemical_formula_sum "Si O2"
_cell_formula_units_Z 112
_cell_length_a 31.335530
_cell_length_b 10.615060
_cell_length_c 15.610136
_cell_angle_alpha 90.000000
_cell_angle_beta 90.000000
_cell_angle_gamma 90.000000
_cell_volume 5192.376608
_symmetry_space_group_name_H-M "I B A M"
_symmetry_group_IT_number 72
_symmetry_cell_setting 'orthorhombic'
loop_
_space_group_symop_operation_xyz
x,y,z
-x,-y,z
x,-y,1/2-z
-x,y,1/2-z
-x,-y,-z
x,y,-z
-x,y,1/2+z
x,-y,1/2+z
1/2+x,1/2+y,1/2+z
1/2-x,1/2-y,1/2+z
1/2+x,1/2-y,-z
1/2-x,1/2+y,-z
1/2-x,1/2-y,1/2-z
1/2+x,1/2+y,1/2-z
1/2-x,1/2+y,z
1/2+x,1/2-y,z
loop_
_atom_site_type_symbol
_atom_site_label
_atom_site_fract_x
_atom_site_fract_y
_atom_site_fract_z
Si Si1 0.930411 0.390890 0.632007
Si Si2 0.144263 0.202893 0.597428
Si Si3 0.066326 0.337604 0.333926
Si Si4 0.006016 0.170123 0.095712
Si Si5 0.914139 0.022556 0.351405
Si Si6 0.648439 0.744137 0.597539
Si Si7 0.710210 0.346326 0.749559
O O1 0.946348 0.533050 0.619954
O O2 0.932842 0.360941 0.733168
O O3 0.962529 0.291372 0.591526
O O4 0.880615 0.369989 0.607304
O O5 0.158449 0.223428 0.500000
O O6 0.114116 0.311744 0.634203
O O7 0.181880 0.175189 0.664089
O O8 0.110365 0.088476 0.600753
O O9 0.033904 0.222325 0.350145
O O10 0.037270 0.060071 0.129553
O O11 0.990733 0.142667 0.000000
O O12 0.887933 0.141830 0.383990
O O13 0.908552 0.000000 0.250000
O O14 0.664601 0.736492 0.500000
O O15 0.683008 0.703940 0.668449
O O16 0.718776 0.500000 0.750000
O O17 0.750000 0.250000 0.750000
#
# Coordination Sequence:
#
# PCOD9528029 Si02
#       7
#    16  16  16  16  16  16  16
#     4  10  21  39  63  91 130 184 237 284 343 410
#     4  12  23  42  70  97 134 183 228 279 345 420
#     4  11  23  39  60  92 138 184 231 288 346 405
#     4  11  23  37  57  94 135 179 235 290 342 404
#     4  11  20  40  67  94 130 181 234 285 339 408
#     4  11  21  42  74 100 128 174 229 281 348 422
#     4  12  27  49  74 108 142 180 223 288 359 433
#
# _framework density 21.570084000000001
#
# number of rings (size 3 to 8) (size 9 to 14) (size 15 to 20)
#    0.000    0.857    4.286    4.714    0.000    6.286 
#    0.000    4.286    0.000    0.000    0.000    0.000 
#    0.000    0.000    0.000    0.000    0.000    0.000 
#
# Total GULP energy -312692.673846 kJ/mol
# GULP energy per Si atom -5583.797747 kJ/mol
# Density = 2.152099 g / cm^3
# Si number density = 21.570084 Si / 1000 Ang^3
#
#
#
# Elastic Constant Matrix: (Units=GPa)
#
#
# Indices 1 2 3 4 5 6 
#
# 1 134.1483 42.2615 37.5776 0.0000 0.0000 0.0000
# 2 42.2615 81.3310 11.1647 0.0000 0.0000 0.0000
# 3 37.5776 11.1647 138.1856 0.0000 0.0000 0.0000
# 4 0.0000 0.0000 0.0000 13.5988 0.0000 0.0000
# 5 0.0000 0.0000 0.0000 0.0000 -31.3156 0.0000
# 6 0.0000 0.0000 0.0000 0.0000 0.0000 25.7840
#
#
#
# Elastic Compliance Matrix: (Units=1/GPa)
#
#
# Indices 1 2 3 4 5 6 
#
# 1 0.009542 -0.004654 -0.002219 0.000000 0.000000 0.000000
# 2 -0.004654 0.014703 0.000078 0.000000 0.000000 0.000000
# 3 -0.002219 0.000078 0.007834 0.000000 0.000000 0.000000
# 4 0.000000 0.000000 0.000000 0.073536 0.000000 0.000000
# 5 0.000000 0.000000 0.000000 0.000000 -0.031933 0.000000
# 6 0.000000 0.000000 0.000000 0.000000 0.000000 0.038784
#
#
# Mechanical properties :
#
#
# Convention : Reuss Voigt Hill
#
# Bulk Modulus (GPa) = 54.08657 59.51918 56.80287
# Shear Modulus (GPa) = 37.81625 19.12419 28.47022
#
# Velocity S-wave (km/s) = 4.19164 2.98082 3.63698
# Velocity P-wave (km/s) = 6.96819 6.28493 6.63536
#
# Compressibility (1/GPa) = 0.01848888
#
# Stress axis : x y z
#
# Youngs Moduli (GPa) = 104.79931 68.01355 127.65273
#
# Poissons Ratio (x) = 0.31651 0.28324
# Poissons Ratio (y) = 0.48770 -0.00990
# Poissons Ratio (z) = 0.23253 -0.00528
#
# Static dielectric constant tensor:
#      x y z
#    x 1.782590 0.000000 0.000000 
#    y 0.000000 3.567740 0.000000 
#    z 0.000000 0.000000 1.783590 
# 
# From -- ./inp_files/26396.got.cif
#   From: 2010.05.17/outbox.cif.g08.bks.cpg/sg72_14_cif.got.tgz:26396.got - 2010.06.03 17:03:01.
