data_PCOD9528277
_publ_section_title
;
Structure prediction by ZEFSAII (Michael W. Deem and Ramdas Pophale) SiO2 
 PCOD9528277
Probable space group: I B A M
;
_chemical_formula_sum "Si O2"
_cell_formula_units_Z 120
_cell_length_a 24.308375
_cell_length_b 12.001794
_cell_length_c 20.550921
_cell_angle_alpha 90.000000
_cell_angle_beta 90.000000
_cell_angle_gamma 90.000000
_cell_volume 5995.610141
_symmetry_space_group_name_H-M "I B A M"
_symmetry_group_IT_number 72
_symmetry_cell_setting 'orthorhombic'
loop_
_space_group_symop_operation_xyz
x,y,z
-x,-y,z
x,-y,1/2-z
-x,y,1/2-z
-x,-y,-z
x,y,-z
-x,y,1/2+z
x,-y,1/2+z
1/2+x,1/2+y,1/2+z
1/2-x,1/2-y,1/2+z
1/2+x,1/2-y,-z
1/2-x,1/2+y,-z
1/2-x,1/2-y,1/2-z
1/2+x,1/2+y,1/2-z
1/2-x,1/2+y,z
1/2+x,1/2-y,z
loop_
_atom_site_type_symbol
_atom_site_label
_atom_site_fract_x
_atom_site_fract_y
_atom_site_fract_z
Si Si1 0.115299 0.469077 0.928883
Si Si2 0.843521 0.112510 0.686286
Si Si3 0.970700 0.880633 0.814384
Si Si4 0.820289 0.870320 0.667267
Si Si5 0.982698 0.695524 0.919856
Si Si6 0.857649 0.500000 0.750000
Si Si7 0.302055 0.156202 0.360689
Si Si8 0.400513 0.832932 0.649856
O O1 0.064403 0.395331 0.901056
O O2 0.168876 0.393656 0.923704
O O3 0.132655 0.583980 0.896473
O O4 0.095888 0.496002 0.000000
O O5 0.907476 0.105552 0.704041
O O6 0.812128 0.124006 0.754761
O O7 0.829173 0.224272 0.649665
O O8 0.830794 0.998500 0.648946
O O9 0.970407 0.809911 0.880878
O O10 0.000000 0.827623 0.750000
O O11 0.000000 0.000000 0.823926
O O12 0.763058 0.831965 0.637282
O O13 0.870802 0.785979 0.654625
O O14 0.040554 0.665994 0.885406
O O15 0.985156 0.703980 0.000000
O O16 0.820992 0.570885 0.801933
O O17 0.895199 0.403904 0.783479
#
# Coordination Sequence:
#
# PCOD9528277 Si02
#       8
#    16  16  16  16  16   8  16  16
#     4  10  23  43  63  82 116 165 212 260 312 375
#     4  11  21  38  59  94 128 169 200 248 317 379
#     4  11  22  38  63  92 134 173 212 264 320 379
#     4  11  23  36  63  92 133 161 203 256 314 381
#     4  11  23  42  65  91 125 168 213 262 327 390
#     4  10  22  36  59  94 126 158 209 258 314 378
#     4  11  22  39  62  91 123 165 206 255 318 377
#     4  11  22  38  62  93 123 160 207 262 316 374
#
# _framework density 20.014644000000001
#
# number of rings (size 3 to 8) (size 9 to 14) (size 15 to 20)
#    0.000    1.200    2.667    5.200    3.733    1.333 
#    0.000    5.333    0.000    1.600    0.000    0.000 
#    0.000    0.000    0.000    0.000    0.000    0.000 
#
# Total GULP energy -334235.934031 kJ/mol
# GULP energy per Si atom -5570.598901 kJ/mol
# Density = 1.996909 g / cm^3
# Si number density = 20.014644 Si / 1000 Ang^3
#
#
#
# Elastic Constant Matrix: (Units=GPa)
#
#
# Indices 1 2 3 4 5 6 
#
# 1 89.3588 11.9218 7.8548 0.0000 0.0000 0.0000
# 2 11.9218 119.3482 23.3319 0.0000 0.0000 0.0000
# 3 7.8548 23.3319 58.1570 0.0000 0.0000 0.0000
# 4 0.0000 0.0000 0.0000 16.8647 0.0000 0.0000
# 5 0.0000 0.0000 0.0000 0.0000 13.4003 0.0000
# 6 0.0000 0.0000 0.0000 0.0000 0.0000 28.0129
#
#
#
# Elastic Compliance Matrix: (Units=1/GPa)
#
#
# Indices 1 2 3 4 5 6 
#
# 1 0.011416 -0.000910 -0.001177 0.000000 0.000000 0.000000
# 2 -0.000910 0.009165 -0.003554 0.000000 0.000000 0.000000
# 3 -0.001177 -0.003554 0.018779 0.000000 0.000000 0.000000
# 4 0.000000 0.000000 0.000000 0.059295 0.000000 0.000000
# 5 0.000000 0.000000 0.000000 0.000000 0.074625 0.000000
# 6 0.000000 0.000000 0.000000 0.000000 0.000000 0.035698
#
#
# Mechanical properties :
#
#
# Convention : Reuss Voigt Hill
#
# Bulk Modulus (GPa) = 35.61463 39.23123 37.42293
# Shear Modulus (GPa) = 21.77518 26.57260 24.17389
#
# Velocity S-wave (km/s) = 3.30201 3.64766 3.47913
# Velocity P-wave (km/s) = 5.68951 6.11427 5.90571
#
# Compressibility (1/GPa) = 0.02807835
#
# Stress axis : x y z
#
# Youngs Moduli (GPa) = 87.59854 109.11651 53.24960
#
# Poissons Ratio (x) = 0.09933 0.06265
# Poissons Ratio (y) = 0.07974 0.18924
# Poissons Ratio (z) = 0.10307 0.38777
#
# Static dielectric constant tensor:
#      x y z
#    x 1.741640 0.000000 0.000000 
#    y 0.000000 1.760030 0.000000 
#    z 0.000000 0.000000 1.736670 
# 
# From -- ./inp_files/40414.got.cif
#   From: 2010.05.17/outbox.cif.g08.bks.cpg/sg72_21_cif.got.tgz:40414.got - 2010.06.03 17:03:01.
