data_PCOD9528324
_publ_section_title
;
Structure prediction by ZEFSAII (Michael W. Deem and Ramdas Pophale) SiO2 
 PCOD9528324
Probable space group: I B A M
;
_chemical_formula_sum "Si O2"
_cell_formula_units_Z 64
_cell_length_a 19.974968
_cell_length_b 9.472266
_cell_length_c 15.303430
_cell_angle_alpha 90.000000
_cell_angle_beta 90.000000
_cell_angle_gamma 90.000000
_cell_volume 2895.534601
_symmetry_space_group_name_H-M "I B A M"
_symmetry_group_IT_number 72
_symmetry_cell_setting 'orthorhombic'
loop_
_space_group_symop_operation_xyz
x,y,z
-x,-y,z
x,-y,1/2-z
-x,y,1/2-z
-x,-y,-z
x,y,-z
-x,y,1/2+z
x,-y,1/2+z
1/2+x,1/2+y,1/2+z
1/2-x,1/2-y,1/2+z
1/2+x,1/2-y,-z
1/2-x,1/2+y,-z
1/2-x,1/2-y,1/2-z
1/2+x,1/2+y,1/2-z
1/2-x,1/2+y,z
1/2+x,1/2-y,z
loop_
_atom_site_type_symbol
_atom_site_label
_atom_site_fract_x
_atom_site_fract_y
_atom_site_fract_z
Si Si1 0.603304 0.490871 0.602644
Si Si2 0.797271 0.387395 0.315349
Si Si3 0.573875 0.725886 0.744817
Si Si4 0.247920 0.378809 0.594422
O O1 0.581657 0.478965 0.500000
O O2 0.570693 0.613575 0.663606
O O3 0.592575 0.354524 0.664509
O O4 0.680840 0.539908 0.598325
O O5 0.763046 0.500000 0.250000
O O6 0.866705 0.332006 0.278391
O O7 0.806479 0.498604 0.393619
O O8 0.752969 0.254536 0.341863
O O9 0.500000 0.789468 0.750000
O O10 0.239905 0.312054 0.500000
#
# Coordination Sequence:
#
# PCOD9528324 Si02
#       4
#    16  16  16  16
#     4   9  19  36  62  93 125 166 218 273 324 378
#     4  11  24  39  63  90 126 168 207 262 328 383
#     4  10  22  38  59  91 129 172 222 265 315 389
#     4  10  22  39  62  94 127 161 210 264 327 394
#
# _framework density 22.103000000000002
#
# number of rings (size 3 to 8) (size 9 to 14) (size 15 to 20)
#    0.000    2.000    0.000    3.000   10.500    3.500 
#    0.000    1.250    0.000    0.000    0.000   14.000 
#    0.000    0.000    0.000    0.000    0.000    0.000 
#
# Total GULP energy -178453.132571 kJ/mol
# GULP energy per Si atom -5576.660393 kJ/mol
# Density = 2.205269 g / cm^3
# Si number density = 22.103000 Si / 1000 Ang^3
#
#
#
# Elastic Constant Matrix: (Units=GPa)
#
#
# Indices 1 2 3 4 5 6 
#
# 1 94.7387 45.9742 41.7916 0.0000 0.0000 0.0000
# 2 45.9742 148.6401 57.5930 0.0000 0.0000 0.0000
# 3 41.7916 57.5930 180.1508 0.0000 0.0000 0.0000
# 4 0.0000 0.0000 0.0000 36.5172 0.0000 0.0000
# 5 0.0000 0.0000 0.0000 0.0000 12.3008 0.0000
# 6 0.0000 0.0000 0.0000 0.0000 0.0000 21.5972
#
#
#
# Elastic Compliance Matrix: (Units=1/GPa)
#
#
# Indices 1 2 3 4 5 6 
#
# 1 0.013008 -0.003258 -0.001976 0.000000 0.000000 0.000000
# 2 -0.003258 0.008495 -0.001960 0.000000 0.000000 0.000000
# 3 -0.001976 -0.001960 0.006636 0.000000 0.000000 0.000000
# 4 0.000000 0.000000 0.000000 0.027384 0.000000 0.000000
# 5 0.000000 0.000000 0.000000 0.000000 0.081295 0.000000
# 6 0.000000 0.000000 0.000000 0.000000 0.000000 0.046302
#
#
# Mechanical properties :
#
#
# Convention : Reuss Voigt Hill
#
# Bulk Modulus (GPa) = 72.72206 79.36078 76.04142
# Shear Modulus (GPa) = 24.74125 32.62777 28.68451
#
# Velocity S-wave (km/s) = 3.34932 3.84626 3.60636
# Velocity P-wave (km/s) = 6.92316 7.46377 7.19854
#
# Compressibility (1/GPa) = 0.01375099
#
# Stress axis : x y z
#
# Youngs Moduli (GPa) = 76.87618 117.72088 150.69488
#
# Poissons Ratio (x) = 0.38349 0.29780
# Poissons Ratio (y) = 0.25044 0.29536
# Poissons Ratio (z) = 0.15192 0.23073
#
# Static dielectric constant tensor:
#      x y z
#    x 1.800030 0.000000 0.000000 
#    y 0.000000 1.825680 0.000000 
#    z 0.000000 0.000000 2.265070 
# 
# From -- ./inp_files/18659.got.cif
#   From: 2010.05.17/outbox.cif.g08.bks.cpg/sg72_10_cif.got.tgz:18659.got - 2010.06.03 17:03:01.
