data_PCOD9528576
_publ_section_title
;
Structure prediction by ZEFSAII (Michael W. Deem and Ramdas Pophale) SiO2 
 PCOD9528576
Probable space group: I B A M
;
_chemical_formula_sum "Si O2"
_cell_formula_units_Z 64
_cell_length_a 9.221983
_cell_length_b 19.594966
_cell_length_c 17.013230
_cell_angle_alpha 90.000000
_cell_angle_beta 90.000000
_cell_angle_gamma 90.000000
_cell_volume 3074.366257
_symmetry_space_group_name_H-M "I B A M"
_symmetry_group_IT_number 72
_symmetry_cell_setting 'orthorhombic'
loop_
_space_group_symop_operation_xyz
x,y,z
-x,-y,z
x,-y,1/2-z
-x,y,1/2-z
-x,-y,-z
x,y,-z
-x,y,1/2+z
x,-y,1/2+z
1/2+x,1/2+y,1/2+z
1/2-x,1/2-y,1/2+z
1/2+x,1/2-y,-z
1/2-x,1/2+y,-z
1/2-x,1/2-y,1/2-z
1/2+x,1/2+y,1/2-z
1/2-x,1/2+y,z
1/2+x,1/2-y,z
loop_
_atom_site_type_symbol
_atom_site_label
_atom_site_fract_x
_atom_site_fract_y
_atom_site_fract_z
Si Si1 0.972169 0.282826 0.411335
Si Si2 0.799589 0.794269 0.676686
Si Si3 0.673032 0.425431 0.229915
Si Si4 0.104642 0.566434 0.906853
O O1 0.009554 0.264475 0.500000
O O2 0.043023 0.229985 0.350169
O O3 0.021412 0.361096 0.396959
O O4 0.801919 0.279806 0.396951
O O5 0.750000 0.750000 0.750000
O O6 0.773844 0.869670 0.708510
O O7 0.725873 0.500000 0.250000
O O8 0.500000 0.423652 0.250000
O O9 0.747426 0.419421 0.143832
O O10 0.000000 0.500000 0.885901
O O11 0.137874 0.557863 0.000000
#
# Coordination Sequence:
#
# PCOD9528576 Si02
#       4
#    16  16  16  16
#     4  11  24  41  63  95 131 172 222 277 338 400
#     4  12  23  40  65  94 128 172 220 274 329 396
#     4  11  24  42  64  98 135 174 222 274 339 406
#     4  10  22  42  68  96 131 177 228 282 338 401
#
# _framework density 20.817298999999998
#
# number of rings (size 3 to 8) (size 9 to 14) (size 15 to 20)
#    0.000    1.000    2.500    4.500    0.000    2.500 
#    0.000    5.000    0.000    0.000    0.000    0.000 
#    0.000    0.000    0.000    0.000    0.000    0.000 
#
# Total GULP energy -178176.265363 kJ/mol
# GULP energy per Si atom -5568.008293 kJ/mol
# Density = 2.076992 g / cm^3
# Si number density = 20.817299 Si / 1000 Ang^3
#
#
#
# Elastic Constant Matrix: (Units=GPa)
#
#
# Indices 1 2 3 4 5 6 
#
# 1 87.3139 7.1959 50.9267 0.0000 0.0000 0.0000
# 2 7.1959 84.6879 37.6562 0.0000 0.0000 0.0000
# 3 50.9267 37.6562 101.3399 0.0000 0.0000 0.0000
# 4 0.0000 0.0000 0.0000 25.9805 0.0000 0.0000
# 5 0.0000 0.0000 0.0000 0.0000 39.9848 0.0000
# 6 0.0000 0.0000 0.0000 0.0000 0.0000 21.4932
#
#
#
# Elastic Compliance Matrix: (Units=1/GPa)
#
#
# Indices 1 2 3 4 5 6 
#
# 1 0.016729 0.002775 -0.009438 0.000000 0.000000 0.000000
# 2 0.002775 0.014606 -0.006822 0.000000 0.000000 0.000000
# 3 -0.009438 -0.006822 0.017146 0.000000 0.000000 0.000000
# 4 0.000000 0.000000 0.000000 0.038490 0.000000 0.000000
# 5 0.000000 0.000000 0.000000 0.000000 0.025010 0.000000
# 6 0.000000 0.000000 0.000000 0.000000 0.000000 0.046526
#
#
# Mechanical properties :
#
#
# Convention : Reuss Voigt Hill
#
# Bulk Modulus (GPa) = 46.48837 51.65546 49.07191
# Shear Modulus (GPa) = 25.95433 29.32924 27.64178
#
# Velocity S-wave (km/s) = 3.53479 3.75759 3.64789
# Velocity P-wave (km/s) = 6.24818 6.61011 6.43169
#
# Compressibility (1/GPa) = 0.02151076
#
# Stress axis : x y z
#
# Youngs Moduli (GPa) = 59.77611 68.46719 58.32398
#
# Poissons Ratio (x) = -0.19001 0.55047
# Poissons Ratio (y) = -0.16589 0.39787
# Poissons Ratio (z) = 0.56417 0.46707
#
# Static dielectric constant tensor:
#      x y z
#    x 1.765290 0.000000 0.000000 
#    y 0.000000 1.765510 0.000000 
#    z 0.000000 0.000000 1.723270 
# 
# From -- ./inp_files/18647.got.cif
#   From: 2010.05.17/outbox.cif.g08.bks.cpg/sg72_10_cif.got.tgz:18647.got - 2010.06.03 17:03:01.
