data_PCOD9528058
_publ_section_title
;
Structure prediction by ZEFSAII (Michael W. Deem and Ramdas Pophale) SiO2 
 PCOD9528058
Probable space group: I B A M
;
_chemical_formula_sum "Si O2"
_cell_formula_units_Z 112
_cell_length_a 13.978453
_cell_length_b 15.742835
_cell_length_c 25.559858
_cell_angle_alpha 90.000000
_cell_angle_beta 90.000000
_cell_angle_gamma 90.000000
_cell_volume 5624.714598
_symmetry_space_group_name_H-M "I B A M"
_symmetry_group_IT_number 72
_symmetry_cell_setting 'orthorhombic'
loop_
_space_group_symop_operation_xyz
x,y,z
-x,-y,z
x,-y,1/2-z
-x,y,1/2-z
-x,-y,-z
x,y,-z
-x,y,1/2+z
x,-y,1/2+z
1/2+x,1/2+y,1/2+z
1/2-x,1/2-y,1/2+z
1/2+x,1/2-y,-z
1/2-x,1/2+y,-z
1/2-x,1/2-y,1/2-z
1/2+x,1/2+y,1/2-z
1/2-x,1/2+y,z
1/2+x,1/2-y,z
loop_
_atom_site_type_symbol
_atom_site_label
_atom_site_fract_x
_atom_site_fract_y
_atom_site_fract_z
Si Si1 0.932541 0.378790 0.559479
Si Si2 0.392606 0.992754 0.159562
Si Si3 0.115917 0.672866 0.882756
Si Si4 0.799652 0.052805 0.801603
Si Si5 0.041762 0.186635 0.693829
Si Si6 0.918337 0.061620 0.621863
Si Si7 0.308974 0.707361 0.938902
O O1 0.921326 0.409465 0.500000
O O2 0.902224 0.445802 0.603578
O O3 0.870065 0.293476 0.566144
O O4 0.042283 0.355120 0.571993
O O5 0.357892 0.088487 0.149546
O O6 0.500000 0.000000 0.181524
O O7 0.314344 0.942612 0.192742
O O8 0.057980 0.735742 0.845134
O O9 0.211053 0.713209 0.906411
O O10 0.855981 0.140653 0.799306
O O11 0.824230 0.000000 0.750000
O O12 0.841434 0.999855 0.850684
O O13 0.000000 0.211069 0.750000
O O14 0.971809 0.117672 0.666481
O O15 0.869273 0.127647 0.582891
O O16 0.000000 0.000000 0.598202
O O17 0.287521 0.694759 0.000000
#
# Coordination Sequence:
#
# PCOD9528058 Si02
#       7
#    16  16  16  16  16  16  16
#     4  10  22  41  63  86 118 164 213 260 315 380
#     4  10  23  41  58  86 120 166 212 256 312 376
#     4  11  22  40  63  91 126 160 207 262 317 379
#     4  11  21  40  65  91 125 166 214 259 318 379
#     4  11  22  40  67  97 125 165 214 266 323 380
#     4  10  21  39  65  94 125 159 212 267 317 383
#     4  11  22  40  64  93 127 166 208 264 331 382
#
# _framework density 19.912122
#
# number of rings (size 3 to 8) (size 9 to 14) (size 15 to 20)
#    0.000    1.429    4.286    1.286    0.000    3.714 
#    5.143    1.429    0.000    0.000    0.000    0.000 
#    0.000    0.000    0.000    0.000    0.000    0.000 
#
# Total GULP energy -312886.251280 kJ/mol
# GULP energy per Si atom -5587.254487 kJ/mol
# Density = 1.986680 g / cm^3
# Si number density = 19.912122 Si / 1000 Ang^3
#
#
#
# Elastic Constant Matrix: (Units=GPa)
#
#
# Indices 1 2 3 4 5 6 
#
# 1 87.2495 7.4788 11.1047 0.0000 0.0000 0.0000
# 2 7.4788 50.9920 18.3557 0.0000 0.0000 0.0000
# 3 11.1047 18.3557 54.7482 0.0000 0.0000 0.0000
# 4 0.0000 0.0000 0.0000 17.6710 0.0000 0.0000
# 5 0.0000 0.0000 0.0000 0.0000 19.5236 0.0000
# 6 0.0000 0.0000 0.0000 0.0000 0.0000 24.3357
#
#
#
# Elastic Compliance Matrix: (Units=1/GPa)
#
#
# Indices 1 2 3 4 5 6 
#
# 1 0.011809 -0.000989 -0.002064 0.000000 0.000000 0.000000
# 2 -0.000989 0.022385 -0.007305 0.000000 0.000000 0.000000
# 3 -0.002064 -0.007305 0.021133 0.000000 0.000000 0.000000
# 4 0.000000 0.000000 0.000000 0.056590 0.000000 0.000000
# 5 0.000000 0.000000 0.000000 0.000000 0.051220 0.000000
# 6 0.000000 0.000000 0.000000 0.000000 0.000000 0.041092
#
#
# Mechanical properties :
#
#
# Convention : Reuss Voigt Hill
#
# Bulk Modulus (GPa) = 28.89120 29.65202 29.27161
# Shear Modulus (GPa) = 21.14334 22.70945 21.92639
#
# Velocity S-wave (km/s) = 3.26211 3.38077 3.32197
# Velocity P-wave (km/s) = 5.35998 5.49211 5.42644
#
# Compressibility (1/GPa) = 0.03461262
#
# Stress axis : x y z
#
# Youngs Moduli (GPa) = 84.68253 44.67186 47.31924
#
# Poissons Ratio (x) = 0.04419 0.09765
# Poissons Ratio (y) = 0.08376 0.34565
# Poissons Ratio (z) = 0.17475 0.32631
#
# Static dielectric constant tensor:
#      x y z
#    x 1.721010 0.000000 0.000000 
#    y 0.000000 1.680130 0.000000 
#    z 0.000000 0.000000 1.674720 
# 
# From -- ./inp_files/44322.got.cif
#   From: 2010.05.17/outbox.cif.g08.bks.cpg/sg72_23_cif.got.tgz:44322.got - 2010.06.03 17:03:01.
