data_PCOD9528650
_publ_section_title
;
Structure prediction by ZEFSAII (Michael W. Deem and Ramdas Pophale) SiO2 
 PCOD9528650
Probable space group: I B A M
;
_chemical_formula_sum "Si O2"
_cell_formula_units_Z 60
_cell_length_a 19.203135
_cell_length_b 14.078129
_cell_length_c 9.900936
_cell_angle_alpha 90.000000
_cell_angle_beta 90.000000
_cell_angle_gamma 90.000000
_cell_volume 2676.660738
_symmetry_space_group_name_H-M "I B A M"
_symmetry_group_IT_number 72
_symmetry_cell_setting 'orthorhombic'
loop_
_space_group_symop_operation_xyz
x,y,z
-x,-y,z
x,-y,1/2-z
-x,y,1/2-z
-x,-y,-z
x,y,-z
-x,y,1/2+z
x,-y,1/2+z
1/2+x,1/2+y,1/2+z
1/2-x,1/2-y,1/2+z
1/2+x,1/2-y,-z
1/2-x,1/2+y,-z
1/2-x,1/2-y,1/2-z
1/2+x,1/2+y,1/2-z
1/2-x,1/2+y,z
1/2+x,1/2-y,z
loop_
_atom_site_type_symbol
_atom_site_label
_atom_site_fract_x
_atom_site_fract_y
_atom_site_fract_z
Si Si1 0.564467 0.263284 0.000000
Si Si2 0.572932 0.088041 0.500000
Si Si3 0.245365 0.000000 0.250000
Si Si4 0.097848 0.224133 0.500000
Si Si5 0.000000 0.500000 0.250000
Si Si6 0.828980 0.411949 0.500000
Si Si7 0.112727 0.895998 0.267834
O O1 0.482562 0.234844 0.000000
O O2 0.573746 0.330207 0.128411
O O3 0.627427 0.186740 0.000000
O O4 0.630974 0.171573 0.500000
O O5 0.536512 0.073582 0.353672
O O6 0.610496 0.987012 0.500000
O O7 0.286237 0.059869 0.364009
O O8 0.190713 0.075318 0.184559
O O9 0.114219 0.160710 0.371812
O O10 0.079429 0.000000 0.250000
#
# Coordination Sequence:
#
# PCOD9528650 Si02
#       7
#     8   8   8   8   4   8  16
#     4  12  26  42  74 110 139 189 233 300 377 434
#     4  11  26  40  71 101 148 189 233 295 366 427
#     4  10  25  52  69  97 144 189 246 296 346 428
#     4  12  26  42  73 108 145 183 242 295 374 443
#     4  10  22  46  64  94 158 192 232 290 350 454
#     4  12  26  45  72 105 143 187 240 300 364 429
#     4  10  25  49  70 103 140 193 243 298 360 417
#
# _framework density 22.415990000000001
#
# number of rings (size 3 to 8) (size 9 to 14) (size 15 to 20)
#    0.800    0.267    0.000    5.600   11.200    4.267 
#    4.800    0.000    0.000    0.000    0.000    0.000 
#    0.000    0.000    0.000    0.000    0.000    0.000 
#
# Total GULP energy -167076.809754 kJ/mol
# GULP energy per Si atom -5569.226992 kJ/mol
# Density = 2.236497 g / cm^3
# Si number density = 22.415990 Si / 1000 Ang^3
#
#
#
# Elastic Constant Matrix: (Units=GPa)
#
#
# Indices 1 2 3 4 5 6 
#
# 1 54.0286 -22.1714 3.3461 0.0000 0.0000 0.0000
# 2 -22.1714 132.9546 40.1015 0.0000 0.0000 0.0000
# 3 3.3461 40.1015 96.5874 0.0000 0.0000 0.0000
# 4 0.0000 0.0000 0.0000 42.9557 0.0000 0.0000
# 5 0.0000 0.0000 0.0000 0.0000 56.3125 0.0000
# 6 0.0000 0.0000 0.0000 0.0000 0.0000 18.6180
#
#
#
# Elastic Compliance Matrix: (Units=1/GPa)
#
#
# Indices 1 2 3 4 5 6 
#
# 1 0.020350 0.004122 -0.002417 0.000000 0.000000 0.000000
# 2 0.004122 0.009433 -0.004059 0.000000 0.000000 0.000000
# 3 -0.002417 -0.004059 0.012122 0.000000 0.000000 0.000000
# 4 0.000000 0.000000 0.000000 0.023280 0.000000 0.000000
# 5 0.000000 0.000000 0.000000 0.000000 0.017758 0.000000
# 6 0.000000 0.000000 0.000000 0.000000 0.000000 0.053711
#
#
# Mechanical properties :
#
#
# Convention : Reuss Voigt Hill
#
# Bulk Modulus (GPa) = 26.88259 36.23589 31.55924
# Shear Modulus (GPa) = 32.51793 41.06353 36.79073
#
# Velocity S-wave (km/s) = 3.81288 4.28470 4.05566
# Velocity P-wave (km/s) = 5.60381 6.37797 6.00338
#
# Compressibility (1/GPa) = 0.03719880
#
# Stress axis : x y z
#
# Youngs Moduli (GPa) = 49.13984 106.00876 82.49197
#
# Poissons Ratio (x) = -0.43701 0.19935
# Poissons Ratio (y) = -0.20258 0.33486
# Poissons Ratio (z) = 0.11875 0.43032
#
# Static dielectric constant tensor:
#      x y z
#    x 2.023370 0.000000 0.000000 
#    y 0.000000 1.412090 0.000000 
#    z 0.000000 0.000000 1.647120 
# 
# From -- ./inp_files/6611.got.cif
#   From: 2010.05.17/outbox.cif.g08.bks.cpg/sg72_4_cif.got.tgz:6611.got - 2010.06.03 17:03:01.
