data_PCOD9528260
_publ_section_title
;
Structure prediction by ZEFSAII (Michael W. Deem and Ramdas Pophale) SiO2 
 PCOD9528260
Probable space group: I B A M
;
_chemical_formula_sum "Si O2"
_cell_formula_units_Z 56
_cell_length_a 28.623471
_cell_length_b 10.051652
_cell_length_c 9.962757
_cell_angle_alpha 90.000000
_cell_angle_beta 90.000000
_cell_angle_gamma 90.000000
_cell_volume 2866.416394
_symmetry_space_group_name_H-M "I B A M"
_symmetry_group_IT_number 72
_symmetry_cell_setting 'orthorhombic'
loop_
_space_group_symop_operation_xyz
x,y,z
-x,-y,z
x,-y,1/2-z
-x,y,1/2-z
-x,-y,-z
x,y,-z
-x,y,1/2+z
x,-y,1/2+z
1/2+x,1/2+y,1/2+z
1/2-x,1/2-y,1/2+z
1/2+x,1/2-y,-z
1/2-x,1/2+y,-z
1/2-x,1/2-y,1/2-z
1/2+x,1/2+y,1/2-z
1/2-x,1/2+y,z
1/2+x,1/2-y,z
loop_
_atom_site_type_symbol
_atom_site_label
_atom_site_fract_x
_atom_site_fract_y
_atom_site_fract_z
Si Si1 0.639040 0.645333 0.500000
Si Si2 0.454682 0.850281 0.500000
Si Si3 0.500000 0.500000 0.750000
Si Si4 0.000000 0.500000 0.250000
Si Si5 0.959858 0.150248 0.500000
Si Si6 0.637566 0.668674 0.000000
Si Si7 0.205295 0.155813 0.250714
O O1 0.590037 0.720746 0.500000
O O2 0.623514 0.488573 0.500000
O O3 0.671623 0.673657 0.624712
O O4 0.465486 0.927159 0.358985
O O5 0.496085 0.744451 0.500000
O O6 0.406076 0.768965 0.500000
O O7 0.466549 0.574697 0.857169
O O8 0.671663 0.685650 0.125354
O O9 0.250000 0.250000 0.250000
O O10 0.219699 0.000000 0.250000
#
# Coordination Sequence:
#
# PCOD9528260 Si02
#       7
#     8   8   4   4   8   8  16
#     4  10  23  36  64  99 126 163 206 263 332 390
#     4  11  24  44  64  87 132 171 223 265 322 384
#     4  10  22  34  56 100 138 154 198 250 332 396
#     4  10  26  46  60  84 134 182 222 270 310 390
#     4  11  23  35  63  93 133 162 203 258 322 394
#     4  10  22  40  67  91 127 163 206 271 329 385
#     4  10  22  42  64  93 129 165 214 272 328 389
#
# _framework density 19.536588999999999
#
# number of rings (size 3 to 8) (size 9 to 14) (size 15 to 20)
#    0.000    1.714    0.000    3.429   14.000    0.000 
#    2.571    0.000    0.000    0.000    0.000    0.000 
#    0.000    0.000    0.000    0.000    0.000    0.000 
#
# Total GULP energy -156052.288175 kJ/mol
# GULP energy per Si atom -5573.296006 kJ/mol
# Density = 1.949212 g / cm^3
# Si number density = 19.536589 Si / 1000 Ang^3
#
#
#
# Elastic Constant Matrix: (Units=GPa)
#
#
# Indices 1 2 3 4 5 6 
#
# 1 187.1977 83.1810 83.2341 0.0000 0.0000 0.0000
# 2 83.1810 72.5193 66.0145 0.0000 0.0000 0.0000
# 3 83.2341 66.0145 218.7429 0.0000 0.0000 0.0000
# 4 0.0000 0.0000 0.0000 23.8993 0.0000 0.0000
# 5 0.0000 0.0000 0.0000 0.0000 52.8648 0.0000
# 6 0.0000 0.0000 0.0000 0.0000 0.0000 75.3247
#
#
#
# Elastic Compliance Matrix: (Units=1/GPa)
#
#
# Indices 1 2 3 4 5 6 
#
# 1 0.010937 -0.012074 -0.000518 0.000000 0.000000 0.000000
# 2 -0.012074 0.032341 -0.005166 0.000000 0.000000 0.000000
# 3 -0.000518 -0.005166 0.006328 0.000000 0.000000 0.000000
# 4 0.000000 0.000000 0.000000 0.041842 0.000000 0.000000
# 5 0.000000 0.000000 0.000000 0.000000 0.018916 0.000000
# 6 0.000000 0.000000 0.000000 0.000000 0.000000 0.013276
#
#
# Mechanical properties :
#
#
# Convention : Reuss Voigt Hill
#
# Bulk Modulus (GPa) = 70.97032 104.81325 87.89179
# Shear Modulus (GPa) = 30.51543 46.81978 38.66760
#
# Velocity S-wave (km/s) = 3.95646 4.90073 4.45369
# Velocity P-wave (km/s) = 7.56817 9.26224 8.45773
#
# Compressibility (1/GPa) = 0.01409040
#
# Stress axis : x y z
#
# Youngs Moduli (GPa) = 91.43159 30.92089 158.03459
#
# Poissons Ratio (x) = 0.37332 0.08187
# Poissons Ratio (y) = 1.10390 0.81640
# Poissons Ratio (z) = 0.04736 0.15974
#
# Static dielectric constant tensor:
#      x y z
#    x 1.639390 0.000000 0.000000 
#    y 0.000000 1.797640 0.000000 
#    z 0.000000 0.000000 1.502570 
# 
# From -- ./inp_files/7728.got.cif
#   From: 2010.05.17/outbox.cif.g08.bks.cpg/sg72_4_cif.got.tgz:7728.got - 2010.06.03 17:03:01.
