data_PCOD9528006
_publ_section_title
;
Structure prediction by ZEFSAII (Michael W. Deem and Ramdas Pophale) SiO2 
 PCOD9528006
Probable space group: I B A M
;
_chemical_formula_sum "Si O2"
_cell_formula_units_Z 80
_cell_length_a 26.508197
_cell_length_b 10.300681
_cell_length_c 15.479889
_cell_angle_alpha 90.000000
_cell_angle_beta 90.000000
_cell_angle_gamma 90.000000
_cell_volume 4226.822100
_symmetry_space_group_name_H-M "I B A M"
_symmetry_group_IT_number 72
_symmetry_cell_setting 'orthorhombic'
loop_
_space_group_symop_operation_xyz
x,y,z
-x,-y,z
x,-y,1/2-z
-x,y,1/2-z
-x,-y,-z
x,y,-z
-x,y,1/2+z
x,-y,1/2+z
1/2+x,1/2+y,1/2+z
1/2-x,1/2-y,1/2+z
1/2+x,1/2-y,-z
1/2-x,1/2+y,-z
1/2-x,1/2-y,1/2-z
1/2+x,1/2+y,1/2-z
1/2-x,1/2+y,z
1/2+x,1/2-y,z
loop_
_atom_site_type_symbol
_atom_site_label
_atom_site_fract_x
_atom_site_fract_y
_atom_site_fract_z
Si Si1 0.451296 0.092665 0.000000
Si Si2 0.596777 0.400068 0.318992
Si Si3 0.229026 0.689975 0.839399
Si Si4 0.798570 0.044122 0.902319
Si Si5 0.611911 0.890895 0.822356
Si Si6 0.958282 0.891339 0.500000
O O1 0.416204 0.078910 0.086339
O O2 0.472681 0.239702 0.000000
O O3 0.500000 0.000000 0.000000
O O4 0.575312 0.500000 0.250000
O O5 0.654879 0.436380 0.337659
O O6 0.592611 0.250409 0.290951
O O7 0.572401 0.410381 0.412495
O O8 0.250000 0.750000 0.750000
O O9 0.228656 0.816017 0.900573
O O10 0.263985 0.573067 0.870712
O O11 0.172100 0.632801 0.834561
O O12 0.815814 0.018086 0.000000
O O13 0.603468 0.000000 0.750000
O O14 0.000000 0.000000 0.500000
#
# Coordination Sequence:
#
# PCOD9528006 Si02
#       6
#     8  16  16  16  16   8
#     4  10  24  44  65  88 120 166 211 266 320 374
#     4  10  21  39  62  86 121 159 196 246 310 372
#     4  11  22  37  58  89 125 163 204 246 304 372
#     4  11  21  35  57  85 121 162 199 242 296 367
#     4  10  22  40  64  89 123 164 206 258 315 374
#     4  10  22  42  63  88 118 152 199 256 315 372
#
# _framework density 18.926748
#
# number of rings (size 3 to 8) (size 9 to 14) (size 15 to 20)
#    0.000    1.600    1.000    4.800    5.600    2.400 
#    0.000    4.000    0.000    0.000    0.000    0.000 
#    0.000    0.000    0.000    0.000    0.000    0.000 
#
# Total GULP energy -223159.431734 kJ/mol
# GULP energy per Si atom -5578.985793 kJ/mol
# Density = 1.888367 g / cm^3
# Si number density = 18.926748 Si / 1000 Ang^3
#
#
#
# Elastic Constant Matrix: (Units=GPa)
#
#
# Indices 1 2 3 4 5 6 
#
# 1 78.4855 68.5701 34.1119 0.0000 0.0000 0.0000
# 2 68.5701 174.8958 94.7475 0.0000 0.0000 0.0000
# 3 34.1119 94.7475 128.9347 0.0000 0.0000 0.0000
# 4 0.0000 0.0000 0.0000 22.4952 0.0000 0.0000
# 5 0.0000 0.0000 0.0000 0.0000 -26.2032 0.0000
# 6 0.0000 0.0000 0.0000 0.0000 0.0000 35.2235
#
#
#
# Elastic Compliance Matrix: (Units=1/GPa)
#
#
# Indices 1 2 3 4 5 6 
#
# 1 0.019424 -0.008027 0.000760 0.000000 0.000000 0.000000
# 2 -0.008027 0.012816 -0.007294 0.000000 0.000000 0.000000
# 3 0.000760 -0.007294 0.012915 0.000000 0.000000 0.000000
# 4 0.000000 0.000000 0.000000 0.044454 0.000000 0.000000
# 5 0.000000 0.000000 0.000000 0.000000 -0.038163 0.000000
# 6 0.000000 0.000000 0.000000 0.000000 0.000000 0.028390
#
#
# Mechanical properties :
#
#
# Convention : Reuss Voigt Hill
#
# Bulk Modulus (GPa) = 62.37503 86.35276 74.36390
# Shear Modulus (GPa) = 43.74305 18.62886 31.18596
#
# Velocity S-wave (km/s) = 4.81268 3.14070 4.06361
# Velocity P-wave (km/s) = 7.99438 7.67305 7.83536
#
# Compressibility (1/GPa) = 0.01603206
#
# Stress axis : x y z
#
# Youngs Moduli (GPa) = 51.48299 78.02483 77.42794
#
# Poissons Ratio (x) = 0.62630 -0.05882
# Poissons Ratio (y) = 0.41325 0.56480
# Poissons Ratio (z) = -0.03911 0.56915
#
# Static dielectric constant tensor:
#      x y z
#    x 1.703370 0.000000 0.000000 
#    y 0.000000 1.623690 0.000000 
#    z 0.000000 0.000000 1.710000 
# 
# From -- ./inp_files/33824.got.cif
#   From: 2010.05.17/outbox.cif.g08.bks.cpg/sg72_17_cif.got.tgz:33824.got - 2010.06.03 17:03:01.
