data_PCOD9528493
_publ_section_title
;
Structure prediction by ZEFSAII (Michael W. Deem and Ramdas Pophale) SiO2 
 PCOD9528493
Probable space group: I B A M
;
_chemical_formula_sum "Si O2"
_cell_formula_units_Z 88
_cell_length_a 14.444504
_cell_length_b 12.625235
_cell_length_c 21.748681
_cell_angle_alpha 90.000000
_cell_angle_beta 90.000000
_cell_angle_gamma 90.000000
_cell_volume 3966.203810
_symmetry_space_group_name_H-M "I B A M"
_symmetry_group_IT_number 72
_symmetry_cell_setting 'orthorhombic'
loop_
_space_group_symop_operation_xyz
x,y,z
-x,-y,z
x,-y,1/2-z
-x,y,1/2-z
-x,-y,-z
x,y,-z
-x,y,1/2+z
x,-y,1/2+z
1/2+x,1/2+y,1/2+z
1/2-x,1/2-y,1/2+z
1/2+x,1/2-y,-z
1/2-x,1/2+y,-z
1/2-x,1/2-y,1/2-z
1/2+x,1/2+y,1/2-z
1/2-x,1/2+y,z
1/2+x,1/2-y,z
loop_
_atom_site_type_symbol
_atom_site_label
_atom_site_fract_x
_atom_site_fract_y
_atom_site_fract_z
Si Si1 0.565231 0.802292 0.195337
Si Si2 0.895447 0.980756 0.429914
Si Si3 0.341511 0.000000 0.750000
Si Si4 0.952648 0.616529 0.570097
Si Si5 0.225281 0.154831 0.663279
Si Si6 0.263003 0.679959 0.067712
O O1 0.500000 0.767592 0.250000
O O2 0.596595 0.922186 0.209397
O O3 0.520717 0.808028 0.127285
O O4 0.655770 0.730235 0.199908
O O5 0.898047 0.938361 0.500000
O O6 0.840293 0.905914 0.384563
O O7 0.839201 0.089683 0.430733
O O8 0.000000 0.000000 0.409527
O O9 0.280918 0.073988 0.705283
O O10 0.975973 0.651245 0.500000
O O11 0.839273 0.624532 0.574490
O O12 0.000000 0.500000 0.577163
O O13 0.282119 0.235220 0.620493
O O14 0.263256 0.730980 0.000000
#
# Coordination Sequence:
#
# PCOD9528493 Si02
#       6
#    16  16   8  16  16  16
#     4  11  24  41  62  90 126 165 206 257 318 379
#     4  10  22  41  64  92 127 164 204 257 318 376
#     4  12  25  42  61  86 122 164 210 260 316 374
#     4   9  17  33  60  93 125 158 201 254 310 370
#     4  11  23  39  63  89 119 163 211 261 310 375
#     4   9  19  38  63  92 127 166 208 257 318 383
#
# _framework density 22.187463999999999
#
# number of rings (size 3 to 8) (size 9 to 14) (size 15 to 20)
#    0.000    1.818    0.000    4.636    0.000    3.636 
#    0.000    2.727    0.000   22.909    0.000    1.273 
#    0.000    0.000    0.000    0.000    0.000    0.000 
#
# Total GULP energy -245957.007610 kJ/mol
# GULP energy per Si atom -5589.931991 kJ/mol
# Density = 2.213696 g / cm^3
# Si number density = 22.187464 Si / 1000 Ang^3
#
#
#
# Elastic Constant Matrix: (Units=GPa)
#
#
# Indices 1 2 3 4 5 6 
#
# 1 65.2628 16.8608 27.1182 0.0000 0.0000 0.0000
# 2 16.8608 57.8607 3.6352 0.0000 0.0000 0.0000
# 3 27.1182 3.6352 76.5765 0.0000 0.0000 0.0000
# 4 0.0000 0.0000 0.0000 44.4144 0.0000 0.0000
# 5 0.0000 0.0000 0.0000 0.0000 -80.0528 0.0000
# 6 0.0000 0.0000 0.0000 0.0000 0.0000 8.5631
#
#
#
# Elastic Compliance Matrix: (Units=1/GPa)
#
#
# Indices 1 2 3 4 5 6 
#
# 1 0.019434 -0.005247 -0.006633 0.000000 0.000000 0.000000
# 2 -0.005247 0.018751 0.000968 0.000000 0.000000 0.000000
# 3 -0.006633 0.000968 0.015362 0.000000 0.000000 0.000000
# 4 0.000000 0.000000 0.000000 0.022515 0.000000 0.000000
# 5 0.000000 0.000000 0.000000 0.000000 -0.012492 0.000000
# 6 0.000000 0.000000 0.000000 0.000000 0.000000 0.116780
#
#
# Mechanical properties :
#
#
# Convention : Reuss Voigt Hill
#
# Bulk Modulus (GPa) = 31.52251 32.76982 32.14616
# Shear Modulus (GPa) = 23.50186 4.72399 14.11293
#
# Velocity S-wave (km/s) = 3.25813 1.46074 2.52479
# Velocity P-wave (km/s) = 5.32842 4.20078 4.79785
#
# Compressibility (1/GPa) = 0.03172336
#
# Stress axis : x y z
#
# Youngs Moduli (GPa) = 51.45510 53.33066 65.09584
#
# Poissons Ratio (x) = 0.27980 0.43180
# Poissons Ratio (y) = 0.26996 -0.06300
# Poissons Ratio (z) = 0.34132 -0.05161
#
# Static dielectric constant tensor:
#      x y z
#    x 1.830070 0.000000 0.000000 
#    y 0.000000 1.811630 0.000000 
#    z 0.000000 0.000000 1.872590 
# 
# From -- ./inp_files/44166.got.cif
#   From: 2010.05.17/outbox.cif.g08.bks.cpg/sg72_23_cif.got.tgz:44166.got - 2010.06.03 17:03:01.
