data_PCOD9528731
_publ_section_title
;
Structure prediction by ZEFSAII (Michael W. Deem and Ramdas Pophale) SiO2 
 PCOD9528731
Probable space group: I B A M
;
_chemical_formula_sum "Si O2"
_cell_formula_units_Z 88
_cell_length_a 12.481879
_cell_length_b 13.300194
_cell_length_c 23.974969
_cell_angle_alpha 90.000000
_cell_angle_beta 90.000000
_cell_angle_gamma 90.000000
_cell_volume 3980.118461
_symmetry_space_group_name_H-M "I B A M"
_symmetry_group_IT_number 72
_symmetry_cell_setting 'orthorhombic'
loop_
_space_group_symop_operation_xyz
x,y,z
-x,-y,z
x,-y,1/2-z
-x,y,1/2-z
-x,-y,-z
x,y,-z
-x,y,1/2+z
x,-y,1/2+z
1/2+x,1/2+y,1/2+z
1/2-x,1/2-y,1/2+z
1/2+x,1/2-y,-z
1/2-x,1/2+y,-z
1/2-x,1/2-y,1/2-z
1/2+x,1/2+y,1/2-z
1/2-x,1/2+y,z
1/2+x,1/2-y,z
loop_
_atom_site_type_symbol
_atom_site_label
_atom_site_fract_x
_atom_site_fract_y
_atom_site_fract_z
Si Si1 0.705643 0.487535 0.500000
Si Si2 0.071854 0.311417 0.408070
Si Si3 0.828179 0.104062 0.773927
Si Si4 0.584724 0.887642 0.500000
Si Si5 0.586296 0.587475 0.892365
Si Si6 0.245510 0.797630 0.500000
Si Si7 0.606725 0.166811 0.720694
O O1 0.835007 0.481860 0.500000
O O2 0.654900 0.436460 0.553438
O O3 0.673562 0.603372 0.500000
O O4 0.031422 0.196378 0.399710
O O5 0.178479 0.301425 0.445686
O O6 0.098194 0.348587 0.345931
O O7 0.987787 0.374233 0.444966
O O8 0.833169 0.092633 0.840369
O O9 0.712096 0.116847 0.746324
O O10 0.883357 0.213024 0.765288
O O11 0.875847 0.000000 0.750000
O O12 0.669948 0.797493 0.500000
O O13 0.500000 0.500000 0.883475
O O14 0.500000 0.128738 0.750000
#
# Coordination Sequence:
#
# PCOD9528731 Si02
#       7
#     8  16  16   8  16   8  16
#     4  12  24  38  68  97 129 176 222 275 335 406
#     4  10  23  41  64  96 131 175 214 274 339 395
#     4  10  25  42  66 101 132 173 223 274 334 399
#     4  11  22  41  68  91 136 173 223 270 340 399
#     4  11  23  42  67 100 130 168 229 279 330 395
#     4  11  23  42  62  92 136 170 215 283 333 399
#     4  10  24  43  67  94 137 175 224 273 336 412
#
# _framework density 22.109895000000002
#
# number of rings (size 3 to 8) (size 9 to 14) (size 15 to 20)
#    0.000    1.455    1.818    1.909   10.182    3.273 
#    0.000    1.818    0.000    0.000    0.000    0.000 
#    0.000    0.000    0.000    0.000    0.000    0.000 
#
# Total GULP energy -246012.184566 kJ/mol
# GULP energy per Si atom -5591.186013 kJ/mol
# Density = 2.205957 g / cm^3
# Si number density = 22.109895 Si / 1000 Ang^3
#
#
#
# Elastic Constant Matrix: (Units=GPa)
#
#
# Indices 1 2 3 4 5 6 
#
# 1 118.6165 5.7577 73.4761 0.0000 0.0000 0.0000
# 2 5.7577 83.2653 28.4330 0.0000 0.0000 0.0000
# 3 73.4761 28.4330 165.8825 0.0000 0.0000 0.0000
# 4 0.0000 0.0000 0.0000 23.7613 0.0000 0.0000
# 5 0.0000 0.0000 0.0000 0.0000 18.6375 0.0000
# 6 0.0000 0.0000 0.0000 0.0000 0.0000 18.0606
#
#
#
# Elastic Compliance Matrix: (Units=1/GPa)
#
#
# Indices 1 2 3 4 5 6 
#
# 1 0.011699 0.001020 -0.005357 0.000000 0.000000 0.000000
# 2 0.001020 0.012845 -0.002654 0.000000 0.000000 0.000000
# 3 -0.005357 -0.002654 0.008856 0.000000 0.000000 0.000000
# 4 0.000000 0.000000 0.000000 0.042085 0.000000 0.000000
# 5 0.000000 0.000000 0.000000 0.000000 0.053655 0.000000
# 6 0.000000 0.000000 0.000000 0.000000 0.000000 0.055369
#
#
# Mechanical properties :
#
#
# Convention : Reuss Voigt Hill
#
# Bulk Modulus (GPa) = 51.49328 64.78866 58.14097
# Shear Modulus (GPa) = 24.39446 29.43172 26.91309
#
# Velocity S-wave (km/s) = 3.32524 3.65246 3.49268
# Velocity P-wave (km/s) = 6.17116 6.86687 6.52829
#
# Compressibility (1/GPa) = 0.01942001
#
# Stress axis : x y z
#
# Youngs Moduli (GPa) = 85.47477 77.84878 112.91716
#
# Poissons Ratio (x) = -0.07943 0.60490
# Poissons Ratio (y) = -0.08721 0.29965
# Poissons Ratio (z) = 0.45789 0.20659
#
# Static dielectric constant tensor:
#      x y z
#    x 1.794930 0.000000 0.000000 
#    y 0.000000 1.858010 0.000000 
#    z 0.000000 0.000000 1.765910 
# 
# From -- ./inp_files/43251.got.cif
#   From: 2010.05.17/outbox.cif.g08.bks.cpg/sg72_22_cif.got.tgz:43251.got - 2010.06.03 17:03:01.
