data_PCOD9528064
_publ_section_title
;
Structure prediction by ZEFSAII (Michael W. Deem and Ramdas Pophale) SiO2 
 PCOD9528064
Probable space group: I B A M
;
_chemical_formula_sum "Si O2"
_cell_formula_units_Z 52
_cell_length_a 26.857435
_cell_length_b 4.884382
_cell_length_c 17.851278
_cell_angle_alpha 90.000000
_cell_angle_beta 90.000000
_cell_angle_gamma 90.000000
_cell_volume 2341.765852
_symmetry_space_group_name_H-M "I B A M"
_symmetry_group_IT_number 72
_symmetry_cell_setting 'orthorhombic'
loop_
_space_group_symop_operation_xyz
x,y,z
-x,-y,z
x,-y,1/2-z
-x,y,1/2-z
-x,-y,-z
x,y,-z
-x,y,1/2+z
x,-y,1/2+z
1/2+x,1/2+y,1/2+z
1/2-x,1/2-y,1/2+z
1/2+x,1/2-y,-z
1/2-x,1/2+y,-z
1/2-x,1/2-y,1/2-z
1/2+x,1/2+y,1/2-z
1/2-x,1/2+y,z
1/2+x,1/2-y,z
loop_
_atom_site_type_symbol
_atom_site_label
_atom_site_fract_x
_atom_site_fract_y
_atom_site_fract_z
Si Si1 0.884593 0.894970 0.588565
Si Si2 0.281583 0.523620 0.660265
Si Si3 0.921352 0.593870 0.827667
Si Si4 0.500000 0.500000 0.750000
O O1 0.886893 0.871504 0.500000
O O2 0.829498 0.847783 0.620827
O O3 0.924466 0.688802 0.626658
O O4 0.893939 0.201964 0.616929
O O5 0.290130 0.500000 0.750000
O O6 0.264936 0.218096 0.640505
O O7 0.895256 0.500000 0.750000
O O8 0.966540 0.784857 0.797697
#
# Coordination Sequence:
#
# PCOD9528064 Si02
#       4
#    16  16  16   4
#     4  12  26  43  68 108 148 185 223 284 362 410
#     4  10  21  39  65  98 138 186 241 282 320 391
#     4  12  24  46  75 100 133 178 240 286 338 421
#     4  12  26  48  80 104 118 176 252 288 346 412
#
# _framework density 22.205463000000002
#
# number of rings (size 3 to 8) (size 9 to 14) (size 15 to 20)
#    0.000    0.615    3.077    5.077    0.000    3.692 
#    0.000    4.615    0.000    0.000    0.000    0.000 
#    0.000    0.000    0.000    0.000    0.000    0.000 
#
# Total GULP energy -145026.887364 kJ/mol
# GULP energy per Si atom -5577.957206 kJ/mol
# Density = 2.215492 g / cm^3
# Si number density = 22.205463 Si / 1000 Ang^3
#
#
#
# Elastic Constant Matrix: (Units=GPa)
#
#
# Indices 1 2 3 4 5 6 
#
# 1 66.3781 18.6989 38.7616 0.0000 0.0000 0.0000
# 2 18.6989 149.3821 49.8925 0.0000 0.0000 0.0000
# 3 38.7616 49.8925 139.2126 0.0000 0.0000 0.0000
# 4 0.0000 0.0000 0.0000 32.5677 0.0000 0.0000
# 5 0.0000 0.0000 0.0000 0.0000 80.8194 0.0000
# 6 0.0000 0.0000 0.0000 0.0000 0.0000 -3.2720
#
#
#
# Elastic Compliance Matrix: (Units=1/GPa)
#
#
# Indices 1 2 3 4 5 6 
#
# 1 0.018047 -0.000660 -0.004789 0.000000 0.000000 0.000000
# 2 -0.000660 0.007629 -0.002550 0.000000 0.000000 0.000000
# 3 -0.004789 -0.002550 0.009431 0.000000 0.000000 0.000000
# 4 0.000000 0.000000 0.000000 0.030705 0.000000 0.000000
# 5 0.000000 0.000000 0.000000 0.000000 0.012373 0.000000
# 6 0.000000 0.000000 0.000000 0.000000 0.000000 -0.305627
#
#
# Mechanical properties :
#
#
# Convention : Reuss Voigt Hill
#
# Bulk Modulus (GPa) = 52.33061 63.29764 57.81412
# Shear Modulus (GPa) = -24.38138 38.53101 7.07481
#
# Velocity S-wave (km/s) = -3.31719 4.17010 1.78689
# Velocity P-wave (km/s) = 2.99100 7.19400 5.50907
#
# Compressibility (1/GPa) = 0.01910928
#
# Stress axis : x y z
#
# Youngs Moduli (GPa) = 55.40985 131.08531 106.03807
#
# Poissons Ratio (x) = 0.08648 0.50777
# Poissons Ratio (y) = 0.03656 0.27043
# Poissons Ratio (z) = 0.26533 0.33431
#
# Static dielectric constant tensor:
#      x y z
#    x 1.901910 0.000000 0.000000 
#    y 0.000000 1.643460 0.000000 
#    z 0.000000 0.000000 1.772650 
# 
# From -- ./inp_files/34071.got.cif
#   From: 2010.05.17/outbox.cif.g08.bks.cpg/sg72_18_cif.got.tgz:34071.got - 2010.06.03 17:03:01.
