data_PCOD9528212
_publ_section_title
;
Structure prediction by ZEFSAII (Michael W. Deem and Ramdas Pophale) SiO2 
 PCOD9528212
Probable space group: I B A M
;
_chemical_formula_sum "Si O2"
_cell_formula_units_Z 84
_cell_length_a 17.607149
_cell_length_b 10.921293
_cell_length_c 18.291987
_cell_angle_alpha 90.000000
_cell_angle_beta 90.000000
_cell_angle_gamma 90.000000
_cell_volume 3517.418004
_symmetry_space_group_name_H-M "I B A M"
_symmetry_group_IT_number 72
_symmetry_cell_setting 'orthorhombic'
loop_
_space_group_symop_operation_xyz
x,y,z
-x,-y,z
x,-y,1/2-z
-x,y,1/2-z
-x,-y,-z
x,y,-z
-x,y,1/2+z
x,-y,1/2+z
1/2+x,1/2+y,1/2+z
1/2-x,1/2-y,1/2+z
1/2+x,1/2-y,-z
1/2-x,1/2+y,-z
1/2-x,1/2-y,1/2-z
1/2+x,1/2+y,1/2-z
1/2-x,1/2+y,z
1/2+x,1/2-y,z
loop_
_atom_site_type_symbol
_atom_site_label
_atom_site_fract_x
_atom_site_fract_y
_atom_site_fract_z
Si Si1 0.000000 0.500000 0.250000
Si Si2 0.619658 0.501502 0.852439
Si Si3 0.753264 0.500000 0.750000
Si Si4 0.865446 0.423510 0.500000
Si Si5 0.388700 0.894343 0.165698
Si Si6 0.188425 0.101845 0.500000
Si Si7 0.006524 0.201764 0.648665
Si Si8 0.419133 0.195666 0.000000
O O1 0.068055 0.479506 0.312891
O O2 0.692747 0.451140 0.809121
O O3 0.556961 0.400330 0.866375
O O4 0.575792 0.620177 0.817064
O O5 0.650174 0.547260 0.928956
O O6 0.808268 0.405019 0.706944
O O7 0.881444 0.367938 0.579896
O O8 0.775255 0.432927 0.500000
O O9 0.909727 0.551307 0.500000
O O10 0.454865 0.801718 0.191371
O O11 0.165310 0.244751 0.500000
O O12 0.038595 0.257743 0.573013
#
# Coordination Sequence:
#
# PCOD9528212 Si02
#       8
#     4  16   8   8  16   8  16   8
#     4  10  24  42  60  92 144 172 212 274 340 404
#     4  10  22  43  68  95 136 178 229 276 335 409
#     4  11  24  44  64  99 140 182 222 289 338 404
#     4  12  23  42  69 102 133 175 219 291 335 408
#     4  11  24  42  67  99 136 176 224 280 342 396
#     4  10  21  42  65  97 130 172 218 283 339 403
#     4  10  22  41  68  98 131 182 228 278 334 413
#     4  10  22  40  70  98 133 173 229 276 348 403
#
# _framework density 23.881153999999999
#
# number of rings (size 3 to 8) (size 9 to 14) (size 15 to 20)
#    0.000    1.524    1.905    2.286    0.000    8.762 
#    0.000    1.905    0.000    0.000    0.000    0.000 
#    0.000    0.000    0.000    0.000    0.000    0.000 
#
# Total GULP energy -233822.699437 kJ/mol
# GULP energy per Si atom -5567.207129 kJ/mol
# Density = 2.382680 g / cm^3
# Si number density = 23.881154 Si / 1000 Ang^3
#
#
#
# Elastic Constant Matrix: (Units=GPa)
#
#
# Indices 1 2 3 4 5 6 
#
# 1 183.6204 49.2173 52.5455 0.0000 0.0000 0.0000
# 2 49.2173 75.7947 21.0463 0.0000 0.0000 0.0000
# 3 52.5455 21.0463 117.1125 0.0000 0.0000 0.0000
# 4 0.0000 0.0000 0.0000 5.9617 0.0000 0.0000
# 5 0.0000 0.0000 0.0000 0.0000 46.6447 0.0000
# 6 0.0000 0.0000 0.0000 0.0000 0.0000 23.8461
#
#
#
# Elastic Compliance Matrix: (Units=1/GPa)
#
#
# Indices 1 2 3 4 5 6 
#
# 1 0.007242 -0.004000 -0.002531 0.000000 0.000000 0.000000
# 2 -0.004000 0.016096 -0.001098 0.000000 0.000000 0.000000
# 3 -0.002531 -0.001098 0.009872 0.000000 0.000000 0.000000
# 4 0.000000 0.000000 0.000000 0.167738 0.000000 0.000000
# 5 0.000000 0.000000 0.000000 0.000000 0.021439 0.000000
# 6 0.000000 0.000000 0.000000 0.000000 0.000000 0.041936
#
#
# Mechanical properties :
#
#
# Convention : Reuss Voigt Hill
#
# Bulk Modulus (GPa) = 55.70222 69.12730 62.41476
# Shear Modulus (GPa) = 17.50928 32.20507 24.85718
#
# Velocity S-wave (km/s) = 2.71067 3.67625 3.22975
# Velocity P-wave (km/s) = 5.75955 6.85777 6.33251
#
# Compressibility (1/GPa) = 0.01795260
#
# Stress axis : x y z
#
# Youngs Moduli (GPa) = 138.07616 62.12772 101.30164
#
# Poissons Ratio (x) = 0.24852 0.25636
# Poissons Ratio (y) = 0.55233 0.11121
# Poissons Ratio (z) = 0.34942 0.06820
#
# Static dielectric constant tensor:
#      x y z
#    x 1.739160 0.000000 0.000000 
#    y 0.000000 0.833400 0.000000 
#    z 0.000000 0.000000 1.933030 
# 
# From -- ./inp_files/38854.got.cif
#   From: 2010.05.17/outbox.cif.g08.bks.cpg/sg72_20_cif.got.tgz:38854.got - 2010.06.03 17:03:01.
