data_PCOD9528087
_publ_section_title
;
Structure prediction by ZEFSAII (Michael W. Deem and Ramdas Pophale) SiO2 
 PCOD9528087
Probable space group: I B A M
;
_chemical_formula_sum "Si O2"
_cell_formula_units_Z 96
_cell_length_a 9.595072
_cell_length_b 25.508655
_cell_length_c 19.518002
_cell_angle_alpha 90.000000
_cell_angle_beta 90.000000
_cell_angle_gamma 90.000000
_cell_volume 4777.175059
_symmetry_space_group_name_H-M "I B A M"
_symmetry_group_IT_number 72
_symmetry_cell_setting 'orthorhombic'
loop_
_space_group_symop_operation_xyz
x,y,z
-x,-y,z
x,-y,1/2-z
-x,y,1/2-z
-x,-y,-z
x,y,-z
-x,y,1/2+z
x,-y,1/2+z
1/2+x,1/2+y,1/2+z
1/2-x,1/2-y,1/2+z
1/2+x,1/2-y,-z
1/2-x,1/2+y,-z
1/2-x,1/2-y,1/2-z
1/2+x,1/2+y,1/2-z
1/2-x,1/2+y,z
1/2+x,1/2-y,z
loop_
_atom_site_type_symbol
_atom_site_label
_atom_site_fract_x
_atom_site_fract_y
_atom_site_fract_z
Si Si1 0.730383 0.480220 0.581898
Si Si2 0.062511 0.079588 0.082063
Si Si3 0.717910 0.749419 0.858792
Si Si4 0.344718 0.051801 0.281974
Si Si5 0.833586 0.667591 0.758591
Si Si6 0.544661 0.302314 0.077911
O O1 0.764361 0.477698 0.500000
O O2 0.685880 0.539677 0.601914
O O3 0.587651 0.447258 0.593372
O O4 0.840852 0.457350 0.635912
O O5 0.062007 0.138990 0.107455
O O6 0.078007 0.082796 0.000000
O O7 0.791446 0.698492 0.826878
O O8 0.719769 0.795644 0.802549
O O9 0.564455 0.731567 0.879061
O O10 0.808717 0.772679 0.919814
O O11 0.500000 0.053078 0.250000
O O12 0.280439 0.107965 0.262772
O O13 0.274297 0.000000 0.250000
O O14 0.000000 0.665915 0.750000
O O15 0.492741 0.306667 0.000000
#
# Coordination Sequence:
#
# PCOD9528087 Si02
#       6
#    16  16  16  16  16  16
#     4   9  17  36  62  88 117 160 202 247 311 375
#     4   8  17  33  59  89 120 150 194 254 308 362
#     4  11  22  38  62  86 117 166 206 246 310 370
#     4  10  22  38  58  84 123 160 197 255 306 354
#     4  10  21  40  60  82 116 163 208 251 301 371
#     4  11  22  37  59  92 125 156 202 258 305 365
#
# _framework density 20.095559000000002
#
# number of rings (size 3 to 8) (size 9 to 14) (size 15 to 20)
#    0.000    2.167    1.667    2.500    2.333    0.000 
#    0.000    4.167    0.000    0.000    0.000    0.000 
#    0.000    0.000    0.000    0.000    0.000    0.000 
#
# Total GULP energy -267483.728444 kJ/mol
# GULP energy per Si atom -5572.577676 kJ/mol
# Density = 2.004982 g / cm^3
# Si number density = 20.095559 Si / 1000 Ang^3
#
#
#
# Elastic Constant Matrix: (Units=GPa)
#
#
# Indices 1 2 3 4 5 6 
#
# 1 42.8138 22.4493 14.5377 0.0000 0.0000 0.0000
# 2 22.4493 176.8284 36.6187 0.0000 0.0000 0.0000
# 3 14.5377 36.6187 81.2661 0.0000 0.0000 0.0000
# 4 0.0000 0.0000 0.0000 12.7392 0.0000 0.0000
# 5 0.0000 0.0000 0.0000 0.0000 5.4711 0.0000
# 6 0.0000 0.0000 0.0000 0.0000 0.0000 15.7308
#
#
#
# Elastic Compliance Matrix: (Units=1/GPa)
#
#
# Indices 1 2 3 4 5 6 
#
# 1 0.025882 -0.002567 -0.003474 0.000000 0.000000 0.000000
# 2 -0.002567 0.006492 -0.002466 0.000000 0.000000 0.000000
# 3 -0.003474 -0.002466 0.014038 0.000000 0.000000 0.000000
# 4 0.000000 0.000000 0.000000 0.078498 0.000000 0.000000
# 5 0.000000 0.000000 0.000000 0.000000 0.182780 0.000000
# 6 0.000000 0.000000 0.000000 0.000000 0.000000 0.063570
#
#
# Mechanical properties :
#
#
# Convention : Reuss Voigt Hill
#
# Bulk Modulus (GPa) = 34.01429 49.79107 41.90268
# Shear Modulus (GPa) = 12.56056 21.94171 17.25114
#
# Velocity S-wave (km/s) = 2.50280 3.30793 2.93312
# Velocity P-wave (km/s) = 5.03140 6.27860 5.68928
#
# Compressibility (1/GPa) = 0.02939940
#
# Stress axis : x y z
#
# Youngs Moduli (GPa) = 38.63663 154.04231 71.23595
#
# Poissons Ratio (x) = 0.39536 0.24744
# Poissons Ratio (y) = 0.09916 0.17567
# Poissons Ratio (z) = 0.13421 0.37988
#
# Static dielectric constant tensor:
#      x y z
#    x 1.852020 0.000000 0.000000 
#    y 0.000000 1.750640 0.000000 
#    z 0.000000 0.000000 1.737980 
# 
# From -- ./inp_files/36012.got.cif
#   From: 2010.05.17/outbox.cif.g08.bks.cpg/sg72_19_cif.got.tgz:36012.got - 2010.06.03 17:03:01.
