data_PCOD9528578
_publ_section_title
;
Structure prediction by ZEFSAII (Michael W. Deem and Ramdas Pophale) SiO2 
 PCOD9528578
Probable space group: I B A M
;
_chemical_formula_sum "Si O2"
_cell_formula_units_Z 64
_cell_length_a 15.696335
_cell_length_b 8.801825
_cell_length_c 18.557004
_cell_angle_alpha 90.000000
_cell_angle_beta 90.000000
_cell_angle_gamma 90.000000
_cell_volume 2563.768753
_symmetry_space_group_name_H-M "I B A M"
_symmetry_group_IT_number 72
_symmetry_cell_setting 'orthorhombic'
loop_
_space_group_symop_operation_xyz
x,y,z
-x,-y,z
x,-y,1/2-z
-x,y,1/2-z
-x,-y,-z
x,y,-z
-x,y,1/2+z
x,-y,1/2+z
1/2+x,1/2+y,1/2+z
1/2-x,1/2-y,1/2+z
1/2+x,1/2-y,-z
1/2-x,1/2+y,-z
1/2-x,1/2-y,1/2-z
1/2+x,1/2+y,1/2-z
1/2-x,1/2+y,z
1/2+x,1/2-y,z
loop_
_atom_site_type_symbol
_atom_site_label
_atom_site_fract_x
_atom_site_fract_y
_atom_site_fract_z
Si Si1 0.431397 0.618050 0.640579
Si Si2 0.050002 0.356964 0.918230
Si Si3 0.676849 0.156367 0.710187
Si Si4 0.802463 0.131799 0.585989
O O1 0.500000 0.500000 0.667658
O O2 0.481127 0.721217 0.583067
O O3 0.401084 0.730794 0.702265
O O4 0.353887 0.520477 0.608082
O O5 0.000000 0.500000 0.883316
O O6 0.136534 0.274831 0.891021
O O7 0.070802 0.403460 0.000000
O O8 0.750000 0.250000 0.750000
O O9 0.714873 0.130445 0.629925
O O10 0.659950 0.000000 0.750000
O O11 0.791338 0.137585 0.500000
#
# Coordination Sequence:
#
# PCOD9528578 Si02
#       4
#    16  16  16  16
#     4  10  22  44  72 100 144 193 250 304 372 440
#     4   9  19  36  64 102 142 186 248 314 361 430
#     4  12  26  47  71 104 156 196 241 310 374 451
#     4  10  22  42  69 103 143 196 254 309 377 442
#
# _framework density 24.963249999999999
#
# number of rings (size 3 to 8) (size 9 to 14) (size 15 to 20)
#    0.000    1.750    2.500    0.750    3.500    5.000 
#    0.000    8.750    0.000    0.000    0.000    0.000 
#    0.000    1.000    0.000    0.000    0.000    0.000 
#
# Total GULP energy -179127.877428 kJ/mol
# GULP energy per Si atom -5597.746170 kJ/mol
# Density = 2.490643 g / cm^3
# Si number density = 24.963250 Si / 1000 Ang^3
#
#
#
# Elastic Constant Matrix: (Units=GPa)
#
#
# Indices 1 2 3 4 5 6 
#
# 1 84.3460 61.4533 33.3752 0.0000 0.0000 0.0000
# 2 61.4533 196.9936 58.1055 0.0000 0.0000 0.0000
# 3 33.3752 58.1055 96.7052 0.0000 0.0000 0.0000
# 4 0.0000 0.0000 0.0000 36.3621 0.0000 0.0000
# 5 0.0000 0.0000 0.0000 0.0000 22.8325 0.0000
# 6 0.0000 0.0000 0.0000 0.0000 0.0000 47.1967
#
#
#
# Elastic Compliance Matrix: (Units=1/GPa)
#
#
# Indices 1 2 3 4 5 6 
#
# 1 0.016064 -0.004103 -0.003079 0.000000 0.000000 0.000000
# 2 -0.004103 0.007218 -0.002921 0.000000 0.000000 0.000000
# 3 -0.003079 -0.002921 0.013158 0.000000 0.000000 0.000000
# 4 0.000000 0.000000 0.000000 0.027501 0.000000 0.000000
# 5 0.000000 0.000000 0.000000 0.000000 0.043797 0.000000
# 6 0.000000 0.000000 0.000000 0.000000 0.000000 0.021188
#
#
# Mechanical properties :
#
#
# Convention : Reuss Voigt Hill
#
# Bulk Modulus (GPa) = 61.59651 75.99030 68.79341
# Shear Modulus (GPa) = 32.35366 36.28565 34.31966
#
# Velocity S-wave (km/s) = 3.60398 3.81670 3.71186
# Velocity P-wave (km/s) = 6.48434 7.06611 6.78146
#
# Compressibility (1/GPa) = 0.01623469
#
# Stress axis : x y z
#
# Youngs Moduli (GPa) = 62.25292 138.54652 75.99858
#
# Poissons Ratio (x) = 0.56846 0.23397
# Poissons Ratio (y) = 0.25543 0.22197
# Poissons Ratio (z) = 0.19165 0.40466
#
# Static dielectric constant tensor:
#      x y z
#    x 2.112670 0.000000 0.000000 
#    y 0.000000 2.013180 0.000000 
#    z 0.000000 0.000000 2.006610 
# 
# From -- ./inp_files/38631.got.cif
#   From: 2010.05.17/outbox.cif.g08.bks.cpg/sg72_20_cif.got.tgz:38631.got - 2010.06.03 17:03:01.
