data_PCOD9528934
_publ_section_title
;
Structure prediction by ZEFSAII (Michael W. Deem and Ramdas Pophale) SiO2 
 PCOD9528934
Probable space group: I B A M
;
_chemical_formula_sum "Si O2"
_cell_formula_units_Z 60
_cell_length_a 20.046652
_cell_length_b 4.914408
_cell_length_c 23.923510
_cell_angle_alpha 90.000000
_cell_angle_beta 90.000000
_cell_angle_gamma 90.000000
_cell_volume 2356.882649
_symmetry_space_group_name_H-M "I B A M"
_symmetry_group_IT_number 72
_symmetry_cell_setting 'orthorhombic'
loop_
_space_group_symop_operation_xyz
x,y,z
-x,-y,z
x,-y,1/2-z
-x,y,1/2-z
-x,-y,-z
x,y,-z
-x,y,1/2+z
x,-y,1/2+z
1/2+x,1/2+y,1/2+z
1/2-x,1/2-y,1/2+z
1/2+x,1/2-y,-z
1/2-x,1/2+y,-z
1/2-x,1/2-y,1/2-z
1/2+x,1/2+y,1/2-z
1/2-x,1/2+y,z
1/2+x,1/2-y,z
loop_
_atom_site_type_symbol
_atom_site_label
_atom_site_fract_x
_atom_site_fract_y
_atom_site_fract_z
Si Si1 0.629047 0.954331 0.500000
Si Si2 0.608733 0.887151 0.192985
Si Si3 0.952465 0.741137 0.903119
Si Si4 0.702265 0.709572 0.096444
Si Si5 0.000000 0.000000 0.250000
O O1 0.602430 0.744325 0.450741
O O2 0.655381 0.168339 0.451475
O O3 0.661290 0.736342 0.153808
O O4 0.548735 0.694001 0.213923
O O5 0.639828 0.000000 0.250000
O O6 0.578640 0.128478 0.154418
O O7 0.000000 0.500000 0.925417
O O8 0.000000 0.000000 0.898149
O O9 0.734385 0.413459 0.092775
#
# Coordination Sequence:
#
# PCOD9528934 Si02
#       5
#     8  16  16  16   4
#     4  10  24  46  78 108 150 199 256 315 387 465
#     4  11  28  45  78 108 156 202 259 322 401 478
#     4  11  25  43  70 111 158 200 250 312 392 477
#     4  11  27  50  77 108 148 201 261 323 388 468
#     4  12  26  52  74 114 150 204 262 330 410 498
#
# _framework density 25.457353999999999
#
# number of rings (size 3 to 8) (size 9 to 14) (size 15 to 20)
#    0.000    1.067    0.000    3.600   11.200    9.600 
#    0.000    0.000    2.933    0.000    0.000    0.000 
#    0.000    0.000    0.000    0.000    0.000    0.000 
#
# Total GULP energy -167238.067662 kJ/mol
# GULP energy per Si atom -5574.602255 kJ/mol
# Density = 2.539941 g / cm^3
# Si number density = 25.457354 Si / 1000 Ang^3
#
#
#
# Elastic Constant Matrix: (Units=GPa)
#
#
# Indices 1 2 3 4 5 6 
#
# 1 78.4397 42.9621 35.1509 0.0000 0.0000 0.0000
# 2 42.9621 131.7657 29.4415 0.0000 0.0000 0.0000
# 3 35.1509 29.4415 208.0488 0.0000 0.0000 0.0000
# 4 0.0000 0.0000 0.0000 25.8391 0.0000 0.0000
# 5 0.0000 0.0000 0.0000 0.0000 202.8022 0.0000
# 6 0.0000 0.0000 0.0000 0.0000 0.0000 49.2851
#
#
#
# Elastic Compliance Matrix: (Units=1/GPa)
#
#
# Indices 1 2 3 4 5 6 
#
# 1 0.016342 -0.004865 -0.002073 0.000000 0.000000 0.000000
# 2 -0.004865 0.009285 -0.000492 0.000000 0.000000 0.000000
# 3 -0.002073 -0.000492 0.005226 0.000000 0.000000 0.000000
# 4 0.000000 0.000000 0.000000 0.038701 0.000000 0.000000
# 5 0.000000 0.000000 0.000000 0.000000 0.004931 0.000000
# 6 0.000000 0.000000 0.000000 0.000000 0.000000 0.020290
#
#
# Mechanical properties :
#
#
# Convention : Reuss Voigt Hill
#
# Bulk Modulus (GPa) = 62.52225 70.37367 66.44796
# Shear Modulus (GPa) = 43.49069 76.29860 59.89464
#
# Velocity S-wave (km/s) = 4.13773 5.48053 4.85577
# Velocity P-wave (km/s) = 6.88772 8.23116 7.58923
#
# Compressibility (1/GPa) = 0.01599431
#
# Stress axis : x y z
#
# Youngs Moduli (GPa) = 61.19141 107.69518 191.33758
#
# Poissons Ratio (x) = 0.52396 0.39657
# Poissons Ratio (y) = 0.29771 0.09414
# Poissons Ratio (z) = 0.12683 0.05299
#
# Static dielectric constant tensor:
#      x y z
#    x 2.113930 0.000000 0.000000 
#    y 0.000000 2.047950 0.000000 
#    z 0.000000 0.000000 2.081630 
# 
# From -- ./inp_files/45137.got.cif
#   From: 2010.05.17/outbox.cif.g08.bks.cpg/sg72_23_cif.got.tgz:45137.got - 2010.06.03 17:03:01.
