data_PCOD9528068
_publ_section_title
;
Structure prediction by ZEFSAII (Michael W. Deem and Ramdas Pophale) SiO2 
 PCOD9528068
Probable space group: I B A M
;
_chemical_formula_sum "Si O2"
_cell_formula_units_Z 104
_cell_length_a 15.205645
_cell_length_b 14.507768
_cell_length_c 21.054234
_cell_angle_alpha 90.000000
_cell_angle_beta 90.000000
_cell_angle_gamma 90.000000
_cell_volume 4644.563388
_symmetry_space_group_name_H-M "I B A M"
_symmetry_group_IT_number 72
_symmetry_cell_setting 'orthorhombic'
loop_
_space_group_symop_operation_xyz
x,y,z
-x,-y,z
x,-y,1/2-z
-x,y,1/2-z
-x,-y,-z
x,y,-z
-x,y,1/2+z
x,-y,1/2+z
1/2+x,1/2+y,1/2+z
1/2-x,1/2-y,1/2+z
1/2+x,1/2-y,-z
1/2-x,1/2+y,-z
1/2-x,1/2-y,1/2-z
1/2+x,1/2+y,1/2-z
1/2-x,1/2+y,z
1/2+x,1/2-y,z
loop_
_atom_site_type_symbol
_atom_site_label
_atom_site_fract_x
_atom_site_fract_y
_atom_site_fract_z
Si Si1 0.828546 0.422413 0.208480
Si Si2 0.500000 0.840786 0.750000
Si Si3 0.176468 0.006821 0.571566
Si Si4 0.221208 0.808577 0.369239
Si Si5 0.619413 0.693416 0.072375
Si Si6 0.377990 0.011852 0.426634
Si Si7 0.957266 0.299452 0.385191
O O1 0.780801 0.500000 0.250000
O O2 0.762449 0.338380 0.197927
O O3 0.869235 0.450633 0.138671
O O4 0.911190 0.398448 0.252193
O O5 0.502859 0.790302 0.816356
O O6 0.145126 0.986737 0.500000
O O7 0.121745 0.090480 0.602370
O O8 0.276698 0.045188 0.569745
O O9 0.187487 0.907434 0.603998
O O10 0.305270 0.761931 0.402760
O O11 0.139377 0.741681 0.376220
O O12 0.524471 0.740860 0.073421
O O13 0.643861 0.675376 0.000000
O O14 0.394395 0.975572 0.500000
O O15 0.443576 0.096424 0.411190
#
# Coordination Sequence:
#
# PCOD9528068 Si02
#       7
#    16   8  16  16  16  16  16
#     4  11  23  44  70  98 134 180 231 289 353 414
#     4  12  25  44  66  97 134 180 230 289 352 415
#     4   9  20  40  66  96 138 179 220 276 342 415
#     4  11  24  44  70  96 134 186 231 284 344 414
#     4  11  23  41  68 105 139 175 228 282 344 422
#     4  10  21  39  66 102 135 173 223 286 348 414
#     4  12  25  43  66  97 137 183 231 282 352 415
#
# _framework density 22.391770999999999
#
# number of rings (size 3 to 8) (size 9 to 14) (size 15 to 20)
#    0.000    1.231    4.615    1.154    0.000    3.692 
#    5.538    2.308    0.000    0.000    0.000    0.000 
#    0.000    0.000    0.000    0.000    0.000    0.000 
#
# Total GULP energy -289732.358884 kJ/mol
# GULP energy per Si atom -5571.776132 kJ/mol
# Density = 2.234081 g / cm^3
# Si number density = 22.391771 Si / 1000 Ang^3
#
#
#
# Elastic Constant Matrix: (Units=GPa)
#
#
# Indices 1 2 3 4 5 6 
#
# 1 64.0066 3.0355 -5.3653 0.0000 0.0000 0.0000
# 2 3.0355 84.5038 17.8524 0.0000 0.0000 0.0000
# 3 -5.3653 17.8524 77.9950 0.0000 0.0000 0.0000
# 4 0.0000 0.0000 0.0000 25.1438 0.0000 0.0000
# 5 0.0000 0.0000 0.0000 0.0000 20.3356 0.0000
# 6 0.0000 0.0000 0.0000 0.0000 0.0000 28.1744
#
#
#
# Elastic Compliance Matrix: (Units=1/GPa)
#
#
# Indices 1 2 3 4 5 6 
#
# 1 0.015770 -0.000836 0.001276 0.000000 0.000000 0.000000
# 2 -0.000836 0.012479 -0.002914 0.000000 0.000000 0.000000
# 3 0.001276 -0.002914 0.013576 0.000000 0.000000 0.000000
# 4 0.000000 0.000000 0.000000 0.039771 0.000000 0.000000
# 5 0.000000 0.000000 0.000000 0.000000 0.049175 0.000000
# 6 0.000000 0.000000 0.000000 0.000000 0.000000 0.035493
#
#
# Mechanical properties :
#
#
# Convention : Reuss Voigt Hill
#
# Bulk Modulus (GPa) = 27.11654 28.61673 27.86664
# Shear Modulus (GPa) = 27.24719 28.79628 28.02173
#
# Velocity S-wave (km/s) = 3.49211 3.59000 3.54139
# Velocity P-wave (km/s) = 5.32880 5.47649 5.40315
#
# Compressibility (1/GPa) = 0.03687786
#
# Stress axis : x y z
#
# Youngs Moduli (GPa) = 63.41146 80.13187 73.65878
#
# Poissons Ratio (x) = 0.06700 -0.09400
# Poissons Ratio (y) = 0.05302 0.21464
# Poissons Ratio (z) = -0.08093 0.23350
#
# Static dielectric constant tensor:
#      x y z
#    x 1.849040 0.000000 0.000000 
#    y 0.000000 1.916040 0.000000 
#    z 0.000000 0.000000 2.192980 
# 
# From -- ./inp_files/39046.got.cif
#   From: 2010.05.17/outbox.cif.g08.bks.cpg/sg72_20_cif.got.tgz:39046.got - 2010.06.03 17:03:01.
