data_PCOD9528394
_publ_section_title
;
Structure prediction by ZEFSAII (Michael W. Deem and Ramdas Pophale) SiO2 
 PCOD9528394
Probable space group: I B A M
;
_chemical_formula_sum "Si O2"
_cell_formula_units_Z 96
_cell_length_a 9.741911
_cell_length_b 24.651461
_cell_length_c 21.996980
_cell_angle_alpha 90.000000
_cell_angle_beta 90.000000
_cell_angle_gamma 90.000000
_cell_volume 5282.626200
_symmetry_space_group_name_H-M "I B A M"
_symmetry_group_IT_number 72
_symmetry_cell_setting 'orthorhombic'
loop_
_space_group_symop_operation_xyz
x,y,z
-x,-y,z
x,-y,1/2-z
-x,y,1/2-z
-x,-y,-z
x,y,-z
-x,y,1/2+z
x,-y,1/2+z
1/2+x,1/2+y,1/2+z
1/2-x,1/2-y,1/2+z
1/2+x,1/2-y,-z
1/2-x,1/2+y,-z
1/2-x,1/2-y,1/2-z
1/2+x,1/2+y,1/2-z
1/2-x,1/2+y,z
1/2+x,1/2-y,z
loop_
_atom_site_type_symbol
_atom_site_label
_atom_site_fract_x
_atom_site_fract_y
_atom_site_fract_z
Si Si1 0.870494 0.233627 0.705453
Si Si2 0.852732 0.942388 0.829078
Si Si3 0.639594 0.186615 0.000000
Si Si4 0.896958 0.653038 0.865269
Si Si5 0.788610 0.650073 0.378141
Si Si6 0.842028 0.282499 0.000000
Si Si7 0.824645 0.068367 0.813149
O O1 0.750000 0.250000 0.750000
O O2 0.887540 0.285727 0.661415
O O3 0.812158 0.184123 0.665928
O O4 0.000000 0.222458 0.750000
O O5 0.778667 0.908563 0.880933
O O6 0.812058 0.927496 0.759833
O O7 0.014161 0.926330 0.830596
O O8 0.808963 0.005386 0.832823
O O9 0.628827 0.153843 0.062348
O O10 0.770442 0.224809 0.000000
O O11 0.505154 0.224658 0.000000
O O12 0.783930 0.611731 0.838678
O O13 0.057163 0.640398 0.853190
O O14 0.802584 0.683396 0.440266
#
# Coordination Sequence:
#
# PCOD9528394 Si02
#       7
#    16  16   8  16  16   8  16
#     4  12  24  35  54  89 120 150 188 240 295 355
#     4   9  20  38  60  88 115 154 190 243 297 349
#     4  10  22  40  59  80 115 157 202 238 286 341
#     4  11  23  39  58  85 118 156 196 242 290 352
#     4  11  23  38  59  84 118 155 197 239 293 348
#     4  10  22  40  57  82 115 157 198 240 284 349
#     4   9  20  38  61  86 118 150 195 241 297 348
#
# _framework density 18.172779999999999
#
# number of rings (size 3 to 8) (size 9 to 14) (size 15 to 20)
#    0.000    1.667    3.333    2.000    4.667    2.000 
#    0.000    2.500    0.000    5.000    0.000    0.000 
#    0.000    0.000    0.000    0.000    0.000    0.000 
#
# Total GULP energy -267388.205112 kJ/mol
# GULP energy per Si atom -5570.587607 kJ/mol
# Density = 1.813142 g / cm^3
# Si number density = 18.172780 Si / 1000 Ang^3
#
#
#
# Elastic Constant Matrix: (Units=GPa)
#
#
# Indices 1 2 3 4 5 6 
#
# 1 95.7160 50.4539 30.4246 0.0000 0.0000 0.0000
# 2 50.4539 70.9748 15.8587 0.0000 0.0000 0.0000
# 3 30.4246 15.8587 46.8521 0.0000 0.0000 0.0000
# 4 0.0000 0.0000 0.0000 3.8310 0.0000 0.0000
# 5 0.0000 0.0000 0.0000 0.0000 24.1758 0.0000
# 6 0.0000 0.0000 0.0000 0.0000 0.0000 32.9440
#
#
#
# Elastic Compliance Matrix: (Units=1/GPa)
#
#
# Indices 1 2 3 4 5 6 
#
# 1 0.019462 -0.011912 -0.008606 0.000000 0.000000 0.000000
# 2 -0.011912 0.022533 0.000108 0.000000 0.000000 0.000000
# 3 -0.008606 0.000108 0.026896 0.000000 0.000000 0.000000
# 4 0.000000 0.000000 0.000000 0.261027 0.000000 0.000000
# 5 0.000000 0.000000 0.000000 0.000000 0.041364 0.000000
# 6 0.000000 0.000000 0.000000 0.000000 0.000000 0.030355
#
#
# Mechanical properties :
#
#
# Convention : Reuss Voigt Hill
#
# Bulk Modulus (GPa) = 35.62379 45.22416 40.42397
# Shear Modulus (GPa) = 11.06649 19.97719 15.52184
#
# Velocity S-wave (km/s) = 2.47039 3.31915 2.92571
# Velocity P-wave (km/s) = 5.27091 6.29514 5.80565
#
# Compressibility (1/GPa) = 0.02807113
#
# Stress axis : x y z
#
# Youngs Moduli (GPa) = 51.38110 44.37856 37.18056
#
# Poissons Ratio (x) = 0.52865 0.31999
# Poissons Ratio (y) = 0.61207 -0.00403
# Poissons Ratio (z) = 0.44220 -0.00481
#
# Static dielectric constant tensor:
#      x y z
#    x 1.660310 0.000000 0.000000 
#    y 0.000000 1.787370 0.000000 
#    z 0.000000 0.000000 1.594410 
# 
# From -- ./inp_files/42508.got.cif
#   From: 2010.05.17/outbox.cif.g08.bks.cpg/sg72_22_cif.got.tgz:42508.got - 2010.06.03 17:03:01.
