data_PCOD9528050
_publ_section_title
;
Structure prediction by ZEFSAII (Michael W. Deem and Ramdas Pophale) SiO2 
 PCOD9528050
Probable space group: I B A M
;
_chemical_formula_sum "Si O2"
_cell_formula_units_Z 112
_cell_length_a 14.063888
_cell_length_b 22.253397
_cell_length_c 15.946829
_cell_angle_alpha 90.000000
_cell_angle_beta 90.000000
_cell_angle_gamma 90.000000
_cell_volume 4990.867639
_symmetry_space_group_name_H-M "I B A M"
_symmetry_group_IT_number 72
_symmetry_cell_setting 'orthorhombic'
loop_
_space_group_symop_operation_xyz
x,y,z
-x,-y,z
x,-y,1/2-z
-x,y,1/2-z
-x,-y,-z
x,y,-z
-x,y,1/2+z
x,-y,1/2+z
1/2+x,1/2+y,1/2+z
1/2-x,1/2-y,1/2+z
1/2+x,1/2-y,-z
1/2-x,1/2+y,-z
1/2-x,1/2-y,1/2-z
1/2+x,1/2+y,1/2-z
1/2-x,1/2+y,z
1/2+x,1/2-y,z
loop_
_atom_site_type_symbol
_atom_site_label
_atom_site_fract_x
_atom_site_fract_y
_atom_site_fract_z
Si Si1 0.809047 0.259167 0.334364
Si Si2 0.954610 0.598696 0.660152
Si Si3 0.130018 0.284041 0.593771
Si Si4 0.720835 0.981394 0.898099
Si Si5 0.841617 0.389356 0.595826
Si Si6 0.480999 0.687943 0.100319
Si Si7 0.568010 0.446342 0.897891
O O1 0.750000 0.250000 0.250000
O O2 0.741738 0.225154 0.400861
O O3 0.821869 0.329230 0.353114
O O4 0.909597 0.227070 0.343871
O O5 0.910602 0.665554 0.655065
O O6 0.869392 0.554293 0.637165
O O7 0.000000 0.585803 0.750000
O O8 0.045900 0.596379 0.599655
O O9 0.102428 0.303774 0.500000
O O10 0.082749 0.219446 0.609911
O O11 0.822399 0.954640 0.871430
O O12 0.712464 0.051300 0.873589
O O13 0.715299 0.978692 0.000000
O O14 0.813218 0.377548 0.500000
O O15 0.473145 0.618694 0.124495
O O16 0.457356 0.693128 0.000000
O O17 0.500000 0.500000 0.868153
O O18 0.568850 0.449121 0.000000
#
# Coordination Sequence:
#
# PCOD9528050 Si02
#       7
#    16  16  16  16  16  16  16
#     4  12  25  41  63  96 133 177 219 281 346 408
#     4  12  24  41  64  98 134 177 218 280 349 414
#     4  11  23  39  67  95 126 172 224 276 337 410
#     4  10  22  39  65  96 132 179 225 279 337 406
#     4  11  23  41  64  93 130 172 225 276 332 406
#     4  10  21  39  64  95 129 170 220 275 332 398
#     4   9  19  37  63  96 130 163 216 277 330 389
#
# _framework density 22.440987
#
# number of rings (size 3 to 8) (size 9 to 14) (size 15 to 20)
#    0.000    1.286    1.429    4.714    2.000    3.429 
#    0.000    0.000    0.000    0.000    0.000    0.000 
#    0.000    0.000    0.000    0.000    0.000    0.571 
#
# Total GULP energy -313318.534281 kJ/mol
# GULP energy per Si atom -5594.973826 kJ/mol
# Density = 2.238991 g / cm^3
# Si number density = 22.440987 Si / 1000 Ang^3
#
#
#
# Elastic Constant Matrix: (Units=GPa)
#
#
# Indices 1 2 3 4 5 6 
#
# 1 47.3934 -0.8635 0.0147 0.0000 0.0000 0.0000
# 2 -0.8635 124.3830 23.9740 0.0000 0.0000 0.0000
# 3 0.0147 23.9740 49.4148 -0.0001 0.0000 0.0000
# 4 0.0000 0.0000 -0.0001 7.3306 0.0000 0.0000
# 5 0.0000 0.0000 0.0000 0.0000 27.1593 0.0000
# 6 0.0000 0.0000 0.0000 0.0000 0.0000 31.2427
#
#
#
# Elastic Compliance Matrix: (Units=1/GPa)
#
#
# Indices 1 2 3 4 5 6 
#
# 1 0.021103 0.000163 -0.000085 0.000000 0.000000 0.000000
# 2 0.000163 0.008870 -0.004304 0.000000 0.000000 0.000000
# 3 -0.000085 -0.004304 0.022325 0.000000 0.000000 0.000000
# 4 0.000000 0.000000 0.000000 0.136414 0.000000 0.000000
# 5 0.000000 0.000000 0.000000 0.000000 0.036820 0.000000
# 6 0.000000 0.000000 0.000000 0.000000 0.000000 0.032007
#
#
# Mechanical properties :
#
#
# Convention : Reuss Voigt Hill
#
# Bulk Modulus (GPa) = 22.80699 29.71574 26.26136
# Shear Modulus (GPa) = 17.81857 26.35094 22.08475
#
# Velocity S-wave (km/s) = 2.82089 3.43043 3.14048
# Velocity P-wave (km/s) = 4.56016 5.38153 4.98778
#
# Compressibility (1/GPa) = 0.04384620
#
# Stress axis : x y z
#
# Youngs Moduli (GPa) = 47.38662 112.73588 44.79332
#
# Poissons Ratio (x) = -0.01837 0.00382
# Poissons Ratio (y) = -0.00772 0.19277
# Poissons Ratio (z) = 0.00404 0.48516
#
# Static dielectric constant tensor:
#      x y z
#    x 1.784810 0.000000 0.000000 
#    y 0.000000 1.795110 0.000000 
#    z 0.000000 0.000000 1.890380 
# 
# From -- ./inp_files/22098.got.cif
#   From: 2010.05.17/outbox.cif.g08.bks.cpg/sg72_12_cif.got.tgz:22098.got - 2010.06.03 17:03:01.
