data_PCOD9528202
_publ_section_title
;
Structure prediction by ZEFSAII (Michael W. Deem and Ramdas Pophale) SiO2 
 PCOD9528202
Probable space group: I B A M
;
_chemical_formula_sum "Si O2"
_cell_formula_units_Z 52
_cell_length_a 17.230428
_cell_length_b 9.717659
_cell_length_c 14.418702
_cell_angle_alpha 90.000000
_cell_angle_beta 90.000000
_cell_angle_gamma 90.000000
_cell_volume 2414.259154
_symmetry_space_group_name_H-M "I B A M"
_symmetry_group_IT_number 72
_symmetry_cell_setting 'orthorhombic'
loop_
_space_group_symop_operation_xyz
x,y,z
-x,-y,z
x,-y,1/2-z
-x,y,1/2-z
-x,-y,-z
x,y,-z
-x,y,1/2+z
x,-y,1/2+z
1/2+x,1/2+y,1/2+z
1/2-x,1/2-y,1/2+z
1/2+x,1/2-y,-z
1/2-x,1/2+y,-z
1/2-x,1/2-y,1/2-z
1/2+x,1/2+y,1/2-z
1/2-x,1/2+y,z
1/2+x,1/2-y,z
loop_
_atom_site_type_symbol
_atom_site_label
_atom_site_fract_x
_atom_site_fract_y
_atom_site_fract_z
Si Si1 0.103427 0.167734 0.102693
Si Si2 0.913200 0.512224 0.139598
Si Si3 0.764687 0.375630 0.178540
Si Si4 0.000000 0.000000 0.250000
O O1 0.110512 0.332494 0.115491
O O2 0.191081 0.114661 0.112251
O O3 0.052214 0.097217 0.183295
O O4 0.071734 0.139005 0.000000
O O5 0.921692 0.500000 0.250000
O O6 0.845932 0.397915 0.122860
O O7 0.000000 0.500000 0.100521
O O8 0.762201 0.500000 0.250000
O O9 0.750000 0.250000 0.250000
#
# Coordination Sequence:
#
# PCOD9528202 Si02
#       4
#    16  16  16   4
#     4  12  26  43  70 106 137 190 254 302 372 459
#     4  10  21  41  72  97 136 186 239 290 360 433
#     4  11  21  42  70 101 139 191 232 289 369 424
#     4  12  26  48  70  94 154 188 240 324 388 430
#
# _framework density 21.538698
#
# number of rings (size 3 to 8) (size 9 to 14) (size 15 to 20)
#    0.000    0.923    7.692    2.308    0.000    1.846 
#    0.000    0.000    0.000    0.000    0.000    0.000 
#    0.000    0.000    0.000    0.000    0.000    0.000 
#
# Total GULP energy -144861.392472 kJ/mol
# GULP energy per Si atom -5571.592018 kJ/mol
# Density = 2.148967 g / cm^3
# Si number density = 21.538698 Si / 1000 Ang^3
#
#
#
# Elastic Constant Matrix: (Units=GPa)
#
#
# Indices 1 2 3 4 5 6 
#
# 1 190.6668 49.4170 38.5045 0.0000 0.0000 0.0000
# 2 49.4170 105.4982 24.4013 0.0000 0.0000 0.0000
# 3 38.5045 24.4013 138.7924 0.0000 0.0000 0.0000
# 4 0.0000 0.0000 0.0000 2.8719 0.0000 0.0000
# 5 0.0000 0.0000 0.0000 0.0000 -612.3188 0.0000
# 6 0.0000 0.0000 0.0000 0.0000 0.0000 20.7576
#
#
#
# Elastic Compliance Matrix: (Units=1/GPa)
#
#
# Indices 1 2 3 4 5 6 
#
# 1 0.006172 -0.002601 -0.001255 0.000000 0.000000 0.000000
# 2 -0.002601 0.010977 -0.001208 0.000000 0.000000 0.000000
# 3 -0.001255 -0.001208 0.007766 0.000000 0.000000 0.000000
# 4 0.000000 0.000000 0.000000 0.348205 0.000000 0.000000
# 5 0.000000 0.000000 0.000000 0.000000 -0.001633 0.000000
# 6 0.000000 0.000000 0.000000 0.000000 0.000000 0.048175
#
#
# Mechanical properties :
#
#
# Convention : Reuss Voigt Hill
#
# Bulk Modulus (GPa) = 67.63135 73.28922 70.46029
# Shear Modulus (GPa) = 11.50170 -96.22890 -42.36360
#
# Velocity S-wave (km/s) = 2.31335 -6.69135 -4.43974
# Velocity P-wave (km/s) = 6.21318 5.05948 2.55003
#
# Compressibility (1/GPa) = 0.01478604
#
# Stress axis : x y z
#
# Youngs Moduli (GPa) = 162.01375 91.10279 128.77264
#
# Poissons Ratio (x) = 0.23695 0.16162
# Poissons Ratio (y) = 0.42138 0.15559
# Poissons Ratio (z) = 0.20334 0.11008
#
# Static dielectric constant tensor:
#      x y z
#    x 1.975100 0.000000 0.000000 
#    y 0.000000 1.783930 0.000000 
#    z 0.000000 0.000000 1.729660 
# 
# From -- ./inp_files/27442.got.cif
#   From: 2010.05.17/outbox.cif.g08.bks.cpg/sg72_14_cif.got.tgz:27442.got - 2010.06.03 17:03:01.
