data_PCOD9528586
_publ_section_title
;
Structure prediction by ZEFSAII (Michael W. Deem and Ramdas Pophale) SiO2 
 PCOD9528586
Probable space group: I B A M
;
_chemical_formula_sum "Si O2"
_cell_formula_units_Z 52
_cell_length_a 9.064813
_cell_length_b 25.173911
_cell_length_c 10.389317
_cell_angle_alpha 90.000000
_cell_angle_beta 90.000000
_cell_angle_gamma 90.000000
_cell_volume 2370.808849
_symmetry_space_group_name_H-M "I B A M"
_symmetry_group_IT_number 72
_symmetry_cell_setting 'orthorhombic'
loop_
_space_group_symop_operation_xyz
x,y,z
-x,-y,z
x,-y,1/2-z
-x,y,1/2-z
-x,-y,-z
x,y,-z
-x,y,1/2+z
x,-y,1/2+z
1/2+x,1/2+y,1/2+z
1/2-x,1/2-y,1/2+z
1/2+x,1/2-y,-z
1/2-x,1/2+y,-z
1/2-x,1/2-y,1/2-z
1/2+x,1/2+y,1/2-z
1/2-x,1/2+y,z
1/2+x,1/2-y,z
loop_
_atom_site_type_symbol
_atom_site_label
_atom_site_fract_x
_atom_site_fract_y
_atom_site_fract_z
Si Si1 0.289069 0.578327 0.358052
Si Si2 0.500000 0.099851 0.250000
Si Si3 0.000000 0.832576 0.250000
Si Si4 0.000000 0.000000 0.500000
Si Si5 0.961708 0.326921 0.000000
Si Si6 0.636423 0.275894 0.000000
O O1 0.235099 0.595041 0.500000
O O2 0.145169 0.565584 0.276887
O O3 0.370612 0.628135 0.295398
O O4 0.404178 0.532290 0.389979
O O5 0.534527 0.137335 0.372021
O O6 0.940533 0.799562 0.128557
O O7 0.098579 0.286167 0.000000
O O8 0.808161 0.292865 0.000000
#
# Coordination Sequence:
#
# PCOD9528586 Si02
#       6
#    16   8   8   4   8   8
#     4  10  22  42  74 108 141 189 242 312 383 450
#     4  12  23  44  72 107 151 203 244 317 381 442
#     4  12  23  43  68 100 143 197 252 298 380 448
#     4   8  20  46  72 112 142 180 242 320 388 460
#     4  12  27  40  65 103 153 199 261 307 365 430
#     4  12  27  40  63 102 146 200 256 309 356 441
#
# _framework density 21.933440999999998
#
# number of rings (size 3 to 8) (size 9 to 14) (size 15 to 20)
#    0.923    0.000    6.154    0.923    4.308    3.077 
#    0.000    0.000    0.000    8.308    0.000    0.000 
#    0.000    0.000    0.000    0.000    0.000    0.000 
#
# Total GULP energy -144751.575561 kJ/mol
# GULP energy per Si atom -5567.368291 kJ/mol
# Density = 2.188352 g / cm^3
# Si number density = 21.933441 Si / 1000 Ang^3
#
#
#
# Elastic Constant Matrix: (Units=GPa)
#
#
# Indices 1 2 3 4 5 6 
#
# 1 68.5482 65.2570 37.2183 -0.0006 0.0001 0.0000
# 2 65.2570 102.2725 56.8094 -0.0001 0.0000 0.0000
# 3 37.2183 56.8094 150.4149 -0.0031 0.0000 0.0001
# 4 -0.0006 -0.0001 -0.0031 161.8604 0.0003 0.0001
# 5 0.0001 0.0000 0.0000 0.0003 20.6642 -0.0001
# 6 0.0000 0.0000 0.0001 0.0001 -0.0001 30.8864
#
#
#
# Elastic Compliance Matrix: (Units=1/GPa)
#
#
# Indices 1 2 3 4 5 6 
#
# 1 0.037172 -0.023550 -0.000303 0.000000 0.000000 0.000000
# 2 -0.023550 0.027293 -0.004481 0.000000 0.000000 0.000000
# 3 -0.000303 -0.004481 0.008416 0.000000 0.000000 0.000000
# 4 0.000000 0.000000 0.000000 0.006178 0.000000 0.000000
# 5 0.000000 0.000000 0.000000 0.000000 0.048393 0.000000
# 6 0.000000 0.000000 0.000000 0.000000 0.000000 0.032377
#
#
# Mechanical properties :
#
#
# Convention : Reuss Voigt Hill
#
# Bulk Modulus (GPa) = 61.68067 71.08943 66.38505
# Shear Modulus (GPa) = 22.53243 53.47893 38.00568
#
# Velocity S-wave (km/s) = 3.20864 4.94321 4.16718
# Velocity P-wave (km/s) = 6.47379 8.06611 7.31342
#
# Compressibility (1/GPa) = 0.01621253
#
# Stress axis : x y z
#
# Youngs Moduli (GPa) = 26.90180 36.63879 118.82396
#
# Poissons Ratio (x) = 0.86284 0.03604
# Poissons Ratio (y) = 0.63354 0.53247
# Poissons Ratio (z) = 0.00816 0.16419
#
# Static dielectric constant tensor:
#      x y z
#    x 1.340090 0.000000 0.000000 
#    y 0.000000 1.780070 0.000000 
#    z 0.000000 0.000000 1.829390 
# 
# From -- ./inp_files/10353.got.cif
#   From: 2010.05.17/outbox.cif.g08.bks.cpg/sg72_6_cif.got.tgz:10353.got - 2010.06.03 17:03:01.
