data_PCOD9528315
_publ_section_title
;
Structure prediction by ZEFSAII (Michael W. Deem and Ramdas Pophale) SiO2 
 PCOD9528315
Probable space group: I B A M
;
_chemical_formula_sum "Si O2"
_cell_formula_units_Z 96
_cell_length_a 13.384989
_cell_length_b 23.738838
_cell_length_c 15.409524
_cell_angle_alpha 90.000000
_cell_angle_beta 90.000000
_cell_angle_gamma 90.000000
_cell_volume 4896.285111
_symmetry_space_group_name_H-M "I B A M"
_symmetry_group_IT_number 72
_symmetry_cell_setting 'orthorhombic'
loop_
_space_group_symop_operation_xyz
x,y,z
-x,-y,z
x,-y,1/2-z
-x,y,1/2-z
-x,-y,-z
x,y,-z
-x,y,1/2+z
x,-y,1/2+z
1/2+x,1/2+y,1/2+z
1/2-x,1/2-y,1/2+z
1/2+x,1/2-y,-z
1/2-x,1/2+y,-z
1/2-x,1/2-y,1/2-z
1/2+x,1/2+y,1/2-z
1/2-x,1/2+y,z
1/2+x,1/2-y,z
loop_
_atom_site_type_symbol
_atom_site_label
_atom_site_fract_x
_atom_site_fract_y
_atom_site_fract_z
Si Si1 0.258666 0.063532 0.733388
Si Si2 0.023244 0.755029 0.098143
Si Si3 0.613444 0.142276 0.336384
Si Si4 0.331458 0.780821 0.812055
Si Si5 0.322774 0.646623 0.598073
Si Si6 0.942539 0.440846 0.599385
O O1 0.293586 0.098428 0.820104
O O2 0.185418 0.101173 0.674515
O O3 0.355332 0.056361 0.670168
O O4 0.222812 0.000000 0.750000
O O5 0.098404 0.701364 0.111523
O O6 0.084270 0.811975 0.110586
O O7 0.924738 0.755207 0.157056
O O8 0.987445 0.751214 0.000000
O O9 0.615508 0.169506 0.241323
O O10 0.524066 0.104630 0.371218
O O11 0.250000 0.750000 0.750000
O O12 0.272304 0.811878 0.888398
O O13 0.323879 0.623839 0.500000
O O14 0.908434 0.429405 0.500000
O O15 0.000000 0.500000 0.599385
#
# Coordination Sequence:
#
# PCOD9528315 Si02
#       6
#    16  16  16  16  16  16
#     4  11  21  35  55  79 118 159 211 258 301 361
#     4  11  22  37  57  86 126 161 197 246 307 368
#     4  11  21  34  55  81 118 159 195 244 296 364
#     4  11  21  36  60  88 122 156 204 252 297 363
#     4  10  22  38  58  86 125 165 202 250 313 371
#     4  11  21  32  49  76 114 158 202 245 307 379
#
# _framework density 19.606701999999999
#
# number of rings (size 3 to 8) (size 9 to 14) (size 15 to 20)
#    0.000    1.167    3.333    5.500    0.000    0.000 
#    0.000    0.000    0.000    0.000    0.000    9.333 
#    0.000   17.333    0.000    0.000    0.000    0.000 
#
# Total GULP energy -267399.418576 kJ/mol
# GULP energy per Si atom -5570.821220 kJ/mol
# Density = 1.956208 g / cm^3
# Si number density = 19.606702 Si / 1000 Ang^3
#
#
#
# Elastic Constant Matrix: (Units=GPa)
#
#
# Indices 1 2 3 4 5 6 
#
# 1 44.4686 28.2260 24.3412 0.0000 0.0000 0.0000
# 2 28.2260 118.1849 31.6359 0.0000 0.0000 0.0000
# 3 24.3412 31.6359 58.5675 0.0000 0.0000 0.0000
# 4 0.0000 0.0000 0.0000 26.2904 0.0000 0.0000
# 5 0.0000 0.0000 0.0000 0.0000 22.9109 0.0000
# 6 0.0000 0.0000 0.0000 0.0000 0.0000 26.8824
#
#
#
# Elastic Compliance Matrix: (Units=1/GPa)
#
#
# Indices 1 2 3 4 5 6 
#
# 1 0.031149 -0.004646 -0.010436 0.000000 0.000000 0.000000
# 2 -0.004646 0.010584 -0.003786 0.000000 0.000000 0.000000
# 3 -0.010436 -0.003786 0.023457 0.000000 0.000000 0.000000
# 4 0.000000 0.000000 0.000000 0.038037 0.000000 0.000000
# 5 0.000000 0.000000 0.000000 0.000000 0.043647 0.000000
# 6 0.000000 0.000000 0.000000 0.000000 0.000000 0.037199
#
#
# Mechanical properties :
#
#
# Convention : Reuss Voigt Hill
#
# Bulk Modulus (GPa) = 36.42530 43.29192 39.85861
# Shear Modulus (GPa) = 21.64854 24.35128 22.99991
#
# Velocity S-wave (km/s) = 3.32646 3.52801 3.42872
# Velocity P-wave (km/s) = 5.77686 6.22285 6.00400
#
# Compressibility (1/GPa) = 0.02745345
#
# Stress axis : x y z
#
# Youngs Moduli (GPa) = 32.10346 94.47851 42.63096
#
# Poissons Ratio (x) = 0.43892 0.44492
# Poissons Ratio (y) = 0.14914 0.16142
# Poissons Ratio (z) = 0.33505 0.35774
#
# Static dielectric constant tensor:
#      x y z
#    x 1.724980 0.000000 0.000000 
#    y 0.000000 1.738610 0.000000 
#    z 0.000000 0.000000 1.737720 
# 
# From -- ./inp_files/29467.got.cif
#   From: 2010.05.17/outbox.cif.g08.bks.cpg/sg72_15_cif.got.tgz:29467.got - 2010.06.03 17:03:01.
