data_PCOD9528589
_publ_section_title
;
Structure prediction by ZEFSAII (Michael W. Deem and Ramdas Pophale) SiO2 
 PCOD9528589
Probable space group: I B A M
;
_chemical_formula_sum "Si O2"
_cell_formula_units_Z 64
_cell_length_a 12.702477
_cell_length_b 8.554400
_cell_length_c 25.290143
_cell_angle_alpha 90.000000
_cell_angle_beta 90.000000
_cell_angle_gamma 90.000000
_cell_volume 2748.079270
_symmetry_space_group_name_H-M "I B A M"
_symmetry_group_IT_number 72
_symmetry_cell_setting 'orthorhombic'
loop_
_space_group_symop_operation_xyz
x,y,z
-x,-y,z
x,-y,1/2-z
-x,y,1/2-z
-x,-y,-z
x,y,-z
-x,y,1/2+z
x,-y,1/2+z
1/2+x,1/2+y,1/2+z
1/2-x,1/2-y,1/2+z
1/2+x,1/2-y,-z
1/2-x,1/2+y,-z
1/2-x,1/2-y,1/2-z
1/2+x,1/2+y,1/2-z
1/2-x,1/2+y,z
1/2+x,1/2-y,z
loop_
_atom_site_type_symbol
_atom_site_label
_atom_site_fract_x
_atom_site_fract_y
_atom_site_fract_z
Si Si1 0.403923 0.723730 0.292578
Si Si2 0.813957 0.832405 0.061162
Si Si3 0.500000 0.500000 0.621986
Si Si4 0.720575 0.000000 0.250000
Si Si5 0.887274 0.521120 0.438527
O O1 0.500000 0.713392 0.250000
O O2 0.455778 0.643544 0.343361
O O3 0.355157 0.897554 0.287925
O O4 0.301974 0.615552 0.279396
O O5 0.837473 0.650085 0.061699
O O6 0.699276 0.864910 0.085073
O O7 0.810232 0.884024 0.000000
O O8 0.904922 0.929762 0.088439
O O9 0.906538 0.573731 0.500000
O O10 0.000000 0.500000 0.412204
#
# Coordination Sequence:
#
# PCOD9528589 Si02
#       5
#    16  16   8   8  16
#     4  11  22  46  67 101 130 171 219 280 346 414
#     4  10  23  41  65  96 139 190 233 284 342 400
#     4  12  24  40  68 100 146 176 234 284 338 424
#     4  10  22  42  78  92 134 172 212 278 354 406
#     4   9  20  41  65  90 127 179 236 285 336 395
#
# _framework density 23.288993999999999
#
# number of rings (size 3 to 8) (size 9 to 14) (size 15 to 20)
#    0.000    1.750    2.500    0.750    3.500    2.000 
#    0.000    0.000    0.000    0.000    0.000    0.000 
#    0.000    0.000    0.000    0.000    0.000    0.000 
#
# Total GULP energy -178869.280646 kJ/mol
# GULP energy per Si atom -5589.665020 kJ/mol
# Density = 2.323599 g / cm^3
# Si number density = 23.288994 Si / 1000 Ang^3
#
#
#
# Elastic Constant Matrix: (Units=GPa)
#
#
# Indices 1 2 3 4 5 6 
#
# 1 180.3738 48.1639 37.8067 0.0000 0.0000 0.0000
# 2 48.1639 81.3337 21.1976 0.0000 0.0000 0.0000
# 3 37.8067 21.1976 54.4638 0.0000 0.0000 0.0000
# 4 0.0000 0.0000 0.0000 19.2221 0.0000 0.0000
# 5 0.0000 0.0000 0.0000 0.0000 0.5424 0.0000
# 6 0.0000 0.0000 0.0000 0.0000 0.0000 -1.0464
#
#
#
# Elastic Compliance Matrix: (Units=1/GPa)
#
#
# Indices 1 2 3 4 5 6 
#
# 1 0.007204 -0.003297 -0.003717 0.000000 0.000000 0.000000
# 2 -0.003297 0.015192 -0.003624 0.000000 0.000000 0.000000
# 3 -0.003717 -0.003624 0.022352 0.000000 0.000000 0.000000
# 4 0.000000 0.000000 0.000000 0.052023 0.000000 0.000000
# 5 0.000000 0.000000 0.000000 0.000000 1.843769 0.000000
# 6 0.000000 0.000000 0.000000 0.000000 0.000000 -0.955649
#
#
# Mechanical properties :
#
#
# Convention : Reuss Voigt Hill
#
# Bulk Modulus (GPa) = 42.60666 58.94531 50.77598
# Shear Modulus (GPa) = 4.93101 17.67715 11.30408
#
# Velocity S-wave (km/s) = 1.45668 2.75805 2.20553
# Velocity P-wave (km/s) = 4.60040 5.95884 5.32313
#
# Compressibility (1/GPa) = 0.02347051
#
# Stress axis : x y z
#
# Youngs Moduli (GPa) = 138.82056 65.82431 44.73921
#
# Poissons Ratio (x) = 0.21702 0.16631
# Poissons Ratio (y) = 0.45769 0.16214
# Poissons Ratio (z) = 0.51603 0.23856
#
# Static dielectric constant tensor:
#      x y z
#    x 1.886460 0.000000 0.000000 
#    y 0.000000 1.868340 0.000000 
#    z 0.000000 0.000000 1.912110 
# 
# From -- ./inp_files/51151.got.cif
#   From: 2010.05.17/outbox.cif.g08.bks.cpg/sg72_26_cif.got.tgz:51151.got - 2010.06.03 17:03:01.
