data_PCOD9528659
_publ_section_title
;
Structure prediction by ZEFSAII (Michael W. Deem and Ramdas Pophale) SiO2 
 PCOD9528659
Probable space group: I B A M
;
_chemical_formula_sum "Si O2"
_cell_formula_units_Z 88
_cell_length_a 9.223414
_cell_length_b 23.040116
_cell_length_c 19.139998
_cell_angle_alpha 90.000000
_cell_angle_beta 90.000000
_cell_angle_gamma 90.000000
_cell_volume 4067.412810
_symmetry_space_group_name_H-M "I B A M"
_symmetry_group_IT_number 72
_symmetry_cell_setting 'orthorhombic'
loop_
_space_group_symop_operation_xyz
x,y,z
-x,-y,z
x,-y,1/2-z
-x,y,1/2-z
-x,-y,-z
x,y,-z
-x,y,1/2+z
x,-y,1/2+z
1/2+x,1/2+y,1/2+z
1/2-x,1/2-y,1/2+z
1/2+x,1/2-y,-z
1/2-x,1/2+y,-z
1/2-x,1/2-y,1/2-z
1/2+x,1/2+y,1/2-z
1/2-x,1/2+y,z
1/2+x,1/2-y,z
loop_
_atom_site_type_symbol
_atom_site_label
_atom_site_fract_x
_atom_site_fract_y
_atom_site_fract_z
Si Si1 0.726493 0.278153 0.149470
Si Si2 0.469568 0.067574 0.148778
Si Si3 0.045535 0.384551 0.000000
Si Si4 0.156352 0.284334 0.500000
Si Si5 0.375768 0.645153 0.500000
Si Si6 0.081403 0.167413 0.649824
Si Si7 0.706682 0.125635 0.751363
O O1 0.781230 0.212156 0.146233
O O2 0.558426 0.292497 0.162519
O O3 0.809979 0.312755 0.210695
O O4 0.763887 0.300896 0.071617
O O5 0.588854 0.106164 0.190914
O O6 0.318742 0.082058 0.186902
O O7 0.500000 0.000000 0.157333
O O8 0.482020 0.085783 0.068821
O O9 0.218406 0.384298 0.000000
O O10 0.996149 0.317382 0.000000
O O11 0.133710 0.215576 0.500000
O O12 0.441679 0.634348 0.423485
O O13 0.139065 0.125998 0.710550
#
# Coordination Sequence:
#
# PCOD9528659 Si02
#       7
#    16  16   8   8   8  16  16
#     4  11  24  38  61  95 137 179 218 256 320 398
#     4  11  25  43  71  99 121 165 227 287 331 377
#     4  12  21  46  68 100 128 168 213 280 316 390
#     4  10  23  35  61  93 134 174 216 249 322 381
#     4  10  23  35  61  93 134 174 216 249 322 381
#     4  11  24  38  61  95 137 179 218 256 320 398
#     4  11  22  38  61  92 134 159 209 267 334 377
#
# _framework density 21.635373999999999
#
# number of rings (size 3 to 8) (size 9 to 14) (size 15 to 20)
#    0.000    1.091    3.636    3.000   15.273    0.000 
#    0.000    0.000    0.000    8.727    0.000    2.545 
#    0.000    0.000    0.000    0.000    0.000    0.000 
#
# Total GULP energy -245512.524806 kJ/mol
# GULP energy per Si atom -5579.830109 kJ/mol
# Density = 2.158613 g / cm^3
# Si number density = 21.635374 Si / 1000 Ang^3
#
#
#
# Elastic Constant Matrix: (Units=GPa)
#
#
# Indices 1 2 3 4 5 6 
#
# 1 81.4827 5.7242 20.8391 0.0000 0.0000 0.0000
# 2 5.7242 43.9442 18.6259 0.0000 0.0000 0.0000
# 3 20.8391 18.6259 169.0503 0.0000 0.0000 0.0000
# 4 0.0000 0.0000 0.0000 12.3742 0.0000 0.0000
# 5 0.0000 0.0000 0.0000 0.0000 22.9412 0.0000
# 6 0.0000 0.0000 0.0000 0.0000 0.0000 11.2873
#
#
#
# Elastic Compliance Matrix: (Units=1/GPa)
#
#
# Indices 1 2 3 4 5 6 
#
# 1 0.012717 -0.001041 -0.001453 0.000000 0.000000 0.000000
# 2 -0.001041 0.023956 -0.002511 0.000000 0.000000 0.000000
# 3 -0.001453 -0.002511 0.006371 0.000000 0.000000 0.000000
# 4 0.000000 0.000000 0.000000 0.080813 0.000000 0.000000
# 5 0.000000 0.000000 0.000000 0.000000 0.043590 0.000000
# 6 0.000000 0.000000 0.000000 0.000000 0.000000 0.088595
#
#
# Mechanical properties :
#
#
# Convention : Reuss Voigt Hill
#
# Bulk Modulus (GPa) = 30.27115 42.76173 36.51644
# Shear Modulus (GPa) = 18.04639 25.93975 21.99307
#
# Velocity S-wave (km/s) = 2.89124 3.46634 3.19177
# Velocity P-wave (km/s) = 5.01673 5.98568 5.52250
#
# Compressibility (1/GPa) = 0.03303475
#
# Stress axis : x y z
#
# Youngs Moduli (GPa) = 78.63327 41.74312 156.95644
#
# Poissons Ratio (x) = 0.04344 0.22806
# Poissons Ratio (y) = 0.08183 0.39415
# Poissons Ratio (z) = 0.11426 0.10482
#
# Static dielectric constant tensor:
#      x y z
#    x 1.834170 0.000000 0.000000 
#    y 0.000000 1.780030 0.000000 
#    z 0.000000 0.000000 1.913090 
# 
# From -- ./inp_files/35896.got.cif
#   From: 2010.05.17/outbox.cif.g08.bks.cpg/sg72_18_cif.got.tgz:35896.got - 2010.06.03 17:03:01.
