data_PCOD9528136
_publ_section_title
;
Structure prediction by ZEFSAII (Michael W. Deem and Ramdas Pophale) SiO2 
 PCOD9528136
Probable space group: I B A M
;
_chemical_formula_sum "Si O2"
_cell_formula_units_Z 116
_cell_length_a 12.548532
_cell_length_b 24.928807
_cell_length_c 18.647107
_cell_angle_alpha 90.000000
_cell_angle_beta 90.000000
_cell_angle_gamma 90.000000
_cell_volume 5833.186750
_symmetry_space_group_name_H-M "I B A M"
_symmetry_group_IT_number 72
_symmetry_cell_setting 'orthorhombic'
loop_
_space_group_symop_operation_xyz
x,y,z
-x,-y,z
x,-y,1/2-z
-x,y,1/2-z
-x,-y,-z
x,y,-z
-x,y,1/2+z
x,-y,1/2+z
1/2+x,1/2+y,1/2+z
1/2-x,1/2-y,1/2+z
1/2+x,1/2-y,-z
1/2-x,1/2+y,-z
1/2-x,1/2-y,1/2-z
1/2+x,1/2+y,1/2-z
1/2-x,1/2+y,z
1/2+x,1/2-y,z
loop_
_atom_site_type_symbol
_atom_site_label
_atom_site_fract_x
_atom_site_fract_y
_atom_site_fract_z
Si Si1 0.970639 0.386047 0.917042
Si Si2 0.355684 0.779391 0.417702
Si Si3 0.338959 0.585292 0.699031
Si Si4 0.696130 0.055345 0.084194
Si Si5 0.049259 0.193561 0.681299
Si Si6 0.857035 0.850938 0.915266
Si Si7 0.000000 0.000000 0.250000
Si Si8 0.777126 0.439812 0.157066
O O1 0.953288 0.322239 0.910693
O O2 0.887377 0.411289 0.862402
O O3 0.085319 0.412700 0.906383
O O4 0.937603 0.399010 0.000000
O O5 0.355060 0.760295 0.500000
O O6 0.373599 0.731836 0.362924
O O7 0.245975 0.812005 0.405740
O O8 0.287938 0.589943 0.620944
O O9 0.390120 0.642514 0.714894
O O10 0.427331 0.538922 0.702659
O O11 0.254500 0.568220 0.760221
O O12 0.706083 0.999696 0.127760
O O13 0.709673 0.045292 0.000000
O O14 0.000000 0.223446 0.750000
O O15 0.957240 0.171691 0.628285
O O16 0.816661 0.908397 0.885529
O O17 0.879341 0.854123 0.000000
#
# Coordination Sequence:
#
# PCOD9528136 Si02
#       8
#    16  16  16  16  16  16   4  16
#     4   9  20  40  65  95 132 167 208 264 324 384
#     4   9  21  42  65  91 128 171 216 272 330 379
#     4  12  25  41  64  88 128 168 209 263 323 373
#     4  11  23  39  64  99 130 165 213 268 321 386
#     4  12  24  41  62  94 126 169 217 266 320 379
#     4  10  21  40  66  92 122 170 221 263 319 394
#     4  12  20  48  62  74 120 176 198 252 326 366
#     4  11  19  40  64  94 127 171 209 259 320 391
#
# _framework density 19.886213000000001
#
# number of rings (size 3 to 8) (size 9 to 14) (size 15 to 20)
#    0.000    1.379    3.448    2.897    0.000    4.414 
#    4.966    4.483    0.000    0.000    0.000    0.000 
#    0.000    0.000    0.000    0.000    0.000    0.000 
#
# Total GULP energy -323803.841522 kJ/mol
# GULP energy per Si atom -5582.824854 kJ/mol
# Density = 1.984095 g / cm^3
# Si number density = 19.886213 Si / 1000 Ang^3
#
#
#
# Elastic Constant Matrix: (Units=GPa)
#
#
# Indices 1 2 3 4 5 6 
#
# 1 57.3701 6.3563 34.3395 0.0000 0.0000 0.0000
# 2 6.3563 45.0483 28.0099 0.0000 0.0000 0.0000
# 3 34.3395 28.0099 88.4010 0.0000 0.0000 0.0000
# 4 0.0000 0.0000 0.0000 31.9560 0.0000 0.0000
# 5 0.0000 0.0000 0.0000 0.0000 30.7214 0.0000
# 6 0.0000 0.0000 0.0000 0.0000 0.0000 14.8413
#
#
#
# Elastic Compliance Matrix: (Units=1/GPa)
#
#
# Indices 1 2 3 4 5 6 
#
# 1 0.023007 0.002877 -0.009849 0.000000 0.000000 0.000000
# 2 0.002877 0.028005 -0.009991 0.000000 0.000000 0.000000
# 3 -0.009849 -0.009991 0.018304 0.000000 0.000000 0.000000
# 4 0.000000 0.000000 0.000000 0.031293 0.000000 0.000000
# 5 0.000000 0.000000 0.000000 0.000000 0.032551 0.000000
# 6 0.000000 0.000000 0.000000 0.000000 0.000000 0.067380
#
#
# Mechanical properties :
#
#
# Convention : Reuss Voigt Hill
#
# Bulk Modulus (GPa) = 28.25631 36.47011 32.36321
# Shear Modulus (GPa) = 20.30374 23.64464 21.97419
#
# Velocity S-wave (km/s) = 3.19877 3.45192 3.32775
# Velocity P-wave (km/s) = 5.28040 5.85379 5.57448
#
# Compressibility (1/GPa) = 0.03539033
#
# Stress axis : x y z
#
# Youngs Moduli (GPa) = 43.46504 35.70846 54.63419
#
# Poissons Ratio (x) = -0.10275 0.53808
# Poissons Ratio (y) = -0.12507 0.54585
# Poissons Ratio (z) = 0.42808 0.35676
#
# Static dielectric constant tensor:
#      x y z
#    x 1.703940 0.000000 0.000000 
#    y 0.000000 1.723440 0.000000 
#    z 0.000000 0.000000 1.699920 
# 
# From -- ./inp_files/29719.got.cif
#   From: 2010.05.17/outbox.cif.g08.bks.cpg/sg72_15_cif.got.tgz:29719.got - 2010.06.03 17:03:01.
