data_PCOD9528721
_publ_section_title
;
Structure prediction by ZEFSAII (Michael W. Deem and Ramdas Pophale) SiO2 
 PCOD9528721
Probable space group: I B A M
;
_chemical_formula_sum "Si O2"
_cell_formula_units_Z 64
_cell_length_a 11.742749
_cell_length_b 8.379731
_cell_length_c 27.378845
_cell_angle_alpha 90.000000
_cell_angle_beta 90.000000
_cell_angle_gamma 90.000000
_cell_volume 2694.107857
_symmetry_space_group_name_H-M "I B A M"
_symmetry_group_IT_number 72
_symmetry_cell_setting 'orthorhombic'
loop_
_space_group_symop_operation_xyz
x,y,z
-x,-y,z
x,-y,1/2-z
-x,y,1/2-z
-x,-y,-z
x,y,-z
-x,y,1/2+z
x,-y,1/2+z
1/2+x,1/2+y,1/2+z
1/2-x,1/2-y,1/2+z
1/2+x,1/2-y,-z
1/2-x,1/2+y,-z
1/2-x,1/2-y,1/2-z
1/2+x,1/2+y,1/2-z
1/2-x,1/2+y,z
1/2+x,1/2-y,z
loop_
_atom_site_type_symbol
_atom_site_label
_atom_site_fract_x
_atom_site_fract_y
_atom_site_fract_z
Si Si1 0.209127 0.288840 0.633486
Si Si2 0.408265 0.110249 0.368844
Si Si3 0.047404 0.821581 0.057915
Si Si4 0.374998 0.316772 0.233403
O O1 0.337572 0.257722 0.650853
O O2 0.188280 0.475421 0.626102
O O3 0.129649 0.211907 0.675065
O O4 0.169982 0.209967 0.582556
O O5 0.470313 0.185170 0.415888
O O6 0.500000 0.000000 0.341678
O O7 0.049665 0.800936 0.000000
O O8 0.000000 0.000000 0.068229
O O9 0.373444 0.500000 0.250000
O O10 0.500000 0.251398 0.250000
O O11 0.250000 0.250000 0.250000
#
# Coordination Sequence:
#
# PCOD9528721 Si02
#       4
#    16  16  16  16
#     4  11  23  42  70  98 148 193 248 313 392 456
#     4  10  23  40  70 103 142 192 247 313 386 462
#     4  10  23  42  70 104 141 187 243 306 380 468
#     4  11  27  46  73 110 149 200 258 321 389 467
#
# _framework density 23.755544
#
# number of rings (size 3 to 8) (size 9 to 14) (size 15 to 20)
#    0.000    1.500    0.000    3.000   10.500    6.000 
#    0.000    2.500    0.000    0.000    0.000    0.000 
#    0.000    0.000    0.000    0.000    0.000    0.000 
#
# Total GULP energy -178255.188300 kJ/mol
# GULP energy per Si atom -5570.474634 kJ/mol
# Density = 2.370148 g / cm^3
# Si number density = 23.755544 Si / 1000 Ang^3
#
#
#
# Elastic Constant Matrix: (Units=GPa)
#
#
# Indices 1 2 3 4 5 6 
#
# 1 159.8905 36.4983 18.6404 0.0000 0.0000 0.0000
# 2 36.4983 120.5982 27.5407 0.0000 0.0000 0.0000
# 3 18.6404 27.5407 97.9677 0.0000 0.0000 0.0000
# 4 0.0000 0.0000 0.0000 39.8749 0.0000 0.0000
# 5 0.0000 0.0000 0.0000 0.0000 32.8555 0.0000
# 6 0.0000 0.0000 0.0000 0.0000 0.0000 65.6736
#
#
#
# Elastic Compliance Matrix: (Units=1/GPa)
#
#
# Indices 1 2 3 4 5 6 
#
# 1 0.006771 -0.001875 -0.000761 0.000000 0.000000 0.000000
# 2 -0.001875 0.009380 -0.002280 0.000000 0.000000 0.000000
# 3 -0.000761 -0.002280 0.010993 0.000000 0.000000 0.000000
# 4 0.000000 0.000000 0.000000 0.025078 0.000000 0.000000
# 5 0.000000 0.000000 0.000000 0.000000 0.030436 0.000000
# 6 0.000000 0.000000 0.000000 0.000000 0.000000 0.015227
#
#
# Mechanical properties :
#
#
# Convention : Reuss Voigt Hill
#
# Bulk Modulus (GPa) = 57.76582 60.42392 59.09487
# Shear Modulus (GPa) = 44.05673 47.39927 45.72800
#
# Velocity S-wave (km/s) = 4.31116 4.47172 4.39217
# Velocity P-wave (km/s) = 7.01078 7.22168 7.11701
#
# Compressibility (1/GPa) = 0.01731128
#
# Stress axis : x y z
#
# Youngs Moduli (GPa) = 147.68614 106.60652 90.96478
#
# Poissons Ratio (x) = 0.19993 0.06924
# Poissons Ratio (y) = 0.27697 0.20741
# Poissons Ratio (z) = 0.11241 0.24308
#
# Static dielectric constant tensor:
#      x y z
#    x 2.229840 0.000000 0.000000 
#    y 0.000000 1.882140 0.000000 
#    z 0.000000 0.000000 1.936000 
# 
# From -- ./inp_files/51119.got.cif
#   From: 2010.05.17/outbox.cif.g08.bks.cpg/sg72_26_cif.got.tgz:51119.got - 2010.06.03 17:03:01.
