data_PCOD9528734
_publ_section_title
;
Structure prediction by ZEFSAII (Michael W. Deem and Ramdas Pophale) SiO2 
 PCOD9528734
Probable space group: I B A M
;
_chemical_formula_sum "Si O2"
_cell_formula_units_Z 64
_cell_length_a 17.426807
_cell_length_b 8.269317
_cell_length_c 19.134559
_cell_angle_alpha 90.000000
_cell_angle_beta 90.000000
_cell_angle_gamma 90.000000
_cell_volume 2757.439037
_symmetry_space_group_name_H-M "I B A M"
_symmetry_group_IT_number 72
_symmetry_cell_setting 'orthorhombic'
loop_
_space_group_symop_operation_xyz
x,y,z
-x,-y,z
x,-y,1/2-z
-x,y,1/2-z
-x,-y,-z
x,y,-z
-x,y,1/2+z
x,-y,1/2+z
1/2+x,1/2+y,1/2+z
1/2-x,1/2-y,1/2+z
1/2+x,1/2-y,-z
1/2-x,1/2+y,-z
1/2-x,1/2-y,1/2-z
1/2+x,1/2+y,1/2-z
1/2-x,1/2+y,z
1/2+x,1/2-y,z
loop_
_atom_site_type_symbol
_atom_site_label
_atom_site_fract_x
_atom_site_fract_y
_atom_site_fract_z
Si Si1 0.502985 0.308542 0.334660
Si Si2 0.147763 0.818468 0.079864
Si Si3 0.273959 0.608831 0.144148
Si Si4 0.135150 0.380633 0.807173
O O1 0.500000 0.500000 0.353843
O O2 0.500000 0.305084 0.250000
O O3 0.582455 0.251781 0.368628
O O4 0.433287 0.188836 0.355344
O O5 0.228074 0.727546 0.092870
O O6 0.165778 0.000988 0.102685
O O7 0.123657 0.805749 0.000000
O O8 0.206220 0.492790 0.169957
O O9 0.319363 0.708707 0.204359
O O10 0.098713 0.500000 0.750000
#
# Coordination Sequence:
#
# PCOD9528734 Si02
#       4
#    16  16  16  16
#     4  11  24  43  64  98 140 180 232 286 343 416
#     4  11  23  44  69  98 139 187 234 286 350 415
#     4  10  23  41  65 103 134 177 236 292 342 416
#     4  11  22  41  67  99 136 184 226 288 355 410
#
# _framework density 23.209941000000001
#
# number of rings (size 3 to 8) (size 9 to 14) (size 15 to 20)
#    0.000    1.250    2.500    3.000    0.000    6.000 
#    0.000    3.750    0.000    0.000    0.000    0.000 
#    0.000    0.000    0.000    0.000    0.000    0.000 
#
# Total GULP energy -178330.817646 kJ/mol
# GULP energy per Si atom -5572.838051 kJ/mol
# Density = 2.315711 g / cm^3
# Si number density = 23.209941 Si / 1000 Ang^3
#
#
#
# Elastic Constant Matrix: (Units=GPa)
#
#
# Indices 1 2 3 4 5 6 
#
# 1 154.9285 50.3629 43.0801 0.0000 0.0000 0.0000
# 2 50.3629 126.3723 33.1002 0.0000 0.0000 0.0000
# 3 43.0801 33.1002 75.6002 0.0000 0.0000 0.0000
# 4 0.0000 0.0000 0.0000 13.7736 0.0000 0.0000
# 5 0.0000 0.0000 0.0000 0.0000 23.3800 0.0000
# 6 0.0000 0.0000 0.0000 0.0000 0.0000 52.8358
#
#
#
# Elastic Compliance Matrix: (Units=1/GPa)
#
#
# Indices 1 2 3 4 5 6 
#
# 1 0.008230 -0.002317 -0.003675 0.000000 0.000000 0.000000
# 2 -0.002317 0.009591 -0.002879 0.000000 0.000000 0.000000
# 3 -0.003675 -0.002879 0.016582 0.000000 0.000000 0.000000
# 4 0.000000 0.000000 0.000000 0.072603 0.000000 0.000000
# 5 0.000000 0.000000 0.000000 0.000000 0.042772 0.000000
# 6 0.000000 0.000000 0.000000 0.000000 0.000000 0.018927
#
#
# Mechanical properties :
#
#
# Convention : Reuss Voigt Hill
#
# Bulk Modulus (GPa) = 60.02208 67.77637 63.89922
# Shear Modulus (GPa) = 26.04183 33.35507 29.69845
#
# Velocity S-wave (km/s) = 3.35328 3.79503 3.58097
# Velocity P-wave (km/s) = 6.39604 6.96188 6.68495
#
# Compressibility (1/GPa) = 0.01666054
#
# Stress axis : x y z
#
# Youngs Moduli (GPa) = 121.51021 104.26906 60.30613
#
# Poissons Ratio (x) = 0.24161 0.22163
# Poissons Ratio (y) = 0.28156 0.17360
# Poissons Ratio (z) = 0.44656 0.30015
#
# Static dielectric constant tensor:
#      x y z
#    x 1.923510 0.000000 0.000000 
#    y 0.000000 1.939070 0.000000 
#    z 0.000000 0.000000 1.908030 
# 
# From -- ./inp_files/43933.got.cif
#   From: 2010.05.17/outbox.cif.g08.bks.cpg/sg72_22_cif.got.tgz:43933.got - 2010.06.03 17:03:01.
