data_PCOD9528634
_publ_section_title
;
Structure prediction by ZEFSAII (Michael W. Deem and Ramdas Pophale) SiO2 
 PCOD9528634
Probable space group: I B A M
;
_chemical_formula_sum "Si O2"
_cell_formula_units_Z 112
_cell_length_a 14.312151
_cell_length_b 11.922513
_cell_length_c 30.314355
_cell_angle_alpha 90.000000
_cell_angle_beta 90.000000
_cell_angle_gamma 90.000000
_cell_volume 5172.744724
_symmetry_space_group_name_H-M "I B A M"
_symmetry_group_IT_number 72
_symmetry_cell_setting 'orthorhombic'
loop_
_space_group_symop_operation_xyz
x,y,z
-x,-y,z
x,-y,1/2-z
-x,y,1/2-z
-x,-y,-z
x,y,-z
-x,y,1/2+z
x,-y,1/2+z
1/2+x,1/2+y,1/2+z
1/2-x,1/2-y,1/2+z
1/2+x,1/2-y,-z
1/2-x,1/2+y,-z
1/2-x,1/2-y,1/2-z
1/2+x,1/2+y,1/2-z
1/2-x,1/2+y,z
1/2+x,1/2-y,z
loop_
_atom_site_type_symbol
_atom_site_label
_atom_site_fract_x
_atom_site_fract_y
_atom_site_fract_z
Si Si1 0.733070 0.163965 0.184028
Si Si2 0.547394 0.116335 0.412686
Si Si3 0.110989 0.991111 0.949863
Si Si4 0.610487 0.268380 0.255472
Si Si5 0.702260 0.717594 0.913376
Si Si6 0.386714 0.738207 0.949041
Si Si7 0.098413 0.450732 0.313756
O O1 0.662425 0.248639 0.209140
O O2 0.825958 0.150687 0.214232
O O3 0.761927 0.216084 0.136986
O O4 0.676300 0.046978 0.180688
O O5 0.642489 0.174826 0.429805
O O6 0.467040 0.207700 0.420071
O O7 0.572651 0.096781 0.361863
O O8 0.500000 0.000000 0.429891
O O9 0.142035 0.113551 0.934481
O O10 0.137936 0.890728 0.918649
O O11 0.144675 0.971094 0.000000
O O12 0.000000 0.000000 0.951878
O O13 0.500000 0.292685 0.250000
O O14 0.623055 0.149226 0.280919
O O15 0.792042 0.694043 0.943433
O O16 0.418073 0.733263 0.000000
O O17 0.000000 0.500000 0.297794
#
# Coordination Sequence:
#
# PCOD9528634 Si02
#       7
#    16  16  16  16  16  16  16
#     4  11  25  39  68 106 135 176 240 287 340 425
#     4  11  25  44  68 100 137 178 237 288 346 422
#     4  10  22  44  70  94 131 184 232 280 351 419
#     4  11  23  43  70 101 138 184 229 284 355 419
#     4  12  24  43  68 100 140 182 232 295 352 418
#     4  11  26  44  69 103 139 180 231 290 352 425
#     4  11  21  42  70  99 132 182 228 285 354 414
#
# _framework density 21.651945999999999
#
# number of rings (size 3 to 8) (size 9 to 14) (size 15 to 20)
#    0.000    1.000    4.286    2.571    4.000    0.857 
#    0.000    0.000    0.000    0.857    0.000    0.000 
#    0.000    0.000    0.000    0.000    0.000    0.000 
#
# Total GULP energy -312664.665861 kJ/mol
# GULP energy per Si atom -5583.297605 kJ/mol
# Density = 2.160267 g / cm^3
# Si number density = 21.651946 Si / 1000 Ang^3
#
#
#
# Elastic Constant Matrix: (Units=GPa)
#
#
# Indices 1 2 3 4 5 6 
#
# 1 151.0427 43.8906 29.8386 0.0000 0.0000 0.0000
# 2 43.8906 70.8112 32.0415 0.0000 0.0000 0.0000
# 3 29.8386 32.0415 48.7996 0.0000 0.0000 0.0000
# 4 0.0000 0.0000 0.0000 21.8103 0.0000 0.0000
# 5 0.0000 0.0000 0.0000 0.0000 28.8645 0.0000
# 6 0.0000 0.0000 0.0000 0.0000 0.0000 40.5244
#
#
#
# Elastic Compliance Matrix: (Units=1/GPa)
#
#
# Indices 1 2 3 4 5 6 
#
# 1 0.008269 -0.004037 -0.002405 0.000000 0.000000 0.000000
# 2 -0.004037 0.022062 -0.012017 0.000000 0.000000 0.000000
# 3 -0.002405 -0.012017 0.029853 0.000000 0.000000 0.000000
# 4 0.000000 0.000000 0.000000 0.045850 0.000000 0.000000
# 5 0.000000 0.000000 0.000000 0.000000 0.034645 0.000000
# 6 0.000000 0.000000 0.000000 0.000000 0.000000 0.024676
#
#
# Mechanical properties :
#
#
# Convention : Reuss Voigt Hill
#
# Bulk Modulus (GPa) = 42.98342 53.57721 48.28032
# Shear Modulus (GPa) = 23.80617 29.23203 26.51910
#
# Velocity S-wave (km/s) = 3.31946 3.67834 3.50350
# Velocity P-wave (km/s) = 5.88106 6.54513 6.22196
#
# Compressibility (1/GPa) = 0.02326478
#
# Stress axis : x y z
#
# Youngs Moduli (GPa) = 120.93544 45.32696 33.49706
#
# Poissons Ratio (x) = 0.18298 0.08058
# Poissons Ratio (y) = 0.48819 0.40255
# Poissons Ratio (z) = 0.29091 0.54471
#
# Static dielectric constant tensor:
#      x y z
#    x 1.808230 0.000000 0.000000 
#    y 0.000000 1.923790 0.000000 
#    z 0.000000 0.000000 1.784640 
# 
# From -- ./inp_files/51774.got.cif
#   From: 2010.05.17/outbox.cif.g08.bks.cpg/sg72_26_cif.got.tgz:51774.got - 2010.06.03 17:03:01.
