data_PCOD9528924
_publ_section_title
;
Structure prediction by ZEFSAII (Michael W. Deem and Ramdas Pophale) SiO2 
 PCOD9528924
Probable space group: I B A M
;
_chemical_formula_sum "Si O2"
_cell_formula_units_Z 60
_cell_length_a 9.284030
_cell_length_b 11.211629
_cell_length_c 25.069688
_cell_angle_alpha 90.000000
_cell_angle_beta 90.000000
_cell_angle_gamma 90.000000
_cell_volume 2609.481261
_symmetry_space_group_name_H-M "I B A M"
_symmetry_group_IT_number 72
_symmetry_cell_setting 'orthorhombic'
loop_
_space_group_symop_operation_xyz
x,y,z
-x,-y,z
x,-y,1/2-z
-x,y,1/2-z
-x,-y,-z
x,y,-z
-x,y,1/2+z
x,-y,1/2+z
1/2+x,1/2+y,1/2+z
1/2-x,1/2-y,1/2+z
1/2+x,1/2-y,-z
1/2-x,1/2+y,-z
1/2-x,1/2-y,1/2-z
1/2+x,1/2+y,1/2-z
1/2-x,1/2+y,z
1/2+x,1/2-y,z
loop_
_atom_site_type_symbol
_atom_site_label
_atom_site_fract_x
_atom_site_fract_y
_atom_site_fract_z
Si Si1 0.000000 0.210687 0.250000
Si Si2 0.499983 0.638010 0.937636
Si Si3 0.500000 0.000000 0.000000
Si Si4 0.821804 0.646015 0.910923
Si Si5 0.775632 0.400038 0.705600
O O1 0.885682 0.292935 0.281036
O O2 0.892263 0.135703 0.212634
O O3 0.500000 0.500000 0.921352
O O4 0.664304 0.678006 0.932734
O O5 0.403201 0.728154 0.904407
O O6 0.453094 0.643530 0.000000
O O7 0.406799 0.930504 0.953777
O O8 0.805192 0.573273 0.855975
O O9 0.804728 0.500000 0.750000
#
# Coordination Sequence:
#
# PCOD9528924 Si02
#       5
#     8  16   4  16  16
#     4  10  24  46  68 110 138 184 254 316 378 462
#     4  11  25  46  73 109 152 203 261 318 393 468
#     4  12  28  44  74 112 158 206 260 312 390 476
#     4  12  27  46  76 111 157 204 261 323 391 472
#     4  11  25  46  75 105 147 194 254 318 389 456
#
# _framework density 22.993077
#
# number of rings (size 3 to 8) (size 9 to 14) (size 15 to 20)
#    0.000    0.800    2.667    2.400    7.467    6.400 
#    0.000    0.000    0.000    0.000    0.000    0.000 
#    0.000    0.000    0.000    0.000    0.000    0.000 
#
# Total GULP energy -167334.131452 kJ/mol
# GULP energy per Si atom -5577.804382 kJ/mol
# Density = 2.294074 g / cm^3
# Si number density = 22.993077 Si / 1000 Ang^3
#
#
#
# Elastic Constant Matrix: (Units=GPa)
#
#
# Indices 1 2 3 4 5 6 
#
# 1 130.5688 74.3378 21.7331 0.0000 0.0000 0.0000
# 2 74.3378 86.9639 70.5826 0.0000 0.0000 0.0000
# 3 21.7331 70.5826 184.0217 0.0000 0.0000 0.0000
# 4 0.0000 0.0000 0.0000 32.2878 0.0000 0.0000
# 5 0.0000 0.0000 0.0000 0.0000 2.2745 0.0000
# 6 0.0000 0.0000 0.0000 0.0000 0.0000 38.6870
#
#
#
# Elastic Compliance Matrix: (Units=1/GPa)
#
#
# Indices 1 2 3 4 5 6 
#
# 1 0.018094 -0.019940 0.005511 0.000000 0.000000 0.000000
# 2 -0.019940 0.038672 -0.012478 0.000000 0.000000 0.000000
# 3 0.005511 -0.012478 0.009569 0.000000 0.000000 0.000000
# 4 0.000000 0.000000 0.000000 0.030971 0.000000 0.000000
# 5 0.000000 0.000000 0.000000 0.000000 0.439656 0.000000
# 6 0.000000 0.000000 0.000000 0.000000 0.000000 0.025848
#
#
# Mechanical properties :
#
#
# Convention : Reuss Voigt Hill
#
# Bulk Modulus (GPa) = 79.86303 81.65125 80.75714
# Shear Modulus (GPa) = 8.05415 30.30991 19.18203
#
# Velocity S-wave (km/s) = 1.87362 3.63467 2.89148
# Velocity P-wave (km/s) = 6.28407 7.29402 6.80780
#
# Compressibility (1/GPa) = 0.01252144
#
# Stress axis : x y z
#
# Youngs Moduli (GPa) = 55.26622 25.85878 104.50234
#
# Poissons Ratio (x) = 0.51563 -0.57594
# Poissons Ratio (y) = 1.10203 1.30395
# Poissons Ratio (z) = -0.30459 0.32266
#
# Static dielectric constant tensor:
#      x y z
#    x 1.820900 0.000000 0.000000 
#    y 0.000000 1.868360 0.000000 
#    z 0.000000 0.000000 1.856350 
# 
# From -- ./inp_files/46897.got.cif
#   From: 2010.05.17/outbox.cif.g08.bks.cpg/sg72_24_cif.got.tgz:46897.got - 2010.06.03 17:03:01.
