data_PCOD9528892
_publ_section_title
;
Structure prediction by ZEFSAII (Michael W. Deem and Ramdas Pophale) SiO2 
 PCOD9528892
Probable space group: I B A M
;
_chemical_formula_sum "Si O2"
_cell_formula_units_Z 72
_cell_length_a 8.252259
_cell_length_b 15.033730
_cell_length_c 27.113244
_cell_angle_alpha 90.000000
_cell_angle_beta 90.000000
_cell_angle_gamma 90.000000
_cell_volume 3363.729613
_symmetry_space_group_name_H-M "I B A M"
_symmetry_group_IT_number 72
_symmetry_cell_setting 'orthorhombic'
loop_
_space_group_symop_operation_xyz
x,y,z
-x,-y,z
x,-y,1/2-z
-x,y,1/2-z
-x,-y,-z
x,y,-z
-x,y,1/2+z
x,-y,1/2+z
1/2+x,1/2+y,1/2+z
1/2-x,1/2-y,1/2+z
1/2+x,1/2-y,-z
1/2-x,1/2+y,-z
1/2-x,1/2-y,1/2-z
1/2+x,1/2+y,1/2-z
1/2-x,1/2+y,z
1/2+x,1/2-y,z
loop_
_atom_site_type_symbol
_atom_site_label
_atom_site_fract_x
_atom_site_fract_y
_atom_site_fract_z
Si Si1 0.792667 0.187172 0.000000
Si Si2 0.500000 0.223294 0.250000
Si Si3 0.763646 0.800493 0.175596
Si Si4 0.721110 0.064301 0.602936
Si Si5 0.644146 0.135241 0.105401
Si Si6 0.838495 0.119744 0.500000
O O1 0.705598 0.155515 0.050071
O O2 0.977577 0.154248 0.000000
O O3 0.776758 0.293731 0.000000
O O4 0.404287 0.176559 0.204698
O O5 0.378608 0.285497 0.278754
O O6 0.824448 0.879266 0.141089
O O7 0.781677 0.711219 0.141463
O O8 0.551776 0.121486 0.602427
O O9 0.797631 0.065559 0.548938
O O10 0.699024 0.963812 0.619797
#
# Coordination Sequence:
#
# PCOD9528892 Si02
#       6
#     8   8  16  16  16   8
#     4  12  25  40  65 100 136 174 213 259 318 387
#     4  10  24  42  70  90 130 164 220 276 332 372
#     4  11  22  45  66  98 124 173 212 275 326 382
#     4  11  24  43  68  98 134 174 214 261 321 391
#     4  11  24  43  68  98 134 174 214 261 321 391
#     4  12  25  40  65 100 136 174 213 259 318 387
#
# _framework density 21.404813000000001
#
# number of rings (size 3 to 8) (size 9 to 14) (size 15 to 20)
#    0.000    0.889    4.444    2.667    3.111    3.556 
#    0.000    6.667    0.000    0.000    0.000    0.000 
#    0.000    0.000    0.000    0.000    0.000    0.000 
#
# Total GULP energy -200808.171435 kJ/mol
# GULP energy per Si atom -5578.004762 kJ/mol
# Density = 2.135609 g / cm^3
# Si number density = 21.404813 Si / 1000 Ang^3
#
#
#
# Elastic Constant Matrix: (Units=GPa)
#
#
# Indices 1 2 3 4 5 6 
#
# 1 25.3731 -12.7809 27.6597 0.0000 0.0000 0.0000
# 2 -12.7809 83.2342 32.4979 0.0000 0.0000 0.0000
# 3 27.6597 32.4979 148.3215 0.0000 0.0000 0.0000
# 4 0.0000 0.0000 0.0000 -13.6276 0.0000 0.0000
# 5 0.0000 0.0000 0.0000 0.0000 29.8548 0.0000
# 6 0.0000 0.0000 0.0000 0.0000 0.0000 20.6301
#
#
#
# Elastic Compliance Matrix: (Units=1/GPa)
#
#
# Indices 1 2 3 4 5 6 
#
# 1 0.064304 0.015918 -0.015479 0.000000 0.000000 0.000000
# 2 0.015918 0.017079 -0.006710 0.000000 0.000000 0.000000
# 3 -0.015479 -0.006710 0.011099 0.000000 0.000000 0.000000
# 4 0.000000 0.000000 0.000000 -0.073380 0.000000 0.000000
# 5 0.000000 0.000000 0.000000 0.000000 0.033495 0.000000
# 6 0.000000 0.000000 0.000000 0.000000 0.000000 0.048473
#
#
# Mechanical properties :
#
#
# Convention : Reuss Voigt Hill
#
# Bulk Modulus (GPa) = 12.50969 39.07580 25.79275
# Shear Modulus (GPa) = 35.64813 21.34161 28.49487
#
# Velocity S-wave (km/s) = 4.08539 3.16103 3.65257
# Velocity P-wave (km/s) = 5.30197 5.62299 5.46484
#
# Compressibility (1/GPa) = 0.07993803
#
# Stress axis : x y z
#
# Youngs Moduli (GPa) = 15.55106 58.55292 90.09754
#
# Poissons Ratio (x) = -0.93204 1.39466
# Poissons Ratio (y) = -0.24754 0.60459
# Poissons Ratio (z) = 0.24072 0.39292
#
# Static dielectric constant tensor:
#      x y z
#    x 1.952660 0.000000 0.000000 
#    y 0.000000 1.745520 0.000000 
#    z 0.000000 0.000000 1.813980 
# 
# From -- ./inp_files/44691.got.cif
#   From: 2010.05.17/outbox.cif.g08.bks.cpg/sg72_23_cif.got.tgz:44691.got - 2010.06.03 17:03:01.
