data_PCOD9528686
_publ_section_title
;
Structure prediction by ZEFSAII (Michael W. Deem and Ramdas Pophale) SiO2 
 PCOD9528686
Probable space group: I B A M
;
_chemical_formula_sum "Si O2"
_cell_formula_units_Z 116
_cell_length_a 22.869704
_cell_length_b 8.297098
_cell_length_c 27.586255
_cell_angle_alpha 90.000000
_cell_angle_beta 90.000000
_cell_angle_gamma 90.000000
_cell_volume 5234.551895
_symmetry_space_group_name_H-M "I B A M"
_symmetry_group_IT_number 72
_symmetry_cell_setting 'orthorhombic'
loop_
_space_group_symop_operation_xyz
x,y,z
-x,-y,z
x,-y,1/2-z
-x,y,1/2-z
-x,-y,-z
x,y,-z
-x,y,1/2+z
x,-y,1/2+z
1/2+x,1/2+y,1/2+z
1/2-x,1/2-y,1/2+z
1/2+x,1/2-y,-z
1/2-x,1/2+y,-z
1/2-x,1/2-y,1/2-z
1/2+x,1/2+y,1/2-z
1/2-x,1/2+y,z
1/2+x,1/2-y,z
loop_
_atom_site_type_symbol
_atom_site_label
_atom_site_fract_x
_atom_site_fract_y
_atom_site_fract_z
Si Si1 0.523055 0.327595 0.125807
Si Si2 0.428538 0.136222 0.180704
Si Si3 0.335143 0.847275 0.605607
Si Si4 0.226489 0.043898 0.368837
Si Si5 0.208048 0.770041 0.296195
Si Si6 0.566967 0.932902 0.555423
Si Si7 0.000000 0.500000 0.750000
Si Si8 0.913991 0.172373 0.727482
O O1 0.500000 0.500000 0.106454
O O2 0.467678 0.213412 0.138430
O O3 0.564449 0.222300 0.090817
O O4 0.555422 0.361579 0.176544
O O5 0.363504 0.134799 0.159923
O O6 0.446105 0.246142 0.226772
O O7 0.451393 0.971757 0.204958
O O8 0.320005 0.655907 0.602649
O O9 0.272656 0.937144 0.600862
O O10 0.383807 0.938393 0.573091
O O11 0.267927 0.163624 0.339342
O O12 0.200376 0.939649 0.324516
O O13 0.250000 0.750000 0.250000
O O14 0.144610 0.726100 0.278490
O O15 0.579956 0.888101 0.500000
O O16 0.500000 0.000000 0.555948
O O17 0.897199 0.000000 0.750000
#
# Coordination Sequence:
#
# PCOD9528686 Si02
#       8
#    16  16  16  16  16  16   4  16
#     4  12  24  41  64 100 143 183 234 291 361 435
#     4  12  23  36  57  94 138 188 233 279 342 412
#     4  11  23  46  68  97 137 177 236 299 362 435
#     4  10  23  39  61  91 129 183 237 289 353 419
#     4  11  21  35  53  85 130 187 242 283 332 398
#     4  11  25  48  77 104 134 176 230 301 386 455
#     4  12  24  32  54  88 138 188 250 276 334 424
#     4  12  22  34  55  88 136 186 229 277 333 407
#
# _framework density 22.160444999999999
#
# number of rings (size 3 to 8) (size 9 to 14) (size 15 to 20)
#    0.000    0.690    4.138    5.379    1.931    0.276 
#    0.000    0.690    0.000    0.000    0.000    0.000 
#    0.000    0.000    0.000    0.000    0.000    0.000 
#
# Total GULP energy -322977.898388 kJ/mol
# GULP energy per Si atom -5568.584455 kJ/mol
# Density = 2.211001 g / cm^3
# Si number density = 22.160445 Si / 1000 Ang^3
#
#
#
# Elastic Constant Matrix: (Units=GPa)
#
#
# Indices 1 2 3 4 5 6 
#
# 1 108.9441 18.9667 23.2528 0.0000 0.0000 0.0000
# 2 18.9667 67.4571 25.8551 0.0000 0.0000 0.0000
# 3 23.2528 25.8551 82.9481 0.0000 0.0000 0.0000
# 4 0.0000 0.0000 0.0000 32.9906 0.0000 0.0000
# 5 0.0000 0.0000 0.0000 0.0000 21.6357 0.0000
# 6 0.0000 0.0000 0.0000 0.0000 0.0000 44.0500
#
#
#
# Elastic Compliance Matrix: (Units=1/GPa)
#
#
# Indices 1 2 3 4 5 6 
#
# 1 0.009989 -0.001971 -0.002186 0.000000 0.000000 0.000000
# 2 -0.001971 0.017224 -0.004816 0.000000 0.000000 0.000000
# 3 -0.002186 -0.004816 0.014170 0.000000 0.000000 0.000000
# 4 0.000000 0.000000 0.000000 0.030312 0.000000 0.000000
# 5 0.000000 0.000000 0.000000 0.000000 0.046220 0.000000
# 6 0.000000 0.000000 0.000000 0.000000 0.000000 0.022701
#
#
# Mechanical properties :
#
#
# Convention : Reuss Voigt Hill
#
# Bulk Modulus (GPa) = 42.66781 43.94430 43.30605
# Shear Modulus (GPa) = 30.05275 32.48690 31.26983
#
# Velocity S-wave (km/s) = 3.68658 3.83297 3.76049
# Velocity P-wave (km/s) = 6.11694 6.28188 6.19996
#
# Compressibility (1/GPa) = 0.02343687
#
# Stress axis : x y z
#
# Youngs Moduli (GPa) = 100.11367 58.05722 70.57271
#
# Poissons Ratio (x) = 0.11441 0.15426
# Poissons Ratio (y) = 0.19729 0.33991
# Poissons Ratio (z) = 0.21883 0.27963
#
# Static dielectric constant tensor:
#      x y z
#    x 11.537440 0.000000 0.000000 
#    y 0.000000 1.662130 0.000000 
#    z 0.000000 0.000000 1.792380 
# 
# From -- ./inp_files/49744.got.cif
#   From: 2010.05.17/outbox.cif.g08.bks.cpg/sg72_25_cif.got.tgz:49744.got - 2010.06.03 17:03:01.
