data_PCOD9528653
_publ_section_title
;
Structure prediction by ZEFSAII (Michael W. Deem and Ramdas Pophale) SiO2 
 PCOD9528653
Probable space group: I B A M
;
_chemical_formula_sum "Si O2"
_cell_formula_units_Z 80
_cell_length_a 8.266446
_cell_length_b 18.124486
_cell_length_c 25.406056
_cell_angle_alpha 90.000000
_cell_angle_beta 90.000000
_cell_angle_gamma 90.000000
_cell_volume 3806.464495
_symmetry_space_group_name_H-M "I B A M"
_symmetry_group_IT_number 72
_symmetry_cell_setting 'orthorhombic'
loop_
_space_group_symop_operation_xyz
x,y,z
-x,-y,z
x,-y,1/2-z
-x,y,1/2-z
-x,-y,-z
x,y,-z
-x,y,1/2+z
x,-y,1/2+z
1/2+x,1/2+y,1/2+z
1/2-x,1/2-y,1/2+z
1/2+x,1/2-y,-z
1/2-x,1/2+y,-z
1/2-x,1/2-y,1/2-z
1/2+x,1/2+y,1/2-z
1/2-x,1/2+y,z
1/2+x,1/2-y,z
loop_
_atom_site_type_symbol
_atom_site_label
_atom_site_fract_x
_atom_site_fract_y
_atom_site_fract_z
Si Si1 0.178321 0.135083 0.275242
Si Si2 0.332416 0.801656 0.128577
Si Si3 0.815827 0.666260 0.669271
Si Si4 0.690833 0.499192 0.837131
Si Si5 0.653692 0.942638 0.439144
O O1 0.186716 0.173787 0.332097
O O2 0.276889 0.177337 0.230628
O O3 0.000000 0.128277 0.250000
O O4 0.252762 0.056192 0.292715
O O5 0.292164 0.714692 0.128318
O O6 0.498276 0.817104 0.158970
O O7 0.357232 0.855603 0.078381
O O8 0.770807 0.580431 0.663950
O O9 0.500000 0.500000 0.827895
O O10 0.722898 0.528965 0.895480
O O11 0.700884 0.946465 0.500000
O O12 0.500000 0.000000 0.433343
#
# Coordination Sequence:
#
# PCOD9528653 Si02
#       5
#    16  16  16  16  16
#     4  11  22  39  63  94 131 177 213 260 313 383
#     4  11  25  41  64  95 132 175 219 268 325 392
#     4  12  23  40  61  95 135 174 212 261 326 386
#     4  11  23  40  68  95 129 168 220 266 320 389
#     4  10  22  46  71  92 122 166 221 279 334 383
#
# _framework density 21.016877000000001
#
# number of rings (size 3 to 8) (size 9 to 14) (size 15 to 20)
#    0.000    1.000    4.000    3.000    2.800    0.400 
#    0.000    4.000    0.000    0.000    0.000    0.000 
#    0.000    0.000    0.000    0.000    0.000    0.000 
#
# Total GULP energy -222783.720709 kJ/mol
# GULP energy per Si atom -5569.593018 kJ/mol
# Density = 2.096904 g / cm^3
# Si number density = 21.016877 Si / 1000 Ang^3
#
#
#
# Elastic Constant Matrix: (Units=GPa)
#
#
# Indices 1 2 3 4 5 6 
#
# 1 61.8033 12.7611 10.8828 0.0000 0.0000 0.0000
# 2 12.7611 108.4386 12.1793 0.0000 0.0000 0.0000
# 3 10.8828 12.1793 94.5165 0.0000 0.0000 0.0000
# 4 0.0000 0.0000 0.0000 26.3132 0.0000 0.0000
# 5 0.0000 0.0000 0.0000 0.0000 22.6897 0.0000
# 6 0.0000 0.0000 0.0000 0.0000 0.0000 18.1121
#
#
#
# Elastic Compliance Matrix: (Units=1/GPa)
#
#
# Indices 1 2 3 4 5 6 
#
# 1 0.016851 -0.001791 -0.001709 0.000000 0.000000 0.000000
# 2 -0.001791 0.009548 -0.001024 0.000000 0.000000 0.000000
# 3 -0.001709 -0.001024 0.010909 0.000000 0.000000 0.000000
# 4 0.000000 0.000000 0.000000 0.038004 0.000000 0.000000
# 5 0.000000 0.000000 0.000000 0.000000 0.044073 0.000000
# 6 0.000000 0.000000 0.000000 0.000000 0.000000 0.055212
#
#
# Mechanical properties :
#
#
# Convention : Reuss Voigt Hill
#
# Bulk Modulus (GPa) = 35.38753 37.37831 36.38292
# Shear Modulus (GPa) = 25.89804 28.68534 27.29169
#
# Velocity S-wave (km/s) = 3.51415 3.69842 3.60746
# Velocity P-wave (km/s) = 5.77407 6.00511 5.89072
#
# Compressibility (1/GPa) = 0.02825854
#
# Stress axis : x y z
#
# Youngs Moduli (GPa) = 59.34290 104.73832 91.66780
#
# Poissons Ratio (x) = 0.18759 0.15670
# Poissons Ratio (y) = 0.10629 0.09387
# Poissons Ratio (z) = 0.10145 0.10726
#
# Static dielectric constant tensor:
#      x y z
#    x 1.764280 0.000000 0.000000 
#    y 0.000000 1.982630 0.000000 
#    z 0.000000 0.000000 1.725260 
# 
# From -- ./inp_files/47172.got.cif
#   From: 2010.05.17/outbox.cif.g08.bks.cpg/sg72_24_cif.got.tgz:47172.got - 2010.06.03 17:03:01.
