data_PCOD9528198
_publ_section_title
;
Structure prediction by ZEFSAII (Michael W. Deem and Ramdas Pophale) SiO2 
 PCOD9528198
Probable space group: I B A M
;
_chemical_formula_sum "Si O2"
_cell_formula_units_Z 52
_cell_length_a 10.483714
_cell_length_b 16.811076
_cell_length_c 14.057732
_cell_angle_alpha 90.000000
_cell_angle_beta 90.000000
_cell_angle_gamma 90.000000
_cell_volume 2477.570012
_symmetry_space_group_name_H-M "I B A M"
_symmetry_group_IT_number 72
_symmetry_cell_setting 'orthorhombic'
loop_
_space_group_symop_operation_xyz
x,y,z
-x,-y,z
x,-y,1/2-z
-x,y,1/2-z
-x,-y,-z
x,y,-z
-x,y,1/2+z
x,-y,1/2+z
1/2+x,1/2+y,1/2+z
1/2-x,1/2-y,1/2+z
1/2+x,1/2-y,-z
1/2-x,1/2+y,-z
1/2-x,1/2-y,1/2-z
1/2+x,1/2+y,1/2-z
1/2-x,1/2+y,z
1/2+x,1/2-y,z
loop_
_atom_site_type_symbol
_atom_site_label
_atom_site_fract_x
_atom_site_fract_y
_atom_site_fract_z
Si Si1 0.053485 0.587163 0.390683
Si Si2 0.308944 0.799623 0.390261
Si Si3 0.500000 0.500000 0.250000
Si Si4 0.809210 0.866309 0.290084
O O1 0.100884 0.588016 0.500000
O O2 0.168746 0.607730 0.322336
O O3 0.000000 0.500000 0.370696
O O4 0.937446 0.648657 0.384374
O O5 0.266931 0.796617 0.500000
O O6 0.204538 0.838952 0.319981
O O7 0.339817 0.712192 0.350428
O O8 0.593858 0.561153 0.196074
#
# Coordination Sequence:
#
# PCOD9528198 Si02
#       4
#    16  16   4  16
#     4  10  21  41  69  99 128 170 223 275 332 396
#     4  10  23  42  69  97 127 175 227 278 333 395
#     4  12  28  44  64 104 134 186 216 270 354 396
#     4  11  24  42  66  96 139 172 222 276 334 407
#
# _framework density 20.988306000000001
#
# number of rings (size 3 to 8) (size 9 to 14) (size 15 to 20)
#    0.000    1.538    0.000    3.692    8.615    1.231 
#    0.000    6.923    0.000    0.000    0.000    0.000 
#    0.000    0.000    0.000    0.000    0.000    0.000 
#
# Total GULP energy -145428.458021 kJ/mol
# GULP energy per Si atom -5593.402232 kJ/mol
# Density = 2.094054 g / cm^3
# Si number density = 20.988306 Si / 1000 Ang^3
#
#
#
# Elastic Constant Matrix: (Units=GPa)
#
#
# Indices 1 2 3 4 5 6 
#
# 1 34.4459 46.2601 37.3102 0.0000 0.0000 0.0000
# 2 46.2601 165.6495 59.2678 0.0000 0.0000 0.0000
# 3 37.3102 59.2678 158.3015 0.0000 0.0000 0.0000
# 4 0.0000 0.0000 0.0000 -109.4834 0.0000 0.0000
# 5 0.0000 0.0000 0.0000 0.0000 20.7463 0.0000
# 6 0.0000 0.0000 0.0000 0.0000 0.0000 0.7882
#
#
#
# Elastic Compliance Matrix: (Units=1/GPa)
#
#
# Indices 1 2 3 4 5 6 
#
# 1 0.054396 -0.012244 -0.008236 0.000000 0.000000 0.000000
# 2 -0.012244 0.009727 -0.000756 0.000000 0.000000 0.000000
# 3 -0.008236 -0.000756 0.008541 0.000000 0.000000 0.000000
# 4 0.000000 0.000000 0.000000 -0.009134 0.000000 0.000000
# 5 0.000000 0.000000 0.000000 0.000000 0.048201 0.000000
# 6 0.000000 0.000000 0.000000 0.000000 0.000000 1.268768
#
#
# Mechanical properties :
#
#
# Convention : Reuss Voigt Hill
#
# Bulk Modulus (GPa) = 33.12226 71.56369 52.34297
# Shear Modulus (GPa) = 3.48910 -3.21920 0.13495
#
# Velocity S-wave (km/s) = 1.29074 -1.23981 0.25385
# Velocity P-wave (km/s) = 4.24699 5.66758 5.00791
#
# Compressibility (1/GPa) = 0.03019118
#
# Stress axis : x y z
#
# Youngs Moduli (GPa) = 18.38381 102.81121 117.07824
#
# Poissons Ratio (x) = 1.25881 0.96431
# Poissons Ratio (y) = 0.22509 0.08849
# Poissons Ratio (z) = 0.15142 0.07771
#
# Static dielectric constant tensor:
#      x y z
#    x 1.768200 0.000000 0.000000 
#    y 0.000000 1.737320 0.000000 
#    z 0.000000 0.000000 1.791740 
# 
# From -- ./inp_files/19550.got.cif
#   From: 2010.05.17/outbox.cif.g08.bks.cpg/sg72_10_cif.got.tgz:19550.got - 2010.06.03 17:03:01.
