data_PCOD9528299
_publ_section_title
;
Structure prediction by ZEFSAII (Michael W. Deem and Ramdas Pophale) SiO2 
 PCOD9528299
Probable space group: I B A M
;
_chemical_formula_sum "Si O2"
_cell_formula_units_Z 88
_cell_length_a 26.424216
_cell_length_b 12.220304
_cell_length_c 15.465062
_cell_angle_alpha 90.000000
_cell_angle_beta 90.000000
_cell_angle_gamma 90.000000
_cell_volume 4993.853366
_symmetry_space_group_name_H-M "I B A M"
_symmetry_group_IT_number 72
_symmetry_cell_setting 'orthorhombic'
loop_
_space_group_symop_operation_xyz
x,y,z
-x,-y,z
x,-y,1/2-z
-x,y,1/2-z
-x,-y,-z
x,y,-z
-x,y,1/2+z
x,-y,1/2+z
1/2+x,1/2+y,1/2+z
1/2-x,1/2-y,1/2+z
1/2+x,1/2-y,-z
1/2-x,1/2+y,-z
1/2-x,1/2-y,1/2-z
1/2+x,1/2+y,1/2-z
1/2-x,1/2+y,z
1/2+x,1/2-y,z
loop_
_atom_site_type_symbol
_atom_site_label
_atom_site_fract_x
_atom_site_fract_y
_atom_site_fract_z
Si Si1 0.609222 0.216792 0.150655
Si Si2 0.890778 0.283208 0.849345
Si Si3 0.857397 0.123657 0.000000
Si Si4 1.000000 0.627657 0.604347
Si Si5 0.642603 0.623657 0.500000
Si Si6 0.241781 1.000000 0.000000
Si Si7 0.176020 0.500000 0.148657
O O1 0.617960 0.249128 0.250000
O O2 0.550737 0.184691 0.137613
O O3 0.625471 0.309254 0.083538
O O4 0.641863 0.107261 0.132858
O O5 0.874529 0.190746 0.916462
O O6 0.949263 0.315309 0.862387
O O7 0.858137 0.392739 0.867142
O O8 0.878943 1.000000 0.000000
O O9 0.796901 0.102543 0.000000
O O10 0.000000 0.631703 0.500000
O O11 0.000000 0.500000 0.630762
O O12 0.703099 0.602543 0.500000
O O13 0.277042 1.000000 0.916062
O O14 0.190817 0.500000 0.250000
#
# Coordination Sequence:
#
# PCOD9528299 Si02
#       7
#    16  16   8  16   8   8  16
#     4  11  22  39  64  94 128 156 193 248 308 368
#     4  11  22  39  64  94 128 156 193 248 308 368
#     4  10  25  44  58  82 119 172 214 252 285 346
#     4  11  21  35  65 101 129 156 185 236 316 383
#     4  10  25  44  58  82 119 172 214 252 285 346
#     4  10  24  42  62  78 124 166 210 258 296 340
#     4  10  22  37  63  99 123 148 197 254 316 374
#
# _framework density 17.621662000000001
#
# number of rings (size 3 to 8) (size 9 to 14) (size 15 to 20)
#    0.545    0.909    3.636    1.636    0.000    5.818 
#    0.000    5.455    0.000    2.182    0.000    0.000 
#    0.000    0.000    0.000    0.000    0.000    0.000 
#
# Total GULP energy -245691.021415 kJ/mol
# GULP energy per Si atom -5583.886850 kJ/mol
# Density = 1.758155 g / cm^3
# Si number density = 17.621662 Si / 1000 Ang^3
#
#
#
# Elastic Constant Matrix: (Units=GPa)
#
#
# Indices 1 2 3 4 5 6 
#
# 1 148.0941 65.9145 72.4552 0.0000 0.0000 0.0000
# 2 65.9145 141.8557 104.3931 0.0000 0.0000 0.0000
# 3 72.4552 104.3931 134.8948 0.0000 0.0000 0.0000
# 4 0.0000 0.0000 0.0000 18.7973 0.0000 0.0000
# 5 0.0000 0.0000 0.0000 0.0000 314.7705 0.0000
# 6 0.0000 0.0000 0.0000 0.0000 0.0000 24.6501
#
#
#
# Elastic Compliance Matrix: (Units=1/GPa)
#
#
# Indices 1 2 3 4 5 6 
#
# 1 0.009295 -0.001498 -0.003833 0.000000 0.000000 0.000000
# 2 -0.001498 0.016617 -0.012055 0.000000 0.000000 0.000000
# 3 -0.003833 -0.012055 0.018801 0.000000 0.000000 0.000000
# 4 0.000000 0.000000 0.000000 0.053199 0.000000 0.000000
# 5 0.000000 0.000000 0.000000 0.000000 0.003177 0.000000
# 6 0.000000 0.000000 0.000000 0.000000 0.000000 0.040568
#
#
# Mechanical properties :
#
#
# Convention : Reuss Voigt Hill
#
# Bulk Modulus (GPa) = 100.59777 101.15225 100.87501
# Shear Modulus (GPa) = 27.81772 83.78236 55.80004
#
# Velocity S-wave (km/s) = 3.97748 6.90278 5.63332
# Velocity P-wave (km/s) = 8.84903 11.00263 9.98407
#
# Compressibility (1/GPa) = 0.00994058
#
# Stress axis : x y z
#
# Youngs Moduli (GPa) = 107.59030 60.18010 53.18852
#
# Poissons Ratio (x) = 0.09015 0.20387
# Poissons Ratio (y) = 0.16117 0.64118
# Poissons Ratio (z) = 0.41239 0.72546
#
# Static dielectric constant tensor:
#      x y z
#    x 1.576100 0.000000 0.000000 
#    y 0.000000 1.576310 0.000000 
#    z 0.000000 0.000000 1.595660 
# 
# From -- ./inp_files/25855.got.cif
#   From: 2010.05.17/outbox.cif.g08.bks.cpg/sg72_13_cif.got.tgz:25855.got - 2010.06.03 17:03:01.
