data_PCOD9528309
_publ_section_title
;
Structure prediction by ZEFSAII (Michael W. Deem and Ramdas Pophale) SiO2 
 PCOD9528309
Probable space group: I B A M
;
_chemical_formula_sum "Si O2"
_cell_formula_units_Z 112
_cell_length_a 27.200581
_cell_length_b 16.457153
_cell_length_c 11.096631
_cell_angle_alpha 90.000000
_cell_angle_beta 90.000000
_cell_angle_gamma 90.000000
_cell_volume 4967.341655
_symmetry_space_group_name_H-M "I B A M"
_symmetry_group_IT_number 72
_symmetry_cell_setting 'orthorhombic'
loop_
_space_group_symop_operation_xyz
x,y,z
-x,-y,z
x,-y,1/2-z
-x,y,1/2-z
-x,-y,-z
x,y,-z
-x,y,1/2+z
x,-y,1/2+z
1/2+x,1/2+y,1/2+z
1/2-x,1/2-y,1/2+z
1/2+x,1/2-y,-z
1/2-x,1/2+y,-z
1/2-x,1/2-y,1/2-z
1/2+x,1/2+y,1/2-z
1/2-x,1/2+y,z
1/2+x,1/2-y,z
loop_
_atom_site_type_symbol
_atom_site_label
_atom_site_fract_x
_atom_site_fract_y
_atom_site_fract_z
Si Si1 0.626389 0.560911 0.137623
Si Si2 0.314165 0.783416 0.626421
Si Si3 0.864553 0.455962 0.872982
Si Si4 0.964116 0.818445 0.637265
Si Si5 0.203852 0.729478 0.372179
Si Si6 0.258740 0.557610 0.364884
Si Si7 0.469786 0.125473 0.131600
O O1 0.618218 0.500000 0.250000
O O2 0.586547 0.632369 0.148752
O O3 0.684143 0.584493 0.144265
O O4 0.620004 0.526616 0.000000
O O5 0.330467 0.744310 0.500000
O O6 0.332704 0.874702 0.622989
O O7 0.254712 0.780072 0.628219
O O8 0.328411 0.750455 0.756885
O O9 0.853954 0.500000 0.750000
O O10 0.920565 0.426497 0.869087
O O11 0.857152 0.501901 0.000000
O O12 0.983514 0.835686 0.500000
O O13 0.956124 0.721023 0.641187
O O14 0.000000 0.838632 0.750000
O O15 0.178701 0.741389 0.500000
O O16 0.224066 0.636894 0.363372
O O17 0.250469 0.500000 0.250000
O O18 0.253648 0.519764 0.500000
O O19 0.500000 0.104210 0.250000
O O20 0.494744 0.114060 0.000000
#
# Coordination Sequence:
#
# PCOD9528309 Si02
#       7
#    16  16  16  16  16  16  16
#     4   9  18  31  47  69  98 132 168 208 250 297
#     4   9  19  35  54  77 104 134 171 212 254 303
#     4  10  22  38  57  81 108 140 175 214 262 317
#     4   9  18  32  51  73  97 128 168 210 253 302
#     4   9  18  33  54  77 102 135 174 213 253 298
#     4   9  18  31  48  71  98 130 167 205 245 291
#     4   9  19  36  57  80 105 135 174 217 262 313
#
# _framework density 22.547270999999999
#
# number of rings (size 3 to 8) (size 9 to 14) (size 15 to 20)
#    0.000    2.857    0.000    0.000    2.000    3.429 
#    0.000    5.714    0.000    0.000    0.000    0.000 
#    0.000    0.000    0.000    0.000    0.000    0.000 
#
# Total GULP energy -312565.351407 kJ/mol
# GULP energy per Si atom -5581.524132 kJ/mol
# Density = 2.249595 g / cm^3
# Si number density = 22.547271 Si / 1000 Ang^3
#
#
#
# Elastic Constant Matrix: (Units=GPa)
#
#
# Indices 1 2 3 4 5 6 
#
# 1 81.7334 25.9416 59.0454 0.0000 0.0000 0.0000
# 2 25.9416 49.4512 61.1468 0.0000 0.0000 0.0000
# 3 59.0454 61.1468 281.6965 0.0000 0.0000 0.0000
# 4 0.0000 0.0000 0.0000 -330.3668 0.0000 0.0000
# 5 0.0000 0.0000 0.0000 0.0000 -25.4958 0.0000
# 6 0.0000 0.0000 0.0000 0.0000 0.0000 27.5723
#
#
#
# Elastic Compliance Matrix: (Units=1/GPa)
#
#
# Indices 1 2 3 4 5 6 
#
# 1 0.015481 -0.005616 -0.002026 0.000000 0.000000 0.000000
# 2 -0.005616 0.029678 -0.005265 0.000000 0.000000 0.000000
# 3 -0.002026 -0.005265 0.005117 0.000000 0.000000 0.000000
# 4 0.000000 0.000000 0.000000 -0.003027 0.000000 0.000000
# 5 0.000000 0.000000 0.000000 0.000000 -0.039222 0.000000
# 6 0.000000 0.000000 0.000000 0.000000 0.000000 0.036268
#
#
# Mechanical properties :
#
#
# Convention : Reuss Voigt Hill
#
# Bulk Modulus (GPa) = 40.87860 78.34985 59.61423
# Shear Modulus (GPa) = 63.88632 -47.87491 8.00571
#
# Velocity S-wave (km/s) = 5.32878 -4.61294 1.88636
# Velocity P-wave (km/s) = 7.48537 2.54014 5.58941
#
# Compressibility (1/GPa) = 0.02446268
#
# Stress axis : x y z
#
# Youngs Moduli (GPa) = 64.59572 33.69465 195.41204
#
# Poissons Ratio (x) = 0.18924 0.39587
# Poissons Ratio (y) = 0.36278 1.02884
# Poissons Ratio (z) = 0.13086 0.17740
#
# Static dielectric constant tensor:
#      x y z
#    x 1.792340 0.000000 0.000000 
#    y 0.000000 1.833470 0.000000 
#    z 0.000000 0.000000 1.938700 
# 
# From -- ./inp_files/16893.got.cif
#   From: 2010.05.17/outbox.cif.g08.bks.cpg/sg72_9_cif.got.tgz:16893.got - 2010.06.03 17:03:01.
