data_PCOD9528556
_publ_section_title
;
Structure prediction by ZEFSAII (Michael W. Deem and Ramdas Pophale) SiO2 
 PCOD9528556
Probable space group: I B A M
;
_chemical_formula_sum "Si O2"
_cell_formula_units_Z 60
_cell_length_a 26.779202
_cell_length_b 10.906675
_cell_length_c 9.799270
_cell_angle_alpha 90.000000
_cell_angle_beta 90.000000
_cell_angle_gamma 90.000000
_cell_volume 2862.092907
_symmetry_space_group_name_H-M "I B A M"
_symmetry_group_IT_number 72
_symmetry_cell_setting 'orthorhombic'
loop_
_space_group_symop_operation_xyz
x,y,z
-x,-y,z
x,-y,1/2-z
-x,y,1/2-z
-x,-y,-z
x,y,-z
-x,y,1/2+z
x,-y,1/2+z
1/2+x,1/2+y,1/2+z
1/2-x,1/2-y,1/2+z
1/2+x,1/2-y,-z
1/2-x,1/2+y,-z
1/2-x,1/2-y,1/2-z
1/2+x,1/2+y,1/2-z
1/2-x,1/2+y,z
1/2+x,1/2-y,z
loop_
_atom_site_type_symbol
_atom_site_label
_atom_site_fract_x
_atom_site_fract_y
_atom_site_fract_z
Si Si1 0.268849 0.608043 0.000000
Si Si2 0.601385 0.114363 0.846967
Si Si3 0.168741 0.000000 0.250000
Si Si4 0.300472 0.875679 0.000000
Si Si5 0.000000 0.000000 0.750000
Si Si6 0.917219 0.826140 0.351436
O O1 0.299161 0.571143 0.863282
O O2 0.264051 0.756982 0.000000
O O3 0.223440 0.510639 0.000000
O O4 0.660963 0.133652 0.872985
O O5 0.579743 0.231577 0.771900
O O6 0.593317 0.000000 0.750000
O O7 0.580996 0.097563 0.000000
O O8 0.132519 0.094050 0.328243
O O9 0.036184 0.916566 0.840075
O O10 0.915240 0.765503 0.500000
#
# Coordination Sequence:
#
# PCOD9528556 Si02
#       6
#     8  16   8   8   4  16
#     4  12  24  42  60  94 131 183 234 302 339 409
#     4  10  22  42  66  95 134 183 227 283 344 414
#     4  11  22  39  64  90 128 180 226 285 350 403
#     4  10  26  40  66  94 140 179 247 293 347 406
#     4  10  26  40  74 110 138 164 224 292 338 438
#     4  11  22  42  69 101 135 176 224 278 357 416
#
# _framework density 20.963678999999999
#
# number of rings (size 3 to 8) (size 9 to 14) (size 15 to 20)
#    0.800    0.533    4.000    1.200    1.867    5.333 
#    0.000    0.667    0.000    3.200    0.000    0.000 
#    0.000    0.000    0.000    0.000    0.000    0.000 
#
# Total GULP energy -167428.411586 kJ/mol
# GULP energy per Si atom -5580.947053 kJ/mol
# Density = 2.091596 g / cm^3
# Si number density = 20.963679 Si / 1000 Ang^3
#
#
#
# Elastic Constant Matrix: (Units=GPa)
#
#
# Indices 1 2 3 4 5 6 
#
# 1 41.2506 1.7459 15.1497 0.0000 0.0000 0.0000
# 2 1.7459 90.6039 37.7951 0.0000 0.0000 0.0000
# 3 15.1497 37.7951 151.3180 0.0000 0.0000 0.0000
# 4 0.0000 0.0000 0.0000 35.0690 0.0000 0.0000
# 5 0.0000 0.0000 0.0000 0.0000 -4.8094 0.0000
# 6 0.0000 0.0000 0.0000 0.0000 0.0000 14.1103
#
#
#
# Elastic Compliance Matrix: (Units=1/GPa)
#
#
# Indices 1 2 3 4 5 6 
#
# 1 0.025200 0.000633 -0.002681 0.000000 0.000000 0.000000
# 2 0.000633 0.012337 -0.003145 0.000000 0.000000 0.000000
# 3 -0.002681 -0.003145 0.007662 0.000000 0.000000 0.000000
# 4 0.000000 0.000000 0.000000 0.028515 0.000000 0.000000
# 5 0.000000 0.000000 0.000000 0.000000 -0.207925 0.000000
# 6 0.000000 0.000000 0.000000 0.000000 0.000000 0.070870
#
#
# Mechanical properties :
#
#
# Convention : Reuss Voigt Hill
#
# Bulk Modulus (GPa) = 28.72475 43.61710 36.17092
# Shear Modulus (GPa) = -120.91762 24.10610 -48.40576
#
# Velocity S-wave (km/s) = -7.60295 3.39469 -4.81045
# Velocity P-wave (km/s) = 7.95872 6.01801 3.68271
#
# Compressibility (1/GPa) = 0.03481319
#
# Stress axis : x y z
#
# Youngs Moduli (GPa) = 39.68261 81.05914 130.50591
#
# Poissons Ratio (x) = -0.05129 0.34989
# Poissons Ratio (y) = -0.02511 0.41040
# Poissons Ratio (z) = 0.10639 0.25491
#
# Static dielectric constant tensor:
#      x y z
#    x 1.753970 0.000000 0.000000 
#    y 0.000000 1.747450 0.000000 
#    z 0.000000 0.000000 1.742910 
# 
# From -- ./inp_files/7723.got.cif
#   From: 2010.05.17/outbox.cif.g08.bks.cpg/sg72_4_cif.got.tgz:7723.got - 2010.06.03 17:03:01.
