data_PCOD9528825
_publ_section_title
;
Structure prediction by ZEFSAII (Michael W. Deem and Ramdas Pophale) SiO2 
 PCOD9528825
Probable space group: I B A M
;
_chemical_formula_sum "Si O2"
_cell_formula_units_Z 64
_cell_length_a 5.135887
_cell_length_b 28.033774
_cell_length_c 19.438409
_cell_angle_alpha 90.000000
_cell_angle_beta 90.000000
_cell_angle_gamma 90.000000
_cell_volume 2798.708994
_symmetry_space_group_name_H-M "I B A M"
_symmetry_group_IT_number 72
_symmetry_cell_setting 'orthorhombic'
loop_
_space_group_symop_operation_xyz
x,y,z
-x,-y,z
x,-y,1/2-z
-x,y,1/2-z
-x,-y,-z
x,y,-z
-x,y,1/2+z
x,-y,1/2+z
1/2+x,1/2+y,1/2+z
1/2-x,1/2-y,1/2+z
1/2+x,1/2-y,-z
1/2-x,1/2+y,-z
1/2-x,1/2-y,1/2-z
1/2+x,1/2+y,1/2-z
1/2-x,1/2+y,z
1/2+x,1/2-y,z
loop_
_atom_site_type_symbol
_atom_site_label
_atom_site_fract_x
_atom_site_fract_y
_atom_site_fract_z
Si Si1 0.000000 0.714698 0.250000
Si Si2 0.340840 0.778048 0.000000
Si Si3 0.254803 0.552838 0.217816
Si Si4 0.397521 0.849172 0.883711
Si Si5 0.101295 0.909359 0.419582
O O1 0.750000 0.750000 0.250000
O O2 0.964330 0.679172 0.185441
O O3 0.283116 0.809242 0.933928
O O4 0.643985 0.765494 0.000000
O O5 0.253396 0.500000 0.250000
O O6 0.500000 0.579331 0.250000
O O7 0.292387 0.552017 0.136153
O O8 0.000000 0.576145 0.250000
O O9 0.669345 0.870130 0.912638
O O10 0.175074 0.890034 0.890615
O O11 0.075784 0.923157 0.500000
#
# Coordination Sequence:
#
# PCOD9528825 Si02
#       5
#     8   8  16  16  16
#     4  12  26  46  64  96 139 182 233 292 348 404
#     4  12  22  40  64  92 138 184 226 288 340 408
#     4  10  23  44  70 103 136 178 224 274 350 428
#     4  12  25  42  67 102 134 180 240 282 348 413
#     4  12  24  44  68 104 140 177 231 295 347 411
#
# _framework density 22.867688000000001
#
# number of rings (size 3 to 8) (size 9 to 14) (size 15 to 20)
#    0.000    0.500    2.500    6.000    5.250    0.000 
#    0.000    5.000    0.000    0.000    0.000    0.000 
#    0.000    0.000    0.000    0.000    0.000    0.000 
#
# Total GULP energy -178627.471487 kJ/mol
# GULP energy per Si atom -5582.108484 kJ/mol
# Density = 2.281564 g / cm^3
# Si number density = 22.867688 Si / 1000 Ang^3
#
#
#
# Elastic Constant Matrix: (Units=GPa)
#
#
# Indices 1 2 3 4 5 6 
#
# 1 174.7534 7.5630 30.9994 0.0000 0.0000 0.0000
# 2 7.5630 66.3573 51.5271 0.0000 0.0000 0.0000
# 3 30.9994 51.5271 232.1133 0.0000 0.0000 0.0000
# 4 0.0000 0.0000 0.0000 42.7567 0.0000 0.0000
# 5 0.0000 0.0000 0.0000 0.0000 36.4299 0.0000
# 6 0.0000 0.0000 0.0000 0.0000 0.0000 18.0952
#
#
#
# Elastic Compliance Matrix: (Units=1/GPa)
#
#
# Indices 1 2 3 4 5 6 
#
# 1 0.005861 -0.000073 -0.000767 0.000000 0.000000 0.000000
# 2 -0.000073 0.018210 -0.004033 0.000000 0.000000 0.000000
# 3 -0.000767 -0.004033 0.005306 0.000000 0.000000 0.000000
# 4 0.000000 0.000000 0.000000 0.023388 0.000000 0.000000
# 5 0.000000 0.000000 0.000000 0.000000 0.027450 0.000000
# 6 0.000000 0.000000 0.000000 0.000000 0.000000 0.055263
#
#
# Mechanical properties :
#
#
# Convention : Reuss Voigt Hill
#
# Bulk Modulus (GPa) = 50.93505 72.60032 61.76769
# Shear Modulus (GPa) = 32.94529 44.99865 38.97197
#
# Velocity S-wave (km/s) = 3.79976 4.44078 4.13272
# Velocity P-wave (km/s) = 6.44772 7.62306 7.05989
#
# Compressibility (1/GPa) = 0.01963285
#
# Stress axis : x y z
#
# Youngs Moduli (GPa) = 170.60488 54.91599 188.47125
#
# Poissons Ratio (x) = 0.00399 0.14450
# Poissons Ratio (y) = 0.01241 0.76004
# Poissons Ratio (z) = 0.13080 0.22146
#
# Static dielectric constant tensor:
#      x y z
#    x 1.997860 0.000000 0.000000 
#    y 0.000000 1.700590 0.000000 
#    z 0.000000 0.000000 1.870200 
# 
# From -- ./inp_files/27045.got.cif
#   From: 2010.05.17/outbox.cif.g08.bks.cpg/sg72_14_cif.got.tgz:27045.got - 2010.06.03 17:03:01.
