data_PCOD9528590
_publ_section_title
;
Structure prediction by ZEFSAII (Michael W. Deem and Ramdas Pophale) SiO2 
 PCOD9528590
Probable space group: I B A M
;
_chemical_formula_sum "Si O2"
_cell_formula_units_Z 56
_cell_length_a 9.894959
_cell_length_b 15.907545
_cell_length_c 13.657175
_cell_angle_alpha 90.000000
_cell_angle_beta 90.000000
_cell_angle_gamma 90.000000
_cell_volume 2149.700878
_symmetry_space_group_name_H-M "I B A M"
_symmetry_group_IT_number 72
_symmetry_cell_setting 'orthorhombic'
loop_
_space_group_symop_operation_xyz
x,y,z
-x,-y,z
x,-y,1/2-z
-x,y,1/2-z
-x,-y,-z
x,y,-z
-x,y,1/2+z
x,-y,1/2+z
1/2+x,1/2+y,1/2+z
1/2-x,1/2-y,1/2+z
1/2+x,1/2-y,-z
1/2-x,1/2+y,-z
1/2-x,1/2-y,1/2-z
1/2+x,1/2+y,1/2-z
1/2-x,1/2+y,z
1/2+x,1/2-y,z
loop_
_atom_site_type_symbol
_atom_site_label
_atom_site_fract_x
_atom_site_fract_y
_atom_site_fract_z
Si Si1 0.306551 0.049495 0.116418
Si Si2 0.021691 0.902072 0.385104
Si Si3 0.605171 0.871974 0.383283
Si Si4 0.000000 0.765029 0.250000
O O1 0.179898 0.106580 0.141928
O O2 0.450337 0.093718 0.126208
O O3 0.310864 0.953167 0.153716
O O4 0.289404 0.035132 0.000000
O O5 0.998981 0.891982 0.500000
O O6 0.940903 0.830168 0.329745
O O7 0.000000 0.000000 0.361466
O O8 0.629368 0.854309 0.500000
O O9 0.602032 0.792942 0.311943
#
# Coordination Sequence:
#
# PCOD9528590 Si02
#       4
#    16  16  16   8
#     4   8  17  39  66  85 116 165 205 243 299 371
#     4  10  22  43  62  82 121 168 206 244 304 374
#     4   9  19  39  64  92 121 155 203 254 307 359
#     4  12  23  37  58 100 124 154 198 263 311 358
#
# _framework density 26.050134
#
# number of rings (size 3 to 8) (size 9 to 14) (size 15 to 20)
#    0.000    2.571    0.000    3.000    0.000    3.429 
#   15.429    0.000    0.000    0.000    0.000    0.000 
#    0.000    0.000    0.000    0.000    0.000    0.000 
#
# Total GULP energy -156553.875896 kJ/mol
# GULP energy per Si atom -5591.209853 kJ/mol
# Density = 2.599084 g / cm^3
# Si number density = 26.050134 Si / 1000 Ang^3
#
#
#
# Elastic Constant Matrix: (Units=GPa)
#
#
# Indices 1 2 3 4 5 6 
#
# 1 59.2664 30.6860 12.9338 0.0000 0.0000 0.0000
# 2 30.6860 185.5691 96.9360 0.0000 0.0000 0.0000
# 3 12.9338 96.9360 166.1360 -0.0001 0.0000 0.0000
# 4 0.0000 0.0000 -0.0001 97.5889 0.0000 0.0000
# 5 0.0000 0.0000 0.0000 0.0000 21.2324 0.0000
# 6 0.0000 0.0000 0.0000 0.0000 0.0000 -31.8026
#
#
#
# Elastic Compliance Matrix: (Units=1/GPa)
#
#
# Indices 1 2 3 4 5 6 
#
# 1 0.018481 -0.003315 0.000495 0.000000 0.000000 0.000000
# 2 -0.003315 0.008346 -0.004612 0.000000 0.000000 0.000000
# 3 0.000495 -0.004612 0.008671 0.000000 0.000000 0.000000
# 4 0.000000 0.000000 0.000000 0.010247 0.000000 0.000000
# 5 0.000000 0.000000 0.000000 0.000000 0.047098 0.000000
# 6 0.000000 0.000000 0.000000 0.000000 0.000000 -0.031444
#
#
# Mechanical properties :
#
#
# Convention : Reuss Voigt Hill
#
# Bulk Modulus (GPa) = 48.45825 76.89812 62.67819
# Shear Modulus (GPa) = 60.13939 35.43147 47.78543
#
# Velocity S-wave (km/s) = 4.81000 3.69199 4.28759
# Velocity P-wave (km/s) = 7.03495 6.91070 6.97310
#
# Compressibility (1/GPa) = 0.02063632
#
# Stress axis : x y z
#
# Youngs Moduli (GPa) = 54.10915 119.81901 115.32260
#
# Poissons Ratio (x) = 0.39718 -0.05712
# Poissons Ratio (y) = 0.17936 0.53182
# Poissons Ratio (z) = -0.02680 0.55255
#
# Static dielectric constant tensor:
#      x y z
#    x 2.092340 0.000000 0.000000 
#    y 0.000000 2.054570 0.000000 
#    z 0.000000 0.000000 2.101600 
# 
# From -- ./inp_files/19420.got.cif
#   From: 2010.05.17/outbox.cif.g08.bks.cpg/sg72_10_cif.got.tgz:19420.got - 2010.06.03 17:03:01.
