data_PCOD9528743
_publ_section_title
;
Structure prediction by ZEFSAII (Michael W. Deem and Ramdas Pophale) SiO2 
 PCOD9528743
Probable space group: I B A M
;
_chemical_formula_sum "Si O2"
_cell_formula_units_Z 96
_cell_length_a 14.373927
_cell_length_b 20.529325
_cell_length_c 15.255712
_cell_angle_alpha 90.000000
_cell_angle_beta 90.000000
_cell_angle_gamma 90.000000
_cell_volume 4501.762575
_symmetry_space_group_name_H-M "I B A M"
_symmetry_group_IT_number 72
_symmetry_cell_setting 'orthorhombic'
loop_
_space_group_symop_operation_xyz
x,y,z
-x,-y,z
x,-y,1/2-z
-x,y,1/2-z
-x,-y,-z
x,y,-z
-x,y,1/2+z
x,-y,1/2+z
1/2+x,1/2+y,1/2+z
1/2-x,1/2-y,1/2+z
1/2+x,1/2-y,-z
1/2-x,1/2+y,-z
1/2-x,1/2-y,1/2-z
1/2+x,1/2+y,1/2-z
1/2-x,1/2+y,z
1/2+x,1/2-y,z
loop_
_atom_site_type_symbol
_atom_site_label
_atom_site_fract_x
_atom_site_fract_y
_atom_site_fract_z
Si Si1 0.277896 0.752991 0.646253
Si Si2 0.489575 0.283518 0.855133
Si Si3 0.127800 0.666289 0.593832
Si Si4 0.962345 0.930079 0.850092
Si Si5 0.243428 0.104337 0.100822
Si Si6 0.110891 0.572564 0.756694
O O1 0.250000 0.750000 0.750000
O O2 0.386978 0.745411 0.631463
O O3 0.230691 0.694356 0.595919
O O4 0.232810 0.818123 0.608047
O O5 0.500000 0.286432 0.750000
O O6 0.560537 0.228328 0.889195
O O7 0.504972 0.358554 0.887249
O O8 0.103101 0.636427 0.500000
O O9 0.131184 0.617577 0.674491
O O10 0.849586 0.927543 0.857532
O O11 0.000000 0.929494 0.750000
O O12 0.000000 0.000000 0.886961
O O13 0.338803 0.096182 0.155560
O O14 0.251686 0.083665 0.000000
O O15 0.148227 0.500000 0.750000
O O16 0.000000 0.570452 0.750000
#
# Coordination Sequence:
#
# PCOD9528743 Si02
#       6
#    16  16  16  16  16  16
#     4  12  21  39  69 100 137 181 232 288 359 425
#     4  11  21  39  67  99 135 183 235 294 357 421
#     4  12  25  42  67 101 136 177 235 296 354 428
#     4  10  23  41  69 104 145 193 238 293 359 431
#     4  12  25  45  73 106 143 189 241 296 364 437
#     4  11  27  48  72  99 135 185 238 299 368 435
#
# _framework density 21.324981000000001
#
# number of rings (size 3 to 8) (size 9 to 14) (size 15 to 20)
#    0.000    0.667    5.000    3.000    2.333    4.333 
#    0.000    1.667    0.000    0.000    0.000    0.000 
#    0.000    0.000    0.000    0.000    0.000    0.000 
#
# Total GULP energy -267693.108937 kJ/mol
# GULP energy per Si atom -5576.939770 kJ/mol
# Density = 2.127644 g / cm^3
# Si number density = 21.324981 Si / 1000 Ang^3
#
#
#
# Elastic Constant Matrix: (Units=GPa)
#
#
# Indices 1 2 3 4 5 6 
#
# 1 134.1503 32.6885 36.9649 0.0000 0.0000 0.0000
# 2 32.6885 118.3153 29.4521 -0.0001 0.0000 -0.0001
# 3 36.9649 29.4521 131.8191 -0.0002 -0.0001 -0.0003
# 4 0.0000 -0.0001 -0.0002 -11.2204 -0.0001 -0.0002
# 5 0.0000 0.0000 -0.0001 -0.0001 9.4494 0.0001
# 6 0.0000 -0.0001 -0.0003 -0.0002 0.0001 53.0567
#
#
#
# Elastic Compliance Matrix: (Units=1/GPa)
#
#
# Indices 1 2 3 4 5 6 
#
# 1 0.008443 -0.001846 -0.001955 0.000000 0.000000 0.000000
# 2 -0.001846 0.009353 -0.001572 0.000000 0.000000 0.000000
# 3 -0.001955 -0.001572 0.008486 0.000000 0.000000 0.000000
# 4 0.000000 0.000000 0.000000 -0.089123 0.000000 0.000000
# 5 0.000000 0.000000 0.000000 0.000000 0.105826 0.000000
# 6 0.000000 0.000000 0.000000 0.000000 0.000000 0.018848
#
#
# Mechanical properties :
#
#
# Convention : Reuss Voigt Hill
#
# Bulk Modulus (GPa) = 64.36892 64.72174 64.54533
# Shear Modulus (GPa) = 64.30258 29.26909 46.78584
#
# Velocity S-wave (km/s) = 5.49719 3.70878 4.68904
# Velocity P-wave (km/s) = 8.39895 6.98256 7.72330
#
# Compressibility (1/GPa) = 0.01553545
#
# Stress axis : x y z
#
# Youngs Moduli (GPa) = 118.44334 106.91358 117.84557
#
# Poissons Ratio (x) = 0.19735 0.23040
# Poissons Ratio (y) = 0.21864 0.18527
# Poissons Ratio (z) = 0.23157 0.16809
#
# Static dielectric constant tensor:
#      x y z
#    x 1.722330 0.000000 0.000000 
#    y 0.000000 2.111470 0.000000 
#    z 0.000000 0.000000 1.852380 
# 
# From -- ./inp_files/21804.got.cif
#   From: 2010.05.17/outbox.cif.g08.bks.cpg/sg72_11_cif.got.tgz:21804.got - 2010.06.03 17:03:01.
