data_PCOD9528756
_publ_section_title
;
Structure prediction by ZEFSAII (Michael W. Deem and Ramdas Pophale) SiO2 
 PCOD9528756
Probable space group: I B A M
;
_chemical_formula_sum "Si O2"
_cell_formula_units_Z 56
_cell_length_a 23.810471
_cell_length_b 5.087857
_cell_length_c 21.180422
_cell_angle_alpha 90.000000
_cell_angle_beta 90.000000
_cell_angle_gamma 90.000000
_cell_volume 2565.886794
_symmetry_space_group_name_H-M "I B A M"
_symmetry_group_IT_number 72
_symmetry_cell_setting 'orthorhombic'
loop_
_space_group_symop_operation_xyz
x,y,z
-x,-y,z
x,-y,1/2-z
-x,y,1/2-z
-x,-y,-z
x,y,-z
-x,y,1/2+z
x,-y,1/2+z
1/2+x,1/2+y,1/2+z
1/2-x,1/2-y,1/2+z
1/2+x,1/2-y,-z
1/2-x,1/2+y,-z
1/2-x,1/2-y,1/2-z
1/2+x,1/2+y,1/2-z
1/2-x,1/2+y,z
1/2+x,1/2-y,z
loop_
_atom_site_type_symbol
_atom_site_label
_atom_site_fract_x
_atom_site_fract_y
_atom_site_fract_z
Si Si1 0.400373 0.376670 0.073290
Si Si2 0.211380 0.215310 0.347705
Si Si3 0.854732 0.500000 0.250000
Si Si4 0.441485 0.883037 0.139464
O O1 0.338854 0.355438 0.104675
O O2 0.436695 0.592403 0.111229
O O3 0.426355 0.089644 0.084444
O O4 0.397729 0.444388 0.000000
O O5 0.242000 0.493917 0.356543
O O6 0.182777 0.267516 0.279404
O O7 0.894360 0.403312 0.306482
O O8 0.500000 0.000000 0.165039
#
# Coordination Sequence:
#
# PCOD9528756 Si02
#       4
#    16  16   8  16
#     4  11  25  43  63  93 128 165 217 267 314 385
#     4  11  23  40  65  93 127 169 208 258 318 377
#     4  10  23  42  64  98 132 164 215 268 320 392
#     4  11  24  42  66  93 126 168 210 265 328 383
#
# _framework density 21.824811
#
# number of rings (size 3 to 8) (size 9 to 14) (size 15 to 20)
#    0.000    1.143    0.000    6.429    0.000   13.714 
#    0.000    5.714    0.000    0.000    0.000    0.000 
#    0.000    0.000    0.000    0.000    0.000    0.000 
#
# Total GULP energy -156519.791761 kJ/mol
# GULP energy per Si atom -5589.992563 kJ/mol
# Density = 2.177514 g / cm^3
# Si number density = 21.824811 Si / 1000 Ang^3
#
#
#
# Elastic Constant Matrix: (Units=GPa)
#
#
# Indices 1 2 3 4 5 6 
#
# 1 67.3056 -7.5464 -0.1659 0.0000 0.0000 0.0000
# 2 -7.5464 75.1670 13.4242 0.0000 0.0000 0.0000
# 3 -0.1659 13.4242 81.1530 0.0000 0.0000 0.0000
# 4 0.0000 0.0000 0.0000 21.8384 0.0000 0.0000
# 5 0.0000 0.0000 0.0000 0.0000 3.3453 0.0000
# 6 0.0000 0.0000 0.0000 0.0000 0.0000 36.1359
#
#
#
# Elastic Compliance Matrix: (Units=1/GPa)
#
#
# Indices 1 2 3 4 5 6 
#
# 1 0.015031 0.001549 -0.000226 0.000000 0.000000 0.000000
# 2 0.001549 0.013868 -0.002291 0.000000 0.000000 0.000000
# 3 -0.000226 -0.002291 0.012701 0.000000 0.000000 0.000000
# 4 0.000000 0.000000 0.000000 0.045791 0.000000 0.000000
# 5 0.000000 0.000000 0.000000 0.000000 0.298922 0.000000
# 6 0.000000 0.000000 0.000000 0.000000 0.000000 0.027673
#
#
# Mechanical properties :
#
#
# Convention : Reuss Voigt Hill
#
# Bulk Modulus (GPa) = 25.21072 26.11662 25.66367
# Shear Modulus (GPa) = 11.65113 26.79149 19.22131
#
# Velocity S-wave (km/s) = 2.31302 3.50747 2.97089
# Velocity P-wave (km/s) = 4.32549 5.32875 4.85312
#
# Compressibility (1/GPa) = 0.03966567
#
# Stress axis : x y z
#
# Youngs Moduli (GPa) = 66.53026 72.10638 78.73454
#
# Poissons Ratio (x) = -0.11171 0.01776
# Poissons Ratio (y) = -0.10308 0.18038
# Poissons Ratio (z) = 0.01501 0.16519
#
# Static dielectric constant tensor:
#      x y z
#    x 1.845500 0.000000 0.000000 
#    y 0.000000 1.763640 0.000000 
#    z 0.000000 0.000000 1.781320 
# 
# From -- ./inp_files/40030.got.cif
#   From: 2010.05.17/outbox.cif.g08.bks.cpg/sg72_21_cif.got.tgz:40030.got - 2010.06.03 17:03:01.
