data_PCOD9528102
_publ_section_title
;
Structure prediction by ZEFSAII (Michael W. Deem and Ramdas Pophale) SiO2 
 PCOD9528102
Probable space group: I B A M
;
_chemical_formula_sum "Si O2"
_cell_formula_units_Z 88
_cell_length_a 15.887812
_cell_length_b 11.188038
_cell_length_c 24.002445
_cell_angle_alpha 90.000000
_cell_angle_beta 90.000000
_cell_angle_gamma 90.000000
_cell_volume 4266.517273
_symmetry_space_group_name_H-M "I B A M"
_symmetry_group_IT_number 72
_symmetry_cell_setting 'orthorhombic'
loop_
_space_group_symop_operation_xyz
x,y,z
-x,-y,z
x,-y,1/2-z
-x,y,1/2-z
-x,-y,-z
x,y,-z
-x,y,1/2+z
x,-y,1/2+z
1/2+x,1/2+y,1/2+z
1/2-x,1/2-y,1/2+z
1/2+x,1/2-y,-z
1/2-x,1/2+y,-z
1/2-x,1/2-y,1/2-z
1/2+x,1/2+y,1/2-z
1/2-x,1/2+y,z
1/2+x,1/2-y,z
loop_
_atom_site_type_symbol
_atom_site_label
_atom_site_fract_x
_atom_site_fract_y
_atom_site_fract_z
Si Si1 0.000000 0.728096 0.750000
Si Si2 0.522679 0.263241 0.435117
Si Si3 0.713963 0.790843 0.935965
Si Si4 0.427676 0.588164 0.669563
Si Si5 0.742775 0.466846 0.623506
Si Si6 0.571094 0.901986 0.355082
O O1 0.065306 0.802774 0.787820
O O2 0.051505 0.655968 0.704317
O O3 0.506306 0.292840 0.500000
O O4 0.611976 0.191545 0.433727
O O5 0.543933 0.370443 0.392603
O O6 0.446896 0.191850 0.405337
O O7 0.731101 0.660120 0.909347
O O8 0.757710 0.907022 0.909222
O O9 0.739172 0.784188 0.000000
O O10 0.500000 0.500000 0.688429
O O11 0.335449 0.533262 0.665710
O O12 0.836492 0.455438 0.646579
O O13 0.500000 0.000000 0.364201
#
# Coordination Sequence:
#
# PCOD9528102 Si02
#       6
#     8  16  16  16  16  16
#     4  10  24  44  68  90 126 172 222 286 336 390
#     4   9  20  38  63  94 134 172 214 269 322 389
#     4  10  21  40  62  97 138 177 220 263 320 395
#     4  10  23  44  64  93 130 172 225 274 332 398
#     4  11  24  40  67  96 134 175 219 273 333 394
#     4  11  22  42  65  96 131 169 225 272 332 396
#
# _framework density 20.625722
#
# number of rings (size 3 to 8) (size 9 to 14) (size 15 to 20)
#    0.000    1.818    1.818    1.091    5.091    3.636 
#    0.000    3.636    0.000    0.000    0.000    0.000 
#    0.000    0.000    0.000    0.000    0.000    0.000 
#
# Total GULP energy -245367.393087 kJ/mol
# GULP energy per Si atom -5576.531661 kJ/mol
# Density = 2.057878 g / cm^3
# Si number density = 20.625722 Si / 1000 Ang^3
#
#
#
# Elastic Constant Matrix: (Units=GPa)
#
#
# Indices 1 2 3 4 5 6 
#
# 1 107.3360 18.6863 10.6418 0.0000 0.0000 0.0000
# 2 18.6863 81.5482 22.1325 0.0000 0.0000 0.0000
# 3 10.6418 22.1325 105.1029 0.0000 0.0000 0.0000
# 4 0.0000 0.0000 0.0000 11.7778 0.0000 0.0000
# 5 0.0000 0.0000 0.0000 0.0000 -2.3711 0.0000
# 6 0.0000 0.0000 0.0000 0.0000 0.0000 45.4142
#
#
#
# Elastic Compliance Matrix: (Units=1/GPa)
#
#
# Indices 1 2 3 4 5 6 
#
# 1 0.009733 -0.002082 -0.000547 0.000000 0.000000 0.000000
# 2 -0.002082 0.013451 -0.002622 0.000000 0.000000 0.000000
# 3 -0.000547 -0.002622 0.010122 0.000000 0.000000 0.000000
# 4 0.000000 0.000000 0.000000 0.084905 0.000000 0.000000
# 5 0.000000 0.000000 0.000000 0.000000 -0.421740 0.000000
# 6 0.000000 0.000000 0.000000 0.000000 0.000000 0.022020
#
#
# Mechanical properties :
#
#
# Convention : Reuss Voigt Hill
#
# Bulk Modulus (GPa) = 43.84994 44.10093 43.97544
# Shear Modulus (GPa) = -18.98217 27.13260 4.07522
#
# Velocity S-wave (km/s) = -3.03696 3.63088 1.40715
# Velocity P-wave (km/s) = 3.00141 6.24545 4.89970
#
# Compressibility (1/GPa) = 0.02280505
#
# Stress axis : x y z
#
# Youngs Moduli (GPa) = 102.74101 74.34233 98.79498
#
# Poissons Ratio (x) = 0.15477 0.05405
# Poissons Ratio (y) = 0.21389 0.25902
# Poissons Ratio (z) = 0.05621 0.19491
#
# Static dielectric constant tensor:
#      x y z
#    x 1.746260 0.000000 0.000000 
#    y 0.000000 1.801000 0.000000 
#    z 0.000000 0.000000 1.708170 
# 
# From -- ./inp_files/44164.got.cif
#   From: 2010.05.17/outbox.cif.g08.bks.cpg/sg72_23_cif.got.tgz:44164.got - 2010.06.03 17:03:01.
