data_PCOD9528083
_publ_section_title
;
Structure prediction by ZEFSAII (Michael W. Deem and Ramdas Pophale) SiO2 
 PCOD9528083
Probable space group: I B A M
;
_chemical_formula_sum "Si O2"
_cell_formula_units_Z 112
_cell_length_a 11.920057
_cell_length_b 15.121580
_cell_length_c 30.696653
_cell_angle_alpha 90.000000
_cell_angle_beta 90.000000
_cell_angle_gamma 90.000000
_cell_volume 5533.074636
_symmetry_space_group_name_H-M "I B A M"
_symmetry_group_IT_number 72
_symmetry_cell_setting 'orthorhombic'
loop_
_space_group_symop_operation_xyz
x,y,z
-x,-y,z
x,-y,1/2-z
-x,y,1/2-z
-x,-y,-z
x,y,-z
-x,y,1/2+z
x,-y,1/2+z
1/2+x,1/2+y,1/2+z
1/2-x,1/2-y,1/2+z
1/2+x,1/2-y,-z
1/2-x,1/2+y,-z
1/2-x,1/2-y,1/2-z
1/2+x,1/2+y,1/2-z
1/2-x,1/2+y,z
1/2+x,1/2-y,z
loop_
_atom_site_type_symbol
_atom_site_label
_atom_site_fract_x
_atom_site_fract_y
_atom_site_fract_z
Si Si1 0.532596 0.304578 0.683837
Si Si2 0.578761 0.888285 0.208849
Si Si3 0.290519 0.672951 0.607218
Si Si4 0.660598 0.353587 0.124133
Si Si5 0.484225 0.393629 0.949796
Si Si6 0.800868 0.095378 0.237916
Si Si7 0.193468 0.520333 0.650428
O O1 0.529423 0.199986 0.688438
O O2 0.615011 0.334448 0.644909
O O3 0.411550 0.338228 0.668480
O O4 0.600361 0.338640 0.726018
O O5 0.500000 0.910676 0.250000
O O6 0.704761 0.874451 0.228469
O O7 0.597579 0.957805 0.170200
O O8 0.243034 0.771733 0.613715
O O9 0.362225 0.643247 0.565138
O O10 0.192158 0.601059 0.616339
O O11 0.575628 0.355825 0.083619
O O12 0.720390 0.447948 0.130713
O O13 0.500000 0.500000 0.945986
O O14 0.504775 0.369773 0.000000
O O15 0.733217 0.070310 0.194210
O O16 0.851214 0.000000 0.250000
#
# Coordination Sequence:
#
# PCOD9528083 Si02
#       7
#    16  16  16  16  16  16  16
#     4  10  22  36  60  82 115 154 218 261 304 382
#     4  11  23  37  54  80 117 166 213 272 316 361
#     4  10  21  40  65  91 124 168 201 250 315 375
#     4  11  22  40  64  94 121 165 198 252 318 369
#     4  10  21  40  70 105 129 155 203 254 307 377
#     4   9  21  37  53  75 113 158 210 270 327 350
#     4  10  21  40  58  81 121 157 214 258 300 378
#
# _framework density 20.241909
#
# number of rings (size 3 to 8) (size 9 to 14) (size 15 to 20)
#    0.000    1.857    2.857    0.429    4.000    5.429 
#    0.000    2.143    0.000    0.000    0.000    1.000 
#    0.000    0.000    0.000    0.000    0.000    0.000 
#
# Total GULP energy -312194.602163 kJ/mol
# GULP energy per Si atom -5574.903610 kJ/mol
# Density = 2.019584 g / cm^3
# Si number density = 20.241909 Si / 1000 Ang^3
#
#
#
# Elastic Constant Matrix: (Units=GPa)
#
#
# Indices 1 2 3 4 5 6 
#
# 1 71.0578 11.8621 26.5402 0.0000 0.0000 0.0000
# 2 11.8621 46.5455 -10.7464 0.0000 0.0000 0.0000
# 3 26.5402 -10.7464 60.7782 0.0000 0.0000 0.0000
# 4 0.0000 0.0000 0.0000 16.7736 0.0000 0.0000
# 5 0.0000 0.0000 0.0000 0.0000 -36.7780 0.0000
# 6 0.0000 0.0000 0.0000 0.0000 0.0000 -59.6174
#
#
#
# Elastic Compliance Matrix: (Units=1/GPa)
#
#
# Indices 1 2 3 4 5 6 
#
# 1 0.018751 -0.006953 -0.009418 0.000000 0.000000 0.000000
# 2 -0.006953 0.024977 0.007452 0.000000 0.000000 0.000000
# 3 -0.009418 0.007452 0.021883 0.000000 0.000000 0.000000
# 4 0.000000 0.000000 0.000000 0.059617 0.000000 0.000000
# 5 0.000000 0.000000 0.000000 0.000000 -0.027190 0.000000
# 6 0.000000 0.000000 0.000000 0.000000 0.000000 -0.016774
#
#
# Mechanical properties :
#
#
# Convention : Reuss Voigt Hill
#
# Bulk Modulus (GPa) = 20.93132 25.96591 23.44862
# Shear Modulus (GPa) = 43.46826 -5.87597 18.79614
#
# Velocity S-wave (km/s) = 4.63907 -1.70563 3.05056
# Velocity P-wave (km/s) = 6.24962 2.99612 4.90074
#
# Compressibility (1/GPa) = 0.04777529
#
# Stress axis : x y z
#
# Youngs Moduli (GPa) = 53.32980 40.03691 45.69682
#
# Poissons Ratio (x) = 0.27838 0.43035
# Poissons Ratio (y) = 0.37081 -0.34055
# Poissons Ratio (z) = 0.50224 -0.29837
#
# Static dielectric constant tensor:
#      x y z
#    x 1.787920 0.000000 0.000000 
#    y 0.000000 1.743950 0.000000 
#    z 0.000000 0.000000 1.748490 
# 
# From -- ./inp_files/51466.got.cif
#   From: 2010.05.17/outbox.cif.g08.bks.cpg/sg72_26_cif.got.tgz:51466.got - 2010.06.03 17:03:01.
