data_PCOD9528843
_publ_section_title
;
Structure prediction by ZEFSAII (Michael W. Deem and Ramdas Pophale) SiO2 
 PCOD9528843
Probable space group: I B A M
;
_chemical_formula_sum "Si O2"
_cell_formula_units_Z 76
_cell_length_a 10.237194
_cell_length_b 19.195241
_cell_length_c 14.933081
_cell_angle_alpha 90.000000
_cell_angle_beta 90.000000
_cell_angle_gamma 90.000000
_cell_volume 2934.431145
_symmetry_space_group_name_H-M "I B A M"
_symmetry_group_IT_number 72
_symmetry_cell_setting 'orthorhombic'
loop_
_space_group_symop_operation_xyz
x,y,z
-x,-y,z
x,-y,1/2-z
-x,y,1/2-z
-x,-y,-z
x,y,-z
-x,y,1/2+z
x,-y,1/2+z
1/2+x,1/2+y,1/2+z
1/2-x,1/2-y,1/2+z
1/2+x,1/2-y,-z
1/2-x,1/2+y,-z
1/2-x,1/2-y,1/2-z
1/2+x,1/2+y,1/2-z
1/2-x,1/2+y,z
1/2+x,1/2-y,z
loop_
_atom_site_type_symbol
_atom_site_label
_atom_site_fract_x
_atom_site_fract_y
_atom_site_fract_z
Si Si1 0.541616 0.725577 0.655993
Si Si2 0.364053 0.399498 0.896712
Si Si3 0.000223 0.686397 0.000000
Si Si4 0.000000 0.000000 0.250000
Si Si5 0.253100 0.367503 0.595176
Si Si6 0.645553 0.988796 0.643944
O O1 0.500000 0.756764 0.750000
O O2 0.421883 0.677422 0.619169
O O3 0.585071 0.777582 0.579419
O O4 0.662555 0.671748 0.668485
O O5 0.424780 0.448595 0.818835
O O6 0.209897 0.416579 0.885333
O O7 0.394736 0.418771 0.000000
O O8 0.108804 0.661322 0.077046
O O9 0.325179 0.358676 0.500000
O O10 0.236851 0.448913 0.610715
O O11 0.500000 0.000000 0.607129
O O12 0.639163 0.000000 0.750000
#
# Coordination Sequence:
#
# PCOD9528843 Si02
#       6
#    16  16   8   4  16  16
#     4  12  23  46  75 107 141 189 253 308 362 433
#     4  12  23  39  72 105 142 189 234 301 373 432
#     4  10  24  48  67 102 142 196 234 300 371 417
#     4  12  22  40  62 114 140 180 238 294 370 446
#     4  10  23  46  70  99 152 185 237 309 361 422
#     4  11  24  46  69 108 151 191 238 299 377 450
#
# _framework density 25.8994
#
# number of rings (size 3 to 8) (size 9 to 14) (size 15 to 20)
#    0.632    0.211    4.211    3.474    0.000    2.526 
#   11.368    0.000    0.000    0.000    0.000    0.000 
#    0.000    0.000    0.000    0.000    0.000    0.000 
#
# Total GULP energy -211578.433395 kJ/mol
# GULP energy per Si atom -5567.853510 kJ/mol
# Density = 2.584045 g / cm^3
# Si number density = 25.899400 Si / 1000 Ang^3
#
#
#
# Elastic Constant Matrix: (Units=GPa)
#
#
# Indices 1 2 3 4 5 6 
#
# 1 63.3370 22.0504 -12.8203 0.0000 0.0000 0.0000
# 2 22.0504 85.1592 26.3028 0.0000 0.0000 0.0000
# 3 -12.8203 26.3028 178.6960 0.0000 0.0000 0.0000
# 4 0.0000 0.0000 0.0000 -12.5399 0.0000 0.0000
# 5 0.0000 0.0000 0.0000 0.0000 24.8014 0.0000
# 6 0.0000 0.0000 0.0000 0.0000 0.0000 47.6231
#
#
#
# Elastic Compliance Matrix: (Units=1/GPa)
#
#
# Indices 1 2 3 4 5 6 
#
# 1 0.018061 -0.005319 0.002079 0.000000 0.000000 0.000000
# 2 -0.005319 0.013868 -0.002423 0.000000 0.000000 0.000000
# 3 0.002079 -0.002423 0.006102 0.000000 0.000000 0.000000
# 4 0.000000 0.000000 0.000000 -0.079745 0.000000 0.000000
# 5 0.000000 0.000000 0.000000 0.000000 0.040320 0.000000
# 6 0.000000 0.000000 0.000000 0.000000 0.000000 0.020998
#
#
# Mechanical properties :
#
#
# Convention : Reuss Voigt Hill
#
# Bulk Modulus (GPa) = 37.44570 44.25088 40.84829
# Shear Modulus (GPa) = 125.52836 31.42087 78.47462
#
# Velocity S-wave (km/s) = 6.96943 3.48687 5.51050
# Velocity P-wave (km/s) = 8.90244 5.77354 7.50290
#
# Compressibility (1/GPa) = 0.02670533
#
# Stress axis : x y z
#
# Youngs Moduli (GPa) = 55.36823 72.10747 163.88471
#
# Poissons Ratio (x) = 0.38351 -0.34065
# Poissons Ratio (y) = 0.29448 0.39707
# Poissons Ratio (z) = -0.11509 0.17471
#
# Static dielectric constant tensor:
#      x y z
#    x 2.150860 0.000000 0.000000 
#    y 0.000000 2.246950 0.000000 
#    z 0.000000 0.000000 1.990560 
# 
# From -- ./inp_files/20258.got.cif
#   From: 2010.05.17/outbox.cif.g08.bks.cpg/sg72_11_cif.got.tgz:20258.got - 2010.06.03 17:03:01.
