data_PCOD9528811
_publ_section_title
;
Structure prediction by ZEFSAII (Michael W. Deem and Ramdas Pophale) SiO2 
 PCOD9528811
Probable space group: I B A M
;
_chemical_formula_sum "Si O2"
_cell_formula_units_Z 56
_cell_length_a 13.662709
_cell_length_b 11.670539
_cell_length_c 14.204466
_cell_angle_alpha 90.000000
_cell_angle_beta 90.000000
_cell_angle_gamma 90.000000
_cell_volume 2264.918840
_symmetry_space_group_name_H-M "I B A M"
_symmetry_group_IT_number 72
_symmetry_cell_setting 'orthorhombic'
loop_
_space_group_symop_operation_xyz
x,y,z
-x,-y,z
x,-y,1/2-z
-x,y,1/2-z
-x,-y,-z
x,y,-z
-x,y,1/2+z
x,-y,1/2+z
1/2+x,1/2+y,1/2+z
1/2-x,1/2-y,1/2+z
1/2+x,1/2-y,-z
1/2-x,1/2+y,-z
1/2-x,1/2-y,1/2-z
1/2+x,1/2+y,1/2-z
1/2-x,1/2+y,z
1/2+x,1/2-y,z
loop_
_atom_site_type_symbol
_atom_site_label
_atom_site_fract_x
_atom_site_fract_y
_atom_site_fract_z
Si Si1 0.141133 0.478431 0.500000
Si Si2 0.899148 0.823981 0.705569
Si Si3 0.039214 0.763393 0.000000
Si Si4 0.311712 0.687167 0.000000
Si Si5 0.189559 0.642213 0.333696
O O1 0.065265 0.372745 0.500000
O O2 0.252106 0.428892 0.500000
O O3 0.138347 0.551023 0.402916
O O4 0.918363 0.812075 0.595629
O O5 0.880122 0.701116 0.756908
O O6 0.794029 0.886627 0.713008
O O7 0.000000 0.870532 0.750000
O O8 0.927697 0.804601 0.000000
O O9 0.283661 0.755794 0.093461
#
# Coordination Sequence:
#
# PCOD9528811 Si02
#       5
#     8  16   8   8  16
#     4  11  24  46  74 105 144 184 246 289 354 434
#     4  11  22  44  71 100 146 185 236 293 364 419
#     4  12  23  41  70  98 140 190 229 299 356 413
#     4  11  21  44  71 101 148 178 233 300 357 412
#     4  10  23  43  72 102 138 194 229 296 360 418
#
# _framework density 24.724948999999999
#
# number of rings (size 3 to 8) (size 9 to 14) (size 15 to 20)
#    0.000    1.143    5.714    0.857    0.000    3.429 
#    0.000    4.286    6.286    0.000    0.000    0.000 
#    0.000    0.000    0.000    0.000    0.000    0.000 
#
# Total GULP energy -156473.117948 kJ/mol
# GULP energy per Si atom -5588.325641 kJ/mol
# Density = 2.466867 g / cm^3
# Si number density = 24.724949 Si / 1000 Ang^3
#
#
#
# Elastic Constant Matrix: (Units=GPa)
#
#
# Indices 1 2 3 4 5 6 
#
# 1 185.6566 8.9211 32.7089 0.0000 0.0000 0.0000
# 2 8.9211 69.1062 38.6491 0.0000 0.0000 0.0000
# 3 32.7089 38.6491 134.5104 0.0000 0.0000 0.0000
# 4 0.0000 0.0000 0.0000 4.7410 0.0000 0.0000
# 5 0.0000 0.0000 0.0000 0.0000 36.8070 0.0000
# 6 0.0000 0.0000 0.0000 0.0000 0.0000 8.6990
#
#
#
# Elastic Compliance Matrix: (Units=1/GPa)
#
#
# Indices 1 2 3 4 5 6 
#
# 1 0.005628 0.000046 -0.001382 0.000000 0.000000 0.000000
# 2 0.000046 0.017241 -0.004965 0.000000 0.000000 0.000000
# 3 -0.001382 -0.004965 0.009197 0.000000 0.000000 0.000000
# 4 0.000000 0.000000 0.000000 0.210927 0.000000 0.000000
# 5 0.000000 0.000000 0.000000 0.000000 0.027169 0.000000
# 6 0.000000 0.000000 0.000000 0.000000 0.000000 0.114956
#
#
# Mechanical properties :
#
#
# Convention : Reuss Voigt Hill
#
# Bulk Modulus (GPa) = 51.37541 61.09237 56.23389
# Shear Modulus (GPa) = 12.36988 30.64899 21.50943
#
# Velocity S-wave (km/s) = 2.23916 3.52461 2.95269
# Velocity P-wave (km/s) = 5.24490 6.42855 5.86666
#
# Compressibility (1/GPa) = 0.01946457
#
# Stress axis : x y z
#
# Youngs Moduli (GPa) = 177.69880 57.99979 108.73052
#
# Poissons Ratio (x) = -0.00269 0.15024
# Poissons Ratio (y) = -0.00823 0.53988
# Poissons Ratio (z) = 0.24553 0.28798
#
# Static dielectric constant tensor:
#      x y z
#    x 2.060000 0.000000 0.000000 
#    y 0.000000 1.976540 0.000000 
#    z 0.000000 0.000000 1.957500 
# 
# From -- ./inp_files/19457.got.cif
#   From: 2010.05.17/outbox.cif.g08.bks.cpg/sg72_10_cif.got.tgz:19457.got - 2010.06.03 17:03:01.
