data_PCOD9528248
_publ_section_title
;
Structure prediction by ZEFSAII (Michael W. Deem and Ramdas Pophale) SiO2 
 PCOD9528248
Probable space group: I B A M
;
_chemical_formula_sum "Si O2"
_cell_formula_units_Z 68
_cell_length_a 9.895407
_cell_length_b 15.629915
_cell_length_c 20.143504
_cell_angle_alpha 90.000000
_cell_angle_beta 90.000000
_cell_angle_gamma 90.000000
_cell_volume 3115.482362
_symmetry_space_group_name_H-M "I B A M"
_symmetry_group_IT_number 72
_symmetry_cell_setting 'orthorhombic'
loop_
_space_group_symop_operation_xyz
x,y,z
-x,-y,z
x,-y,1/2-z
-x,y,1/2-z
-x,-y,-z
x,y,-z
-x,y,1/2+z
x,-y,1/2+z
1/2+x,1/2+y,1/2+z
1/2-x,1/2-y,1/2+z
1/2+x,1/2-y,-z
1/2-x,1/2+y,-z
1/2-x,1/2-y,1/2-z
1/2+x,1/2+y,1/2-z
1/2-x,1/2+y,z
1/2+x,1/2-y,z
loop_
_atom_site_type_symbol
_atom_site_label
_atom_site_fract_x
_atom_site_fract_y
_atom_site_fract_z
Si Si1 0.917244 0.784136 0.500000
Si Si2 0.981951 0.903096 0.376350
Si Si3 0.373387 0.275143 0.296503
Si Si4 0.874372 0.362882 0.500000
Si Si5 0.325066 0.895452 0.143717
Si Si6 0.000000 0.500000 0.250000
O O1 0.967525 0.837011 0.436288
O O2 0.753950 0.795988 0.500000
O O3 0.985898 0.690797 0.500000
O O4 0.834629 0.901553 0.341732
O O5 0.101317 0.867673 0.329104
O O6 0.000000 0.000000 0.398905
O O7 0.500000 0.259675 0.250000
O O8 0.250000 0.250000 0.250000
O O9 0.367606 0.203899 0.353256
O O10 0.855622 0.418798 0.567118
O O11 0.407792 0.944212 0.200246
#
# Coordination Sequence:
#
# PCOD9528248 Si02
#       6
#     8  16  16   8  16   4
#     4  10  21  44  70 104 136 185 236 295 356 435
#     4  11  25  43  71 102 142 181 245 300 359 422
#     4  12  24  41  66  97 137 184 235 282 357 428
#     4  10  22  45  74 102 140 183 246 288 359 439
#     4  11  25  45  70 105 140 192 237 301 358 437
#     4  12  28  46  70 100 162 178 246 296 368 422
#
# _framework density 21.826476
#
# number of rings (size 3 to 8) (size 9 to 14) (size 15 to 20)
#    0.000    0.941    5.882    0.353    3.294    0.941 
#    4.235    0.000    0.000    0.000    0.000    0.000 
#    0.000    0.000    0.000    0.000    0.000    0.000 
#
# Total GULP energy -189786.969237 kJ/mol
# GULP energy per Si atom -5581.969683 kJ/mol
# Density = 2.177680 g / cm^3
# Si number density = 21.826476 Si / 1000 Ang^3
#
#
#
# Elastic Constant Matrix: (Units=GPa)
#
#
# Indices 1 2 3 4 5 6 
#
# 1 89.8120 12.8255 34.2745 0.0000 0.0000 0.0000
# 2 12.8255 61.2931 14.2794 0.0000 0.0000 0.0000
# 3 34.2745 14.2794 126.5315 0.0000 0.0000 0.0000
# 4 0.0000 0.0000 0.0000 7.0816 0.0000 0.0000
# 5 0.0000 0.0000 0.0000 0.0000 36.3526 0.0000
# 6 0.0000 0.0000 0.0000 0.0000 0.0000 11.1807
#
#
#
# Elastic Compliance Matrix: (Units=1/GPa)
#
#
# Indices 1 2 3 4 5 6 
#
# 1 0.012629 -0.001895 -0.003207 0.000000 0.000000 0.000000
# 2 -0.001895 0.017040 -0.001410 0.000000 0.000000 0.000000
# 3 -0.003207 -0.001410 0.008931 0.000000 0.000000 0.000000
# 4 0.000000 0.000000 0.000000 0.141211 0.000000 0.000000
# 5 0.000000 0.000000 0.000000 0.000000 0.027508 0.000000
# 6 0.000000 0.000000 0.000000 0.000000 0.000000 0.089440
#
#
# Mechanical properties :
#
#
# Convention : Reuss Voigt Hill
#
# Bulk Modulus (GPa) = 39.09930 44.48836 41.79383
# Shear Modulus (GPa) = 15.70805 25.34012 20.52409
#
# Velocity S-wave (km/s) = 2.68559 3.41101 3.06981
# Velocity P-wave (km/s) = 5.25063 5.99503 5.63514
#
# Compressibility (1/GPa) = 0.02557590
#
# Stress axis : x y z
#
# Youngs Moduli (GPa) = 79.18338 58.68519 111.97033
#
# Poissons Ratio (x) = 0.11124 0.35909
# Poissons Ratio (y) = 0.15009 0.15783
# Poissons Ratio (z) = 0.25394 0.08272
#
# Static dielectric constant tensor:
#      x y z
#    x 1.792280 0.000000 0.000000 
#    y 0.000000 1.812920 0.000000 
#    z 0.000000 0.000000 1.860810 
# 
# From -- ./inp_files/35522.got.cif
#   From: 2010.05.17/outbox.cif.g08.bks.cpg/sg72_18_cif.got.tgz:35522.got - 2010.06.03 17:03:01.
