data_PCOD9528889
_publ_section_title
;
Structure prediction by ZEFSAII (Michael W. Deem and Ramdas Pophale) SiO2 
 PCOD9528889
Probable space group: I B A M
;
_chemical_formula_sum "Si O2"
_cell_formula_units_Z 56
_cell_length_a 8.437769
_cell_length_b 22.418424
_cell_length_c 14.459023
_cell_angle_alpha 90.000000
_cell_angle_beta 90.000000
_cell_angle_gamma 90.000000
_cell_volume 2735.090234
_symmetry_space_group_name_H-M "I B A M"
_symmetry_group_IT_number 72
_symmetry_cell_setting 'orthorhombic'
loop_
_space_group_symop_operation_xyz
x,y,z
-x,-y,z
x,-y,1/2-z
-x,y,1/2-z
-x,-y,-z
x,y,-z
-x,y,1/2+z
x,-y,1/2+z
1/2+x,1/2+y,1/2+z
1/2-x,1/2-y,1/2+z
1/2+x,1/2-y,-z
1/2-x,1/2+y,-z
1/2-x,1/2-y,1/2-z
1/2+x,1/2+y,1/2-z
1/2-x,1/2+y,z
1/2+x,1/2-y,z
loop_
_atom_site_type_symbol
_atom_site_label
_atom_site_fract_x
_atom_site_fract_y
_atom_site_fract_z
Si Si1 0.116356 0.091552 0.500000
Si Si2 0.738664 0.456224 0.000000
Si Si3 0.775661 0.835045 0.677541
Si Si4 0.500000 0.234254 0.750000
Si Si5 0.674991 0.061278 0.294459
O O1 0.174323 0.128108 0.588695
O O2 0.927202 0.080237 0.500000
O O3 0.194051 0.026082 0.500000
O O4 0.829594 0.443089 0.095197
O O5 0.599973 0.807124 0.680897
O O6 0.886749 0.778492 0.694063
O O7 0.776903 0.882102 0.762276
O O8 0.500000 0.066758 0.250000
O O9 0.742688 0.000000 0.250000
#
# Coordination Sequence:
#
# PCOD9528889 Si02
#       5
#     8   8  16   8  16
#     4  11  24  41  70  98 138 175 234 286 341 420
#     4  11  24  42  65 109 135 176 223 277 359 420
#     4  11  22  45  65 101 132 186 224 289 333 411
#     4  10  24  42  68  88 140 184 236 274 340 394
#     4  11  23  41  68 100 141 179 221 286 350 412
#
# _framework density 20.474644999999999
#
# number of rings (size 3 to 8) (size 9 to 14) (size 15 to 20)
#    0.000    1.143    4.286    1.714    0.000    4.571 
#    0.000    5.714    0.000    0.000    0.000    0.000 
#    0.000    0.000    0.000    0.000    0.000    0.000 
#
# Total GULP energy -156473.825195 kJ/mol
# GULP energy per Si atom -5588.350900 kJ/mol
# Density = 2.042804 g / cm^3
# Si number density = 20.474645 Si / 1000 Ang^3
#
#
#
# Elastic Constant Matrix: (Units=GPa)
#
#
# Indices 1 2 3 4 5 6 
#
# 1 94.0067 44.4707 55.9236 0.0000 0.0000 0.0000
# 2 44.4707 130.7797 52.3394 0.0000 0.0000 0.0000
# 3 55.9236 52.3394 188.9145 0.0000 0.0000 0.0000
# 4 0.0000 0.0000 0.0000 -10.5452 0.0000 0.0000
# 5 0.0000 0.0000 0.0000 0.0000 27.0011 0.0000
# 6 0.0000 0.0000 0.0000 0.0000 0.0000 30.3967
#
#
#
# Elastic Compliance Matrix: (Units=1/GPa)
#
#
# Indices 1 2 3 4 5 6 
#
# 1 0.014239 -0.003548 -0.003232 0.000000 0.000000 0.000000
# 2 -0.003548 0.009484 -0.001577 0.000000 0.000000 0.000000
# 3 -0.003232 -0.001577 0.006687 0.000000 0.000000 0.000000
# 4 0.000000 0.000000 0.000000 -0.094830 0.000000 0.000000
# 5 0.000000 0.000000 0.000000 0.000000 0.037035 0.000000
# 6 0.000000 0.000000 0.000000 0.000000 0.000000 0.032898
#
#
# Mechanical properties :
#
#
# Convention : Reuss Voigt Hill
#
# Bulk Modulus (GPa) = 73.01898 79.90759 76.46328
# Shear Modulus (GPa) = 186.60631 26.76834 106.68732
#
# Velocity S-wave (km/s) = 9.55709 3.61971 7.22635
# Velocity P-wave (km/s) = 12.55088 7.52210 10.34666
#
# Compressibility (1/GPa) = 0.01369507
#
# Stress axis : x y z
#
# Youngs Moduli (GPa) = 70.23077 105.43783 149.54099
#
# Poissons Ratio (x) = 0.37413 0.48331
# Poissons Ratio (y) = 0.24920 0.23586
# Poissons Ratio (z) = 0.22698 0.16630
#
# Static dielectric constant tensor:
#      x y z
#    x 1.794750 0.000000 0.000000 
#    y 0.000000 1.727040 0.000000 
#    z 0.000000 0.000000 1.718360 
# 
# From -- ./inp_files/18446.got.cif
#   From: 2010.05.17/outbox.cif.g08.bks.cpg/sg72_10_cif.got.tgz:18446.got - 2010.06.03 17:03:01.
