data_PCOD9528863
_publ_section_title
;
Structure prediction by ZEFSAII (Michael W. Deem and Ramdas Pophale) SiO2 
 PCOD9528863
Probable space group: I B A M
;
_chemical_formula_sum "Si O2"
_cell_formula_units_Z 116
_cell_length_a 17.430549
_cell_length_b 16.496929
_cell_length_c 21.326802
_cell_angle_alpha 90.000000
_cell_angle_beta 90.000000
_cell_angle_gamma 90.000000
_cell_volume 6132.533203
_symmetry_space_group_name_H-M "I B A M"
_symmetry_group_IT_number 72
_symmetry_cell_setting 'orthorhombic'
loop_
_space_group_symop_operation_xyz
x,y,z
-x,-y,z
x,-y,1/2-z
-x,y,1/2-z
-x,-y,-z
x,y,-z
-x,y,1/2+z
x,-y,1/2+z
1/2+x,1/2+y,1/2+z
1/2-x,1/2-y,1/2+z
1/2+x,1/2-y,-z
1/2-x,1/2+y,-z
1/2-x,1/2-y,1/2-z
1/2+x,1/2+y,1/2-z
1/2-x,1/2+y,z
1/2+x,1/2-y,z
loop_
_atom_site_type_symbol
_atom_site_label
_atom_site_fract_x
_atom_site_fract_y
_atom_site_fract_z
Si Si1 0.985410 0.792239 0.682835
Si Si2 0.643577 0.334833 0.850595
Si Si3 0.410846 0.522954 0.067388
Si Si4 0.236435 0.903039 0.762511
Si Si5 0.296020 0.187747 0.927616
Si Si6 0.110815 0.628318 0.810337
Si Si7 0.346763 0.363336 0.110984
Si Si8 0.000000 0.500000 0.250000
O O1 0.938823 0.709879 0.694488
O O2 0.930135 0.847155 0.641611
O O3 0.000000 0.832651 0.750000
O O4 0.069059 0.778174 0.653160
O O5 0.611506 0.419792 0.875992
O O6 0.680798 0.351750 0.783082
O O7 0.711054 0.310801 0.897878
O O8 0.500000 0.500000 0.070636
O O9 0.358497 0.443260 0.070645
O O10 0.398580 0.564770 0.000000
O O11 0.321359 0.876778 0.741035
O O12 0.213123 0.881242 0.833048
O O13 0.228799 0.000000 0.750000
O O14 0.347123 0.134367 0.878490
O O15 0.325599 0.280287 0.923308
O O16 0.297911 0.160448 0.000000
O O17 0.054191 0.554851 0.794281
#
# Coordination Sequence:
#
# PCOD9528863 Si02
#       8
#    16  16  16  16  16  16  16   4
#     4  11  21  35  56  91 123 153 194 249 315 378
#     4  11  22  37  60  86 121 161 200 253 316 373
#     4  11  22  36  55  83 117 158 204 250 301 362
#     4  11  21  36  59  92 120 153 196 253 319 368
#     4  10  24  44  60  85 125 171 210 250 310 381
#     4  10  24  38  64  90 125 163 201 263 313 378
#     4  11  22  36  62  88 122 160 202 255 307 374
#     4  12  20  40  66 100 124 156 216 266 320 356
#
# _framework density 18.915510999999999
#
# number of rings (size 3 to 8) (size 9 to 14) (size 15 to 20)
#    0.000    1.241    5.517    0.828    1.931    1.655 
#    0.000    3.103    0.000    0.000    0.000    0.000 
#    0.000    0.000    0.000    0.000    0.000    0.000 
#
# Total GULP energy -323716.643928 kJ/mol
# GULP energy per Si atom -5581.321447 kJ/mol
# Density = 1.887246 g / cm^3
# Si number density = 18.915511 Si / 1000 Ang^3
#
#
#
# Elastic Constant Matrix: (Units=GPa)
#
#
# Indices 1 2 3 4 5 6 
#
# 1 129.4980 22.8236 41.0024 0.0000 0.0000 0.0000
# 2 22.8236 46.9557 8.6631 0.0000 0.0000 0.0000
# 3 41.0024 8.6631 98.2443 0.0000 0.0000 0.0000
# 4 0.0000 0.0000 0.0000 19.8814 0.0000 0.0000
# 5 0.0000 0.0000 0.0000 0.0000 8.4800 0.0000
# 6 0.0000 0.0000 0.0000 0.0000 0.0000 27.2697
#
#
#
# Elastic Compliance Matrix: (Units=1/GPa)
#
#
# Indices 1 2 3 4 5 6 
#
# 1 0.009579 -0.003983 -0.003646 0.000000 0.000000 0.000000
# 2 -0.003983 0.023305 -0.000393 0.000000 0.000000 0.000000
# 3 -0.003646 -0.000393 0.011735 0.000000 0.000000 0.000000
# 4 0.000000 0.000000 0.000000 0.050298 0.000000 0.000000
# 5 0.000000 0.000000 0.000000 0.000000 0.117925 0.000000
# 6 0.000000 0.000000 0.000000 0.000000 0.000000 0.036671
#
#
# Mechanical properties :
#
#
# Convention : Reuss Voigt Hill
#
# Bulk Modulus (GPa) = 34.99617 46.63069 40.81343
# Shear Modulus (GPa) = 18.17640 24.60682 21.39161
#
# Velocity S-wave (km/s) = 3.10324 3.61068 3.36654
# Velocity P-wave (km/s) = 5.60193 6.48755 6.06094
#
# Compressibility (1/GPa) = 0.02857455
#
# Stress axis : x y z
#
# Youngs Moduli (GPa) = 104.39828 42.90891 85.21380
#
# Poissons Ratio (x) = 0.17091 0.31073
# Poissons Ratio (y) = 0.41583 0.03346
# Poissons Ratio (z) = 0.38068 0.01685
#
# Static dielectric constant tensor:
#      x y z
#    x 1.678920 0.000000 0.000000 
#    y 0.000000 1.657050 0.000000 
#    z 0.000000 0.000000 1.649550 
# 
# From -- ./inp_files/44504.got.cif
#   From: 2010.05.17/outbox.cif.g08.bks.cpg/sg72_23_cif.got.tgz:44504.got - 2010.06.03 17:03:01.
