data_PCOD9528256
_publ_section_title
;
Structure prediction by ZEFSAII (Michael W. Deem and Ramdas Pophale) SiO2 
 PCOD9528256
Probable space group: I B A M
;
_chemical_formula_sum "Si O2"
_cell_formula_units_Z 36
_cell_length_a 7.876105
_cell_length_b 20.126600
_cell_length_c 8.644098
_cell_angle_alpha 90.000000
_cell_angle_beta 90.000000
_cell_angle_gamma 90.000000
_cell_volume 1370.255628
_symmetry_space_group_name_H-M "I B A M"
_symmetry_group_IT_number 72
_symmetry_cell_setting 'orthorhombic'
loop_
_space_group_symop_operation_xyz
x,y,z
-x,-y,z
x,-y,1/2-z
-x,y,1/2-z
-x,-y,-z
x,y,-z
-x,y,1/2+z
x,-y,1/2+z
1/2+x,1/2+y,1/2+z
1/2-x,1/2-y,1/2+z
1/2+x,1/2-y,-z
1/2-x,1/2+y,-z
1/2-x,1/2-y,1/2-z
1/2+x,1/2+y,1/2-z
1/2-x,1/2+y,z
1/2+x,1/2-y,z
loop_
_atom_site_type_symbol
_atom_site_label
_atom_site_fract_x
_atom_site_fract_y
_atom_site_fract_z
Si Si1 0.500000 0.500000 0.250000
Si Si2 0.954098 0.793231 0.000000
Si Si3 0.237372 0.608386 0.165254
Si Si4 0.336836 0.147476 0.500000
O O1 0.374129 0.549522 0.163565
O O2 0.843237 0.823304 0.141467
O O3 0.140229 0.824387 0.000000
O O4 0.949114 0.714453 0.000000
O O5 0.155904 0.610233 0.334347
O O6 0.140357 0.600991 0.000000
#
# Coordination Sequence:
#
# PCOD9528256 Si02
#       4
#     4   8  16   8
#     4  12  18  36  58  86 122 142 194 250 284 326
#     4  10  22  36  56  82 120 150 192 230 288 346
#     4  10  22  33  55  85 116 146 188 241 292 325
#     4  12  20  40  54  84 122 152 190 234 288 346
#
# _framework density 26.272469999999998
#
# number of rings (size 3 to 8) (size 9 to 14) (size 15 to 20)
#    1.333    0.000    4.444    2.000    3.111    0.000 
#    0.000    0.000    0.000    0.000    0.000    9.333 
#    0.000    0.000    0.000    0.000    0.000    0.000 
#
# Total GULP energy -100546.830030 kJ/mol
# GULP energy per Si atom -5585.935002 kJ/mol
# Density = 2.621267 g / cm^3
# Si number density = 26.272470 Si / 1000 Ang^3
#
#
#
# Elastic Constant Matrix: (Units=GPa)
#
#
# Indices 1 2 3 4 5 6 
#
# 1 81.9249 15.6949 88.9947 0.0005 0.0000 0.0003
# 2 15.6949 126.0088 64.2291 0.0004 -0.0001 0.0000
# 3 88.9947 64.2291 322.1759 0.0011 -0.0011 0.0006
# 4 0.0005 0.0004 0.0011 105.0470 -0.0004 0.0000
# 5 0.0000 -0.0001 -0.0011 -0.0004 -2.0997 0.0005
# 6 0.0003 0.0000 0.0006 0.0000 0.0005 11.1162
#
#
#
# Elastic Compliance Matrix: (Units=1/GPa)
#
#
# Indices 1 2 3 4 5 6 
#
# 1 0.017451 0.000316 -0.004883 0.000000 0.000002 0.000000
# 2 0.000316 0.008839 -0.001849 0.000000 0.000001 0.000000
# 3 -0.004883 -0.001849 0.004821 0.000000 -0.000002 0.000000
# 4 0.000000 0.000000 0.000000 0.009520 -0.000002 0.000000
# 5 0.000002 0.000001 -0.000002 -0.000002 -0.476265 0.000023
# 6 0.000000 0.000000 0.000000 0.000000 0.000023 0.089959
#
#
# Mechanical properties :
#
#
# Convention : Reuss Voigt Hill
#
# Bulk Modulus (GPa) = 54.71305 96.43854 75.57579
# Shear Modulus (GPa) = -15.30229 46.89210 15.79491
#
# Velocity S-wave (km/s) = -2.41601 4.22932 2.45459
# Velocity P-wave (km/s) = 3.61769 7.78693 6.07140
#
# Compressibility (1/GPa) = 0.01827718
#
# Stress axis : x y z
#
# Youngs Moduli (GPa) = 57.30479 113.13100 207.40444
#
# Poissons Ratio (x) = -0.03570 1.01281
# Poissons Ratio (y) = -0.01808 0.38357
# Poissons Ratio (z) = 0.27984 0.20922
#
# Static dielectric constant tensor:
#      x y z
#    x 2.340730 0.000000 0.000000 
#    y 0.000000 1.942340 0.000000 
#    z 0.000000 0.000000 2.074440 
# 
# From -- ./inp_files/2070.got.cif
#   From: 2010.05.17/outbox.cif.g08.bks.cpg/sg72_2_cif.got.tgz:2070.got - 2010.06.03 17:03:01.
