data_PCOD9528492
_publ_section_title
;
Structure prediction by ZEFSAII (Michael W. Deem and Ramdas Pophale) SiO2 
 PCOD9528492
Probable space group: I B A M
;
_chemical_formula_sum "Si O2"
_cell_formula_units_Z 96
_cell_length_a 22.834044
_cell_length_b 9.446455
_cell_length_c 21.851921
_cell_angle_alpha 90.000000
_cell_angle_beta 90.000000
_cell_angle_gamma 90.000000
_cell_volume 4713.476166
_symmetry_space_group_name_H-M "I B A M"
_symmetry_group_IT_number 72
_symmetry_cell_setting 'orthorhombic'
loop_
_space_group_symop_operation_xyz
x,y,z
-x,-y,z
x,-y,1/2-z
-x,y,1/2-z
-x,-y,-z
x,y,-z
-x,y,1/2+z
x,-y,1/2+z
1/2+x,1/2+y,1/2+z
1/2-x,1/2-y,1/2+z
1/2+x,1/2-y,-z
1/2-x,1/2+y,-z
1/2-x,1/2-y,1/2-z
1/2+x,1/2+y,1/2-z
1/2-x,1/2+y,z
1/2+x,1/2-y,z
loop_
_atom_site_type_symbol
_atom_site_label
_atom_site_fract_x
_atom_site_fract_y
_atom_site_fract_z
Si Si1 0.364109 0.813757 0.696292
Si Si2 0.042073 0.796824 0.572046
Si Si3 0.379505 0.131632 0.334816
Si Si4 0.581780 0.390648 0.397807
Si Si5 0.739674 0.696718 0.641542
Si Si6 0.710152 0.570773 0.934229
O O1 0.391066 0.835351 0.763389
O O2 0.396784 0.683201 0.664491
O O3 0.293215 0.793347 0.690292
O O4 0.372491 0.962521 0.660773
O O5 0.059096 0.791327 0.500000
O O6 0.074020 0.683438 0.614988
O O7 0.971628 0.798339 0.576041
O O8 0.060463 0.947393 0.601818
O O9 0.319298 0.219367 0.342879
O O10 0.641239 0.401492 0.435431
O O11 0.724884 0.537876 0.620553
O O12 0.762251 0.779574 0.582081
O O13 0.730391 0.517149 0.000000
#
# Coordination Sequence:
#
# PCOD9528492 Si02
#       6
#    16  16  16  16  16  16
#     4  10  24  43  62  93 128 168 214 259 318 370
#     4  11  23  42  68  94 125 165 213 265 319 377
#     4  11  23  42  65  90 128 168 214 263 312 378
#     4  10  22  41  64  92 126 166 208 260 322 367
#     4  11  21  39  59  92 127 167 209 259 315 375
#     4  11  21  36  61  91 130 169 208 256 316 381
#
# _framework density 20.367132999999999
#
# number of rings (size 3 to 8) (size 9 to 14) (size 15 to 20)
#    0.000    1.333    3.333    3.000    0.000    2.667 
#    0.000    6.667    0.000    0.000    0.000    0.000 
#    0.000    0.000    0.000    0.000    0.000    0.000 
#
# Total GULP energy -267505.734283 kJ/mol
# GULP energy per Si atom -5573.036131 kJ/mol
# Density = 2.032078 g / cm^3
# Si number density = 20.367133 Si / 1000 Ang^3
#
#
#
# Elastic Constant Matrix: (Units=GPa)
#
#
# Indices 1 2 3 4 5 6 
#
# 1 79.4865 34.1196 35.8265 0.0000 0.0000 0.0000
# 2 34.1196 67.5659 22.7014 0.0000 0.0000 0.0000
# 3 35.8265 22.7014 64.7822 0.0000 0.0000 0.0000
# 4 0.0000 0.0000 0.0000 34.7262 0.0000 0.0000
# 5 0.0000 0.0000 0.0000 0.0000 30.9735 0.0000
# 6 0.0000 0.0000 0.0000 0.0000 0.0000 22.6817
#
#
#
# Elastic Compliance Matrix: (Units=1/GPa)
#
#
# Indices 1 2 3 4 5 6 
#
# 1 0.019278 -0.006974 -0.008218 0.000000 0.000000 0.000000
# 2 -0.006974 0.019299 -0.002906 0.000000 0.000000 0.000000
# 3 -0.008218 -0.002906 0.020999 0.000000 0.000000 0.000000
# 4 0.000000 0.000000 0.000000 0.028797 0.000000 0.000000
# 5 0.000000 0.000000 0.000000 0.000000 0.032286 0.000000
# 6 0.000000 0.000000 0.000000 0.000000 0.000000 0.044088
#
#
# Mechanical properties :
#
#
# Convention : Reuss Voigt Hill
#
# Bulk Modulus (GPa) = 42.76987 44.12551 43.44769
# Shear Modulus (GPa) = 23.95378 25.62209 24.78793
#
# Velocity S-wave (km/s) = 3.43315 3.55069 3.49242
# Velocity P-wave (km/s) = 6.06304 6.20661 6.13524
#
# Compressibility (1/GPa) = 0.02338094
#
# Stress axis : x y z
#
# Youngs Moduli (GPa) = 51.87190 51.81741 47.62099
#
# Poissons Ratio (x) = 0.36138 0.39133
# Poissons Ratio (y) = 0.36176 0.13838
# Poissons Ratio (z) = 0.42626 0.15057
#
# Static dielectric constant tensor:
#      x y z
#    x 1.826290 0.000000 0.000000 
#    y 0.000000 1.739410 0.000000 
#    z 0.000000 0.000000 1.814640 
# 
# From -- ./inp_files/45658.got.cif
#   From: 2010.05.17/outbox.cif.g08.bks.cpg/sg72_23_cif.got.tgz:45658.got - 2010.06.03 17:03:01.
