data_PCOD9528605
_publ_section_title
;
Structure prediction by ZEFSAII (Michael W. Deem and Ramdas Pophale) SiO2 
 PCOD9528605
Probable space group: I B A M
;
_chemical_formula_sum "Si O2"
_cell_formula_units_Z 72
_cell_length_a 8.783962
_cell_length_b 14.177375
_cell_length_c 27.022104
_cell_angle_alpha 90.000000
_cell_angle_beta 90.000000
_cell_angle_gamma 90.000000
_cell_volume 3365.157817
_symmetry_space_group_name_H-M "I B A M"
_symmetry_group_IT_number 72
_symmetry_cell_setting 'orthorhombic'
loop_
_space_group_symop_operation_xyz
x,y,z
-x,-y,z
x,-y,1/2-z
-x,y,1/2-z
-x,-y,-z
x,y,-z
-x,y,1/2+z
x,-y,1/2+z
1/2+x,1/2+y,1/2+z
1/2-x,1/2-y,1/2+z
1/2+x,1/2-y,-z
1/2-x,1/2+y,-z
1/2-x,1/2-y,1/2-z
1/2+x,1/2+y,1/2-z
1/2-x,1/2+y,z
1/2+x,1/2-y,z
loop_
_atom_site_type_symbol
_atom_site_label
_atom_site_fract_x
_atom_site_fract_y
_atom_site_fract_z
Si Si1 0.652052 0.546880 0.345574
Si Si2 0.346170 0.798588 0.393126
Si Si3 0.743582 0.671081 0.500000
Si Si4 0.500000 0.500000 0.250000
Si Si5 0.000000 0.000000 0.500000
Si Si6 0.662405 0.113782 0.110970
Si Si7 0.696114 0.887408 0.500000
O O1 0.500000 0.500000 0.370376
O O2 0.709192 0.642647 0.368654
O O3 0.604013 0.557303 0.288425
O O4 0.786101 0.471970 0.354732
O O5 0.340563 0.825974 0.450456
O O6 0.508309 0.833257 0.373401
O O7 0.300595 0.689608 0.388330
O O8 0.638958 0.579125 0.500000
O O9 0.664202 0.774389 0.500000
O O10 0.874646 0.913289 0.500000
O O11 0.643845 0.078212 0.054255
#
# Coordination Sequence:
#
# PCOD9528605 Si02
#       7
#    16  16   8   4   4  16   8
#     4  10  22  43  68  90 124 168 216 278 343 395
#     4  11  23  39  65  98 140 177 220 268 326 403
#     4  10  25  36  63  97 145 187 231 267 321 408
#     4   8  24  46  74  86 128 162 218 302 348 406
#     4  12  24  38  62  86 128 210 234 278 328 374
#     4  11  23  39  65  98 140 177 220 268 326 403
#     4  10  25  36  63  97 145 187 231 267 321 408
#
# _framework density 21.395727000000001
#
# number of rings (size 3 to 8) (size 9 to 14) (size 15 to 20)
#    0.667    0.889    0.000    4.000   18.667    0.000 
#    0.000    6.667    0.000    0.000    0.000    0.000 
#    0.000    0.000    0.000    0.000    0.000    0.000 
#
# Total GULP energy -200421.082451 kJ/mol
# GULP energy per Si atom -5567.252290 kJ/mol
# Density = 2.134703 g / cm^3
# Si number density = 21.395727 Si / 1000 Ang^3
#
#
#
# Elastic Constant Matrix: (Units=GPa)
#
#
# Indices 1 2 3 4 5 6 
#
# 1 80.5494 21.2394 8.4324 0.0000 0.0000 0.0000
# 2 21.2394 106.5266 21.4378 0.0000 0.0000 0.0000
# 3 8.4324 21.4378 86.1373 0.0000 0.0000 0.0000
# 4 0.0000 0.0000 0.0000 -0.2835 0.0000 0.0000
# 5 0.0000 0.0000 0.0000 0.0000 4.7889 0.0000
# 6 0.0000 0.0000 0.0000 0.0000 0.0000 35.6970
#
#
#
# Elastic Compliance Matrix: (Units=1/GPa)
#
#
# Indices 1 2 3 4 5 6 
#
# 1 0.013140 -0.002485 -0.000668 0.000000 0.000000 0.000000
# 2 -0.002485 0.010352 -0.002333 0.000000 0.000000 0.000000
# 3 -0.000668 -0.002333 0.012255 0.000000 0.000000 0.000000
# 4 0.000000 0.000000 0.000000 -3.526778 0.000000 0.000000
# 5 0.000000 0.000000 0.000000 0.000000 0.208814 0.000000
# 6 0.000000 0.000000 0.000000 0.000000 0.000000 0.028014
#
#
# Mechanical properties :
#
#
# Convention : Reuss Voigt Hill
#
# Bulk Modulus (GPa) = 40.36326 41.71472 41.03899
# Shear Modulus (GPa) = -1.54561 22.84739 10.65089
#
# Velocity S-wave (km/s) = -0.85086 3.27134 2.23357
# Velocity P-wave (km/s) = 4.23566 5.81446 5.08669
#
# Compressibility (1/GPa) = 0.02477501
#
# Stress axis : x y z
#
# Youngs Moduli (GPa) = 76.10333 96.59574 81.59655
#
# Poissons Ratio (x) = 0.24009 0.05449
# Poissons Ratio (y) = 0.18915 0.19038
# Poissons Ratio (z) = 0.05082 0.22538
#
# Static dielectric constant tensor:
#      x y z
#    x 1.814050 0.000000 0.000000 
#    y 0.000000 1.772190 0.000000 
#    z 0.000000 0.000000 1.794940 
# 
# From -- ./inp_files/50728.got.cif
#   From: 2010.05.17/outbox.cif.g08.bks.cpg/sg72_26_cif.got.tgz:50728.got - 2010.06.03 17:03:01.
