data_PCOD9528956
_publ_section_title
;
Structure prediction by ZEFSAII (Michael W. Deem and Ramdas Pophale) SiO2 
 PCOD9528956
Probable space group: I B A M
;
_chemical_formula_sum "Si O2"
_cell_formula_units_Z 116
_cell_length_a 27.711279
_cell_length_b 11.347868
_cell_length_c 18.345153
_cell_angle_alpha 90.000000
_cell_angle_beta 90.000000
_cell_angle_gamma 90.000000
_cell_volume 5768.889023
_symmetry_space_group_name_H-M "I B A M"
_symmetry_group_IT_number 72
_symmetry_cell_setting 'orthorhombic'
loop_
_space_group_symop_operation_xyz
x,y,z
-x,-y,z
x,-y,1/2-z
-x,y,1/2-z
-x,-y,-z
x,y,-z
-x,y,1/2+z
x,-y,1/2+z
1/2+x,1/2+y,1/2+z
1/2-x,1/2-y,1/2+z
1/2+x,1/2-y,-z
1/2-x,1/2+y,-z
1/2-x,1/2-y,1/2-z
1/2+x,1/2+y,1/2-z
1/2-x,1/2+y,z
1/2+x,1/2-y,z
loop_
_atom_site_type_symbol
_atom_site_label
_atom_site_fract_x
_atom_site_fract_y
_atom_site_fract_z
Si Si1 0.572093 0.687042 0.285005
Si Si2 0.226787 0.745359 0.331565
Si Si3 0.837881 0.960752 0.831479
Si Si4 0.823365 0.805078 0.413898
Si Si5 0.000000 0.000000 0.000000
Si Si6 0.902910 0.385706 0.913144
Si Si7 0.028344 0.821767 0.868093
Si Si8 0.366878 0.088292 0.686850
O O1 0.612188 0.608348 0.323994
O O2 0.524875 0.694078 0.334510
O O3 0.558802 0.640751 0.204218
O O4 0.596509 0.815323 0.280234
O O5 0.250000 0.750000 0.250000
O O6 0.204135 0.870923 0.353711
O O7 0.270018 0.710909 0.383763
O O8 0.181694 0.655817 0.336703
O O9 0.824750 0.000000 0.750000
O O10 0.842848 0.073654 0.881359
O O11 0.824111 0.810990 0.500000
O O12 0.857114 0.696178 0.391714
O O13 0.023956 0.913335 0.934815
O O14 0.948564 0.303215 0.892703
O O15 0.894695 0.509911 0.873165
O O16 0.902984 0.402992 0.000000
O O17 0.351867 0.000000 0.750000
#
# Coordination Sequence:
#
# PCOD9528956 Si02
#       8
#    16  16  16  16   4  16  16  16
#     4  10  25  44  69 102 136 177 236 290 339 412
#     4  11  24  41  65 100 129 177 232 285 346 422
#     4  11  23  41  67  96 133 170 228 291 346 411
#     4  11  26  42  66  97 137 178 224 287 355 420
#     4  12  28  42  72 102 148 186 224 284 362 430
#     4  11  24  45  67  99 141 181 229 281 353 425
#     4  11  24  45  68 103 136 184 230 282 350 421
#     4  11  23  43  71  97 136 181 230 291 344 408
#
# _framework density 20.107856999999999
#
# number of rings (size 3 to 8) (size 9 to 14) (size 15 to 20)
#    0.000    1.103    3.448    1.655    7.724    2.207 
#    1.241    2.069    0.000    0.000    0.000    0.000 
#    0.000    0.000    0.000    0.000    0.000    0.000 
#
# Total GULP energy -323670.414671 kJ/mol
# GULP energy per Si atom -5580.524391 kJ/mol
# Density = 2.006209 g / cm^3
# Si number density = 20.107857 Si / 1000 Ang^3
#
#
#
# Elastic Constant Matrix: (Units=GPa)
#
#
# Indices 1 2 3 4 5 6 
#
# 1 95.3287 49.6911 42.6444 0.0000 0.0000 0.0000
# 2 49.6911 93.4317 41.9237 0.0000 0.0000 0.0000
# 3 42.6444 41.9237 99.2083 0.0000 0.0000 0.0000
# 4 0.0000 0.0000 0.0000 40.5906 0.0000 0.0000
# 5 0.0000 0.0000 0.0000 0.0000 -27.8405 0.0000
# 6 0.0000 0.0000 0.0000 0.0000 0.0000 84.2723
#
#
#
# Elastic Compliance Matrix: (Units=1/GPa)
#
#
# Indices 1 2 3 4 5 6 
#
# 1 0.015686 -0.006561 -0.003970 0.000000 0.000000 0.000000
# 2 -0.006561 0.015952 -0.003921 0.000000 0.000000 0.000000
# 3 -0.003970 -0.003921 0.013443 0.000000 0.000000 0.000000
# 4 0.000000 0.000000 0.000000 0.024636 0.000000 0.000000
# 5 0.000000 0.000000 0.000000 0.000000 -0.035919 0.000000
# 6 0.000000 0.000000 0.000000 0.000000 0.000000 0.011866
#
#
# Mechanical properties :
#
#
# Convention : Reuss Voigt Hill
#
# Bulk Modulus (GPa) = 61.81489 61.83189 61.82339
# Shear Modulus (GPa) = 62.53087 29.65176 46.09131
#
# Velocity S-wave (km/s) = 5.58258 3.84426 4.79289
# Velocity P-wave (km/s) = 8.50659 7.10784 7.83848
#
# Compressibility (1/GPa) = 0.01617733
#
# Stress axis : x y z
#
# Youngs Moduli (GPa) = 63.75103 62.68903 74.38778
#
# Poissons Ratio (x) = 0.41131 0.29532
# Poissons Ratio (y) = 0.41828 0.29165
# Poissons Ratio (z) = 0.25309 0.24578
#
# Static dielectric constant tensor:
#      x y z
#    x 1.855710 0.000000 0.000000 
#    y 0.000000 1.743300 0.000000 
#    z 0.000000 0.000000 1.694400 
# 
# From -- ./inp_files/29698.got.cif
#   From: 2010.05.17/outbox.cif.g08.bks.cpg/sg72_15_cif.got.tgz:29698.got - 2010.06.03 17:03:01.
