data_PCOD9528888
_publ_section_title
;
Structure prediction by ZEFSAII (Michael W. Deem and Ramdas Pophale) SiO2 
 PCOD9528888
Probable space group: I B A M
;
_chemical_formula_sum "Si O2"
_cell_formula_units_Z 104
_cell_length_a 18.712821
_cell_length_b 9.006808
_cell_length_c 30.709380
_cell_angle_alpha 90.000000
_cell_angle_beta 90.000000
_cell_angle_gamma 90.000000
_cell_volume 5175.844458
_symmetry_space_group_name_H-M "I B A M"
_symmetry_group_IT_number 72
_symmetry_cell_setting 'orthorhombic'
loop_
_space_group_symop_operation_xyz
x,y,z
-x,-y,z
x,-y,1/2-z
-x,y,1/2-z
-x,-y,-z
x,y,-z
-x,y,1/2+z
x,-y,1/2+z
1/2+x,1/2+y,1/2+z
1/2-x,1/2-y,1/2+z
1/2+x,1/2-y,-z
1/2-x,1/2+y,-z
1/2-x,1/2-y,1/2-z
1/2+x,1/2+y,1/2-z
1/2-x,1/2+y,z
1/2+x,1/2-y,z
loop_
_atom_site_type_symbol
_atom_site_label
_atom_site_fract_x
_atom_site_fract_y
_atom_site_fract_z
Si Si1 0.376584 0.863227 0.421358
Si Si2 0.182864 0.812407 0.000000
Si Si3 0.500000 0.500000 0.321805
Si Si4 0.667688 0.492837 0.199444
Si Si5 0.492108 0.167373 0.362542
Si Si6 0.234625 0.264978 0.353974
Si Si7 0.644831 0.181724 0.081517
Si Si8 0.164947 0.845098 0.500000
O O1 0.356777 0.742712 0.456762
O O2 0.456293 0.846703 0.404195
O O3 0.327758 0.856830 0.377829
O O4 0.361106 0.023279 0.441495
O O5 0.185464 0.986412 0.000000
O O6 0.262103 0.747833 0.000000
O O7 0.580827 0.518238 0.302201
O O8 0.508551 0.330694 0.342126
O O9 0.688534 0.500000 0.250000
O O10 0.710550 0.360143 0.175271
O O11 0.696159 0.638387 0.174144
O O12 0.412021 0.179528 0.379764
O O13 0.500000 0.000000 0.340285
O O14 0.279703 0.203765 0.395023
O O15 0.627625 0.303794 0.045316
#
# Coordination Sequence:
#
# PCOD9528888 Si02
#       8
#    16   8   8  16  16  16  16   8
#     4  11  23  42  65  93 132 178 224 281 337 405
#     4  12  26  37  60  97 133 172 230 284 344 407
#     4  12  23  44  78 101 142 184 234 289 360 432
#     4  12  27  46  70 105 140 176 230 295 361 429
#     4  10  24  42  68 102 137 183 238 281 345 426
#     4  12  23  41  70  96 130 178 222 279 345 414
#     4  11  23  42  65  93 132 178 224 281 337 405
#     4  12  26  37  60  97 133 172 230 284 344 407
#
# _framework density 20.093337999999999
#
# number of rings (size 3 to 8) (size 9 to 14) (size 15 to 20)
#    0.000    0.615    6.154    2.077    4.308    0.615 
#    0.000    3.077    0.000    0.923    0.000    0.000 
#    0.000    0.000    0.000    0.000    0.000    0.000 
#
# Total GULP energy -289738.790873 kJ/mol
# GULP energy per Si atom -5571.899824 kJ/mol
# Density = 2.004761 g / cm^3
# Si number density = 20.093338 Si / 1000 Ang^3
#
#
#
# Elastic Constant Matrix: (Units=GPa)
#
#
# Indices 1 2 3 4 5 6 
#
# 1 84.0724 9.4708 11.4723 0.0000 0.0000 0.0000
# 2 9.4708 144.3901 32.9862 0.0000 0.0000 0.0000
# 3 11.4723 32.9862 73.8061 0.0000 0.0000 0.0000
# 4 0.0000 0.0000 0.0000 12.2460 0.0000 0.0000
# 5 0.0000 0.0000 0.0000 0.0000 19.0514 0.0000
# 6 0.0000 0.0000 0.0000 0.0000 0.0000 32.7181
#
#
#
# Elastic Compliance Matrix: (Units=1/GPa)
#
#
# Indices 1 2 3 4 5 6 
#
# 1 0.012174 -0.000408 -0.001710 0.000000 0.000000 0.000000
# 2 -0.000408 0.007727 -0.003390 0.000000 0.000000 0.000000
# 3 -0.001710 -0.003390 0.015330 0.000000 0.000000 0.000000
# 4 0.000000 0.000000 0.000000 0.081659 0.000000 0.000000
# 5 0.000000 0.000000 0.000000 0.000000 0.052490 0.000000
# 6 0.000000 0.000000 0.000000 0.000000 0.000000 0.030564
#
#
# Mechanical properties :
#
#
# Convention : Reuss Voigt Hill
#
# Bulk Modulus (GPa) = 41.29687 45.56972 43.43329
# Shear Modulus (GPa) = 22.82782 29.35904 26.09343
#
# Velocity S-wave (km/s) = 3.37425 3.82662 3.60753
# Velocity P-wave (km/s) = 5.98146 6.50018 6.24621
#
# Compressibility (1/GPa) = 0.02421491
#
# Stress axis : x y z
#
# Youngs Moduli (GPa) = 82.14367 129.41823 65.23195
#
# Poissons Ratio (x) = 0.05278 0.11155
# Poissons Ratio (y) = 0.03350 0.22114
# Poissons Ratio (z) = 0.14047 0.43873
#
# Static dielectric constant tensor:
#      x y z
#    x 1.702240 0.000000 0.000000 
#    y 0.000000 1.775300 0.000000 
#    z 0.000000 0.000000 1.686180 
# 
# From -- ./inp_files/49453.got.cif
#   From: 2010.05.17/outbox.cif.g08.bks.cpg/sg72_25_cif.got.tgz:49453.got - 2010.06.03 17:03:01.
