data_PCOD9528546
_publ_section_title
;
Structure prediction by ZEFSAII (Michael W. Deem and Ramdas Pophale) SiO2 
 PCOD9528546
Probable space group: I B A M
;
_chemical_formula_sum "Si O2"
_cell_formula_units_Z 88
_cell_length_a 11.880032
_cell_length_b 23.961205
_cell_length_c 14.720200
_cell_angle_alpha 90.000000
_cell_angle_beta 90.000000
_cell_angle_gamma 90.000000
_cell_volume 4190.250397
_symmetry_space_group_name_H-M "I B A M"
_symmetry_group_IT_number 72
_symmetry_cell_setting 'orthorhombic'
loop_
_space_group_symop_operation_xyz
x,y,z
-x,-y,z
x,-y,1/2-z
-x,y,1/2-z
-x,-y,-z
x,y,-z
-x,y,1/2+z
x,-y,1/2+z
1/2+x,1/2+y,1/2+z
1/2-x,1/2-y,1/2+z
1/2+x,1/2-y,-z
1/2-x,1/2+y,-z
1/2-x,1/2-y,1/2-z
1/2+x,1/2+y,1/2-z
1/2-x,1/2+y,z
1/2+x,1/2-y,z
loop_
_atom_site_type_symbol
_atom_site_label
_atom_site_fract_x
_atom_site_fract_y
_atom_site_fract_z
Si Si1 0.755716 0.403381 0.102982
Si Si2 0.301797 0.740989 0.348920
Si Si3 0.639917 0.200952 0.000000
Si Si4 0.871707 0.019178 0.894294
Si Si5 0.029642 0.343456 0.643939
Si Si6 0.129070 0.126385 0.277996
O O1 0.709578 0.466087 0.114803
O O2 0.888233 0.393677 0.114981
O O3 0.698942 0.368934 0.184720
O O4 0.723664 0.386338 0.000000
O O5 0.250000 0.750000 0.250000
O O6 0.203979 0.738213 0.421721
O O7 0.395892 0.787051 0.370191
O O8 0.355637 0.679218 0.343219
O O9 0.577251 0.163795 0.080110
O O10 0.838199 0.070140 0.830615
O O11 0.871956 0.037002 0.000000
O O12 0.000000 0.000000 0.872681
O O13 0.000000 0.347460 0.750000
O O14 0.000000 0.122013 0.250000
#
# Coordination Sequence:
#
# PCOD9528546 Si02
#       6
#    16  16   8  16  16  16
#     4  11  23  41  68 100 133 183 230 280 354 429
#     4  12  26  45  66 107 136 183 238 291 350 430
#     4  12  26  46  72  91 150 191 227 299 353 405
#     4  10  22  42  65 101 141 174 223 294 357 424
#     4  12  24  48  73 102 144 189 239 293 353 425
#     4  12  24  40  69 100 141 182 224 291 361 422
#
# _framework density 21.001131000000001
#
# number of rings (size 3 to 8) (size 9 to 14) (size 15 to 20)
#    0.000    0.545    6.364    1.636    1.273    0.000 
#    0.000    0.000    0.000    8.727    0.000    0.000 
#    0.000    0.000    0.000    0.000    0.000    0.000 
#
# Total GULP energy -245029.728406 kJ/mol
# GULP energy per Si atom -5568.857464 kJ/mol
# Density = 2.095333 g / cm^3
# Si number density = 21.001131 Si / 1000 Ang^3
#
#
#
# Elastic Constant Matrix: (Units=GPa)
#
#
# Indices 1 2 3 4 5 6 
#
# 1 46.7469 25.0935 21.4023 0.0000 0.0000 0.0000
# 2 25.0935 97.1131 27.0217 0.0001 0.0000 -0.0001
# 3 21.4023 27.0217 137.9651 0.0000 0.0000 -0.0001
# 4 0.0000 0.0001 0.0000 2.0908 0.0000 -0.0001
# 5 0.0000 0.0000 0.0000 0.0000 40.2384 0.0000
# 6 0.0000 -0.0001 -0.0001 -0.0001 0.0000 36.3641
#
#
#
# Elastic Compliance Matrix: (Units=1/GPa)
#
#
# Indices 1 2 3 4 5 6 
#
# 1 0.025861 -0.005887 -0.002859 0.000000 0.000000 0.000000
# 2 -0.005887 0.012231 -0.001482 -0.000001 0.000000 0.000000
# 3 -0.002859 -0.001482 0.007982 0.000000 0.000000 0.000000
# 4 0.000000 -0.000001 0.000000 0.478295 0.000000 0.000001
# 5 0.000000 0.000000 0.000000 0.000000 0.024852 0.000000
# 6 0.000000 0.000000 0.000000 0.000001 0.000000 0.027500
#
#
# Mechanical properties :
#
#
# Convention : Reuss Voigt Hill
#
# Bulk Modulus (GPa) = 39.03537 47.65111 43.34324
# Shear Modulus (GPa) = 8.25471 29.62583 18.94027
#
# Velocity S-wave (km/s) = 1.98473 3.75997 3.00637
# Velocity P-wave (km/s) = 4.88670 6.44895 5.72139
#
# Compressibility (1/GPa) = 0.02561779
#
# Stress axis : x y z
#
# Youngs Moduli (GPa) = 38.66882 81.76054 125.28179
#
# Poissons Ratio (x) = 0.48131 0.35815
# Poissons Ratio (y) = 0.22764 0.18571
# Poissons Ratio (z) = 0.11054 0.12119
#
# Static dielectric constant tensor:
#      x y z
#    x 1.769280 0.000000 0.000000 
#    y 0.000000 1.775410 0.000000 
#    z 0.000000 0.000000 1.822810 
# 
# From -- ./inp_files/20300.got.cif
#   From: 2010.05.17/outbox.cif.g08.bks.cpg/sg72_11_cif.got.tgz:20300.got - 2010.06.03 17:03:01.
