data_PCOD9528265
_publ_section_title
;
Structure prediction by ZEFSAII (Michael W. Deem and Ramdas Pophale) SiO2 
 PCOD9528265
Probable space group: I B A M
;
_chemical_formula_sum "Si O2"
_cell_formula_units_Z 44
_cell_length_a 12.071020
_cell_length_b 18.461117
_cell_length_c 8.338693
_cell_angle_alpha 90.000000
_cell_angle_beta 90.000000
_cell_angle_gamma 90.000000
_cell_volume 1858.231977
_symmetry_space_group_name_H-M "I B A M"
_symmetry_group_IT_number 72
_symmetry_cell_setting 'orthorhombic'
loop_
_space_group_symop_operation_xyz
x,y,z
-x,-y,z
x,-y,1/2-z
-x,y,1/2-z
-x,-y,-z
x,y,-z
-x,y,1/2+z
x,-y,1/2+z
1/2+x,1/2+y,1/2+z
1/2-x,1/2-y,1/2+z
1/2+x,1/2-y,-z
1/2-x,1/2+y,-z
1/2-x,1/2-y,1/2-z
1/2+x,1/2+y,1/2-z
1/2-x,1/2+y,z
1/2+x,1/2-y,z
loop_
_atom_site_type_symbol
_atom_site_label
_atom_site_fract_x
_atom_site_fract_y
_atom_site_fract_z
Si Si1 0.661402 0.160859 0.500000
Si Si2 0.170412 0.582177 0.315922
Si Si3 0.000000 0.000000 0.750000
Si Si4 0.907800 0.896172 0.000000
Si Si5 0.150047 0.833060 0.000000
O O1 0.616700 0.125558 0.665867
O O2 0.792296 0.142720 0.500000
O O3 0.655551 0.247068 0.500000
O O4 0.182577 0.500000 0.250000
O O5 0.121699 0.578432 0.500000
O O6 0.282364 0.628909 0.355194
O O7 0.922110 0.049274 0.645390
O O8 0.020287 0.850225 0.000000
#
# Coordination Sequence:
#
# PCOD9528265 Si02
#       5
#     8  16   4   8   8
#     4  12  22  40  60  82 132 164 196 256 304 366
#     4  10  22  35  58  87 117 156 202 245 304 366
#     4  10  24  34  56  94 128 144 198 254 312 378
#     4  11  24  34  60  88 125 158 196 248 311 368
#     4  10  24  38  54  92 122 162 210 236 314 370
#
# _framework density 23.678422999999999
#
# number of rings (size 3 to 8) (size 9 to 14) (size 15 to 20)
#    1.091    0.364    1.818    3.273   15.273    0.000 
#    0.000    0.000    0.000    0.000    0.000    7.636 
#    0.000    0.000    0.000    0.000    0.000    0.000 
#
# Total GULP energy -122719.678803 kJ/mol
# GULP energy per Si atom -5578.167218 kJ/mol
# Density = 2.362453 g / cm^3
# Si number density = 23.678423 Si / 1000 Ang^3
#
#
#
# Elastic Constant Matrix: (Units=GPa)
#
#
# Indices 1 2 3 4 5 6 
#
# 1 81.1328 39.7352 42.5054 0.0000 0.0000 0.0000
# 2 39.7352 232.6533 93.8371 0.0000 0.0000 0.0000
# 3 42.5054 93.8371 234.9166 -0.0001 0.0000 0.0000
# 4 0.0000 0.0000 -0.0001 24.8903 0.0000 0.0000
# 5 0.0000 0.0000 0.0000 0.0000 27.6084 0.0000
# 6 0.0000 0.0000 0.0000 0.0000 0.0000 -49.0321
#
#
#
# Elastic Compliance Matrix: (Units=1/GPa)
#
#
# Indices 1 2 3 4 5 6 
#
# 1 0.014127 -0.001647 -0.001898 0.000000 0.000000 0.000000
# 2 -0.001647 0.005316 -0.001825 0.000000 0.000000 0.000000
# 3 -0.001898 -0.001825 0.005329 0.000000 0.000000 0.000000
# 4 0.000000 0.000000 0.000000 0.040176 0.000000 0.000000
# 5 0.000000 0.000000 0.000000 0.000000 0.036221 0.000000
# 6 0.000000 0.000000 0.000000 0.000000 0.000000 -0.020395
#
#
# Mechanical properties :
#
#
# Convention : Reuss Voigt Hill
#
# Bulk Modulus (GPa) = 71.27277 100.09533 85.68405
# Shear Modulus (GPa) = 51.97930 25.53498 38.75714
#
# Velocity S-wave (km/s) = 4.69040 3.28747 4.05014
# Velocity P-wave (km/s) = 7.71354 7.53489 7.62474
#
# Compressibility (1/GPa) = 0.01403060
#
# Stress axis : x y z
#
# Youngs Moduli (GPa) = 70.78859 188.11890 187.63829
#
# Poissons Ratio (x) = 0.30986 0.35615
# Poissons Ratio (y) = 0.11660 0.34251
# Poissons Ratio (z) = 0.13436 0.34338
#
# Static dielectric constant tensor:
#      x y z
#    x 2.010440 0.000000 0.000000 
#    y 0.000000 1.844650 0.000000 
#    z 0.000000 0.000000 2.005260 
# 
# From -- ./inp_files/2983.got.cif
#   From: 2010.05.17/outbox.cif.g08.bks.cpg/sg72_2_cif.got.tgz:2983.got - 2010.06.03 17:03:01.
