data_PCOD9528838
_publ_section_title
;
Structure prediction by ZEFSAII (Michael W. Deem and Ramdas Pophale) SiO2 
 PCOD9528838
Probable space group: I B A M
;
_chemical_formula_sum "Si O2"
_cell_formula_units_Z 80
_cell_length_a 26.755972
_cell_length_b 10.411094
_cell_length_c 13.933160
_cell_angle_alpha 90.000000
_cell_angle_beta 90.000000
_cell_angle_gamma 90.000000
_cell_volume 3881.206274
_symmetry_space_group_name_H-M "I B A M"
_symmetry_group_IT_number 72
_symmetry_cell_setting 'orthorhombic'
loop_
_space_group_symop_operation_xyz
x,y,z
-x,-y,z
x,-y,1/2-z
-x,y,1/2-z
-x,-y,-z
x,y,-z
-x,y,1/2+z
x,-y,1/2+z
1/2+x,1/2+y,1/2+z
1/2-x,1/2-y,1/2+z
1/2+x,1/2-y,-z
1/2-x,1/2+y,-z
1/2-x,1/2-y,1/2-z
1/2+x,1/2+y,1/2-z
1/2-x,1/2+y,z
1/2+x,1/2-y,z
loop_
_atom_site_type_symbol
_atom_site_label
_atom_site_fract_x
_atom_site_fract_y
_atom_site_fract_z
Si Si1 0.549871 0.857447 0.690456
Si Si2 0.028485 0.198253 0.000000
Si Si3 0.419490 0.431260 0.000000
Si Si4 0.645962 0.001476 0.885276
Si Si5 0.392391 0.369855 0.208281
Si Si6 0.692775 0.789869 0.256784
O O1 0.500000 0.884198 0.750000
O O2 0.534923 0.784768 0.593199
O O3 0.589769 0.965983 0.654571
O O4 0.577469 0.753128 0.756688
O O5 0.973996 0.134576 0.000000
O O6 0.069302 0.083620 0.000000
O O7 0.391657 0.386468 0.095023
O O8 0.678033 0.125561 0.850051
O O9 0.671626 0.880836 0.830409
O O10 0.644850 0.986864 0.000000
O O11 0.415557 0.500000 0.250000
O O12 0.338524 0.341389 0.252679
O O13 0.750000 0.750000 0.250000
#
# Coordination Sequence:
#
# PCOD9528838 Si02
#       6
#    16   8   8  16  16  16
#     4  11  21  39  67  97 144 187 223 272 337 404
#     4  11  20  34  61  94 140 189 230 273 332 397
#     4  11  22  34  59  98 138 179 240 282 330 405
#     4  10  23  45  72 103 135 178 229 280 337 416
#     4  11  23  38  62  96 135 177 227 284 338 399
#     4  10  25  47  70  95 134 171 224 290 354 405
#
# _framework density 20.612148999999999
#
# number of rings (size 3 to 8) (size 9 to 14) (size 15 to 20)
#    0.000    1.400    5.000    0.000    4.200    1.200 
#    0.000    8.000    0.000   12.000    0.000    0.000 
#    0.000    0.000    0.000    0.000    0.000    0.000 
#
# Total GULP energy -223324.973196 kJ/mol
# GULP energy per Si atom -5583.124330 kJ/mol
# Density = 2.056523 g / cm^3
# Si number density = 20.612149 Si / 1000 Ang^3
#
#
#
# Elastic Constant Matrix: (Units=GPa)
#
#
# Indices 1 2 3 4 5 6 
#
# 1 135.5851 37.5181 18.3892 0.0000 0.0000 0.0000
# 2 37.5181 104.2564 42.6773 0.0000 0.0000 0.0000
# 3 18.3892 42.6773 160.5476 0.0000 0.0000 0.0000
# 4 0.0000 0.0000 0.0000 35.6738 0.0000 0.0000
# 5 0.0000 0.0000 0.0000 0.0000 11.5475 0.0000
# 6 0.0000 0.0000 0.0000 0.0000 0.0000 17.5318
#
#
#
# Elastic Compliance Matrix: (Units=1/GPa)
#
#
# Indices 1 2 3 4 5 6 
#
# 1 0.008195 -0.002878 -0.000174 0.000000 0.000000 0.000000
# 2 -0.002878 0.011774 -0.002800 0.000000 0.000000 0.000000
# 3 -0.000174 -0.002800 0.006993 0.000000 0.000000 0.000000
# 4 0.000000 0.000000 0.000000 0.028032 0.000000 0.000000
# 5 0.000000 0.000000 0.000000 0.000000 0.086599 0.000000
# 6 0.000000 0.000000 0.000000 0.000000 0.000000 0.057039
#
#
# Mechanical properties :
#
#
# Convention : Reuss Voigt Hill
#
# Bulk Modulus (GPa) = 65.53807 66.39538 65.96672
# Shear Modulus (GPa) = 23.21029 33.07091 28.14060
#
# Velocity S-wave (km/s) = 3.35931 4.00989 3.69893
# Velocity P-wave (km/s) = 6.84919 7.32944 7.09338
#
# Compressibility (1/GPa) = 0.01525831
#
# Stress axis : x y z
#
# Youngs Moduli (GPa) = 122.01950 84.93524 143.00238
#
# Poissons Ratio (x) = 0.24446 0.02483
# Poissons Ratio (y) = 0.35119 0.40041
# Poissons Ratio (z) = 0.02119 0.23782
#
# Static dielectric constant tensor:
#      x y z
#    x 2.755860 0.000000 0.000000 
#    y 0.000000 1.786570 0.000000 
#    z 0.000000 0.000000 1.735630 
# 
# From -- ./inp_files/24935.got.cif
#   From: 2010.05.17/outbox.cif.g08.bks.cpg/sg72_13_cif.got.tgz:24935.got - 2010.06.03 17:03:01.
