data_PCOD9528612
_publ_section_title
;
Structure prediction by ZEFSAII (Michael W. Deem and Ramdas Pophale) SiO2 
 PCOD9528612
Probable space group: I B A M
;
_chemical_formula_sum "Si O2"
_cell_formula_units_Z 68
_cell_length_a 12.726196
_cell_length_b 19.188772
_cell_length_c 14.003548
_cell_angle_alpha 90.000000
_cell_angle_beta 90.000000
_cell_angle_gamma 90.000000
_cell_volume 3419.667450
_symmetry_space_group_name_H-M "I B A M"
_symmetry_group_IT_number 72
_symmetry_cell_setting 'orthorhombic'
loop_
_space_group_symop_operation_xyz
x,y,z
-x,-y,z
x,-y,1/2-z
-x,y,1/2-z
-x,-y,-z
x,y,-z
-x,y,1/2+z
x,-y,1/2+z
1/2+x,1/2+y,1/2+z
1/2-x,1/2-y,1/2+z
1/2+x,1/2-y,-z
1/2-x,1/2+y,-z
1/2-x,1/2-y,1/2-z
1/2+x,1/2+y,1/2-z
1/2-x,1/2+y,z
1/2+x,1/2-y,z
loop_
_atom_site_type_symbol
_atom_site_label
_atom_site_fract_x
_atom_site_fract_y
_atom_site_fract_z
Si Si1 0.320091 0.038800 0.650859
Si Si2 0.121591 0.684966 0.272314
Si Si3 0.894202 0.965078 0.110953
Si Si4 0.797923 0.182676 0.383268
Si Si5 0.500000 0.000000 0.500000
O O1 0.333469 0.120635 0.667164
O O2 0.336950 0.000000 0.750000
O O3 0.203014 0.017885 0.619317
O O4 0.408659 0.011108 0.581034
O O5 0.137857 0.753903 0.336150
O O6 0.186529 0.687153 0.172569
O O7 0.000000 0.673650 0.250000
O O8 0.852979 0.890260 0.147248
O O9 0.915628 0.950907 0.000000
O O10 0.000000 0.000000 0.149771
O O11 0.789103 0.185956 0.500000
#
# Coordination Sequence:
#
# PCOD9528612 Si02
#       5
#    16  16  16  16   4
#     4  12  24  43  67 104 134 183 228 280 350 412
#     4  11  25  44  66 101 137 176 230 284 344 424
#     4  10  22  43  70  98 134 178 231 284 339 406
#     4  10  24  45  67  97 135 178 227 282 349 406
#     4  12  26  40  70  94 148 172 228 290 342 412
#
# _framework density 19.884975000000001
#
# number of rings (size 3 to 8) (size 9 to 14) (size 15 to 20)
#    0.000    1.176    3.529    1.765    1.647    5.176 
#    0.000    2.353    0.000    0.000    0.000    0.000 
#    0.000    0.000    0.000    0.000    0.000    0.000 
#
# Total GULP energy -189314.944667 kJ/mol
# GULP energy per Si atom -5568.086608 kJ/mol
# Density = 1.983972 g / cm^3
# Si number density = 19.884975 Si / 1000 Ang^3
#
#
#
# Elastic Constant Matrix: (Units=GPa)
#
#
# Indices 1 2 3 4 5 6 
#
# 1 142.5121 62.5082 24.9466 0.0000 0.0000 0.0001
# 2 62.5082 130.4585 -0.8470 0.0003 -0.0001 0.0003
# 3 24.9466 -0.8470 85.9218 0.0004 -0.0002 0.0003
# 4 0.0000 0.0003 0.0004 -21.3080 -0.0002 0.0006
# 5 0.0000 -0.0001 -0.0002 -0.0002 33.5069 -0.0003
# 6 0.0001 0.0003 0.0003 0.0006 -0.0003 46.0922
#
#
#
# Elastic Compliance Matrix: (Units=1/GPa)
#
#
# Indices 1 2 3 4 5 6 
#
# 1 0.009516 -0.004578 -0.002808 0.000000 0.000000 0.000000
# 2 -0.004578 0.009868 0.001426 0.000000 0.000000 0.000000
# 3 -0.002808 0.001426 0.012468 0.000000 0.000000 0.000000
# 4 0.000000 0.000000 0.000000 -0.046931 0.000000 0.000001
# 5 0.000000 0.000000 0.000000 0.000000 0.029845 0.000000
# 6 0.000000 0.000000 0.000000 0.000001 0.000000 0.021696
#
#
# Mechanical properties :
#
#
# Convention : Reuss Voigt Hill
#
# Bulk Modulus (GPa) = 50.16797 59.12309 54.64553
# Shear Modulus (GPa) = 90.86677 29.81053 60.33865
#
# Velocity S-wave (km/s) = 6.76723 3.87608 5.51450
# Velocity P-wave (km/s) = 9.29217 7.05898 8.25147
#
# Compressibility (1/GPa) = 0.01993304
#
# Stress axis : x y z
#
# Youngs Moduli (GPa) = 105.08071 101.33719 80.20619
#
# Poissons Ratio (x) = 0.46392 0.22523
# Poissons Ratio (y) = 0.48106 -0.11441
# Poissons Ratio (z) = 0.29508 -0.14455
#
# Static dielectric constant tensor:
#      x y z
#    x 1.682590 0.000000 0.000000 
#    y 0.000000 1.713720 0.000000 
#    z 0.000000 0.000000 1.722180 
# 
# From -- ./inp_files/19947.got.cif
#   From: 2010.05.17/outbox.cif.g08.bks.cpg/sg72_10_cif.got.tgz:19947.got - 2010.06.03 17:03:01.
