data_PCOD9528621
_publ_section_title
;
Structure prediction by ZEFSAII (Michael W. Deem and Ramdas Pophale) SiO2 
 PCOD9528621
Probable space group: I B A M
;
_chemical_formula_sum "Si O2"
_cell_formula_units_Z 52
_cell_length_a 5.165295
_cell_length_b 20.566036
_cell_length_c 18.979549
_cell_angle_alpha 90.000000
_cell_angle_beta 90.000000
_cell_angle_gamma 90.000000
_cell_volume 2016.190713
_symmetry_space_group_name_H-M "I B A M"
_symmetry_group_IT_number 72
_symmetry_cell_setting 'orthorhombic'
loop_
_space_group_symop_operation_xyz
x,y,z
-x,-y,z
x,-y,1/2-z
-x,y,1/2-z
-x,-y,-z
x,y,-z
-x,y,1/2+z
x,-y,1/2+z
1/2+x,1/2+y,1/2+z
1/2-x,1/2-y,1/2+z
1/2+x,1/2-y,-z
1/2-x,1/2+y,-z
1/2-x,1/2-y,1/2-z
1/2+x,1/2+y,1/2-z
1/2-x,1/2+y,z
1/2+x,1/2-y,z
loop_
_atom_site_type_symbol
_atom_site_label
_atom_site_fract_x
_atom_site_fract_y
_atom_site_fract_z
Si Si1 0.711458 0.891175 0.149824
Si Si2 0.500000 0.000000 0.750000
Si Si3 0.370055 0.204012 0.420445
Si Si4 0.244027 0.954145 0.500000
Si Si5 0.500000 0.702734 0.750000
O O1 0.447902 0.849775 0.136820
O O2 0.778772 0.912390 0.071022
O O3 0.920283 0.845900 0.187154
O O4 0.661936 0.952923 0.199019
O O5 0.372409 0.175678 0.500000
O O6 0.107527 0.244728 0.415218
O O7 0.500000 0.000000 0.500000
O O8 0.000000 0.000000 0.500000
O O9 0.750000 0.750000 0.750000
#
# Coordination Sequence:
#
# PCOD9528621 Si02
#       5
#    16   4  16   8   8
#     4  12  27  53  81 120 164 220 278 350 419 512
#     4  12  30  48  88 118 174 228 284 344 436 516
#     4  10  22  43  75 112 147 195 257 330 404 477
#     4  12  30  52  82 118 162 218 286 345 418 505
#     4  12  29  51  82 121 167 220 272 346 434 518
#
# _framework density 25.791212000000002
#
# number of rings (size 3 to 8) (size 9 to 14) (size 15 to 20)
#    0.000    0.615    3.077    2.769    4.308    7.385 
#    0.000    0.000    0.000    0.000    0.000    0.000 
#    0.000    0.000    0.000    0.000    0.000    0.000 
#
# Total GULP energy -145847.321143 kJ/mol
# GULP energy per Si atom -5609.512352 kJ/mol
# Density = 2.573251 g / cm^3
# Si number density = 25.791212 Si / 1000 Ang^3
#
#
#
# Elastic Constant Matrix: (Units=GPa)
#
#
# Indices 1 2 3 4 5 6 
#
# 1 190.8231 79.6405 65.9590 0.0000 0.0000 0.0000
# 2 79.6405 159.0501 111.9763 0.0000 0.0000 0.0000
# 3 65.9590 111.9763 222.4236 0.0000 0.0000 0.0000
# 4 0.0000 0.0000 0.0000 84.1419 0.0000 0.0000
# 5 0.0000 0.0000 0.0000 0.0000 26.2238 0.0000
# 6 0.0000 0.0000 0.0000 0.0000 0.0000 31.2097
#
#
#
# Elastic Compliance Matrix: (Units=1/GPa)
#
#
# Indices 1 2 3 4 5 6 
#
# 1 0.006655 -0.003010 -0.000458 0.000000 0.000000 0.000000
# 2 -0.003010 0.011100 -0.004696 0.000000 0.000000 0.000000
# 3 -0.000458 -0.004696 0.006996 0.000000 0.000000 0.000000
# 4 0.000000 0.000000 0.000000 0.011885 0.000000 0.000000
# 5 0.000000 0.000000 0.000000 0.000000 0.038133 0.000000
# 6 0.000000 0.000000 0.000000 0.000000 0.000000 0.032041
#
#
# Mechanical properties :
#
#
# Convention : Reuss Voigt Hill
#
# Bulk Modulus (GPa) = 118.71409 120.82760 119.77084
# Shear Modulus (GPa) = 39.69953 49.29646 44.49800
#
# Velocity S-wave (km/s) = 3.92760 4.37666 4.15820
# Velocity P-wave (km/s) = 8.16682 8.51412 8.34228
#
# Compressibility (1/GPa) = 0.00842360
#
# Stress axis : x y z
#
# Youngs Moduli (GPa) = 150.26384 90.08734 142.94075
#
# Poissons Ratio (x) = 0.27113 0.06552
# Poissons Ratio (y) = 0.45224 0.67123
# Poissons Ratio (z) = 0.06887 0.42304
#
# Static dielectric constant tensor:
#      x y z
#    x 2.022120 0.000000 0.000000 
#    y 0.000000 1.979520 0.000000 
#    z 0.000000 0.000000 2.203600 
# 
# From -- ./inp_files/34614.got.cif
#   From: 2010.05.17/outbox.cif.g08.bks.cpg/sg72_18_cif.got.tgz:34614.got - 2010.06.03 17:03:01.
