data_PCOD9528641
_publ_section_title
;
Structure prediction by ZEFSAII (Michael W. Deem and Ramdas Pophale) SiO2 
 PCOD9528641
Probable space group: I B A M
;
_chemical_formula_sum "Si O2"
_cell_formula_units_Z 104
_cell_length_a 28.435399
_cell_length_b 20.599398
_cell_length_c 9.098998
_cell_angle_alpha 90.000000
_cell_angle_beta 90.000000
_cell_angle_gamma 90.000000
_cell_volume 5329.757198
_symmetry_space_group_name_H-M "I B A M"
_symmetry_group_IT_number 72
_symmetry_cell_setting 'orthorhombic'
loop_
_space_group_symop_operation_xyz
x,y,z
-x,-y,z
x,-y,1/2-z
-x,y,1/2-z
-x,-y,-z
x,y,-z
-x,y,1/2+z
x,-y,1/2+z
1/2+x,1/2+y,1/2+z
1/2-x,1/2-y,1/2+z
1/2+x,1/2-y,-z
1/2-x,1/2+y,-z
1/2-x,1/2-y,1/2-z
1/2+x,1/2+y,1/2-z
1/2-x,1/2+y,z
1/2+x,1/2-y,z
loop_
_atom_site_type_symbol
_atom_site_label
_atom_site_fract_x
_atom_site_fract_y
_atom_site_fract_z
Si Si1 0.179999 0.510434 0.000000
Si Si2 0.376474 0.684042 0.324394
Si Si3 0.894275 0.317143 0.328518
Si Si4 0.948126 0.565503 0.677841
Si Si5 0.724594 0.311588 0.174869
Si Si6 0.450392 0.568879 0.324171
Si Si7 0.691668 0.099095 0.240706
O O1 0.166552 0.564142 0.875158
O O2 0.195823 0.456861 0.877189
O O3 0.371634 0.694125 0.500000
O O4 0.398090 0.747712 0.247858
O O5 0.325365 0.675873 0.251302
O O6 0.410359 0.622597 0.299807
O O7 0.908171 0.315880 0.500000
O O8 0.923091 0.370705 0.238727
O O9 0.840497 0.342365 0.318616
O O10 0.926351 0.500000 0.750000
O O11 0.949571 0.560707 0.500000
O O12 0.000000 0.568197 0.750000
O O13 0.750000 0.250000 0.250000
O O14 0.759234 0.372234 0.202704
O O15 0.719127 0.301288 0.000000
O O16 0.437716 0.500000 0.250000
O O17 0.500000 0.588636 0.250000
O O18 0.456608 0.560932 0.500000
#
# Coordination Sequence:
#
# PCOD9528641 Si02
#       7
#     8  16  16  16  16  16  16
#     4  10  24  42  62  88 127 166 221 274 322 384
#     4  11  26  44  65 100 135 175 222 271 332 397
#     4  12  25  40  66  93 127 170 222 269 325 390
#     4  11  24  42  64  90 126 166 213 268 328 385
#     4  12  25  42  66  91 130 175 221 276 334 398
#     4  10  22  44  74 104 134 174 215 272 339 413
#     4  11  24  42  62  93 125 169 222 266 329 381
#
# _framework density 19.513083000000002
#
# number of rings (size 3 to 8) (size 9 to 14) (size 15 to 20)
#    0.000    0.923    3.077    4.154    6.462    3.077 
#    2.769    1.538    0.000    0.000    0.000    0.000 
#    0.000    0.000    0.000    0.000    0.000    0.000 
#
# Total GULP energy -289493.250204 kJ/mol
# GULP energy per Si atom -5567.177889 kJ/mol
# Density = 1.946867 g / cm^3
# Si number density = 19.513083 Si / 1000 Ang^3
#
#
#
# Elastic Constant Matrix: (Units=GPa)
#
#
# Indices 1 2 3 4 5 6 
#
# 1 105.3618 68.8167 63.3670 0.0000 0.0000 0.0000
# 2 68.8167 116.1750 73.1979 0.0000 0.0000 0.0000
# 3 63.3670 73.1979 222.0291 0.0000 0.0000 0.0000
# 4 0.0000 0.0000 0.0000 36.9913 0.0000 0.0000
# 5 0.0000 0.0000 0.0000 0.0000 79.5739 0.0000
# 6 0.0000 0.0000 0.0000 0.0000 0.0000 23.4512
#
#
#
# Elastic Compliance Matrix: (Units=1/GPa)
#
#
# Indices 1 2 3 4 5 6 
#
# 1 0.016046 -0.008355 -0.001825 0.000000 0.000000 0.000000
# 2 -0.008355 0.015215 -0.002631 0.000000 0.000000 0.000000
# 3 -0.001825 -0.002631 0.005892 0.000000 0.000000 0.000000
# 4 0.000000 0.000000 0.000000 0.027033 0.000000 0.000000
# 5 0.000000 0.000000 0.000000 0.000000 0.012567 0.000000
# 6 0.000000 0.000000 0.000000 0.000000 0.000000 0.042642
#
#
# Mechanical properties :
#
#
# Convention : Reuss Voigt Hill
#
# Bulk Modulus (GPa) = 86.73005 94.92543 90.82774
# Shear Modulus (GPa) = 33.58847 43.88224 38.73536
#
# Velocity S-wave (km/s) = 4.15339 4.74736 4.46028
# Velocity P-wave (km/s) = 8.21855 8.87708 8.55415
#
# Compressibility (1/GPa) = 0.01153003
#
# Stress axis : x y z
#
# Youngs Moduli (GPa) = 62.32228 65.72584 169.71256
#
# Poissons Ratio (x) = 0.54913 0.30973
# Poissons Ratio (y) = 0.52069 0.44660
# Poissons Ratio (z) = 0.11374 0.17296
#
# Static dielectric constant tensor:
#      x y z
#    x 1.725030 0.000000 0.000000 
#    y 0.000000 1.674120 0.000000 
#    z 0.000000 0.000000 1.673700 
# 
# From -- ./inp_files/9182.got.cif
#   From: 2010.05.17/outbox.cif.g08.bks.cpg/sg72_5_cif.got.tgz:9182.got - 2010.06.03 17:03:01.
