data_PCOD9528967
_publ_section_title
;
Structure prediction by ZEFSAII (Michael W. Deem and Ramdas Pophale) SiO2 
 PCOD9528967
Probable space group: I B A M
;
_chemical_formula_sum "Si O2"
_cell_formula_units_Z 36
_cell_length_a 8.767893
_cell_length_b 16.667508
_cell_length_c 8.724914
_cell_angle_alpha 90.000000
_cell_angle_beta 90.000000
_cell_angle_gamma 90.000000
_cell_volume 1275.049568
_symmetry_space_group_name_H-M "I B A M"
_symmetry_group_IT_number 72
_symmetry_cell_setting 'orthorhombic'
loop_
_space_group_symop_operation_xyz
x,y,z
-x,-y,z
x,-y,1/2-z
-x,y,1/2-z
-x,-y,-z
x,y,-z
-x,y,1/2+z
x,-y,1/2+z
1/2+x,1/2+y,1/2+z
1/2-x,1/2-y,1/2+z
1/2+x,1/2-y,-z
1/2-x,1/2+y,-z
1/2-x,1/2-y,1/2-z
1/2+x,1/2+y,1/2-z
1/2-x,1/2+y,z
1/2+x,1/2-y,z
loop_
_atom_site_type_symbol
_atom_site_label
_atom_site_fract_x
_atom_site_fract_y
_atom_site_fract_z
Si Si1 0.500000 0.000000 0.250000
Si Si2 0.375102 0.737501 0.500000
Si Si3 0.287320 0.406121 0.165591
Si Si4 0.661914 0.628104 0.500000
O O1 0.618293 0.941689 0.334448
O O2 0.301914 0.689273 0.357058
O O3 0.548532 0.705087 0.500000
O O4 0.330229 0.829883 0.500000
O O5 0.349605 0.418852 0.337811
O O6 0.358000 0.431269 0.000000
#
# Coordination Sequence:
#
# PCOD9528967 Si02
#       4
#     4   8  16   8
#     4  12  26  52  72 114 140 210 244 294 358 450
#     4  10  26  46  73 113 147 195 238 307 372 431
#     4  10  27  43  74 104 146 185 256 294 355 434
#     4  12  24  48  75 107 153 189 240 307 372 431
#
# _framework density 28.234197000000002
#
# number of rings (size 3 to 8) (size 9 to 14) (size 15 to 20)
#    1.333    0.000    0.000    3.333   12.444    0.000 
#    0.000    6.667    0.000    0.000    0.000    0.000 
#    0.000    0.000    0.000    0.000    0.000    0.000 
#
# Total GULP energy -100312.145431 kJ/mol
# GULP energy per Si atom -5572.896968 kJ/mol
# Density = 2.816994 g / cm^3
# Si number density = 28.234197 Si / 1000 Ang^3
#
#
#
# Elastic Constant Matrix: (Units=GPa)
#
#
# Indices 1 2 3 4 5 6 
#
# 1 139.7936 35.5945 76.9347 0.0000 0.0001 0.0000
# 2 35.5945 47.1361 84.4557 0.0003 0.0002 0.0000
# 3 76.9347 84.4557 334.2722 0.0004 0.0004 -0.0001
# 4 0.0000 0.0003 0.0004 41.4721 0.0004 0.0000
# 5 0.0001 0.0002 0.0004 0.0004 62.2303 -0.0001
# 6 0.0000 0.0000 -0.0001 0.0000 -0.0001 54.5848
#
#
#
# Elastic Compliance Matrix: (Units=1/GPa)
#
#
# Indices 1 2 3 4 5 6 
#
# 1 0.008931 -0.005593 -0.000642 0.000000 0.000000 0.000000
# 2 -0.005593 0.042266 -0.009391 0.000000 0.000000 0.000000
# 3 -0.000642 -0.009391 0.005512 0.000000 0.000000 0.000000
# 4 0.000000 0.000000 0.000000 0.024113 0.000000 0.000000
# 5 0.000000 0.000000 0.000000 0.000000 0.016069 0.000000
# 6 0.000000 0.000000 0.000000 0.000000 0.000000 0.018320
#
#
# Mechanical properties :
#
#
# Convention : Reuss Voigt Hill
#
# Bulk Modulus (GPa) = 39.28495 101.68574 70.48534
# Shear Modulus (GPa) = 32.26843 53.27191 42.77017
#
# Velocity S-wave (km/s) = 3.38433 4.34843 3.89631
# Velocity P-wave (km/s) = 5.40516 7.82975 6.72758
#
# Compressibility (1/GPa) = 0.02545504
#
# Stress axis : x y z
#
# Youngs Moduli (GPa) = 111.96827 23.65980 181.41591
#
# Poissons Ratio (x) = 0.13234 0.11654
# Poissons Ratio (y) = 0.62627 1.70374
# Poissons Ratio (z) = 0.07192 0.22220
#
# Static dielectric constant tensor:
#      x y z
#    x 2.198710 0.000000 0.000000 
#    y 0.000000 2.207890 0.000000 
#    z 0.000000 0.000000 2.210360 
# 
# From -- ./inp_files/1435.got.cif
#   From: 2010.05.17/outbox.cif.g08.bks.cpg/sg72_1_cif.got.tgz:1435.got - 2010.06.03 17:03:01.
