data_PCOD9528720
_publ_section_title
;
Structure prediction by ZEFSAII (Michael W. Deem and Ramdas Pophale) SiO2 
 PCOD9528720
Probable space group: I B A M
;
_chemical_formula_sum "Si O2"
_cell_formula_units_Z 64
_cell_length_a 5.065471
_cell_length_b 29.238882
_cell_length_c 18.727741
_cell_angle_alpha 90.000000
_cell_angle_beta 90.000000
_cell_angle_gamma 90.000000
_cell_volume 2773.741539
_symmetry_space_group_name_H-M "I B A M"
_symmetry_group_IT_number 72
_symmetry_cell_setting 'orthorhombic'
loop_
_space_group_symop_operation_xyz
x,y,z
-x,-y,z
x,-y,1/2-z
-x,y,1/2-z
-x,-y,-z
x,y,-z
-x,y,1/2+z
x,-y,1/2+z
1/2+x,1/2+y,1/2+z
1/2-x,1/2-y,1/2+z
1/2+x,1/2-y,-z
1/2-x,1/2+y,-z
1/2-x,1/2-y,1/2-z
1/2+x,1/2+y,1/2-z
1/2-x,1/2+y,z
1/2+x,1/2-y,z
loop_
_atom_site_type_symbol
_atom_site_label
_atom_site_fract_x
_atom_site_fract_y
_atom_site_fract_z
Si Si1 0.818965 0.044587 0.622407
Si Si2 0.708727 0.371696 0.621321
Si Si3 0.981885 0.413562 0.000000
Si Si4 0.967826 0.221289 0.664986
Si Si5 0.500000 0.916614 0.750000
O O1 0.596315 0.049233 0.562859
O O2 0.686861 0.053191 0.699261
O O3 0.005600 0.087639 0.602612
O O4 0.000000 0.000000 0.620852
O O5 0.560265 0.323942 0.624905
O O6 0.932921 0.376571 0.562522
O O7 0.828368 0.384798 0.698147
O O8 0.172354 0.262430 0.649569
O O9 0.000000 0.212432 0.750000
#
# Coordination Sequence:
#
# PCOD9528720 Si02
#       5
#    16  16   8  16   8
#     4  11  24  42  68 101 141 186 238 295 369 442
#     4  11  24  43  66  98 137 184 239 302 367 446
#     4  10  25  43  69  93 140 187 238 286 355 441
#     4  10  23  40  70 103 139 182 236 302 378 444
#     4  10  24  39  66  98 136 178 232 296 375 432
#
# _framework density 23.073528
#
# number of rings (size 3 to 8) (size 9 to 14) (size 15 to 20)
#    0.000    1.500    0.000    3.375   12.250    8.000 
#    0.000    1.250    0.000    1.500    0.000    0.000 
#    0.000    0.000    0.000    0.000    0.000    0.000 
#
# Total GULP energy -178151.892518 kJ/mol
# GULP energy per Si atom -5567.246641 kJ/mol
# Density = 2.302101 g / cm^3
# Si number density = 23.073528 Si / 1000 Ang^3
#
#
#
# Elastic Constant Matrix: (Units=GPa)
#
#
# Indices 1 2 3 4 5 6 
#
# 1 41.9608 7.1025 4.6443 0.0000 0.0000 0.0000
# 2 7.1025 115.2094 25.0836 0.0000 0.0000 0.0000
# 3 4.6443 25.0836 122.7838 0.0000 0.0000 0.0000
# 4 0.0000 0.0000 0.0000 7.8247 0.0000 0.0000
# 5 0.0000 0.0000 0.0000 0.0000 17.1827 0.0000
# 6 0.0000 0.0000 0.0000 0.0000 0.0000 48.4555
#
#
#
# Elastic Compliance Matrix: (Units=1/GPa)
#
#
# Indices 1 2 3 4 5 6 
#
# 1 0.024131 -0.001349 -0.000637 0.000000 0.000000 0.000000
# 2 -0.001349 0.009159 -0.001820 0.000000 0.000000 0.000000
# 3 -0.000637 -0.001820 0.008540 0.000000 0.000000 0.000000
# 4 0.000000 0.000000 0.000000 0.127800 0.000000 0.000000
# 5 0.000000 0.000000 0.000000 0.000000 0.058198 0.000000
# 6 0.000000 0.000000 0.000000 0.000000 0.000000 0.020637
#
#
# Mechanical properties :
#
#
# Convention : Reuss Voigt Hill
#
# Bulk Modulus (GPa) = 29.22452 39.29051 34.25751
# Shear Modulus (GPa) = 18.69273 30.90084 24.79679
#
# Velocity S-wave (km/s) = 2.84938 3.66352 3.28180
# Velocity P-wave (km/s) = 4.84960 5.91275 5.40736
#
# Compressibility (1/GPa) = 0.03421784
#
# Stress axis : x y z
#
# Youngs Moduli (GPa) = 41.44117 109.17878 117.09141
#
# Poissons Ratio (x) = 0.14727 0.07461
# Poissons Ratio (y) = 0.05590 0.21312
# Poissons Ratio (z) = 0.02641 0.19872
#
# Static dielectric constant tensor:
#      x y z
#    x 1.944170 0.000000 0.000000 
#    y 0.000000 1.838410 0.000000 
#    z 0.000000 0.000000 1.846650 
# 
# From -- ./inp_files/27041.got.cif
#   From: 2010.05.17/outbox.cif.g08.bks.cpg/sg72_14_cif.got.tgz:27041.got - 2010.06.03 17:03:01.
