data_PCOD9528296
_publ_section_title
;
Structure prediction by ZEFSAII (Michael W. Deem and Ramdas Pophale) SiO2 
 PCOD9528296
Probable space group: I B A M
;
_chemical_formula_sum "Si O2"
_cell_formula_units_Z 96
_cell_length_a 8.812184
_cell_length_b 25.878019
_cell_length_c 19.730268
_cell_angle_alpha 90.000000
_cell_angle_beta 90.000000
_cell_angle_gamma 90.000000
_cell_volume 4499.327111
_symmetry_space_group_name_H-M "I B A M"
_symmetry_group_IT_number 72
_symmetry_cell_setting 'orthorhombic'
loop_
_space_group_symop_operation_xyz
x,y,z
-x,-y,z
x,-y,1/2-z
-x,y,1/2-z
-x,-y,-z
x,y,-z
-x,y,1/2+z
x,-y,1/2+z
1/2+x,1/2+y,1/2+z
1/2-x,1/2-y,1/2+z
1/2+x,1/2-y,-z
1/2-x,1/2+y,-z
1/2-x,1/2-y,1/2-z
1/2+x,1/2+y,1/2-z
1/2-x,1/2+y,z
1/2+x,1/2-y,z
loop_
_atom_site_type_symbol
_atom_site_label
_atom_site_fract_x
_atom_site_fract_y
_atom_site_fract_z
Si Si1 0.636978 0.100381 0.201345
Si Si2 0.461535 0.148740 0.921958
Si Si3 0.328435 0.300891 0.220571
Si Si4 0.059195 0.945412 0.826468
Si Si5 0.077534 0.770636 0.076187
Si Si6 0.387358 0.367817 0.576851
O O1 0.500000 0.084026 0.250000
O O2 0.567486 0.122982 0.132773
O O3 0.731804 0.147723 0.235700
O O4 0.760188 0.057942 0.180706
O O5 0.457225 0.210704 0.913209
O O6 0.290784 0.127921 0.910752
O O7 0.504596 0.138403 0.000000
O O8 0.500000 0.304699 0.250000
O O9 0.250000 0.250000 0.250000
O O10 0.329522 0.292091 0.139536
O O11 0.000000 0.940093 0.750000
O O12 0.990496 0.899453 0.871388
O O13 0.000000 0.000000 0.853647
O O14 0.928925 0.807011 0.078755
O O15 0.143882 0.776792 0.000000
O O16 0.420584 0.385242 0.500000
#
# Coordination Sequence:
#
# PCOD9528296 Si02
#       6
#    16  16  16  16  16  16
#     4  12  25  41  65  98 137 173 215 282 344 406
#     4  10  23  40  62  96 139 179 223 270 329 404
#     4  12  25  39  60  93 136 184 229 276 330 402
#     4  11  25  47  72  95 123 169 229 285 347 413
#     4  10  22  37  61  93 133 185 231 269 321 401
#     4  10  22  42  67  94 131 177 224 279 335 398
#
# _framework density 21.336524000000001
#
# number of rings (size 3 to 8) (size 9 to 14) (size 15 to 20)
#    0.000    1.167    1.667    4.000    7.000    1.667 
#    0.000    5.833    0.000    2.000    0.000    0.000 
#    0.000    0.000    0.000    0.000    0.000    0.000 
#
# Total GULP energy -268631.973726 kJ/mol
# GULP energy per Si atom -5596.499453 kJ/mol
# Density = 2.128796 g / cm^3
# Si number density = 21.336524 Si / 1000 Ang^3
#
#
#
# Elastic Constant Matrix: (Units=GPa)
#
#
# Indices 1 2 3 4 5 6 
#
# 1 128.5322 43.4068 47.7411 0.0000 0.0000 0.0000
# 2 43.4068 73.0103 25.6288 0.0000 0.0000 0.0000
# 3 47.7411 25.6288 106.4206 0.0001 0.0000 0.0000
# 4 0.0000 0.0000 0.0001 15.9528 0.0000 0.0000
# 5 0.0000 0.0000 0.0000 0.0000 36.7706 0.0000
# 6 0.0000 0.0000 0.0000 0.0000 0.0000 25.6744
#
#
#
# Elastic Compliance Matrix: (Units=1/GPa)
#
#
# Indices 1 2 3 4 5 6 
#
# 1 0.010884 -0.005196 -0.003631 0.000000 0.000000 0.000000
# 2 -0.005196 0.017442 -0.001870 0.000000 0.000000 0.000000
# 3 -0.003631 -0.001870 0.011476 0.000000 0.000000 0.000000
# 4 0.000000 0.000000 0.000000 0.062685 0.000000 0.000000
# 5 0.000000 0.000000 0.000000 0.000000 0.027196 0.000000
# 6 0.000000 0.000000 0.000000 0.000000 0.000000 0.038949
#
#
# Mechanical properties :
#
#
# Convention : Reuss Voigt Hill
#
# Bulk Modulus (GPa) = 54.32350 60.16853 57.24601
# Shear Modulus (GPa) = 25.48927 28.42531 26.95729
#
# Velocity S-wave (km/s) = 3.46009 3.65394 3.55834
# Velocity P-wave (km/s) = 6.44039 6.78695 6.61594
#
# Compressibility (1/GPa) = 0.01840824
#
# Stress axis : x y z
#
# Youngs Moduli (GPa) = 91.88106 57.33242 87.13933
#
# Poissons Ratio (x) = 0.29790 0.31642
# Poissons Ratio (y) = 0.47741 0.16291
# Poissons Ratio (z) = 0.33363 0.10719
#
# Static dielectric constant tensor:
#      x y z
#    x 1.804470 0.000000 0.000000 
#    y 0.000000 1.760650 0.000000 
#    z 0.000000 0.000000 1.779970 
# 
# From -- ./inp_files/36044.got.cif
#   From: 2010.05.17/outbox.cif.g08.bks.cpg/sg72_19_cif.got.tgz:36044.got - 2010.06.03 17:03:01.
