data_PCOD9528421
_publ_section_title
;
Structure prediction by ZEFSAII (Michael W. Deem and Ramdas Pophale) SiO2 
 PCOD9528421
Probable space group: I B A M
;
_chemical_formula_sum "Si O2"
_cell_formula_units_Z 96
_cell_length_a 27.232264
_cell_length_b 21.166347
_cell_length_c 8.545976
_cell_angle_alpha 90.000000
_cell_angle_beta 90.000000
_cell_angle_gamma 90.000000
_cell_volume 4925.965084
_symmetry_space_group_name_H-M "I B A M"
_symmetry_group_IT_number 72
_symmetry_cell_setting 'orthorhombic'
loop_
_space_group_symop_operation_xyz
x,y,z
-x,-y,z
x,-y,1/2-z
-x,y,1/2-z
-x,-y,-z
x,y,-z
-x,y,1/2+z
x,-y,1/2+z
1/2+x,1/2+y,1/2+z
1/2-x,1/2-y,1/2+z
1/2+x,1/2-y,-z
1/2-x,1/2+y,-z
1/2-x,1/2-y,1/2-z
1/2+x,1/2+y,1/2-z
1/2-x,1/2+y,z
1/2+x,1/2-y,z
loop_
_atom_site_type_symbol
_atom_site_label
_atom_site_fract_x
_atom_site_fract_y
_atom_site_fract_z
Si Si1 0.554586 0.810360 0.815128
Si Si2 0.204528 0.713548 0.318882
Si Si3 0.712502 0.084277 0.679226
Si Si4 0.625470 0.300747 0.313046
Si Si5 0.323323 0.432660 0.186728
Si Si6 0.391093 0.065561 0.682537
O O1 0.500000 0.816140 0.750000
O O2 0.575146 0.738686 0.788060
O O3 0.587617 0.868423 0.749260
O O4 0.554203 0.819419 0.000000
O O5 0.210597 0.692587 0.500000
O O6 0.250000 0.750000 0.250000
O O7 0.200362 0.657752 0.195238
O O8 0.160290 0.761218 0.300645
O O9 0.709407 0.062278 0.500000
O O10 0.768210 0.076064 0.741463
O O11 0.667456 0.060797 0.784743
O O12 0.637130 0.292731 0.500000
O O13 0.639592 0.374052 0.279586
O O14 0.341802 0.500000 0.250000
O O15 0.317413 0.435665 0.000000
O O16 0.399893 0.066862 0.500000
O O17 0.412863 0.000000 0.750000
#
# Coordination Sequence:
#
# PCOD9528421 Si02
#       6
#    16  16  16  16  16  16
#     4  11  24  44  68  94 120 152 198 256 314 372
#     4  12  22  33  55  86 120 159 205 248 296 352
#     4  12  23  37  57  86 125 167 209 251 293 350
#     4  10  22  40  63  86 119 159 202 250 306 365
#     4  11  23  39  59  88 125 166 207 250 300 362
#     4  12  25  42  63  90 124 166 209 253 302 359
#
# _framework density 19.488565999999999
#
# number of rings (size 3 to 8) (size 9 to 14) (size 15 to 20)
#    0.000    0.667    3.333    6.000    0.000    1.667 
#    0.000    1.667    0.000    0.500    0.000    3.500 
#    0.000    0.000    0.000    0.000    0.000    0.000 
#
# Total GULP energy -267484.218119 kJ/mol
# GULP energy per Si atom -5572.587877 kJ/mol
# Density = 1.944421 g / cm^3
# Si number density = 19.488566 Si / 1000 Ang^3
#
#
#
# Elastic Constant Matrix: (Units=GPa)
#
#
# Indices 1 2 3 4 5 6 
#
# 1 80.2698 47.8149 27.4881 0.0000 0.0000 0.0000
# 2 47.8149 154.1747 35.8210 0.0000 0.0000 0.0000
# 3 27.4881 35.8210 84.9359 0.0000 0.0000 0.0000
# 4 0.0000 0.0000 0.0000 30.5018 0.0000 0.0000
# 5 0.0000 0.0000 0.0000 0.0000 13.2087 0.0000
# 6 0.0000 0.0000 0.0000 0.0000 0.0000 2.7161
#
#
#
# Elastic Compliance Matrix: (Units=1/GPa)
#
#
# Indices 1 2 3 4 5 6 
#
# 1 0.016145 -0.004205 -0.003452 0.000000 0.000000 0.000000
# 2 -0.004205 0.008286 -0.002134 0.000000 0.000000 0.000000
# 3 -0.003452 -0.002134 0.013790 0.000000 0.000000 0.000000
# 4 0.000000 0.000000 0.000000 0.032785 0.000000 0.000000
# 5 0.000000 0.000000 0.000000 0.000000 0.075708 0.000000
# 6 0.000000 0.000000 0.000000 0.000000 0.000000 0.368174
#
#
# Mechanical properties :
#
#
# Convention : Reuss Voigt Hill
#
# Bulk Modulus (GPa) = 53.64601 60.18095 56.91348
# Shear Modulus (GPa) = 9.24757 23.16907 16.20832
#
# Velocity S-wave (km/s) = 2.18069 3.45172 2.88702
# Velocity P-wave (km/s) = 5.82471 6.84346 6.35453
#
# Compressibility (1/GPa) = 0.01864072
#
# Stress axis : x y z
#
# Youngs Moduli (GPa) = 61.93921 120.68481 72.51393
#
# Poissons Ratio (x) = 0.50750 0.25028
# Poissons Ratio (y) = 0.26046 0.15472
# Poissons Ratio (z) = 0.21378 0.25750
#
# Static dielectric constant tensor:
#      x y z
#    x 3.135050 0.000000 0.000000 
#    y 0.000000 1.734140 0.000000 
#    z 0.000000 0.000000 1.653840 
# 
# From -- ./inp_files/8075.got.cif
#   From: 2010.05.17/outbox.cif.g08.bks.cpg/sg72_5_cif.got.tgz:8075.got - 2010.06.03 17:03:01.
