data_PCOD9528069
_publ_section_title
;
Structure prediction by ZEFSAII (Michael W. Deem and Ramdas Pophale) SiO2 
 PCOD9528069
Probable space group: I B A M
;
_chemical_formula_sum "Si O2"
_cell_formula_units_Z 104
_cell_length_a 19.768662
_cell_length_b 27.331339
_cell_length_c 9.897149
_cell_angle_alpha 90.000000
_cell_angle_beta 90.000000
_cell_angle_gamma 90.000000
_cell_volume 5347.469220
_symmetry_space_group_name_H-M "I B A M"
_symmetry_group_IT_number 72
_symmetry_cell_setting 'orthorhombic'
loop_
_space_group_symop_operation_xyz
x,y,z
-x,-y,z
x,-y,1/2-z
-x,y,1/2-z
-x,-y,-z
x,y,-z
-x,y,1/2+z
x,-y,1/2+z
1/2+x,1/2+y,1/2+z
1/2-x,1/2-y,1/2+z
1/2+x,1/2-y,-z
1/2-x,1/2+y,-z
1/2-x,1/2-y,1/2-z
1/2+x,1/2+y,1/2-z
1/2-x,1/2+y,z
1/2+x,1/2-y,z
loop_
_atom_site_type_symbol
_atom_site_label
_atom_site_fract_x
_atom_site_fract_y
_atom_site_fract_z
Si Si1 0.215276 0.317989 0.342414
Si Si2 0.392244 0.261659 0.152434
Si Si3 0.000000 0.314130 0.250000
Si Si4 0.564382 0.067980 0.500000
Si Si5 0.094011 0.540315 0.500000
Si Si6 0.109869 0.614531 0.722021
Si Si7 0.070737 0.952659 0.666794
Si Si8 0.627127 0.654755 0.345506
O O1 0.196739 0.327358 0.500000
O O2 0.179091 0.265802 0.313630
O O3 0.177208 0.355244 0.244924
O O4 0.294344 0.329246 0.333477
O O5 0.449829 0.220291 0.165782
O O6 0.408987 0.306810 0.248310
O O7 0.387265 0.279383 0.000000
O O8 0.948414 0.348953 0.331911
O O9 0.486301 0.051973 0.500000
O O10 0.582317 0.097360 0.366586
O O11 0.605056 0.017028 0.500000
O O12 0.121081 0.567808 0.630543
O O13 0.113133 0.902415 0.682976
O O14 0.000000 0.944704 0.750000
O O15 0.099466 0.000000 0.750000
O O16 0.936713 0.960594 0.000000
O O17 0.605620 0.663164 0.500000
#
# Coordination Sequence:
#
# PCOD9528069 Si02
#       8
#    16  16   8   8   8  16  16  16
#     4   9  19  39  62  79 116 165 198 233 289 348
#     4  10  22  37  59  87 119 156 199 241 288 338
#     4  10  22  34  55  84 115 154 192 230 290 340
#     4  11  20  36  54  80 113 155 194 244 301 343
#     4  11  22  32  54  86 113 145 200 254 291 333
#     4  11  20  36  58  78 115 154 197 242 292 343
#     4  10  21  39  66  94 119 152 186 232 292 354
#     4  10  22  41  62  89 120 153 192 236 287 350
#
# _framework density 19.448453000000001
#
# number of rings (size 3 to 8) (size 9 to 14) (size 15 to 20)
#    0.000    1.846    2.308    1.846    3.231    3.077 
#    5.538    1.538    0.000    0.000    0.000    0.000 
#    0.000    0.000    0.000    0.000    0.000    0.000 
#
# Total GULP energy -289742.320342 kJ/mol
# GULP energy per Si atom -5571.967699 kJ/mol
# Density = 1.940419 g / cm^3
# Si number density = 19.448453 Si / 1000 Ang^3
#
#
#
# Elastic Constant Matrix: (Units=GPa)
#
#
# Indices 1 2 3 4 5 6 
#
# 1 35.5358 23.7767 25.3309 0.0000 0.0000 0.0000
# 2 23.7767 136.6908 68.1299 0.0000 0.0000 0.0000
# 3 25.3309 68.1299 100.8020 0.0000 0.0000 0.0000
# 4 0.0000 0.0000 0.0000 30.2978 0.0000 0.0000
# 5 0.0000 0.0000 0.0000 0.0000 17.1053 0.0000
# 6 0.0000 0.0000 0.0000 0.0000 0.0000 19.0927
#
#
#
# Elastic Compliance Matrix: (Units=1/GPa)
#
#
# Indices 1 2 3 4 5 6 
#
# 1 0.034866 -0.002560 -0.007031 0.000000 0.000000 0.000000
# 2 -0.002560 0.011220 -0.006940 0.000000 0.000000 0.000000
# 3 -0.007031 -0.006940 0.016378 0.000000 0.000000 0.000000
# 4 0.000000 0.000000 0.000000 0.033006 0.000000 0.000000
# 5 0.000000 0.000000 0.000000 0.000000 0.058462 0.000000
# 6 0.000000 0.000000 0.000000 0.000000 0.000000 0.052376
#
#
# Mechanical properties :
#
#
# Convention : Reuss Voigt Hill
#
# Bulk Modulus (GPa) = 34.01257 56.38929 45.20093
# Shear Modulus (GPa) = 20.06659 23.68523 21.87591
#
# Velocity S-wave (km/s) = 3.21562 3.49355 3.35746
# Velocity P-wave (km/s) = 5.59585 6.73278 6.19047
#
# Compressibility (1/GPa) = 0.02940090
#
# Stress axis : x y z
#
# Youngs Moduli (GPa) = 28.68156 89.12444 61.05751
#
# Poissons Ratio (x) = 0.22818 0.42930
# Poissons Ratio (y) = 0.07343 0.42375
# Poissons Ratio (z) = 0.20166 0.61854
#
# Static dielectric constant tensor:
#      x y z
#    x 1.697850 0.000000 0.000000 
#    y 0.000000 1.685260 0.000000 
#    z 0.000000 0.000000 1.683410 
# 
# From -- ./inp_files/6222.got.cif
#   From: 2010.05.17/outbox.cif.g08.bks.cpg/sg72_4_cif.got.tgz:6222.got - 2010.06.03 17:03:01.
