data_PCOD9528407
_publ_section_title
;
Structure prediction by ZEFSAII (Michael W. Deem and Ramdas Pophale) SiO2 
 PCOD9528407
Probable space group: I B A M
;
_chemical_formula_sum "Si O2"
_cell_formula_units_Z 56
_cell_length_a 5.044027
_cell_length_b 21.567804
_cell_length_c 20.183951
_cell_angle_alpha 90.000000
_cell_angle_beta 90.000000
_cell_angle_gamma 90.000000
_cell_volume 2195.783483
_symmetry_space_group_name_H-M "I B A M"
_symmetry_group_IT_number 72
_symmetry_cell_setting 'orthorhombic'
loop_
_space_group_symop_operation_xyz
x,y,z
-x,-y,z
x,-y,1/2-z
-x,y,1/2-z
-x,-y,-z
x,y,-z
-x,y,1/2+z
x,-y,1/2+z
1/2+x,1/2+y,1/2+z
1/2-x,1/2-y,1/2+z
1/2+x,1/2-y,-z
1/2-x,1/2+y,-z
1/2-x,1/2-y,1/2-z
1/2+x,1/2+y,1/2-z
1/2-x,1/2+y,z
1/2+x,1/2-y,z
loop_
_atom_site_type_symbol
_atom_site_label
_atom_site_fract_x
_atom_site_fract_y
_atom_site_fract_z
Si Si1 0.500000 0.870034 0.250000
Si Si2 0.751801 0.045664 0.500000
Si Si3 0.750660 0.954892 0.143080
Si Si4 0.660708 0.792574 0.500000
Si Si5 0.785264 0.208457 0.140144
O O1 0.691806 0.909893 0.203252
O O2 0.311625 0.830981 0.201670
O O3 0.764138 0.078749 0.428839
O O4 0.500000 0.000000 0.500000
O O5 0.000000 0.000000 0.500000
O O6 0.500000 0.000000 0.140483
O O7 0.000000 0.000000 0.152366
O O8 0.863742 0.733740 0.500000
O O9 0.725132 0.824557 0.430362
O O10 0.085687 0.232142 0.141568
#
# Coordination Sequence:
#
# PCOD9528407 Si02
#       5
#     8   8  16   8  16
#     4  12  25  38  64  92 126 168 199 250 324 380
#     4   8  16  37  62  81 110 152 200 258 304 348
#     4  10  23  41  61  87 119 157 206 256 305 366
#     4   8  16  35  60  83 117 160 201 252 300 350
#     4  10  22  40  61  90 125 161 206 254 303 369
#
# _framework density 25.503426000000001
#
# number of rings (size 3 to 8) (size 9 to 14) (size 15 to 20)
#    0.000    2.286    0.000    1.286    0.000    8.000 
#    0.000    0.000    0.000   20.571    0.000    3.000 
#    0.000    0.000    0.000    0.000    0.000    0.000 
#
# Total GULP energy -156857.679356 kJ/mol
# GULP energy per Si atom -5602.059977 kJ/mol
# Density = 2.544538 g / cm^3
# Si number density = 25.503426 Si / 1000 Ang^3
#
#
#
# Elastic Constant Matrix: (Units=GPa)
#
#
# Indices 1 2 3 4 5 6 
#
# 1 156.6639 28.0919 10.9807 0.0000 0.0000 0.0000
# 2 28.0919 52.1284 62.4202 0.0000 0.0000 0.0000
# 3 10.9807 62.4202 261.2448 0.0000 0.0000 0.0000
# 4 0.0000 0.0000 0.0000 315.8374 0.0000 0.0000
# 5 0.0000 0.0000 0.0000 0.0000 29.0058 0.0000
# 6 0.0000 0.0000 0.0000 0.0000 0.0000 35.2992
#
#
#
# Elastic Compliance Matrix: (Units=1/GPa)
#
#
# Indices 1 2 3 4 5 6 
#
# 1 0.007206 -0.004932 0.000875 0.000000 0.000000 0.000000
# 2 -0.004932 0.030247 -0.007020 0.000000 0.000000 0.000000
# 3 0.000875 -0.007020 0.005468 0.000000 0.000000 0.000000
# 4 0.000000 0.000000 0.000000 0.003166 0.000000 0.000000
# 5 0.000000 0.000000 0.000000 0.000000 0.034476 0.000000
# 6 0.000000 0.000000 0.000000 0.000000 0.000000 0.028329
#
#
# Mechanical properties :
#
#
# Convention : Reuss Voigt Hill
#
# Bulk Modulus (GPa) = 48.14811 74.78031 61.46421
# Shear Modulus (GPa) = 36.24062 100.59812 68.41937
#
# Velocity S-wave (km/s) = 3.77372 6.28733 5.18515
# Velocity P-wave (km/s) = 6.15695 9.06051 7.74599
#
# Compressibility (1/GPa) = 0.02076925
#
# Stress axis : x y z
#
# Youngs Moduli (GPa) = 138.77267 33.06163 182.87351
#
# Poissons Ratio (x) = 0.16305 -0.16009
# Poissons Ratio (y) = 0.68437 1.28371
# Poissons Ratio (z) = -0.12149 0.23208
#
# Static dielectric constant tensor:
#      x y z
#    x 1.921040 0.000000 0.000000 
#    y 0.000000 1.973580 0.000000 
#    z 0.000000 0.000000 2.086510 
# 
# From -- ./inp_files/34668.got.cif
#   From: 2010.05.17/outbox.cif.g08.bks.cpg/sg72_18_cif.got.tgz:34668.got - 2010.06.03 17:03:01.
