data_PCOD9528827
_publ_section_title
;
Structure prediction by ZEFSAII (Michael W. Deem and Ramdas Pophale) SiO2 
 PCOD9528827
Probable space group: I B A M
;
_chemical_formula_sum "Si O2"
_cell_formula_units_Z 92
_cell_length_a 8.891511
_cell_length_b 21.221942
_cell_length_c 23.146083
_cell_angle_alpha 90.000000
_cell_angle_beta 90.000000
_cell_angle_gamma 90.000000
_cell_volume 4367.553158
_symmetry_space_group_name_H-M "I B A M"
_symmetry_group_IT_number 72
_symmetry_cell_setting 'orthorhombic'
loop_
_space_group_symop_operation_xyz
x,y,z
-x,-y,z
x,-y,1/2-z
-x,y,1/2-z
-x,-y,-z
x,y,-z
-x,y,1/2+z
x,-y,1/2+z
1/2+x,1/2+y,1/2+z
1/2-x,1/2-y,1/2+z
1/2+x,1/2-y,-z
1/2-x,1/2+y,-z
1/2-x,1/2-y,1/2-z
1/2+x,1/2+y,1/2-z
1/2-x,1/2+y,z
1/2+x,1/2-y,z
loop_
_atom_site_type_symbol
_atom_site_label
_atom_site_fract_x
_atom_site_fract_y
_atom_site_fract_z
Si Si1 0.269833 0.711313 0.307822
Si Si2 0.000000 0.500000 0.883544
Si Si3 0.492976 0.755625 0.884807
Si Si4 0.500000 0.500000 0.750000
Si Si5 0.840159 0.621211 0.568138
Si Si6 0.221178 0.926093 0.166686
Si Si7 0.005465 0.124369 0.433932
O O1 0.250000 0.750000 0.250000
O O2 0.439256 0.723495 0.327383
O O3 0.176640 0.731956 0.364969
O O4 0.230179 0.638422 0.301957
O O5 0.068920 0.557393 0.920145
O O6 0.136703 0.469590 0.847404
O O7 0.575018 0.820649 0.900909
O O8 0.512149 0.700701 0.931519
O O9 0.604942 0.459354 0.708615
O O10 0.835787 0.635466 0.500000
O O11 0.666042 0.610972 0.586627
O O12 0.130176 0.905490 0.108373
O O13 0.024937 0.102606 0.500000
#
# Coordination Sequence:
#
# PCOD9528827 Si02
#       7
#    16   8  16   4  16  16  16
#     4  11  24  41  68 100 131 172 223 290 355 412
#     4  12  25  47  64 100 138 178 234 280 334 408
#     4  11  21  42  64 101 135 169 226 284 352 420
#     4  12  28  50  70  96 140 194 236 276 340 418
#     4  11  23  40  65  97 138 181 223 279 345 415
#     4  11  27  47  71 100 138 184 233 290 339 414
#     4  10  23  44  71 100 136 180 228 288 356 420
#
# _framework density 21.064425
#
# number of rings (size 3 to 8) (size 9 to 14) (size 15 to 20)
#    0.000    1.043    3.478    2.348    4.870    3.130 
#    3.130    2.174    0.000    0.000    0.000    0.000 
#    0.000    0.000    0.000    0.000    0.000    0.000 
#
# Total GULP energy -256909.672835 kJ/mol
# GULP energy per Si atom -5584.992888 kJ/mol
# Density = 2.101648 g / cm^3
# Si number density = 21.064425 Si / 1000 Ang^3
#
#
#
# Elastic Constant Matrix: (Units=GPa)
#
#
# Indices 1 2 3 4 5 6 
#
# 1 107.6665 43.2847 32.6346 0.0000 0.0000 0.0000
# 2 43.2847 105.7365 32.7668 0.0000 0.0000 0.0000
# 3 32.6346 32.7668 80.8749 0.0000 0.0000 0.0000
# 4 0.0000 0.0000 0.0000 -44.1106 0.0000 0.0000
# 5 0.0000 0.0000 0.0000 0.0000 18.5340 0.0000
# 6 0.0000 0.0000 0.0000 0.0000 0.0000 37.5765
#
#
#
# Elastic Compliance Matrix: (Units=1/GPa)
#
#
# Indices 1 2 3 4 5 6 
#
# 1 0.011803 -0.003838 -0.003208 0.000000 0.000000 0.000000
# 2 -0.003838 0.012063 -0.003339 0.000000 0.000000 0.000000
# 3 -0.003208 -0.003339 0.015012 0.000000 0.000000 0.000000
# 4 0.000000 0.000000 0.000000 -0.022670 0.000000 0.000000
# 5 0.000000 0.000000 0.000000 0.000000 0.053955 0.000000
# 6 0.000000 0.000000 0.000000 0.000000 0.000000 0.026612
#
#
# Mechanical properties :
#
#
# Convention : Reuss Voigt Hill
#
# Bulk Modulus (GPa) = 55.22013 56.85000 56.03507
# Shear Modulus (GPa) = 40.45936 14.77275 27.61606
#
# Velocity S-wave (km/s) = 4.38738 2.65110 3.62474
# Velocity P-wave (km/s) = 7.20675 6.03476 6.64664
#
# Compressibility (1/GPa) = 0.01810934
#
# Stress axis : x y z
#
# Youngs Moduli (GPa) = 84.72327 82.89704 66.61340
#
# Poissons Ratio (x) = 0.31813 0.21369
# Poissons Ratio (y) = 0.32514 0.22241
# Poissons Ratio (z) = 0.27179 0.27678
#
# Static dielectric constant tensor:
#      x y z
#    x 1.757150 0.000000 0.000000 
#    y 0.000000 1.731670 0.000000 
#    z 0.000000 0.000000 1.748950 
# 
# From -- ./inp_files/42322.got.cif
#   From: 2010.05.17/outbox.cif.g08.bks.cpg/sg72_22_cif.got.tgz:42322.got - 2010.06.03 17:03:01.
