data_PCOD9528495
_publ_section_title
;
Structure prediction by ZEFSAII (Michael W. Deem and Ramdas Pophale) SiO2 
 PCOD9528495
Probable space group: I B A M
;
_chemical_formula_sum "Si O2"
_cell_formula_units_Z 116
_cell_length_a 8.919264
_cell_length_b 22.972910
_cell_length_c 25.861697
_cell_angle_alpha 90.000000
_cell_angle_beta 90.000000
_cell_angle_gamma 90.000000
_cell_volume 5299.099192
_symmetry_space_group_name_H-M "I B A M"
_symmetry_group_IT_number 72
_symmetry_cell_setting 'orthorhombic'
loop_
_space_group_symop_operation_xyz
x,y,z
-x,-y,z
x,-y,1/2-z
-x,y,1/2-z
-x,-y,-z
x,y,-z
-x,y,1/2+z
x,-y,1/2+z
1/2+x,1/2+y,1/2+z
1/2-x,1/2-y,1/2+z
1/2+x,1/2-y,-z
1/2-x,1/2+y,-z
1/2-x,1/2-y,1/2-z
1/2+x,1/2+y,1/2-z
1/2-x,1/2+y,z
1/2+x,1/2-y,z
loop_
_atom_site_type_symbol
_atom_site_label
_atom_site_fract_x
_atom_site_fract_y
_atom_site_fract_z
Si Si1 0.109256 0.674045 0.870042
Si Si2 0.137347 0.898718 0.180511
Si Si3 0.179545 0.500922 0.355979
Si Si4 0.162783 0.592630 0.773876
Si Si5 0.035814 0.832063 0.916900
Si Si6 0.181971 0.727421 0.403021
Si Si7 0.723823 0.587098 0.441792
Si Si8 0.500000 0.500000 0.750000
O O1 0.148646 0.635906 0.821262
O O2 0.204786 0.733219 0.869506
O O3 0.165491 0.637598 0.919872
O O4 0.934402 0.687734 0.872484
O O5 0.231364 0.879265 0.230646
O O6 0.055692 0.852022 0.143872
O O7 0.038756 0.949637 0.206028
O O8 0.256669 0.934485 0.145906
O O9 0.211453 0.468159 0.301020
O O10 0.256787 0.465008 0.401539
O O11 0.000000 0.500000 0.362559
O O12 0.000000 0.581922 0.750000
O O13 0.201772 0.812808 0.934464
O O14 0.928896 0.775953 0.927364
O O15 0.943190 0.885747 0.939854
O O16 0.762184 0.570887 0.500000
#
# Coordination Sequence:
#
# PCOD9528495 Si02
#       8
#    16  16  16  16  16  16  16   4
#     4   9  20  38  62  90 125 169 210 272 322 389
#     4  12  23  36  59  94 126 175 215 264 316 384
#     4  11  22  39  63  94 132 171 215 266 326 388
#     4  11  20  35  58  89 124 167 218 260 306 375
#     4  10  22  41  65  89 128 165 215 268 330 386
#     4   9  19  41  63  88 127 168 211 269 334 384
#     4  10  23  44  67  94 126 165 217 272 334 400
#     4  12  24  32  54  84 130 160 224 258 304 366
#
# _framework density 21.890515000000001
#
# number of rings (size 3 to 8) (size 9 to 14) (size 15 to 20)
#    0.000    1.655    2.759    1.655    5.793    0.276 
#    0.000   20.690    0.000    0.000    0.000    0.000 
#    0.000    0.000    0.000    0.000    0.000    0.000 
#
# Total GULP energy -323285.424196 kJ/mol
# GULP energy per Si atom -5573.886624 kJ/mol
# Density = 2.184069 g / cm^3
# Si number density = 21.890515 Si / 1000 Ang^3
#
#
#
# Elastic Constant Matrix: (Units=GPa)
#
#
# Indices 1 2 3 4 5 6 
#
# 1 108.5659 13.3936 14.6671 0.0000 0.0000 0.0000
# 2 13.3936 50.6808 19.2795 0.0000 0.0000 0.0000
# 3 14.6671 19.2795 118.8162 0.0000 0.0000 0.0000
# 4 0.0000 0.0000 0.0000 -7.4297 0.0000 0.0000
# 5 0.0000 0.0000 0.0000 0.0000 6.6605 0.0000
# 6 0.0000 0.0000 0.0000 0.0000 0.0000 34.4443
#
#
#
# Elastic Compliance Matrix: (Units=1/GPa)
#
#
# Indices 1 2 3 4 5 6 
#
# 1 0.009597 -0.002223 -0.000824 0.000000 0.000000 0.000000
# 2 -0.002223 0.021544 -0.003221 0.000000 0.000000 0.000000
# 3 -0.000824 -0.003221 0.009041 0.000000 0.000000 0.000000
# 4 0.000000 0.000000 0.000000 -0.134595 0.000000 0.000000
# 5 0.000000 0.000000 0.000000 0.000000 0.150140 0.000000
# 6 0.000000 0.000000 0.000000 0.000000 0.000000 0.029032
#
#
# Mechanical properties :
#
#
# Convention : Reuss Voigt Hill
#
# Bulk Modulus (GPa) = 36.17246 41.41592 38.79419
# Shear Modulus (GPa) = 46.94416 22.11652 34.53034
#
# Velocity S-wave (km/s) = 4.63590 3.18201 3.97597
# Velocity P-wave (km/s) = 6.72425 5.69745 6.23203
#
# Compressibility (1/GPa) = 0.02764534
#
# Stress axis : x y z
#
# Youngs Moduli (GPa) = 104.20442 46.41620 110.60964
#
# Poissons Ratio (x) = 0.10317 0.09114
# Poissons Ratio (y) = 0.23161 0.35632
# Poissons Ratio (z) = 0.08586 0.14953
#
# Static dielectric constant tensor:
#      x y z
#    x 1.916300 0.000000 0.000000 
#    y 0.000000 1.836720 0.000000 
#    z 0.000000 0.000000 1.772510 
# 
# From -- ./inp_files/47609.got.cif
#   From: 2010.05.17/outbox.cif.g08.bks.cpg/sg72_24_cif.got.tgz:47609.got - 2010.06.03 17:03:01.
