data_PCOD9528305
_publ_section_title
;
Structure prediction by ZEFSAII (Michael W. Deem and Ramdas Pophale) SiO2 
 PCOD9528305
Probable space group: I B A M
;
_chemical_formula_sum "Si O2"
_cell_formula_units_Z 116
_cell_length_a 27.768437
_cell_length_b 23.151184
_cell_length_c 9.172829
_cell_angle_alpha 90.000000
_cell_angle_beta 90.000000
_cell_angle_gamma 90.000000
_cell_volume 5896.956708
_symmetry_space_group_name_H-M "I B A M"
_symmetry_group_IT_number 72
_symmetry_cell_setting 'orthorhombic'
loop_
_space_group_symop_operation_xyz
x,y,z
-x,-y,z
x,-y,1/2-z
-x,y,1/2-z
-x,-y,-z
x,y,-z
-x,y,1/2+z
x,-y,1/2+z
1/2+x,1/2+y,1/2+z
1/2-x,1/2-y,1/2+z
1/2+x,1/2-y,-z
1/2-x,1/2+y,-z
1/2-x,1/2-y,1/2-z
1/2+x,1/2+y,1/2-z
1/2-x,1/2+y,z
1/2+x,1/2-y,z
loop_
_atom_site_type_symbol
_atom_site_label
_atom_site_fract_x
_atom_site_fract_y
_atom_site_fract_z
Si Si1 0.930282 0.102129 0.335031
Si Si2 0.257401 0.940979 0.826904
Si Si3 0.679062 0.630653 0.330403
Si Si4 0.549826 0.063671 0.677186
Si Si5 0.857679 0.385852 0.672664
Si Si6 0.000000 0.000000 0.750000
Si Si7 0.861393 0.255593 0.330748
Si Si8 0.546269 0.716945 0.829464
O O1 0.935261 0.125549 0.500000
O O2 0.872680 0.098364 0.308248
O O3 0.962478 0.044514 0.326147
O O4 0.948076 0.150356 0.222404
O O5 0.220102 0.893317 0.772242
O O6 0.312224 0.925049 0.786864
O O7 0.243225 0.000000 0.750000
O O8 0.255144 0.946415 0.000000
O O9 0.692130 0.622090 0.500000
O O10 0.670755 0.698984 0.305707
O O11 0.500000 0.085902 0.750000
O O12 0.546600 0.060579 0.500000
O O13 0.595758 0.100196 0.730789
O O14 0.556325 0.000000 0.750000
O O15 0.869117 0.394820 0.500000
O O16 0.840852 0.319351 0.688848
O O17 0.877418 0.251316 0.500000
O O18 0.906635 0.248871 0.226084
O O19 0.500000 0.741856 0.750000
O O20 0.540786 0.719705 0.000000
#
# Coordination Sequence:
#
# PCOD9528305 Si02
#       8
#    16  16  16  16  16   4  16  16
#     4  10  22  38  55  82 118 154 197 250 306 358
#     4  11  24  41  63  91 121 159 202 246 301 359
#     4   9  20  40  62  86 119 158 198 249 307 361
#     4  11  22  38  62  92 128 168 207 249 302 360
#     4  10  22  41  64  92 125 159 201 250 301 361
#     4  12  22  32  60  90 118 156 206 252 306 360
#     4   9  20  40  63  86 117 155 195 247 306 360
#     4  11  21  35  56  80 112 154 198 243 293 353
#
# _framework density 19.671163
#
# number of rings (size 3 to 8) (size 9 to 14) (size 15 to 20)
#    0.000    1.793    0.690    4.759    0.966    6.621 
#    0.000    0.000    0.000    0.000    0.000    0.000 
#    0.000    0.000    0.000    0.000    0.000    0.000 
#
# Total GULP energy -323694.235199 kJ/mol
# GULP energy per Si atom -5580.935090 kJ/mol
# Density = 1.962639 g / cm^3
# Si number density = 19.671163 Si / 1000 Ang^3
#
#
#
# Elastic Constant Matrix: (Units=GPa)
#
#
# Indices 1 2 3 4 5 6 
#
# 1 77.7130 16.4218 48.9529 0.0000 0.0000 0.0000
# 2 16.4218 54.1618 22.2178 0.0000 0.0000 0.0000
# 3 48.9529 22.2178 102.8071 0.0000 0.0000 0.0000
# 4 0.0000 0.0000 0.0000 24.0742 0.0000 0.0000
# 5 0.0000 0.0000 0.0000 0.0000 76.0263 0.0000
# 6 0.0000 0.0000 0.0000 0.0000 0.0000 11.4282
#
#
#
# Elastic Compliance Matrix: (Units=1/GPa)
#
#
# Indices 1 2 3 4 5 6 
#
# 1 0.018618 -0.002204 -0.008389 0.000000 0.000000 0.000000
# 2 -0.002204 0.020520 -0.003385 0.000000 0.000000 0.000000
# 3 -0.008389 -0.003385 0.014453 0.000000 0.000000 0.000000
# 4 0.000000 0.000000 0.000000 0.041538 0.000000 0.000000
# 5 0.000000 0.000000 0.000000 0.000000 0.013153 0.000000
# 6 0.000000 0.000000 0.000000 0.000000 0.000000 0.087503
#
#
# Mechanical properties :
#
#
# Convention : Reuss Voigt Hill
#
# Bulk Modulus (GPa) = 39.00888 45.54074 42.27481
# Shear Modulus (GPa) = 21.52522 32.11171 26.81846
#
# Velocity S-wave (km/s) = 3.31154 4.04471 3.69635
# Velocity P-wave (km/s) = 5.87327 6.70926 6.30513
#
# Compressibility (1/GPa) = 0.02563519
#
# Stress axis : x y z
#
# Youngs Moduli (GPa) = 53.71199 48.73282 69.18971
#
# Poissons Ratio (x) = 0.10739 0.58042
# Poissons Ratio (y) = 0.11836 0.23423
# Poissons Ratio (z) = 0.45058 0.16498
#
# Static dielectric constant tensor:
#      x y z
#    x 1.690210 0.000000 0.000000 
#    y 0.000000 1.702200 0.000000 
#    z 0.000000 0.000000 1.662710 
# 
# From -- ./inp_files/8415.got.cif
#   From: 2010.05.17/outbox.cif.g08.bks.cpg/sg72_5_cif.got.tgz:8415.got - 2010.06.03 17:03:01.
