data_PCOD9528916
_publ_section_title
;
Structure prediction by ZEFSAII (Michael W. Deem and Ramdas Pophale) SiO2 
 PCOD9528916
Probable space group: I B A M
;
_chemical_formula_sum "Si O2"
_cell_formula_units_Z 80
_cell_length_a 16.730678
_cell_length_b 17.339036
_cell_length_c 14.175513
_cell_angle_alpha 90.000000
_cell_angle_beta 90.000000
_cell_angle_gamma 90.000000
_cell_volume 4112.228832
_symmetry_space_group_name_H-M "I B A M"
_symmetry_group_IT_number 72
_symmetry_cell_setting 'orthorhombic'
loop_
_space_group_symop_operation_xyz
x,y,z
-x,-y,z
x,-y,1/2-z
-x,y,1/2-z
-x,-y,-z
x,y,-z
-x,y,1/2+z
x,-y,1/2+z
1/2+x,1/2+y,1/2+z
1/2-x,1/2-y,1/2+z
1/2+x,1/2-y,-z
1/2-x,1/2+y,-z
1/2-x,1/2-y,1/2-z
1/2+x,1/2+y,1/2-z
1/2-x,1/2+y,z
1/2+x,1/2-y,z
loop_
_atom_site_type_symbol
_atom_site_label
_atom_site_fract_x
_atom_site_fract_y
_atom_site_fract_z
Si Si1 0.697185 0.085486 0.296612
Si Si2 0.556387 0.098023 0.000000
Si Si3 0.615632 0.409776 0.235102
Si Si4 0.005350 0.170560 0.612549
Si Si5 0.430451 0.829768 0.190772
Si Si6 0.621019 0.073760 0.500000
O O1 0.790299 0.100606 0.278631
O O2 0.646754 0.157369 0.254614
O O3 0.672733 0.082752 0.406185
O O4 0.678202 0.000000 0.250000
O O5 0.592793 0.130746 0.094202
O O6 0.462074 0.121953 0.000000
O O7 0.580634 0.009754 0.000000
O O8 0.600727 0.500000 0.250000
O O9 0.567160 0.385712 0.141669
O O10 0.579036 0.360891 0.323293
O O11 0.019571 0.174109 0.500000
O O12 0.972687 0.251178 0.655832
O O13 0.500000 0.872761 0.250000
#
# Coordination Sequence:
#
# PCOD9528916 Si02
#       6
#    16   8  16  16  16   8
#     4  11  24  41  63  97 136 171 213 275 329 388
#     4  11  22  36  61  95 129 177 217 255 321 393
#     4  10  24  45  66  95 128 165 216 280 339 387
#     4  11  23  43  68  94 123 173 223 267 331 401
#     4  12  22  40  65  90 135 173 212 264 322 395
#     4  11  22  36  63  97 129 174 226 256 321 398
#
# _framework density 19.454170000000001
#
# number of rings (size 3 to 8) (size 9 to 14) (size 15 to 20)
#    0.000    1.000    7.000    1.200    1.400    2.800 
#    7.200    0.000    0.000    0.000    0.000    0.000 
#    0.000    0.000    0.000    0.000    0.000    0.000 
#
# Total GULP energy -222767.509770 kJ/mol
# GULP energy per Si atom -5569.187744 kJ/mol
# Density = 1.940989 g / cm^3
# Si number density = 19.454170 Si / 1000 Ang^3
#
#
#
# Elastic Constant Matrix: (Units=GPa)
#
#
# Indices 1 2 3 4 5 6 
#
# 1 131.3723 39.1680 61.7988 0.0000 0.0000 0.0000
# 2 39.1680 68.9527 49.0280 0.0000 0.0000 0.0000
# 3 61.7988 49.0280 188.5554 0.0000 0.0000 0.0000
# 4 0.0000 0.0000 0.0000 16.1871 0.0000 0.0000
# 5 0.0000 0.0000 0.0000 0.0000 17.7627 0.0000
# 6 0.0000 0.0000 0.0000 0.0000 0.0000 -18.7743
#
#
#
# Elastic Compliance Matrix: (Units=1/GPa)
#
#
# Indices 1 2 3 4 5 6 
#
# 1 0.009840 -0.004044 -0.002174 0.000000 0.000000 0.000000
# 2 -0.004044 0.019454 -0.003733 0.000000 0.000000 0.000000
# 3 -0.002174 -0.003733 0.006987 0.000000 0.000000 0.000000
# 4 0.000000 0.000000 0.000000 0.061778 0.000000 0.000000
# 5 0.000000 0.000000 0.000000 0.000000 0.056298 0.000000
# 6 0.000000 0.000000 0.000000 0.000000 0.000000 -0.053264
#
#
# Mechanical properties :
#
#
# Convention : Reuss Voigt Hill
#
# Bulk Modulus (GPa) = 61.05189 76.54112 68.79650
# Shear Modulus (GPa) = 39.54027 18.96080 29.25053
#
# Velocity S-wave (km/s) = 4.51320 3.12531 3.88178
# Velocity P-wave (km/s) = 7.65566 7.24245 7.45192
#
# Compressibility (1/GPa) = 0.01637951
#
# Stress axis : x y z
#
# Youngs Moduli (GPa) = 101.62446 51.40265 143.13293
#
# Poissons Ratio (x) = 0.20788 0.31111
# Poissons Ratio (y) = 0.41098 0.53432
# Poissons Ratio (z) = 0.22088 0.19189
#
# Static dielectric constant tensor:
#      x y z
#    x 1.684710 0.000000 0.000000 
#    y 0.000000 1.782950 0.000000 
#    z 0.000000 0.000000 1.667200 
# 
# From -- ./inp_files/23155.got.cif
#   From: 2010.05.17/outbox.cif.g08.bks.cpg/sg72_12_cif.got.tgz:23155.got - 2010.06.03 17:03:01.
