data_PCOD9528454
_publ_section_title
;
Structure prediction by ZEFSAII (Michael W. Deem and Ramdas Pophale) SiO2 
 PCOD9528454
Probable space group: I B A M
;
_chemical_formula_sum "Si O2"
_cell_formula_units_Z 64
_cell_length_a 12.260293
_cell_length_b 24.778455
_cell_length_c 10.097471
_cell_angle_alpha 90.000000
_cell_angle_beta 90.000000
_cell_angle_gamma 90.000000
_cell_volume 3067.522008
_symmetry_space_group_name_H-M "I B A M"
_symmetry_group_IT_number 72
_symmetry_cell_setting 'orthorhombic'
loop_
_space_group_symop_operation_xyz
x,y,z
-x,-y,z
x,-y,1/2-z
-x,y,1/2-z
-x,-y,-z
x,y,-z
-x,y,1/2+z
x,-y,1/2+z
1/2+x,1/2+y,1/2+z
1/2-x,1/2-y,1/2+z
1/2+x,1/2-y,-z
1/2-x,1/2+y,-z
1/2-x,1/2-y,1/2-z
1/2+x,1/2+y,1/2-z
1/2-x,1/2+y,z
1/2+x,1/2-y,z
loop_
_atom_site_type_symbol
_atom_site_label
_atom_site_fract_x
_atom_site_fract_y
_atom_site_fract_z
Si Si1 0.847183 0.547269 0.849122
Si Si2 0.172036 0.140126 0.000000
Si Si3 0.897616 0.701642 0.500000
Si Si4 0.878095 0.087402 0.774460
Si Si5 0.500000 0.857635 0.250000
Si Si6 0.429559 0.673330 0.500000
O O1 0.879440 0.500000 0.750000
O O2 0.715729 0.552234 0.841292
O O3 0.903826 0.602653 0.801104
O O4 0.879752 0.536425 0.000000
O O5 0.167524 0.104255 0.868381
O O6 0.277913 0.176310 0.000000
O O7 0.060769 0.174238 0.000000
O O8 0.888941 0.765992 0.500000
O O9 0.958930 0.679056 0.629463
O O10 0.000000 0.064901 0.750000
O O11 0.894063 0.139159 0.870893
#
# Coordination Sequence:
#
# PCOD9528454 Si02
#       6
#    16   8   8  16   8   8
#     4  12  27  46  71  97 136 181 228 287 349 403
#     4  10  22  40  66  91 136 178 217 274 342 396
#     4  12  26  42  69 100 138 182 235 275 344 411
#     4  10  22  44  67  97 137 173 225 281 338 406
#     4  12  27  46  66 100 138 178 235 284 334 424
#     4  10  24  42  66 104 139 181 222 285 340 402
#
# _framework density 20.863747
#
# number of rings (size 3 to 8) (size 9 to 14) (size 15 to 20)
#    0.000    1.000    5.000    0.375    8.750    4.500 
#    0.000    1.250    0.000    0.000    0.000    0.000 
#    0.000    0.000    0.000    0.000    0.000    0.000 
#
# Total GULP energy -178991.721960 kJ/mol
# GULP energy per Si atom -5593.491311 kJ/mol
# Density = 2.081626 g / cm^3
# Si number density = 20.863747 Si / 1000 Ang^3
#
#
#
# Elastic Constant Matrix: (Units=GPa)
#
#
# Indices 1 2 3 4 5 6 
#
# 1 95.8262 21.0753 27.6975 0.0000 0.0000 0.0000
# 2 21.0753 84.1407 48.8005 -0.0001 0.0000 0.0000
# 3 27.6975 48.8005 186.7794 -0.0003 0.0002 0.0002
# 4 0.0000 -0.0001 -0.0003 17.9937 -0.0001 -0.0001
# 5 0.0000 0.0000 0.0002 -0.0001 22.4787 0.0000
# 6 0.0000 0.0000 0.0002 -0.0001 0.0000 1.5933
#
#
#
# Elastic Compliance Matrix: (Units=1/GPa)
#
#
# Indices 1 2 3 4 5 6 
#
# 1 0.011231 -0.002177 -0.001097 0.000000 0.000000 0.000000
# 2 -0.002177 0.014430 -0.003447 0.000000 0.000000 0.000001
# 3 -0.001097 -0.003447 0.006417 0.000000 0.000000 -0.000001
# 4 0.000000 0.000000 0.000000 0.055575 0.000000 0.000004
# 5 0.000000 0.000000 0.000000 0.000000 0.044486 0.000000
# 6 0.000000 0.000001 -0.000001 0.000004 0.000000 0.627617
#
#
# Mechanical properties :
#
#
# Convention : Reuss Voigt Hill
#
# Bulk Modulus (GPa) = 53.65948 62.43256 58.04602
# Shear Modulus (GPa) = 6.41510 26.35802 16.38656
#
# Velocity S-wave (km/s) = 1.75540 3.55821 2.80555
# Velocity P-wave (km/s) = 5.46657 6.84617 6.19489
#
# Compressibility (1/GPa) = 0.01863604
#
# Stress axis : x y z
#
# Youngs Moduli (GPa) = 89.03640 69.30245 155.83127
#
# Poissons Ratio (x) = 0.15088 0.17089
# Poissons Ratio (y) = 0.19385 0.53718
# Poissons Ratio (z) = 0.09764 0.23890
#
# Static dielectric constant tensor:
#      x y z
#    x 1.767360 0.000000 0.000000 
#    y 0.000000 1.706460 0.000000 
#    z 0.000000 0.000000 1.727820 
# 
# From -- ./inp_files/2685.got.cif
#   From: 2010.05.17/outbox.cif.g08.bks.cpg/sg72_2_cif.got.tgz:2685.got - 2010.06.03 17:03:01.
