data_PCOD9528981
_publ_section_title
;
Structure prediction by ZEFSAII (Michael W. Deem and Ramdas Pophale) SiO2 
 PCOD9528981
Probable space group: I B A M
;
_chemical_formula_sum "Si O2"
_cell_formula_units_Z 60
_cell_length_a 14.008838
_cell_length_b 10.739821
_cell_length_c 18.549868
_cell_angle_alpha 90.000000
_cell_angle_beta 90.000000
_cell_angle_gamma 90.000000
_cell_volume 2790.872393
_symmetry_space_group_name_H-M "I B A M"
_symmetry_group_IT_number 72
_symmetry_cell_setting 'orthorhombic'
loop_
_space_group_symop_operation_xyz
x,y,z
-x,-y,z
x,-y,1/2-z
-x,y,1/2-z
-x,-y,-z
x,y,-z
-x,y,1/2+z
x,-y,1/2+z
1/2+x,1/2+y,1/2+z
1/2-x,1/2-y,1/2+z
1/2+x,1/2-y,-z
1/2-x,1/2+y,-z
1/2-x,1/2-y,1/2-z
1/2+x,1/2+y,1/2-z
1/2-x,1/2+y,z
1/2+x,1/2-y,z
loop_
_atom_site_type_symbol
_atom_site_label
_atom_site_fract_x
_atom_site_fract_y
_atom_site_fract_z
Si Si1 0.887953 0.022001 0.500000
Si Si2 0.261860 0.369725 0.623000
Si Si3 0.369743 0.760525 0.500000
Si Si4 0.065522 0.622416 0.500000
Si Si5 0.500000 0.000000 0.750000
Si Si6 0.338868 0.116072 0.655051
O O1 0.848346 0.092396 0.429986
O O2 0.842473 0.883859 0.500000
O O3 0.000000 0.000000 0.500000
O O4 0.175859 0.325994 0.570001
O O5 0.291287 0.249691 0.669213
O O6 0.228476 0.495008 0.662452
O O7 0.483952 0.772544 0.500000
O O8 0.128836 0.622917 0.428708
O O9 0.000000 0.500000 0.500000
O O10 0.567696 0.913744 0.701397
#
# Coordination Sequence:
#
# PCOD9528981 Si02
#       6
#     8  16   8   8   4  16
#     4  11  21  33  58 103 139 165 205 266 329 380
#     4  11  22  38  64  91 136 170 209 267 330 378
#     4  11  18  33  59 101 134 166 207 260 319 391
#     4  12  19  36  68  99 134 169 212 268 319 387
#     4  12  28  46  72  90 122 178 236 262 320 402
#     4  12  24  44  67  99 129 174 218 271 326 392
#
# _framework density 21.498654999999999
#
# number of rings (size 3 to 8) (size 9 to 14) (size 15 to 20)
#    0.000    0.533    6.667    4.000    0.000    1.067 
#    0.000    0.000    0.000    1.600    0.000    0.000 
#    0.000    0.000    0.000    0.000    0.000    0.000 
#
# Total GULP energy -167905.152081 kJ/mol
# GULP energy per Si atom -5596.838403 kJ/mol
# Density = 2.144972 g / cm^3
# Si number density = 21.498655 Si / 1000 Ang^3
#
#
#
# Elastic Constant Matrix: (Units=GPa)
#
#
# Indices 1 2 3 4 5 6 
#
# 1 127.9697 56.2154 44.5681 0.0000 0.0000 0.0000
# 2 56.2154 214.3472 32.7492 0.0000 0.0000 0.0000
# 3 44.5681 32.7492 94.5111 0.0000 0.0000 0.0000
# 4 0.0000 0.0000 0.0000 -13.8361 0.0000 0.0000
# 5 0.0000 0.0000 0.0000 0.0000 10.3620 0.0000
# 6 0.0000 0.0000 0.0000 0.0000 0.0000 45.2212
#
#
#
# Elastic Compliance Matrix: (Units=1/GPa)
#
#
# Indices 1 2 3 4 5 6 
#
# 1 0.010125 -0.002034 -0.004070 0.000000 0.000000 0.000000
# 2 -0.002034 0.005335 -0.000890 0.000000 0.000000 0.000000
# 3 -0.004070 -0.000890 0.012808 0.000000 0.000000 0.000000
# 4 0.000000 0.000000 0.000000 -0.072275 0.000000 0.000000
# 5 0.000000 0.000000 0.000000 0.000000 0.096507 0.000000
# 6 0.000000 0.000000 0.000000 0.000000 0.000000 0.022114
#
#
# Mechanical properties :
#
#
# Convention : Reuss Voigt Hill
#
# Bulk Modulus (GPa) = 70.01948 78.21041 74.11494
# Shear Modulus (GPa) = 53.55606 28.56911 41.06258
#
# Velocity S-wave (km/s) = 4.99654 3.64933 4.37510
# Velocity P-wave (km/s) = 8.11956 7.36309 7.75056
#
# Compressibility (1/GPa) = 0.01428174
#
# Stress axis : x y z
#
# Youngs Moduli (GPa) = 98.76398 187.45634 78.07462
#
# Poissons Ratio (x) = 0.38121 0.31776
# Poissons Ratio (y) = 0.20085 0.06945
# Poissons Ratio (z) = 0.40197 0.16674
#
# Static dielectric constant tensor:
#      x y z
#    x 1.761450 0.000000 0.000000 
#    y 0.000000 1.861970 0.000000 
#    z 0.000000 0.000000 1.756810 
# 
# From -- ./inp_files/28743.got.cif
#   From: 2010.05.17/outbox.cif.g08.bks.cpg/sg72_15_cif.got.tgz:28743.got - 2010.06.03 17:03:01.
