data_PCOD9528819
_publ_section_title
;
Structure prediction by ZEFSAII (Michael W. Deem and Ramdas Pophale) SiO2 
 PCOD9528819
Probable space group: I B A M
;
_chemical_formula_sum "Si O2"
_cell_formula_units_Z 116
_cell_length_a 19.444066
_cell_length_b 11.318523
_cell_length_c 23.976691
_cell_angle_alpha 90.000000
_cell_angle_beta 90.000000
_cell_angle_gamma 90.000000
_cell_volume 5276.744797
_symmetry_space_group_name_H-M "I B A M"
_symmetry_group_IT_number 72
_symmetry_cell_setting 'orthorhombic'
loop_
_space_group_symop_operation_xyz
x,y,z
-x,-y,z
x,-y,1/2-z
-x,y,1/2-z
-x,-y,-z
x,y,-z
-x,y,1/2+z
x,-y,1/2+z
1/2+x,1/2+y,1/2+z
1/2-x,1/2-y,1/2+z
1/2+x,1/2-y,-z
1/2-x,1/2+y,-z
1/2-x,1/2-y,1/2-z
1/2+x,1/2+y,1/2-z
1/2-x,1/2+y,z
1/2+x,1/2-y,z
loop_
_atom_site_type_symbol
_atom_site_label
_atom_site_fract_x
_atom_site_fract_y
_atom_site_fract_z
Si Si1 0.500000 0.000000 0.750000
Si Si2 0.808669 0.334518 0.674068
Si Si3 0.679632 0.942197 0.105196
Si Si4 0.668666 0.398199 0.107380
Si Si5 0.345243 0.588175 0.698249
Si Si6 0.886429 0.338459 0.212468
Si Si7 0.466782 0.121289 0.934846
Si Si8 0.978246 0.871219 0.935186
O O1 0.545273 0.084811 0.710921
O O2 0.822316 0.419876 0.621391
O O3 0.821629 0.202945 0.653701
O O4 0.732034 0.358766 0.696435
O O5 0.857518 0.360642 0.725851
O O6 0.755113 0.913249 0.081945
O O7 0.667174 0.882182 0.165831
O O8 0.615107 0.896474 0.070527
O O9 0.649524 0.516975 0.140796
O O10 0.604390 0.365402 0.069391
O O11 0.352480 0.500000 0.750000
O O12 0.395232 0.699155 0.704125
O O13 0.490735 0.248557 0.910812
O O14 0.500000 0.000000 0.911813
O O15 0.486916 0.125293 0.000000
O O16 0.000438 0.874006 0.000000
O O17 0.000000 0.000000 0.911140
#
# Coordination Sequence:
#
# PCOD9528819 Si02
#       8
#     4  16  16  16  16  16  16  16
#     4  12  28  40  62  88 126 180 226 266 316 376
#     4  11  20  39  62  92 127 168 209 261 318 381
#     4  11  23  37  66  95 128 165 218 271 322 385
#     4  11  23  39  65  99 124 170 220 267 328 381
#     4  11  22  38  63  90 129 174 208 264 320 381
#     4  12  23  41  57  89 131 170 219 256 312 381
#     4  10  23  44  68  93 125 170 215 270 342 403
#     4  10  24  46  68  91 128 175 218 270 344 414
#
# _framework density 21.983250000000002
#
# number of rings (size 3 to 8) (size 9 to 14) (size 15 to 20)
#    0.000    1.103    4.138    2.897    2.897    1.655 
#    0.000    0.345    0.000    5.793    0.000    0.000 
#    0.000    0.000    0.000    0.000    0.000    0.000 
#
# Total GULP energy -323983.607989 kJ/mol
# GULP energy per Si atom -5585.924276 kJ/mol
# Density = 2.193321 g / cm^3
# Si number density = 21.983250 Si / 1000 Ang^3
#
#
#
# Elastic Constant Matrix: (Units=GPa)
#
#
# Indices 1 2 3 4 5 6 
#
# 1 109.2777 61.5193 0.5348 0.0000 0.0000 0.0000
# 2 61.5193 175.4782 14.3222 0.0000 0.0000 0.0000
# 3 0.5348 14.3222 15.4156 0.0000 0.0000 0.0000
# 4 0.0000 0.0000 0.0000 7.3302 0.0000 0.0000
# 5 0.0000 0.0000 0.0000 0.0000 38.2569 0.0000
# 6 0.0000 0.0000 0.0000 0.0000 0.0000 30.2575
#
#
#
# Elastic Compliance Matrix: (Units=1/GPa)
#
#
# Indices 1 2 3 4 5 6 
#
# 1 0.011588 -0.004360 0.003649 0.000000 0.000000 0.000000
# 2 -0.004360 0.007807 -0.007102 0.000000 0.000000 0.000000
# 3 0.003649 -0.007102 0.071341 0.000000 0.000000 0.000000
# 4 0.000000 0.000000 0.000000 0.136423 0.000000 0.000000
# 5 0.000000 0.000000 0.000000 0.000000 0.026139 0.000000
# 6 0.000000 0.000000 0.000000 0.000000 0.000000 0.033050
#
#
# Mechanical properties :
#
#
# Convention : Reuss Voigt Hill
#
# Bulk Modulus (GPa) = 13.31391 50.32490 31.81940
# Shear Modulus (GPa) = 15.29003 30.08859 22.68931
#
# Velocity S-wave (km/s) = 2.64015 3.70362 3.21614
# Velocity P-wave (km/s) = 3.91962 6.42115 5.31952
#
# Compressibility (1/GPa) = 0.07510943
#
# Stress axis : x y z
#
# Youngs Moduli (GPa) = 86.29753 128.09021 14.01714
#
# Poissons Ratio (x) = 0.55851 -0.05115
# Poissons Ratio (y) = 0.37628 0.09955
# Poissons Ratio (z) = -0.31490 0.90970
#
# Static dielectric constant tensor:
#      x y z
#    x 1.806190 0.000000 0.000000 
#    y 0.000000 1.857380 0.000000 
#    z 0.000000 0.000000 1.782740 
# 
# From -- ./inp_files/48206.got.cif
#   From: 2010.05.17/outbox.cif.g08.bks.cpg/sg72_25_cif.got.tgz:48206.got - 2010.06.03 17:03:01.
