data_PCOD9528366
_publ_section_title
;
Structure prediction by ZEFSAII (Michael W. Deem and Ramdas Pophale) SiO2 
 PCOD9528366
Probable space group: I B A M
;
_chemical_formula_sum "Si O2"
_cell_formula_units_Z 64
_cell_length_a 22.408126
_cell_length_b 13.776108
_cell_length_c 9.592891
_cell_angle_alpha 90.000000
_cell_angle_beta 90.000000
_cell_angle_gamma 90.000000
_cell_volume 2961.294408
_symmetry_space_group_name_H-M "I B A M"
_symmetry_group_IT_number 72
_symmetry_cell_setting 'orthorhombic'
loop_
_space_group_symop_operation_xyz
x,y,z
-x,-y,z
x,-y,1/2-z
-x,y,1/2-z
-x,-y,-z
x,y,-z
-x,y,1/2+z
x,-y,1/2+z
1/2+x,1/2+y,1/2+z
1/2-x,1/2-y,1/2+z
1/2+x,1/2-y,-z
1/2-x,1/2+y,-z
1/2-x,1/2-y,1/2-z
1/2+x,1/2+y,1/2-z
1/2-x,1/2+y,z
1/2+x,1/2-y,z
loop_
_atom_site_type_symbol
_atom_site_label
_atom_site_fract_x
_atom_site_fract_y
_atom_site_fract_z
Si Si1 0.831154 0.369495 0.000000
Si Si2 0.361709 0.391579 0.277490
Si Si3 0.110470 0.629583 0.500000
Si Si4 0.591304 0.297415 0.500000
Si Si5 0.452611 0.338966 0.500000
Si Si6 0.637213 0.000000 0.250000
Si Si7 0.788955 0.228567 0.500000
O O1 0.895811 0.317748 0.000000
O O2 0.826578 0.433279 0.140323
O O3 0.781116 0.286529 0.000000
O O4 0.340299 0.500000 0.250000
O O5 0.422682 0.392106 0.368478
O O6 0.315486 0.328672 0.366955
O O7 0.377589 0.339662 0.135690
O O8 0.073089 0.728614 0.500000
O O9 0.101308 0.568482 0.641329
O O10 0.179986 0.666306 0.500000
O O11 0.522907 0.329988 0.500000
#
# Coordination Sequence:
#
# PCOD9528366 Si02
#       7
#     8  16   8   8   8   8   8
#     4  11  24  42  61  90 121 164 206 252 310 364
#     4  10  22  39  61  94 123 160 207 252 312 374
#     4   9  20  42  61  88 121 156 203 250 310 358
#     4  12  23  38  64  90 123 168 209 243 313 369
#     4  10  22  40  61  88 130 164 196 261 304 366
#     4  10  22  40  63  88 118 156 207 254 300 358
#     4  10  23  42  61  85 129 158 197 260 310 370
#
# _framework density 21.612171
#
# number of rings (size 3 to 8) (size 9 to 14) (size 15 to 20)
#    0.000    2.000    0.000    5.250    1.750    7.000 
#    4.500    3.750    0.000    0.000    0.000    0.000 
#    0.000    0.000    0.000    0.000    0.000    0.000 
#
# Total GULP energy -178757.617712 kJ/mol
# GULP energy per Si atom -5586.175554 kJ/mol
# Density = 2.156298 g / cm^3
# Si number density = 21.612171 Si / 1000 Ang^3
#
#
#
# Elastic Constant Matrix: (Units=GPa)
#
#
# Indices 1 2 3 4 5 6 
#
# 1 39.2779 -23.8532 8.5474 0.0000 0.0000 0.0000
# 2 -23.8532 60.1513 24.7285 0.0000 0.0000 0.0000
# 3 8.5474 24.7285 173.7487 0.0000 0.0000 0.0000
# 4 0.0000 0.0000 0.0000 35.9421 0.0000 0.0000
# 5 0.0000 0.0000 0.0000 0.0000 -16.7743 0.0000
# 6 0.0000 0.0000 0.0000 0.0000 0.0000 8.0053
#
#
#
# Elastic Compliance Matrix: (Units=1/GPa)
#
#
# Indices 1 2 3 4 5 6 
#
# 1 0.036024 0.015947 -0.004042 0.000000 0.000000 0.000000
# 2 0.015947 0.024717 -0.004302 0.000000 0.000000 0.000000
# 3 -0.004042 -0.004302 0.006567 0.000000 0.000000 0.000000
# 4 0.000000 0.000000 0.000000 0.027823 0.000000 0.000000
# 5 0.000000 0.000000 0.000000 0.000000 -0.059615 0.000000
# 6 0.000000 0.000000 0.000000 0.000000 0.000000 0.124917
#
#
# Mechanical properties :
#
#
# Convention : Reuss Voigt Hill
#
# Bulk Modulus (GPa) = 12.11929 32.44701 22.28315
# Shear Modulus (GPa) = 28.94685 23.01831 25.98258
#
# Velocity S-wave (km/s) = 3.66372 3.26707 3.47107
# Velocity P-wave (km/s) = 4.84943 5.41087 5.13782
#
# Compressibility (1/GPa) = 0.08251306
#
# Stress axis : x y z
#
# Youngs Moduli (GPa) = 27.75956 40.45759 152.28602
#
# Poissons Ratio (x) = -0.64517 0.61550
# Poissons Ratio (y) = -0.44268 0.65518
# Poissons Ratio (z) = 0.11220 0.17406
#
# Static dielectric constant tensor:
#      x y z
#    x 1.771510 0.000000 0.000000 
#    y 0.000000 1.815590 0.000000 
#    z 0.000000 0.000000 1.772630 
# 
# From -- ./inp_files/3512.got.cif
#   From: 2010.05.17/outbox.cif.g08.bks.cpg/sg72_2_cif.got.tgz:3512.got - 2010.06.03 17:03:01.
