data_PCOD9528044
_publ_section_title
;
Structure prediction by ZEFSAII (Michael W. Deem and Ramdas Pophale) SiO2 
 PCOD9528044
Probable space group: I B A M
;
_chemical_formula_sum "Si O2"
_cell_formula_units_Z 96
_cell_length_a 19.918973
_cell_length_b 28.884872
_cell_length_c 8.113251
_cell_angle_alpha 90.000000
_cell_angle_beta 90.000000
_cell_angle_gamma 90.000000
_cell_volume 4668.015638
_symmetry_space_group_name_H-M "I B A M"
_symmetry_group_IT_number 72
_symmetry_cell_setting 'orthorhombic'
loop_
_space_group_symop_operation_xyz
x,y,z
-x,-y,z
x,-y,1/2-z
-x,y,1/2-z
-x,-y,-z
x,y,-z
-x,y,1/2+z
x,-y,1/2+z
1/2+x,1/2+y,1/2+z
1/2-x,1/2-y,1/2+z
1/2+x,1/2-y,-z
1/2-x,1/2+y,-z
1/2-x,1/2-y,1/2-z
1/2+x,1/2+y,1/2-z
1/2-x,1/2+y,z
1/2+x,1/2-y,z
loop_
_atom_site_type_symbol
_atom_site_label
_atom_site_fract_x
_atom_site_fract_y
_atom_site_fract_z
Si Si1 0.569524 0.700371 0.697504
Si Si2 0.821592 0.728318 0.199299
Si Si3 0.711019 0.447130 0.801579
Si Si4 0.423767 0.148053 0.303808
Si Si5 0.071506 0.904755 0.699062
Si Si6 0.360584 0.053674 0.802398
O O1 0.500000 0.722370 0.750000
O O2 0.572955 0.698231 0.500000
O O3 0.629023 0.731319 0.757795
O O4 0.571079 0.648088 0.760840
O O5 0.750000 0.750000 0.250000
O O6 0.861295 0.681228 0.256455
O O7 0.819959 0.725391 0.000000
O O8 0.707573 0.500000 0.750000
O O9 0.641812 0.425129 0.739805
O O10 0.785036 0.431911 0.743603
O O11 0.710934 0.442272 0.000000
O O12 0.500000 0.160764 0.250000
O O13 0.423145 0.151958 0.500000
O O14 0.409180 0.094555 0.256284
O O15 0.072674 0.905361 0.500000
O O16 0.000000 0.926556 0.750000
O O17 0.373667 0.000000 0.750000
O O18 0.360932 0.053445 0.000000
#
# Coordination Sequence:
#
# PCOD9528044 Si02
#       6
#    16  16  16  16  16  16
#     4   9  18  34  55  77 107 145 186 231 279 334
#     4  10  23  39  59  88 120 155 196 243 291 347
#     4   9  19  34  53  77 107 146 188 234 291 349
#     4  11  24  42  63  93 126 160 202 249 299 360
#     4   9  18  32  50  75 105 142 188 233 281 339
#     4  10  21  39  64  91 120 159 199 248 306 364
#
# _framework density 20.565484000000001
#
# number of rings (size 3 to 8) (size 9 to 14) (size 15 to 20)
#    0.000    2.333    0.000    1.500    2.333    4.000 
#    0.000    3.333    0.000    0.000    0.000    0.000 
#    0.000    0.000    0.000    0.000    0.000    0.000 
#
# Total GULP energy -267243.820800 kJ/mol
# GULP energy per Si atom -5567.579600 kJ/mol
# Density = 2.051868 g / cm^3
# Si number density = 20.565484 Si / 1000 Ang^3
#
#
#
# Elastic Constant Matrix: (Units=GPa)
#
#
# Indices 1 2 3 4 5 6 
#
# 1 160.6735 70.4303 13.1130 0.0000 0.0000 0.0000
# 2 70.4303 68.6713 9.6265 0.0000 0.0000 0.0000
# 3 13.1130 9.6265 22.9404 0.0000 0.0000 0.0000
# 4 0.0000 0.0000 0.0000 12.5333 0.0000 0.0000
# 5 0.0000 0.0000 0.0000 0.0000 29.2624 0.0000
# 6 0.0000 0.0000 0.0000 0.0000 0.0000 41.5047
#
#
#
# Elastic Compliance Matrix: (Units=1/GPa)
#
#
# Indices 1 2 3 4 5 6 
#
# 1 0.011370 -0.011422 -0.001706 0.000000 0.000000 0.000000
# 2 -0.011422 0.026946 -0.004779 0.000000 0.000000 0.000000
# 3 -0.001706 -0.004779 0.046572 0.000000 0.000000 0.000000
# 4 0.000000 0.000000 0.000000 0.079787 0.000000 0.000000
# 5 0.000000 0.000000 0.000000 0.000000 0.034174 0.000000
# 6 0.000000 0.000000 0.000000 0.000000 0.000000 0.024094
#
#
# Mechanical properties :
#
#
# Convention : Reuss Voigt Hill
#
# Bulk Modulus (GPa) = 20.37717 48.73611 34.55664
# Shear Modulus (GPa) = 18.17429 27.26776 22.72102
#
# Velocity S-wave (km/s) = 2.97598 3.64524 3.32748
# Velocity P-wave (km/s) = 4.66246 6.43945 5.62161
#
# Compressibility (1/GPa) = 0.04907452
#
# Stress axis : x y z
#
# Youngs Moduli (GPa) = 87.95290 37.11072 21.47228
#
# Poissons Ratio (x) = 0.42387 0.03663
# Poissons Ratio (y) = 1.00458 0.10261
# Poissons Ratio (z) = 0.15006 0.17734
#
# Static dielectric constant tensor:
#      x y z
#    x 1.955950 0.000000 0.000000 
#    y 0.000000 1.741060 0.000000 
#    z 0.000000 0.000000 1.720860 
# 
# From -- ./inp_files/5948.got.cif
#   From: 2010.05.17/outbox.cif.g08.bks.cpg/sg72_3_cif.got.tgz:5948.got - 2010.06.03 17:03:01.
