data_PCOD9528099
_publ_section_title
;
Structure prediction by ZEFSAII (Michael W. Deem and Ramdas Pophale) SiO2 
 PCOD9528099
Probable space group: I B A M
;
_chemical_formula_sum "Si O2"
_cell_formula_units_Z 96
_cell_length_a 23.677467
_cell_length_b 11.289053
_cell_length_c 18.717540
_cell_angle_alpha 90.000000
_cell_angle_beta 90.000000
_cell_angle_gamma 90.000000
_cell_volume 5003.126939
_symmetry_space_group_name_H-M "I B A M"
_symmetry_group_IT_number 72
_symmetry_cell_setting 'orthorhombic'
loop_
_space_group_symop_operation_xyz
x,y,z
-x,-y,z
x,-y,1/2-z
-x,y,1/2-z
-x,-y,-z
x,y,-z
-x,y,1/2+z
x,-y,1/2+z
1/2+x,1/2+y,1/2+z
1/2-x,1/2-y,1/2+z
1/2+x,1/2-y,-z
1/2-x,1/2+y,-z
1/2-x,1/2-y,1/2-z
1/2+x,1/2+y,1/2-z
1/2-x,1/2+y,z
1/2+x,1/2-y,z
loop_
_atom_site_type_symbol
_atom_site_label
_atom_site_fract_x
_atom_site_fract_y
_atom_site_fract_z
Si Si1 0.134775 0.955130 0.330849
Si Si2 0.346839 0.900051 0.582207
Si Si3 0.248082 0.374563 0.704321
Si Si4 0.021848 0.192413 0.168883
Si Si5 0.054353 0.585245 0.580455
Si Si6 0.910653 0.847333 0.581168
O O1 0.191541 0.880023 0.335628
O O2 0.076890 0.886492 0.342472
O O3 0.132170 0.000000 0.250000
O O4 0.134732 0.067571 0.382210
O O5 0.324166 0.908048 0.500000
O O6 0.301001 0.881925 0.644570
O O7 0.387534 0.785833 0.583836
O O8 0.388359 0.011910 0.593913
O O9 0.243915 0.500000 0.750000
O O10 0.250000 0.250000 0.750000
O O11 0.040952 0.319859 0.140546
O O12 0.000000 0.193554 0.250000
O O13 0.969172 0.147923 0.122943
O O14 0.058242 0.638678 0.500000
O O15 0.000000 0.500000 0.578922
O O16 0.919436 0.882922 0.500000
#
# Coordination Sequence:
#
# PCOD9528099 Si02
#       6
#    16  16  16  16  16  16
#     4  11  24  43  62  92 130 166 215 265 326 381
#     4  10  22  43  68  93 128 173 217 266 329 392
#     4  11  26  45  70  95 133 177 225 281 331 389
#     4  12  24  37  65  95 130 164 212 265 329 396
#     4  10  21  40  62  90 129 168 211 268 323 384
#     4  11  23  42  67  94 130 171 208 260 334 399
#
# _framework density 19.187999999999999
#
# number of rings (size 3 to 8) (size 9 to 14) (size 15 to 20)
#    0.000    1.167    3.333    3.000    2.333    3.000 
#    0.000    0.833    0.000    0.000    0.000    0.000 
#    0.000    0.000    0.000    0.000    0.000    0.000 
#
# Total GULP energy -267891.943185 kJ/mol
# GULP energy per Si atom -5581.082150 kJ/mol
# Density = 1.914433 g / cm^3
# Si number density = 19.188000 Si / 1000 Ang^3
#
#
#
# Elastic Constant Matrix: (Units=GPa)
#
#
# Indices 1 2 3 4 5 6 
#
# 1 95.9611 19.3662 33.6927 0.0000 0.0000 0.0000
# 2 19.3662 61.1439 18.7890 0.0000 0.0000 0.0000
# 3 33.6927 18.7890 95.2719 0.0000 0.0000 0.0000
# 4 0.0000 0.0000 0.0000 -23.2201 0.0000 0.0000
# 5 0.0000 0.0000 0.0000 0.0000 -13.5523 0.0000
# 6 0.0000 0.0000 0.0000 0.0000 0.0000 29.8451
#
#
#
# Elastic Compliance Matrix: (Units=1/GPa)
#
#
# Indices 1 2 3 4 5 6 
#
# 1 0.012311 -0.002727 -0.003816 0.000000 0.000000 0.000000
# 2 -0.002727 0.018014 -0.002588 0.000000 0.000000 0.000000
# 3 -0.003816 -0.002588 0.012356 0.000000 0.000000 0.000000
# 4 0.000000 0.000000 0.000000 -0.043066 0.000000 0.000000
# 5 0.000000 0.000000 0.000000 0.000000 -0.073788 0.000000
# 6 0.000000 0.000000 0.000000 0.000000 0.000000 0.033506
#
#
# Mechanical properties :
#
#
# Convention : Reuss Voigt Hill
#
# Bulk Modulus (GPa) = 40.95149 44.00806 42.47978
# Shear Modulus (GPa) = -350.50980 10.64979 -169.93000
#
# Velocity S-wave (km/s) = -13.53026 2.35845 -9.42087
# Velocity P-wave (km/s) = 14.92320 5.51374 9.80563
#
# Compressibility (1/GPa) = 0.02441913
#
# Stress axis : x y z
#
# Youngs Moduli (GPa) = 81.22822 55.51282 80.93065
#
# Poissons Ratio (x) = 0.15136 0.30883
# Poissons Ratio (y) = 0.22148 0.20947
# Poissons Ratio (z) = 0.30997 0.14368
#
# Static dielectric constant tensor:
#      x y z
#    x 1.666110 0.000000 0.000000 
#    y 0.000000 1.729650 0.000000 
#    z 0.000000 0.000000 1.661990 
# 
# From -- ./inp_files/33271.got.cif
#   From: 2010.05.17/outbox.cif.g08.bks.cpg/sg72_17_cif.got.tgz:33271.got - 2010.06.03 17:03:01.
