data_PCOD9528836
_publ_section_title
;
Structure prediction by ZEFSAII (Michael W. Deem and Ramdas Pophale) SiO2 
 PCOD9528836
Probable space group: I B A M
;
_chemical_formula_sum "Si O2"
_cell_formula_units_Z 104
_cell_length_a 20.565584
_cell_length_b 8.825973
_cell_length_c 29.211753
_cell_angle_alpha 90.000000
_cell_angle_beta 90.000000
_cell_angle_gamma 90.000000
_cell_volume 5302.262944
_symmetry_space_group_name_H-M "I B A M"
_symmetry_group_IT_number 72
_symmetry_cell_setting 'orthorhombic'
loop_
_space_group_symop_operation_xyz
x,y,z
-x,-y,z
x,-y,1/2-z
-x,y,1/2-z
-x,-y,-z
x,y,-z
-x,y,1/2+z
x,-y,1/2+z
1/2+x,1/2+y,1/2+z
1/2-x,1/2-y,1/2+z
1/2+x,1/2-y,-z
1/2-x,1/2+y,-z
1/2-x,1/2-y,1/2-z
1/2+x,1/2+y,1/2-z
1/2-x,1/2+y,z
1/2+x,1/2-y,z
loop_
_atom_site_type_symbol
_atom_site_label
_atom_site_fract_x
_atom_site_fract_y
_atom_site_fract_z
Si Si1 0.500000 0.500000 0.330474
Si Si2 0.185368 0.829937 0.269160
Si Si3 0.875970 0.182188 0.366226
Si Si4 0.198398 0.022662 0.947298
Si Si5 0.425117 0.023055 0.872438
Si Si6 0.336680 0.171351 0.052822
Si Si7 0.060312 0.712777 0.219320
O O1 0.556662 0.590900 0.357015
O O2 0.462604 0.625125 0.300660
O O3 0.250000 0.750000 0.250000
O O4 0.173692 0.838450 0.323643
O O5 0.123464 0.738650 0.249859
O O6 0.183800 0.000000 0.250000
O O7 0.843524 0.117936 0.411772
O O8 0.892240 0.359062 0.369677
O O9 0.273802 0.064793 0.941097
O O10 0.185812 0.844618 0.940427
O O11 0.181741 0.060461 0.000000
O O12 0.389471 0.125024 0.910000
O O13 0.424570 0.104487 0.823151
O O14 0.500000 0.000000 0.885241
O O15 0.359182 0.155897 0.000000
O O16 0.000000 0.660746 0.250000
#
# Coordination Sequence:
#
# PCOD9528836 Si02
#       7
#     8  16  16  16  16  16  16
#     4  12  21  46  69  92 124 180 229 274 327 396
#     4  12  28  43  64  98 135 177 224 281 340 396
#     4  12  26  43  69  99 135 179 227 280 337 399
#     4  10  23  45  74 103 134 177 225 281 346 408
#     4  12  26  42  67 102 135 179 225 279 335 401
#     4  10  23  45  72 101 135 176 223 279 345 410
#     4  12  23  46  69  92 133 179 234 275 330 404
#
# _framework density 19.614267000000002
#
# number of rings (size 3 to 8) (size 9 to 14) (size 15 to 20)
#    0.000    0.615    4.615    2.077    4.308    3.692 
#    0.000    0.385    0.000    0.000    0.000    0.000 
#    0.000    0.000    0.000    0.000    0.000    0.000 
#
# Total GULP energy -291007.819004 kJ/mol
# GULP energy per Si atom -5596.304212 kJ/mol
# Density = 1.956962 g / cm^3
# Si number density = 19.614267 Si / 1000 Ang^3
#
#
#
# Elastic Constant Matrix: (Units=GPa)
#
#
# Indices 1 2 3 4 5 6 
#
# 1 97.8375 34.8663 69.5107 0.0000 0.0000 0.0000
# 2 34.8663 111.9928 69.5703 0.0000 0.0000 0.0000
# 3 69.5107 69.5703 140.5916 0.0000 0.0000 0.0000
# 4 0.0000 0.0000 0.0000 184.4141 0.0000 0.0000
# 5 0.0000 0.0000 0.0000 0.0000 26.6976 0.0000
# 6 0.0000 0.0000 0.0000 0.0000 0.0000 36.9395
#
#
#
# Elastic Compliance Matrix: (Units=1/GPa)
#
#
# Indices 1 2 3 4 5 6 
#
# 1 0.015756 -0.000095 -0.007743 0.000000 0.000000 0.000000
# 2 -0.000095 0.012893 -0.006333 0.000000 0.000000 0.000000
# 3 -0.007743 -0.006333 0.014075 0.000000 0.000000 0.000000
# 4 0.000000 0.000000 0.000000 0.005423 0.000000 0.000000
# 5 0.000000 0.000000 0.000000 0.000000 0.037457 0.000000
# 6 0.000000 0.000000 0.000000 0.000000 0.000000 0.027071
#
#
# Mechanical properties :
#
#
# Convention : Reuss Voigt Hill
#
# Bulk Modulus (GPa) = 69.53316 77.59072 73.56194
# Shear Modulus (GPa) = 34.29129 61.37522 47.83325
#
# Velocity S-wave (km/s) = 4.18578 5.59991 4.94367
# Velocity P-wave (km/s) = 7.67387 9.02531 8.37689
#
# Compressibility (1/GPa) = 0.01438163
#
# Stress axis : x y z
#
# Youngs Moduli (GPa) = 63.46743 77.56316 71.04972
#
# Poissons Ratio (x) = 0.00740 0.55013
# Poissons Ratio (y) = 0.00605 0.44993
# Poissons Ratio (z) = 0.49142 0.49118
#
# Static dielectric constant tensor:
#      x y z
#    x 1.665930 0.000000 0.000000 
#    y 0.000000 1.717020 0.000000 
#    z 0.000000 0.000000 1.682990 
# 
# From -- ./inp_files/49420.got.cif
#   From: 2010.05.17/outbox.cif.g08.bks.cpg/sg72_25_cif.got.tgz:49420.got - 2010.06.03 17:03:01.
