data_PCOD9528730
_publ_section_title
;
Structure prediction by ZEFSAII (Michael W. Deem and Ramdas Pophale) SiO2 
 PCOD9528730
Probable space group: I B A M
;
_chemical_formula_sum "Si O2"
_cell_formula_units_Z 64
_cell_length_a 8.861285
_cell_length_b 30.841840
_cell_length_c 10.589782
_cell_angle_alpha 90.000000
_cell_angle_beta 90.000000
_cell_angle_gamma 90.000000
_cell_volume 2894.169780
_symmetry_space_group_name_H-M "I B A M"
_symmetry_group_IT_number 72
_symmetry_cell_setting 'orthorhombic'
loop_
_space_group_symop_operation_xyz
x,y,z
-x,-y,z
x,-y,1/2-z
-x,y,1/2-z
-x,-y,-z
x,y,-z
-x,y,1/2+z
x,-y,1/2+z
1/2+x,1/2+y,1/2+z
1/2-x,1/2-y,1/2+z
1/2+x,1/2-y,-z
1/2-x,1/2+y,-z
1/2-x,1/2-y,1/2-z
1/2+x,1/2+y,1/2-z
1/2-x,1/2+y,z
1/2+x,1/2-y,z
loop_
_atom_site_type_symbol
_atom_site_label
_atom_site_fract_x
_atom_site_fract_y
_atom_site_fract_z
Si Si1 0.683580 0.457007 0.500000
Si Si2 0.670100 0.322234 0.272308
Si Si3 0.163362 0.061106 0.000000
Si Si4 0.608118 0.229657 0.368047
Si Si5 0.179395 0.410425 0.237263
O O1 0.679077 0.508988 0.500000
O O2 0.518361 0.434163 0.500000
O O3 0.765688 0.442673 0.371773
O O4 0.500000 0.337480 0.250000
O O5 0.658233 0.279736 0.359666
O O6 0.747752 0.301043 0.148982
O O7 0.770772 0.362667 0.309054
O O8 0.239748 0.080015 0.872361
O O9 0.500000 0.221803 0.250000
O O10 0.530324 0.221000 0.500000
O O11 0.000000 0.412697 0.250000
#
# Coordination Sequence:
#
# PCOD9528730 Si02
#       5
#     8  16   8  16  16
#     4  11  25  47  75 104 137 182 225 283 349 414
#     4  10  23  41  64  95 133 183 230 280 336 403
#     4  11  25  47  75 104 139 178 229 281 345 422
#     4  10  23  44  69  99 137 182 233 290 349 410
#     4  12  26  45  70 105 142 182 230 285 344 412
#
# _framework density 22.113422
#
# number of rings (size 3 to 8) (size 9 to 14) (size 15 to 20)
#    0.000    1.250    0.000    4.500    3.500   15.000 
#    4.500    0.000    0.000    0.000    0.000    0.000 
#    0.000    0.000    0.000    0.000    0.000    0.000 
#
# Total GULP energy -178883.717994 kJ/mol
# GULP energy per Si atom -5590.116187 kJ/mol
# Density = 2.206309 g / cm^3
# Si number density = 22.113422 Si / 1000 Ang^3
#
#
#
# Elastic Constant Matrix: (Units=GPa)
#
#
# Indices 1 2 3 4 5 6 
#
# 1 177.3474 28.8542 53.7151 0.0002 0.0002 0.0000
# 2 28.8542 64.1130 5.6200 0.0010 0.0000 -0.0001
# 3 53.7151 5.6200 147.9466 -0.0124 -0.0010 0.0011
# 4 0.0002 0.0010 -0.0124 -153.5681 -0.0015 0.0011
# 5 0.0002 0.0000 -0.0010 -0.0015 31.6397 0.0001
# 6 0.0000 -0.0001 0.0011 0.0011 0.0001 33.4216
#
#
#
# Elastic Compliance Matrix: (Units=1/GPa)
#
#
# Indices 1 2 3 4 5 6 
#
# 1 0.006822 -0.002863 -0.002368 0.000000 0.000000 0.000000
# 2 -0.002863 0.016851 0.000399 0.000000 0.000000 0.000000
# 3 -0.002368 0.000399 0.007604 -0.000001 0.000000 0.000000
# 4 0.000000 0.000000 -0.000001 -0.006512 0.000000 0.000000
# 5 0.000000 0.000000 0.000000 0.000000 0.031606 0.000000
# 6 0.000000 0.000000 0.000000 0.000000 0.000000 0.029921
#
#
# Mechanical properties :
#
#
# Convention : Reuss Voigt Hill
#
# Bulk Modulus (GPa) = 46.26732 62.86506 54.56619
# Shear Modulus (GPa) = 48.46930 2.37983 25.42456
#
# Velocity S-wave (km/s) = 4.68680 1.03852 3.39445
# Velocity P-wave (km/s) = 7.08917 5.47067 6.33184
#
# Compressibility (1/GPa) = 0.02161353
#
# Stress axis : x y z
#
# Youngs Moduli (GPa) = 146.59329 59.34453 131.51359
#
# Poissons Ratio (x) = 0.16987 0.31142
# Poissons Ratio (y) = 0.41962 -0.05250
# Poissons Ratio (z) = 0.34713 -0.02369
#
# Static dielectric constant tensor:
#      x y z
#    x 1.832240 0.000000 0.000000 
#    y 0.000000 1.795260 0.000000 
#    z 0.000000 0.000000 1.810690 
# 
# From -- ./inp_files/10552.got.cif
#   From: 2010.05.17/outbox.cif.g08.bks.cpg/sg72_6_cif.got.tgz:10552.got - 2010.06.03 17:03:01.
