data_PCOD9528150
_publ_section_title
;
Structure prediction by ZEFSAII (Michael W. Deem and Ramdas Pophale) SiO2 
 PCOD9528150
Probable space group: I B A M
;
_chemical_formula_sum "Si O2"
_cell_formula_units_Z 80
_cell_length_a 14.788878
_cell_length_b 11.406699
_cell_length_c 22.969361
_cell_angle_alpha 90.000000
_cell_angle_beta 90.000000
_cell_angle_gamma 90.000000
_cell_volume 3874.753875
_symmetry_space_group_name_H-M "I B A M"
_symmetry_group_IT_number 72
_symmetry_cell_setting 'orthorhombic'
loop_
_space_group_symop_operation_xyz
x,y,z
-x,-y,z
x,-y,1/2-z
-x,y,1/2-z
-x,-y,-z
x,y,-z
-x,y,1/2+z
x,-y,1/2+z
1/2+x,1/2+y,1/2+z
1/2-x,1/2-y,1/2+z
1/2+x,1/2-y,-z
1/2-x,1/2+y,-z
1/2-x,1/2-y,1/2-z
1/2+x,1/2+y,1/2-z
1/2-x,1/2+y,z
1/2+x,1/2-y,z
loop_
_atom_site_type_symbol
_atom_site_label
_atom_site_fract_x
_atom_site_fract_y
_atom_site_fract_z
Si Si1 0.894875 0.530785 0.128955
Si Si2 0.973173 0.129743 0.317958
Si Si3 0.128537 0.275632 0.624925
Si Si4 0.299447 0.767569 0.811521
Si Si5 0.683886 0.934238 0.500000
Si Si6 0.811825 0.295787 0.000000
O O1 0.850062 0.407110 0.145529
O O2 0.866264 0.623709 0.177638
O O3 0.868730 0.567656 0.062454
O O4 0.000000 0.500000 0.129119
O O5 0.867335 0.159468 0.324199
O O6 0.000000 0.137584 0.250000
O O7 0.037854 0.221325 0.350285
O O8 0.000000 0.000000 0.338355
O O9 0.217652 0.206875 0.644257
O O10 0.125996 0.283563 0.556153
O O11 0.250000 0.750000 0.750000
O O12 0.744017 0.815440 0.500000
O O13 0.726252 0.068861 0.500000
#
# Coordination Sequence:
#
# PCOD9528150 Si02
#       6
#    16  16  16  16   8   8
#     4  11  23  42  69  99 139 179 238 296 351 422
#     4  11  25  44  66  95 140 180 228 287 351 423
#     4  11  24  44  66 101 139 180 232 288 350 427
#     4  12  25  42  68 100 132 185 231 285 357 415
#     4  10  21  40  68 102 138 191 235 293 356 430
#     4  10  22  40  69 102 140 183 235 286 356 429
#
# _framework density 20.646473
#
# number of rings (size 3 to 8) (size 9 to 14) (size 15 to 20)
#    0.000    1.000    6.000    0.300    2.800    0.800 
#    0.000    3.500    0.000    0.000    0.000    0.000 
#    0.000    0.000    0.000    0.000    0.000    0.000 
#
# Total GULP energy -223020.356549 kJ/mol
# GULP energy per Si atom -5575.508914 kJ/mol
# Density = 2.059948 g / cm^3
# Si number density = 20.646473 Si / 1000 Ang^3
#
#
#
# Elastic Constant Matrix: (Units=GPa)
#
#
# Indices 1 2 3 4 5 6 
#
# 1 117.7033 37.5566 26.9950 0.0000 0.0000 0.0000
# 2 37.5566 114.1161 41.4035 0.0000 0.0000 0.0000
# 3 26.9950 41.4035 87.3072 0.0000 0.0000 0.0000
# 4 0.0000 0.0000 0.0000 26.4082 0.0000 0.0000
# 5 0.0000 0.0000 0.0000 0.0000 25.4028 0.0000
# 6 0.0000 0.0000 0.0000 0.0000 0.0000 33.3294
#
#
#
# Elastic Compliance Matrix: (Units=1/GPa)
#
#
# Indices 1 2 3 4 5 6 
#
# 1 0.009721 -0.002547 -0.001798 0.000000 0.000000 0.000000
# 2 -0.002547 0.011251 -0.004548 0.000000 0.000000 0.000000
# 3 -0.001798 -0.004548 0.014167 0.000000 0.000000 0.000000
# 4 0.000000 0.000000 0.000000 0.037867 0.000000 0.000000
# 5 0.000000 0.000000 0.000000 0.000000 0.039366 0.000000
# 6 0.000000 0.000000 0.000000 0.000000 0.000000 0.030004
#
#
# Mechanical properties :
#
#
# Convention : Reuss Voigt Hill
#
# Bulk Modulus (GPa) = 57.62723 59.00409 58.31566
# Shear Modulus (GPa) = 30.13036 31.23951 30.68494
#
# Velocity S-wave (km/s) = 3.82428 3.89404 3.85932
# Velocity P-wave (km/s) = 6.89001 6.98988 6.94012
#
# Compressibility (1/GPa) = 0.01735291
#
# Stress axis : x y z
#
# Youngs Moduli (GPa) = 102.87056 88.87770 70.58871
#
# Poissons Ratio (x) = 0.22637 0.12691
# Poissons Ratio (y) = 0.26201 0.32105
# Poissons Ratio (z) = 0.18494 0.40423
#
# Static dielectric constant tensor:
#      x y z
#    x 1.759430 0.000000 0.000000 
#    y 0.000000 1.844370 0.000000 
#    z 0.000000 0.000000 1.742880 
# 
# From -- ./inp_files/44118.got.cif
#   From: 2010.05.17/outbox.cif.g08.bks.cpg/sg72_23_cif.got.tgz:44118.got - 2010.06.03 17:03:01.
