data_PCOD9528998
_publ_section_title
;
Structure prediction by ZEFSAII (Michael W. Deem and Ramdas Pophale) SiO2 
 PCOD9528998
Probable space group: I B A M
;
_chemical_formula_sum "Si O2"
_cell_formula_units_Z 116
_cell_length_a 22.338451
_cell_length_b 17.004139
_cell_length_c 15.051316
_cell_angle_alpha 90.000000
_cell_angle_beta 90.000000
_cell_angle_gamma 90.000000
_cell_volume 5717.184072
_symmetry_space_group_name_H-M "I B A M"
_symmetry_group_IT_number 72
_symmetry_cell_setting 'orthorhombic'
loop_
_space_group_symop_operation_xyz
x,y,z
-x,-y,z
x,-y,1/2-z
-x,y,1/2-z
-x,-y,-z
x,y,-z
-x,y,1/2+z
x,-y,1/2+z
1/2+x,1/2+y,1/2+z
1/2-x,1/2-y,1/2+z
1/2+x,1/2-y,-z
1/2-x,1/2+y,-z
1/2-x,1/2-y,1/2-z
1/2+x,1/2+y,1/2-z
1/2-x,1/2+y,z
1/2+x,1/2-y,z
loop_
_atom_site_type_symbol
_atom_site_label
_atom_site_fract_x
_atom_site_fract_y
_atom_site_fract_z
Si Si1 0.261967 0.747449 0.644827
Si Si2 0.000000 0.500000 0.500000
Si Si3 0.304819 0.530427 0.850525
Si Si4 0.637374 0.302266 0.099801
Si Si5 0.826171 0.411216 0.103979
Si Si6 0.143131 0.126330 0.403697
Si Si7 0.564158 0.277804 0.728673
Si Si8 0.044845 0.398789 0.667324
O O1 0.250000 0.750000 0.750000
O O2 0.198729 0.753885 0.597788
O O3 0.304503 0.821224 0.620646
O O4 0.294326 0.668969 0.616002
O O5 0.014427 0.433767 0.579158
O O6 0.305530 0.500000 0.750000
O O7 0.338340 0.612787 0.866930
O O8 0.235035 0.540549 0.877547
O O9 0.342392 0.464970 0.901543
O O10 0.596548 0.265640 0.176601
O O11 0.611910 0.307045 0.000000
O O12 0.885610 0.429469 0.161717
O O13 0.842189 0.420702 0.000000
O O14 0.120124 0.150500 0.500000
O O15 0.100822 0.160313 0.328476
O O16 0.500000 0.312419 0.750000
O O17 0.554643 0.195807 0.676369
O O18 0.000000 0.416328 0.750000
#
# Coordination Sequence:
#
# PCOD9528998 Si02
#       8
#    16   4  16  16  16  16  16  16
#     4  11  19  36  65  97 132 179 225 291 367 433
#     4  12  26  48  76  98 140 196 228 284 362 418
#     4  11  22  39  65 103 145 183 229 302 376 438
#     4  11  22  43  67  97 142 185 236 298 369 434
#     4  11  21  40  66  98 134 185 237 285 360 443
#     4  12  22  38  67 102 139 177 233 298 359 435
#     4  11  25  45  71 102 134 184 244 296 344 421
#     4  11  25  47  73 101 140 185 245 293 347 429
#
# _framework density 20.289708999999998
#
# number of rings (size 3 to 8) (size 9 to 14) (size 15 to 20)
#    0.000    0.828    4.828    4.345    0.966    1.655 
#    3.724    2.759    0.000    1.655    0.000    0.000 
#    0.000    0.000    0.000    0.000    0.000    0.000 
#
# Total GULP energy -323182.020346 kJ/mol
# GULP energy per Si atom -5572.103799 kJ/mol
# Density = 2.024353 g / cm^3
# Si number density = 20.289709 Si / 1000 Ang^3
#
#
#
# Elastic Constant Matrix: (Units=GPa)
#
#
# Indices 1 2 3 4 5 6 
#
# 1 76.3301 29.7440 37.5975 0.0000 0.0000 0.0000
# 2 29.7440 72.6168 17.9754 0.0000 0.0000 0.0000
# 3 37.5975 17.9754 153.4828 0.0000 0.0000 0.0000
# 4 0.0000 0.0000 0.0000 -35.8070 0.0000 0.0000
# 5 0.0000 0.0000 0.0000 0.0000 7.1858 0.0000
# 6 0.0000 0.0000 0.0000 0.0000 0.0000 18.0521
#
#
#
# Elastic Compliance Matrix: (Units=1/GPa)
#
#
# Indices 1 2 3 4 5 6 
#
# 1 0.017237 -0.006195 -0.003497 0.000000 0.000000 0.000000
# 2 -0.006195 0.016408 -0.000404 0.000000 0.000000 0.000000
# 3 -0.003497 -0.000404 0.007419 0.000000 0.000000 0.000000
# 4 0.000000 0.000000 0.000000 -0.027928 0.000000 0.000000
# 5 0.000000 0.000000 0.000000 0.000000 0.139163 0.000000
# 6 0.000000 0.000000 0.000000 0.000000 0.000000 0.055395
#
#
# Mechanical properties :
#
#
# Convention : Reuss Voigt Hill
#
# Bulk Modulus (GPa) = 47.90854 52.56263 50.23558
# Shear Modulus (GPa) = 21.29054 12.36038 16.82546
#
# Velocity S-wave (km/s) = 3.24285 2.47086 2.88281
# Velocity P-wave (km/s) = 6.13880 5.83974 5.99114
#
# Compressibility (1/GPa) = 0.02087310
#
# Stress axis : x y z
#
# Youngs Moduli (GPa) = 58.01311 60.94444 134.78246
#
# Poissons Ratio (x) = 0.37754 0.47134
# Poissons Ratio (y) = 0.35938 0.05448
# Poissons Ratio (z) = 0.20287 0.02463
#
# Static dielectric constant tensor:
#      x y z
#    x 1.741160 0.000000 0.000000 
#    y 0.000000 1.698970 0.000000 
#    z 0.000000 0.000000 1.957790 
# 
# From -- ./inp_files/25401.got.cif
#   From: 2010.05.17/outbox.cif.g08.bks.cpg/sg72_13_cif.got.tgz:25401.got - 2010.06.03 17:03:01.
