data_PCOD9528485
_publ_section_title
;
Structure prediction by ZEFSAII (Michael W. Deem and Ramdas Pophale) SiO2 
 PCOD9528485
Probable space group: I B A M
;
_chemical_formula_sum "Si O2"
_cell_formula_units_Z 80
_cell_length_a 16.910312
_cell_length_b 26.511124
_cell_length_c 9.556767
_cell_angle_alpha 90.000000
_cell_angle_beta 90.000000
_cell_angle_gamma 90.000000
_cell_volume 4284.407386
_symmetry_space_group_name_H-M "I B A M"
_symmetry_group_IT_number 72
_symmetry_cell_setting 'orthorhombic'
loop_
_space_group_symop_operation_xyz
x,y,z
-x,-y,z
x,-y,1/2-z
-x,y,1/2-z
-x,-y,-z
x,y,-z
-x,y,1/2+z
x,-y,1/2+z
1/2+x,1/2+y,1/2+z
1/2-x,1/2-y,1/2+z
1/2+x,1/2-y,-z
1/2-x,1/2+y,-z
1/2-x,1/2-y,1/2-z
1/2+x,1/2+y,1/2-z
1/2-x,1/2+y,z
1/2+x,1/2-y,z
loop_
_atom_site_type_symbol
_atom_site_label
_atom_site_fract_x
_atom_site_fract_y
_atom_site_fract_z
Si Si1 0.182998 0.902193 0.764956
Si Si2 0.739571 0.800380 0.162196
Si Si3 0.432430 0.572620 0.500000
Si Si4 0.112442 0.954648 0.500000
Si Si5 0.650258 0.948381 0.337289
Si Si6 0.925742 0.357626 0.834885
O O1 0.206387 0.846362 0.716350
O O2 0.161093 0.937114 0.633929
O O3 0.260280 0.926580 0.835915
O O4 0.107945 0.902515 0.866025
O O5 0.750000 0.750000 0.250000
O O6 0.649958 0.821102 0.171842
O O7 0.757710 0.790862 0.000000
O O8 0.526792 0.572323 0.500000
O O9 0.404994 0.513991 0.500000
O O10 0.625597 0.954167 0.500000
O O11 0.598795 0.908042 0.249934
O O12 0.648314 0.000000 0.250000
O O13 0.000000 0.336069 0.750000
O O14 0.942119 0.367265 0.000000
#
# Coordination Sequence:
#
# PCOD9528485 Si02
#       6
#    16  16   8   8  16  16
#     4  11  22  38  59  89 122 161 208 259 304 363
#     4  10  23  42  68  91 117 157 203 257 309 365
#     4  11  22  36  59  90 121 177 208 251 310 374
#     4  11  22  38  57  84 133 167 214 253 308 366
#     4  11  22  35  58  88 120 162 205 247 296 357
#     4  10  22  41  63  91 124 155 195 245 301 360
#
# _framework density 18.672360000000001
#
# number of rings (size 3 to 8) (size 9 to 14) (size 15 to 20)
#    0.000    1.400    2.000    3.600    4.200    3.600 
#    0.000    4.000    0.000    0.000    0.000    0.000 
#    0.000    0.000    0.000    0.000    0.000    0.000 
#
# Total GULP energy -223500.446148 kJ/mol
# GULP energy per Si atom -5587.511154 kJ/mol
# Density = 1.862986 g / cm^3
# Si number density = 18.672360 Si / 1000 Ang^3
#
#
#
# Elastic Constant Matrix: (Units=GPa)
#
#
# Indices 1 2 3 4 5 6 
#
# 1 70.6040 17.2936 39.2682 0.0000 0.0000 0.0000
# 2 17.2936 102.5424 59.0233 0.0000 0.0000 0.0000
# 3 39.2682 59.0233 171.5736 0.0010 0.0000 0.0000
# 4 0.0000 0.0000 0.0010 25.5576 -0.0001 0.0000
# 5 0.0000 0.0000 0.0000 -0.0001 27.2322 0.0000
# 6 0.0000 0.0000 0.0000 0.0000 0.0000 10.0019
#
#
#
# Elastic Compliance Matrix: (Units=1/GPa)
#
#
# Indices 1 2 3 4 5 6 
#
# 1 0.016275 -0.000749 -0.003467 0.000000 0.000000 0.000000
# 2 -0.000749 0.012194 -0.004024 0.000000 0.000000 0.000000
# 3 -0.003467 -0.004024 0.008006 0.000000 0.000000 0.000000
# 4 0.000000 0.000000 0.000000 0.039127 0.000000 0.000000
# 5 0.000000 0.000000 0.000000 0.000000 0.036721 0.000000
# 6 0.000000 0.000000 0.000000 0.000000 0.000000 0.099981
#
#
# Mechanical properties :
#
#
# Convention : Reuss Voigt Hill
#
# Bulk Modulus (GPa) = 50.00984 63.98779 56.99881
# Shear Modulus (GPa) = 21.23591 27.83401 24.53496
#
# Velocity S-wave (km/s) = 3.37603 3.86509 3.62881
# Velocity P-wave (km/s) = 6.48365 7.36625 6.93900
#
# Compressibility (1/GPa) = 0.01999607
#
# Stress axis : x y z
#
# Youngs Moduli (GPa) = 61.44248 82.00518 124.90452
#
# Poissons Ratio (x) = 0.06143 0.43308
# Poissons Ratio (y) = 0.04602 0.50256
# Poissons Ratio (z) = 0.21304 0.32995
#
# Static dielectric constant tensor:
#      x y z
#    x 1.649570 0.000000 0.000000 
#    y 0.000000 1.604030 0.000000 
#    z 0.000000 0.000000 1.627050 
# 
# From -- ./inp_files/4849.got.cif
#   From: 2010.05.17/outbox.cif.g08.bks.cpg/sg72_3_cif.got.tgz:4849.got - 2010.06.03 17:03:01.
