data_PCOD9528613
_publ_section_title
;
Structure prediction by ZEFSAII (Michael W. Deem and Ramdas Pophale) SiO2 
 PCOD9528613
Probable space group: I B A M
;
_chemical_formula_sum "Si O2"
_cell_formula_units_Z 48
_cell_length_a 8.670490
_cell_length_b 23.925653
_cell_length_c 10.600628
_cell_angle_alpha 90.000000
_cell_angle_beta 90.000000
_cell_angle_gamma 90.000000
_cell_volume 2199.069909
_symmetry_space_group_name_H-M "I B A M"
_symmetry_group_IT_number 72
_symmetry_cell_setting 'orthorhombic'
loop_
_space_group_symop_operation_xyz
x,y,z
-x,-y,z
x,-y,1/2-z
-x,y,1/2-z
-x,-y,-z
x,y,-z
-x,y,1/2+z
x,-y,1/2+z
1/2+x,1/2+y,1/2+z
1/2-x,1/2-y,1/2+z
1/2+x,1/2-y,-z
1/2-x,1/2+y,-z
1/2-x,1/2-y,1/2-z
1/2+x,1/2+y,1/2-z
1/2-x,1/2+y,z
1/2+x,1/2-y,z
loop_
_atom_site_type_symbol
_atom_site_label
_atom_site_fract_x
_atom_site_fract_y
_atom_site_fract_z
Si Si1 0.409455 0.559003 0.858999
Si Si2 0.817248 0.370371 0.760549
Si Si3 0.694075 0.320439 0.500000
Si Si4 0.175021 0.803946 0.500000
O O1 0.500000 0.500000 0.866355
O O2 0.500000 0.591599 0.750000
O O3 0.237575 0.567482 0.807167
O O4 0.416782 0.580538 0.000000
O O5 0.748105 0.353531 0.624969
O O6 0.000000 0.366037 0.750000
O O7 0.749713 0.331247 0.873072
O O8 0.779708 0.261012 0.500000
O O9 0.510802 0.308640 0.500000
#
# Coordination Sequence:
#
# PCOD9528613 Si02
#       4
#    16  16   8   8
#     4  10  22  43  71 100 131 177 228 285 351 424
#     4  12  25  43  68 104 144 184 235 295 354 418
#     4  12  26  42  71 101 142 193 234 290 348 422
#     4  12  24  46  67 101 142 189 242 284 350 422
#
# _framework density 21.82741
#
# number of rings (size 3 to 8) (size 9 to 14) (size 15 to 20)
#    0.000    0.667    1.667    7.000    2.333    0.000 
#    0.000    3.333    0.000   10.000    0.000    0.000 
#    0.000    0.000    0.000    0.000    0.000    0.000 
#
# Total GULP energy -133737.764542 kJ/mol
# GULP energy per Si atom -5572.406856 kJ/mol
# Density = 2.177773 g / cm^3
# Si number density = 21.827410 Si / 1000 Ang^3
#
#
#
# Elastic Constant Matrix: (Units=GPa)
#
#
# Indices 1 2 3 4 5 6 
#
# 1 222.4917 58.0997 100.7264 0.0000 0.0000 0.0000
# 2 58.0997 113.9599 52.3919 0.0000 0.0000 0.0000
# 3 100.7264 52.3919 253.6054 -0.0001 -0.0003 -0.0001
# 4 0.0000 0.0000 -0.0001 37.6448 0.0000 0.0000
# 5 0.0000 0.0000 -0.0003 0.0000 33.8730 0.0000
# 6 0.0000 0.0000 -0.0001 0.0000 0.0000 38.1698
#
#
#
# Elastic Compliance Matrix: (Units=1/GPa)
#
#
# Indices 1 2 3 4 5 6 
#
# 1 0.005917 -0.002139 -0.001908 0.000000 0.000000 0.000000
# 2 -0.002139 0.010469 -0.001313 0.000000 0.000000 0.000000
# 3 -0.001908 -0.001313 0.004972 0.000000 0.000000 0.000000
# 4 0.000000 0.000000 0.000000 0.026564 0.000000 0.000000
# 5 0.000000 0.000000 0.000000 0.000000 0.029522 0.000000
# 6 0.000000 0.000000 0.000000 0.000000 0.000000 0.026199
#
#
# Mechanical properties :
#
#
# Convention : Reuss Voigt Hill
#
# Bulk Modulus (GPa) = 94.00797 112.49923 103.25360
# Shear Modulus (GPa) = 42.40491 47.19345 44.79918
#
# Velocity S-wave (km/s) = 4.41243 4.65490 4.53529
# Velocity P-wave (km/s) = 8.31394 8.97458 8.65057
#
# Compressibility (1/GPa) = 0.01063740
#
# Stress axis : x y z
#
# Youngs Moduli (GPa) = 169.00225 95.51595 201.11464
#
# Poissons Ratio (x) = 0.20435 0.38376
# Poissons Ratio (y) = 0.36157 0.26409
# Poissons Ratio (z) = 0.32248 0.12543
#
# Static dielectric constant tensor:
#      x y z
#    x 1.845330 0.000000 0.000000 
#    y 0.000000 1.941140 0.000000 
#    z 0.000000 0.000000 1.812600 
# 
# From -- ./inp_files/10442.got.cif
#   From: 2010.05.17/outbox.cif.g08.bks.cpg/sg72_6_cif.got.tgz:10442.got - 2010.06.03 17:03:01.
