data_PCOD9528518
_publ_section_title
;
Structure prediction by ZEFSAII (Michael W. Deem and Ramdas Pophale) SiO2 
 PCOD9528518
Probable space group: I B A M
;
_chemical_formula_sum "Si O2"
_cell_formula_units_Z 48
_cell_length_a 13.862755
_cell_length_b 8.873336
_cell_length_c 13.683419
_cell_angle_alpha 90.000000
_cell_angle_beta 90.000000
_cell_angle_gamma 90.000000
_cell_volume 1683.182087
_symmetry_space_group_name_H-M "I B A M"
_symmetry_group_IT_number 72
_symmetry_cell_setting 'orthorhombic'
loop_
_space_group_symop_operation_xyz
x,y,z
-x,-y,z
x,-y,1/2-z
-x,y,1/2-z
-x,-y,-z
x,y,-z
-x,y,1/2+z
x,-y,1/2+z
1/2+x,1/2+y,1/2+z
1/2-x,1/2-y,1/2+z
1/2+x,1/2-y,-z
1/2-x,1/2+y,-z
1/2-x,1/2-y,1/2-z
1/2+x,1/2+y,1/2-z
1/2-x,1/2+y,z
1/2+x,1/2-y,z
loop_
_atom_site_type_symbol
_atom_site_label
_atom_site_fract_x
_atom_site_fract_y
_atom_site_fract_z
Si Si1 0.434669 0.692246 0.608426
Si Si2 0.333117 0.993819 0.388920
Si Si3 0.355388 0.321901 0.682863
O O1 0.401015 0.648048 0.500000
O O2 0.419812 0.873086 0.614039
O O3 0.545884 0.650966 0.623950
O O4 0.376946 0.638261 0.703874
O O5 0.327449 0.051587 0.500000
O O6 0.237509 0.897057 0.364994
O O7 0.342365 0.140319 0.322287
#
# Coordination Sequence:
#
# PCOD9528518 Si02
#       3
#    16  16  16
#     4  10  22  41  67  96 130 178 229 273 327 404
#     4  11  22  39  66  99 134 174 222 277 338 401
#     4  11  23  42  68  99 134 173 224 281 336 398
#
# _framework density 28.517413999999999
#
# number of rings (size 3 to 8) (size 9 to 14) (size 15 to 20)
#    0.000    1.333    0.000    6.000    0.000    5.333 
#    0.000    6.667    0.000   18.000    0.000    4.667 
#    0.000    2.667    0.000    0.000    0.000    0.000 
#
# Total GULP energy -134947.869443 kJ/mol
# GULP energy per Si atom -5622.827893 kJ/mol
# Density = 2.845251 g / cm^3
# Si number density = 28.517414 Si / 1000 Ang^3
#
#
#
# Elastic Constant Matrix: (Units=GPa)
#
#
# Indices 1 2 3 4 5 6 
#
# 1 116.2106 34.5738 25.7330 0.0000 0.0000 0.0000
# 2 34.5738 137.7772 35.4280 0.0000 0.0000 0.0000
# 3 25.7330 35.4280 230.6181 0.0000 0.0000 0.0000
# 4 0.0000 0.0000 0.0000 49.8171 0.0000 0.0000
# 5 0.0000 0.0000 0.0000 0.0000 32.2663 0.0000
# 6 0.0000 0.0000 0.0000 0.0000 0.0000 65.2740
#
#
#
# Elastic Compliance Matrix: (Units=1/GPa)
#
#
# Indices 1 2 3 4 5 6 
#
# 1 0.009411 -0.002178 -0.000716 0.000000 0.000000 0.000000
# 2 -0.002178 0.008060 -0.000995 0.000000 0.000000 0.000000
# 3 -0.000716 -0.000995 0.004569 0.000000 0.000000 0.000000
# 4 0.000000 0.000000 0.000000 0.020073 0.000000 0.000000
# 5 0.000000 0.000000 0.000000 0.000000 0.030992 0.000000
# 6 0.000000 0.000000 0.000000 0.000000 0.000000 0.015320
#
#
# Mechanical properties :
#
#
# Convention : Reuss Voigt Hill
#
# Bulk Modulus (GPa) = 70.10818 75.11950 72.61384
# Shear Modulus (GPa) = 49.52553 55.39623 52.46088
#
# Velocity S-wave (km/s) = 4.17187 4.41221 4.29372
# Velocity P-wave (km/s) = 6.91691 7.23572 7.07811
#
# Compressibility (1/GPa) = 0.01426367
#
# Stress axis : x y z
#
# Youngs Moduli (GPa) = 106.25402 124.06198 218.87018
#
# Poissons Ratio (x) = 0.27017 0.15663
# Poissons Ratio (y) = 0.23139 0.21784
# Poissons Ratio (z) = 0.07604 0.12348
#
# Static dielectric constant tensor:
#      x y z
#    x 2.135360 0.000000 0.000000 
#    y 0.000000 2.284260 0.000000 
#    z 0.000000 0.000000 2.123130 
# 
# From -- ./inp_files/20992.got.cif
#   From: 2010.05.17/outbox.cif.g08.bks.cpg/sg72_11_cif.got.tgz:20992.got - 2010.06.03 17:03:01.
