data_PCOD9528512
_publ_section_title
;
Structure prediction by ZEFSAII (Michael W. Deem and Ramdas Pophale) SiO2 
 PCOD9528512
Probable space group: I B A M
;
_chemical_formula_sum "Si O2"
_cell_formula_units_Z 96
_cell_length_a 23.255982
_cell_length_b 11.529144
_cell_length_c 18.609986
_cell_angle_alpha 90.000000
_cell_angle_beta 90.000000
_cell_angle_gamma 90.000000
_cell_volume 4989.738577
_symmetry_space_group_name_H-M "I B A M"
_symmetry_group_IT_number 72
_symmetry_cell_setting 'orthorhombic'
loop_
_space_group_symop_operation_xyz
x,y,z
-x,-y,z
x,-y,1/2-z
-x,y,1/2-z
-x,-y,-z
x,y,-z
-x,y,1/2+z
x,-y,1/2+z
1/2+x,1/2+y,1/2+z
1/2-x,1/2-y,1/2+z
1/2+x,1/2-y,-z
1/2-x,1/2+y,-z
1/2-x,1/2-y,1/2-z
1/2+x,1/2+y,1/2-z
1/2-x,1/2+y,z
1/2+x,1/2-y,z
loop_
_atom_site_type_symbol
_atom_site_label
_atom_site_fract_x
_atom_site_fract_y
_atom_site_fract_z
Si Si1 0.433251 0.742289 0.584575
Si Si2 0.155213 0.166412 0.192723
Si Si3 0.708326 0.848492 0.416796
Si Si4 0.670655 0.402563 0.648893
Si Si5 0.406361 0.011137 0.416564
Si Si6 0.464879 0.795128 0.821084
O O1 0.442952 0.729225 0.500000
O O2 0.381944 0.661052 0.610404
O O3 0.491607 0.723787 0.628514
O O4 0.415041 0.876166 0.598688
O O5 0.190390 0.247327 0.138143
O O6 0.179834 0.157713 0.273288
O O7 0.091362 0.220259 0.197458
O O8 0.154937 0.035987 0.163052
O O9 0.706431 0.809577 0.500000
O O10 0.771251 0.892547 0.396568
O O11 0.659777 0.948290 0.408772
O O12 0.423061 0.032335 0.500000
O O13 0.443509 0.092820 0.365061
O O14 0.500000 0.827053 0.750000
#
# Coordination Sequence:
#
# PCOD9528512 Si02
#       6
#    16  16  16  16  16  16
#     4  11  23  39  62  95 130 163 210 263 317 378
#     4  10  24  44  63  90 127 168 210 262 312 375
#     4  10  22  41  66  93 126 164 208 259 313 375
#     4  11  23  42  63  93 125 171 212 255 318 375
#     4   9  21  40  62  93 130 165 201 260 320 368
#     4  11  21  41  63  91 126 168 217 257 315 369
#
# _framework density 19.239484999999998
#
# number of rings (size 3 to 8) (size 9 to 14) (size 15 to 20)
#    0.000    1.667    1.667    2.000    2.333    5.333 
#    0.000    0.833    0.000    0.000    0.000    0.000 
#    0.000    0.000    0.000    0.000    0.000    0.000 
#
# Total GULP energy -268307.000222 kJ/mol
# GULP energy per Si atom -5589.729171 kJ/mol
# Density = 1.919570 g / cm^3
# Si number density = 19.239485 Si / 1000 Ang^3
#
#
#
# Elastic Constant Matrix: (Units=GPa)
#
#
# Indices 1 2 3 4 5 6 
#
# 1 76.9783 3.4993 10.6596 0.0000 0.0000 0.0000
# 2 3.4993 30.5554 6.5876 0.0000 0.0000 0.0000
# 3 10.6596 6.5876 56.6913 0.0000 0.0000 0.0000
# 4 0.0000 0.0000 0.0000 28.3919 0.0000 0.0000
# 5 0.0000 0.0000 0.0000 0.0000 30.9303 0.0000
# 6 0.0000 0.0000 0.0000 0.0000 0.0000 10.5433
#
#
#
# Elastic Compliance Matrix: (Units=1/GPa)
#
#
# Indices 1 2 3 4 5 6 
#
# 1 0.013369 -0.001014 -0.002396 0.000000 0.000000 0.000000
# 2 -0.001014 0.033645 -0.003719 0.000000 0.000000 0.000000
# 3 -0.002396 -0.003719 0.018522 0.000000 0.000000 0.000000
# 4 0.000000 0.000000 0.000000 0.035221 0.000000 0.000000
# 5 0.000000 0.000000 0.000000 0.000000 0.032331 0.000000
# 6 0.000000 0.000000 0.000000 0.000000 0.000000 0.094847
#
#
# Mechanical properties :
#
#
# Convention : Reuss Voigt Hill
#
# Bulk Modulus (GPa) = 19.50168 22.85756 21.17962
# Shear Modulus (GPa) = 19.28371 23.53833 21.41102
#
# Velocity S-wave (km/s) = 3.16934 3.50156 3.33959
# Velocity P-wave (km/s) = 4.85297 5.31547 5.08948
#
# Compressibility (1/GPa) = 0.05127765
#
# Stress axis : x y z
#
# Youngs Moduli (GPa) = 74.80242 29.72173 53.98983
#
# Poissons Ratio (x) = 0.03015 0.12935
# Poissons Ratio (y) = 0.07588 0.20078
# Poissons Ratio (z) = 0.17921 0.11053
#
# Static dielectric constant tensor:
#      x y z
#    x 1.652090 0.000000 0.000000 
#    y 0.000000 1.629130 0.000000 
#    z 0.000000 0.000000 1.668670 
# 
# From -- ./inp_files/33264.got.cif
#   From: 2010.05.17/outbox.cif.g08.bks.cpg/sg72_17_cif.got.tgz:33264.got - 2010.06.03 17:03:01.
