data_PCOD9528004
_publ_section_title
;
Structure prediction by ZEFSAII (Michael W. Deem and Ramdas Pophale) SiO2 
 PCOD9528004
Probable space group: I B A M
;
_chemical_formula_sum "Si O2"
_cell_formula_units_Z 60
_cell_length_a 4.951539
_cell_length_b 26.010716
_cell_length_c 23.936428
_cell_angle_alpha 90.000000
_cell_angle_beta 90.000000
_cell_angle_gamma 90.000000
_cell_volume 3082.846159
_symmetry_space_group_name_H-M "I B A M"
_symmetry_group_IT_number 72
_symmetry_cell_setting 'orthorhombic'
loop_
_space_group_symop_operation_xyz
x,y,z
-x,-y,z
x,-y,1/2-z
-x,y,1/2-z
-x,-y,-z
x,y,-z
-x,y,1/2+z
x,-y,1/2+z
1/2+x,1/2+y,1/2+z
1/2-x,1/2-y,1/2+z
1/2+x,1/2-y,-z
1/2-x,1/2+y,-z
1/2-x,1/2-y,1/2-z
1/2+x,1/2+y,1/2-z
1/2-x,1/2+y,z
1/2+x,1/2-y,z
loop_
_atom_site_type_symbol
_atom_site_label
_atom_site_fract_x
_atom_site_fract_y
_atom_site_fract_z
Si Si1 0.500000 0.500000 0.250000
Si Si2 0.151778 0.103918 0.389976
Si Si3 0.128607 0.553053 0.158348
Si Si4 0.253063 0.961392 0.000000
Si Si5 0.282878 0.284157 0.066371
O O1 0.297986 0.534330 0.212349
O O2 0.365933 0.089419 0.341135
O O3 0.252010 0.075445 0.446052
O O4 0.147885 0.164428 0.400639
O O5 0.857650 0.080667 0.377887
O O6 0.000000 0.500000 0.135463
O O7 0.500000 0.000000 0.000000
O O8 0.000000 0.000000 0.000000
O O9 0.486522 0.237440 0.078103
O O10 0.305883 0.295536 0.000000
#
# Coordination Sequence:
#
# PCOD9528004 Si02
#       5
#     4  16  16   8  16
#     4  12  26  44  66  86 126 160 210 268 318 362
#     4  12  23  39  60  93 125 172 208 245 308 368
#     4  12  24  40  63  90 126 160 208 252 307 381
#     4  12  24  34  52  84 134 172 192 230 293 369
#     4  10  21  39  61  87 125 170 217 256 292 350
#
# _framework density 19.462534000000002
#
# number of rings (size 3 to 8) (size 9 to 14) (size 15 to 20)
#    0.000    0.533    4.000    6.000    0.000    0.000 
#    0.000    0.000    0.000    0.000    0.000   18.667 
#    0.000    0.000    0.000    0.000    0.000    0.000 
#
# Total GULP energy -167573.464190 kJ/mol
# GULP energy per Si atom -5585.782140 kJ/mol
# Density = 1.941824 g / cm^3
# Si number density = 19.462534 Si / 1000 Ang^3
#
#
#
# Elastic Constant Matrix: (Units=GPa)
#
#
# Indices 1 2 3 4 5 6 
#
# 1 113.5634 17.2410 4.6839 0.0000 0.0000 0.0000
# 2 17.2410 106.2843 23.9714 0.0000 0.0000 0.0000
# 3 4.6839 23.9714 39.4652 0.0000 0.0000 0.0000
# 4 0.0000 0.0000 0.0000 21.0296 0.0000 0.0000
# 5 0.0000 0.0000 0.0000 0.0000 28.9332 0.0000
# 6 0.0000 0.0000 0.0000 0.0000 0.0000 18.4305
#
#
#
# Elastic Compliance Matrix: (Units=1/GPa)
#
#
# Indices 1 2 3 4 5 6 
#
# 1 0.009030 -0.001417 -0.000211 0.000000 0.000000 0.000000
# 2 -0.001417 0.011125 -0.006589 0.000000 0.000000 0.000000
# 3 -0.000211 -0.006589 0.029366 0.000000 0.000000 0.000000
# 4 0.000000 0.000000 0.000000 0.047552 0.000000 0.000000
# 5 0.000000 0.000000 0.000000 0.000000 0.034562 0.000000
# 6 0.000000 0.000000 0.000000 0.000000 0.000000 0.054258
#
#
# Mechanical properties :
#
#
# Convention : Reuss Voigt Hill
#
# Bulk Modulus (GPa) = 30.22415 39.01173 34.61794
# Shear Modulus (GPa) = 23.43508 27.90643 25.67075
#
# Velocity S-wave (km/s) = 3.47380 3.79073 3.63572
# Velocity P-wave (km/s) = 5.62608 6.26479 5.95401
#
# Compressibility (1/GPa) = 0.03308612
#
# Stress axis : x y z
#
# Youngs Moduli (GPa) = 110.74808 89.88999 34.05293
#
# Poissons Ratio (x) = 0.12739 0.00718
# Poissons Ratio (y) = 0.15695 0.22438
# Poissons Ratio (z) = 0.02335 0.59229
#
# Static dielectric constant tensor:
#      x y z
#    x 1.675390 0.000000 0.000000 
#    y 0.000000 1.669810 0.000000 
#    z 0.000000 0.000000 1.739140 
# 
# From -- ./inp_files/41346.got.cif
#   From: 2010.05.17/outbox.cif.g08.bks.cpg/sg72_21_cif.got.tgz:41346.got - 2010.06.03 17:03:01.
