data_PCOD9528580
_publ_section_title
;
Structure prediction by ZEFSAII (Michael W. Deem and Ramdas Pophale) SiO2 
 PCOD9528580
Probable space group: I B A M
;
_chemical_formula_sum "Si O2"
_cell_formula_units_Z 96
_cell_length_a 18.466722
_cell_length_b 11.331785
_cell_length_c 23.956257
_cell_angle_alpha 90.000000
_cell_angle_beta 90.000000
_cell_angle_gamma 90.000000
_cell_volume 5013.108460
_symmetry_space_group_name_H-M "I B A M"
_symmetry_group_IT_number 72
_symmetry_cell_setting 'orthorhombic'
loop_
_space_group_symop_operation_xyz
x,y,z
-x,-y,z
x,-y,1/2-z
-x,y,1/2-z
-x,-y,-z
x,y,-z
-x,y,1/2+z
x,-y,1/2+z
1/2+x,1/2+y,1/2+z
1/2-x,1/2-y,1/2+z
1/2+x,1/2-y,-z
1/2-x,1/2+y,-z
1/2-x,1/2-y,1/2-z
1/2+x,1/2+y,1/2-z
1/2-x,1/2+y,z
1/2+x,1/2-y,z
loop_
_atom_site_type_symbol
_atom_site_label
_atom_site_fract_x
_atom_site_fract_y
_atom_site_fract_z
Si Si1 0.673759 0.354866 0.500000
Si Si2 0.181116 0.979109 0.685134
Si Si3 0.034045 0.835389 0.309111
Si Si4 0.892234 0.818004 0.620937
Si Si5 0.426933 0.936484 0.808739
Si Si6 0.771355 0.590874 0.500000
Si Si7 0.823459 0.429156 0.877080
O O1 0.625550 0.340349 0.444079
O O2 0.708223 0.488152 0.500000
O O3 0.729780 0.238787 0.500000
O O4 0.106561 0.907381 0.679808
O O5 0.246376 0.916126 0.653058
O O6 0.198232 0.000000 0.750000
O O7 0.164226 0.102658 0.655374
O O8 0.056416 0.699678 0.301545
O O9 0.000000 0.872575 0.250000
O O10 0.972698 0.846035 0.356731
O O11 0.874132 0.682737 0.634762
O O12 0.500000 0.000000 0.829457
O O13 0.409165 0.000000 0.750000
O O14 0.362203 0.957938 0.851135
O O15 0.812523 0.563271 0.557126
#
# Coordination Sequence:
#
# PCOD9528580 Si02
#       7
#     8  16  16  16  16   8  16
#     4  10  22  44  69  93 131 178 215 273 326 382
#     4  12  26  37  65  95 130 168 211 263 321 393
#     4  12  23  41  64  93 133 176 210 261 332 388
#     4  11  23  43  64  92 132 165 217 259 323 386
#     4  11  21  40  65  94 131 174 208 263 327 385
#     4  10  22  42  69  91 133 174 213 277 333 375
#     4  11  24  43  65  97 126 170 219 271 318 383
#
# _framework density 19.149795000000001
#
# number of rings (size 3 to 8) (size 9 to 14) (size 15 to 20)
#    0.000    0.833    6.667    1.000    2.333    0.667 
#    0.000    3.750    0.000    0.000    0.000    0.000 
#    0.000    0.000    0.000    0.000    0.000    0.000 
#
# Total GULP energy -267924.865744 kJ/mol
# GULP energy per Si atom -5581.768036 kJ/mol
# Density = 1.910621 g / cm^3
# Si number density = 19.149795 Si / 1000 Ang^3
#
#
#
# Elastic Constant Matrix: (Units=GPa)
#
#
# Indices 1 2 3 4 5 6 
#
# 1 96.2645 17.6517 55.5511 0.0000 0.0000 0.0000
# 2 17.6517 86.7718 31.9973 0.0000 0.0000 0.0000
# 3 55.5511 31.9973 131.3970 0.0000 0.0000 0.0000
# 4 0.0000 0.0000 0.0000 22.1619 0.0000 0.0000
# 5 0.0000 0.0000 0.0000 0.0000 -11.3673 0.0000
# 6 0.0000 0.0000 0.0000 0.0000 0.0000 -10.3117
#
#
#
# Elastic Compliance Matrix: (Units=1/GPa)
#
#
# Indices 1 2 3 4 5 6 
#
# 1 0.013781 -0.000720 -0.005651 0.000000 0.000000 0.000000
# 2 -0.000720 0.012699 -0.002788 0.000000 0.000000 0.000000
# 3 -0.005651 -0.002788 0.010679 0.000000 0.000000 0.000000
# 4 0.000000 0.000000 0.000000 0.045122 0.000000 0.000000
# 5 0.000000 0.000000 0.000000 0.000000 -0.087972 0.000000
# 6 0.000000 0.000000 0.000000 0.000000 0.000000 -0.096977
#
#
# Mechanical properties :
#
#
# Convention : Reuss Voigt Hill
#
# Bulk Modulus (GPa) = 53.07569 58.31485 55.69527
# Shear Modulus (GPa) = -64.04475 14.04547 -24.99964
#
# Velocity S-wave (km/s) = -5.78936 2.71117 -3.61706
# Velocity P-wave (km/s) = 4.11250 6.34970 3.42096
#
# Compressibility (1/GPa) = 0.01884102
#
# Stress axis : x y z
#
# Youngs Moduli (GPa) = 72.56365 78.74619 93.64534
#
# Poissons Ratio (x) = 0.05667 0.52919
# Poissons Ratio (y) = 0.05222 0.26110
# Poissons Ratio (z) = 0.41006 0.21956
#
# Static dielectric constant tensor:
#      x y z
#    x 1.664800 0.000000 0.000000 
#    y 0.000000 1.689510 0.000000 
#    z 0.000000 0.000000 1.655410 
# 
# From -- ./inp_files/44846.got.cif
#   From: 2010.05.17/outbox.cif.g08.bks.cpg/sg72_23_cif.got.tgz:44846.got - 2010.06.03 17:03:01.
