data_PCOD9528890
_publ_section_title
;
Structure prediction by ZEFSAII (Michael W. Deem and Ramdas Pophale) SiO2 
 PCOD9528890
Probable space group: I B A M
;
_chemical_formula_sum "Si O2"
_cell_formula_units_Z 104
_cell_length_a 9.594145
_cell_length_b 25.676986
_cell_length_c 20.819197
_cell_angle_alpha 90.000000
_cell_angle_beta 90.000000
_cell_angle_gamma 90.000000
_cell_volume 5128.782675
_symmetry_space_group_name_H-M "I B A M"
_symmetry_group_IT_number 72
_symmetry_cell_setting 'orthorhombic'
loop_
_space_group_symop_operation_xyz
x,y,z
-x,-y,z
x,-y,1/2-z
-x,y,1/2-z
-x,-y,-z
x,y,-z
-x,y,1/2+z
x,-y,1/2+z
1/2+x,1/2+y,1/2+z
1/2-x,1/2-y,1/2+z
1/2+x,1/2-y,-z
1/2-x,1/2+y,-z
1/2-x,1/2-y,1/2-z
1/2+x,1/2+y,1/2-z
1/2-x,1/2+y,z
1/2+x,1/2-y,z
loop_
_atom_site_type_symbol
_atom_site_label
_atom_site_fract_x
_atom_site_fract_y
_atom_site_fract_z
Si Si1 0.380224 0.234593 0.341185
Si Si2 0.172657 0.389555 0.612929
Si Si3 0.909524 0.449713 0.357566
Si Si4 0.857633 0.722012 0.572478
Si Si5 0.793289 0.634820 0.762625
Si Si6 0.500000 0.323836 0.750000
Si Si7 0.159262 0.010186 0.922955
O O1 0.237355 0.246293 0.377926
O O2 0.490570 0.220630 0.395927
O O3 0.359316 0.187749 0.291099
O O4 0.433814 0.285400 0.303284
O O5 0.194933 0.337418 0.573142
O O6 0.178730 0.372675 0.687499
O O7 0.287478 0.433130 0.599056
O O8 0.020694 0.415555 0.601772
O O9 0.856752 0.413891 0.299960
O O10 0.773990 0.470218 0.395074
O O11 0.000000 0.500000 0.336595
O O12 0.857050 0.742664 0.500000
O O13 0.628037 0.641356 0.773872
O O14 0.163665 0.007661 0.000000
O O15 0.000000 0.000000 0.902014
#
# Coordination Sequence:
#
# PCOD9528890 Si02
#       7
#    16  16  16  16  16   8  16
#     4  12  24  44  67 101 136 182 225 279 339 402
#     4  11  23  41  69  97 129 174 225 280 337 396
#     4  10  24  42  68  99 129 169 224 282 337 396
#     4  12  25  43  65  97 139 182 228 275 330 406
#     4  12  24  41  69 101 138 172 221 283 344 406
#     4  12  24  40  72 103 137 178 222 282 344 404
#     4  10  24  46  67  93 134 177 222 275 339 411
#
# _framework density 20.277716999999999
#
# number of rings (size 3 to 8) (size 9 to 14) (size 15 to 20)
#    0.000    0.769    4.615    2.769    2.154    7.692 
#    0.000    0.769    0.000    0.000    0.000    0.000 
#    0.000    0.000    0.000    0.000    0.000    0.000 
#
# Total GULP energy -290826.662826 kJ/mol
# GULP energy per Si atom -5592.820439 kJ/mol
# Density = 2.023156 g / cm^3
# Si number density = 20.277717 Si / 1000 Ang^3
#
#
#
# Elastic Constant Matrix: (Units=GPa)
#
#
# Indices 1 2 3 4 5 6 
#
# 1 145.7291 42.5240 36.2644 0.0000 0.0000 0.0000
# 2 42.5240 80.9313 24.0050 0.0000 0.0000 0.0000
# 3 36.2644 24.0050 80.5172 0.0000 0.0000 0.0000
# 4 0.0000 0.0000 0.0000 12.5251 0.0000 0.0000
# 5 0.0000 0.0000 0.0000 0.0000 28.7321 0.0000
# 6 0.0000 0.0000 0.0000 0.0000 0.0000 23.6819
#
#
#
# Elastic Compliance Matrix: (Units=1/GPa)
#
#
# Indices 1 2 3 4 5 6 
#
# 1 0.008638 -0.003713 -0.002784 0.000000 0.000000 0.000000
# 2 -0.003713 0.015151 -0.002845 0.000000 0.000000 0.000000
# 3 -0.002784 -0.002845 0.014522 0.000000 0.000000 0.000000
# 4 0.000000 0.000000 0.000000 0.079840 0.000000 0.000000
# 5 0.000000 0.000000 0.000000 0.000000 0.034804 0.000000
# 6 0.000000 0.000000 0.000000 0.000000 0.000000 0.042226
#
#
# Mechanical properties :
#
#
# Convention : Reuss Voigt Hill
#
# Bulk Modulus (GPa) = 50.94793 56.97384 53.96089
# Shear Modulus (GPa) = 22.68533 26.61341 24.64937
#
# Velocity S-wave (km/s) = 3.34837 3.62670 3.49031
# Velocity P-wave (km/s) = 6.33470 6.75981 6.55071
#
# Compressibility (1/GPa) = 0.01962788
#
# Stress axis : x y z
#
# Youngs Moduli (GPa) = 115.76424 66.00254 68.86339
#
# Poissons Ratio (x) = 0.24508 0.19169
# Poissons Ratio (y) = 0.42985 0.19589
# Poissons Ratio (z) = 0.32224 0.18775
#
# Static dielectric constant tensor:
#      x y z
#    x 1.741570 0.000000 0.000000 
#    y 0.000000 1.718110 0.000000 
#    z 0.000000 0.000000 1.694000 
# 
# From -- ./inp_files/36128.got.cif
#   From: 2010.05.17/outbox.cif.g08.bks.cpg/sg72_19_cif.got.tgz:36128.got - 2010.06.03 17:03:01.
