data_PCOD9528410
_publ_section_title
;
Structure prediction by ZEFSAII (Michael W. Deem and Ramdas Pophale) SiO2 
 PCOD9528410
Probable space group: I B A M
;
_chemical_formula_sum "Si O2"
_cell_formula_units_Z 68
_cell_length_a 22.520972
_cell_length_b 9.307583
_cell_length_c 13.817068
_cell_angle_alpha 90.000000
_cell_angle_beta 90.000000
_cell_angle_gamma 90.000000
_cell_volume 2896.275985
_symmetry_space_group_name_H-M "I B A M"
_symmetry_group_IT_number 72
_symmetry_cell_setting 'orthorhombic'
loop_
_space_group_symop_operation_xyz
x,y,z
-x,-y,z
x,-y,1/2-z
-x,y,1/2-z
-x,-y,-z
x,y,-z
-x,y,1/2+z
x,-y,1/2+z
1/2+x,1/2+y,1/2+z
1/2-x,1/2-y,1/2+z
1/2+x,1/2-y,-z
1/2-x,1/2+y,-z
1/2-x,1/2-y,1/2-z
1/2+x,1/2+y,1/2-z
1/2-x,1/2+y,z
1/2+x,1/2-y,z
loop_
_atom_site_type_symbol
_atom_site_label
_atom_site_fract_x
_atom_site_fract_y
_atom_site_fract_z
Si Si1 0.432507 0.002052 0.885234
Si Si2 0.322180 0.170680 0.381204
Si Si3 0.790899 0.009998 0.383475
Si Si4 0.590971 0.667081 0.114089
Si Si5 0.000000 0.000000 0.250000
O O1 0.386177 0.885135 0.846317
O O2 0.500000 0.000000 0.850109
O O3 0.406933 0.161781 0.874837
O O4 0.436275 0.971939 0.000000
O O5 0.323573 0.172586 0.500000
O O6 0.305215 0.330068 0.348396
O O7 0.270684 0.060396 0.352279
O O8 0.786692 0.020446 0.500000
O O9 0.846269 0.906519 0.363495
O O10 0.541173 0.597914 0.181719
O O11 0.577498 0.638389 0.000000
#
# Coordination Sequence:
#
# PCOD9528410 Si02
#       5
#    16  16  16  16   4
#     4   9  18  32  55  87 123 161 204 250 301 362
#     4   9  16  28  52  89 124 158 203 251 300 361
#     4   9  17  30  55  87 120 159 205 251 302 360
#     4  10  22  40  62  88 122 162 204 252 306 361
#     4  12  26  40  62  90 124 160 206 256 300 374
#
# _framework density 23.478427
#
# number of rings (size 3 to 8) (size 9 to 14) (size 15 to 20)
#    0.000    2.588    0.000    1.765    3.294    5.647 
#    0.000    0.588    0.000    5.647    0.000    0.000 
#    0.000    0.000    0.000    0.000    0.000    0.000 
#
# Total GULP energy -190331.530257 kJ/mol
# GULP energy per Si atom -5597.986184 kJ/mol
# Density = 2.342499 g / cm^3
# Si number density = 23.478427 Si / 1000 Ang^3
#
#
#
# Elastic Constant Matrix: (Units=GPa)
#
#
# Indices 1 2 3 4 5 6 
#
# 1 193.0768 103.9149 20.3488 0.0000 0.0000 0.0000
# 2 103.9149 125.0514 -0.3067 0.0000 0.0000 0.0000
# 3 20.3488 -0.3067 133.0745 0.0000 0.0000 0.0000
# 4 0.0000 0.0000 0.0000 -19.5065 0.0000 0.0000
# 5 0.0000 0.0000 0.0000 0.0000 -23.4926 0.0000
# 6 0.0000 0.0000 0.0000 0.0000 0.0000 42.2714
#
#
#
# Elastic Compliance Matrix: (Units=1/GPa)
#
#
# Indices 1 2 3 4 5 6 
#
# 1 0.009659 -0.008030 -0.001495 0.000000 0.000000 0.000000
# 2 -0.008030 0.014672 0.001262 0.000000 0.000000 0.000000
# 3 -0.001495 0.001262 0.007746 0.000000 0.000000 0.000000
# 4 0.000000 0.000000 0.000000 -0.051265 0.000000 0.000000
# 5 0.000000 0.000000 0.000000 0.000000 -0.042567 0.000000
# 6 0.000000 0.000000 0.000000 0.000000 0.000000 0.023657
#
#
# Mechanical properties :
#
#
# Convention : Reuss Voigt Hill
#
# Bulk Modulus (GPa) = 64.30830 77.67962 70.99396
# Shear Modulus (GPa) = -305.10874 21.67083 -141.71896
#
# Velocity S-wave (km/s) = -11.41205 3.04140 -7.77769
# Velocity P-wave (km/s) = 12.09118 6.74469 7.09598
#
# Compressibility (1/GPa) = 0.01555009
#
# Stress axis : x y z
#
# Youngs Moduli (GPa) = 103.53572 68.15570 129.09622
#
# Poissons Ratio (x) = 0.54727 0.19305
# Poissons Ratio (y) = 0.83136 -0.16287
# Poissons Ratio (z) = 0.15483 -0.08599
#
# Static dielectric constant tensor:
#      x y z
#    x 1.828820 0.000000 0.000000 
#    y 0.000000 1.813290 0.000000 
#    z 0.000000 0.000000 1.887970 
# 
# From -- ./inp_files/32308.got.cif
#   From: 2010.05.17/outbox.cif.g08.bks.cpg/sg72_17_cif.got.tgz:32308.got - 2010.06.03 17:03:01.
