data_PCOD9528311
_publ_section_title
;
Structure prediction by ZEFSAII (Michael W. Deem and Ramdas Pophale) SiO2 
 PCOD9528311
Probable space group: I B A M
;
_chemical_formula_sum "Si O2"
_cell_formula_units_Z 84
_cell_length_a 20.615220
_cell_length_b 9.806948
_cell_length_c 20.830827
_cell_angle_alpha 90.000000
_cell_angle_beta 90.000000
_cell_angle_gamma 90.000000
_cell_volume 4211.418092
_symmetry_space_group_name_H-M "I B A M"
_symmetry_group_IT_number 72
_symmetry_cell_setting 'orthorhombic'
loop_
_space_group_symop_operation_xyz
x,y,z
-x,-y,z
x,-y,1/2-z
-x,y,1/2-z
-x,-y,-z
x,y,-z
-x,y,1/2+z
x,-y,1/2+z
1/2+x,1/2+y,1/2+z
1/2-x,1/2-y,1/2+z
1/2+x,1/2-y,-z
1/2-x,1/2+y,-z
1/2-x,1/2-y,1/2-z
1/2+x,1/2+y,1/2-z
1/2-x,1/2+y,z
1/2+x,1/2-y,z
loop_
_atom_site_type_symbol
_atom_site_label
_atom_site_fract_x
_atom_site_fract_y
_atom_site_fract_z
Si Si1 0.500000 0.500000 0.250000
Si Si2 0.617717 0.677755 0.806481
Si Si3 0.741376 0.503672 0.675082
Si Si4 0.581866 0.149329 0.428001
Si Si5 0.829023 0.266456 0.667745
Si Si6 0.430709 0.177840 0.429639
O O1 0.449645 0.400771 0.211117
O O2 0.671111 0.567614 0.828152
O O3 0.611805 0.783778 0.864729
O O4 0.647071 0.746997 0.741413
O O5 0.758200 0.500000 0.750000
O O6 0.797411 0.410057 0.647019
O O7 0.727802 0.657174 0.655204
O O8 0.608596 0.181498 0.500000
O O9 0.507341 0.200036 0.427227
O O10 0.578683 0.985432 0.422759
O O11 0.891830 0.244886 0.624731
O O12 0.406314 0.217784 0.500000
#
# Coordination Sequence:
#
# PCOD9528311 Si02
#       6
#     4  16  16  16  16  16
#     4  12  20  36  58  90 132 152 200 266 320 360
#     4  11  21  36  60  88 120 158 199 254 308 368
#     4  10  22  38  57  86 121 155 196 253 303 349
#     4   9  20  38  60  87 119 159 195 246 312 370
#     4  11  22  39  62  89 116 164 206 250 304 355
#     4   9  20  39  60  86 123 156 198 254 308 360
#
# _framework density 19.945775999999999
#
# number of rings (size 3 to 8) (size 9 to 14) (size 15 to 20)
#    0.000    1.905    2.857    4.571    5.333    0.000 
#    0.000    5.238    0.000    0.000    0.000    0.000 
#    0.000    0.000    0.000    0.000    0.000    0.000 
#
# Total GULP energy -234117.178688 kJ/mol
# GULP energy per Si atom -5574.218540 kJ/mol
# Density = 1.990038 g / cm^3
# Si number density = 19.945776 Si / 1000 Ang^3
#
#
#
# Elastic Constant Matrix: (Units=GPa)
#
#
# Indices 1 2 3 4 5 6 
#
# 1 78.2578 11.0243 19.9254 0.0000 0.0000 0.0000
# 2 11.0243 40.5950 34.1054 0.0000 0.0000 0.0000
# 3 19.9254 34.1054 95.0019 0.0000 0.0000 0.0000
# 4 0.0000 0.0000 0.0000 6.7526 0.0000 0.0000
# 5 0.0000 0.0000 0.0000 0.0000 2.3303 0.0000
# 6 0.0000 0.0000 0.0000 0.0000 0.0000 38.2706
#
#
#
# Elastic Compliance Matrix: (Units=1/GPa)
#
#
# Indices 1 2 3 4 5 6 
#
# 1 0.013596 -0.001856 -0.002185 0.000000 0.000000 0.000000
# 2 -0.001856 0.035525 -0.012364 0.000000 0.000000 0.000000
# 3 -0.002185 -0.012364 0.015423 0.000000 0.000000 0.000000
# 4 0.000000 0.000000 0.000000 0.148091 0.000000 0.000000
# 5 0.000000 0.000000 0.000000 0.000000 0.429121 0.000000
# 6 0.000000 0.000000 0.000000 0.000000 0.000000 0.026130
#
#
# Mechanical properties :
#
#
# Convention : Reuss Voigt Hill
#
# Bulk Modulus (GPa) = 31.51283 38.21834 34.86559
# Shear Modulus (GPa) = 7.02963 19.39069 13.21016
#
# Velocity S-wave (km/s) = 1.87937 3.12135 2.57632
# Velocity P-wave (km/s) = 4.53243 5.67390 5.13498
#
# Compressibility (1/GPa) = 0.03173310
#
# Stress axis : x y z
#
# Youngs Moduli (GPa) = 73.55016 28.14895 64.83783
#
# Poissons Ratio (x) = 0.05226 0.14168
# Poissons Ratio (y) = 0.13654 0.80166
# Poissons Ratio (z) = 0.16072 0.34804
#
# Static dielectric constant tensor:
#      x y z
#    x 1.704780 0.000000 0.000000 
#    y 0.000000 1.786640 0.000000 
#    z 0.000000 0.000000 1.709010 
# 
# From -- ./inp_files/39649.got.cif
#   From: 2010.05.17/outbox.cif.g08.bks.cpg/sg72_20_cif.got.tgz:39649.got - 2010.06.03 17:03:01.
