data_PCOD9528220
_publ_section_title
;
Structure prediction by ZEFSAII (Michael W. Deem and Ramdas Pophale) SiO2 
 PCOD9528220
Probable space group: I B A M
;
_chemical_formula_sum "Si O2"
_cell_formula_units_Z 72
_cell_length_a 27.377218
_cell_length_b 9.323723
_cell_length_c 14.061217
_cell_angle_alpha 90.000000
_cell_angle_beta 90.000000
_cell_angle_gamma 90.000000
_cell_volume 3589.232464
_symmetry_space_group_name_H-M "I B A M"
_symmetry_group_IT_number 72
_symmetry_cell_setting 'orthorhombic'
loop_
_space_group_symop_operation_xyz
x,y,z
-x,-y,z
x,-y,1/2-z
-x,y,1/2-z
-x,-y,-z
x,y,-z
-x,y,1/2+z
x,-y,1/2+z
1/2+x,1/2+y,1/2+z
1/2-x,1/2-y,1/2+z
1/2+x,1/2-y,-z
1/2-x,1/2+y,-z
1/2-x,1/2-y,1/2-z
1/2+x,1/2+y,1/2-z
1/2-x,1/2+y,z
1/2+x,1/2-y,z
loop_
_atom_site_type_symbol
_atom_site_label
_atom_site_fract_x
_atom_site_fract_y
_atom_site_fract_z
Si Si1 0.585260 0.991854 0.112914
Si Si2 0.696732 0.033674 0.385319
Si Si3 0.945285 0.256128 0.260487
Si Si4 0.628885 0.500000 0.750000
Si Si5 0.792613 0.863849 0.384853
O O1 0.642340 0.016806 0.138744
O O2 0.568935 0.848055 0.166826
O O3 0.556119 0.125809 0.155653
O O4 0.580417 0.979188 0.000000
O O5 0.698679 0.035889 0.500000
O O6 0.703996 0.197973 0.354808
O O7 0.740788 0.931670 0.355325
O O8 0.000000 0.198739 0.250000
O O9 0.905902 0.132695 0.276237
O O10 0.664102 0.548278 0.835704
O O11 0.796657 0.870744 0.500000
#
# Coordination Sequence:
#
# PCOD9528220 Si02
#       5
#    16  16  16   8  16
#     4  10  21  42  68  91 119 157 202 253 307 366
#     4   9  19  37  61  89 124 158 195 244 297 357
#     4  11  25  42  62  90 121 157 208 261 307 357
#     4  12  25  40  62  88 126 168 201 248 308 368
#     4  10  22  39  59  89 126 164 200 244 298 362
#
# _framework density 20.059999000000001
#
# number of rings (size 3 to 8) (size 9 to 14) (size 15 to 20)
#    0.000    1.778    2.222    1.667    3.111    5.333 
#    0.000    0.000    0.000    4.000    0.000    0.000 
#    0.000    0.000    0.000    0.000    0.000    0.000 
#
# Total GULP energy -201247.284240 kJ/mol
# GULP energy per Si atom -5590.202340 kJ/mol
# Density = 2.001434 g / cm^3
# Si number density = 20.059999 Si / 1000 Ang^3
#
#
#
# Elastic Constant Matrix: (Units=GPa)
#
#
# Indices 1 2 3 4 5 6 
#
# 1 110.9028 1.3801 0.0718 0.0000 0.0000 0.0000
# 2 1.3801 44.6989 3.3547 0.0000 0.0000 0.0000
# 3 0.0718 3.3547 88.0073 0.0000 0.0000 0.0000
# 4 0.0000 0.0000 0.0000 15.1494 0.0000 0.0000
# 5 0.0000 0.0000 0.0000 0.0000 22.5407 0.0000
# 6 0.0000 0.0000 0.0000 0.0000 0.0000 32.2240
#
#
#
# Elastic Compliance Matrix: (Units=1/GPa)
#
#
# Indices 1 2 3 4 5 6 
#
# 1 0.009020 -0.000279 0.000003 0.000000 0.000000 0.000000
# 2 -0.000279 0.022445 -0.000855 0.000000 0.000000 0.000000
# 3 0.000003 -0.000855 0.011395 0.000000 0.000000 0.000000
# 4 0.000000 0.000000 0.000000 0.066009 0.000000 0.000000
# 5 0.000000 0.000000 0.000000 0.000000 0.044364 0.000000
# 6 0.000000 0.000000 0.000000 0.000000 0.000000 0.031033
#
#
# Mechanical properties :
#
#
# Convention : Reuss Voigt Hill
#
# Bulk Modulus (GPa) = 24.63132 28.13581 26.38357
# Shear Modulus (GPa) = 24.99236 29.90298 27.44767
#
# Velocity S-wave (km/s) = 3.53353 3.86512 3.70304
# Velocity P-wave (km/s) = 5.38083 5.82882 5.60930
#
# Compressibility (1/GPa) = 0.04059872
#
# Stress axis : x y z
#
# Youngs Moduli (GPa) = 110.86021 44.55395 87.75555
#
# Poissons Ratio (x) = 0.01242 -0.00029
# Poissons Ratio (y) = 0.03090 0.07506
# Poissons Ratio (z) = -0.00036 0.03811
#
# Static dielectric constant tensor:
#      x y z
#    x 1.704880 0.000000 0.000000 
#    y 0.000000 1.669420 0.000000 
#    z 0.000000 0.000000 1.719140 
# 
# From -- ./inp_files/18866.got.cif
#   From: 2010.05.17/outbox.cif.g08.bks.cpg/sg72_10_cif.got.tgz:18866.got - 2010.06.03 17:03:01.
