data_PCOD9528961
_publ_section_title
;
Structure prediction by ZEFSAII (Michael W. Deem and Ramdas Pophale) SiO2 
 PCOD9528961
Probable space group: I B A M
;
_chemical_formula_sum "Si O2"
_cell_formula_units_Z 88
_cell_length_a 17.549489
_cell_length_b 10.083934
_cell_length_c 19.528240
_cell_angle_alpha 90.000000
_cell_angle_beta 90.000000
_cell_angle_gamma 90.000000
_cell_volume 3455.871405
_symmetry_space_group_name_H-M "I B A M"
_symmetry_group_IT_number 72
_symmetry_cell_setting 'orthorhombic'
loop_
_space_group_symop_operation_xyz
x,y,z
-x,-y,z
x,-y,1/2-z
-x,y,1/2-z
-x,-y,-z
x,y,-z
-x,y,1/2+z
x,-y,1/2+z
1/2+x,1/2+y,1/2+z
1/2-x,1/2-y,1/2+z
1/2+x,1/2-y,-z
1/2-x,1/2+y,-z
1/2-x,1/2-y,1/2-z
1/2+x,1/2+y,1/2-z
1/2-x,1/2+y,z
1/2+x,1/2-y,z
loop_
_atom_site_type_symbol
_atom_site_label
_atom_site_fract_x
_atom_site_fract_y
_atom_site_fract_z
Si Si1 0.743495 0.500000 0.250000
Si Si2 0.630983 0.104644 0.000000
Si Si3 0.906885 0.111761 0.500000
Si Si4 0.472270 0.130442 0.630152
Si Si5 0.841818 0.261121 0.717578
Si Si6 0.796145 0.131110 0.000000
Si Si7 0.618245 0.285664 0.370635
Si Si8 0.000000 0.000000 0.383183
O O1 0.793249 0.397106 0.296846
O O2 0.695156 0.386437 0.208386
O O3 0.580707 0.086012 0.932948
O O4 0.647127 0.263692 0.000000
O O5 0.716262 0.053525 0.000000
O O6 0.959907 0.104836 0.565805
O O7 0.861835 0.977840 0.500000
O O8 0.421515 0.222733 0.679122
O O9 0.550826 0.192238 0.603662
O O10 0.500000 0.000000 0.669630
O O11 0.852078 0.268928 0.799238
O O12 0.816757 0.203529 0.071604
O O13 0.570441 0.420479 0.350559
#
# Coordination Sequence:
#
# PCOD9528961 Si02
#       8
#     8   8   8  16  16   8  16   8
#     4  10  26  48  70 106 156 198 250 312 392 454
#     4  12  25  44  71 109 146 194 253 306 383 470
#     4   9  18  41  66  91 142 186 227 302 380 433
#     4  12  27  48  75 109 151 197 252 319 392 461
#     4  11  26  47  78 104 154 202 255 314 393 472
#     4  10  26  41  70 112 148 199 249 315 380 464
#     4  11  23  45  73 106 146 192 252 317 382 453
#     4   9  18  38  71  98 134 180 242 306 370 441
#
# _framework density 25.463909999999998
#
# number of rings (size 3 to 8) (size 9 to 14) (size 15 to 20)
#    0.000    1.273    1.818    3.000    7.636    2.182 
#    0.000    0.000    0.000    0.000    0.000    0.000 
#    0.000    0.000    0.000    0.000    0.000    0.000 
#
# Total GULP energy -245564.568743 kJ/mol
# GULP energy per Si atom -5581.012926 kJ/mol
# Density = 2.540595 g / cm^3
# Si number density = 25.463910 Si / 1000 Ang^3
#
#
#
# Elastic Constant Matrix: (Units=GPa)
#
#
# Indices 1 2 3 4 5 6 
#
# 1 108.4206 17.5286 46.5903 0.0000 0.0000 0.0000
# 2 17.5286 103.2013 19.1364 0.0000 0.0000 0.0000
# 3 46.5903 19.1364 123.2300 0.0000 0.0000 0.0000
# 4 0.0000 0.0000 0.0000 59.4255 0.0000 0.0000
# 5 0.0000 0.0000 0.0000 0.0000 253.9936 0.0000
# 6 0.0000 0.0000 0.0000 0.0000 0.0000 27.0633
#
#
#
# Elastic Compliance Matrix: (Units=1/GPa)
#
#
# Indices 1 2 3 4 5 6 
#
# 1 0.011142 -0.001144 -0.004035 0.000000 0.000000 0.000000
# 2 -0.001144 0.010095 -0.001135 0.000000 0.000000 0.000000
# 3 -0.004035 -0.001135 0.009817 0.000000 0.000000 0.000000
# 4 0.000000 0.000000 0.000000 0.016828 0.000000 0.000000
# 5 0.000000 0.000000 0.000000 0.000000 0.003937 0.000000
# 6 0.000000 0.000000 0.000000 0.000000 0.000000 0.036950
#
#
# Mechanical properties :
#
#
# Convention : Reuss Voigt Hill
#
# Bulk Modulus (GPa) = 54.27367 55.70696 54.99031
# Shear Modulus (GPa) = 46.49483 84.86959 65.68221
#
# Velocity S-wave (km/s) = 4.27770 5.77942 5.08431
# Velocity P-wave (km/s) = 6.76451 8.15230 7.49061
#
# Compressibility (1/GPa) = 0.01842514
#
# Stress axis : x y z
#
# Youngs Moduli (GPa) = 89.74871 99.06269 101.86767
#
# Poissons Ratio (x) = 0.11336 0.41103
# Poissons Ratio (y) = 0.10270 0.11562
# Poissons Ratio (z) = 0.36213 0.11243
#
# Static dielectric constant tensor:
#      x y z
#    x 2.031080 0.000000 0.000000 
#    y 0.000000 2.165000 0.000000 
#    z 0.000000 0.000000 1.997170 
# 
# From -- ./inp_files/38943.got.cif
#   From: 2010.05.17/outbox.cif.g08.bks.cpg/sg72_20_cif.got.tgz:38943.got - 2010.06.03 17:03:01.
