data_PCOD9528597
_publ_section_title
;
Structure prediction by ZEFSAII (Michael W. Deem and Ramdas Pophale) SiO2 
 PCOD9528597
Probable space group: I B A M
;
_chemical_formula_sum "Si O2"
_cell_formula_units_Z 68
_cell_length_a 21.842163
_cell_length_b 8.877663
_cell_length_c 17.109283
_cell_angle_alpha 90.000000
_cell_angle_beta 90.000000
_cell_angle_gamma 90.000000
_cell_volume 3317.615937
_symmetry_space_group_name_H-M "I B A M"
_symmetry_group_IT_number 72
_symmetry_cell_setting 'orthorhombic'
loop_
_space_group_symop_operation_xyz
x,y,z
-x,-y,z
x,-y,1/2-z
-x,y,1/2-z
-x,-y,-z
x,y,-z
-x,y,1/2+z
x,-y,1/2+z
1/2+x,1/2+y,1/2+z
1/2-x,1/2-y,1/2+z
1/2+x,1/2-y,-z
1/2-x,1/2+y,-z
1/2-x,1/2-y,1/2-z
1/2+x,1/2+y,1/2-z
1/2-x,1/2+y,z
1/2+x,1/2-y,z
loop_
_atom_site_type_symbol
_atom_site_label
_atom_site_fract_x
_atom_site_fract_y
_atom_site_fract_z
Si Si1 0.679657 0.656368 0.409713
Si Si2 0.609155 0.838335 0.913413
Si Si3 0.500000 0.000000 0.500000
Si Si4 0.071475 0.020562 0.657477
Si Si5 0.783014 0.467375 0.659858
O O1 0.682078 0.702046 0.500000
O O2 0.612062 0.601913 0.387529
O O3 0.725386 0.519393 0.391507
O O4 0.701329 0.794689 0.356691
O O5 0.592235 0.685603 0.869464
O O6 0.658756 0.934445 0.866913
O O7 0.635257 0.799693 0.000000
O O8 0.548314 0.934498 0.933128
O O9 0.080997 0.000000 0.750000
O O10 0.000000 0.000000 0.639697
O O11 0.769190 0.500000 0.750000
#
# Coordination Sequence:
#
# PCOD9528597 Si02
#       5
#    16  16   4  16  16
#     4  12  25  41  68  99 129 177 221 274 336 401
#     4  10  22  43  66  97 132 175 225 273 328 398
#     4   8  24  40  72  96 140 176 226 280 328 396
#     4  11  25  43  66  97 138 176 221 274 337 399
#     4  12  25  44  69  97 134 170 221 279 340 402
#
# _framework density 20.496645999999998
#
# number of rings (size 3 to 8) (size 9 to 14) (size 15 to 20)
#    0.706    0.235    0.000    7.059    3.294    1.882 
#    0.000    0.000    0.000    0.000    0.000    0.000 
#    0.000    0.000    0.000    0.000    0.000    0.000 
#
# Total GULP energy -189676.910931 kJ/mol
# GULP energy per Si atom -5578.732674 kJ/mol
# Density = 2.044999 g / cm^3
# Si number density = 20.496646 Si / 1000 Ang^3
#
#
#
# Elastic Constant Matrix: (Units=GPa)
#
#
# Indices 1 2 3 4 5 6 
#
# 1 48.7778 22.5399 19.3903 0.0000 0.0000 0.0000
# 2 22.5399 57.8935 5.7417 0.0000 0.0000 0.0000
# 3 19.3903 5.7417 63.1836 0.0000 0.0000 0.0000
# 4 0.0000 0.0000 0.0000 31.0120 0.0000 0.0000
# 5 0.0000 0.0000 0.0000 0.0000 36.0722 0.0000
# 6 0.0000 0.0000 0.0000 0.0000 0.0000 32.4907
#
#
#
# Elastic Compliance Matrix: (Units=1/GPa)
#
#
# Indices 1 2 3 4 5 6 
#
# 1 0.028327 -0.010259 -0.007761 0.000000 0.000000 0.000000
# 2 -0.010259 0.021146 0.001227 0.000000 0.000000 0.000000
# 3 -0.007761 0.001227 0.018097 0.000000 0.000000 0.000000
# 4 0.000000 0.000000 0.000000 0.032246 0.000000 0.000000
# 5 0.000000 0.000000 0.000000 0.000000 0.027722 0.000000
# 6 0.000000 0.000000 0.000000 0.000000 0.000000 0.030778
#
#
# Mechanical properties :
#
#
# Convention : Reuss Voigt Hill
#
# Bulk Modulus (GPa) = 29.42606 29.46651 29.44629
# Shear Modulus (GPa) = 24.60273 28.06050 26.33161
#
# Velocity S-wave (km/s) = 3.46834 3.70405 3.58813
# Velocity P-wave (km/s) = 5.51605 5.71846 5.61817
#
# Compressibility (1/GPa) = 0.03398348
#
# Stress axis : x y z
#
# Youngs Moduli (GPa) = 35.30214 47.29116 55.25732
#
# Poissons Ratio (x) = 0.48516 0.42885
# Poissons Ratio (y) = 0.36216 -0.06779
# Poissons Ratio (z) = 0.27398 -0.05802
#
# Static dielectric constant tensor:
#      x y z
#    x 1.716230 0.000000 0.000000 
#    y 0.000000 1.731060 0.000000 
#    z 0.000000 0.000000 1.715960 
# 
# From -- ./inp_files/27765.got.cif
#   From: 2010.05.17/outbox.cif.g08.bks.cpg/sg72_14_cif.got.tgz:27765.got - 2010.06.03 17:03:01.
