data_PCOD9528130
_publ_section_title
;
Structure prediction by ZEFSAII (Michael W. Deem and Ramdas Pophale) SiO2 
 PCOD9528130
Probable space group: I B A M
;
_chemical_formula_sum "Si O2"
_cell_formula_units_Z 112
_cell_length_a 10.287053
_cell_length_b 32.764044
_cell_length_c 15.532542
_cell_angle_alpha 90.000000
_cell_angle_beta 90.000000
_cell_angle_gamma 90.000000
_cell_volume 5235.172719
_symmetry_space_group_name_H-M "I B A M"
_symmetry_group_IT_number 72
_symmetry_cell_setting 'orthorhombic'
loop_
_space_group_symop_operation_xyz
x,y,z
-x,-y,z
x,-y,1/2-z
-x,y,1/2-z
-x,-y,-z
x,y,-z
-x,y,1/2+z
x,-y,1/2+z
1/2+x,1/2+y,1/2+z
1/2-x,1/2-y,1/2+z
1/2+x,1/2-y,-z
1/2-x,1/2+y,-z
1/2-x,1/2-y,1/2-z
1/2+x,1/2+y,1/2-z
1/2-x,1/2+y,z
1/2+x,1/2-y,z
loop_
_atom_site_type_symbol
_atom_site_label
_atom_site_fract_x
_atom_site_fract_y
_atom_site_fract_z
Si Si1 0.140560 0.417300 0.226195
Si Si2 0.714743 0.146578 0.900516
Si Si3 0.055404 0.208274 0.901767
Si Si4 0.764459 0.075438 0.594236
Si Si5 0.001129 0.880428 0.150983
Si Si6 0.848408 0.486315 0.402625
Si Si7 0.283030 0.261700 0.847434
O O1 0.125012 0.378252 0.164793
O O2 0.208064 0.406692 0.316460
O O3 0.197661 0.453728 0.167860
O O4 0.000000 0.433410 0.250000
O O5 0.733085 0.193210 0.871913
O O6 0.855117 0.125431 0.885630
O O7 0.676101 0.144425 0.000000
O O8 0.059588 0.165297 0.852600
O O9 0.194184 0.230120 0.899716
O O10 0.938031 0.236085 0.864293
O O11 0.017605 0.198838 0.000000
O O12 0.710047 0.088512 0.500000
O O13 0.913449 0.088847 0.597479
O O14 0.735314 0.027492 0.601319
O O15 0.000000 0.893749 0.250000
O O16 0.839657 0.468996 0.500000
O O17 0.000000 0.500000 0.391401
O O18 0.250000 0.250000 0.750000
#
# Coordination Sequence:
#
# PCOD9528130 Si02
#       7
#    16  16  16  16  16  16  16
#     4  12  24  39  66  96 132 173 220 264 329 396
#     4  11  24  44  66  92 133 177 218 268 333 397
#     4  11  22  40  66  94 130 170 218 272 331 394
#     4  11  23  39  64  96 127 163 220 274 323 391
#     4  11  21  42  66  94 123 173 216 268 329 391
#     4  10  21  40  65  94 130 171 214 269 331 391
#     4  11  23  41  65  94 129 172 222 272 331 394
#
# _framework density 21.393756
#
# number of rings (size 3 to 8) (size 9 to 14) (size 15 to 20)
#    0.000    1.000    2.857    6.429    0.000    1.714 
#    0.000    0.714    0.000    2.571    0.000    0.000 
#    0.000    0.000    0.000    0.000    0.000    0.000 
#
# Total GULP energy -312747.506188 kJ/mol
# GULP energy per Si atom -5584.776896 kJ/mol
# Density = 2.134506 g / cm^3
# Si number density = 21.393756 Si / 1000 Ang^3
#
#
#
# Elastic Constant Matrix: (Units=GPa)
#
#
# Indices 1 2 3 4 5 6 
#
# 1 46.6461 26.0195 3.4522 0.0001 0.0000 0.0000
# 2 26.0195 58.2965 19.6054 0.0001 0.0000 0.0000
# 3 3.4522 19.6054 176.1735 0.0005 0.0000 0.0001
# 4 0.0001 0.0001 0.0005 128.1858 0.0000 0.0000
# 5 0.0000 0.0000 0.0000 0.0000 28.8129 0.0000
# 6 0.0000 0.0000 0.0001 0.0000 0.0000 34.1291
#
#
#
# Elastic Compliance Matrix: (Units=1/GPa)
#
#
# Indices 1 2 3 4 5 6 
#
# 1 0.028680 -0.013102 0.000896 0.000000 0.000000 0.000000
# 2 -0.013102 0.023806 -0.002393 0.000000 0.000000 0.000000
# 3 0.000896 -0.002393 0.005925 0.000000 0.000000 0.000000
# 4 0.000000 0.000000 0.000000 0.007801 0.000000 0.000000
# 5 0.000000 0.000000 0.000000 0.000000 0.034707 0.000000
# 6 0.000000 0.000000 0.000000 0.000000 0.000000 0.029300
#
#
# Mechanical properties :
#
#
# Convention : Reuss Voigt Hill
#
# Bulk Modulus (GPa) = 34.23016 42.14116 38.18566
# Shear Modulus (GPa) = 29.55869 53.69484 41.62676
#
# Velocity S-wave (km/s) = 3.72109 5.01526 4.41584
# Velocity P-wave (km/s) = 5.87340 7.29916 6.62475
#
# Compressibility (1/GPa) = 0.02921400
#
# Stress axis : x y z
#
# Youngs Moduli (GPa) = 34.86727 42.00581 168.77879
#
# Poissons Ratio (x) = 0.55037 -0.15124
# Poissons Ratio (y) = 0.45684 0.40381
# Poissons Ratio (z) = -0.03124 0.10050
#
# Static dielectric constant tensor:
#      x y z
#    x 1.803590 0.000000 0.000000 
#    y 0.000000 1.758270 0.000000 
#    z 0.000000 0.000000 1.875520 
# 
# From -- ./inp_files/20708.got.cif
#   From: 2010.05.17/outbox.cif.g08.bks.cpg/sg72_11_cif.got.tgz:20708.got - 2010.06.03 17:03:01.
