data_PCOD9528063
_publ_section_title
;
Structure prediction by ZEFSAII (Michael W. Deem and Ramdas Pophale) SiO2 
 PCOD9528063
Probable space group: I B A M
;
_chemical_formula_sum "Si O2"
_cell_formula_units_Z 120
_cell_length_a 12.812548
_cell_length_b 20.067355
_cell_length_c 23.393382
_cell_angle_alpha 90.000000
_cell_angle_beta 90.000000
_cell_angle_gamma 90.000000
_cell_volume 6014.764830
_symmetry_space_group_name_H-M "I B A M"
_symmetry_group_IT_number 72
_symmetry_cell_setting 'orthorhombic'
loop_
_space_group_symop_operation_xyz
x,y,z
-x,-y,z
x,-y,1/2-z
-x,y,1/2-z
-x,-y,-z
x,y,-z
-x,y,1/2+z
x,-y,1/2+z
1/2+x,1/2+y,1/2+z
1/2-x,1/2-y,1/2+z
1/2+x,1/2-y,-z
1/2-x,1/2+y,-z
1/2-x,1/2-y,1/2-z
1/2+x,1/2+y,1/2-z
1/2-x,1/2+y,z
1/2+x,1/2-y,z
loop_
_atom_site_type_symbol
_atom_site_label
_atom_site_fract_x
_atom_site_fract_y
_atom_site_fract_z
Si Si1 0.983011 0.264317 0.651388
Si Si2 0.689421 0.605448 0.065884
Si Si3 0.917657 0.368081 0.566219
Si Si4 0.148890 0.708379 0.236078
Si Si5 0.457788 0.651777 0.934434
Si Si6 0.613102 0.523523 0.367997
Si Si7 0.500000 0.000000 0.117691
Si Si8 0.817867 0.444807 0.799772
O O1 0.989498 0.322415 0.605110
O O2 0.915987 0.288138 0.705280
O O3 0.932874 0.203606 0.615994
O O4 0.092764 0.254159 0.682947
O O5 0.796133 0.641337 0.083407
O O6 0.584135 0.648384 0.066632
O O7 0.665379 0.541022 0.103437
O O8 0.706075 0.584153 0.000000
O O9 0.930265 0.351610 0.500000
O O10 0.946262 0.443929 0.579215
O O11 0.250000 0.750000 0.250000
O O12 0.163439 0.630771 0.220740
O O13 0.414777 0.579695 0.915260
O O14 0.425874 0.667706 0.000000
O O15 0.500000 0.500000 0.343465
O O16 0.701087 0.551380 0.325871
O O17 0.409324 0.033798 0.156133
O O18 0.823805 0.500000 0.750000
#
# Coordination Sequence:
#
# PCOD9528063 Si02
#       8
#    16  16  16  16  16  16   8  16
#     4  11  24  42  64  92 123 171 224 262 325 391
#     4   9  19  36  62  93 127 171 207 252 323 389
#     4  11  22  39  64  96 133 166 209 267 328 393
#     4  11  26  44  65  90 129 175 219 277 331 389
#     4  10  21  40  66  96 133 174 216 266 326 395
#     4  10  21  39  65  98 132 166 212 272 321 388
#     4  12  22  42  66  94 134 165 223 266 330 392
#     4  12  25  41  69  97 128 176 226 279 329 389
#
# _framework density 19.950906
#
# number of rings (size 3 to 8) (size 9 to 14) (size 15 to 20)
#    0.000    1.333    2.667    2.800    3.733    2.933 
#    0.000    0.000    0.000    0.000    0.000    0.000 
#    0.000    0.000    0.000    0.000    0.000    0.000 
#
# Total GULP energy -334832.593341 kJ/mol
# GULP energy per Si atom -5580.543222 kJ/mol
# Density = 1.990550 g / cm^3
# Si number density = 19.950906 Si / 1000 Ang^3
#
#
#
# Elastic Constant Matrix: (Units=GPa)
#
#
# Indices 1 2 3 4 5 6 
#
# 1 82.1803 -3.2547 33.9240 0.0000 0.0000 0.0000
# 2 -3.2547 51.1320 25.1307 0.0000 0.0000 0.0000
# 3 33.9240 25.1307 99.6432 0.0000 0.0000 0.0000
# 4 0.0000 0.0000 0.0000 32.3567 0.0000 0.0000
# 5 0.0000 0.0000 0.0000 0.0000 23.9170 0.0000
# 6 0.0000 0.0000 0.0000 0.0000 0.0000 24.9058
#
#
#
# Elastic Compliance Matrix: (Units=1/GPa)
#
#
# Indices 1 2 3 4 5 6 
#
# 1 0.014811 0.003905 -0.006027 0.000000 0.000000 0.000000
# 2 0.003905 0.023354 -0.007220 0.000000 0.000000 0.000000
# 3 -0.006027 -0.007220 0.013909 0.000000 0.000000 0.000000
# 4 0.000000 0.000000 0.000000 0.030905 0.000000 0.000000
# 5 0.000000 0.000000 0.000000 0.000000 0.041811 0.000000
# 6 0.000000 0.000000 0.000000 0.000000 0.000000 0.040151
#
#
# Mechanical properties :
#
#
# Convention : Reuss Voigt Hill
#
# Bulk Modulus (GPa) = 29.94887 38.28395 34.11641
# Shear Modulus (GPa) = 25.67319 28.04629 26.85974
#
# Velocity S-wave (km/s) = 3.59112 3.75342 3.67317
# Velocity P-wave (km/s) = 5.67791 6.16563 5.92679
#
# Compressibility (1/GPa) = 0.03339025
#
# Stress axis : x y z
#
# Youngs Moduli (GPa) = 67.51671 42.81900 71.89738
#
# Poissons Ratio (x) = -0.16722 0.43336
# Poissons Ratio (y) = -0.26366 0.51907
# Poissons Ratio (z) = 0.40695 0.30914
#
# Static dielectric constant tensor:
#      x y z
#    x 1.653820 0.000000 0.000000 
#    y 0.000000 1.705560 0.000000 
#    z 0.000000 0.000000 1.628260 
# 
# From -- ./inp_files/43578.got.cif
#   From: 2010.05.17/outbox.cif.g08.bks.cpg/sg72_22_cif.got.tgz:43578.got - 2010.06.03 17:03:01.
