data_PCOD9528742
_publ_section_title
;
Structure prediction by ZEFSAII (Michael W. Deem and Ramdas Pophale) SiO2 
 PCOD9528742
Probable space group: I B A M
;
_chemical_formula_sum "Si O2"
_cell_formula_units_Z 88
_cell_length_a 10.381153
_cell_length_b 14.188267
_cell_length_c 28.483277
_cell_angle_alpha 90.000000
_cell_angle_beta 90.000000
_cell_angle_gamma 90.000000
_cell_volume 4195.318120
_symmetry_space_group_name_H-M "I B A M"
_symmetry_group_IT_number 72
_symmetry_cell_setting 'orthorhombic'
loop_
_space_group_symop_operation_xyz
x,y,z
-x,-y,z
x,-y,1/2-z
-x,y,1/2-z
-x,-y,-z
x,y,-z
-x,y,1/2+z
x,-y,1/2+z
1/2+x,1/2+y,1/2+z
1/2-x,1/2-y,1/2+z
1/2+x,1/2-y,-z
1/2-x,1/2+y,-z
1/2-x,1/2-y,1/2-z
1/2+x,1/2+y,1/2-z
1/2-x,1/2+y,z
1/2+x,1/2-y,z
loop_
_atom_site_type_symbol
_atom_site_label
_atom_site_fract_x
_atom_site_fract_y
_atom_site_fract_z
Si Si1 0.715454 0.891816 0.089966
Si Si2 0.301639 0.725281 0.000000
Si Si3 0.500000 0.000000 0.628438
Si Si4 0.687591 0.260660 0.335234
Si Si5 0.394540 0.565984 0.400525
Si Si6 0.066434 0.151393 0.500000
Si Si7 0.937459 0.651451 0.798746
O O1 0.755696 0.833449 0.045027
O O2 0.746521 0.826215 0.134719
O O3 0.567877 0.921818 0.096378
O O4 0.781495 0.993078 0.089712
O O5 0.456090 0.731949 0.000000
O O6 0.214948 0.817637 0.000000
O O7 0.420283 0.064835 0.664936
O O8 0.650806 0.344316 0.371307
O O9 0.798403 0.297210 0.299819
O O10 0.551837 0.222329 0.315447
O O11 0.500000 0.500000 0.375249
O O12 0.452056 0.598521 0.450729
O O13 0.000000 0.617019 0.750000
#
# Coordination Sequence:
#
# PCOD9528742 Si02
#       7
#    16   8   8  16  16   8  16
#     4  11  23  41  65  96 133 172 225 266 333 385
#     4  12  25  41  64  97 135 181 222 280 322 388
#     4  10  23  41  68  94 124 178 220 267 333 404
#     4  11  24  41  70  98 130 175 218 272 334 402
#     4  12  22  41  67  94 131 176 224 269 327 391
#     4  12  26  39  65  94 134 179 226 270 326 389
#     4  11  23  43  67  99 131 169 217 277 339 403
#
# _framework density 20.975763000000001
#
# number of rings (size 3 to 8) (size 9 to 14) (size 15 to 20)
#    0.000    0.727    5.455    2.727    0.000    1.818 
#    0.000    0.000    0.000    1.091    0.000    0.000 
#    0.000    0.000    0.000    0.000    0.000    0.000 
#
# Total GULP energy -245298.201630 kJ/mol
# GULP energy per Si atom -5574.959128 kJ/mol
# Density = 2.092802 g / cm^3
# Si number density = 20.975763 Si / 1000 Ang^3
#
#
#
# Elastic Constant Matrix: (Units=GPa)
#
#
# Indices 1 2 3 4 5 6 
#
# 1 67.6981 11.7820 20.4795 0.0000 0.0000 0.0000
# 2 11.7820 58.8526 -2.7996 0.0000 0.0000 0.0000
# 3 20.4795 -2.7996 41.9865 0.0000 0.0000 0.0000
# 4 0.0000 0.0000 0.0000 -22.0988 0.0000 0.0000
# 5 0.0000 0.0000 0.0000 0.0000 18.6674 0.0000
# 6 0.0000 0.0000 0.0000 0.0000 0.0000 40.8161
#
#
#
# Elastic Compliance Matrix: (Units=1/GPa)
#
#
# Indices 1 2 3 4 5 6 
#
# 1 0.018261 -0.004092 -0.009180 0.000000 0.000000 0.000000
# 2 -0.004092 0.017963 0.003194 0.000000 0.000000 0.000000
# 3 -0.009180 0.003194 0.028508 0.000000 0.000000 0.000000
# 4 0.000000 0.000000 0.000000 -0.045251 0.000000 0.000000
# 5 0.000000 0.000000 0.000000 0.000000 0.053569 0.000000
# 6 0.000000 0.000000 0.000000 0.000000 0.000000 0.024500
#
#
# Mechanical properties :
#
#
# Convention : Reuss Voigt Hill
#
# Bulk Modulus (GPa) = 22.43430 25.27343 23.85386
# Shear Modulus (GPa) = 37.71764 16.74864 27.23314
#
# Velocity S-wave (km/s) = 4.24506 2.82880 3.60712
# Velocity P-wave (km/s) = 5.89457 4.76912 5.36146
#
# Compressibility (1/GPa) = 0.04457460
#
# Stress axis : x y z
#
# Youngs Moduli (GPa) = 54.76242 55.67058 35.07825
#
# Poissons Ratio (x) = 0.22783 0.32201
# Poissons Ratio (y) = 0.22411 -0.11204
# Poissons Ratio (z) = 0.50271 -0.17780
#
# Static dielectric constant tensor:
#      x y z
#    x 1.865440 0.000000 0.000000 
#    y 0.000000 1.731280 0.000000 
#    z 0.000000 0.000000 1.761160 
# 
# From -- ./inp_files/43261.got.cif
#   From: 2010.05.17/outbox.cif.g08.bks.cpg/sg72_22_cif.got.tgz:43261.got - 2010.06.03 17:03:01.
