data_PCOD9528807
_publ_section_title
;
Structure prediction by ZEFSAII (Michael W. Deem and Ramdas Pophale) SiO2 
 PCOD9528807
Probable space group: I B A M
;
_chemical_formula_sum "Si O2"
_cell_formula_units_Z 64
_cell_length_a 16.257892
_cell_length_b 11.939818
_cell_length_c 13.862691
_cell_angle_alpha 90.000000
_cell_angle_beta 90.000000
_cell_angle_gamma 90.000000
_cell_volume 2690.973890
_symmetry_space_group_name_H-M "I B A M"
_symmetry_group_IT_number 72
_symmetry_cell_setting 'orthorhombic'
loop_
_space_group_symop_operation_xyz
x,y,z
-x,-y,z
x,-y,1/2-z
-x,y,1/2-z
-x,-y,-z
x,y,-z
-x,y,1/2+z
x,-y,1/2+z
1/2+x,1/2+y,1/2+z
1/2-x,1/2-y,1/2+z
1/2+x,1/2-y,-z
1/2-x,1/2+y,-z
1/2-x,1/2-y,1/2-z
1/2+x,1/2+y,1/2-z
1/2-x,1/2+y,z
1/2+x,1/2-y,z
loop_
_atom_site_type_symbol
_atom_site_label
_atom_site_fract_x
_atom_site_fract_y
_atom_site_fract_z
Si Si1 0.925843 0.204952 0.613664
Si Si2 0.681684 0.496943 0.390427
Si Si3 0.837495 0.605746 0.781988
Si Si4 0.889476 0.249050 0.109752
O O1 0.935760 0.183534 0.500000
O O2 0.877187 0.094895 0.651917
O O3 0.870049 0.310711 0.637354
O O4 0.016679 0.242001 0.646027
O O5 0.704246 0.531474 0.500000
O O6 0.761795 0.458844 0.332507
O O7 0.633220 0.380985 0.395549
O O8 0.893137 0.500000 0.750000
O O9 0.833001 0.684538 0.686348
O O10 0.884112 0.295122 0.000000
#
# Coordination Sequence:
#
# PCOD9528807 Si02
#       4
#    16  16  16  16
#     4  10  23  45  72 100 134 180 234 291 351 417
#     4  10  23  43  71 102 134 175 232 296 353 412
#     4  12  27  42  65 100 143 184 226 281 352 423
#     4  10  23  44  70 100 136 182 234 289 347 414
#
# _framework density 23.783211999999999
#
# number of rings (size 3 to 8) (size 9 to 14) (size 15 to 20)
#    0.000    1.500    0.000    3.000    7.000    7.000 
#    0.000    5.000    0.000    0.000    0.000    0.000 
#    0.000    2.000    0.000    0.000    0.000    0.000 
#
# Total GULP energy -178539.860341 kJ/mol
# GULP energy per Si atom -5579.370636 kJ/mol
# Density = 2.372908 g / cm^3
# Si number density = 23.783212 Si / 1000 Ang^3
#
#
#
# Elastic Constant Matrix: (Units=GPa)
#
#
# Indices 1 2 3 4 5 6 
#
# 1 56.4488 -4.5857 30.4665 0.0000 0.0000 0.0000
# 2 -4.5857 93.4832 -13.3898 0.0000 0.0000 0.0000
# 3 30.4665 -13.3898 93.4998 0.0000 0.0000 0.0000
# 4 0.0000 0.0000 0.0000 45.2853 0.0000 0.0000
# 5 0.0000 0.0000 0.0000 0.0000 1.6391 0.0000
# 6 0.0000 0.0000 0.0000 0.0000 0.0000 15.7901
#
#
#
# Elastic Compliance Matrix: (Units=1/GPa)
#
#
# Indices 1 2 3 4 5 6 
#
# 1 0.021496 0.000052 -0.006997 0.000000 0.000000 0.000000
# 2 0.000052 0.010921 0.001547 0.000000 0.000000 0.000000
# 3 -0.006997 0.001547 0.013197 0.000000 0.000000 0.000000
# 4 0.000000 0.000000 0.000000 0.022082 0.000000 0.000000
# 5 0.000000 0.000000 0.000000 0.000000 0.610076 0.000000
# 6 0.000000 0.000000 0.000000 0.000000 0.000000 0.063331
#
#
# Mechanical properties :
#
#
# Convention : Reuss Voigt Hill
#
# Bulk Modulus (GPa) = 28.72039 29.82376 29.27208
# Shear Modulus (GPa) = 6.54876 27.93897 17.24386
#
# Velocity S-wave (km/s) = 1.66117 3.43116 2.69558
# Velocity P-wave (km/s) = 3.97259 5.31641 4.69285
#
# Compressibility (1/GPa) = 0.03481846
#
# Stress axis : x y z
#
# Youngs Moduli (GPa) = 46.52091 91.56466 75.77702
#
# Poissons Ratio (x) = -0.00479 0.53020
# Poissons Ratio (y) = -0.00243 -0.11722
# Poissons Ratio (z) = 0.32550 -0.14165
#
# Static dielectric constant tensor:
#      x y z
#    x 2.039810 0.000000 0.000000 
#    y 0.000000 1.904530 0.000000 
#    z 0.000000 0.000000 2.003800 
# 
# From -- ./inp_files/19736.got.cif
#   From: 2010.05.17/outbox.cif.g08.bks.cpg/sg72_10_cif.got.tgz:19736.got - 2010.06.03 17:03:01.
