data_PCOD9528397
_publ_section_title
;
Structure prediction by ZEFSAII (Michael W. Deem and Ramdas Pophale) SiO2 
 PCOD9528397
Probable space group: I B A M
;
_chemical_formula_sum "Si O2"
_cell_formula_units_Z 88
_cell_length_a 18.572278
_cell_length_b 10.241428
_cell_length_c 23.408107
_cell_angle_alpha 90.000000
_cell_angle_beta 90.000000
_cell_angle_gamma 90.000000
_cell_volume 4452.377567
_symmetry_space_group_name_H-M "I B A M"
_symmetry_group_IT_number 72
_symmetry_cell_setting 'orthorhombic'
loop_
_space_group_symop_operation_xyz
x,y,z
-x,-y,z
x,-y,1/2-z
-x,y,1/2-z
-x,-y,-z
x,y,-z
-x,y,1/2+z
x,-y,1/2+z
1/2+x,1/2+y,1/2+z
1/2-x,1/2-y,1/2+z
1/2+x,1/2-y,-z
1/2-x,1/2+y,-z
1/2-x,1/2-y,1/2-z
1/2+x,1/2+y,1/2-z
1/2-x,1/2+y,z
1/2+x,1/2-y,z
loop_
_atom_site_type_symbol
_atom_site_label
_atom_site_fract_x
_atom_site_fract_y
_atom_site_fract_z
Si Si1 0.500000 0.500000 0.000000
Si Si2 0.222221 0.335700 0.566048
Si Si3 0.413746 0.529760 0.812898
Si Si4 0.582412 0.324473 0.596043
Si Si5 0.670109 0.887678 0.569653
Si Si6 0.449236 0.813825 0.152669
Si Si7 0.500000 0.000000 0.750000
O O1 0.536729 0.594184 0.950203
O O2 0.241751 0.356650 0.500000
O O3 0.146709 0.259514 0.569999
O O4 0.283507 0.238470 0.587641
O O5 0.210252 0.480507 0.589390
O O6 0.500000 0.500000 0.811788
O O7 0.385026 0.500000 0.750000
O O8 0.384913 0.431549 0.860526
O O9 0.409356 0.680429 0.829321
O O10 0.527881 0.230623 0.630608
O O11 0.663060 0.889288 0.500000
O O12 0.593654 0.878511 0.600574
O O13 0.455561 0.907357 0.207170
#
# Coordination Sequence:
#
# PCOD9528397 Si02
#       7
#     4  16  16  16  16  16   4
#     4  12  20  32  58 106 132 156 200 260 324 388
#     4  10  22  40  59  87 130 172 207 252 317 389
#     4   9  18  34  56  86 118 156 201 250 306 368
#     4  11  21  36  62  97 129 161 206 267 322 383
#     4  10  24  40  62  93 128 170 209 259 320 392
#     4  11  22  38  63  91 122 164 212 264 317 379
#     4  12  24  40  64  88 120 172 216 278 324 368
#
# _framework density 19.764721000000002
#
# number of rings (size 3 to 8) (size 9 to 14) (size 15 to 20)
#    0.000    1.636    3.636    3.273    3.818    0.000 
#    3.273    2.273    2.000    3.273    0.000    0.000 
#    0.000    0.000    0.000    0.000    0.000    0.000 
#
# Total GULP energy -244980.726374 kJ/mol
# GULP energy per Si atom -5567.743781 kJ/mol
# Density = 1.971974 g / cm^3
# Si number density = 19.764721 Si / 1000 Ang^3
#
#
#
# Elastic Constant Matrix: (Units=GPa)
#
#
# Indices 1 2 3 4 5 6 
#
# 1 45.2398 24.9611 14.6195 0.0000 0.0000 0.0000
# 2 24.9611 123.0535 41.9687 0.0000 0.0000 0.0000
# 3 14.6195 41.9687 85.0403 0.0000 0.0000 0.0000
# 4 0.0000 0.0000 0.0000 20.0787 0.0000 0.0000
# 5 0.0000 0.0000 0.0000 0.0000 9.1228 0.0000
# 6 0.0000 0.0000 0.0000 0.0000 0.0000 15.2512
#
#
#
# Elastic Compliance Matrix: (Units=1/GPa)
#
#
# Indices 1 2 3 4 5 6 
#
# 1 0.025221 -0.004373 -0.002177 0.000000 0.000000 0.000000
# 2 -0.004373 0.010530 -0.004445 0.000000 0.000000 0.000000
# 3 -0.002177 -0.004445 0.014327 0.000000 0.000000 0.000000
# 4 0.000000 0.000000 0.000000 0.049804 0.000000 0.000000
# 5 0.000000 0.000000 0.000000 0.000000 0.109616 0.000000
# 6 0.000000 0.000000 0.000000 0.000000 0.000000 0.065569
#
#
# Mechanical properties :
#
#
# Convention : Reuss Voigt Hill
#
# Bulk Modulus (GPa) = 35.60416 46.27023 40.93719
# Shear Modulus (GPa) = 16.31750 20.34282 18.33016
#
# Velocity S-wave (km/s) = 2.87642 3.21167 3.04866
# Velocity P-wave (km/s) = 5.39304 6.10036 5.75757
#
# Compressibility (1/GPa) = 0.02808660
#
# Stress axis : x y z
#
# Youngs Moduli (GPa) = 39.64931 94.97051 69.79834
#
# Poissons Ratio (x) = 0.41534 0.15198
# Poissons Ratio (y) = 0.17340 0.31023
# Poissons Ratio (z) = 0.08634 0.42211
#
# Static dielectric constant tensor:
#      x y z
#    x 1.687820 0.000000 0.000000 
#    y 0.000000 1.723140 0.000000 
#    z 0.000000 0.000000 1.707480 
# 
# From -- ./inp_files/45286.got.cif
#   From: 2010.05.17/outbox.cif.g08.bks.cpg/sg72_23_cif.got.tgz:45286.got - 2010.06.03 17:03:01.
