data_PCOD9528307
_publ_section_title
;
Structure prediction by ZEFSAII (Michael W. Deem and Ramdas Pophale) SiO2 
 PCOD9528307
Probable space group: I B A M
;
_chemical_formula_sum "Si O2"
_cell_formula_units_Z 104
_cell_length_a 10.057609
_cell_length_b 21.147416
_cell_length_c 26.539849
_cell_angle_alpha 90.000000
_cell_angle_beta 90.000000
_cell_angle_gamma 90.000000
_cell_volume 5644.825281
_symmetry_space_group_name_H-M "I B A M"
_symmetry_group_IT_number 72
_symmetry_cell_setting 'orthorhombic'
loop_
_space_group_symop_operation_xyz
x,y,z
-x,-y,z
x,-y,1/2-z
-x,y,1/2-z
-x,-y,-z
x,y,-z
-x,y,1/2+z
x,-y,1/2+z
1/2+x,1/2+y,1/2+z
1/2-x,1/2-y,1/2+z
1/2+x,1/2-y,-z
1/2-x,1/2+y,-z
1/2-x,1/2-y,1/2-z
1/2+x,1/2+y,1/2-z
1/2-x,1/2+y,z
1/2+x,1/2-y,z
loop_
_atom_site_type_symbol
_atom_site_label
_atom_site_fract_x
_atom_site_fract_y
_atom_site_fract_z
Si Si1 0.382680 0.203885 0.194181
Si Si2 0.543027 0.597807 0.500000
Si Si3 0.316296 0.181870 0.300384
Si Si4 0.670555 0.102540 0.901684
Si Si5 0.265093 0.330758 0.000000
Si Si6 0.132045 0.612329 0.897921
Si Si7 0.713006 0.181092 0.500000
Si Si8 0.361765 0.483497 0.403543
O O1 0.332667 0.161466 0.241865
O O2 0.540492 0.216061 0.194314
O O3 0.301821 0.268354 0.196307
O O4 0.360320 0.166628 0.143344
O O5 0.394481 0.623906 0.500000
O O6 0.632657 0.660772 0.500000
O O7 0.583121 0.554539 0.452456
O O8 0.302995 0.133309 0.346549
O O9 0.515639 0.082533 0.899609
O O10 0.775734 0.046816 0.912033
O O11 0.687777 0.151609 0.948268
O O12 0.301659 0.256522 0.000000
O O13 0.154744 0.646031 0.951329
O O14 0.248790 0.563853 0.883814
O O15 0.500000 0.500000 0.375050
#
# Coordination Sequence:
#
# PCOD9528307 Si02
#       8
#    16   8  16  16   8  16   8  16
#     4   9  18  37  58  81 118 145 191 235 292 343
#     4  10  22  39  56  80 113 157 195 225 295 332
#     4   9  19  35  58  85 110 152 188 239 286 348
#     4  11  22  35  57  83 111 148 196 231 286 336
#     4  12  22  36  57  84 117 151 183 242 277 355
#     4  10  22  38  56  84 113 150 186 238 284 341
#     4  10  23  36  55  84 118 147 184 232 289 348
#     4  11  21  39  57  79 110 151 194 234 275 338
#
# _framework density 18.423954999999999
#
# number of rings (size 3 to 8) (size 9 to 14) (size 15 to 20)
#    0.000    1.846    1.538    2.538    2.154    1.231 
#    2.769    3.846    0.000    4.615    0.000    0.000 
#    0.000    0.000    0.000    0.000    0.000    0.000 
#
# Total GULP energy -289483.314746 kJ/mol
# GULP energy per Si atom -5566.986822 kJ/mol
# Density = 1.838202 g / cm^3
# Si number density = 18.423955 Si / 1000 Ang^3
#
#
#
# Elastic Constant Matrix: (Units=GPa)
#
#
# Indices 1 2 3 4 5 6 
#
# 1 93.8889 16.4752 15.5249 0.0000 0.0000 0.0000
# 2 16.4752 39.0927 1.1434 0.0000 0.0000 0.0000
# 3 15.5249 1.1434 88.8492 0.0000 0.0000 0.0000
# 4 0.0000 0.0000 0.0000 8.1945 0.0000 0.0000
# 5 0.0000 0.0000 0.0000 0.0000 18.8653 0.0000
# 6 0.0000 0.0000 0.0000 0.0000 0.0000 31.5240
#
#
#
# Elastic Compliance Matrix: (Units=1/GPa)
#
#
# Indices 1 2 3 4 5 6 
#
# 1 0.011849 -0.004935 -0.002007 0.000000 0.000000 0.000000
# 2 -0.004935 0.027645 0.000507 0.000000 0.000000 0.000000
# 3 -0.002007 0.000507 0.011599 0.000000 0.000000 0.000000
# 4 0.000000 0.000000 0.000000 0.122034 0.000000 0.000000
# 5 0.000000 0.000000 0.000000 0.000000 0.053007 0.000000
# 6 0.000000 0.000000 0.000000 0.000000 0.000000 0.031722
#
#
# Mechanical properties :
#
#
# Convention : Reuss Voigt Hill
#
# Bulk Modulus (GPa) = 26.16247 32.01309 29.08778
# Shear Modulus (GPa) = 17.63873 24.29592 20.96733
#
# Velocity S-wave (km/s) = 3.09751 3.63535 3.37715
# Velocity P-wave (km/s) = 5.19845 5.91900 5.57039
#
# Compressibility (1/GPa) = 0.03822269
#
# Stress axis : x y z
#
# Youngs Moduli (GPa) = 84.39771 36.17277 86.21304
#
# Poissons Ratio (x) = 0.17851 0.17302
# Poissons Ratio (y) = 0.41649 -0.04367
# Poissons Ratio (z) = 0.16937 -0.01832
#
# Static dielectric constant tensor:
#      x y z
#    x 1.674030 0.000000 0.000000 
#    y 0.000000 1.617360 0.000000 
#    z 0.000000 0.000000 1.656690 
# 
# From -- ./inp_files/50937.got.cif
#   From: 2010.05.17/outbox.cif.g08.bks.cpg/sg72_26_cif.got.tgz:50937.got - 2010.06.03 17:03:01.
