data_PCOD9528463
_publ_section_title
;
Structure prediction by ZEFSAII (Michael W. Deem and Ramdas Pophale) SiO2 
 PCOD9528463
Probable space group: I B A M
;
_chemical_formula_sum "Si O2"
_cell_formula_units_Z 88
_cell_length_a 22.597769
_cell_length_b 19.960771
_cell_length_c 9.410622
_cell_angle_alpha 90.000000
_cell_angle_beta 90.000000
_cell_angle_gamma 90.000000
_cell_volume 4244.838840
_symmetry_space_group_name_H-M "I B A M"
_symmetry_group_IT_number 72
_symmetry_cell_setting 'orthorhombic'
loop_
_space_group_symop_operation_xyz
x,y,z
-x,-y,z
x,-y,1/2-z
-x,y,1/2-z
-x,-y,-z
x,y,-z
-x,y,1/2+z
x,-y,1/2+z
1/2+x,1/2+y,1/2+z
1/2-x,1/2-y,1/2+z
1/2+x,1/2-y,-z
1/2-x,1/2+y,-z
1/2-x,1/2-y,1/2-z
1/2+x,1/2+y,1/2-z
1/2-x,1/2+y,z
1/2+x,1/2-y,z
loop_
_atom_site_type_symbol
_atom_site_label
_atom_site_fract_x
_atom_site_fract_y
_atom_site_fract_z
Si Si1 0.876716 0.934086 0.666100
Si Si2 0.600663 0.067873 0.334272
Si Si3 0.000000 0.673042 0.750000
Si Si4 0.326910 0.691458 0.837838
Si Si5 0.000000 0.882848 0.750000
Si Si6 0.968290 0.221944 0.500000
Si Si7 0.684920 0.820730 0.838419
O O1 0.861114 0.936675 0.500000
O O2 0.850509 0.868342 0.741978
O O3 0.947027 0.926114 0.684537
O O4 0.856477 0.000000 0.750000
O O5 0.602358 0.051200 0.500000
O O6 0.551098 0.123641 0.306303
O O7 0.661484 0.106576 0.295240
O O8 0.590729 0.000000 0.250000
O O9 0.024698 0.719618 0.624688
O O10 0.338295 0.762563 0.764020
O O11 0.255883 0.683222 0.842859
O O12 0.352001 0.692513 0.000000
O O13 0.025931 0.836185 0.625554
O O14 0.663400 0.807690 0.000000
#
# Coordination Sequence:
#
# PCOD9528463 Si02
#       7
#    16  16   8  16   8   8  16
#     4  12  27  43  64  91 130 170 206 256 312 376
#     4  11  25  41  61  87 126 167 204 255 310 368
#     4  11  23  40  64  94 130 160 206 254 310 366
#     4  10  22  40  67  96 124 161 209 262 313 371
#     4  11  25  42  66  96 128 160 206 254 314 370
#     4  10  24  40  64  98 122 164 204 258 304 368
#     4   9  21  42  65  93 125 161 210 264 314 366
#
# _framework density 20.731058000000001
#
# number of rings (size 3 to 8) (size 9 to 14) (size 15 to 20)
#    0.000    1.455    1.818    1.636    8.909    3.636 
#    0.000    1.818    0.000    0.000    0.000    0.000 
#    0.000    0.000    0.000    0.000    0.000    0.000 
#
# Total GULP energy -245033.143071 kJ/mol
# GULP energy per Si atom -5568.935070 kJ/mol
# Density = 2.068387 g / cm^3
# Si number density = 20.731058 Si / 1000 Ang^3
#
#
#
# Elastic Constant Matrix: (Units=GPa)
#
#
# Indices 1 2 3 4 5 6 
#
# 1 9.2610 -12.4532 2.4211 0.0000 0.0000 0.0000
# 2 -12.4532 73.5137 45.5216 0.0000 0.0000 0.0000
# 3 2.4211 45.5216 146.0989 0.0000 0.0000 0.0000
# 4 0.0000 0.0000 0.0000 39.4785 0.0000 0.0000
# 5 0.0000 0.0000 0.0000 0.0000 26.4590 0.0000
# 6 0.0000 0.0000 0.0000 0.0000 0.0000 8.8447
#
#
#
# Elastic Compliance Matrix: (Units=1/GPa)
#
#
# Indices 1 2 3 4 5 6 
#
# 1 0.159218 0.035444 -0.013682 0.000000 0.000000 0.000000
# 2 0.035444 0.024745 -0.008297 0.000000 0.000000 0.000000
# 3 -0.013682 -0.008297 0.009657 0.000000 0.000000 0.000000
# 4 0.000000 0.000000 0.000000 0.025330 0.000000 0.000000
# 5 0.000000 0.000000 0.000000 0.000000 0.037794 0.000000
# 6 0.000000 0.000000 0.000000 0.000000 0.000000 0.113062
#
#
# Mechanical properties :
#
#
# Convention : Reuss Voigt Hill
#
# Bulk Modulus (GPa) = 4.53415 33.31697 18.92556
# Shear Modulus (GPa) = 12.00785 27.84872 19.92828
#
# Velocity S-wave (km/s) = 2.40931 3.66913 3.10381
# Velocity P-wave (km/s) = 3.15144 5.83575 4.68975
#
# Compressibility (1/GPa) = 0.22054873
#
# Stress axis : x y z
#
# Youngs Moduli (GPa) = 6.28069 40.41197 103.55443
#
# Poissons Ratio (x) = -1.43236 1.41686
# Poissons Ratio (y) = -0.22261 0.85924
# Poissons Ratio (z) = 0.08593 0.33532
#
# Static dielectric constant tensor:
#      x y z
#    x 1.872230 0.000000 0.000000 
#    y 0.000000 1.686720 0.000000 
#    z 0.000000 0.000000 1.712750 
# 
# From -- ./inp_files/6880.got.cif
#   From: 2010.05.17/outbox.cif.g08.bks.cpg/sg72_4_cif.got.tgz:6880.got - 2010.06.03 17:03:01.
