data_PCOD9528925
_publ_section_title
;
Structure prediction by ZEFSAII (Michael W. Deem and Ramdas Pophale) SiO2 
 PCOD9528925
Probable space group: I B A M
;
_chemical_formula_sum "Si O2"
_cell_formula_units_Z 64
_cell_length_a 22.129111
_cell_length_b 6.896162
_cell_length_c 18.710296
_cell_angle_alpha 90.000000
_cell_angle_beta 90.000000
_cell_angle_gamma 90.000000
_cell_volume 2855.302203
_symmetry_space_group_name_H-M "I B A M"
_symmetry_group_IT_number 72
_symmetry_cell_setting 'orthorhombic'
loop_
_space_group_symop_operation_xyz
x,y,z
-x,-y,z
x,-y,1/2-z
-x,y,1/2-z
-x,-y,-z
x,y,-z
-x,y,1/2+z
x,-y,1/2+z
1/2+x,1/2+y,1/2+z
1/2-x,1/2-y,1/2+z
1/2+x,1/2-y,-z
1/2-x,1/2+y,-z
1/2-x,1/2-y,1/2-z
1/2+x,1/2+y,1/2-z
1/2-x,1/2+y,z
1/2+x,1/2-y,z
loop_
_atom_site_type_symbol
_atom_site_label
_atom_site_fract_x
_atom_site_fract_y
_atom_site_fract_z
Si Si1 0.847415 0.838095 0.917718
Si Si2 0.603121 0.978016 0.168305
Si Si3 0.450646 0.648426 0.581853
Si Si4 0.259215 0.872955 0.693602
O O1 0.885144 0.675708 0.874535
O O2 0.786525 0.871542 0.873462
O O3 0.887843 0.030892 0.918812
O O4 0.836733 0.777951 0.000000
O O5 0.558200 0.839801 0.126633
O O6 0.669855 0.880197 0.174032
O O7 0.583381 0.000000 0.250000
O O8 0.500000 0.500000 0.611640
O O9 0.468016 0.693923 0.500000
O O10 0.249838 0.624921 0.714282
#
# Coordination Sequence:
#
# PCOD9528925 Si02
#       4
#    16  16  16  16
#     4  11  24  40  66 100 131 175 229 274 328 403
#     4  11  23  41  68  96 133 176 223 276 339 396
#     4  10  24  46  68  94 133 178 224 280 337 394
#     4  11  20  39  63  90 136 178 209 266 341 397
#
# _framework density 22.414438000000001
#
# number of rings (size 3 to 8) (size 9 to 14) (size 15 to 20)
#    0.000    1.250    5.000    2.250    0.000    3.000 
#    0.000    7.500    0.000    0.000    0.000    0.000 
#    0.000    0.000    0.000    0.000    0.000    0.000 
#
# Total GULP energy -178850.674909 kJ/mol
# GULP energy per Si atom -5589.083591 kJ/mol
# Density = 2.236342 g / cm^3
# Si number density = 22.414438 Si / 1000 Ang^3
#
#
#
# Elastic Constant Matrix: (Units=GPa)
#
#
# Indices 1 2 3 4 5 6 
#
# 1 43.5470 12.8573 23.3014 0.0000 0.0000 0.0000
# 2 12.8573 113.2025 71.6478 0.0000 0.0000 0.0000
# 3 23.3014 71.6478 166.2441 0.0000 0.0000 0.0000
# 4 0.0000 0.0000 0.0000 27.4319 0.0000 0.0000
# 5 0.0000 0.0000 0.0000 0.0000 22.9968 0.0000
# 6 0.0000 0.0000 0.0000 0.0000 0.0000 46.9517
#
#
#
# Elastic Compliance Matrix: (Units=1/GPa)
#
#
# Indices 1 2 3 4 5 6 
#
# 1 0.024885 -0.000851 -0.003121 0.000000 0.000000 0.000000
# 2 -0.000851 0.012176 -0.005128 0.000000 0.000000 0.000000
# 3 -0.003121 -0.005128 0.008663 0.000000 0.000000 0.000000
# 4 0.000000 0.000000 0.000000 0.036454 0.000000 0.000000
# 5 0.000000 0.000000 0.000000 0.000000 0.043484 0.000000
# 6 0.000000 0.000000 0.000000 0.000000 0.000000 0.021298
#
#
# Mechanical properties :
#
#
# Convention : Reuss Voigt Hill
#
# Bulk Modulus (GPa) = 36.33313 59.84518 48.08916
# Shear Modulus (GPa) = 28.68015 33.82189 31.25102
#
# Velocity S-wave (km/s) = 3.58095 3.88871 3.73800
# Velocity P-wave (km/s) = 5.77429 6.84983 6.33493
#
# Compressibility (1/GPa) = 0.02752309
#
# Stress axis : x y z
#
# Youngs Moduli (GPa) = 40.18474 82.12712 115.43356
#
# Poissons Ratio (x) = 0.06988 0.36030
# Poissons Ratio (y) = 0.03419 0.59199
# Poissons Ratio (z) = 0.12543 0.42118
#
# Static dielectric constant tensor:
#      x y z
#    x 1.767540 0.000000 0.000000 
#    y 0.000000 2.012170 0.000000 
#    z 0.000000 0.000000 1.791440 
# 
# From -- ./inp_files/34697.got.cif
#   From: 2010.05.17/outbox.cif.g08.bks.cpg/sg72_18_cif.got.tgz:34697.got - 2010.06.03 17:03:01.
