data_PCOD9528789
_publ_section_title
;
Structure prediction by ZEFSAII (Michael W. Deem and Ramdas Pophale) SiO2 
 PCOD9528789
Probable space group: I B A M
;
_chemical_formula_sum "Si O2"
_cell_formula_units_Z 64
_cell_length_a 8.245445
_cell_length_b 20.080360
_cell_length_c 19.256866
_cell_angle_alpha 90.000000
_cell_angle_beta 90.000000
_cell_angle_gamma 90.000000
_cell_volume 3188.388265
_symmetry_space_group_name_H-M "I B A M"
_symmetry_group_IT_number 72
_symmetry_cell_setting 'orthorhombic'
loop_
_space_group_symop_operation_xyz
x,y,z
-x,-y,z
x,-y,1/2-z
-x,y,1/2-z
-x,-y,-z
x,y,-z
-x,y,1/2+z
x,-y,1/2+z
1/2+x,1/2+y,1/2+z
1/2-x,1/2-y,1/2+z
1/2+x,1/2-y,-z
1/2-x,1/2+y,-z
1/2-x,1/2-y,1/2-z
1/2+x,1/2+y,1/2-z
1/2-x,1/2+y,z
1/2+x,1/2-y,z
loop_
_atom_site_type_symbol
_atom_site_label
_atom_site_fract_x
_atom_site_fract_y
_atom_site_fract_z
Si Si1 0.194452 0.672449 0.579372
Si Si2 0.654307 0.047906 0.826528
Si Si3 0.416510 0.681637 0.918972
Si Si4 0.844188 0.076330 0.698352
O O1 0.139589 0.666575 0.500000
O O2 0.140948 0.607407 0.620076
O O3 0.389431 0.674667 0.581515
O O4 0.129682 0.743773 0.604194
O O5 0.694527 0.081998 0.752414
O O6 0.500000 0.000000 0.830793
O O7 0.807644 0.996816 0.834493
O O8 0.349472 0.628974 0.863473
O O9 0.361794 0.672579 0.000000
O O10 0.000000 0.082809 0.750000
#
# Coordination Sequence:
#
# PCOD9528789 Si02
#       4
#    16  16  16  16
#     4  10  23  43  65  95 129 169 216 263 318 381
#     4  11  24  41  64  94 132 168 210 267 322 375
#     4  10  23  43  67  94 128 168 215 266 317 380
#     4  11  22  42  64  91 128 168 211 263 317 384
#
# _framework density 20.072838000000001
#
# number of rings (size 3 to 8) (size 9 to 14) (size 15 to 20)
#    0.000    1.500    2.500    3.000    3.500    2.500 
#    0.000    2.500    0.000    2.250    0.000    0.000 
#    0.000    0.000    0.000    0.000    0.000    0.000 
#
# Total GULP energy -178420.343072 kJ/mol
# GULP energy per Si atom -5575.635721 kJ/mol
# Density = 2.002715 g / cm^3
# Si number density = 20.072838 Si / 1000 Ang^3
#
#
#
# Elastic Constant Matrix: (Units=GPa)
#
#
# Indices 1 2 3 4 5 6 
#
# 1 69.6627 51.8271 39.2417 0.0000 0.0000 0.0000
# 2 51.8271 168.6172 114.9002 0.0000 0.0000 0.0000
# 3 39.2417 114.9002 99.2071 0.0000 0.0000 0.0000
# 4 0.0000 0.0000 0.0000 52.0386 0.0000 0.0000
# 5 0.0000 0.0000 0.0000 0.0000 17.7061 0.0000
# 6 0.0000 0.0000 0.0000 0.0000 0.0000 37.1628
#
#
#
# Elastic Compliance Matrix: (Units=1/GPa)
#
#
# Indices 1 2 3 4 5 6 
#
# 1 0.018869 -0.003386 -0.003542 0.000000 0.000000 0.000000
# 2 -0.003386 0.028744 -0.031951 0.000000 0.000000 0.000000
# 3 -0.003542 -0.031951 0.048486 0.000000 0.000000 0.000000
# 4 0.000000 0.000000 0.000000 0.019216 0.000000 0.000000
# 5 0.000000 0.000000 0.000000 0.000000 0.056478 0.000000
# 6 0.000000 0.000000 0.000000 0.000000 0.000000 0.026909
#
#
# Mechanical properties :
#
#
# Convention : Reuss Voigt Hill
#
# Bulk Modulus (GPa) = 54.52348 83.26944 68.89646
# Shear Modulus (GPa) = 17.69446 30.14937 23.92191
#
# Velocity S-wave (km/s) = 2.97225 3.87977 3.45593
# Velocity P-wave (km/s) = 6.24506 7.85136 7.09382
#
# Compressibility (1/GPa) = 0.01834072
#
# Stress axis : x y z
#
# Youngs Moduli (GPa) = 52.99596 34.79025 20.62440
#
# Poissons Ratio (x) = 0.11781 0.07305
# Poissons Ratio (y) = 0.17945 0.65897
# Poissons Ratio (z) = 0.18771 1.11159
#
# Static dielectric constant tensor:
#      x y z
#    x 1.784250 0.000000 0.000000 
#    y 0.000000 1.696010 0.000000 
#    z 0.000000 0.000000 1.726210 
# 
# From -- ./inp_files/32211.got.cif
#   From: 2010.05.17/outbox.cif.g08.bks.cpg/sg72_17_cif.got.tgz:32211.got - 2010.06.03 17:03:01.
