data_PCOD9528778
_publ_section_title
;
Structure prediction by ZEFSAII (Michael W. Deem and Ramdas Pophale) SiO2 
 PCOD9528778
Probable space group: I B A M
;
_chemical_formula_sum "Si O2"
_cell_formula_units_Z 40
_cell_length_a 24.456991
_cell_length_b 5.333769
_cell_length_c 11.992678
_cell_angle_alpha 90.000000
_cell_angle_beta 90.000000
_cell_angle_gamma 90.000000
_cell_volume 1564.420145
_symmetry_space_group_name_H-M "I B A M"
_symmetry_group_IT_number 72
_symmetry_cell_setting 'orthorhombic'
loop_
_space_group_symop_operation_xyz
x,y,z
-x,-y,z
x,-y,1/2-z
-x,y,1/2-z
-x,-y,-z
x,y,-z
-x,y,1/2+z
x,-y,1/2+z
1/2+x,1/2+y,1/2+z
1/2-x,1/2-y,1/2+z
1/2+x,1/2-y,-z
1/2-x,1/2+y,-z
1/2-x,1/2-y,1/2-z
1/2+x,1/2+y,1/2-z
1/2-x,1/2+y,z
1/2+x,1/2-y,z
loop_
_atom_site_type_symbol
_atom_site_label
_atom_site_fract_x
_atom_site_fract_y
_atom_site_fract_z
Si Si1 0.612870 0.500000 0.250000
Si Si2 0.714539 0.670956 0.370439
Si Si3 0.562095 0.095847 0.624691
O O1 0.657791 0.684132 0.305769
O O2 0.575669 0.387362 0.348525
O O3 0.700618 0.674150 0.500000
O O4 0.754586 0.905421 0.352019
O O5 0.586312 0.042297 0.500000
O O6 0.500000 0.000000 0.616279
O O7 0.577264 0.000000 0.750000
#
# Coordination Sequence:
#
# PCOD9528778 Si02
#       3
#     8  16  16
#     4  12  24  41  74 108 146 204 263 318 390 468
#     4  10  23  42  69 110 156 199 254 324 397 474
#     4  10  25  48  74 106 148 198 259 325 392 465
#
# _framework density 25.568579
#
# number of rings (size 3 to 8) (size 9 to 14) (size 15 to 20)
#    0.000    1.600    0.000    2.400    5.600    6.400 
#    0.000   10.000    0.000    0.000    0.000    0.000 
#    0.000    0.000    0.000    0.000    0.000    0.000 
#
# Total GULP energy -111352.859567 kJ/mol
# GULP energy per Si atom -5567.642978 kJ/mol
# Density = 2.551038 g / cm^3
# Si number density = 25.568579 Si / 1000 Ang^3
#
#
#
# Elastic Constant Matrix: (Units=GPa)
#
#
# Indices 1 2 3 4 5 6 
#
# 1 152.7143 78.5947 47.1578 0.0000 0.0000 0.0000
# 2 78.5947 76.6171 58.6920 0.0000 0.0000 0.0000
# 3 47.1578 58.6920 221.9177 0.0000 0.0000 0.0000
# 4 0.0000 0.0000 0.0000 42.0784 0.0000 0.0000
# 5 0.0000 0.0000 0.0000 0.0000 -1.9700 0.0000
# 6 0.0000 0.0000 0.0000 0.0000 0.0000 -36.3886
#
#
#
# Elastic Compliance Matrix: (Units=1/GPa)
#
#
# Indices 1 2 3 4 5 6 
#
# 1 0.014059 -0.015216 0.001037 0.000000 0.000000 0.000000
# 2 -0.015216 0.032837 -0.005451 0.000000 0.000000 0.000000
# 3 0.001037 -0.005451 0.005728 0.000000 0.000000 0.000000
# 4 0.000000 0.000000 0.000000 0.023765 0.000000 0.000000
# 5 0.000000 0.000000 0.000000 0.000000 -0.507612 0.000000
# 6 0.000000 0.000000 0.000000 0.000000 0.000000 -0.027481
#
#
# Mechanical properties :
#
#
# Convention : Reuss Voigt Hill
#
# Bulk Modulus (GPa) = 74.83761 91.12646 82.98203
# Shear Modulus (GPa) = -12.04849 18.53094 3.24123
#
# Velocity S-wave (km/s) = -2.17312 2.69505 1.12713
# Velocity P-wave (km/s) = 4.79961 6.73808 5.84970
#
# Compressibility (1/GPa) = 0.01336227
#
# Stress axis : x y z
#
# Youngs Moduli (GPa) = 71.12871 30.45391 174.59501
#
# Poissons Ratio (x) = 0.46339 -0.18101
# Poissons Ratio (y) = 1.08230 0.95173
# Poissons Ratio (z) = -0.07374 0.16601
#
# Static dielectric constant tensor:
#      x y z
#    x 1.929580 0.000000 0.000000 
#    y 0.000000 1.892570 0.000000 
#    z 0.000000 0.000000 2.197040 
# 
# From -- ./inp_files/24622.got.cif
#   From: 2010.05.17/outbox.cif.g08.bks.cpg/sg72_13_cif.got.tgz:24622.got - 2010.06.03 17:03:01.
