data_PCOD9528992
_publ_section_title
;
Structure prediction by ZEFSAII (Michael W. Deem and Ramdas Pophale) SiO2 
 PCOD9528992
Probable space group: I B A M
;
_chemical_formula_sum "Si O2"
_cell_formula_units_Z 68
_cell_length_a 9.187055
_cell_length_b 22.213864
_cell_length_c 14.886843
_cell_angle_alpha 90.000000
_cell_angle_beta 90.000000
_cell_angle_gamma 90.000000
_cell_volume 3038.106775
_symmetry_space_group_name_H-M "I B A M"
_symmetry_group_IT_number 72
_symmetry_cell_setting 'orthorhombic'
loop_
_space_group_symop_operation_xyz
x,y,z
-x,-y,z
x,-y,1/2-z
-x,y,1/2-z
-x,-y,-z
x,y,-z
-x,y,1/2+z
x,-y,1/2+z
1/2+x,1/2+y,1/2+z
1/2-x,1/2-y,1/2+z
1/2+x,1/2-y,-z
1/2-x,1/2+y,-z
1/2-x,1/2-y,1/2-z
1/2+x,1/2+y,1/2-z
1/2-x,1/2+y,z
1/2+x,1/2-y,z
loop_
_atom_site_type_symbol
_atom_site_label
_atom_site_fract_x
_atom_site_fract_y
_atom_site_fract_z
Si Si1 0.167032 0.890973 0.163216
Si Si2 0.041613 0.678808 0.000000
Si Si3 0.828053 0.502898 0.096374
Si Si4 0.358393 0.116980 0.186254
Si Si5 0.184640 0.809764 0.000000
Si Si6 0.500000 0.500000 0.750000
O O1 0.299448 0.928484 0.120011
O O2 0.224964 0.857978 0.253040
O O3 0.123202 0.844092 0.087893
O O4 0.069768 0.949727 0.183573
O O5 0.098883 0.645111 0.090470
O O6 0.122349 0.742921 0.000000
O O7 0.863884 0.686892 0.000000
O O8 0.799395 0.451053 0.168356
O O9 0.000000 0.500000 0.088282
O O10 0.758258 0.488758 0.000000
O O11 0.500000 0.118680 0.250000
#
# Coordination Sequence:
#
# PCOD9528992 Si02
#       6
#    16   8  16  16   8   4
#     4  12  25  44  69 105 149 185 229 293 366 443
#     4  12  28  49  73 107 139 198 253 304 351 407
#     4  11  19  34  68 106 137 172 216 286 360 425
#     4  12  22  41  73 102 139 179 240 288 348 427
#     4  12  28  52  73 102 144 192 254 304 353 421
#     4  12  28  42  66 112 152 190 224 280 398 440
#
# _framework density 22.382359000000001
#
# number of rings (size 3 to 8) (size 9 to 14) (size 15 to 20)
#    0.000    0.235    9.412    0.000    0.000    3.294 
#    2.118    0.000    0.000    0.000    0.000    0.000 
#    0.000    0.000    0.000    0.000    0.000    0.000 
#
# Total GULP energy -189456.414842 kJ/mol
# GULP energy per Si atom -5572.247495 kJ/mol
# Density = 2.233142 g / cm^3
# Si number density = 22.382359 Si / 1000 Ang^3
#
#
#
# Elastic Constant Matrix: (Units=GPa)
#
#
# Indices 1 2 3 4 5 6 
#
# 1 25.9060 24.0704 18.1636 0.0000 0.0000 0.0000
# 2 24.0704 129.9694 62.9136 0.0000 0.0000 0.0000
# 3 18.1636 62.9136 172.2315 -0.0001 0.0001 0.0000
# 4 0.0000 0.0000 -0.0001 24.7676 0.0000 0.0000
# 5 0.0000 0.0000 0.0001 0.0000 19.9842 0.0000
# 6 0.0000 0.0000 0.0000 0.0000 0.0000 33.9601
#
#
#
# Elastic Compliance Matrix: (Units=1/GPa)
#
#
# Indices 1 2 3 4 5 6 
#
# 1 0.047284 -0.007706 -0.002172 0.000000 0.000000 0.000000
# 2 -0.007706 0.010603 -0.003060 0.000000 0.000000 0.000000
# 3 -0.002172 -0.003060 0.007153 0.000000 0.000000 0.000000
# 4 0.000000 0.000000 0.000000 0.040375 0.000000 0.000000
# 5 0.000000 0.000000 0.000000 0.000000 0.050039 0.000000
# 6 0.000000 0.000000 0.000000 0.000000 0.000000 0.029446
#
#
# Mechanical properties :
#
#
# Convention : Reuss Voigt Hill
#
# Bulk Modulus (GPa) = 25.53388 59.82245 42.67817
# Shear Modulus (GPa) = 22.33836 30.60636 26.47236
#
# Velocity S-wave (km/s) = 3.16259 3.70189 3.44282
# Velocity P-wave (km/s) = 4.97683 6.71249 5.90874
#
# Compressibility (1/GPa) = 0.03916365
#
# Stress axis : x y z
#
# Youngs Moduli (GPa) = 21.14902 94.31638 139.80018
#
# Poissons Ratio (x) = 0.72677 0.30362
# Poissons Ratio (y) = 0.16297 0.42783
# Poissons Ratio (z) = 0.04593 0.28864
#
# Static dielectric constant tensor:
#      x y z
#    x 2.102550 0.000000 0.000000 
#    y 0.000000 1.799410 0.000000 
#    z 0.000000 0.000000 2.068070 
# 
# From -- ./inp_files/19996.got.cif
#   From: 2010.05.17/outbox.cif.g08.bks.cpg/sg72_10_cif.got.tgz:19996.got - 2010.06.03 17:03:01.
