data_PCOD9528748
_publ_section_title
;
Structure prediction by ZEFSAII (Michael W. Deem and Ramdas Pophale) SiO2 
 PCOD9528748
Probable space group: I B A M
;
_chemical_formula_sum "Si O2"
_cell_formula_units_Z 80
_cell_length_a 24.387989
_cell_length_b 9.703235
_cell_length_c 14.492710
_cell_angle_alpha 90.000000
_cell_angle_beta 90.000000
_cell_angle_gamma 90.000000
_cell_volume 3429.589509
_symmetry_space_group_name_H-M "I B A M"
_symmetry_group_IT_number 72
_symmetry_cell_setting 'orthorhombic'
loop_
_space_group_symop_operation_xyz
x,y,z
-x,-y,z
x,-y,1/2-z
-x,y,1/2-z
-x,-y,-z
x,y,-z
-x,y,1/2+z
x,-y,1/2+z
1/2+x,1/2+y,1/2+z
1/2-x,1/2-y,1/2+z
1/2+x,1/2-y,-z
1/2-x,1/2+y,-z
1/2-x,1/2-y,1/2-z
1/2+x,1/2+y,1/2-z
1/2-x,1/2+y,z
1/2+x,1/2-y,z
loop_
_atom_site_type_symbol
_atom_site_label
_atom_site_fract_x
_atom_site_fract_y
_atom_site_fract_z
Si Si1 0.185819 0.918817 0.100240
Si Si2 0.772917 0.787568 0.850124
Si Si3 0.417944 0.092678 0.897359
Si Si4 0.536689 0.219389 0.103390
Si Si5 0.879257 0.229554 0.256386
O O1 0.229629 0.796216 0.091880
O O2 0.143983 0.883367 0.183418
O O3 0.221587 0.052861 0.125823
O O4 0.158976 0.940691 0.000000
O O5 0.750000 0.750000 0.750000
O O6 0.836233 0.744477 0.839464
O O7 0.471789 0.190769 0.890043
O O8 0.382346 0.138948 0.811223
O O9 0.438232 0.935988 0.891172
O O10 0.393654 0.113041 0.000000
O O11 0.564544 0.297649 0.188601
O O12 0.548187 0.274164 0.000000
#
# Coordination Sequence:
#
# PCOD9528748 Si02
#       5
#    16  16  16  16  16
#     4  11  24  43  65  89 121 162 204 253 310 370
#     4  10  23  42  61  87 121 159 202 252 306 365
#     4   9  18  34  54  84 125 165 206 253 305 362
#     4   9  19  33  53  85 126 166 205 253 306 360
#     4  11  20  33  57  88 117 152 197 249 305 363
#
# _framework density 23.326405000000001
#
# number of rings (size 3 to 8) (size 9 to 14) (size 15 to 20)
#    0.000    2.000    0.000    6.000    0.000    9.600 
#    0.000    4.000    0.000    9.600    0.000   16.800 
#    0.000    0.000    0.000    0.000    0.000    0.000 
#
# Total GULP energy -223066.676162 kJ/mol
# GULP energy per Si atom -5576.666904 kJ/mol
# Density = 2.327331 g / cm^3
# Si number density = 23.326405 Si / 1000 Ang^3
#
#
#
# Elastic Constant Matrix: (Units=GPa)
#
#
# Indices 1 2 3 4 5 6 
#
# 1 40.5841 22.7844 20.7177 0.0000 0.0000 0.0000
# 2 22.7844 78.8474 42.1063 0.0000 0.0000 0.0000
# 3 20.7177 42.1063 155.4155 0.0000 0.0000 0.0000
# 4 0.0000 0.0000 0.0000 -463.2064 0.0000 0.0000
# 5 0.0000 0.0000 0.0000 0.0000 19.4769 0.0000
# 6 0.0000 0.0000 0.0000 0.0000 0.0000 36.1550
#
#
#
# Elastic Compliance Matrix: (Units=1/GPa)
#
#
# Indices 1 2 3 4 5 6 
#
# 1 0.029895 -0.007612 -0.001923 0.000000 0.000000 0.000000
# 2 -0.007612 0.016766 -0.003528 0.000000 0.000000 0.000000
# 3 -0.001923 -0.003528 0.007646 0.000000 0.000000 0.000000
# 4 0.000000 0.000000 0.000000 -0.002159 0.000000 0.000000
# 5 0.000000 0.000000 0.000000 0.000000 0.051343 0.000000
# 6 0.000000 0.000000 0.000000 0.000000 0.000000 0.027659
#
#
# Mechanical properties :
#
#
# Convention : Reuss Voigt Hill
#
# Bulk Modulus (GPa) = 35.48262 49.56267 42.52265
# Shear Modulus (GPa) = 29.99939 -68.89900 -19.44980
#
# Velocity S-wave (km/s) = 3.59007 -5.44068 -2.89071
# Velocity P-wave (km/s) = 5.69466 4.26315 2.66971
#
# Compressibility (1/GPa) = 0.02818281
#
# Stress axis : x y z
#
# Youngs Moduli (GPa) = 33.45016 59.64373 130.77956
#
# Poissons Ratio (x) = 0.45400 0.25148
# Poissons Ratio (y) = 0.25462 0.46135
# Poissons Ratio (z) = 0.06432 0.21041
#
# Static dielectric constant tensor:
#      x y z
#    x 1.985400 0.000000 0.000000 
#    y 0.000000 1.900990 0.000000 
#    z 0.000000 0.000000 1.715690 
# 
# From -- ./inp_files/20178.got.cif
#   From: 2010.05.17/outbox.cif.g08.bks.cpg/sg72_11_cif.got.tgz:20178.got - 2010.06.03 17:03:01.
