data_PCOD9528976
_publ_section_title
;
Structure prediction by ZEFSAII (Michael W. Deem and Ramdas Pophale) SiO2 
 PCOD9528976
Probable space group: I B A M
;
_chemical_formula_sum "Si O2"
_cell_formula_units_Z 96
_cell_length_a 11.952307
_cell_length_b 17.926303
_cell_length_c 22.753069
_cell_angle_alpha 90.000000
_cell_angle_beta 90.000000
_cell_angle_gamma 90.000000
_cell_volume 4875.087964
_symmetry_space_group_name_H-M "I B A M"
_symmetry_group_IT_number 72
_symmetry_cell_setting 'orthorhombic'
loop_
_space_group_symop_operation_xyz
x,y,z
-x,-y,z
x,-y,1/2-z
-x,y,1/2-z
-x,-y,-z
x,y,-z
-x,y,1/2+z
x,-y,1/2+z
1/2+x,1/2+y,1/2+z
1/2-x,1/2-y,1/2+z
1/2+x,1/2-y,-z
1/2-x,1/2+y,-z
1/2-x,1/2-y,1/2-z
1/2+x,1/2+y,1/2-z
1/2-x,1/2+y,z
1/2+x,1/2-y,z
loop_
_atom_site_type_symbol
_atom_site_label
_atom_site_fract_x
_atom_site_fract_y
_atom_site_fract_z
Si Si1 0.697138 0.645317 0.168528
Si Si2 0.718786 0.786076 0.000000
Si Si3 0.556985 0.183279 0.187179
Si Si4 0.337356 0.183044 0.872521
Si Si5 0.132617 0.856134 0.698502
Si Si6 0.025103 0.799664 0.500000
Si Si7 0.485954 0.581013 0.400174
O O1 0.828814 0.639436 0.177722
O O2 0.674507 0.729714 0.145982
O O3 0.638919 0.634067 0.231801
O O4 0.641181 0.593439 0.120312
O O5 0.706542 0.828120 0.061861
O O6 0.599284 0.739231 0.000000
O O7 0.851404 0.758197 0.000000
O O8 0.500000 0.168426 0.250000
O O9 0.466782 0.166010 0.137244
O O10 0.588339 0.271523 0.187258
O O11 0.257942 0.140894 0.826960
O O12 0.058911 0.910800 0.659256
O O13 0.022876 0.853001 0.556849
O O14 0.500000 0.500000 0.426830
#
# Coordination Sequence:
#
# PCOD9528976 Si02
#       7
#    16   8  16  16  16   8  16
#     4  11  21  33  56  90 123 157 201 250 309 372
#     4  12  24  38  66  92 128 152 194 262 316 372
#     4  11  17  32  57  90 122 153 187 253 330 364
#     4  11  20  34  56  89 123 152 190 256 324 366
#     4  11  19  34  56  87 124 153 198 244 308 371
#     4  12  25  46  64 100 123 156 204 262 322 366
#     4  12  25  41  60  85 125 170 210 247 288 364
#
# _framework density 19.691951
#
# number of rings (size 3 to 8) (size 9 to 14) (size 15 to 20)
#    0.000    0.667    8.333    1.750    2.333    1.333 
#    0.000    0.000    0.000    1.000    0.000    2.333 
#    0.000    0.000    0.000    0.000    0.000    0.000 
#
# Total GULP energy -267765.238772 kJ/mol
# GULP energy per Si atom -5578.442474 kJ/mol
# Density = 1.964713 g / cm^3
# Si number density = 19.691951 Si / 1000 Ang^3
#
#
#
# Elastic Constant Matrix: (Units=GPa)
#
#
# Indices 1 2 3 4 5 6 
#
# 1 157.3589 19.4000 20.7321 0.0000 0.0000 0.0000
# 2 19.4000 21.7660 -1.7406 0.0000 0.0000 0.0000
# 3 20.7321 -1.7406 97.0956 0.0000 0.0000 0.0000
# 4 0.0000 0.0000 0.0000 0.4726 0.0000 0.0000
# 5 0.0000 0.0000 0.0000 0.0000 29.3802 0.0000
# 6 0.0000 0.0000 0.0000 0.0000 0.0000 14.0739
#
#
#
# Elastic Compliance Matrix: (Units=1/GPa)
#
#
# Indices 1 2 3 4 5 6 
#
# 1 0.007410 -0.006741 -0.001703 0.000000 0.000000 0.000000
# 2 -0.006741 0.052141 0.002374 0.000000 0.000000 0.000000
# 3 -0.001703 0.002374 0.010705 0.000000 0.000000 0.000000
# 4 0.000000 0.000000 0.000000 2.115889 0.000000 0.000000
# 5 0.000000 0.000000 0.000000 0.000000 0.034036 0.000000
# 6 0.000000 0.000000 0.000000 0.000000 0.000000 0.071053
#
#
# Mechanical properties :
#
#
# Convention : Reuss Voigt Hill
#
# Bulk Modulus (GPa) = 17.20673 39.22262 28.21467
# Shear Modulus (GPa) = 2.15262 24.64062 13.39662
#
# Velocity S-wave (km/s) = 1.04667 3.54122 2.61110
# Velocity P-wave (km/s) = 3.19650 6.05653 4.84248
#
# Compressibility (1/GPa) = 0.05811681
#
# Stress axis : x y z
#
# Youngs Moduli (GPa) = 134.94632 19.17868 93.41127
#
# Poissons Ratio (x) = 0.12928 0.15909
# Poissons Ratio (y) = 0.90968 -0.22177
# Poissons Ratio (z) = 0.22983 -0.04553
#
# Static dielectric constant tensor:
#      x y z
#    x 1.756400 0.000000 0.000000 
#    y 0.000000 1.677230 0.000000 
#    z 0.000000 0.000000 1.701110 
# 
# From -- ./inp_files/43374.got.cif
#   From: 2010.05.17/outbox.cif.g08.bks.cpg/sg72_22_cif.got.tgz:43374.got - 2010.06.03 17:03:01.
