data_PCOD9528118
_publ_section_title
;
Structure prediction by ZEFSAII (Michael W. Deem and Ramdas Pophale) SiO2 
 PCOD9528118
Probable space group: I B A M
;
_chemical_formula_sum "Si O2"
_cell_formula_units_Z 68
_cell_length_a 22.589438
_cell_length_b 17.198567
_cell_length_c 8.336009
_cell_angle_alpha 90.000000
_cell_angle_beta 90.000000
_cell_angle_gamma 90.000000
_cell_volume 3238.589204
_symmetry_space_group_name_H-M "I B A M"
_symmetry_group_IT_number 72
_symmetry_cell_setting 'orthorhombic'
loop_
_space_group_symop_operation_xyz
x,y,z
-x,-y,z
x,-y,1/2-z
-x,y,1/2-z
-x,-y,-z
x,y,-z
-x,y,1/2+z
x,-y,1/2+z
1/2+x,1/2+y,1/2+z
1/2-x,1/2-y,1/2+z
1/2+x,1/2-y,-z
1/2-x,1/2+y,-z
1/2-x,1/2-y,1/2-z
1/2+x,1/2+y,1/2-z
1/2-x,1/2+y,z
1/2+x,1/2-y,z
loop_
_atom_site_type_symbol
_atom_site_label
_atom_site_fract_x
_atom_site_fract_y
_atom_site_fract_z
Si Si1 0.661276 0.918032 0.811743
Si Si2 0.774638 0.834337 0.805589
Si Si3 0.000000 0.000000 0.750000
Si Si4 0.062645 0.306590 0.188295
Si Si5 0.409483 0.627562 0.193728
O O1 0.725670 0.895321 0.745288
O O2 0.616367 0.849364 0.772970
O O3 0.638788 0.000000 0.750000
O O4 0.667850 0.924484 0.000000
O O5 0.750000 0.750000 0.750000
O O6 0.840425 0.862566 0.759129
O O7 0.775911 0.830840 0.000000
O O8 0.949334 0.933978 0.708440
O O9 0.066025 0.214420 0.215269
O O10 0.000000 0.336484 0.250000
O O11 0.068576 0.320514 0.000000
O O12 0.414001 0.607894 0.000000
#
# Coordination Sequence:
#
# PCOD9528118 Si02
#       5
#    16  16   4  16  16
#     4  11  24  41  64  95 129 167 214 269 329 390
#     4  10  21  40  64  92 125 166 216 266 322 384
#     4  12  22  40  64  94 134 176 220 260 322 400
#     4  11  22  41  66  92 127 167 213 264 320 385
#     4  10  22  39  60  90 129 170 213 263 319 382
#
# _framework density 20.996794999999999
#
# number of rings (size 3 to 8) (size 9 to 14) (size 15 to 20)
#    0.000    1.412    3.529    1.765    1.647    1.412 
#    0.000    4.706    0.000    0.000    0.000    0.000 
#    0.000    0.000    0.000    0.000    0.000    0.000 
#
# Total GULP energy -189455.177077 kJ/mol
# GULP energy per Si atom -5572.211091 kJ/mol
# Density = 2.094901 g / cm^3
# Si number density = 20.996795 Si / 1000 Ang^3
#
#
#
# Elastic Constant Matrix: (Units=GPa)
#
#
# Indices 1 2 3 4 5 6 
#
# 1 144.8792 6.3888 7.6303 0.0000 0.0000 0.0000
# 2 6.3888 64.8142 18.4691 0.0000 0.0000 0.0000
# 3 7.6303 18.4691 9.9681 0.0000 0.0000 0.0000
# 4 0.0000 0.0000 0.0000 4.3781 0.0000 0.0000
# 5 0.0000 0.0000 0.0000 0.0000 5.9845 0.0000
# 6 0.0000 0.0000 0.0000 0.0000 0.0000 40.3046
#
#
#
# Elastic Compliance Matrix: (Units=1/GPa)
#
#
# Indices 1 2 3 4 5 6 
#
# 1 0.007295 0.001848 -0.009008 0.000000 0.000000 0.000000
# 2 0.001848 0.033154 -0.062844 0.000000 0.000000 0.000000
# 3 -0.009008 -0.062844 0.223654 0.000000 0.000000 0.000000
# 4 0.000000 0.000000 0.000000 0.228408 0.000000 0.000000
# 5 0.000000 0.000000 0.000000 0.000000 0.167099 0.000000
# 6 0.000000 0.000000 0.000000 0.000000 0.000000 0.024811
#
#
# Mechanical properties :
#
#
# Convention : Reuss Voigt Hill
#
# Bulk Modulus (GPa) = 8.05825 31.62645 19.84235
# Shear Modulus (GPa) = 5.77504 22.61165 14.19334
#
# Velocity S-wave (km/s) = 1.66024 3.28519 2.60278
# Velocity P-wave (km/s) = 2.74252 5.43003 4.30154
#
# Compressibility (1/GPa) = 0.12409639
#
# Stress axis : x y z
#
# Youngs Moduli (GPa) = 137.07566 30.16211 4.47118
#
# Poissons Ratio (x) = -0.05573 0.04028
# Poissons Ratio (y) = -0.25328 0.28099
# Poissons Ratio (z) = 1.23477 1.89549
#
# Static dielectric constant tensor:
#      x y z
#    x 1.771050 0.000000 0.000000 
#    y 0.000000 1.741650 0.000000 
#    z 0.000000 0.000000 1.760520 
# 
# From -- ./inp_files/4404.got.cif
#   From: 2010.05.17/outbox.cif.g08.bks.cpg/sg72_3_cif.got.tgz:4404.got - 2010.06.03 17:03:01.
