data_PCOD9528032
_publ_section_title
;
Structure prediction by ZEFSAII (Michael W. Deem and Ramdas Pophale) SiO2 
 PCOD9528032
Probable space group: I B A M
;
_chemical_formula_sum "Si O2"
_cell_formula_units_Z 96
_cell_length_a 11.023643
_cell_length_b 14.264246
_cell_length_c 25.001921
_cell_angle_alpha 90.000000
_cell_angle_beta 90.000000
_cell_angle_gamma 90.000000
_cell_volume 3931.400955
_symmetry_space_group_name_H-M "I B A M"
_symmetry_group_IT_number 72
_symmetry_cell_setting 'orthorhombic'
loop_
_space_group_symop_operation_xyz
x,y,z
-x,-y,z
x,-y,1/2-z
-x,y,1/2-z
-x,-y,-z
x,y,-z
-x,y,1/2+z
x,-y,1/2+z
1/2+x,1/2+y,1/2+z
1/2-x,1/2-y,1/2+z
1/2+x,1/2-y,-z
1/2-x,1/2+y,-z
1/2-x,1/2-y,1/2-z
1/2+x,1/2+y,1/2-z
1/2-x,1/2+y,z
1/2+x,1/2-y,z
loop_
_atom_site_type_symbol
_atom_site_label
_atom_site_fract_x
_atom_site_fract_y
_atom_site_fract_z
Si Si1 0.817167 0.623134 0.764172
Si Si2 0.208571 0.247063 0.939113
Si Si3 0.534162 0.195563 0.610411
Si Si4 0.670437 0.019065 0.655827
Si Si5 0.640674 0.472559 0.062540
Si Si6 0.421685 0.307217 0.789941
O O1 0.891381 0.560546 0.806026
O O2 0.777009 0.578059 0.707411
O O3 0.701878 0.641795 0.801233
O O4 0.878606 0.718613 0.746242
O O5 0.345424 0.242461 0.916246
O O6 0.157795 0.140196 0.935421
O O7 0.096496 0.308475 0.917247
O O8 0.223817 0.274037 0.000000
O O9 0.583400 0.092939 0.625907
O O10 0.512927 0.265286 0.659836
O O11 0.768578 0.992579 0.609768
O O12 0.500000 0.500000 0.072638
O O13 0.668910 0.500107 0.000000
O O14 0.500000 0.368588 0.750000
#
# Coordination Sequence:
#
# PCOD9528032 Si02
#       6
#    16  16  16  16  16  16
#     4   9  20  37  56  86 124 165 210 259 328 390
#     4  10  21  39  63  92 126 172 225 276 327 392
#     4  10  22  37  63  92 128 169 220 275 334 385
#     4   9  19  37  57  85 126 165 214 263 326 394
#     4   9  19  33  54  86 122 161 210 271 332 380
#     4  10  22  35  60  89 125 165 210 266 326 401
#
# _framework density 24.418776000000001
#
# number of rings (size 3 to 8) (size 9 to 14) (size 15 to 20)
#    0.000    2.500    0.000    0.500   11.667    0.667 
#    0.000    8.333    0.000    0.000    0.000    1.167 
#    0.000    0.000    0.000    0.000    0.000    0.000 
#
# Total GULP energy -267536.346104 kJ/mol
# GULP energy per Si atom -5573.673877 kJ/mol
# Density = 2.436320 g / cm^3
# Si number density = 24.418776 Si / 1000 Ang^3
#
#
#
# Elastic Constant Matrix: (Units=GPa)
#
#
# Indices 1 2 3 4 5 6 
#
# 1 128.5337 24.7577 78.2035 0.0000 0.0000 0.0000
# 2 24.7577 38.5183 26.0450 0.0000 0.0000 0.0000
# 3 78.2035 26.0450 168.8207 0.0000 0.0000 0.0000
# 4 0.0000 0.0000 0.0000 21.5107 0.0000 0.0000
# 5 0.0000 0.0000 0.0000 0.0000 43.8219 0.0000
# 6 0.0000 0.0000 0.0000 0.0000 0.0000 27.1728
#
#
#
# Elastic Compliance Matrix: (Units=1/GPa)
#
#
# Indices 1 2 3 4 5 6 
#
# 1 0.011411 -0.004198 -0.004638 0.000000 0.000000 0.000000
# 2 -0.004198 0.030530 -0.002765 0.000000 0.000000 0.000000
# 3 -0.004638 -0.002765 0.008499 0.000000 0.000000 0.000000
# 4 0.000000 0.000000 0.000000 0.046489 0.000000 0.000000
# 5 0.000000 0.000000 0.000000 0.000000 0.022820 0.000000
# 6 0.000000 0.000000 0.000000 0.000000 0.000000 0.036801
#
#
# Mechanical properties :
#
#
# Convention : Reuss Voigt Hill
#
# Bulk Modulus (GPa) = 36.71604 65.98724 51.35164
# Shear Modulus (GPa) = 26.47877 32.29218 29.38547
#
# Velocity S-wave (km/s) = 3.29654 3.64047 3.47276
# Velocity P-wave (km/s) = 5.43674 6.68973 6.09552
#
# Compressibility (1/GPa) = 0.02723605
#
# Stress axis : x y z
#
# Youngs Moduli (GPa) = 87.63742 32.75485 117.66618
#
# Poissons Ratio (x) = 0.13751 0.54575
# Poissons Ratio (y) = 0.36790 0.32539
# Poissons Ratio (z) = 0.40648 0.09058
#
# Static dielectric constant tensor:
#      x y z
#    x 2.160430 0.000000 0.000000 
#    y 0.000000 2.090580 0.000000 
#    z 0.000000 0.000000 1.944360 
# 
# From -- ./inp_files/48104.got.cif
#   From: 2010.05.17/outbox.cif.g08.bks.cpg/sg72_25_cif.got.tgz:48104.got - 2010.06.03 17:03:01.
