data_PCOD9528594
_publ_section_title
;
Structure prediction by ZEFSAII (Michael W. Deem and Ramdas Pophale) SiO2 
 PCOD9528594
Probable space group: I B A M
;
_chemical_formula_sum "Si O2"
_cell_formula_units_Z 60
_cell_length_a 4.884318
_cell_length_b 21.296624
_cell_length_c 20.701784
_cell_angle_alpha 90.000000
_cell_angle_beta 90.000000
_cell_angle_gamma 90.000000
_cell_volume 2153.388888
_symmetry_space_group_name_H-M "I B A M"
_symmetry_group_IT_number 72
_symmetry_cell_setting 'orthorhombic'
loop_
_space_group_symop_operation_xyz
x,y,z
-x,-y,z
x,-y,1/2-z
-x,y,1/2-z
-x,-y,-z
x,y,-z
-x,y,1/2+z
x,-y,1/2+z
1/2+x,1/2+y,1/2+z
1/2-x,1/2-y,1/2+z
1/2+x,1/2-y,-z
1/2-x,1/2+y,-z
1/2-x,1/2-y,1/2-z
1/2+x,1/2+y,1/2-z
1/2-x,1/2+y,z
1/2+x,1/2-y,z
loop_
_atom_site_type_symbol
_atom_site_label
_atom_site_fract_x
_atom_site_fract_y
_atom_site_fract_z
Si Si1 0.384059 0.082169 0.500000
Si Si2 0.230968 0.169347 0.862883
Si Si3 0.750000 0.750000 0.250000
Si Si4 0.500000 0.000000 0.750000
Si Si5 0.741262 0.081880 0.137848
Si Si6 0.387246 0.330111 0.500000
O O1 0.305274 0.050378 0.432296
O O2 0.693465 0.107331 0.500000
O O3 0.195110 0.145063 0.500000
O O4 0.081166 0.213716 0.808318
O O5 0.537099 0.142164 0.864286
O O6 0.178918 0.201705 0.932112
O O7 0.047825 0.107009 0.859196
O O8 0.500000 0.801348 0.250000
O O9 0.325136 0.957998 0.799353
#
# Coordination Sequence:
#
# PCOD9528594 Si02
#       6
#     8  16   8   4  16   8
#     4   8  16  37  62  91 120 169 211 268 327 370
#     4  10  22  43  66  93 130 171 214 273 320 387
#     4  12  26  40  64 100 126 176 216 256 336 398
#     4  12  28  40  64 106 128 180 216 266 344 402
#     4  10  23  40  66  94 133 167 219 272 321 388
#     4   8  16  36  66  90 118 165 219 263 320 371
#
# _framework density 27.863057000000001
#
# number of rings (size 3 to 8) (size 9 to 14) (size 15 to 20)
#    0.000    2.133    0.000    1.600    5.600    2.667 
#    0.000    1.333    0.000    9.600    0.000    0.000 
#    0.000    0.000    0.000    0.000    0.000    0.000 
#
# Total GULP energy -167235.181151 kJ/mol
# GULP energy per Si atom -5574.506038 kJ/mol
# Density = 2.779964 g / cm^3
# Si number density = 27.863057 Si / 1000 Ang^3
#
#
#
# Elastic Constant Matrix: (Units=GPa)
#
#
# Indices 1 2 3 4 5 6 
#
# 1 124.9976 6.2094 -9.7839 0.0000 0.0000 0.0000
# 2 6.2094 45.7606 39.0267 0.0000 0.0000 0.0000
# 3 -9.7839 39.0267 264.8605 0.0000 0.0000 0.0000
# 4 0.0000 0.0000 0.0000 -91.8483 0.0000 0.0000
# 5 0.0000 0.0000 0.0000 0.0000 19.4741 0.0000
# 6 0.0000 0.0000 0.0000 0.0000 0.0000 18.9689
#
#
#
# Elastic Compliance Matrix: (Units=1/GPa)
#
#
# Indices 1 2 3 4 5 6 
#
# 1 0.008119 -0.001553 0.000529 0.000000 0.000000 0.000000
# 2 -0.001553 0.025291 -0.003784 0.000000 0.000000 0.000000
# 3 0.000529 -0.003784 0.004353 0.000000 0.000000 0.000000
# 4 0.000000 0.000000 0.000000 -0.010888 0.000000 0.000000
# 5 0.000000 0.000000 0.000000 0.000000 0.051350 0.000000
# 6 0.000000 0.000000 0.000000 0.000000 0.000000 0.052718
#
#
# Mechanical properties :
#
#
# Convention : Reuss Voigt Hill
#
# Bulk Modulus (GPa) = 35.52845 56.28033 45.90439
# Shear Modulus (GPa) = 33.34669 15.99673 24.67171
#
# Velocity S-wave (km/s) = 3.46324 2.39868 2.97890
# Velocity P-wave (km/s) = 5.36385 5.28340 5.32377
#
# Compressibility (1/GPa) = 0.02814646
#
# Stress axis : x y z
#
# Youngs Moduli (GPa) = 123.17304 39.54038 229.74523
#
# Poissons Ratio (x) = 0.06139 -0.12146
# Poissons Ratio (y) = 0.19123 0.86933
# Poissons Ratio (z) = -0.06512 0.14962
#
# Static dielectric constant tensor:
#      x y z
#    x 2.520640 0.000000 0.000000 
#    y 0.000000 1.984360 0.000000 
#    z 0.000000 0.000000 9.410680 
# 
# From -- ./inp_files/34738.got.cif
#   From: 2010.05.17/outbox.cif.g08.bks.cpg/sg72_18_cif.got.tgz:34738.got - 2010.06.03 17:03:01.
