data_PCOD9528195
_publ_section_title
;
Structure prediction by ZEFSAII (Michael W. Deem and Ramdas Pophale) SiO2 
 PCOD9528195
Probable space group: I B A M
;
_chemical_formula_sum "Si O2"
_cell_formula_units_Z 96
_cell_length_a 15.910406
_cell_length_b 18.541137
_cell_length_c 17.459071
_cell_angle_alpha 90.000000
_cell_angle_beta 90.000000
_cell_angle_gamma 90.000000
_cell_volume 5150.373871
_symmetry_space_group_name_H-M "I B A M"
_symmetry_group_IT_number 72
_symmetry_cell_setting 'orthorhombic'
loop_
_space_group_symop_operation_xyz
x,y,z
-x,-y,z
x,-y,1/2-z
-x,y,1/2-z
-x,-y,-z
x,y,-z
-x,y,1/2+z
x,-y,1/2+z
1/2+x,1/2+y,1/2+z
1/2-x,1/2-y,1/2+z
1/2+x,1/2-y,-z
1/2-x,1/2+y,-z
1/2-x,1/2-y,1/2-z
1/2+x,1/2+y,1/2-z
1/2-x,1/2+y,z
1/2+x,1/2-y,z
loop_
_atom_site_type_symbol
_atom_site_label
_atom_site_fract_x
_atom_site_fract_y
_atom_site_fract_z
Si Si1 0.097494 0.080188 0.274121
Si Si2 0.695016 0.706675 0.687907
Si Si3 0.298688 0.903779 0.591552
Si Si4 0.788385 0.058599 0.090426
Si Si5 0.517883 0.084897 0.337133
Si Si6 0.366861 0.833892 0.910268
O O1 0.144029 0.144607 0.231246
O O2 0.129216 0.080932 0.361890
O O3 0.000000 0.085168 0.250000
O O4 0.125808 0.000000 0.250000
O O5 0.750000 0.750000 0.750000
O O6 0.750204 0.664861 0.624864
O O7 0.638815 0.764199 0.642965
O O8 0.311303 0.899725 0.500000
O O9 0.387183 0.905381 0.635422
O O10 0.246566 0.977794 0.606786
O O11 0.711884 0.113454 0.108800
O O12 0.804791 0.062467 0.000000
O O13 0.500000 0.109711 0.250000
O O14 0.452472 0.124325 0.392340
O O15 0.500000 0.000000 0.339658
O O16 0.361365 0.815983 0.000000
#
# Coordination Sequence:
#
# PCOD9528195 Si02
#       6
#    16  16  16  16  16  16
#     4  11  24  44  68  93 122 168 222 273 317 378
#     4  12  24  40  66  92 130 171 214 268 330 394
#     4  11  23  40  64  94 129 171 218 265 323 392
#     4  10  21  41  69  95 126 166 214 266 320 383
#     4  11  23  37  63  98 131 169 215 270 320 383
#     4  11  23  41  63  94 132 169 209 262 328 389
#
# _framework density 18.639424000000002
#
# number of rings (size 3 to 8) (size 9 to 14) (size 15 to 20)
#    0.000    1.000    5.000    2.000    0.000    2.667 
#    0.000    3.333    0.000    0.000    0.000    0.000 
#    0.000    0.000    0.000    0.000    0.000    0.000 
#
# Total GULP energy -268029.154086 kJ/mol
# GULP energy per Si atom -5583.940710 kJ/mol
# Density = 1.859700 g / cm^3
# Si number density = 18.639424 Si / 1000 Ang^3
#
#
#
# Elastic Constant Matrix: (Units=GPa)
#
#
# Indices 1 2 3 4 5 6 
#
# 1 91.7958 29.6906 51.8053 0.0000 0.0000 0.0000
# 2 29.6906 106.8951 42.7081 0.0000 0.0000 0.0000
# 3 51.8053 42.7081 98.5639 0.0000 -0.0001 0.0000
# 4 0.0000 0.0000 0.0000 34.1197 0.0000 0.0000
# 5 0.0000 0.0000 -0.0001 0.0000 -86.3327 0.0000
# 6 0.0000 0.0000 0.0000 0.0000 0.0000 26.9917
#
#
#
# Elastic Compliance Matrix: (Units=1/GPa)
#
#
# Indices 1 2 3 4 5 6 
#
# 1 0.015632 -0.001281 -0.007661 0.000000 0.000000 0.000000
# 2 -0.001281 0.011419 -0.004274 0.000000 0.000000 0.000000
# 3 -0.007661 -0.004274 0.016024 0.000000 0.000000 0.000000
# 4 0.000000 0.000000 0.000000 0.029309 0.000000 0.000000
# 5 0.000000 0.000000 0.000000 0.000000 -0.011583 0.000000
# 6 0.000000 0.000000 0.000000 0.000000 0.000000 0.037048
#
#
# Mechanical properties :
#
#
# Convention : Reuss Voigt Hill
#
# Bulk Modulus (GPa) = 60.08928 60.62920 60.35924
# Shear Modulus (GPa) = 38.51245 6.49247 22.50246
#
# Velocity S-wave (km/s) = 4.55046 1.86836 3.47832
# Velocity P-wave (km/s) = 7.74058 6.10347 6.97026
#
# Compressibility (1/GPa) = 0.01664190
#
# Stress axis : x y z
#
# Youngs Moduli (GPa) = 63.97328 87.57697 62.40484
#
# Poissons Ratio (x) = 0.11218 0.47808
# Poissons Ratio (y) = 0.08195 0.26674
# Poissons Ratio (z) = 0.49009 0.37434
#
# Static dielectric constant tensor:
#      x y z
#    x 1.631030 0.000000 0.000000 
#    y 0.000000 1.638430 0.000000 
#    z 0.000000 0.000000 1.671540 
# 
# From -- ./inp_files/21792.got.cif
#   From: 2010.05.17/outbox.cif.g08.bks.cpg/sg72_11_cif.got.tgz:21792.got - 2010.06.03 17:03:01.
