data_PCOD9528525
_publ_section_title
;
Structure prediction by ZEFSAII (Michael W. Deem and Ramdas Pophale) SiO2 
 PCOD9528525
Probable space group: I B A M
;
_chemical_formula_sum "Si O2"
_cell_formula_units_Z 96
_cell_length_a 20.254411
_cell_length_b 15.936114
_cell_length_c 15.100328
_cell_angle_alpha 90.000000
_cell_angle_beta 90.000000
_cell_angle_gamma 90.000000
_cell_volume 4874.032571
_symmetry_space_group_name_H-M "I B A M"
_symmetry_group_IT_number 72
_symmetry_cell_setting 'orthorhombic'
loop_
_space_group_symop_operation_xyz
x,y,z
-x,-y,z
x,-y,1/2-z
-x,y,1/2-z
-x,-y,-z
x,y,-z
-x,y,1/2+z
x,-y,1/2+z
1/2+x,1/2+y,1/2+z
1/2-x,1/2-y,1/2+z
1/2+x,1/2-y,-z
1/2-x,1/2+y,-z
1/2-x,1/2-y,1/2-z
1/2+x,1/2+y,1/2-z
1/2-x,1/2+y,z
1/2+x,1/2-y,z
loop_
_atom_site_type_symbol
_atom_site_label
_atom_site_fract_x
_atom_site_fract_y
_atom_site_fract_z
Si Si1 0.539990 0.692453 0.662239
Si Si2 0.332105 0.796512 0.163497
Si Si3 0.332584 0.500000 0.750000
Si Si4 0.240397 0.639720 0.162717
Si Si5 0.853974 0.594676 0.500000
Si Si6 0.078047 0.015087 0.099538
Si Si7 0.619800 0.899160 0.500000
Si Si8 0.515597 0.791446 0.000000
O O1 0.500000 0.669005 0.750000
O O2 0.595796 0.759974 0.684863
O O3 0.579523 0.613634 0.622161
O O4 0.493914 0.732268 0.586084
O O5 0.284402 0.719963 0.134491
O O6 0.301911 0.833804 0.252162
O O7 0.342147 0.863608 0.085882
O O8 0.288005 0.566832 0.800813
O O9 0.381190 0.534685 0.673388
O O10 0.192607 0.609839 0.084930
O O11 0.880762 0.499380 0.500000
O O12 0.915935 0.658503 0.500000
O O13 0.101395 0.998164 0.000000
O O14 0.000000 0.000000 0.104329
O O15 0.546925 0.856077 0.500000
#
# Coordination Sequence:
#
# PCOD9528525 Si02
#       8
#    16  16   8  16   8  16   8   8
#     4  11  20  39  68  89 128 169 214 273 330 387
#     4  10  22  42  60  93 123 170 217 257 326 398
#     4  12  23  40  66  94 129 176 216 250 328 388
#     4  11  24  39  63  92 132 171 216 264 319 397
#     4  12  24  43  63  93 131 165 221 281 328 382
#     4  11  24  41  62  96 133 167 213 270 322 384
#     4  10  22  41  69  87 124 166 216 279 337 387
#     4  10  23  40  65  98 120 167 223 272 342 389
#
# _framework density 19.696216
#
# number of rings (size 3 to 8) (size 9 to 14) (size 15 to 20)
#    0.000    1.167    2.500    4.000    1.167    0.000 
#    1.500    0.000    0.000    3.000    0.000    0.000 
#    0.000    0.000    0.000    0.000    0.000    0.000 
#
# Total GULP energy -268207.046682 kJ/mol
# GULP energy per Si atom -5587.646806 kJ/mol
# Density = 1.965139 g / cm^3
# Si number density = 19.696216 Si / 1000 Ang^3
#
#
#
# Elastic Constant Matrix: (Units=GPa)
#
#
# Indices 1 2 3 4 5 6 
#
# 1 82.1176 24.3796 60.6929 0.0000 0.0000 0.0000
# 2 24.3796 57.2396 23.7787 0.0000 0.0000 0.0000
# 3 60.6929 23.7787 114.2138 0.0000 0.0000 0.0000
# 4 0.0000 0.0000 0.0000 16.7742 0.0000 0.0000
# 5 0.0000 0.0000 0.0000 0.0000 -0.1772 0.0000
# 6 0.0000 0.0000 0.0000 0.0000 0.0000 34.8169
#
#
#
# Elastic Compliance Matrix: (Units=1/GPa)
#
#
# Indices 1 2 3 4 5 6 
#
# 1 0.021174 -0.004755 -0.010262 0.000000 0.000000 0.000000
# 2 -0.004755 0.020193 -0.001677 0.000000 0.000000 0.000000
# 3 -0.010262 -0.001677 0.014558 0.000000 0.000000 0.000000
# 4 0.000000 0.000000 0.000000 0.059615 0.000000 0.000000
# 5 0.000000 0.000000 0.000000 0.000000 -5.642462 0.000000
# 6 0.000000 0.000000 0.000000 0.000000 0.000000 0.028722
#
#
# Mechanical properties :
#
#
# Convention : Reuss Voigt Hill
#
# Bulk Modulus (GPa) = 44.37362 52.36370 48.36866
# Shear Modulus (GPa) = -0.91620 19.93077 9.50728
#
# Velocity S-wave (km/s) = -0.68277 3.18450 2.19942
# Velocity P-wave (km/s) = 4.68576 6.33757 5.57320
#
# Compressibility (1/GPa) = 0.02253591
#
# Stress axis : x y z
#
# Youngs Moduli (GPa) = 47.22800 49.52331 68.69227
#
# Poissons Ratio (x) = 0.23551 0.70490
# Poissons Ratio (y) = 0.22459 0.11519
# Poissons Ratio (z) = 0.48464 0.08305
#
# Static dielectric constant tensor:
#      x y z
#    x 1.713230 0.000000 0.000000 
#    y 0.000000 1.713070 0.000000 
#    z 0.000000 0.000000 1.667990 
# 
# From -- ./inp_files/21942.got.cif
#   From: 2010.05.17/outbox.cif.g08.bks.cpg/sg72_11_cif.got.tgz:21942.got - 2010.06.03 17:03:01.
