data_PCOD9528331
_publ_section_title
;
Structure prediction by ZEFSAII (Michael W. Deem and Ramdas Pophale) SiO2 
 PCOD9528331
Probable space group: I B A M
;
_chemical_formula_sum "Si O2"
_cell_formula_units_Z 72
_cell_length_a 14.848704
_cell_length_b 13.143851
_cell_length_c 16.715668
_cell_angle_alpha 90.000000
_cell_angle_beta 90.000000
_cell_angle_gamma 90.000000
_cell_volume 3262.382764
_symmetry_space_group_name_H-M "I B A M"
_symmetry_group_IT_number 72
_symmetry_cell_setting 'orthorhombic'
loop_
_space_group_symop_operation_xyz
x,y,z
-x,-y,z
x,-y,1/2-z
-x,y,1/2-z
-x,-y,-z
x,y,-z
-x,y,1/2+z
x,-y,1/2+z
1/2+x,1/2+y,1/2+z
1/2-x,1/2-y,1/2+z
1/2+x,1/2-y,-z
1/2-x,1/2+y,-z
1/2-x,1/2-y,1/2-z
1/2+x,1/2+y,1/2-z
1/2-x,1/2+y,z
1/2+x,1/2-y,z
loop_
_atom_site_type_symbol
_atom_site_label
_atom_site_fract_x
_atom_site_fract_y
_atom_site_fract_z
Si Si1 0.000000 0.000000 0.365370
Si Si2 0.539670 0.661284 0.500000
Si Si3 0.338115 0.266966 0.000000
Si Si4 0.500000 0.000000 0.866791
Si Si5 0.577489 0.870514 0.500000
Si Si6 0.162850 0.500000 0.750000
Si Si7 0.810511 0.923038 0.641575
Si Si8 0.768429 0.459793 0.000000
O O1 0.088535 0.052616 0.326823
O O2 0.963374 0.088960 0.423648
O O3 0.445787 0.722032 0.500000
O O4 0.609318 0.754169 0.500000
O O5 0.309969 0.327430 0.919015
O O6 0.307068 0.152024 0.000000
O O7 0.476594 0.903342 0.921235
O O8 0.589732 0.970443 0.817567
O O9 0.655954 0.953595 0.500000
O O10 0.232807 0.421308 0.791291
O O11 0.785623 0.015408 0.580815
#
# Coordination Sequence:
#
# PCOD9528331 Si02
#       8
#     8   8   8   8   8   8  16   8
#     4   9  20  41  58  90 124 168 208 270 300 366
#     4   9  18  34  66  94 122 151 215 272 321 353
#     4   9  20  37  62  93 126 157 218 270 310 376
#     4  10  22  38  62  90 138 156 198 274 326 382
#     4  11  20  36  70  95 115 167 210 260 321 371
#     4  11  22  41  60  88 134 171 202 259 328 404
#     4  10  22  39  63  87 124 171 208 259 321 369
#     4  11  20  37  64  99 123 157 221 272 308 380
#
# _framework density 22.069758
#
# number of rings (size 3 to 8) (size 9 to 14) (size 15 to 20)
#    0.000    2.000    2.222    3.333    0.000    4.000 
#    0.000    1.111    0.000    0.000    0.000    0.000 
#    0.000    0.000    0.000    0.000    0.000    0.000 
#
# Total GULP energy -200686.451285 kJ/mol
# GULP energy per Si atom -5574.623647 kJ/mol
# Density = 2.201953 g / cm^3
# Si number density = 22.069758 Si / 1000 Ang^3
#
#
#
# Elastic Constant Matrix: (Units=GPa)
#
#
# Indices 1 2 3 4 5 6 
#
# 1 154.5130 37.4989 33.9049 0.0000 0.0000 0.0000
# 2 37.4989 142.7860 15.4383 0.0000 0.0000 0.0000
# 3 33.9049 15.4383 76.5683 0.0000 0.0000 0.0000
# 4 0.0000 0.0000 0.0000 -47.4614 0.0000 0.0000
# 5 0.0000 0.0000 0.0000 0.0000 40.1860 0.0000
# 6 0.0000 0.0000 0.0000 0.0000 0.0000 26.0020
#
#
#
# Elastic Compliance Matrix: (Units=1/GPa)
#
#
# Indices 1 2 3 4 5 6 
#
# 1 0.007532 -0.001653 -0.003002 0.000000 0.000000 0.000000
# 2 -0.001653 0.007523 -0.000785 0.000000 0.000000 0.000000
# 3 -0.003002 -0.000785 0.014548 0.000000 0.000000 0.000000
# 4 0.000000 0.000000 0.000000 -0.021070 0.000000 0.000000
# 5 0.000000 0.000000 0.000000 0.000000 0.024884 0.000000
# 6 0.000000 0.000000 0.000000 0.000000 0.000000 0.038459
#
#
# Mechanical properties :
#
#
# Convention : Reuss Voigt Hill
#
# Bulk Modulus (GPa) = 53.41197 60.83905 57.12551
# Shear Modulus (GPa) = 56.18246 22.88033 39.53139
#
# Velocity S-wave (km/s) = 5.05094 3.22332 4.23685
# Velocity P-wave (km/s) = 7.63348 6.44047 7.06221
#
# Compressibility (1/GPa) = 0.01872240
#
# Stress axis : x y z
#
# Youngs Moduli (GPa) = 132.76822 132.93337 68.73963
#
# Poissons Ratio (x) = 0.21980 0.20634
# Poissons Ratio (y) = 0.21953 0.05393
# Poissons Ratio (z) = 0.39854 0.10430
#
# Static dielectric constant tensor:
#      x y z
#    x 1.931460 0.000000 0.000000 
#    y 0.000000 1.816160 0.000000 
#    z 0.000000 0.000000 1.866050 
# 
# From -- ./inp_files/31305.got.cif
#   From: 2010.05.17/outbox.cif.g08.bks.cpg/sg72_16_cif.got.tgz:31305.got - 2010.06.03 17:03:01.
