data_PCOD9528384
_publ_section_title
;
Structure prediction by ZEFSAII (Michael W. Deem and Ramdas Pophale) SiO2 
 PCOD9528384
Probable space group: I B A M
;
_chemical_formula_sum "Si O2"
_cell_formula_units_Z 80
_cell_length_a 14.406084
_cell_length_b 12.905476
_cell_length_c 20.651323
_cell_angle_alpha 90.000000
_cell_angle_beta 90.000000
_cell_angle_gamma 90.000000
_cell_volume 3839.439686
_symmetry_space_group_name_H-M "I B A M"
_symmetry_group_IT_number 72
_symmetry_cell_setting 'orthorhombic'
loop_
_space_group_symop_operation_xyz
x,y,z
-x,-y,z
x,-y,1/2-z
-x,y,1/2-z
-x,-y,-z
x,y,-z
-x,y,1/2+z
x,-y,1/2+z
1/2+x,1/2+y,1/2+z
1/2-x,1/2-y,1/2+z
1/2+x,1/2-y,-z
1/2-x,1/2+y,-z
1/2-x,1/2-y,1/2-z
1/2+x,1/2+y,1/2-z
1/2-x,1/2+y,z
1/2+x,1/2-y,z
loop_
_atom_site_type_symbol
_atom_site_label
_atom_site_fract_x
_atom_site_fract_y
_atom_site_fract_z
Si Si1 0.750110 0.113698 0.072476
Si Si2 0.223039 0.044180 0.822176
Si Si3 0.452202 0.887307 0.131203
Si Si4 0.399629 0.721007 0.768404
Si Si5 0.855962 0.705865 0.370200
O O1 0.639482 0.113596 0.086956
O O2 0.793853 0.227695 0.081597
O O3 0.801624 0.044490 0.126811
O O4 0.766073 0.075398 0.000000
O O5 0.152345 0.139321 0.813189
O O6 0.312989 0.094486 0.854849
O O7 0.238424 0.000000 0.750000
O O8 0.415941 0.831787 0.197066
O O9 0.537324 0.811981 0.109868
O O10 0.500000 0.000000 0.139005
O O11 0.500000 0.677288 0.750000
O O12 0.349598 0.740044 0.700509
#
# Coordination Sequence:
#
# PCOD9528384 Si02
#       5
#    16  16  16  16  16
#     4  12  27  46  67  98 141 192 234 282 351 419
#     4  12  22  41  72  97 137 179 234 287 344 410
#     4  11  23  43  68 105 137 175 227 290 348 417
#     4  10  22  39  67 103 138 175 225 281 355 404
#     4  11  23  42  67 101 138 176 225 290 348 411
#
# _framework density 20.836375
#
# number of rings (size 3 to 8) (size 9 to 14) (size 15 to 20)
#    0.000    0.800    6.000    1.800    0.000    5.200 
#    0.000    0.000    0.000    4.800    0.000    0.000 
#    0.000    0.000    0.000    0.000    0.000    0.000 
#
# Total GULP energy -223222.474914 kJ/mol
# GULP energy per Si atom -5580.561873 kJ/mol
# Density = 2.078895 g / cm^3
# Si number density = 20.836375 Si / 1000 Ang^3
#
#
#
# Elastic Constant Matrix: (Units=GPa)
#
#
# Indices 1 2 3 4 5 6 
#
# 1 75.0301 37.5415 23.1816 0.0000 0.0000 0.0000
# 2 37.5415 94.0429 39.9202 0.0000 0.0000 0.0000
# 3 23.1816 39.9202 82.5713 0.0000 0.0000 0.0000
# 4 0.0000 0.0000 0.0000 4.2931 0.0000 0.0000
# 5 0.0000 0.0000 0.0000 0.0000 13.6569 0.0000
# 6 0.0000 0.0000 0.0000 0.0000 0.0000 37.6535
#
#
#
# Elastic Compliance Matrix: (Units=1/GPa)
#
#
# Indices 1 2 3 4 5 6 
#
# 1 0.016879 -0.005947 -0.001864 0.000000 0.000000 0.000000
# 2 -0.005947 0.015475 -0.005812 0.000000 0.000000 0.000000
# 3 -0.001864 -0.005812 0.015444 0.000000 0.000000 0.000000
# 4 0.000000 0.000000 0.000000 0.232931 0.000000 0.000000
# 5 0.000000 0.000000 0.000000 0.000000 0.073223 0.000000
# 6 0.000000 0.000000 0.000000 0.000000 0.000000 0.026558
#
#
# Mechanical properties :
#
#
# Convention : Reuss Voigt Hill
#
# Bulk Modulus (GPa) = 48.65536 50.32567 49.49051
# Shear Modulus (GPa) = 12.05965 21.18745 16.62355
#
# Velocity S-wave (km/s) = 2.40839 3.19227 2.82762
# Velocity P-wave (km/s) = 5.57993 6.14757 5.87062
#
# Compressibility (1/GPa) = 0.02055272
#
# Stress axis : x y z
#
# Youngs Moduli (GPa) = 59.24366 64.62237 64.75125
#
# Poissons Ratio (x) = 0.38432 0.12067
# Poissons Ratio (y) = 0.35233 0.37632
# Poissons Ratio (z) = 0.11041 0.37557
#
# Static dielectric constant tensor:
#      x y z
#    x 1.809280 0.000000 0.000000 
#    y 0.000000 1.813790 0.000000 
#    z 0.000000 0.000000 1.727630 
# 
# From -- ./inp_files/44050.got.cif
#   From: 2010.05.17/outbox.cif.g08.bks.cpg/sg72_23_cif.got.tgz:44050.got - 2010.06.03 17:03:01.
