data_PCOD9528777
_publ_section_title
;
Structure prediction by ZEFSAII (Michael W. Deem and Ramdas Pophale) SiO2 
 PCOD9528777
Probable space group: I B A M
;
_chemical_formula_sum "Si O2"
_cell_formula_units_Z 60
_cell_length_a 5.362631
_cell_length_b 18.199924
_cell_length_c 23.518912
_cell_angle_alpha 90.000000
_cell_angle_beta 90.000000
_cell_angle_gamma 90.000000
_cell_volume 2295.433502
_symmetry_space_group_name_H-M "I B A M"
_symmetry_group_IT_number 72
_symmetry_cell_setting 'orthorhombic'
loop_
_space_group_symop_operation_xyz
x,y,z
-x,-y,z
x,-y,1/2-z
-x,y,1/2-z
-x,-y,-z
x,y,-z
-x,y,1/2+z
x,-y,1/2+z
1/2+x,1/2+y,1/2+z
1/2-x,1/2-y,1/2+z
1/2+x,1/2-y,-z
1/2-x,1/2+y,-z
1/2-x,1/2-y,1/2-z
1/2+x,1/2+y,1/2-z
1/2-x,1/2+y,z
1/2+x,1/2-y,z
loop_
_atom_site_type_symbol
_atom_site_label
_atom_site_fract_x
_atom_site_fract_y
_atom_site_fract_z
Si Si1 0.831895 0.790583 0.068671
Si Si2 0.012913 0.587287 0.564023
Si Si3 0.500000 0.700021 0.750000
Si Si4 0.500000 0.000000 0.750000
Si Si5 0.868975 0.078412 0.835507
O O1 0.083937 0.752536 0.088892
O O2 0.749821 0.874921 0.079501
O O3 0.849318 0.785904 0.000000
O O4 0.081781 0.612152 0.500000
O O5 0.218764 0.605405 0.609930
O O6 0.000000 0.500000 0.563290
O O7 0.250000 0.750000 0.750000
O O8 0.511527 0.644572 0.695792
O O9 0.334455 0.947958 0.789103
O O10 0.000000 0.000000 0.847621
#
# Coordination Sequence:
#
# PCOD9528777 Si02
#       5
#    16  16   8   4  16
#     4   9  19  38  62  89 132 187 233 281 352 434
#     4  10  23  42  69 109 149 193 254 317 379 464
#     4  12  28  48  77 117 152 188 262 336 384 448
#     4  12  20  48  74 100 140 202 266 300 378 486
#     4  12  25  45  78 104 146 206 247 312 395 479
#
# _framework density 26.138853999999998
#
# number of rings (size 3 to 8) (size 9 to 14) (size 15 to 20)
#    0.000    1.333    4.000    0.800    0.000    4.800 
#    0.000    5.333    0.000    0.000    0.000    0.000 
#    0.000    0.000    0.000    0.000    0.000    0.000 
#
# Total GULP energy -168143.125056 kJ/mol
# GULP energy per Si atom -5604.770835 kJ/mol
# Density = 2.607936 g / cm^3
# Si number density = 26.138854 Si / 1000 Ang^3
#
#
#
# Elastic Constant Matrix: (Units=GPa)
#
#
# Indices 1 2 3 4 5 6 
#
# 1 118.8305 45.1679 17.6661 0.0000 0.0000 0.0000
# 2 45.1679 183.6024 16.2455 0.0000 0.0000 0.0000
# 3 17.6661 16.2455 118.1968 0.0000 0.0000 0.0000
# 4 0.0000 0.0000 0.0000 24.9170 0.0000 0.0000
# 5 0.0000 0.0000 0.0000 0.0000 27.4374 0.0000
# 6 0.0000 0.0000 0.0000 0.0000 0.0000 51.9245
#
#
#
# Elastic Compliance Matrix: (Units=1/GPa)
#
#
# Indices 1 2 3 4 5 6 
#
# 1 0.009423 -0.002221 -0.001103 0.000000 0.000000 0.000000
# 2 -0.002221 0.006037 -0.000498 0.000000 0.000000 0.000000
# 3 -0.001103 -0.000498 0.008694 0.000000 0.000000 0.000000
# 4 0.000000 0.000000 0.000000 0.040133 0.000000 0.000000
# 5 0.000000 0.000000 0.000000 0.000000 0.036447 0.000000
# 6 0.000000 0.000000 0.000000 0.000000 0.000000 0.019259
#
#
# Mechanical properties :
#
#
# Convention : Reuss Voigt Hill
#
# Bulk Modulus (GPa) = 60.56683 64.30985 62.43834
# Shear Modulus (GPa) = 37.55452 43.62578 40.59015
#
# Velocity S-wave (km/s) = 3.79454 4.08977 3.94492
# Velocity P-wave (km/s) = 6.51303 6.85261 6.68497
#
# Compressibility (1/GPa) = 0.01651069
#
# Stress axis : x y z
#
# Youngs Moduli (GPa) = 106.11846 165.64801 115.02472
#
# Poissons Ratio (x) = 0.36784 0.12690
# Poissons Ratio (y) = 0.23565 0.05726
# Poissons Ratio (z) = 0.11707 0.08247
#
# Static dielectric constant tensor:
#      x y z
#    x 2.068270 0.000000 0.000000 
#    y 0.000000 2.205310 0.000000 
#    z 0.000000 0.000000 2.048250 
# 
# From -- ./inp_files/46471.got.cif
#   From: 2010.05.17/outbox.cif.g08.bks.cpg/sg72_24_cif.got.tgz:46471.got - 2010.06.03 17:03:01.
