data_PCOD9528526
_publ_section_title
;
Structure prediction by ZEFSAII (Michael W. Deem and Ramdas Pophale) SiO2 
 PCOD9528526
Probable space group: I B A M
;
_chemical_formula_sum "Si O2"
_cell_formula_units_Z 112
_cell_length_a 15.136971
_cell_length_b 11.545455
_cell_length_c 29.691031
_cell_angle_alpha 90.000000
_cell_angle_beta 90.000000
_cell_angle_gamma 90.000000
_cell_volume 5188.900109
_symmetry_space_group_name_H-M "I B A M"
_symmetry_group_IT_number 72
_symmetry_cell_setting 'orthorhombic'
loop_
_space_group_symop_operation_xyz
x,y,z
-x,-y,z
x,-y,1/2-z
-x,y,1/2-z
-x,-y,-z
x,y,-z
-x,y,1/2+z
x,-y,1/2+z
1/2+x,1/2+y,1/2+z
1/2-x,1/2-y,1/2+z
1/2+x,1/2-y,-z
1/2-x,1/2+y,-z
1/2-x,1/2-y,1/2-z
1/2+x,1/2+y,1/2-z
1/2-x,1/2+y,z
1/2+x,1/2-y,z
loop_
_atom_site_type_symbol
_atom_site_label
_atom_site_fract_x
_atom_site_fract_y
_atom_site_fract_z
Si Si1 0.493412 0.363669 0.685479
Si Si2 0.329050 0.205493 0.690893
Si Si3 0.811641 0.357819 0.053594
Si Si4 0.883088 0.090810 0.448744
Si Si5 0.104155 0.502042 0.131905
Si Si6 0.064075 0.847738 0.085080
Si Si7 0.640123 0.807082 0.208308
O O1 0.500000 0.500000 0.694943
O O2 0.394154 0.315817 0.688005
O O3 0.530154 0.337689 0.635556
O O4 0.561904 0.286033 0.713316
O O5 0.358896 0.116984 0.652437
O O6 0.341495 0.150471 0.740840
O O7 0.227931 0.244961 0.689447
O O8 0.706785 0.342945 0.061678
O O9 0.844809 0.458617 0.087012
O O10 0.866641 0.246278 0.068901
O O11 0.824728 0.379389 0.000000
O O12 0.876238 0.048709 0.500000
O O13 0.973984 0.159841 0.443731
O O14 0.895078 0.975729 0.419427
O O15 0.115637 0.594934 0.172440
O O16 0.000000 0.500000 0.121756
#
# Coordination Sequence:
#
# PCOD9528526 Si02
#       7
#    16  16  16  16  16  16  16
#     4  12  25  43  70 104 136 179 226 289 342 403
#     4  11  27  45  71 101 139 182 232 281 346 407
#     4  11  25  43  69 105 137 177 232 289 348 410
#     4  10  22  41  69  97 131 183 234 286 344 408
#     4  12  25  47  72  99 141 188 225 281 350 418
#     4  11  21  42  68  98 135 181 232 283 342 413
#     4  11  26  46  70 103 135 185 232 284 340 413
#
# _framework density 21.584537000000001
#
# number of rings (size 3 to 8) (size 9 to 14) (size 15 to 20)
#    0.000    0.857    4.286    2.571    6.000    2.000 
#    2.571    0.000    0.000    0.000    0.000    0.000 
#    0.000    0.000    0.000    0.000    0.000    0.000 
#
# Total GULP energy -313233.541977 kJ/mol
# GULP energy per Si atom -5593.456107 kJ/mol
# Density = 2.153541 g / cm^3
# Si number density = 21.584537 Si / 1000 Ang^3
#
#
#
# Elastic Constant Matrix: (Units=GPa)
#
#
# Indices 1 2 3 4 5 6 
#
# 1 146.1855 39.1895 17.6588 0.0000 0.0000 0.0000
# 2 39.1895 81.5576 13.3502 0.0000 0.0000 0.0000
# 3 17.6588 13.3502 76.1428 0.0000 0.0000 0.0000
# 4 0.0000 0.0000 0.0000 -32.3854 0.0000 0.0000
# 5 0.0000 0.0000 0.0000 0.0000 51.4988 0.0000
# 6 0.0000 0.0000 0.0000 0.0000 0.0000 22.4360
#
#
#
# Elastic Compliance Matrix: (Units=1/GPa)
#
#
# Indices 1 2 3 4 5 6 
#
# 1 0.007959 -0.003626 -0.001210 0.000000 0.000000 0.000000
# 2 -0.003626 0.014276 -0.001662 0.000000 0.000000 0.000000
# 3 -0.001210 -0.001662 0.013705 0.000000 0.000000 0.000000
# 4 0.000000 0.000000 0.000000 -0.030878 0.000000 0.000000
# 5 0.000000 0.000000 0.000000 0.000000 0.019418 0.000000
# 6 0.000000 0.000000 0.000000 0.000000 0.000000 0.044571
#
#
# Mechanical properties :
#
#
# Convention : Reuss Voigt Hill
#
# Bulk Modulus (GPa) = 43.58556 49.36476 46.47516
# Shear Modulus (GPa) = 55.74420 23.88905 39.81662
#
# Velocity S-wave (km/s) = 5.08744 3.33042 4.29964
# Velocity P-wave (km/s) = 7.39907 6.14077 6.79909
#
# Compressibility (1/GPa) = 0.02294338
#
# Stress axis : x y z
#
# Youngs Moduli (GPa) = 125.64509 70.04861 72.96481
#
# Poissons Ratio (x) = 0.25402 0.08829
# Poissons Ratio (y) = 0.45563 0.12127
# Poissons Ratio (z) = 0.15203 0.11642
#
# Static dielectric constant tensor:
#      x y z
#    x 1.760170 0.000000 0.000000 
#    y 0.000000 1.770740 0.000000 
#    z 0.000000 0.000000 1.834220 
# 
# From -- ./inp_files/51783.got.cif
#   From: 2010.05.17/outbox.cif.g08.bks.cpg/sg72_26_cif.got.tgz:51783.got - 2010.06.03 17:03:01.
