data_PCOD9528016
_publ_section_title
;
Structure prediction by ZEFSAII (Michael W. Deem and Ramdas Pophale) SiO2 
 PCOD9528016
Probable space group: I B A M
;
_chemical_formula_sum "Si O2"
_cell_formula_units_Z 112
_cell_length_a 11.273477
_cell_length_b 20.608003
_cell_length_c 21.785678
_cell_angle_alpha 90.000000
_cell_angle_beta 90.000000
_cell_angle_gamma 90.000000
_cell_volume 5061.332541
_symmetry_space_group_name_H-M "I B A M"
_symmetry_group_IT_number 72
_symmetry_cell_setting 'orthorhombic'
loop_
_space_group_symop_operation_xyz
x,y,z
-x,-y,z
x,-y,1/2-z
-x,y,1/2-z
-x,-y,-z
x,y,-z
-x,y,1/2+z
x,-y,1/2+z
1/2+x,1/2+y,1/2+z
1/2-x,1/2-y,1/2+z
1/2+x,1/2-y,-z
1/2-x,1/2+y,-z
1/2-x,1/2-y,1/2-z
1/2+x,1/2+y,1/2-z
1/2-x,1/2+y,z
1/2+x,1/2-y,z
loop_
_atom_site_type_symbol
_atom_site_label
_atom_site_fract_x
_atom_site_fract_y
_atom_site_fract_z
Si Si1 0.845740 0.041422 0.188647
Si Si2 0.501671 0.651652 0.368569
Si Si3 0.135131 0.608722 0.248808
Si Si4 0.555336 0.859435 0.066876
Si Si5 0.305084 0.276302 0.933314
Si Si6 0.764436 0.077660 0.379181
Si Si7 0.401389 0.787577 0.163614
O O1 0.941545 0.096452 0.173497
O O2 0.718737 0.073554 0.202216
O O3 0.873514 0.000000 0.250000
O O4 0.824077 0.991753 0.133073
O O5 0.406711 0.670797 0.420265
O O6 0.626381 0.625160 0.393775
O O7 0.529183 0.719759 0.334749
O O8 0.204466 0.599551 0.185467
O O9 0.128227 0.683219 0.270367
O O10 0.000000 0.583625 0.250000
O O11 0.631825 0.793239 0.065160
O O12 0.652030 0.915903 0.076650
O O13 0.471915 0.843657 0.125048
O O14 0.496751 0.867089 0.000000
O O15 0.214423 0.277200 0.877521
O O16 0.247908 0.286541 0.000000
#
# Coordination Sequence:
#
# PCOD9528016 Si02
#       7
#    16  16  16  16  16  16  16
#     4  10  24  44  65  89 131 181 220 261 321 403
#     4  11  23  41  64  98 132 167 218 267 333 396
#     4  11  23  43  65  96 129 167 217 270 336 389
#     4  10  21  39  62  92 128 169 215 267 327 386
#     4  10  21  40  67  96 128 171 216 273 336 392
#     4  11  23  40  63  93 130 176 220 260 315 395
#     4  11  21  41  66  98 128 164 211 283 337 388
#
# _framework density 22.128558999999999
#
# number of rings (size 3 to 8) (size 9 to 14) (size 15 to 20)
#    0.000    1.429    4.286    0.857    0.000    8.286 
#    5.143    0.714    0.000    2.571    0.000    0.000 
#    0.000    0.000    0.000    0.000    0.000    0.000 
#
# Total GULP energy -312744.654768 kJ/mol
# GULP energy per Si atom -5584.725978 kJ/mol
# Density = 2.207819 g / cm^3
# Si number density = 22.128559 Si / 1000 Ang^3
#
#
#
# Elastic Constant Matrix: (Units=GPa)
#
#
# Indices 1 2 3 4 5 6 
#
# 1 79.3003 2.2167 7.0167 0.0000 0.0000 0.0000
# 2 2.2167 64.5157 16.1346 0.0000 0.0000 0.0000
# 3 7.0167 16.1346 43.2381 0.0000 0.0000 0.0000
# 4 0.0000 0.0000 0.0000 10.5920 0.0000 0.0000
# 5 0.0000 0.0000 0.0000 0.0000 13.0800 0.0000
# 6 0.0000 0.0000 0.0000 0.0000 0.0000 28.1324
#
#
#
# Elastic Compliance Matrix: (Units=1/GPa)
#
#
# Indices 1 2 3 4 5 6 
#
# 1 0.012794 0.000088 -0.002109 0.000000 0.000000 0.000000
# 2 0.000088 0.017096 -0.006394 0.000000 0.000000 0.000000
# 3 -0.002109 -0.006394 0.025856 0.000000 0.000000 0.000000
# 4 0.000000 0.000000 0.000000 0.094411 0.000000 0.000000
# 5 0.000000 0.000000 0.000000 0.000000 0.076453 0.000000
# 6 0.000000 0.000000 0.000000 0.000000 0.000000 0.035546
#
#
# Mechanical properties :
#
#
# Convention : Reuss Voigt Hill
#
# Bulk Modulus (GPa) = 25.69610 26.42112 26.05861
# Shear Modulus (GPa) = 17.12573 21.13995 19.13284
#
# Velocity S-wave (km/s) = 2.78496 3.09419 2.94364
# Velocity P-wave (km/s) = 4.68815 4.97303 4.83269
#
# Compressibility (1/GPa) = 0.03891642
#
# Stress axis : x y z
#
# Youngs Moduli (GPa) = 78.15886 58.49294 38.67594
#
# Poissons Ratio (x) = -0.00514 0.08157
# Poissons Ratio (y) = -0.00687 0.24729
# Poissons Ratio (z) = 0.16484 0.37399
#
# Static dielectric constant tensor:
#      x y z
#    x 1.833230 0.000000 0.000000 
#    y 0.000000 1.842560 0.000000 
#    z 0.000000 0.000000 1.854410 
# 
# From -- ./inp_files/43523.got.cif
#   From: 2010.05.17/outbox.cif.g08.bks.cpg/sg72_22_cif.got.tgz:43523.got - 2010.06.03 17:03:01.
