data_PCOD9528622
_publ_section_title
;
Structure prediction by ZEFSAII (Michael W. Deem and Ramdas Pophale) SiO2 
 PCOD9528622
Probable space group: I B A M
;
_chemical_formula_sum "Si O2"
_cell_formula_units_Z 64
_cell_length_a 10.164353
_cell_length_b 9.152263
_cell_length_c 25.349874
_cell_angle_alpha 90.000000
_cell_angle_beta 90.000000
_cell_angle_gamma 90.000000
_cell_volume 2358.218467
_symmetry_space_group_name_H-M "I B A M"
_symmetry_group_IT_number 72
_symmetry_cell_setting 'orthorhombic'
loop_
_space_group_symop_operation_xyz
x,y,z
-x,-y,z
x,-y,1/2-z
-x,y,1/2-z
-x,-y,-z
x,y,-z
-x,y,1/2+z
x,-y,1/2+z
1/2+x,1/2+y,1/2+z
1/2-x,1/2-y,1/2+z
1/2+x,1/2-y,-z
1/2-x,1/2+y,-z
1/2-x,1/2-y,1/2-z
1/2+x,1/2+y,1/2-z
1/2-x,1/2+y,z
1/2+x,1/2-y,z
loop_
_atom_site_type_symbol
_atom_site_label
_atom_site_fract_x
_atom_site_fract_y
_atom_site_fract_z
Si Si1 0.408348 0.237815 0.148125
Si Si2 0.827811 0.504939 0.440673
Si Si3 0.330819 0.855969 0.788014
Si Si4 0.429591 0.325432 0.556604
O O1 0.622862 0.905742 0.111517
O O2 0.523799 0.191831 0.190736
O O3 0.278707 0.330758 0.165311
O O4 0.483419 0.336860 0.107245
O O5 0.875086 0.553838 0.500000
O O6 0.678878 0.551784 0.442571
O O7 0.859469 0.334161 0.439003
O O8 0.250000 0.750000 0.750000
O O9 0.337163 0.000000 0.750000
O O10 0.497726 0.329939 0.500000
#
# Coordination Sequence:
#
# PCOD9528622 Si02
#       4
#    16  16  16  16
#     4  12  25  50  83 110 158 214 264 339 419 477
#     4  10  22  43  76 122 164 209 263 320 405 509
#     4  12  32  54  77 115 152 208 282 349 399 476
#     4  10  22  43  77 122 165 209 262 322 405 508
#
# _framework density 27.139132
#
# number of rings (size 3 to 8) (size 9 to 14) (size 15 to 20)
#    0.000    1.000    2.500    2.250    7.000    5.000 
#    4.500    0.000    0.000    6.000    0.000    0.000 
#    0.000    0.000    0.000    0.000    0.000    0.000 
#
# Total GULP energy -178614.952709 kJ/mol
# GULP energy per Si atom -5581.717272 kJ/mol
# Density = 2.707736 g / cm^3
# Si number density = 27.139132 Si / 1000 Ang^3
#
#
#
# Elastic Constant Matrix: (Units=GPa)
#
#
# Indices 1 2 3 4 5 6 
#
# 1 158.3704 89.2217 89.0904 0.0000 0.0000 0.0000
# 2 89.2217 193.1011 57.8189 0.0000 0.0000 0.0000
# 3 89.0904 57.8189 207.1586 0.0000 0.0000 0.0000
# 4 0.0000 0.0000 0.0000 143.8597 0.0000 0.0000
# 5 0.0000 0.0000 0.0000 0.0000 103.6458 0.0000
# 6 0.0000 0.0000 0.0000 0.0000 0.0000 55.5147
#
#
#
# Elastic Compliance Matrix: (Units=1/GPa)
#
#
# Indices 1 2 3 4 5 6 
#
# 1 0.010346 -0.003763 -0.003399 0.000000 0.000000 0.000000
# 2 -0.003763 0.007019 -0.000341 0.000000 0.000000 0.000000
# 3 -0.003399 -0.000341 0.006384 0.000000 0.000000 0.000000
# 4 0.000000 0.000000 0.000000 0.006951 0.000000 0.000000
# 5 0.000000 0.000000 0.000000 0.000000 0.009648 0.000000
# 6 0.000000 0.000000 0.000000 0.000000 0.000000 0.018013
#
#
# Mechanical properties :
#
#
# Convention : Reuss Voigt Hill
#
# Bulk Modulus (GPa) = 114.36431 114.54357 114.45394
# Shear Modulus (GPa) = 65.54513 82.10398 73.82456
#
# Velocity S-wave (km/s) = 4.91975 5.50624 5.22124
# Velocity P-wave (km/s) = 8.63154 9.09519 8.86640
#
# Compressibility (1/GPa) = 0.00874399
#
# Stress axis : x y z
#
# Youngs Moduli (GPa) = 96.65191 142.46544 156.63398
#
# Poissons Ratio (x) = 0.53605 0.53246
# Poissons Ratio (y) = 0.36367 0.05340
# Poissons Ratio (z) = 0.32856 0.04857
#
# Static dielectric constant tensor:
#      x y z
#    x 2.174010 0.000000 0.000000 
#    y 0.000000 2.091150 0.000000 
#    z 0.000000 0.000000 2.467060 
# 
# From -- ./inp_files/50609.got.cif
#   From: 2010.05.17/outbox.cif.g08.bks.cpg/sg72_26_cif.got.tgz:50609.got - 2010.06.03 17:03:01.
