data_PCOD9528062
_publ_section_title
;
Structure prediction by ZEFSAII (Michael W. Deem and Ramdas Pophale) SiO2 
 PCOD9528062
Probable space group: I B A M
;
_chemical_formula_sum "Si O2"
_cell_formula_units_Z 112
_cell_length_a 14.459429
_cell_length_b 23.634046
_cell_length_c 15.012182
_cell_angle_alpha 90.000000
_cell_angle_beta 90.000000
_cell_angle_gamma 90.000000
_cell_volume 5130.185165
_symmetry_space_group_name_H-M "I B A M"
_symmetry_group_IT_number 72
_symmetry_cell_setting 'orthorhombic'
loop_
_space_group_symop_operation_xyz
x,y,z
-x,-y,z
x,-y,1/2-z
-x,y,1/2-z
-x,-y,-z
x,y,-z
-x,y,1/2+z
x,-y,1/2+z
1/2+x,1/2+y,1/2+z
1/2-x,1/2-y,1/2+z
1/2+x,1/2-y,-z
1/2-x,1/2+y,-z
1/2-x,1/2-y,1/2-z
1/2+x,1/2+y,1/2-z
1/2-x,1/2+y,z
1/2+x,1/2-y,z
loop_
_atom_site_type_symbol
_atom_site_label
_atom_site_fract_x
_atom_site_fract_y
_atom_site_fract_z
Si Si1 0.781210 0.102216 0.396387
Si Si2 0.269658 0.718579 0.341343
Si Si3 0.580821 0.959831 0.395229
Si Si4 0.892890 0.878514 0.274761
Si Si5 0.790232 0.031597 0.105358
Si Si6 0.071231 0.326745 0.102717
Si Si7 0.122748 0.677613 0.100925
O O1 0.793014 0.120250 0.500000
O O2 0.845167 0.128467 0.321517
O O3 0.678404 0.122389 0.366638
O O4 0.802820 0.035755 0.394126
O O5 0.250000 0.750000 0.250000
O O6 0.351104 0.672759 0.332771
O O7 0.172060 0.688996 0.361796
O O8 0.307013 0.770035 0.400389
O O9 0.591464 0.976658 0.500000
O O10 0.685095 0.962057 0.359459
O O11 0.555798 0.894134 0.391488
O O12 0.500000 0.000000 0.358445
O O13 0.858293 0.933893 0.329828
O O14 0.000000 0.879428 0.250000
O O15 0.796669 0.050514 0.000000
O O16 0.974718 0.304457 0.144184
O O17 0.078003 0.307914 0.000000
O O18 0.097988 0.662601 0.000000
#
# Coordination Sequence:
#
# PCOD9528062 Si02
#       7
#    16  16  16  16  16  16  16
#     4  10  22  44  68  96 133 178 225 278 343 408
#     4  12  25  42  63  89 130 176 223 277 336 391
#     4   9  16  31  60  98 134 167 203 259 334 408
#     4  12  27  45  66  97 135 179 233 287 337 396
#     4  10  21  40  69  99 136 175 220 280 345 413
#     4  10  21  39  65  97 129 169 218 274 339 411
#     4  10  22  40  67  98 130 173 225 279 342 412
#
# _framework density 21.831572000000001
#
# number of rings (size 3 to 8) (size 9 to 14) (size 15 to 20)
#    0.000    1.571    2.857    1.714    2.000    5.714 
#    0.000    1.429    0.000    0.857    0.000    0.000 
#    0.000    0.000    0.000    0.000    0.000    0.000 
#
# Total GULP energy -312184.309433 kJ/mol
# GULP energy per Si atom -5574.719811 kJ/mol
# Density = 2.178188 g / cm^3
# Si number density = 21.831572 Si / 1000 Ang^3
#
#
#
# Elastic Constant Matrix: (Units=GPa)
#
#
# Indices 1 2 3 4 5 6 
#
# 1 172.5058 27.6084 39.1057 0.0001 0.0000 0.0000
# 2 27.6084 62.4361 10.8678 0.0005 0.0001 -0.0002
# 3 39.1057 10.8678 62.5787 0.0004 0.0001 -0.0002
# 4 0.0001 0.0005 0.0004 18.7952 0.0000 -0.0002
# 5 0.0000 0.0001 0.0001 0.0000 29.5717 0.0000
# 6 0.0000 -0.0002 -0.0002 -0.0002 0.0000 13.0031
#
#
#
# Elastic Compliance Matrix: (Units=1/GPa)
#
#
# Indices 1 2 3 4 5 6 
#
# 1 0.007097 -0.002440 -0.004011 0.000000 0.000000 0.000000
# 2 -0.002440 0.017354 -0.001489 0.000000 0.000000 0.000000
# 3 -0.004011 -0.001489 0.018745 0.000000 0.000000 0.000000
# 4 0.000000 0.000000 0.000000 0.053205 0.000000 0.000001
# 5 0.000000 0.000000 0.000000 0.000000 0.033816 0.000000
# 6 0.000000 0.000000 0.000000 0.000001 0.000000 0.076905
#
#
# Mechanical properties :
#
#
# Convention : Reuss Voigt Hill
#
# Bulk Modulus (GPa) = 36.60864 50.29827 43.45346
# Shear Modulus (GPa) = 21.54174 26.93658 24.23916
#
# Velocity S-wave (km/s) = 3.14462 3.51641 3.33570
# Velocity P-wave (km/s) = 5.47631 6.29095 5.89771
#
# Compressibility (1/GPa) = 0.02731596
#
# Stress axis : x y z
#
# Youngs Moduli (GPa) = 140.91150 57.62208 53.34761
#
# Poissons Ratio (x) = 0.14059 0.21398
# Poissons Ratio (y) = 0.34381 0.07944
# Poissons Ratio (z) = 0.56520 0.08581
#
# Static dielectric constant tensor:
#      x y z
#    x 1.922730 0.000000 0.000000 
#    y 0.000000 1.822310 0.000000 
#    z 0.000000 0.000000 1.890920 
# 
# From -- ./inp_files/22164.got.cif
#   From: 2010.05.17/outbox.cif.g08.bks.cpg/sg72_12_cif.got.tgz:22164.got - 2010.06.03 17:03:01.
