data_PCOD9528208
_publ_section_title
;
Structure prediction by ZEFSAII (Michael W. Deem and Ramdas Pophale) SiO2 
 PCOD9528208
Probable space group: I B A M
;
_chemical_formula_sum "Si O2"
_cell_formula_units_Z 64
_cell_length_a 5.411858
_cell_length_b 27.814841
_cell_length_c 19.819084
_cell_angle_alpha 90.000000
_cell_angle_beta 90.000000
_cell_angle_gamma 90.000000
_cell_volume 2983.366116
_symmetry_space_group_name_H-M "I B A M"
_symmetry_group_IT_number 72
_symmetry_cell_setting 'orthorhombic'
loop_
_space_group_symop_operation_xyz
x,y,z
-x,-y,z
x,-y,1/2-z
-x,y,1/2-z
-x,-y,-z
x,y,-z
-x,y,1/2+z
x,-y,1/2+z
1/2+x,1/2+y,1/2+z
1/2-x,1/2-y,1/2+z
1/2+x,1/2-y,-z
1/2-x,1/2+y,-z
1/2-x,1/2-y,1/2-z
1/2+x,1/2+y,1/2-z
1/2-x,1/2+y,z
1/2+x,1/2-y,z
loop_
_atom_site_type_symbol
_atom_site_label
_atom_site_fract_x
_atom_site_fract_y
_atom_site_fract_z
Si Si1 0.500000 0.780774 0.750000
Si Si2 0.157199 0.452600 0.642876
Si Si3 0.330652 0.132815 0.500000
Si Si4 0.163258 0.928447 0.500000
Si Si5 0.500000 0.594874 0.250000
Si Si6 0.844235 0.644888 0.145705
O O1 0.750000 0.750000 0.750000
O O2 0.500497 0.815694 0.685267
O O3 0.295500 0.456021 0.570625
O O4 0.325458 0.439674 0.706497
O O5 0.000000 0.500000 0.653610
O O6 0.984221 0.405751 0.638033
O O7 0.611602 0.111315 0.500000
O O8 0.286475 0.160627 0.569859
O O9 0.113347 0.092641 0.500000
O O10 0.621722 0.630003 0.194718
#
# Coordination Sequence:
#
# PCOD9528208 Si02
#       6
#     8  16   8   8   8  16
#     4  12  27  46  76 104 139 185 236 305 382 442
#     4  11  24  40  65 103 144 193 241 298 363 440
#     4  10  22  42  73  99 138 191 237 298 362 430
#     4  10  21  42  64  99 142 195 239 288 351 434
#     4  12  21  41  69  90 152 185 252 299 365 424
#     4  11  24  44  68 104 140 185 245 301 367 447
#
# _framework density 21.452279000000001
#
# number of rings (size 3 to 8) (size 9 to 14) (size 15 to 20)
#    0.000    1.000    5.000    1.125    0.000    4.000 
#    0.000    3.750    0.000    0.000    0.000    0.875 
#    0.000    0.000    0.000    0.000    0.000    0.000 
#
# Total GULP energy -178847.955752 kJ/mol
# GULP energy per Si atom -5588.998617 kJ/mol
# Density = 2.140345 g / cm^3
# Si number density = 21.452279 Si / 1000 Ang^3
#
#
#
# Elastic Constant Matrix: (Units=GPa)
#
#
# Indices 1 2 3 4 5 6 
#
# 1 62.2612 28.2458 24.0955 0.0000 0.0000 0.0000
# 2 28.2458 94.8358 33.8768 0.0000 0.0000 0.0000
# 3 24.0955 33.8768 202.4150 0.0000 0.0000 0.0000
# 4 0.0000 0.0000 0.0000 41.3186 0.0001 0.0000
# 5 0.0000 0.0000 0.0000 0.0001 563.8548 0.0000
# 6 0.0000 0.0000 0.0000 0.0000 0.0000 38.3289
#
#
#
# Elastic Compliance Matrix: (Units=1/GPa)
#
#
# Indices 1 2 3 4 5 6 
#
# 1 0.018933 -0.005141 -0.001393 0.000000 0.000000 0.000000
# 2 -0.005141 0.012611 -0.001499 0.000000 0.000000 0.000000
# 3 -0.001393 -0.001499 0.005357 0.000000 0.000000 0.000000
# 4 0.000000 0.000000 0.000000 0.024202 0.000000 0.000000
# 5 0.000000 0.000000 0.000000 0.000000 0.001774 0.000000
# 6 0.000000 0.000000 0.000000 0.000000 0.000000 0.026090
#
#
# Mechanical properties :
#
#
# Convention : Reuss Voigt Hill
#
# Bulk Modulus (GPa) = 47.99679 59.10537 53.55108
# Shear Modulus (GPa) = 44.65156 146.92004 95.78580
#
# Velocity S-wave (km/s) = 4.56723 8.28466 6.68936
# Velocity P-wave (km/s) = 7.08767 10.91448 9.20220
#
# Compressibility (1/GPa) = 0.02083473
#
# Stress axis : x y z
#
# Youngs Moduli (GPa) = 52.81785 79.29500 186.67090
#
# Poissons Ratio (x) = 0.40768 0.26009
# Poissons Ratio (y) = 0.27155 0.27975
# Poissons Ratio (z) = 0.07359 0.11883
#
# Static dielectric constant tensor:
#      x y z
#    x 1.840910 0.000000 0.000000 
#    y 0.000000 1.508980 0.000000 
#    z 0.000000 0.000000 1.935240 
# 
# From -- ./inp_files/34810.got.cif
#   From: 2010.05.17/outbox.cif.g08.bks.cpg/sg72_18_cif.got.tgz:34810.got - 2010.06.03 17:03:01.
