data_PCOD9528056
_publ_section_title
;
Structure prediction by ZEFSAII (Michael W. Deem and Ramdas Pophale) SiO2 
 PCOD9528056
Probable space group: I B A M
;
_chemical_formula_sum "Si O2"
_cell_formula_units_Z 68
_cell_length_a 7.496124
_cell_length_b 23.952270
_cell_length_c 15.364515
_cell_angle_alpha 90.000000
_cell_angle_beta 90.000000
_cell_angle_gamma 90.000000
_cell_volume 2758.686162
_symmetry_space_group_name_H-M "I B A M"
_symmetry_group_IT_number 72
_symmetry_cell_setting 'orthorhombic'
loop_
_space_group_symop_operation_xyz
x,y,z
-x,-y,z
x,-y,1/2-z
-x,y,1/2-z
-x,-y,-z
x,y,-z
-x,y,1/2+z
x,-y,1/2+z
1/2+x,1/2+y,1/2+z
1/2-x,1/2-y,1/2+z
1/2+x,1/2-y,-z
1/2-x,1/2+y,-z
1/2-x,1/2-y,1/2-z
1/2+x,1/2+y,1/2-z
1/2-x,1/2+y,z
1/2+x,1/2-y,z
loop_
_atom_site_type_symbol
_atom_site_label
_atom_site_fract_x
_atom_site_fract_y
_atom_site_fract_z
Si Si1 0.473808 0.676493 0.146623
Si Si2 0.130106 0.296586 0.098020
Si Si3 0.033383 0.060397 0.646540
Si Si4 0.952338 0.584954 0.151413
Si Si5 0.500000 0.000000 0.500000
O O1 0.500000 0.671521 0.250000
O O2 0.663439 0.687012 0.102000
O O3 0.370373 0.733727 0.133526
O O4 0.419603 0.614319 0.116502
O O5 0.025504 0.347642 0.143589
O O6 0.062560 0.294588 0.000000
O O7 0.241748 0.073635 0.635244
O O8 0.000000 0.055762 0.750000
O O9 0.000000 0.000000 0.606030
O O10 0.040809 0.547219 0.077459
O O11 0.000000 0.568695 0.250000
#
# Coordination Sequence:
#
# PCOD9528056 Si02
#       5
#    16  16  16  16   4
#     4  10  21  39  65  93 128 176 222 272 336 400
#     4  11  22  42  64  97 134 169 223 281 334 397
#     4   9  21  41  67  96 132 177 230 269 338 405
#     4  11  25  45  72  97 140 180 222 283 334 401
#     4  12  26  44  66 106 136 176 234 260 346 404
#
# _framework density 24.649415000000001
#
# number of rings (size 3 to 8) (size 9 to 14) (size 15 to 20)
#    0.000    1.647    1.176    2.471    6.588    3.765 
#    0.000    0.588    0.000    0.000    0.000    0.000 
#    0.000    0.000    0.000    0.000    0.000    0.000 
#
# Total GULP energy -189374.825179 kJ/mol
# GULP energy per Si atom -5569.847799 kJ/mol
# Density = 2.459331 g / cm^3
# Si number density = 24.649415 Si / 1000 Ang^3
#
#
#
# Elastic Constant Matrix: (Units=GPa)
#
#
# Indices 1 2 3 4 5 6 
#
# 1 25.2104 32.2568 -7.8658 0.0000 0.0000 0.0000
# 2 32.2568 294.5762 56.6775 0.0000 0.0000 0.0000
# 3 -7.8658 56.6775 142.5193 0.0000 0.0000 0.0000
# 4 0.0000 0.0000 0.0000 10.8199 0.0000 0.0000
# 5 0.0000 0.0000 0.0000 0.0000 7.5561 0.0000
# 6 0.0000 0.0000 0.0000 0.0000 0.0000 21.1630
#
#
#
# Elastic Compliance Matrix: (Units=1/GPa)
#
#
# Indices 1 2 3 4 5 6 
#
# 1 0.049570 -0.006448 0.005300 0.000000 0.000000 0.000000
# 2 -0.006448 0.004515 -0.002151 0.000000 0.000000 0.000000
# 3 0.005300 -0.002151 0.008165 0.000000 0.000000 0.000000
# 4 0.000000 0.000000 0.000000 0.092422 0.000000 0.000000
# 5 0.000000 0.000000 0.000000 0.000000 0.132343 0.000000
# 6 0.000000 0.000000 0.000000 0.000000 0.000000 0.047252
#
#
# Mechanical properties :
#
#
# Convention : Reuss Voigt Hill
#
# Bulk Modulus (GPa) = 17.96916 69.38256 43.67586
# Shear Modulus (GPa) = 13.91152 33.32365 23.61759
#
# Velocity S-wave (km/s) = 2.37824 3.68081 3.09874
# Velocity P-wave (km/s) = 3.85319 6.80245 5.52813
#
# Compressibility (1/GPa) = 0.05565091
#
# Stress axis : x y z
#
# Youngs Moduli (GPa) = 20.17362 221.50063 122.47961
#
# Poissons Ratio (x) = 1.42818 -0.64914
# Poissons Ratio (y) = 0.13007 0.26349
# Poissons Ratio (z) = -0.10692 0.47651
#
# Static dielectric constant tensor:
#      x y z
#    x 1.962430 0.000000 0.000000 
#    y 0.000000 2.075030 0.000000 
#    z 0.000000 0.000000 1.771270 
# 
# From -- ./inp_files/27772.got.cif
#   From: 2010.05.17/outbox.cif.g08.bks.cpg/sg72_14_cif.got.tgz:27772.got - 2010.06.03 17:03:01.
