data_PCOD9528030
_publ_section_title
;
Structure prediction by ZEFSAII (Michael W. Deem and Ramdas Pophale) SiO2 
 PCOD9528030
Probable space group: I B A M
;
_chemical_formula_sum "Si O2"
_cell_formula_units_Z 64
_cell_length_a 14.379438
_cell_length_b 24.809606
_cell_length_c 8.606092
_cell_angle_alpha 90.000000
_cell_angle_beta 90.000000
_cell_angle_gamma 90.000000
_cell_volume 3070.207755
_symmetry_space_group_name_H-M "I B A M"
_symmetry_group_IT_number 72
_symmetry_cell_setting 'orthorhombic'
loop_
_space_group_symop_operation_xyz
x,y,z
-x,-y,z
x,-y,1/2-z
-x,y,1/2-z
-x,-y,-z
x,y,-z
-x,y,1/2+z
x,-y,1/2+z
1/2+x,1/2+y,1/2+z
1/2-x,1/2-y,1/2+z
1/2+x,1/2-y,-z
1/2-x,1/2+y,-z
1/2-x,1/2-y,1/2-z
1/2+x,1/2+y,1/2-z
1/2-x,1/2+y,z
1/2+x,1/2-y,z
loop_
_atom_site_type_symbol
_atom_site_label
_atom_site_fract_x
_atom_site_fract_y
_atom_site_fract_z
Si Si1 0.105957 0.224747 0.312950
Si Si2 0.104380 0.888725 0.315080
Si Si3 0.778041 0.443146 0.684613
Si Si4 0.894646 0.656687 0.686939
O O1 0.106378 0.219076 0.500000
O O2 0.142914 0.170033 0.237469
O O3 0.145001 0.283697 0.270771
O O4 0.000000 0.226701 0.250000
O O5 0.102467 0.891167 0.500000
O O6 0.173994 0.932556 0.246548
O O7 0.000000 0.894287 0.250000
O O8 0.813001 0.500000 0.750000
O O9 0.778564 0.444083 0.500000
O O10 0.838407 0.393101 0.745155
O O11 0.895566 0.653714 0.500000
O O12 0.000000 0.654095 0.750000
#
# Coordination Sequence:
#
# PCOD9528030 Si02
#       4
#    16  16  16  16
#     4   9  17  32  57  89 123 156 193 238 291 351
#     4  11  22  39  63  91 123 158 197 242 296 354
#     4  12  26  44  63  86 117 155 203 252 298 351
#     4  10  21  39  63  92 124 159 198 243 297 353
#
# _framework density 20.845493999999999
#
# number of rings (size 3 to 8) (size 9 to 14) (size 15 to 20)
#    0.000    1.500    0.000    7.500    0.000    5.000 
#    0.000    5.000    0.000    0.000    0.000    0.000 
#    0.000    0.000    0.000    0.000    0.000    0.000 
#
# Total GULP energy -178906.408702 kJ/mol
# GULP energy per Si atom -5590.825272 kJ/mol
# Density = 2.079805 g / cm^3
# Si number density = 20.845494 Si / 1000 Ang^3
#
#
#
# Elastic Constant Matrix: (Units=GPa)
#
#
# Indices 1 2 3 4 5 6 
#
# 1 46.7842 11.4481 3.9585 -0.0013 0.0000 0.0004
# 2 11.4481 111.4945 39.1692 -0.0030 0.0006 0.0010
# 3 3.9585 39.1692 143.3553 -0.0039 0.0003 0.0059
# 4 -0.0013 -0.0030 -0.0039 33.3839 0.0005 0.0023
# 5 0.0000 0.0006 0.0003 0.0005 30.0235 -0.0011
# 6 0.0004 0.0010 0.0059 0.0023 -0.0011 41.4313
#
#
#
# Elastic Compliance Matrix: (Units=1/GPa)
#
#
# Indices 1 2 3 4 5 6 
#
# 1 0.021926 -0.002255 0.000011 0.000001 0.000000 0.000000
# 2 -0.002255 0.010153 -0.002712 0.000000 0.000000 0.000000
# 3 0.000011 -0.002712 0.007716 0.000001 0.000000 -0.000001
# 4 0.000001 0.000000 0.000001 0.029955 -0.000001 -0.000002
# 5 0.000000 0.000000 0.000000 -0.000001 0.033307 0.000001
# 6 0.000000 0.000000 -0.000001 -0.000002 0.000001 0.024136
#
#
# Mechanical properties :
#
#
# Convention : Reuss Voigt Hill
#
# Bulk Modulus (GPa) = 33.46411 45.64286 39.55348
# Shear Modulus (GPa) = 33.99812 37.43829 35.71821
#
# Velocity S-wave (km/s) = 4.04289 4.24251 4.14390
# Velocity P-wave (km/s) = 6.15480 6.77804 6.47392
#
# Compressibility (1/GPa) = 0.02988276
#
# Stress axis : x y z
#
# Youngs Moduli (GPa) = 45.60872 98.48982 129.59467
#
# Poissons Ratio (x) = 0.22210 -0.00139
# Poissons Ratio (y) = 0.10285 0.35145
# Poissons Ratio (z) = -0.00049 0.26710
#
# Static dielectric constant tensor:
#      x y z
#    x 2.361540 0.000010 0.000000 
#    y 0.000010 1.772630 0.000000 
#    z 0.000000 0.000000 1.684900 
# 
# From -- ./inp_files/3445.got.cif
#   From: 2010.05.17/outbox.cif.g08.bks.cpg/sg72_2_cif.got.tgz:3445.got - 2010.06.03 17:03:01.
