data_PCOD9528510
_publ_section_title
;
Structure prediction by ZEFSAII (Michael W. Deem and Ramdas Pophale) SiO2 
 PCOD9528510
Probable space group: I B A M
;
_chemical_formula_sum "Si O2"
_cell_formula_units_Z 92
_cell_length_a 21.267803
_cell_length_b 9.433870
_cell_length_c 20.258849
_cell_angle_alpha 90.000000
_cell_angle_beta 90.000000
_cell_angle_gamma 90.000000
_cell_volume 4064.688639
_symmetry_space_group_name_H-M "I B A M"
_symmetry_group_IT_number 72
_symmetry_cell_setting 'orthorhombic'
loop_
_space_group_symop_operation_xyz
x,y,z
-x,-y,z
x,-y,1/2-z
-x,y,1/2-z
-x,-y,-z
x,y,-z
-x,y,1/2+z
x,-y,1/2+z
1/2+x,1/2+y,1/2+z
1/2-x,1/2-y,1/2+z
1/2+x,1/2-y,-z
1/2-x,1/2+y,-z
1/2-x,1/2-y,1/2-z
1/2+x,1/2+y,1/2-z
1/2-x,1/2+y,z
1/2+x,1/2-y,z
loop_
_atom_site_type_symbol
_atom_site_label
_atom_site_fract_x
_atom_site_fract_y
_atom_site_fract_z
Si Si1 0.000000 0.000000 0.750000
Si Si2 0.575842 0.019749 0.854254
Si Si3 0.407518 0.338180 0.650329
Si Si4 0.135783 0.806523 0.000000
Si Si5 0.718101 0.476416 0.675531
Si Si6 0.429698 0.045140 0.000000
Si Si7 0.320298 0.825277 0.635461
Si Si8 0.934887 0.086297 0.500000
O O1 0.957936 0.906710 0.799834
O O2 0.597472 0.172985 0.830482
O O3 0.500000 0.000000 0.847391
O O4 0.616057 0.884928 0.830384
O O5 0.596104 0.012250 0.931782
O O6 0.345281 0.434383 0.659507
O O7 0.428710 0.340825 0.572429
O O8 0.168404 0.747540 0.064683
O O9 0.121353 0.970116 0.000000
O O10 0.071341 0.715371 0.000000
O O11 0.738803 0.500000 0.750000
O O12 0.707687 0.309071 0.672640
O O13 0.772357 0.544348 0.631008
O O14 0.500000 0.000000 0.000000
O O15 0.000000 0.000000 0.500000
#
# Coordination Sequence:
#
# PCOD9528510 Si02
#       8
#     4  16  16   8  16   8  16   8
#     4  12  28  46  70 108 160 186 252 308 372 450
#     4  10  23  40  69 104 146 187 239 302 374 437
#     4  12  26  45  73 109 145 194 243 308 372 442
#     4  10  22  41  66 109 143 178 232 309 359 429
#     4  12  26  48  74  98 144 193 250 300 370 452
#     4   8  17  32  60  93 140 177 224 282 356 429
#     4  11  25  46  71 107 141 189 246 302 370 447
#     4  12  25  39  75 107 142 191 239 289 374 444
#
# _framework density 22.633960999999999
#
# number of rings (size 3 to 8) (size 9 to 14) (size 15 to 20)
#    0.000    1.043    3.478    2.087    9.739    1.391 
#    0.000    3.913    0.000    0.000    0.000    0.000 
#    0.000    0.000    0.000    0.000    0.000    0.000 
#
# Total GULP energy -256730.702622 kJ/mol
# GULP energy per Si atom -5581.102231 kJ/mol
# Density = 2.258244 g / cm^3
# Si number density = 22.633961 Si / 1000 Ang^3
#
#
#
# Elastic Constant Matrix: (Units=GPa)
#
#
# Indices 1 2 3 4 5 6 
#
# 1 94.8468 26.8928 6.0476 0.0000 0.0000 0.0000
# 2 26.8928 139.8720 20.5013 0.0000 0.0000 0.0000
# 3 6.0476 20.5013 96.9134 0.0000 0.0000 0.0000
# 4 0.0000 0.0000 0.0000 -1.8459 0.0000 0.0000
# 5 0.0000 0.0000 0.0000 0.0000 20.6070 0.0000
# 6 0.0000 0.0000 0.0000 0.0000 0.0000 35.2698
#
#
#
# Elastic Compliance Matrix: (Units=1/GPa)
#
#
# Indices 1 2 3 4 5 6 
#
# 1 0.011157 -0.002108 -0.000250 0.000000 0.000000 0.000000
# 2 -0.002108 0.007777 -0.001514 0.000000 0.000000 0.000000
# 3 -0.000250 -0.001514 0.010654 0.000000 0.000000 0.000000
# 4 0.000000 0.000000 0.000000 -0.541736 0.000000 0.000000
# 5 0.000000 0.000000 0.000000 0.000000 0.048527 0.000000
# 6 0.000000 0.000000 0.000000 0.000000 0.000000 0.028353
#
#
# Mechanical properties :
#
#
# Convention : Reuss Voigt Hill
#
# Bulk Modulus (GPa) = 45.77993 48.72397 47.25195
# Shear Modulus (GPa) = -11.89790 29.35222 8.72716
#
# Velocity S-wave (km/s) = -2.29523 3.60505 1.96574
# Velocity P-wave (km/s) = 3.63951 6.23716 5.10628
#
# Compressibility (1/GPa) = 0.02184363
#
# Stress axis : x y z
#
# Youngs Moduli (GPa) = 89.62903 128.59055 93.85900
#
# Poissons Ratio (x) = 0.27113 0.02348
# Poissons Ratio (y) = 0.18898 0.14206
# Poissons Ratio (z) = 0.02243 0.19462
#
# Static dielectric constant tensor:
#      x y z
#    x 1.833890 0.000000 0.000000 
#    y 0.000000 1.873440 0.000000 
#    z 0.000000 0.000000 1.959100 
# 
# From -- ./inp_files/40227.got.cif
#   From: 2010.05.17/outbox.cif.g08.bks.cpg/sg72_21_cif.got.tgz:40227.got - 2010.06.03 17:03:01.
