data_PCOD9528857
_publ_section_title
;
Structure prediction by ZEFSAII (Michael W. Deem and Ramdas Pophale) SiO2 
 PCOD9528857
Probable space group: I B A M
;
_chemical_formula_sum "Si O2"
_cell_formula_units_Z 48
_cell_length_a 8.896737
_cell_length_b 5.297120
_cell_length_c 33.516782
_cell_angle_alpha 90.000000
_cell_angle_beta 90.000000
_cell_angle_gamma 90.000000
_cell_volume 1579.548184
_symmetry_space_group_name_H-M "I B A M"
_symmetry_group_IT_number 72
_symmetry_cell_setting 'orthorhombic'
loop_
_space_group_symop_operation_xyz
x,y,z
-x,-y,z
x,-y,1/2-z
-x,y,1/2-z
-x,-y,-z
x,y,-z
-x,y,1/2+z
x,-y,1/2+z
1/2+x,1/2+y,1/2+z
1/2-x,1/2-y,1/2+z
1/2+x,1/2-y,-z
1/2-x,1/2+y,-z
1/2-x,1/2-y,1/2-z
1/2+x,1/2+y,1/2-z
1/2-x,1/2+y,z
1/2+x,1/2-y,z
loop_
_atom_site_type_symbol
_atom_site_label
_atom_site_fract_x
_atom_site_fract_y
_atom_site_fract_z
Si Si1 0.000000 0.500000 0.845853
Si Si2 0.620504 0.687157 0.217452
Si Si3 0.151088 0.288557 0.000000
Si Si4 0.848551 0.219473 0.585773
O O1 0.863061 0.401520 0.816866
O O2 0.946902 0.713752 0.876182
O O3 0.500000 0.500000 0.195116
O O4 0.715504 0.500000 0.250000
O O5 0.500000 0.772572 0.250000
O O6 0.072562 0.251200 0.957392
O O7 0.225177 0.564870 0.000000
O O8 0.726389 0.446171 0.587071
#
# Coordination Sequence:
#
# PCOD9528857 Si02
#       4
#     8  16   8  16
#     4  12  19  35  66  82 116 152 200 247 283 342
#     4   6  17  30  53  79 104 152 185 218 300 347
#     4   8  16  39  54  77 124 156 180 235 296 339
#     4  10  24  37  60  90 119 154 196 241 289 347
#
# _framework density 30.388432999999999
#
# number of rings (size 3 to 8) (size 9 to 14) (size 15 to 20)
#    2.000    1.333    0.000    0.500    4.667    0.667 
#    0.000    0.000    0.000   32.000    0.000    0.000 
#    0.000    0.000    0.000    0.000    0.000    0.000 
#
# Total GULP energy -133645.833604 kJ/mol
# GULP energy per Si atom -5568.576400 kJ/mol
# Density = 3.031927 g / cm^3
# Si number density = 30.388433 Si / 1000 Ang^3
#
#
#
# Elastic Constant Matrix: (Units=GPa)
#
#
# Indices 1 2 3 4 5 6 
#
# 1 93.4252 53.5340 73.5310 0.0000 0.0000 0.0000
# 2 53.5340 192.0653 49.3852 0.0000 0.0000 0.0000
# 3 73.5310 49.3852 325.0863 0.0000 0.0000 0.0000
# 4 0.0000 0.0000 0.0000 65.8873 0.0000 0.0001
# 5 0.0000 0.0000 0.0000 0.0000 46.2441 0.0000
# 6 0.0000 0.0000 0.0000 0.0001 0.0000 -964.4950
#
#
#
# Elastic Compliance Matrix: (Units=1/GPa)
#
#
# Indices 1 2 3 4 5 6 
#
# 1 0.014910 -0.003422 -0.002853 0.000000 0.000000 0.000000
# 2 -0.003422 0.006204 -0.000168 0.000000 0.000000 0.000000
# 3 -0.002853 -0.000168 0.003747 0.000000 0.000000 0.000000
# 4 0.000000 0.000000 0.000000 0.015177 0.000000 0.000000
# 5 0.000000 0.000000 0.000000 0.000000 0.021624 0.000000
# 6 0.000000 0.000000 0.000000 0.000000 0.000000 -0.001037
#
#
# Mechanical properties :
#
#
# Convention : Reuss Voigt Hill
#
# Bulk Modulus (GPa) = 83.51370 107.05303 95.28336
# Shear Modulus (GPa) = 64.51329 -141.53094 -38.50883
#
# Velocity S-wave (km/s) = 4.61255 -6.83191 -3.56367
# Velocity P-wave (km/s) = 7.47725 5.18929 3.80661
#
# Compressibility (1/GPa) = 0.01197408
#
# Stress axis : x y z
#
# Youngs Moduli (GPa) = 67.06940 161.19283 266.88742
#
# Poissons Ratio (x) = 0.55166 0.76131
# Poissons Ratio (y) = 0.22953 0.04493
# Poissons Ratio (z) = 0.19132 0.02714
#
# Static dielectric constant tensor:
#      x y z
#    x 2.488220 0.000000 0.000000 
#    y 0.000000 3.755390 0.000000 
#    z 0.000000 0.000000 2.259740 
# 
# From -- ./inp_files/51605.got.cif
#   From: 2010.05.17/outbox.cif.g08.bks.cpg/sg72_26_cif.got.tgz:51605.got - 2010.06.03 17:03:01.
