data_PCOD9528945
_publ_section_title
;
Structure prediction by ZEFSAII (Michael W. Deem and Ramdas Pophale) SiO2 
 PCOD9528945
Probable space group: I B A M
;
_chemical_formula_sum "Si O2"
_cell_formula_units_Z 112
_cell_length_a 21.658208
_cell_length_b 14.632675
_cell_length_c 16.376402
_cell_angle_alpha 90.000000
_cell_angle_beta 90.000000
_cell_angle_gamma 90.000000
_cell_volume 5189.968688
_symmetry_space_group_name_H-M "I B A M"
_symmetry_group_IT_number 72
_symmetry_cell_setting 'orthorhombic'
loop_
_space_group_symop_operation_xyz
x,y,z
-x,-y,z
x,-y,1/2-z
-x,y,1/2-z
-x,-y,-z
x,y,-z
-x,y,1/2+z
x,-y,1/2+z
1/2+x,1/2+y,1/2+z
1/2-x,1/2-y,1/2+z
1/2+x,1/2-y,-z
1/2-x,1/2+y,-z
1/2-x,1/2-y,1/2-z
1/2+x,1/2+y,1/2-z
1/2-x,1/2+y,z
1/2+x,1/2-y,z
loop_
_atom_site_type_symbol
_atom_site_label
_atom_site_fract_x
_atom_site_fract_y
_atom_site_fract_z
Si Si1 0.068808 0.911298 0.712016
Si Si2 0.385099 0.112917 0.910213
Si Si3 0.649040 0.516906 0.406344
Si Si4 0.876592 0.404606 0.406855
Si Si5 0.926444 0.710401 0.245425
Si Si6 0.246718 0.652485 0.853897
Si Si7 0.744177 0.371208 0.661450
O O1 0.081506 0.942916 0.620116
O O2 0.097025 0.814022 0.733837
O O3 0.000000 0.908750 0.750000
O O4 0.101446 0.000000 0.750000
O O5 0.405446 0.169001 0.831159
O O6 0.311324 0.116639 0.904341
O O7 0.403470 0.007011 0.901756
O O8 0.405553 0.146324 0.000000
O O9 0.646536 0.492376 0.500000
O O10 0.692958 0.604364 0.389456
O O11 0.684719 0.430279 0.364798
O O12 0.886271 0.371109 0.500000
O O13 0.905082 0.344996 0.334006
O O14 0.803664 0.407890 0.387316
O O15 0.000000 0.711890 0.250000
O O16 0.243328 0.622086 0.758737
O O17 0.242654 0.762487 0.856345
#
# Coordination Sequence:
#
# PCOD9528945 Si02
#       7
#    16  16  16  16  16  16  16
#     4  10  24  48  70  91 128 176 230 285 338 400
#     4  11  24  41  63  98 139 175 219 282 346 408
#     4  12  25  40  66 105 139 174 224 282 345 415
#     4  11  23  41  66  99 140 178 219 278 344 412
#     4  11  25  45  70  96 127 182 240 280 339 412
#     4  11  23  39  64  96 136 180 219 270 340 408
#     4  11  23  39  64  97 134 179 225 271 334 413
#
# _framework density 21.580092
#
# number of rings (size 3 to 8) (size 9 to 14) (size 15 to 20)
#    0.000    1.000    2.857    3.429    4.000    5.714 
#    0.000    5.000    0.000    0.000    0.000    0.000 
#    0.000    0.000    0.000    0.000    0.000    0.000 
#
# Total GULP energy -312470.371971 kJ/mol
# GULP energy per Si atom -5579.828071 kJ/mol
# Density = 2.153098 g / cm^3
# Si number density = 21.580092 Si / 1000 Ang^3
#
#
#
# Elastic Constant Matrix: (Units=GPa)
#
#
# Indices 1 2 3 4 5 6 
#
# 1 12.0652 -20.0065 -13.4171 0.0000 0.0000 0.0000
# 2 -20.0065 102.9520 39.0487 0.0000 0.0000 0.0000
# 3 -13.4171 39.0487 127.0234 0.0000 0.0000 0.0000
# 4 0.0000 0.0000 0.0000 31.5305 0.0000 0.0000
# 5 0.0000 0.0000 0.0000 0.0000 7.2021 0.0000
# 6 0.0000 0.0000 0.0000 0.0000 0.0000 18.0510
#
#
#
# Elastic Compliance Matrix: (Units=1/GPa)
#
#
# Indices 1 2 3 4 5 6 
#
# 1 0.126990 0.022176 0.006596 0.000000 0.000000 0.000000
# 2 0.022176 0.014868 -0.002228 0.000000 0.000000 0.000000
# 3 0.006596 -0.002228 0.009254 0.000000 0.000000 0.000000
# 4 0.000000 0.000000 0.000000 0.031715 0.000000 0.000000
# 5 0.000000 0.000000 0.000000 0.000000 0.138849 0.000000
# 6 0.000000 0.000000 0.000000 0.000000 0.000000 0.055399
#
#
# Mechanical properties :
#
#
# Convention : Reuss Voigt Hill
#
# Bulk Modulus (GPa) = 4.89715 28.14343 16.52029
# Shear Modulus (GPa) = 12.75336 27.11776 19.93556
#
# Velocity S-wave (km/s) = 2.43364 3.54872 3.04270
# Velocity P-wave (km/s) = 3.18921 5.46451 4.47392
#
# Compressibility (1/GPa) = 0.20420025
#
# Stress axis : x y z
#
# Youngs Moduli (GPa) = 7.87463 67.25965 108.05788
#
# Poissons Ratio (x) = -1.49153 -0.71280
# Poissons Ratio (y) = -0.17463 0.24077
# Poissons Ratio (z) = -0.05194 0.14987
#
# Static dielectric constant tensor:
#      x y z
#    x 1.824900 0.000000 0.000000 
#    y 0.000000 1.821450 0.000000 
#    z 0.000000 0.000000 2.124590 
# 
# From -- ./inp_files/25174.got.cif
#   From: 2010.05.17/outbox.cif.g08.bks.cpg/sg72_13_cif.got.tgz:25174.got - 2010.06.03 17:03:01.
