data_PCOD9528994
_publ_section_title
;
Structure prediction by ZEFSAII (Michael W. Deem and Ramdas Pophale) SiO2 
 PCOD9528994
Probable space group: I B A M
;
_chemical_formula_sum "Si O2"
_cell_formula_units_Z 116
_cell_length_a 22.839413
_cell_length_b 19.010001
_cell_length_c 14.684011
_cell_angle_alpha 90.000000
_cell_angle_beta 90.000000
_cell_angle_gamma 90.000000
_cell_volume 6375.463720
_symmetry_space_group_name_H-M "I B A M"
_symmetry_group_IT_number 72
_symmetry_cell_setting 'orthorhombic'
loop_
_space_group_symop_operation_xyz
x,y,z
-x,-y,z
x,-y,1/2-z
-x,y,1/2-z
-x,-y,-z
x,y,-z
-x,y,1/2+z
x,-y,1/2+z
1/2+x,1/2+y,1/2+z
1/2-x,1/2-y,1/2+z
1/2+x,1/2-y,-z
1/2-x,1/2+y,-z
1/2-x,1/2-y,1/2-z
1/2+x,1/2+y,1/2-z
1/2-x,1/2+y,z
1/2+x,1/2-y,z
loop_
_atom_site_type_symbol
_atom_site_label
_atom_site_fract_x
_atom_site_fract_y
_atom_site_fract_z
Si Si1 0.066545 0.731894 0.776038
Si Si2 0.356315 0.781711 0.100683
Si Si3 0.258145 0.117586 0.653947
Si Si4 0.292145 0.970034 0.602614
Si Si5 0.252789 0.323373 0.644793
Si Si6 0.000000 0.500000 0.250000
Si Si7 0.078063 0.409486 0.389732
Si Si8 0.655182 0.294334 0.600577
O O1 0.098191 0.710365 0.682177
O O2 0.071552 0.669258 0.850429
O O3 0.106000 0.792211 0.822272
O O4 0.000000 0.748469 0.750000
O O5 0.313245 0.848472 0.103158
O O6 0.312539 0.716391 0.120690
O O7 0.382506 0.774622 0.000000
O O8 0.254829 0.160492 0.748624
O O9 0.197386 0.138222 0.607002
O O10 0.269940 0.035290 0.661624
O O11 0.294489 0.998203 0.500000
O O12 0.252006 0.900862 0.603626
O O13 0.356444 0.939773 0.625214
O O14 0.199781 0.272163 0.613995
O O15 0.037668 0.453585 0.320598
O O16 0.066110 0.413295 0.500000
O O17 0.629372 0.288953 0.500000
#
# Coordination Sequence:
#
# PCOD9528994 Si02
#       8
#    16  16  16  16  16   4  16  16
#     4  12  24  41  58  83 113 158 214 244 284 350
#     4  11  22  38  57  84 117 152 191 246 301 350
#     4  11  20  35  57  88 118 149 188 241 305 363
#     4  11  22  34  54  87 116 147 189 234 296 370
#     4  11  19  35  59  81 115 154 183 232 305 370
#     4  12  26  44  56  78 112 160 222 246 282 334
#     4  11  25  42  59  81 118 161 202 251 296 346
#     4  11  20  37  60  83 115 152 191 242 298 355
#
# _framework density 18.194756000000002
#
# number of rings (size 3 to 8) (size 9 to 14) (size 15 to 20)
#    0.000    0.828    4.828    5.172    3.862    1.103 
#    0.000    0.000    0.000    0.000    0.000    1.931 
#    0.000    3.310    0.000    0.000    0.000    0.000 
#
# Total GULP energy -323735.502917 kJ/mol
# GULP energy per Si atom -5581.646602 kJ/mol
# Density = 1.815334 g / cm^3
# Si number density = 18.194756 Si / 1000 Ang^3
#
#
#
# Elastic Constant Matrix: (Units=GPa)
#
#
# Indices 1 2 3 4 5 6 
#
# 1 86.4507 26.0833 30.1523 0.0000 0.0000 0.0000
# 2 26.0833 77.3153 11.9582 0.0000 0.0000 0.0000
# 3 30.1523 11.9582 129.6501 0.0000 0.0000 0.0000
# 4 0.0000 0.0000 0.0000 26.7461 0.0000 0.0000
# 5 0.0000 0.0000 0.0000 0.0000 12.3610 0.0000
# 6 0.0000 0.0000 0.0000 0.0000 0.0000 -10.6697
#
#
#
# Elastic Compliance Matrix: (Units=1/GPa)
#
#
# Indices 1 2 3 4 5 6 
#
# 1 0.013829 -0.004228 -0.002826 0.000000 0.000000 0.000000
# 2 -0.004228 0.014414 -0.000346 0.000000 0.000000 0.000000
# 3 -0.002826 -0.000346 0.008402 0.000000 0.000000 0.000000
# 4 0.000000 0.000000 0.000000 0.037389 0.000000 0.000000
# 5 0.000000 0.000000 0.000000 0.000000 0.080899 0.000000
# 6 0.000000 0.000000 0.000000 0.000000 0.000000 -0.093724
#
#
# Mechanical properties :
#
#
# Convention : Reuss Voigt Hill
#
# Bulk Modulus (GPa) = 45.77893 47.75596 46.76744
# Shear Modulus (GPa) = 60.03017 20.70231 40.36624
#
# Velocity S-wave (km/s) = 5.75020 3.37681 4.71527
# Velocity P-wave (km/s) = 8.32475 6.44266 7.44343
#
# Compressibility (1/GPa) = 0.02184411
#
# Stress axis : x y z
#
# Youngs Moduli (GPa) = 72.31350 69.37691 119.01576
#
# Poissons Ratio (x) = 0.29334 0.33635
# Poissons Ratio (y) = 0.30575 0.04120
# Poissons Ratio (z) = 0.20437 0.02401
#
# Static dielectric constant tensor:
#      x y z
#    x 1.622180 0.000000 0.000000 
#    y 0.000000 1.643160 0.000000 
#    z 0.000000 0.000000 1.798060 
# 
# From -- ./inp_files/25416.got.cif
#   From: 2010.05.17/outbox.cif.g08.bks.cpg/sg72_13_cif.got.tgz:25416.got - 2010.06.03 17:03:01.
