data_PCOD9528679
_publ_section_title
;
Structure prediction by ZEFSAII (Michael W. Deem and Ramdas Pophale) SiO2 
 PCOD9528679
Probable space group: I B A M
;
_chemical_formula_sum "Si O2"
_cell_formula_units_Z 72
_cell_length_a 22.094215
_cell_length_b 17.224301
_cell_length_c 10.295356
_cell_angle_alpha 90.000000
_cell_angle_beta 90.000000
_cell_angle_gamma 90.000000
_cell_volume 3917.974009
_symmetry_space_group_name_H-M "I B A M"
_symmetry_group_IT_number 72
_symmetry_cell_setting 'orthorhombic'
loop_
_space_group_symop_operation_xyz
x,y,z
-x,-y,z
x,-y,1/2-z
-x,y,1/2-z
-x,-y,-z
x,y,-z
-x,y,1/2+z
x,-y,1/2+z
1/2+x,1/2+y,1/2+z
1/2-x,1/2-y,1/2+z
1/2+x,1/2-y,-z
1/2-x,1/2+y,-z
1/2-x,1/2-y,1/2-z
1/2+x,1/2+y,1/2-z
1/2-x,1/2+y,z
1/2+x,1/2-y,z
loop_
_atom_site_type_symbol
_atom_site_label
_atom_site_fract_x
_atom_site_fract_y
_atom_site_fract_z
Si Si1 0.428195 0.219067 0.236826
Si Si2 0.782688 0.000000 0.750000
Si Si3 0.734176 0.242773 0.500000
Si Si4 0.801235 0.520110 0.000000
Si Si5 0.371880 0.874004 0.500000
Si Si6 0.154266 0.145532 0.352232
Si Si7 0.857100 0.690662 0.000000
O O1 0.500000 0.219902 0.250000
O O2 0.406108 0.159452 0.125449
O O3 0.401428 0.302978 0.195685
O O4 0.397271 0.196691 0.372111
O O5 0.739417 0.002476 0.874686
O O6 0.824019 0.923469 0.738487
O O7 0.695474 0.164627 0.500000
O O8 0.709066 0.292994 0.622543
O O9 0.805757 0.242239 0.500000
O O10 0.859993 0.465100 0.000000
O O11 0.820760 0.609677 0.000000
O O12 0.142225 0.115915 0.500000
#
# Coordination Sequence:
#
# PCOD9528679 Si02
#       7
#    16   8   8   8   8  16   8
#     4  11  24  43  64  86 122 172 222 256 290 355
#     4  12  20  38  61  96 137 156 186 252 332 388
#     4   8  18  38  54  93 119 153 193 261 296 373
#     4  12  24  38  59 100 138 155 196 254 323 383
#     4  10  23  38  66  84 126 168 198 253 326 354
#     4   9  20  40  63  91 129 159 197 258 314 371
#     4  12  23  38  62  97 127 157 217 254 307 368
#
# _framework density 18.376844999999999
#
# number of rings (size 3 to 8) (size 9 to 14) (size 15 to 20)
#    0.667    0.889    4.444    2.000    3.111    1.778 
#    0.000    3.889    0.000    1.333    0.000    0.000 
#    0.000    0.000    0.000    0.000    0.000    0.000 
#
# Total GULP energy -200932.351281 kJ/mol
# GULP energy per Si atom -5581.454202 kJ/mol
# Density = 1.833502 g / cm^3
# Si number density = 18.376845 Si / 1000 Ang^3
#
#
#
# Elastic Constant Matrix: (Units=GPa)
#
#
# Indices 1 2 3 4 5 6 
#
# 1 132.9451 27.9485 58.4182 0.0000 0.0000 0.0000
# 2 27.9485 46.2594 14.5502 0.0000 0.0000 0.0000
# 3 58.4182 14.5502 124.0666 0.0000 0.0000 0.0000
# 4 0.0000 0.0000 0.0000 -21.4847 0.0000 0.0000
# 5 0.0000 0.0000 0.0000 0.0000 -59.9339 0.0000
# 6 0.0000 0.0000 0.0000 0.0000 0.0000 20.9728
#
#
#
# Elastic Compliance Matrix: (Units=1/GPa)
#
#
# Indices 1 2 3 4 5 6 
#
# 1 0.010477 -0.004961 -0.004351 0.000000 0.000000 0.000000
# 2 -0.004961 0.024794 -0.000572 0.000000 0.000000 0.000000
# 3 -0.004351 -0.000572 0.010176 0.000000 0.000000 0.000000
# 4 0.000000 0.000000 0.000000 -0.046545 0.000000 0.000000
# 5 0.000000 0.000000 0.000000 0.000000 -0.016685 0.000000
# 6 0.000000 0.000000 0.000000 0.000000 0.000000 0.047681
#
#
# Mechanical properties :
#
#
# Convention : Reuss Voigt Hill
#
# Bulk Modulus (GPa) = 38.94252 56.12277 47.53265
# Shear Modulus (GPa) = 85.87102 1.40112 43.63607
#
# Velocity S-wave (km/s) = 6.84319 0.87412 4.87818
# Velocity P-wave (km/s) = 9.14747 5.62361 7.59280
#
# Compressibility (1/GPa) = 0.02567887
#
# Stress axis : x y z
#
# Youngs Moduli (GPa) = 95.44789 40.33156 98.26918
#
# Poissons Ratio (x) = 0.20009 0.42760
# Poissons Ratio (y) = 0.47353 0.05619
# Poissons Ratio (z) = 0.41533 0.02306
#
# Static dielectric constant tensor:
#      x y z
#    x 1.610660 0.000000 0.000000 
#    y 0.000000 1.641960 0.000000 
#    z 0.000000 0.000000 1.649870 
# 
# From -- ./inp_files/6744.got.cif
#   From: 2010.05.17/outbox.cif.g08.bks.cpg/sg72_4_cif.got.tgz:6744.got - 2010.06.03 17:03:01.
