data_PCOD9528617
_publ_section_title
;
Structure prediction by ZEFSAII (Michael W. Deem and Ramdas Pophale) SiO2 
 PCOD9528617
Probable space group: I B A M
;
_chemical_formula_sum "Si O2"
_cell_formula_units_Z 80
_cell_length_a 19.019727
_cell_length_b 6.496080
_cell_length_c 27.796565
_cell_angle_alpha 90.000000
_cell_angle_beta 90.000000
_cell_angle_gamma 90.000000
_cell_volume 3434.367568
_symmetry_space_group_name_H-M "I B A M"
_symmetry_group_IT_number 72
_symmetry_cell_setting 'orthorhombic'
loop_
_space_group_symop_operation_xyz
x,y,z
-x,-y,z
x,-y,1/2-z
-x,y,1/2-z
-x,-y,-z
x,y,-z
-x,y,1/2+z
x,-y,1/2+z
1/2+x,1/2+y,1/2+z
1/2-x,1/2-y,1/2+z
1/2+x,1/2-y,-z
1/2-x,1/2+y,-z
1/2-x,1/2-y,1/2-z
1/2+x,1/2+y,1/2-z
1/2-x,1/2+y,z
1/2+x,1/2-y,z
loop_
_atom_site_type_symbol
_atom_site_label
_atom_site_fract_x
_atom_site_fract_y
_atom_site_fract_z
Si Si1 0.771946 0.637829 0.789051
Si Si2 0.415970 0.459459 0.556866
Si Si3 0.415711 0.628194 0.202442
Si Si4 0.431023 0.094235 0.623614
Si Si5 0.658303 0.303316 0.366225
O O1 0.762248 0.380766 0.776397
O O2 0.852311 0.714401 0.787395
O O3 0.734638 0.648119 0.842979
O O4 0.500000 0.500000 0.566388
O O5 0.407453 0.443745 0.500000
O O6 0.398421 0.252332 0.585975
O O7 0.363279 0.626416 0.580267
O O8 0.432530 0.500000 0.250000
O O9 0.462744 0.775302 0.169347
O O10 0.388236 0.451919 0.167392
O O11 0.500000 0.000000 0.599705
O O12 0.374183 0.923942 0.638332
#
# Coordination Sequence:
#
# PCOD9528617 Si02
#       5
#    16  16  16  16  16
#     4  12  20  38  65  96 125 173 231 264 307 380
#     4  10  22  43  71  97 124 164 216 276 339 400
#     4  11  24  39  62  92 131 170 226 264 310 382
#     4  11  24  41  64  93 132 166 215 264 332 394
#     4  11  22  39  63  98 129 161 215 279 317 380
#
# _framework density 23.293955
#
# number of rings (size 3 to 8) (size 9 to 14) (size 15 to 20)
#    0.000    1.000    6.000    1.200    0.000    1.200 
#    0.000    4.000    0.000    4.800    0.000    0.000 
#    0.000    0.000    0.000    0.000    0.000    0.000 
#
# Total GULP energy -222682.371833 kJ/mol
# GULP energy per Si atom -5567.059296 kJ/mol
# Density = 2.324094 g / cm^3
# Si number density = 23.293955 Si / 1000 Ang^3
#
#
#
# Elastic Constant Matrix: (Units=GPa)
#
#
# Indices 1 2 3 4 5 6 
#
# 1 91.1644 31.5919 31.3774 0.0000 0.0000 0.0000
# 2 31.5919 155.0528 64.8955 0.0000 0.0000 0.0000
# 3 31.3774 64.8955 145.4321 0.0000 0.0000 0.0000
# 4 0.0000 0.0000 0.0000 20.3319 0.0000 0.0000
# 5 0.0000 0.0000 0.0000 0.0000 25.6248 0.0000
# 6 0.0000 0.0000 0.0000 0.0000 0.0000 23.7785
#
#
#
# Elastic Compliance Matrix: (Units=1/GPa)
#
#
# Indices 1 2 3 4 5 6 
#
# 1 0.012204 -0.001702 -0.001873 0.000000 0.000000 0.000000
# 2 -0.001702 0.008168 -0.003277 0.000000 0.000000 0.000000
# 3 -0.001873 -0.003277 0.008743 0.000000 0.000000 0.000000
# 4 0.000000 0.000000 0.000000 0.049184 0.000000 0.000000
# 5 0.000000 0.000000 0.000000 0.000000 0.039025 0.000000
# 6 0.000000 0.000000 0.000000 0.000000 0.000000 0.042055
#
#
# Mechanical properties :
#
#
# Convention : Reuss Voigt Hill
#
# Bulk Modulus (GPa) = 64.90083 71.93098 68.41590
# Shear Modulus (GPa) = 28.05512 31.53268 29.79390
#
# Velocity S-wave (km/s) = 3.47420 3.68324 3.58025
# Velocity P-wave (km/s) = 6.63443 7.00250 6.82095
#
# Compressibility (1/GPa) = 0.01540812
#
# Stress axis : x y z
#
# Youngs Moduli (GPa) = 81.94074 122.42836 114.38067
#
# Poissons Ratio (x) = 0.20843 0.21427
# Poissons Ratio (y) = 0.13950 0.37488
# Poissons Ratio (z) = 0.15350 0.40126
#
# Static dielectric constant tensor:
#      x y z
#    x 1.907950 0.000000 0.000000 
#    y 0.000000 2.125950 0.000000 
#    z 0.000000 0.000000 1.978030 
# 
# From -- ./inp_files/49824.got.cif
#   From: 2010.05.17/outbox.cif.g08.bks.cpg/sg72_25_cif.got.tgz:49824.got - 2010.06.03 17:03:01.
