data_PCOD9528268
_publ_section_title
;
Structure prediction by ZEFSAII (Michael W. Deem and Ramdas Pophale) SiO2 
 PCOD9528268
Probable space group: I B A M
;
_chemical_formula_sum "Si O2"
_cell_formula_units_Z 96
_cell_length_a 9.092665
_cell_length_b 24.413392
_cell_length_c 23.720967
_cell_angle_alpha 90.000000
_cell_angle_beta 90.000000
_cell_angle_gamma 90.000000
_cell_volume 5265.646554
_symmetry_space_group_name_H-M "I B A M"
_symmetry_group_IT_number 72
_symmetry_cell_setting 'orthorhombic'
loop_
_space_group_symop_operation_xyz
x,y,z
-x,-y,z
x,-y,1/2-z
-x,y,1/2-z
-x,-y,-z
x,y,-z
-x,y,1/2+z
x,-y,1/2+z
1/2+x,1/2+y,1/2+z
1/2-x,1/2-y,1/2+z
1/2+x,1/2-y,-z
1/2-x,1/2+y,-z
1/2-x,1/2-y,1/2-z
1/2+x,1/2+y,1/2-z
1/2-x,1/2+y,z
1/2+x,1/2-y,z
loop_
_atom_site_type_symbol
_atom_site_label
_atom_site_fract_x
_atom_site_fract_y
_atom_site_fract_z
Si Si1 0.861449 0.349491 0.289029
Si Si2 0.927667 0.790219 0.689135
Si Si3 0.551064 0.821336 0.120155
Si Si4 0.335576 0.440143 0.727426
Si Si5 0.913506 0.721034 0.500000
Si Si6 0.128071 0.874326 0.622330
Si Si7 0.412782 0.668697 0.000000
O O1 0.743582 0.302194 0.300585
O O2 0.772981 0.396733 0.256699
O O3 0.000000 0.335300 0.250000
O O4 0.935041 0.361229 0.349588
O O5 0.952237 0.736076 0.653113
O O6 0.000000 0.787682 0.750000
O O7 0.004738 0.839533 0.655247
O O8 0.521406 0.807064 0.055667
O O9 0.714710 0.844316 0.126523
O O10 0.292526 0.500000 0.750000
O O11 0.500000 0.430495 0.750000
O O12 0.347100 0.429142 0.659983
O O13 0.738922 0.705456 0.500000
O O14 0.957513 0.785396 0.500000
O O15 0.088035 0.869030 0.556170
#
# Coordination Sequence:
#
# PCOD9528268 Si02
#       7
#    16  16  16  16   8  16   8
#     4  12  22  37  56  88 117 152 196 245 301 357
#     4  12  21  33  54  83 121 159 187 231 289 354
#     4  11  23  34  54  82 127 156 201 235 283 355
#     4  11  23  43  65  84 112 147 196 262 323 361
#     4  10  22  36  50  83 117 177 195 231 276 345
#     4  11  20  40  55  86 117 160 200 233 297 355
#     4  10  22  36  60  82 125 164 205 238 280 353
#
# _framework density 18.231380000000001
#
# number of rings (size 3 to 8) (size 9 to 14) (size 15 to 20)
#    0.000    0.833    6.667    1.500    2.333    2.333 
#    0.000    0.000    0.000    3.000    0.000    3.500 
#    0.000    0.000    0.000    0.000    0.000    0.000 
#
# Total GULP energy -267776.459868 kJ/mol
# GULP energy per Si atom -5578.676247 kJ/mol
# Density = 1.818988 g / cm^3
# Si number density = 18.231380 Si / 1000 Ang^3
#
#
#
# Elastic Constant Matrix: (Units=GPa)
#
#
# Indices 1 2 3 4 5 6 
#
# 1 81.9720 5.6629 32.5302 0.0000 0.0000 0.0000
# 2 5.6629 58.2679 44.8560 0.0000 0.0000 0.0000
# 3 32.5302 44.8560 170.6022 0.0000 0.0000 0.0000
# 4 0.0000 0.0000 0.0000 18.3829 0.0000 0.0000
# 5 0.0000 0.0000 0.0000 0.0000 22.3058 0.0000
# 6 0.0000 0.0000 0.0000 0.0000 0.0000 15.8573
#
#
#
# Elastic Compliance Matrix: (Units=1/GPa)
#
#
# Indices 1 2 3 4 5 6 
#
# 1 0.013229 0.000823 -0.002739 0.000000 0.000000 0.000000
# 2 0.000823 0.021569 -0.005828 0.000000 0.000000 0.000000
# 3 -0.002739 -0.005828 0.007916 0.000000 0.000000 0.000000
# 4 0.000000 0.000000 0.000000 0.054399 0.000000 0.000000
# 5 0.000000 0.000000 0.000000 0.000000 0.044831 0.000000
# 6 0.000000 0.000000 0.000000 0.000000 0.000000 0.063062
#
#
# Mechanical properties :
#
#
# Convention : Reuss Voigt Hill
#
# Bulk Modulus (GPa) = 36.72948 52.99335 44.86142
# Shear Modulus (GPa) = 21.77988 26.49540 24.13764
#
# Velocity S-wave (km/s) = 3.46010 3.81633 3.64258
# Velocity P-wave (km/s) = 6.01275 6.96774 6.50778
#
# Compressibility (1/GPa) = 0.02722608
#
# Stress axis : x y z
#
# Youngs Moduli (GPa) = 75.58942 46.36378 126.32423
#
# Poissons Ratio (x) = -0.03815 0.34599
# Poissons Ratio (y) = -0.06219 0.73620
# Poissons Ratio (z) = 0.20703 0.27020
#
# Static dielectric constant tensor:
#      x y z
#    x 1.650010 0.000000 0.000000 
#    y 0.000000 1.633380 0.000000 
#    z 0.000000 0.000000 1.674190 
# 
# From -- ./inp_files/42497.got.cif
#   From: 2010.05.17/outbox.cif.g08.bks.cpg/sg72_22_cif.got.tgz:42497.got - 2010.06.03 17:03:01.
