data_PCOD9528917
_publ_section_title
;
Structure prediction by ZEFSAII (Michael W. Deem and Ramdas Pophale) SiO2 
 PCOD9528917
Probable space group: I B A M
;
_chemical_formula_sum "Si O2"
_cell_formula_units_Z 64
_cell_length_a 9.204598
_cell_length_b 18.748957
_cell_length_c 16.135310
_cell_angle_alpha 90.000000
_cell_angle_beta 90.000000
_cell_angle_gamma 90.000000
_cell_volume 2784.577135
_symmetry_space_group_name_H-M "I B A M"
_symmetry_group_IT_number 72
_symmetry_cell_setting 'orthorhombic'
loop_
_space_group_symop_operation_xyz
x,y,z
-x,-y,z
x,-y,1/2-z
-x,y,1/2-z
-x,-y,-z
x,y,-z
-x,y,1/2+z
x,-y,1/2+z
1/2+x,1/2+y,1/2+z
1/2-x,1/2-y,1/2+z
1/2+x,1/2-y,-z
1/2-x,1/2+y,-z
1/2-x,1/2-y,1/2-z
1/2+x,1/2+y,1/2-z
1/2-x,1/2+y,z
1/2+x,1/2-y,z
loop_
_atom_site_type_symbol
_atom_site_label
_atom_site_fract_x
_atom_site_fract_y
_atom_site_fract_z
Si Si1 0.168391 0.008229 0.097464
Si Si2 0.701140 0.334074 0.159561
Si Si3 0.634011 0.894189 0.310261
Si Si4 0.483116 0.232130 0.096037
O O1 0.205334 0.090505 0.112897
O O2 0.277559 0.958354 0.148714
O O3 0.178239 0.990550 0.000000
O O4 0.000000 0.000000 0.124070
O O5 0.757238 0.349957 0.251374
O O6 0.547649 0.296225 0.149985
O O7 0.815953 0.281984 0.115796
O O8 0.500000 0.915825 0.250000
O O9 0.564910 0.840557 0.377113
O O10 0.504928 0.248376 0.000000
#
# Coordination Sequence:
#
# PCOD9528917 Si02
#       4
#    16  16  16  16
#     4  11  25  46  73 105 140 183 237 293 354 420
#     4  11  25  44  68 101 140 181 231 283 350 420
#     4  10  24  45  69 100 138 183 233 290 353 416
#     4  11  23  42  68  99 139 184 234 285 344 417
#
# _framework density 22.983740999999998
#
# number of rings (size 3 to 8) (size 9 to 14) (size 15 to 20)
#    0.000    1.250    0.000    4.500    3.500    9.000 
#    0.000    6.250    0.000    0.000    0.000    0.000 
#    0.000    0.000    0.000    0.000    0.000    0.000 
#
# Total GULP energy -179364.274422 kJ/mol
# GULP energy per Si atom -5605.133576 kJ/mol
# Density = 2.293143 g / cm^3
# Si number density = 22.983741 Si / 1000 Ang^3
#
#
#
# Elastic Constant Matrix: (Units=GPa)
#
#
# Indices 1 2 3 4 5 6 
#
# 1 109.1674 39.2087 56.2362 0.0000 0.0000 0.0000
# 2 39.2087 67.3569 21.0017 0.0000 0.0000 0.0000
# 3 56.2362 21.0017 80.4349 0.0000 0.0000 0.0000
# 4 0.0000 0.0000 0.0000 23.7647 0.0000 0.0000
# 5 0.0000 0.0000 0.0000 0.0000 27.6276 0.0000
# 6 0.0000 0.0000 0.0000 0.0000 0.0000 25.8366
#
#
#
# Elastic Compliance Matrix: (Units=1/GPa)
#
#
# Indices 1 2 3 4 5 6 
#
# 1 0.016631 -0.006592 -0.009906 0.000000 0.000000 0.000000
# 2 -0.006592 0.018775 -0.000293 0.000000 0.000000 0.000000
# 3 -0.009906 -0.000293 0.019435 0.000000 0.000000 0.000000
# 4 0.000000 0.000000 0.000000 0.042079 0.000000 0.000000
# 5 0.000000 0.000000 0.000000 0.000000 0.036196 0.000000
# 6 0.000000 0.000000 0.000000 0.000000 0.000000 0.038705
#
#
# Mechanical properties :
#
#
# Convention : Reuss Voigt Hill
#
# Bulk Modulus (GPa) = 47.04226 54.42802 50.73514
# Shear Modulus (GPa) = 23.53047 24.81328 24.17187
#
# Velocity S-wave (km/s) = 3.20314 3.28929 3.24650
# Velocity P-wave (km/s) = 5.84741 6.17725 6.01459
#
# Compressibility (1/GPa) = 0.02125748
#
# Stress axis : x y z
#
# Youngs Moduli (GPa) = 60.12845 53.26213 51.45339
#
# Poissons Ratio (x) = 0.35111 0.50972
# Poissons Ratio (y) = 0.39638 0.01509
# Poissons Ratio (z) = 0.59566 0.01562
#
# Static dielectric constant tensor:
#      x y z
#    x 1.854910 0.000000 0.000000 
#    y 0.000000 1.840720 0.000000 
#    z 0.000000 0.000000 1.813170 
# 
# From -- ./inp_files/18656.got.cif
#   From: 2010.05.17/outbox.cif.g08.bks.cpg/sg72_10_cif.got.tgz:18656.got - 2010.06.03 17:03:01.
