data_PCOD9528760
_publ_section_title
;
Structure prediction by ZEFSAII (Michael W. Deem and Ramdas Pophale) SiO2 
 PCOD9528760
Probable space group: I B A M
;
_chemical_formula_sum "Si O2"
_cell_formula_units_Z 68
_cell_length_a 15.912166
_cell_length_b 21.108223
_cell_length_c 9.438711
_cell_angle_alpha 90.000000
_cell_angle_beta 90.000000
_cell_angle_gamma 90.000000
_cell_volume 3170.251110
_symmetry_space_group_name_H-M "I B A M"
_symmetry_group_IT_number 72
_symmetry_cell_setting 'orthorhombic'
loop_
_space_group_symop_operation_xyz
x,y,z
-x,-y,z
x,-y,1/2-z
-x,y,1/2-z
-x,-y,-z
x,y,-z
-x,y,1/2+z
x,-y,1/2+z
1/2+x,1/2+y,1/2+z
1/2-x,1/2-y,1/2+z
1/2+x,1/2-y,-z
1/2-x,1/2+y,-z
1/2-x,1/2-y,1/2-z
1/2+x,1/2+y,1/2-z
1/2-x,1/2+y,z
1/2+x,1/2-y,z
loop_
_atom_site_type_symbol
_atom_site_label
_atom_site_fract_x
_atom_site_fract_y
_atom_site_fract_z
Si Si1 0.087582 0.560201 0.167579
Si Si2 0.389513 0.618383 0.657526
Si Si3 0.693247 0.851669 0.659597
Si Si4 0.577604 0.260326 0.836558
Si Si5 0.500000 0.500000 0.750000
O O1 0.125953 0.500000 0.250000
O O2 0.147053 0.617155 0.208367
O O3 0.000000 0.569986 0.250000
O O4 0.077119 0.550984 0.000000
O O5 0.413453 0.641227 0.500000
O O6 0.288297 0.623443 0.661474
O O7 0.413823 0.668954 0.776912
O O8 0.435251 0.550485 0.677167
O O9 0.660317 0.869632 0.500000
O O10 0.665181 0.778279 0.674548
O O11 0.500000 0.229959 0.750000
O O12 0.555115 0.260017 0.000000
#
# Coordination Sequence:
#
# PCOD9528760 Si02
#       5
#    16  16  16  16   4
#     4  11  22  38  61  91 129 176 223 277 340 411
#     4  11  25  45  69  97 137 178 229 289 343 409
#     4  10  23  42  65  98 135 176 225 285 344 409
#     4  11  23  41  68  99 136 178 227 281 347 414
#     4  12  26  44  72 106 136 184 232 276 354 404
#
# _framework density 21.449404000000001
#
# number of rings (size 3 to 8) (size 9 to 14) (size 15 to 20)
#    0.000    1.176    1.176    5.294    1.647    5.647 
#    0.000    0.000    0.000    0.000    0.000    0.000 
#    0.000    0.000    0.000    0.000    0.000    0.000 
#
# Total GULP energy -189391.378130 kJ/mol
# GULP energy per Si atom -5570.334651 kJ/mol
# Density = 2.140058 g / cm^3
# Si number density = 21.449404 Si / 1000 Ang^3
#
#
#
# Elastic Constant Matrix: (Units=GPa)
#
#
# Indices 1 2 3 4 5 6 
#
# 1 96.5709 46.6023 50.9302 0.0000 0.0000 0.0000
# 2 46.6023 105.1647 48.5554 0.0000 0.0000 0.0000
# 3 50.9302 48.5554 183.7355 0.0000 0.0000 0.0000
# 4 0.0000 0.0000 0.0000 9.4402 0.0000 0.0000
# 5 0.0000 0.0000 0.0000 0.0000 2.7910 0.0000
# 6 0.0000 0.0000 0.0000 0.0000 0.0000 35.7418
#
#
#
# Elastic Compliance Matrix: (Units=1/GPa)
#
#
# Indices 1 2 3 4 5 6 
#
# 1 0.014173 -0.005087 -0.002584 0.000000 0.000000 0.000000
# 2 -0.005087 0.012656 -0.001935 0.000000 0.000000 0.000000
# 3 -0.002584 -0.001935 0.006670 0.000000 0.000000 0.000000
# 4 0.000000 0.000000 0.000000 0.105930 0.000000 0.000000
# 5 0.000000 0.000000 0.000000 0.000000 0.358292 0.000000
# 6 0.000000 0.000000 0.000000 0.000000 0.000000 0.027978
#
#
# Mechanical properties :
#
#
# Convention : Reuss Voigt Hill
#
# Bulk Modulus (GPa) = 69.99188 75.29412 72.64300
# Shear Modulus (GPa) = 9.09629 25.55349 17.32489
#
# Velocity S-wave (km/s) = 2.06156 3.45532 2.84511
# Velocity P-wave (km/s) = 6.19425 7.14831 6.68831
#
# Compressibility (1/GPa) = 0.01428737
#
# Stress axis : x y z
#
# Youngs Moduli (GPa) = 70.55667 79.01083 149.92141
#
# Poissons Ratio (x) = 0.40196 0.38743
# Poissons Ratio (y) = 0.35895 0.29002
# Poissons Ratio (z) = 0.18233 0.15285
#
# Static dielectric constant tensor:
#      x y z
#    x 1.855480 0.000000 0.000000 
#    y 0.000000 1.841260 0.000000 
#    z 0.000000 0.000000 1.751700 
# 
# From -- ./inp_files/4417.got.cif
#   From: 2010.05.17/outbox.cif.g08.bks.cpg/sg72_3_cif.got.tgz:4417.got - 2010.06.03 17:03:01.
