data_PCOD9528793
_publ_section_title
;
Structure prediction by ZEFSAII (Michael W. Deem and Ramdas Pophale) SiO2 
 PCOD9528793
Probable space group: I B A M
;
_chemical_formula_sum "Si O2"
_cell_formula_units_Z 80
_cell_length_a 14.331839
_cell_length_b 10.687695
_cell_length_c 23.434397
_cell_angle_alpha 90.000000
_cell_angle_beta 90.000000
_cell_angle_gamma 90.000000
_cell_volume 3589.547919
_symmetry_space_group_name_H-M "I B A M"
_symmetry_group_IT_number 72
_symmetry_cell_setting 'orthorhombic'
loop_
_space_group_symop_operation_xyz
x,y,z
-x,-y,z
x,-y,1/2-z
-x,y,1/2-z
-x,-y,-z
x,y,-z
-x,y,1/2+z
x,-y,1/2+z
1/2+x,1/2+y,1/2+z
1/2-x,1/2-y,1/2+z
1/2+x,1/2-y,-z
1/2-x,1/2+y,-z
1/2-x,1/2-y,1/2-z
1/2+x,1/2+y,1/2-z
1/2-x,1/2+y,z
1/2+x,1/2-y,z
loop_
_atom_site_type_symbol
_atom_site_label
_atom_site_fract_x
_atom_site_fract_y
_atom_site_fract_z
Si Si1 0.108951 0.526535 0.659693
Si Si2 0.394354 0.277275 0.727904
Si Si3 0.540768 0.366998 0.885252
Si Si4 0.347508 0.748885 0.652376
Si Si5 0.683673 0.813619 0.434695
O O1 0.133339 0.644369 0.699818
O O2 0.160705 0.395736 0.666851
O O3 0.129329 0.572698 0.595526
O O4 0.000000 0.500000 0.668858
O O5 0.500000 0.260287 0.750000
O O6 0.403266 0.373005 0.675235
O O7 0.340374 0.314331 0.785089
O O8 0.500000 0.500000 0.902088
O O9 0.450589 0.280025 0.872709
O O10 0.612652 0.303027 0.928091
O O11 0.273083 0.709463 0.605374
O O12 0.708106 0.835498 0.500000
#
# Coordination Sequence:
#
# PCOD9528793 Si02
#       5
#    16  16  16  16  16
#     4  11  20  41  68  99 126 169 223 276 336 390
#     4   9  18  36  69  97 133 166 207 272 332 401
#     4  10  23  43  66  97 137 175 219 267 338 398
#     4  11  23  40  68  99 133 174 220 268 340 391
#     4  11  27  45  64  95 133 178 234 277 316 382
#
# _framework density 22.286928
#
# number of rings (size 3 to 8) (size 9 to 14) (size 15 to 20)
#    0.000    1.600    6.000    0.600    2.800    9.200 
#    0.000    0.000    4.400    0.000    0.000    0.000 
#    0.000    0.000    0.000    0.000    0.000    0.000 
#
# Total GULP energy -223442.541459 kJ/mol
# GULP energy per Si atom -5586.063536 kJ/mol
# Density = 2.223620 g / cm^3
# Si number density = 22.286928 Si / 1000 Ang^3
#
#
#
# Elastic Constant Matrix: (Units=GPa)
#
#
# Indices 1 2 3 4 5 6 
#
# 1 101.7460 -8.5078 41.2169 0.0000 0.0000 0.0000
# 2 -8.5078 19.0939 -21.7941 0.0000 0.0000 0.0000
# 3 41.2169 -21.7941 127.9459 0.0000 0.0000 0.0000
# 4 0.0000 0.0000 0.0000 10.7843 0.0000 0.0000
# 5 0.0000 0.0000 0.0000 0.0000 13.7863 0.0000
# 6 0.0000 0.0000 0.0000 0.0000 0.0000 -5.0103
#
#
#
# Elastic Compliance Matrix: (Units=1/GPa)
#
#
# Indices 1 2 3 4 5 6 
#
# 1 0.011322 0.001095 -0.003461 0.000000 0.000000 0.000000
# 2 0.001095 0.065119 0.010740 0.000000 0.000000 0.000000
# 3 -0.003461 0.010740 0.010760 0.000000 0.000000 0.000000
# 4 0.000000 0.000000 0.000000 0.092727 0.000000 0.000000
# 5 0.000000 0.000000 0.000000 0.000000 0.072536 0.000000
# 6 0.000000 0.000000 0.000000 0.000000 0.000000 -0.199590
#
#
# Mechanical properties :
#
#
# Convention : Reuss Voigt Hill
#
# Bulk Modulus (GPa) = 9.62024 30.06840 19.84432
# Shear Modulus (GPa) = 70.64434 19.77012 45.20723
#
# Velocity S-wave (km/s) = 5.63618 2.98161 4.50868
# Velocity P-wave (km/s) = 6.83236 5.03727 6.00230
#
# Compressibility (1/GPa) = 0.10394753
#
# Stress axis : x y z
#
# Youngs Moduli (GPa) = 88.32449 15.35654 92.93630
#
# Poissons Ratio (x) = -0.01681 0.32164
# Poissons Ratio (y) = -0.09668 -0.99810
# Poissons Ratio (z) = 0.30568 -0.16492
#
# Static dielectric constant tensor:
#      x y z
#    x 1.853980 0.000000 0.000000 
#    y 0.000000 1.838440 0.000000 
#    z 0.000000 0.000000 1.807330 
# 
# From -- ./inp_files/44063.got.cif
#   From: 2010.05.17/outbox.cif.g08.bks.cpg/sg72_23_cif.got.tgz:44063.got - 2010.06.03 17:03:01.
