data_PCOD9528298
_publ_section_title
;
Structure prediction by ZEFSAII (Michael W. Deem and Ramdas Pophale) SiO2 
 PCOD9528298
Probable space group: I B A M
;
_chemical_formula_sum "Si O2"
_cell_formula_units_Z 88
_cell_length_a 13.859281
_cell_length_b 23.092505
_cell_length_c 14.680246
_cell_angle_alpha 90.000000
_cell_angle_beta 90.000000
_cell_angle_gamma 90.000000
_cell_volume 4698.346903
_symmetry_space_group_name_H-M "I B A M"
_symmetry_group_IT_number 72
_symmetry_cell_setting 'orthorhombic'
loop_
_space_group_symop_operation_xyz
x,y,z
-x,-y,z
x,-y,1/2-z
-x,y,1/2-z
-x,-y,-z
x,y,-z
-x,y,1/2+z
x,-y,1/2+z
1/2+x,1/2+y,1/2+z
1/2-x,1/2-y,1/2+z
1/2+x,1/2-y,-z
1/2-x,1/2+y,-z
1/2-x,1/2-y,1/2-z
1/2+x,1/2+y,1/2-z
1/2-x,1/2+y,z
1/2+x,1/2-y,z
loop_
_atom_site_type_symbol
_atom_site_label
_atom_site_fract_x
_atom_site_fract_y
_atom_site_fract_z
Si Si1 0.733165 0.445500 0.820191
Si Si2 0.441615 0.057930 0.500000
Si Si3 0.604098 0.772057 0.791926
Si Si4 0.883946 0.010752 0.500000
Si Si5 0.740879 0.595756 0.000000
Si Si6 0.770972 0.837449 0.687072
Si Si7 0.059307 0.609838 0.844338
O O1 0.729870 0.500000 0.750000
O O2 0.705579 0.387501 0.761901
O O3 0.845963 0.431433 0.845638
O O4 0.665034 0.459202 0.908700
O O5 0.328837 0.050622 0.500000
O O6 0.478222 0.092354 0.414094
O O7 0.500000 0.000000 0.500000
O O8 0.500000 0.761561 0.750000
O O9 0.676623 0.802237 0.719809
O O10 0.648046 0.711584 0.822131
O O11 0.593510 0.824525 0.863352
O O12 0.850853 0.944263 0.500000
O O13 0.000000 0.000000 0.500000
O O14 0.746680 0.632827 0.909118
O O15 0.000000 0.607982 0.750000
#
# Coordination Sequence:
#
# PCOD9528298 Si02
#       7
#    16   8  16   8   8  16  16
#     4  11  22  42  64  90 129 162 205 271 315 380
#     4  12  24  33  60  95 133 167 198 255 335 403
#     4   9  19  40  61  88 120 163 213 258 315 379
#     4  12  28  44  60  88 126 173 228 258 309 377
#     4  12  22  41  58  93 125 164 219 263 318 391
#     4  10  22  38  65  89 122 166 208 263 327 375
#     4  10  22  37  63  97 129 163 201 255 326 402
#
# _framework density 18.729991999999999
#
# number of rings (size 3 to 8) (size 9 to 14) (size 15 to 20)
#    0.000    1.455    1.818    4.909    2.545    2.545 
#    0.000    6.364    0.000    0.000    0.000    0.000 
#    0.000    0.000    0.000    0.000    0.000    0.000 
#
# Total GULP energy -245211.986702 kJ/mol
# GULP energy per Si atom -5572.999698 kJ/mol
# Density = 1.868736 g / cm^3
# Si number density = 18.729992 Si / 1000 Ang^3
#
#
#
# Elastic Constant Matrix: (Units=GPa)
#
#
# Indices 1 2 3 4 5 6 
#
# 1 121.7060 40.7982 12.5015 0.0000 0.0000 0.0000
# 2 40.7982 94.4399 22.0527 0.0005 -0.0001 -0.0001
# 3 12.5015 22.0527 81.9113 0.0006 0.0000 -0.0001
# 4 0.0000 0.0005 0.0006 15.4607 -0.0001 -0.0001
# 5 0.0000 -0.0001 0.0000 -0.0001 20.4426 0.0000
# 6 0.0000 -0.0001 -0.0001 -0.0001 0.0000 36.8335
#
#
#
# Elastic Compliance Matrix: (Units=1/GPa)
#
#
# Indices 1 2 3 4 5 6 
#
# 1 0.009619 -0.004068 -0.000373 0.000000 0.000000 0.000000
# 2 -0.004068 0.013020 -0.002884 0.000000 0.000000 0.000000
# 3 -0.000373 -0.002884 0.013042 0.000000 0.000000 0.000000
# 4 0.000000 0.000000 0.000000 0.064680 0.000000 0.000000
# 5 0.000000 0.000000 0.000000 0.000000 0.048917 0.000000
# 6 0.000000 0.000000 0.000000 0.000000 0.000000 0.027149
#
#
# Mechanical properties :
#
#
# Convention : Reuss Voigt Hill
#
# Bulk Modulus (GPa) = 47.55233 49.86243 48.70738
# Shear Modulus (GPa) = 25.24141 29.39436 27.31788
#
# Velocity S-wave (km/s) = 3.67501 3.96583 3.82319
# Velocity P-wave (km/s) = 6.59174 6.90289 6.74911
#
# Compressibility (1/GPa) = 0.02102947
#
# Stress axis : x y z
#
# Youngs Moduli (GPa) = 103.96584 76.80651 76.67670
#
# Poissons Ratio (x) = 0.31246 0.02858
# Poissons Ratio (y) = 0.42295 0.22116
# Poissons Ratio (z) = 0.03875 0.22154
#
# Static dielectric constant tensor:
#      x y z
#    x 1.644170 0.000000 0.000000 
#    y 0.000000 1.683220 0.000000 
#    z 0.000000 0.000000 1.617390 
# 
# From -- ./inp_files/20349.got.cif
#   From: 2010.05.17/outbox.cif.g08.bks.cpg/sg72_11_cif.got.tgz:20349.got - 2010.06.03 17:03:01.
