data_PCOD9528221
_publ_section_title
;
Structure prediction by ZEFSAII (Michael W. Deem and Ramdas Pophale) SiO2 
 PCOD9528221
Probable space group: I B A M
;
_chemical_formula_sum "Si O2"
_cell_formula_units_Z 64
_cell_length_a 9.468716
_cell_length_b 17.395725
_cell_length_c 15.689277
_cell_angle_alpha 90.000000
_cell_angle_beta 90.000000
_cell_angle_gamma 90.000000
_cell_volume 2584.262079
_symmetry_space_group_name_H-M "I B A M"
_symmetry_group_IT_number 72
_symmetry_cell_setting 'orthorhombic'
loop_
_space_group_symop_operation_xyz
x,y,z
-x,-y,z
x,-y,1/2-z
-x,y,1/2-z
-x,-y,-z
x,y,-z
-x,y,1/2+z
x,-y,1/2+z
1/2+x,1/2+y,1/2+z
1/2-x,1/2-y,1/2+z
1/2+x,1/2-y,-z
1/2-x,1/2+y,-z
1/2-x,1/2-y,1/2-z
1/2+x,1/2+y,1/2-z
1/2-x,1/2+y,z
1/2+x,1/2-y,z
loop_
_atom_site_type_symbol
_atom_site_label
_atom_site_fract_x
_atom_site_fract_y
_atom_site_fract_z
Si Si1 0.436099 0.077945 0.845884
Si Si2 0.834785 0.003605 0.603322
Si Si3 0.547217 0.760069 0.652973
Si Si4 0.310090 0.667978 0.402080
O O1 0.500000 0.079882 0.750000
O O2 0.483094 0.159579 0.883321
O O3 0.500000 0.000000 0.887222
O O4 0.267981 0.064478 0.851799
O O5 0.824849 0.012624 0.500000
O O6 0.782292 0.918126 0.628097
O O7 0.000000 0.000000 0.625577
O O8 0.500000 0.751979 0.750000
O O9 0.473977 0.689789 0.605525
O O10 0.713755 0.770812 0.646257
O O11 0.268957 0.672318 0.500000
#
# Coordination Sequence:
#
# PCOD9528221 Si02
#       4
#    16  16  16  16
#     4  10  21  42  68  92 128 169 220 270 321 391
#     4  10  23  42  65  97 134 171 217 274 332 390
#     4  11  24  43  67  91 133 174 219 268 329 397
#     4  11  24  42  64  97 131 170 221 271 326 393
#
# _framework density 24.76529
#
# number of rings (size 3 to 8) (size 9 to 14) (size 15 to 20)
#    0.000    1.500    2.500    1.500    3.500    2.500 
#    0.000    2.500    0.000    0.000    0.000    0.000 
#    0.000    0.000    0.000    0.000    0.000    0.000 
#
# Total GULP energy -178984.221263 kJ/mol
# GULP energy per Si atom -5593.256914 kJ/mol
# Density = 2.470892 g / cm^3
# Si number density = 24.765290 Si / 1000 Ang^3
#
#
#
# Elastic Constant Matrix: (Units=GPa)
#
#
# Indices 1 2 3 4 5 6 
#
# 1 146.8419 0.7255 25.9670 0.0000 0.0000 0.0000
# 2 0.7255 63.6352 -1.9955 0.0000 0.0000 0.0000
# 3 25.9670 -1.9955 65.7033 0.0000 0.0000 0.0000
# 4 0.0000 0.0000 0.0000 12.1744 0.0000 0.0000
# 5 0.0000 0.0000 0.0000 0.0000 33.9640 0.0000
# 6 0.0000 0.0000 0.0000 0.0000 0.0000 47.8262
#
#
#
# Elastic Compliance Matrix: (Units=1/GPa)
#
#
# Indices 1 2 3 4 5 6 
#
# 1 0.007324 -0.000174 -0.002900 0.000000 0.000000 0.000000
# 2 -0.000174 0.015734 0.000547 0.000000 0.000000 0.000000
# 3 -0.002900 0.000547 0.016383 0.000000 0.000000 0.000000
# 4 0.000000 0.000000 0.000000 0.082139 0.000000 0.000000
# 5 0.000000 0.000000 0.000000 0.000000 0.029443 0.000000
# 6 0.000000 0.000000 0.000000 0.000000 0.000000 0.020909
#
#
# Mechanical properties :
#
#
# Convention : Reuss Voigt Hill
#
# Bulk Modulus (GPa) = 29.08227 36.17493 32.62860
# Shear Modulus (GPa) = 26.53255 35.55848 31.04552
#
# Velocity S-wave (km/s) = 3.27672 3.79333 3.54445
# Velocity P-wave (km/s) = 5.10730 5.81590 5.47308
#
# Compressibility (1/GPa) = 0.03438521
#
# Stress axis : x y z
#
# Youngs Moduli (GPa) = 136.54325 63.55778 61.04050
#
# Poissons Ratio (x) = 0.01109 0.17700
# Poissons Ratio (y) = 0.02382 -0.03338
# Poissons Ratio (z) = 0.39594 -0.03475
#
# Static dielectric constant tensor:
#      x y z
#    x 2.008600 0.000000 0.000000 
#    y 0.000000 1.975810 0.000000 
#    z 0.000000 0.000000 1.932340 
# 
# From -- ./inp_files/27662.got.cif
#   From: 2010.05.17/outbox.cif.g08.bks.cpg/sg72_14_cif.got.tgz:27662.got - 2010.06.03 17:03:01.
