data_PCOD9528765
_publ_section_title
;
Structure prediction by ZEFSAII (Michael W. Deem and Ramdas Pophale) SiO2 
 PCOD9528765
Probable space group: I B A M
;
_chemical_formula_sum "Si O2"
_cell_formula_units_Z 88
_cell_length_a 5.738718
_cell_length_b 22.202950
_cell_length_c 31.579556
_cell_angle_alpha 90.000000
_cell_angle_beta 90.000000
_cell_angle_gamma 90.000000
_cell_volume 4023.755512
_symmetry_space_group_name_H-M "I B A M"
_symmetry_group_IT_number 72
_symmetry_cell_setting 'orthorhombic'
loop_
_space_group_symop_operation_xyz
x,y,z
-x,-y,z
x,-y,1/2-z
-x,y,1/2-z
-x,-y,-z
x,y,-z
-x,y,1/2+z
x,-y,1/2+z
1/2+x,1/2+y,1/2+z
1/2-x,1/2-y,1/2+z
1/2+x,1/2-y,-z
1/2-x,1/2+y,-z
1/2-x,1/2-y,1/2-z
1/2+x,1/2+y,1/2-z
1/2-x,1/2+y,z
1/2+x,1/2-y,z
loop_
_atom_site_type_symbol
_atom_site_label
_atom_site_fract_x
_atom_site_fract_y
_atom_site_fract_z
Si Si1 0.000000 0.500000 0.642195
Si Si2 0.380003 0.563101 0.413057
Si Si3 0.262916 0.881700 0.353912
Si Si4 0.133009 0.134549 0.500000
Si Si5 0.095802 0.724016 0.903823
Si Si6 0.370547 0.798915 0.500000
Si Si7 0.749169 0.680031 0.734072
O O1 0.157680 0.539978 0.611720
O O2 0.144586 0.446211 0.664171
O O3 0.500000 0.500000 0.424407
O O4 0.530215 0.601076 0.379292
O O5 0.355599 0.598453 0.456204
O O6 0.410540 0.845520 0.389446
O O7 0.245263 0.834542 0.315620
O O8 0.874365 0.164977 0.500000
O O9 0.381679 0.167763 0.500000
O O10 0.349602 0.748507 0.888488
O O11 0.118382 0.733288 0.954379
O O12 0.500000 0.654618 0.750000
O O13 0.750000 0.750000 0.750000
O O14 0.000000 0.655417 0.750000
#
# Coordination Sequence:
#
# PCOD9528765 Si02
#       7
#     8  16  16   8  16   8  16
#     4  10  24  45  75 104 148 196 244 312 364 448
#     4  10  23  42  67 105 141 198 247 308 361 428
#     4  11  25  45  77 105 147 187 249 298 385 443
#     4  12  23  40  70  98 146 192 254 307 358 420
#     4  12  27  42  71 101 142 197 246 303 365 439
#     4  12  24  45  60  96 144 197 243 304 359 430
#     4  10  25  46  74 109 144 179 230 304 370 445
#
# _framework density 21.870118000000002
#
# number of rings (size 3 to 8) (size 9 to 14) (size 15 to 20)
#    0.000    1.091    1.818    3.000   12.727    0.364 
#    0.000    0.455    0.000    0.000    0.000    0.000 
#    0.000    0.000    0.000    0.000    0.000    0.000 
#
# Total GULP energy -245134.151943 kJ/mol
# GULP energy per Si atom -5571.230726 kJ/mol
# Density = 2.182034 g / cm^3
# Si number density = 21.870118 Si / 1000 Ang^3
#
#
#
# Elastic Constant Matrix: (Units=GPa)
#
#
# Indices 1 2 3 4 5 6 
#
# 1 160.3034 55.6762 30.5177 0.0000 0.0000 0.0000
# 2 55.6762 108.1186 42.3231 0.0000 0.0000 0.0000
# 3 30.5177 42.3231 112.7300 0.0000 0.0000 0.0000
# 4 0.0000 0.0000 0.0000 28.5161 0.0000 0.0000
# 5 0.0000 0.0000 0.0000 0.0000 44.3659 0.0000
# 6 0.0000 0.0000 0.0000 0.0000 0.0000 48.0416
#
#
#
# Elastic Compliance Matrix: (Units=1/GPa)
#
#
# Indices 1 2 3 4 5 6 
#
# 1 0.007643 -0.003664 -0.000693 0.000000 0.000000 0.000000
# 2 -0.003664 0.012599 -0.003738 0.000000 0.000000 0.000000
# 3 -0.000693 -0.003738 0.010462 0.000000 0.000000 0.000000
# 4 0.000000 0.000000 0.000000 0.035068 0.000000 0.000000
# 5 0.000000 0.000000 0.000000 0.000000 0.022540 0.000000
# 6 0.000000 0.000000 0.000000 0.000000 0.000000 0.020815
#
#
# Mechanical properties :
#
#
# Convention : Reuss Voigt Hill
#
# Bulk Modulus (GPa) = 68.90693 70.90956 69.90824
# Shear Modulus (GPa) = 38.41526 41.02705 39.72116
#
# Velocity S-wave (km/s) = 4.19563 4.33591 4.26635
# Velocity P-wave (km/s) = 7.41936 7.58685 7.50357
#
# Compressibility (1/GPa) = 0.01451233
#
# Stress axis : x y z
#
# Youngs Moduli (GPa) = 130.84134 79.36868 95.58446
#
# Poissons Ratio (x) = 0.29083 0.06627
# Poissons Ratio (y) = 0.47945 0.35733
# Poissons Ratio (z) = 0.09071 0.29671
#
# Static dielectric constant tensor:
#      x y z
#    x 1.803440 0.000000 0.000000 
#    y 0.000000 2.006300 0.000000 
#    z 0.000000 0.000000 1.777480 
# 
# From -- ./inp_files/50320.got.cif
#   From: 2010.05.17/outbox.cif.g08.bks.cpg/sg72_26_cif.got.tgz:50320.got - 2010.06.03 17:03:01.
