data_PCOD9528215
_publ_section_title
;
Structure prediction by ZEFSAII (Michael W. Deem and Ramdas Pophale) SiO2 
 PCOD9528215
Probable space group: I B A M
;
_chemical_formula_sum "Si O2"
_cell_formula_units_Z 96
_cell_length_a 19.017859
_cell_length_b 11.226713
_cell_length_c 21.253421
_cell_angle_alpha 90.000000
_cell_angle_beta 90.000000
_cell_angle_gamma 90.000000
_cell_volume 4537.776364
_symmetry_space_group_name_H-M "I B A M"
_symmetry_group_IT_number 72
_symmetry_cell_setting 'orthorhombic'
loop_
_space_group_symop_operation_xyz
x,y,z
-x,-y,z
x,-y,1/2-z
-x,y,1/2-z
-x,-y,-z
x,y,-z
-x,y,1/2+z
x,-y,1/2+z
1/2+x,1/2+y,1/2+z
1/2-x,1/2-y,1/2+z
1/2+x,1/2-y,-z
1/2-x,1/2+y,-z
1/2-x,1/2-y,1/2-z
1/2+x,1/2+y,1/2-z
1/2-x,1/2+y,z
1/2+x,1/2-y,z
loop_
_atom_site_type_symbol
_atom_site_label
_atom_site_fract_x
_atom_site_fract_y
_atom_site_fract_z
Si Si1 0.447169 0.610472 0.500000
Si Si2 0.192194 0.655499 0.574242
Si Si3 0.339498 0.809883 0.286230
Si Si4 0.081832 0.474317 0.626368
Si Si5 0.953048 0.623058 0.500000
Si Si6 0.684430 0.345720 0.174241
Si Si7 0.343469 0.588470 0.381286
O O1 0.500000 0.500000 0.500000
O O2 0.483455 0.742622 0.500000
O O3 0.398222 0.599667 0.438130
O O4 0.182663 0.662859 0.500000
O O5 0.127266 0.587250 0.605783
O O6 0.197574 0.783496 0.607220
O O7 0.264304 0.586748 0.590630
O O8 0.389018 0.912506 0.311721
O O9 0.353584 0.750403 0.219000
O O10 0.259866 0.860265 0.291247
O O11 0.345965 0.701302 0.335387
O O12 0.089600 0.388943 0.564778
O O13 0.000000 0.500000 0.633981
O O14 0.000000 0.500000 0.500000
O O15 0.647338 0.469837 0.160540
#
# Coordination Sequence:
#
# PCOD9528215 Si02
#       7
#     8  16  16  16   8  16  16
#     4  12  26  41  68 102 137 178 231 288 359 424
#     4  11  23  38  63  99 132 167 227 284 341 408
#     4  10  21  42  66  93 133 175 231 274 340 413
#     4  11  22  40  69  95 134 176 227 280 342 405
#     4  10  22  41  66  96 134 182 222 275 351 419
#     4  10  23  39  66  98 132 176 223 285 341 410
#     4  11  22  41  66  96 128 179 222 286 346 410
#
# _framework density 21.155735
#
# number of rings (size 3 to 8) (size 9 to 14) (size 15 to 20)
#    0.000    1.333    5.000    0.500    1.167    3.333 
#    0.000    1.667    0.000    1.000    0.000    0.000 
#    0.000    0.000    0.000    0.000    0.000    0.000 
#
# Total GULP energy -268166.956981 kJ/mol
# GULP energy per Si atom -5586.811604 kJ/mol
# Density = 2.110758 g / cm^3
# Si number density = 21.155735 Si / 1000 Ang^3
#
#
#
# Elastic Constant Matrix: (Units=GPa)
#
#
# Indices 1 2 3 4 5 6 
#
# 1 61.9153 0.3280 21.2821 0.0000 0.0000 0.0000
# 2 0.3280 66.2212 31.3284 0.0000 0.0000 0.0000
# 3 21.2821 31.3284 125.8646 0.0000 0.0000 0.0000
# 4 0.0000 0.0000 0.0000 35.2933 0.0000 0.0000
# 5 0.0000 0.0000 0.0000 0.0000 18.0255 0.0000
# 6 0.0000 0.0000 0.0000 0.0000 0.0000 25.2720
#
#
#
# Elastic Compliance Matrix: (Units=1/GPa)
#
#
# Indices 1 2 3 4 5 6 
#
# 1 0.017273 0.001469 -0.003286 0.000000 0.000000 0.000000
# 2 0.001469 0.017241 -0.004540 0.000000 0.000000 0.000000
# 3 -0.003286 -0.004540 0.009631 0.000000 0.000000 0.000000
# 4 0.000000 0.000000 0.000000 0.028334 0.000000 0.000000
# 5 0.000000 0.000000 0.000000 0.000000 0.055477 0.000000
# 6 0.000000 0.000000 0.000000 0.000000 0.000000 0.039569
#
#
# Mechanical properties :
#
#
# Convention : Reuss Voigt Hill
#
# Bulk Modulus (GPa) = 31.81582 39.98648 35.90115
# Shear Modulus (GPa) = 26.21694 29.12235 27.66964
#
# Velocity S-wave (km/s) = 3.52410 3.71424 3.62042
# Velocity P-wave (km/s) = 5.62410 6.11033 5.87225
#
# Compressibility (1/GPa) = 0.03143091
#
# Stress axis : x y z
#
# Youngs Moduli (GPa) = 57.89411 58.00000 103.83438
#
# Poissons Ratio (x) = -0.08521 0.34123
# Poissons Ratio (y) = -0.08505 0.47140
# Poissons Ratio (z) = 0.19026 0.26331
#
# Static dielectric constant tensor:
#      x y z
#    x 1.765220 0.000000 0.000000 
#    y 0.000000 1.803420 0.000000 
#    z 0.000000 0.000000 1.784270 
# 
# From -- ./inp_files/39750.got.cif
#   From: 2010.05.17/outbox.cif.g08.bks.cpg/sg72_20_cif.got.tgz:39750.got - 2010.06.03 17:03:01.
