data_PCOD9528190
_publ_section_title
;
Structure prediction by ZEFSAII (Michael W. Deem and Ramdas Pophale) SiO2 
 PCOD9528190
Probable space group: I B A M
;
_chemical_formula_sum "Si O2"
_cell_formula_units_Z 52
_cell_length_a 11.621667
_cell_length_b 14.177211
_cell_length_c 14.029089
_cell_angle_alpha 90.000000
_cell_angle_beta 90.000000
_cell_angle_gamma 90.000000
_cell_volume 2311.472339
_symmetry_space_group_name_H-M "I B A M"
_symmetry_group_IT_number 72
_symmetry_cell_setting 'orthorhombic'
loop_
_space_group_symop_operation_xyz
x,y,z
-x,-y,z
x,-y,1/2-z
-x,y,1/2-z
-x,-y,-z
x,y,-z
-x,y,1/2+z
x,-y,1/2+z
1/2+x,1/2+y,1/2+z
1/2-x,1/2-y,1/2+z
1/2+x,1/2-y,-z
1/2-x,1/2+y,-z
1/2-x,1/2-y,1/2-z
1/2+x,1/2+y,1/2-z
1/2-x,1/2+y,z
1/2+x,1/2-y,z
loop_
_atom_site_type_symbol
_atom_site_label
_atom_site_fract_x
_atom_site_fract_y
_atom_site_fract_z
Si Si1 0.256519 0.178556 0.395830
Si Si2 0.870754 0.022153 0.609499
Si Si3 0.500000 0.000000 0.250000
Si Si4 0.673685 0.853917 0.808684
O O1 0.311122 0.189886 0.500000
O O2 0.333786 0.180748 0.300944
O O3 0.168168 0.264565 0.377559
O O4 0.195513 0.077371 0.393024
O O5 0.876182 0.057942 0.500000
O O6 0.796313 0.095289 0.670879
O O7 0.000000 0.000000 0.641190
O O8 0.579330 0.934759 0.183951
#
# Coordination Sequence:
#
# PCOD9528190 Si02
#       4
#    16  16   4  16
#     4  10  22  41  65  96 128 171 221 271 329 391
#     4  10  21  41  68  97 126 164 218 273 330 386
#     4  12  24  44  64 100 134 190 216 254 342 396
#     4  11  23  42  65  94 136 171 220 271 327 400
#
# _framework density 22.496483999999999
#
# number of rings (size 3 to 8) (size 9 to 14) (size 15 to 20)
#    0.000    1.538    3.077    0.923    0.000    7.385 
#    0.000   10.000    0.000    0.000    0.000    0.000 
#    0.000    0.000    0.000    0.000    0.000    0.000 
#
# Total GULP energy -145192.532784 kJ/mol
# GULP energy per Si atom -5584.328184 kJ/mol
# Density = 2.244528 g / cm^3
# Si number density = 22.496484 Si / 1000 Ang^3
#
#
#
# Elastic Constant Matrix: (Units=GPa)
#
#
# Indices 1 2 3 4 5 6 
#
# 1 51.1254 4.9720 11.5929 0.0000 0.0000 0.0000
# 2 4.9720 110.1505 20.0539 0.0000 0.0000 0.0000
# 3 11.5929 20.0539 153.3800 0.0000 0.0000 0.0000
# 4 0.0000 0.0000 0.0000 17.6618 0.0000 0.0000
# 5 0.0000 0.0000 0.0000 0.0000 15.7626 0.0000
# 6 0.0000 0.0000 0.0000 0.0000 0.0000 24.6118
#
#
#
# Elastic Compliance Matrix: (Units=1/GPa)
#
#
# Indices 1 2 3 4 5 6 
#
# 1 0.019945 -0.000641 -0.001424 0.000000 0.000000 0.000000
# 2 -0.000641 0.009320 -0.001170 0.000000 0.000000 0.000000
# 3 -0.001424 -0.001170 0.006780 0.000000 0.000000 0.000000
# 4 0.000000 0.000000 0.000000 0.056619 0.000000 0.000000
# 5 0.000000 0.000000 0.000000 0.000000 0.063441 0.000000
# 6 0.000000 0.000000 0.000000 0.000000 0.000000 0.040631
#
#
# Mechanical properties :
#
#
# Convention : Reuss Voigt Hill
#
# Bulk Modulus (GPa) = 33.81132 43.09927 38.45529
# Shear Modulus (GPa) = 23.46690 30.14303 26.80497
#
# Velocity S-wave (km/s) = 3.23327 3.66444 3.45558
# Velocity P-wave (km/s) = 5.38525 6.09130 5.74912
#
# Compressibility (1/GPa) = 0.02957590
#
# Stress axis : x y z
#
# Youngs Moduli (GPa) = 50.13808 107.29079 147.48496
#
# Poissons Ratio (x) = 0.06878 0.20997
# Poissons Ratio (y) = 0.03214 0.17258
# Poissons Ratio (z) = 0.07138 0.12555
#
# Static dielectric constant tensor:
#      x y z
#    x 1.841270 0.000000 0.000000 
#    y 0.000000 1.890040 0.000000 
#    z 0.000000 0.000000 1.860570 
# 
# From -- ./inp_files/19410.got.cif
#   From: 2010.05.17/outbox.cif.g08.bks.cpg/sg72_10_cif.got.tgz:19410.got - 2010.06.03 17:03:01.
