data_PCOD9528129
_publ_section_title
;
Structure prediction by ZEFSAII (Michael W. Deem and Ramdas Pophale) SiO2 
 PCOD9528129
Probable space group: I B A M
;
_chemical_formula_sum "Si O2"
_cell_formula_units_Z 96
_cell_length_a 8.976626
_cell_length_b 24.351317
_cell_length_c 19.868821
_cell_angle_alpha 90.000000
_cell_angle_beta 90.000000
_cell_angle_gamma 90.000000
_cell_volume 4343.178539
_symmetry_space_group_name_H-M "I B A M"
_symmetry_group_IT_number 72
_symmetry_cell_setting 'orthorhombic'
loop_
_space_group_symop_operation_xyz
x,y,z
-x,-y,z
x,-y,1/2-z
-x,y,1/2-z
-x,-y,-z
x,y,-z
-x,y,1/2+z
x,-y,1/2+z
1/2+x,1/2+y,1/2+z
1/2-x,1/2-y,1/2+z
1/2+x,1/2-y,-z
1/2-x,1/2+y,-z
1/2-x,1/2-y,1/2-z
1/2+x,1/2+y,1/2-z
1/2-x,1/2+y,z
1/2+x,1/2-y,z
loop_
_atom_site_type_symbol
_atom_site_label
_atom_site_fract_x
_atom_site_fract_y
_atom_site_fract_z
Si Si1 0.103999 0.238686 0.420787
Si Si2 0.679809 0.421879 0.740577
Si Si3 0.324007 0.999078 0.646692
Si Si4 0.813414 0.170308 0.578489
Si Si5 0.834235 0.800968 0.280245
Si Si6 0.592430 0.551997 0.575692
O O1 0.145602 0.229691 0.500000
O O2 0.157422 0.300658 0.401737
O O3 0.171352 0.201703 0.361159
O O4 0.931437 0.220407 0.416385
O O5 0.500000 0.428383 0.750000
O O6 0.761882 0.456847 0.797303
O O7 0.745745 0.444563 0.670138
O O8 0.723454 0.358866 0.745300
O O9 0.257424 0.973761 0.578892
O O10 0.500000 0.000000 0.648232
O O11 0.793884 0.156291 0.500000
O O12 0.888706 0.113854 0.606212
O O13 0.750000 0.750000 0.250000
O O14 0.000000 0.797284 0.250000
O O15 0.500000 0.500000 0.606322
O O16 0.533124 0.558851 0.500000
#
# Coordination Sequence:
#
# PCOD9528129 Si02
#       6
#    16  16  16  16  16  16
#     4  10  21  40  65  93 130 172 218 267 327 397
#     4  10  22  41  65  89 120 168 218 261 321 400
#     4  11  23  40  63  90 124 166 211 268 330 399
#     4   9  20  39  64  94 127 167 214 265 324 394
#     4  11  25  40  62  96 131 169 215 275 329 388
#     4  10  22  40  67  96 127 169 219 274 328 392
#
# _framework density 22.103629000000002
#
# number of rings (size 3 to 8) (size 9 to 14) (size 15 to 20)
#    0.000    1.833    0.000    4.000    9.333    1.667 
#    3.000    0.000    0.000    0.000    0.000    0.000 
#    0.000    0.000    0.000    0.000    0.000    0.000 
#
# Total GULP energy -267211.494044 kJ/mol
# GULP energy per Si atom -5566.906126 kJ/mol
# Density = 2.205332 g / cm^3
# Si number density = 22.103629 Si / 1000 Ang^3
#
#
#
# Elastic Constant Matrix: (Units=GPa)
#
#
# Indices 1 2 3 4 5 6 
#
# 1 100.0595 62.0193 -0.3922 0.0000 0.0000 0.0000
# 2 62.0193 175.0770 11.7637 0.0000 0.0000 0.0000
# 3 -0.3922 11.7637 84.8188 0.0000 0.0000 0.0000
# 4 0.0000 0.0000 0.0000 21.1502 0.0000 0.0000
# 5 0.0000 0.0000 0.0000 0.0000 24.7113 0.0000
# 6 0.0000 0.0000 0.0000 0.0000 0.0000 31.0582
#
#
#
# Elastic Compliance Matrix: (Units=1/GPa)
#
#
# Indices 1 2 3 4 5 6 
#
# 1 0.012846 -0.004598 0.000697 0.000000 0.000000 0.000000
# 2 -0.004598 0.007411 -0.001049 0.000000 0.000000 0.000000
# 3 0.000697 -0.001049 0.011939 0.000000 0.000000 0.000000
# 4 0.000000 0.000000 0.000000 0.047281 0.000000 0.000000
# 5 0.000000 0.000000 0.000000 0.000000 0.040467 0.000000
# 6 0.000000 0.000000 0.000000 0.000000 0.000000 0.032198
#
#
# Mechanical properties :
#
#
# Convention : Reuss Voigt Hill
#
# Bulk Modulus (GPa) = 44.84967 56.30410 50.57689
# Shear Modulus (GPa) = 29.50318 34.48824 31.99571
#
# Velocity S-wave (km/s) = 3.65741 3.95435 3.80877
# Velocity P-wave (km/s) = 6.17820 6.81008 6.50182
#
# Compressibility (1/GPa) = 0.02229671
#
# Stress axis : x y z
#
# Youngs Moduli (GPa) = 77.84241 134.93625 83.76217
#
# Poissons Ratio (x) = 0.62038 -0.05839
# Poissons Ratio (y) = 0.35789 0.08787
# Poissons Ratio (z) = -0.05426 0.14156
#
# Static dielectric constant tensor:
#      x y z
#    x 1.827690 0.000000 0.000000 
#    y 0.000000 1.862460 0.000000 
#    z 0.000000 0.000000 1.916290 
# 
# From -- ./inp_files/42427.got.cif
#   From: 2010.05.17/outbox.cif.g08.bks.cpg/sg72_22_cif.got.tgz:42427.got - 2010.06.03 17:03:01.
