data_PCOD9528649
_publ_section_title
;
Structure prediction by ZEFSAII (Michael W. Deem and Ramdas Pophale) SiO2 
 PCOD9528649
Probable space group: I B A M
;
_chemical_formula_sum "Si O2"
_cell_formula_units_Z 72
_cell_length_a 6.989451
_cell_length_b 24.082201
_cell_length_c 14.464989
_cell_angle_alpha 90.000000
_cell_angle_beta 90.000000
_cell_angle_gamma 90.000000
_cell_volume 2434.766677
_symmetry_space_group_name_H-M "I B A M"
_symmetry_group_IT_number 72
_symmetry_cell_setting 'orthorhombic'
loop_
_space_group_symop_operation_xyz
x,y,z
-x,-y,z
x,-y,1/2-z
-x,y,1/2-z
-x,-y,-z
x,y,-z
-x,y,1/2+z
x,-y,1/2+z
1/2+x,1/2+y,1/2+z
1/2-x,1/2-y,1/2+z
1/2+x,1/2-y,-z
1/2-x,1/2+y,-z
1/2-x,1/2-y,1/2-z
1/2+x,1/2+y,1/2-z
1/2-x,1/2+y,z
1/2+x,1/2-y,z
loop_
_atom_site_type_symbol
_atom_site_label
_atom_site_fract_x
_atom_site_fract_y
_atom_site_fract_z
Si Si1 0.353460 0.686323 0.104773
Si Si2 0.755853 0.497528 0.500000
Si Si3 0.879889 0.066500 0.677472
Si Si4 0.867766 0.572680 0.820482
Si Si5 0.594133 0.808894 0.394790
O O1 0.412666 0.631412 0.156631
O O2 0.385812 0.747347 0.146070
O O3 0.128452 0.680923 0.097075
O O4 0.431274 0.686771 0.000000
O O5 0.650751 0.536105 0.419610
O O6 0.859330 0.458258 0.580651
O O7 0.619273 0.065158 0.702026
O O8 0.872025 0.946594 0.706988
O O9 0.837701 0.638573 0.837484
O O10 0.671463 0.808117 0.500000
#
# Coordination Sequence:
#
# PCOD9528649 Si02
#       5
#    16   8  16  16  16
#     4  10  22  46  77 116 161 206 257 331 414 490
#     4  12  30  58  80 108 174 214 262 372 396 482
#     4  12  29  50  80 117 153 213 276 331 420 496
#     4  12  27  50  81 120 149 210 283 329 415 493
#     4  10  22  45  77 118 161 206 258 329 416 490
#
# _framework density 29.571622999999999
#
# number of rings (size 3 to 8) (size 9 to 14) (size 15 to 20)
#    0.000    0.889    4.444    0.667    3.111    8.889 
#    0.000    0.000    0.000    0.000    0.000    0.000 
#    0.000    0.000    0.000    0.000    0.000    0.000 
#
# Total GULP energy -200418.322289 kJ/mol
# GULP energy per Si atom -5567.175619 kJ/mol
# Density = 2.950432 g / cm^3
# Si number density = 29.571623 Si / 1000 Ang^3
#
#
#
# Elastic Constant Matrix: (Units=GPa)
#
#
# Indices 1 2 3 4 5 6 
#
# 1 225.5190 50.1784 106.0742 0.0000 0.0000 0.0000
# 2 50.1784 231.7576 174.7907 -0.0001 0.0000 0.0000
# 3 106.0742 174.7907 333.2061 -0.0004 0.0000 0.0000
# 4 0.0000 -0.0001 -0.0004 95.9255 0.0000 0.0000
# 5 0.0000 0.0000 0.0000 0.0000 18.8022 0.0000
# 6 0.0000 0.0000 0.0000 0.0000 0.0000 55.4089
#
#
#
# Elastic Compliance Matrix: (Units=1/GPa)
#
#
# Indices 1 2 3 4 5 6 
#
# 1 0.005221 0.000204 -0.001769 0.000000 0.000000 0.000000
# 2 0.000204 0.007147 -0.003814 0.000000 0.000000 0.000000
# 3 -0.001769 -0.003814 0.005565 0.000000 0.000000 0.000000
# 4 0.000000 0.000000 0.000000 0.010425 0.000000 0.000000
# 5 0.000000 0.000000 0.000000 0.000000 0.053185 0.000000
# 6 0.000000 0.000000 0.000000 0.000000 0.000000 0.018048
#
#
# Mechanical properties :
#
#
# Convention : Reuss Voigt Hill
#
# Bulk Modulus (GPa) = 139.37998 161.39659 150.38828
# Shear Modulus (GPa) = 44.34933 64.65661 54.50297
#
# Velocity S-wave (km/s) = 3.87683 4.68101 4.29777
# Velocity P-wave (km/s) = 8.20214 9.16038 8.69447
#
# Compressibility (1/GPa) = 0.00717463
#
# Stress axis : x y z
#
# Youngs Moduli (GPa) = 191.53773 139.91152 179.69231
#
# Poissons Ratio (x) = -0.02850 0.31786
# Poissons Ratio (y) = -0.03902 0.68538
# Poissons Ratio (z) = 0.33881 0.53365
#
# Static dielectric constant tensor:
#      x y z
#    x 3.370910 0.000000 0.000000 
#    y 0.000000 2.165740 0.000000 
#    z 0.000000 0.000000 2.130110 
# 
# From -- ./inp_files/27965.got.cif
#   From: 2010.05.17/outbox.cif.g08.bks.cpg/sg72_14_cif.got.tgz:27965.got - 2010.06.03 17:03:01.
