data_PCOD9528521
_publ_section_title
;
Structure prediction by ZEFSAII (Michael W. Deem and Ramdas Pophale) SiO2 
 PCOD9528521
Probable space group: I B A M
;
_chemical_formula_sum "Si O2"
_cell_formula_units_Z 64
_cell_length_a 7.190358
_cell_length_b 16.719191
_cell_length_c 20.720852
_cell_angle_alpha 90.000000
_cell_angle_beta 90.000000
_cell_angle_gamma 90.000000
_cell_volume 2490.998018
_symmetry_space_group_name_H-M "I B A M"
_symmetry_group_IT_number 72
_symmetry_cell_setting 'orthorhombic'
loop_
_space_group_symop_operation_xyz
x,y,z
-x,-y,z
x,-y,1/2-z
-x,y,1/2-z
-x,-y,-z
x,y,-z
-x,y,1/2+z
x,-y,1/2+z
1/2+x,1/2+y,1/2+z
1/2-x,1/2-y,1/2+z
1/2+x,1/2-y,-z
1/2-x,1/2+y,-z
1/2-x,1/2-y,1/2-z
1/2+x,1/2+y,1/2-z
1/2-x,1/2+y,z
1/2+x,1/2-y,z
loop_
_atom_site_type_symbol
_atom_site_label
_atom_site_fract_x
_atom_site_fract_y
_atom_site_fract_z
Si Si1 0.839025 0.580915 0.573779
Si Si2 0.947042 0.215257 0.426955
Si Si3 0.776520 0.922025 0.612147
Si Si4 0.349241 0.188050 0.703684
O O1 0.825663 0.553896 0.500000
O O2 0.748679 0.667742 0.577081
O O3 0.705286 0.517314 0.609754
O O4 0.055145 0.582108 0.592976
O O5 0.951982 0.252126 0.500000
O O6 0.932533 0.266101 0.359941
O O7 0.100381 0.143003 0.426624
O O8 0.786451 0.881777 0.681486
O O9 0.500000 0.149039 0.750000
O O10 0.250000 0.250000 0.750000
#
# Coordination Sequence:
#
# PCOD9528521 Si02
#       4
#    16  16  16  16
#     4  10  22  41  68 106 139 170 221 289 351 411
#     4  11  24  42  71 104 134 176 232 285 344 411
#     4  11  22  42  69  96 136 179 222 279 346 402
#     4  12  25  47  66  94 141 188 229 278 337 409
#
# _framework density 25.692512000000001
#
# number of rings (size 3 to 8) (size 9 to 14) (size 15 to 20)
#    0.000    1.000    2.500    5.250    0.000    5.000 
#    0.000    8.750    0.000    0.000    0.000    0.000 
#    0.000    0.000    0.000    0.000    0.000    0.000 
#
# Total GULP energy -178541.526897 kJ/mol
# GULP energy per Si atom -5579.422716 kJ/mol
# Density = 2.563403 g / cm^3
# Si number density = 25.692512 Si / 1000 Ang^3
#
#
#
# Elastic Constant Matrix: (Units=GPa)
#
#
# Indices 1 2 3 4 5 6 
#
# 1 71.7127 -17.2647 8.8849 0.0000 0.0000 0.0000
# 2 -17.2647 88.0244 59.1735 0.0000 0.0000 0.0000
# 3 8.8849 59.1735 142.9755 0.0000 0.0000 0.0000
# 4 0.0000 0.0000 0.0000 34.0458 0.0000 0.0000
# 5 0.0000 0.0000 0.0000 0.0000 49.4593 0.0000
# 6 0.0000 0.0000 0.0000 0.0000 0.0000 45.9815
#
#
#
# Elastic Compliance Matrix: (Units=1/GPa)
#
#
# Indices 1 2 3 4 5 6 
#
# 1 0.015562 0.005130 -0.003090 0.000000 0.000000 0.000000
# 2 0.005130 0.017430 -0.007533 0.000000 0.000000 0.000000
# 3 -0.003090 -0.007533 0.010304 0.000000 0.000000 0.000000
# 4 0.000000 0.000000 0.000000 0.029372 0.000000 0.000000
# 5 0.000000 0.000000 0.000000 0.000000 0.020219 0.000000
# 6 0.000000 0.000000 0.000000 0.000000 0.000000 0.021748
#
#
# Mechanical properties :
#
#
# Convention : Reuss Voigt Hill
#
# Bulk Modulus (GPa) = 30.95007 44.92225 37.93616
# Shear Modulus (GPa) = 36.65914 42.69190 39.67552
#
# Velocity S-wave (km/s) = 3.78145 4.08075 3.93395
# Velocity P-wave (km/s) = 5.58017 6.30285 5.95249
#
# Compressibility (1/GPa) = 0.03231011
#
# Stress axis : x y z
#
# Youngs Moduli (GPa) = 64.25775 57.37114 97.05151
#
# Poissons Ratio (x) = -0.29429 0.29990
# Poissons Ratio (y) = -0.32962 0.73106
# Poissons Ratio (z) = 0.19856 0.43216
#
# Static dielectric constant tensor:
#      x y z
#    x 2.295730 0.000000 0.000000 
#    y 0.000000 2.273070 0.000000 
#    z 0.000000 0.000000 2.011150 
# 
# From -- ./inp_files/38645.got.cif
#   From: 2010.05.17/outbox.cif.g08.bks.cpg/sg72_20_cif.got.tgz:38645.got - 2010.06.03 17:03:01.
