data_PCOD9528758
_publ_section_title
;
Structure prediction by ZEFSAII (Michael W. Deem and Ramdas Pophale) SiO2 
 PCOD9528758
Probable space group: I B A M
;
_chemical_formula_sum "Si O2"
_cell_formula_units_Z 52
_cell_length_a 11.892610
_cell_length_b 14.053597
_cell_length_c 13.821946
_cell_angle_alpha 90.000000
_cell_angle_beta 90.000000
_cell_angle_gamma 90.000000
_cell_volume 2310.116407
_symmetry_space_group_name_H-M "I B A M"
_symmetry_group_IT_number 72
_symmetry_cell_setting 'orthorhombic'
loop_
_space_group_symop_operation_xyz
x,y,z
-x,-y,z
x,-y,1/2-z
-x,y,1/2-z
-x,-y,-z
x,y,-z
-x,y,1/2+z
x,-y,1/2+z
1/2+x,1/2+y,1/2+z
1/2-x,1/2-y,1/2+z
1/2+x,1/2-y,-z
1/2-x,1/2+y,-z
1/2-x,1/2-y,1/2-z
1/2+x,1/2+y,1/2-z
1/2-x,1/2+y,z
1/2+x,1/2-y,z
loop_
_atom_site_type_symbol
_atom_site_label
_atom_site_fract_x
_atom_site_fract_y
_atom_site_fract_z
Si Si1 0.879379 0.163483 0.720586
Si Si2 0.815058 0.549525 0.611567
Si Si3 0.000000 0.500000 0.250000
Si Si4 0.712450 0.822399 0.390466
O O1 0.795689 0.093017 0.662139
O O2 0.817154 0.193278 0.819371
O O3 0.885507 0.256848 0.653228
O O4 0.000000 0.123978 0.750000
O O5 0.827948 0.580445 0.500000
O O6 0.808314 0.434774 0.610688
O O7 0.921423 0.564519 0.681135
O O8 0.735202 0.793839 0.500000
#
# Coordination Sequence:
#
# PCOD9528758 Si02
#       4
#    16  16   4  16
#     4  11  24  44  71 102 146 188 236 305 359 435
#     4  11  24  43  71 104 141 186 238 297 358 426
#     4  12  22  44  70  98 136 190 242 282 352 426
#     4  10  23  42  65 100 138 186 239 287 357 425
#
# _framework density 22.509689999999999
#
# number of rings (size 3 to 8) (size 9 to 14) (size 15 to 20)
#    0.000    1.231    3.077    1.385    2.154    4.923 
#    0.000    6.154    0.000    0.000    0.000    0.000 
#    0.000    0.000    0.000    0.000    0.000    0.000 
#
# Total GULP energy -145352.784830 kJ/mol
# GULP energy per Si atom -5590.491724 kJ/mol
# Density = 2.245846 g / cm^3
# Si number density = 22.509690 Si / 1000 Ang^3
#
#
#
# Elastic Constant Matrix: (Units=GPa)
#
#
# Indices 1 2 3 4 5 6 
#
# 1 154.8906 36.4830 81.6454 0.0000 0.0000 0.0000
# 2 36.4830 116.6325 37.7260 0.0000 0.0000 0.0000
# 3 81.6454 37.7260 233.9625 0.0000 0.0000 0.0000
# 4 0.0000 0.0000 0.0000 34.5505 0.0000 0.0000
# 5 0.0000 0.0000 0.0000 0.0000 15.4273 0.0000
# 6 0.0000 0.0000 0.0000 0.0000 0.0000 32.1366
#
#
#
# Elastic Compliance Matrix: (Units=1/GPa)
#
#
# Indices 1 2 3 4 5 6 
#
# 1 0.008232 -0.001736 -0.002593 0.000000 0.000000 0.000000
# 2 -0.001736 0.009412 -0.000912 0.000000 0.000000 0.000000
# 3 -0.002593 -0.000912 0.005326 0.000000 0.000000 0.000000
# 4 0.000000 0.000000 0.000000 0.028943 0.000000 0.000000
# 5 0.000000 0.000000 0.000000 0.000000 0.064820 0.000000
# 6 0.000000 0.000000 0.000000 0.000000 0.000000 0.031117
#
#
# Mechanical properties :
#
#
# Convention : Reuss Voigt Hill
#
# Bulk Modulus (GPa) = 80.07496 90.79939 85.43717
# Shear Modulus (GPa) = 30.77028 39.73162 35.25095
#
# Velocity S-wave (km/s) = 3.70128 4.20585 3.96161
# Velocity P-wave (km/s) = 7.34280 8.00069 7.67880
#
# Compressibility (1/GPa) = 0.01248830
#
# Stress axis : x y z
#
# Youngs Moduli (GPa) = 121.48058 106.24765 187.75967
#
# Poissons Ratio (x) = 0.18448 0.48679
# Poissons Ratio (y) = 0.21093 0.17119
# Poissons Ratio (z) = 0.31496 0.09687
#
# Static dielectric constant tensor:
#      x y z
#    x 1.836110 0.000000 0.000000 
#    y 0.000000 1.889720 0.000000 
#    z 0.000000 0.000000 1.832420 
# 
# From -- ./inp_files/19534.got.cif
#   From: 2010.05.17/outbox.cif.g08.bks.cpg/sg72_10_cif.got.tgz:19534.got - 2010.06.03 17:03:01.
