data_PCOD9528670
_publ_section_title
;
Structure prediction by ZEFSAII (Michael W. Deem and Ramdas Pophale) SiO2 
 PCOD9528670
Probable space group: I B A M
;
_chemical_formula_sum "Si O2"
_cell_formula_units_Z 56
_cell_length_a 5.179332
_cell_length_b 32.525271
_cell_length_c 14.797282
_cell_angle_alpha 90.000000
_cell_angle_beta 90.000000
_cell_angle_gamma 90.000000
_cell_volume 2492.737946
_symmetry_space_group_name_H-M "I B A M"
_symmetry_group_IT_number 72
_symmetry_cell_setting 'orthorhombic'
loop_
_space_group_symop_operation_xyz
x,y,z
-x,-y,z
x,-y,1/2-z
-x,y,1/2-z
-x,-y,-z
x,y,-z
-x,y,1/2+z
x,-y,1/2+z
1/2+x,1/2+y,1/2+z
1/2-x,1/2-y,1/2+z
1/2+x,1/2-y,-z
1/2-x,1/2+y,-z
1/2-x,1/2-y,1/2-z
1/2+x,1/2+y,1/2-z
1/2-x,1/2+y,z
1/2+x,1/2-y,z
loop_
_atom_site_type_symbol
_atom_site_label
_atom_site_fract_x
_atom_site_fract_y
_atom_site_fract_z
Si Si1 0.410094 0.341064 0.650105
Si Si2 0.246544 0.518732 0.351440
Si Si3 0.911206 0.608644 0.894887
Si Si4 0.248916 0.223435 0.000000
O O1 0.500000 0.328431 0.750000
O O2 0.671319 0.359998 0.608434
O O3 0.307045 0.304522 0.587483
O O4 0.171601 0.373775 0.651442
O O5 0.500000 0.500000 0.394676
O O6 0.248859 0.500000 0.250000
O O7 0.204468 0.567239 0.351176
O O8 0.000000 0.500000 0.398443
O O9 0.977545 0.600985 0.000000
O O10 0.539604 0.240041 0.000000
#
# Coordination Sequence:
#
# PCOD9528670 Si02
#       4
#    16  16  16   8
#     4  12  27  46  76 114 143 196 249 291 378 454
#     4  10  23  38  60  96 140 188 248 297 372 402
#     4  12  24  45  72 102 152 195 250 314 365 443
#     4  12  26  50  80 110 156 182 232 316 374 446
#
# _framework density 22.465257999999999
#
# number of rings (size 3 to 8) (size 9 to 14) (size 15 to 20)
#    0.000    0.571    2.857    4.286   12.000    2.286 
#    0.000    0.000    0.000    0.000    0.000    0.000 
#    0.000    0.000    0.000    0.000    0.000    0.000 
#
# Total GULP energy -156559.064473 kJ/mol
# GULP energy per Si atom -5591.395160 kJ/mol
# Density = 2.241413 g / cm^3
# Si number density = 22.465258 Si / 1000 Ang^3
#
#
#
# Elastic Constant Matrix: (Units=GPa)
#
#
# Indices 1 2 3 4 5 6 
#
# 1 161.1881 7.9871 -1.8251 0.0000 0.0000 0.0000
# 2 7.9871 75.2818 27.3013 0.0000 0.0000 0.0000
# 3 -1.8251 27.3013 131.2233 0.0000 0.0000 0.0000
# 4 0.0000 0.0000 0.0000 29.1102 0.0000 0.0000
# 5 0.0000 0.0000 0.0000 0.0000 -17.9334 0.0000
# 6 0.0000 0.0000 0.0000 0.0000 0.0000 -8.4906
#
#
#
# Elastic Compliance Matrix: (Units=1/GPa)
#
#
# Indices 1 2 3 4 5 6 
#
# 1 0.006244 -0.000751 0.000243 0.000000 0.000000 0.000000
# 2 -0.000751 0.014458 -0.003018 0.000000 0.000000 0.000000
# 3 0.000243 -0.003018 0.008252 0.000000 0.000000 0.000000
# 4 0.000000 0.000000 0.000000 0.034352 0.000000 0.000000
# 5 0.000000 0.000000 0.000000 0.000000 -0.055762 0.000000
# 6 0.000000 0.000000 0.000000 0.000000 0.000000 -0.117777
#
#
# Mechanical properties :
#
#
# Convention : Reuss Voigt Hill
#
# Bulk Modulus (GPa) = 45.65880 48.29109 46.97495
# Shear Modulus (GPa) = -52.14809 22.81923 -14.66443
#
# Velocity S-wave (km/s) = -4.82319 3.19055 -2.55769
# Velocity P-wave (km/s) = 3.26332 5.92582 3.49758
#
# Compressibility (1/GPa) = 0.02190158
#
# Stress axis : x y z
#
# Youngs Moduli (GPa) = 160.15690 69.16737 121.18328
#
# Poissons Ratio (x) = 0.05192 -0.02945
# Poissons Ratio (y) = 0.12021 0.36578
# Poissons Ratio (z) = -0.03892 0.20877
#
# Static dielectric constant tensor:
#      x y z
#    x 1.825010 0.000000 0.000000 
#    y 0.000000 1.873610 0.000000 
#    z 0.000000 0.000000 1.828060 
# 
# From -- ./inp_files/17549.got.cif
#   From: 2010.05.17/outbox.cif.g08.bks.cpg/sg72_9_cif.got.tgz:17549.got - 2010.06.03 17:03:01.
