data_PCOD9528504
_publ_section_title
;
Structure prediction by ZEFSAII (Michael W. Deem and Ramdas Pophale) SiO2 
 PCOD9528504
Probable space group: I B A M
;
_chemical_formula_sum "Si O2"
_cell_formula_units_Z 72
_cell_length_a 22.454925
_cell_length_b 15.444042
_cell_length_c 10.559238
_cell_angle_alpha 90.000000
_cell_angle_beta 90.000000
_cell_angle_gamma 90.000000
_cell_volume 3661.888881
_symmetry_space_group_name_H-M "I B A M"
_symmetry_group_IT_number 72
_symmetry_cell_setting 'orthorhombic'
loop_
_space_group_symop_operation_xyz
x,y,z
-x,-y,z
x,-y,1/2-z
-x,y,1/2-z
-x,-y,-z
x,y,-z
-x,y,1/2+z
x,-y,1/2+z
1/2+x,1/2+y,1/2+z
1/2-x,1/2-y,1/2+z
1/2+x,1/2-y,-z
1/2-x,1/2+y,-z
1/2-x,1/2-y,1/2-z
1/2+x,1/2+y,1/2-z
1/2-x,1/2+y,z
1/2+x,1/2-y,z
loop_
_atom_site_type_symbol
_atom_site_label
_atom_site_fract_x
_atom_site_fract_y
_atom_site_fract_z
Si Si1 0.839120 0.400241 0.762021
Si Si2 0.570567 0.403211 0.749059
Si Si3 0.626069 0.335932 0.000000
Si Si4 0.944935 0.273219 0.851657
Si Si5 0.759635 0.352128 0.000000
Si Si6 0.300336 0.825214 0.000000
O O1 0.858160 0.500000 0.750000
O O2 0.894734 0.338492 0.798005
O O3 0.793122 0.385089 0.876479
O O4 0.805813 0.376266 0.630692
O O5 0.597412 0.500000 0.750000
O O6 0.500000 0.414233 0.750000
O O7 0.581308 0.325474 0.650458
O O8 0.590175 0.361713 0.879158
O O9 0.690845 0.380713 0.000000
O O10 0.640776 0.235100 0.000000
O O11 0.000000 0.276208 0.750000
O O12 0.960104 0.293207 0.000000
O O13 0.752484 0.246616 0.000000
#
# Coordination Sequence:
#
# PCOD9528504 Si02
#       6
#    16  16   8  16   8   8
#     4  12  24  44  69 102 132 177 223 275 331 400
#     4  10  23  38  65  96 133 174 220 273 334 396
#     4  10  22  41  65  94 134 169 222 268 338 387
#     4  11  25  43  66  97 136 177 225 276 340 397
#     4  10  23  45  67  95 127 177 225 266 335 389
#     4  10  23  41  68  91 136 170 215 281 325 380
#
# _framework density 19.661985000000001
#
# number of rings (size 3 to 8) (size 9 to 14) (size 15 to 20)
#    0.667    0.667    3.333    1.333    9.333    2.222 
#    0.000    3.333    0.000    0.000    0.000    0.000 
#    0.000    0.000    0.000    0.000    0.000    0.000 
#
# Total GULP energy -200467.694339 kJ/mol
# GULP energy per Si atom -5568.547065 kJ/mol
# Density = 1.961723 g / cm^3
# Si number density = 19.661985 Si / 1000 Ang^3
#
#
#
# Elastic Constant Matrix: (Units=GPa)
#
#
# Indices 1 2 3 4 5 6 
#
# 1 77.1973 20.3680 44.2069 0.0000 0.0000 0.0000
# 2 20.3680 136.7419 32.9068 0.0000 0.0000 0.0000
# 3 44.2069 32.9068 175.3731 0.0000 0.0000 0.0000
# 4 0.0000 0.0000 0.0000 6.5293 0.0000 0.0000
# 5 0.0000 0.0000 0.0000 0.0000 31.8397 0.0000
# 6 0.0000 0.0000 0.0000 0.0000 0.0000 23.7405
#
#
#
# Elastic Compliance Matrix: (Units=1/GPa)
#
#
# Indices 1 2 3 4 5 6 
#
# 1 0.015399 -0.001424 -0.003615 0.000000 0.000000 0.000000
# 2 -0.001424 0.007791 -0.001103 0.000000 0.000000 0.000000
# 3 -0.003615 -0.001103 0.006820 0.000000 0.000000 0.000000
# 4 0.000000 0.000000 0.000000 0.153155 0.000000 0.000000
# 5 0.000000 0.000000 0.000000 0.000000 0.031407 0.000000
# 6 0.000000 0.000000 0.000000 0.000000 0.000000 0.042122
#
#
# Mechanical properties :
#
#
# Convention : Reuss Voigt Hill
#
# Bulk Modulus (GPa) = 56.40992 64.91953 60.66473
# Shear Modulus (GPa) = 18.18933 31.87728 25.03330
#
# Velocity S-wave (km/s) = 3.04485 4.03086 3.57204
# Velocity P-wave (km/s) = 6.41199 7.39954 6.92340
#
# Compressibility (1/GPa) = 0.01772738
#
# Stress axis : x y z
#
# Youngs Moduli (GPa) = 64.93750 128.36067 146.62291
#
# Poissons Ratio (x) = 0.18278 0.52998
# Poissons Ratio (y) = 0.09247 0.16171
# Poissons Ratio (z) = 0.23472 0.14157
#
# Static dielectric constant tensor:
#      x y z
#    x 1.679750 0.000000 0.000000 
#    y 0.000000 1.757250 0.000000 
#    z 0.000000 0.000000 1.677090 
# 
# From -- ./inp_files/7849.got.cif
#   From: 2010.05.17/outbox.cif.g08.bks.cpg/sg72_4_cif.got.tgz:7849.got - 2010.06.03 17:03:01.
