data_PCOD9528908
_publ_section_title
;
Structure prediction by ZEFSAII (Michael W. Deem and Ramdas Pophale) SiO2 
 PCOD9528908
Probable space group: I B A M
;
_chemical_formula_sum "Si O2"
_cell_formula_units_Z 80
_cell_length_a 7.480628
_cell_length_b 13.311746
_cell_length_c 30.788404
_cell_angle_alpha 90.000000
_cell_angle_beta 90.000000
_cell_angle_gamma 90.000000
_cell_volume 3065.916039
_symmetry_space_group_name_H-M "I B A M"
_symmetry_group_IT_number 72
_symmetry_cell_setting 'orthorhombic'
loop_
_space_group_symop_operation_xyz
x,y,z
-x,-y,z
x,-y,1/2-z
-x,y,1/2-z
-x,-y,-z
x,y,-z
-x,y,1/2+z
x,-y,1/2+z
1/2+x,1/2+y,1/2+z
1/2-x,1/2-y,1/2+z
1/2+x,1/2-y,-z
1/2-x,1/2+y,-z
1/2-x,1/2-y,1/2-z
1/2+x,1/2+y,1/2-z
1/2-x,1/2+y,z
1/2+x,1/2-y,z
loop_
_atom_site_type_symbol
_atom_site_label
_atom_site_fract_x
_atom_site_fract_y
_atom_site_fract_z
Si Si1 0.708185 0.129165 0.851881
Si Si2 0.833015 0.928801 0.827254
Si Si3 0.097259 0.286048 0.704918
Si Si4 0.465755 0.681073 0.090405
Si Si5 0.899546 0.606945 0.551663
O O1 0.824558 0.184102 0.814067
O O2 0.516363 0.167980 0.835228
O O3 0.832911 0.144816 0.895429
O O4 0.702377 0.010921 0.846858
O O5 0.751543 0.868663 0.787958
O O6 0.866394 0.844631 0.864103
O O7 0.504661 0.794002 0.926875
O O8 0.000000 0.276768 0.750000
O O9 0.500000 0.500000 0.181634
O O10 0.317415 0.622071 0.060548
O O11 0.923311 0.615809 0.500000
O O12 0.000000 0.500000 0.563647
#
# Coordination Sequence:
#
# PCOD9528908 Si02
#       5
#    16  16  16  16  16
#     4  11  24  43  68 104 142 194 255 309 375 453
#     4  10  24  44  69 102 141 194 256 312 378 450
#     4  12  25  45  72 105 151 200 256 322 391 460
#     4  11  24  45  73 103 149 197 249 314 372 456
#     4  11  26  48  77 114 154 199 251 316 394 467
#
# _framework density 26.093342
#
# number of rings (size 3 to 8) (size 9 to 14) (size 15 to 20)
#    0.000    1.000    0.000    6.600    0.000   11.200 
#    0.000    5.000    0.000   14.400    0.000    0.000 
#    0.000    0.000    0.000    0.000    0.000    0.000 
#
# Total GULP energy -222748.665142 kJ/mol
# GULP energy per Si atom -5568.716629 kJ/mol
# Density = 2.603395 g / cm^3
# Si number density = 26.093342 Si / 1000 Ang^3
#
#
#
# Elastic Constant Matrix: (Units=GPa)
#
#
# Indices 1 2 3 4 5 6 
#
# 1 158.9129 67.6038 78.7110 0.0000 0.0000 0.0000
# 2 67.6038 215.0212 74.1444 0.0000 0.0000 0.0000
# 3 78.7110 74.1444 93.9206 0.0000 0.0000 0.0000
# 4 0.0000 0.0000 0.0000 -16.1785 0.0000 0.0000
# 5 0.0000 0.0000 0.0000 0.0000 44.4768 0.0000
# 6 0.0000 0.0000 0.0000 0.0000 0.0000 64.5744
#
#
#
# Elastic Compliance Matrix: (Units=1/GPa)
#
#
# Indices 1 2 3 4 5 6 
#
# 1 0.010781 -0.000377 -0.008738 0.000000 0.000000 0.000000
# 2 -0.000377 0.006403 -0.004739 0.000000 0.000000 0.000000
# 3 -0.008738 -0.004739 0.021711 0.000000 0.000000 0.000000
# 4 0.000000 0.000000 0.000000 -0.061810 0.000000 0.000000
# 5 0.000000 0.000000 0.000000 0.000000 0.022484 0.000000
# 6 0.000000 0.000000 0.000000 0.000000 0.000000 0.015486
#
#
# Mechanical properties :
#
#
# Convention : Reuss Voigt Hill
#
# Bulk Modulus (GPa) = 89.37956 100.97480 95.17718
# Shear Modulus (GPa) = 107.54568 35.06757 71.30662
#
# Velocity S-wave (km/s) = 6.42691 3.66994 5.23324
# Velocity P-wave (km/s) = 9.45525 7.53256 8.54814
#
# Compressibility (1/GPa) = 0.01118824
#
# Stress axis : x y z
#
# Youngs Moduli (GPa) = 92.75754 156.16734 46.05861
#
# Poissons Ratio (x) = 0.05881 0.40244
# Poissons Ratio (y) = 0.03493 0.21829
# Poissons Ratio (z) = 0.81048 0.74015
#
# Static dielectric constant tensor:
#      x y z
#    x 2.475050 0.000000 0.000000 
#    y 0.000000 2.064010 0.000000 
#    z 0.000000 0.000000 2.057710 
# 
# From -- ./inp_files/47190.got.cif
#   From: 2010.05.17/outbox.cif.g08.bks.cpg/sg72_24_cif.got.tgz:47190.got - 2010.06.03 17:03:01.
