data_PCOD9528468
_publ_section_title
;
Structure prediction by ZEFSAII (Michael W. Deem and Ramdas Pophale) SiO2 
 PCOD9528468
Probable space group: I B A M
;
_chemical_formula_sum "Si O2"
_cell_formula_units_Z 88
_cell_length_a 23.035290
_cell_length_b 13.085180
_cell_length_c 14.528470
_cell_angle_alpha 90.000000
_cell_angle_beta 90.000000
_cell_angle_gamma 90.000000
_cell_volume 4379.184736
_symmetry_space_group_name_H-M "I B A M"
_symmetry_group_IT_number 72
_symmetry_cell_setting 'orthorhombic'
loop_
_space_group_symop_operation_xyz
x,y,z
-x,-y,z
x,-y,1/2-z
-x,y,1/2-z
-x,-y,-z
x,y,-z
-x,y,1/2+z
x,-y,1/2+z
1/2+x,1/2+y,1/2+z
1/2-x,1/2-y,1/2+z
1/2+x,1/2-y,-z
1/2-x,1/2+y,-z
1/2-x,1/2-y,1/2-z
1/2+x,1/2+y,1/2-z
1/2-x,1/2+y,z
1/2+x,1/2-y,z
loop_
_atom_site_type_symbol
_atom_site_label
_atom_site_fract_x
_atom_site_fract_y
_atom_site_fract_z
Si Si1 0.091120 0.066558 0.500000
Si Si2 0.960532 0.847061 0.000000
Si Si3 0.066943 0.473820 0.891655
Si Si4 0.059947 0.735247 0.693160
Si Si5 0.242517 0.000000 0.250000
Si Si6 0.675593 0.889612 0.107796
Si Si7 0.153587 0.165528 0.324752
O O1 0.123860 0.106681 0.409750
O O2 0.026672 0.113908 0.500000
O O3 0.081955 0.944925 0.500000
O O4 0.951513 0.783856 0.906847
O O5 0.083545 0.378266 0.828377
O O6 0.109775 0.568998 0.879554
O O7 0.000000 0.500000 0.872657
O O8 0.070711 0.445124 0.000000
O O9 0.105118 0.803349 0.749905
O O10 0.000000 0.729311 0.750000
O O11 0.282768 0.039582 0.167540
O O12 0.202022 0.093026 0.281919
O O13 0.678969 0.772652 0.139080
O O14 0.689408 0.897717 0.000000
#
# Coordination Sequence:
#
# PCOD9528468 Si02
#       7
#     8   8  16  16   8  16  16
#     4  11  24  44  67  94 139 179 229 284 338 413
#     4  11  24  42  62 101 142 184 222 274 342 413
#     4  10  22  40  69 104 141 175 220 274 346 418
#     4  12  23  40  68 102 141 181 227 283 343 417
#     4  12  28  48  68 102 134 182 244 292 346 420
#     4  11  25  46  73 102 139 179 229 292 353 411
#     4  12  25  46  72  99 134 183 233 285 353 415
#
# _framework density 20.095064000000001
#
# number of rings (size 3 to 8) (size 9 to 14) (size 15 to 20)
#    0.000    0.727    3.636    3.818    1.273    1.818 
#    1.636    1.818    0.000    0.000    0.000    0.000 
#    0.000    0.000    0.000    0.000    0.000    0.000 
#
# Total GULP energy -246327.716046 kJ/mol
# GULP energy per Si atom -5598.357183 kJ/mol
# Density = 2.004933 g / cm^3
# Si number density = 20.095064 Si / 1000 Ang^3
#
#
#
# Elastic Constant Matrix: (Units=GPa)
#
#
# Indices 1 2 3 4 5 6 
#
# 1 92.9369 41.9174 43.6513 0.0000 0.0000 0.0000
# 2 41.9174 116.8474 50.9717 0.0000 0.0000 0.0000
# 3 43.6513 50.9717 154.9661 0.0000 0.0000 0.0000
# 4 0.0000 0.0000 0.0000 24.1949 0.0000 0.0000
# 5 0.0000 0.0000 0.0000 0.0000 38.8608 0.0000
# 6 0.0000 0.0000 0.0000 0.0000 0.0000 -9.6125
#
#
#
# Elastic Compliance Matrix: (Units=1/GPa)
#
#
# Indices 1 2 3 4 5 6 
#
# 1 0.013689 -0.003770 -0.002616 0.000000 0.000000 0.000000
# 2 -0.003770 0.011030 -0.002566 0.000000 0.000000 0.000000
# 3 -0.002616 -0.002566 0.008034 0.000000 0.000000 0.000000
# 4 0.000000 0.000000 0.000000 0.041331 0.000000 0.000000
# 5 0.000000 0.000000 0.000000 0.000000 0.025733 0.000000
# 6 0.000000 0.000000 0.000000 0.000000 0.000000 -0.104031
#
#
# Mechanical properties :
#
#
# Convention : Reuss Voigt Hill
#
# Bulk Modulus (GPa) = 67.34330 70.87015 69.10672
# Shear Modulus (GPa) = 268.25918 25.90263 147.08090
#
# Velocity S-wave (km/s) = 11.56654 3.59417 8.56455
# Velocity P-wave (km/s) = 14.55902 7.25038 11.50072
#
# Compressibility (1/GPa) = 0.01484929
#
# Stress axis : x y z
#
# Youngs Moduli (GPa) = 73.05195 90.66307 124.47133
#
# Poissons Ratio (x) = 0.34176 0.32562
# Poissons Ratio (y) = 0.27537 0.31941
# Poissons Ratio (z) = 0.19111 0.23265
#
# Static dielectric constant tensor:
#      x y z
#    x 1.670060 0.000000 0.000000 
#    y 0.000000 1.701100 0.000000 
#    z 0.000000 0.000000 1.698180 
# 
# From -- ./inp_files/25861.got.cif
#   From: 2010.05.17/outbox.cif.g08.bks.cpg/sg72_13_cif.got.tgz:25861.got - 2010.06.03 17:03:01.
