data_PCOD9528753
_publ_section_title
;
Structure prediction by ZEFSAII (Michael W. Deem and Ramdas Pophale) SiO2 
 PCOD9528753
Probable space group: I B A M
;
_chemical_formula_sum "Si O2"
_cell_formula_units_Z 96
_cell_length_a 20.511949
_cell_length_b 13.805305
_cell_length_c 17.157017
_cell_angle_alpha 90.000000
_cell_angle_beta 90.000000
_cell_angle_gamma 90.000000
_cell_volume 4858.416192
_symmetry_space_group_name_H-M "I B A M"
_symmetry_group_IT_number 72
_symmetry_cell_setting 'orthorhombic'
loop_
_space_group_symop_operation_xyz
x,y,z
-x,-y,z
x,-y,1/2-z
-x,y,1/2-z
-x,-y,-z
x,y,-z
-x,y,1/2+z
x,-y,1/2+z
1/2+x,1/2+y,1/2+z
1/2-x,1/2-y,1/2+z
1/2+x,1/2-y,-z
1/2-x,1/2+y,-z
1/2-x,1/2-y,1/2-z
1/2+x,1/2+y,1/2-z
1/2-x,1/2+y,z
1/2+x,1/2-y,z
loop_
_atom_site_type_symbol
_atom_site_label
_atom_site_fract_x
_atom_site_fract_y
_atom_site_fract_z
Si Si1 0.112388 0.300244 0.817930
Si Si2 0.147905 0.632639 0.852770
Si Si3 0.158940 0.833702 0.091450
Si Si4 0.422454 0.611886 0.737110
Si Si5 0.707083 0.933685 0.408200
Si Si6 0.495322 0.114808 0.089046
O O1 0.128291 0.354200 0.736932
O O2 0.112302 0.187006 0.796072
O O3 0.164338 0.343520 0.877933
O O4 0.041793 0.329648 0.851326
O O5 0.185236 0.727727 0.882901
O O6 0.183603 0.531989 0.867347
O O7 0.080231 0.637532 0.900010
O O8 0.100245 0.857913 0.150365
O O9 0.217403 0.909211 0.104688
O O10 0.141744 0.833967 0.000000
O O11 0.405133 0.500000 0.750000
O O12 0.500000 0.622328 0.750000
O O13 0.695656 0.946094 0.500000
O O14 0.500000 0.000000 0.103524
O O15 0.515832 0.134248 0.000000
#
# Coordination Sequence:
#
# PCOD9528753 Si02
#       6
#    16  16  16  16  16  16
#     4  11  22  37  61  92 122 165 206 251 312 376
#     4  11  22  38  61  89 126 166 206 255 310 373
#     4  10  23  42  64  87 121 166 205 247 309 374
#     4  10  23  44  65  89 119 155 207 264 306 356
#     4  11  23  38  58  91 127 160 204 250 301 368
#     4  11  21  34  59  94 132 164 198 253 318 379
#
# _framework density 19.759525
#
# number of rings (size 3 to 8) (size 9 to 14) (size 15 to 20)
#    0.000    1.333    1.667    5.000    0.000    6.000 
#    0.000    5.833    0.000    0.000    0.000    0.000 
#    0.000    0.000    0.000    0.000    0.000    0.000 
#
# Total GULP energy -268171.961978 kJ/mol
# GULP energy per Si atom -5586.915875 kJ/mol
# Density = 1.971455 g / cm^3
# Si number density = 19.759525 Si / 1000 Ang^3
#
#
#
# Elastic Constant Matrix: (Units=GPa)
#
#
# Indices 1 2 3 4 5 6 
#
# 1 61.8633 36.4172 28.4171 0.0000 0.0000 0.0000
# 2 36.4172 138.7236 56.5298 0.0000 0.0000 0.0000
# 3 28.4171 56.5298 69.0457 0.0000 0.0000 0.0000
# 4 0.0000 0.0000 0.0000 14.1249 0.0000 0.0000
# 5 0.0000 0.0000 0.0000 0.0000 30.4150 0.0000
# 6 0.0000 0.0000 0.0000 0.0000 0.0000 25.7653
#
#
#
# Elastic Compliance Matrix: (Units=1/GPa)
#
#
# Indices 1 2 3 4 5 6 
#
# 1 0.020705 -0.002946 -0.006110 0.000000 0.000000 0.000000
# 2 -0.002946 0.011237 -0.007988 0.000000 0.000000 0.000000
# 3 -0.006110 -0.007988 0.023538 0.000000 0.000000 0.000000
# 4 0.000000 0.000000 0.000000 0.070797 0.000000 0.000000
# 5 0.000000 0.000000 0.000000 0.000000 0.032879 0.000000
# 6 0.000000 0.000000 0.000000 0.000000 0.000000 0.038812
#
#
# Mechanical properties :
#
#
# Convention : Reuss Voigt Hill
#
# Bulk Modulus (GPa) = 46.74377 56.92899 51.83638
# Shear Modulus (GPa) = 20.90435 23.94559 22.42497
#
# Velocity S-wave (km/s) = 3.25612 3.48494 3.37247
# Velocity P-wave (km/s) = 6.15176 6.71316 6.43858
#
# Compressibility (1/GPa) = 0.02139322
#
# Stress axis : x y z
#
# Youngs Moduli (GPa) = 48.29668 88.99330 42.48539
#
# Poissons Ratio (x) = 0.26215 0.25958
# Poissons Ratio (y) = 0.14227 0.33935
# Poissons Ratio (z) = 0.29509 0.71084
#
# Static dielectric constant tensor:
#      x y z
#    x 1.721190 0.000000 0.000000 
#    y 0.000000 1.729240 0.000000 
#    z 0.000000 0.000000 1.685490 
# 
# From -- ./inp_files/24138.got.cif
#   From: 2010.05.17/outbox.cif.g08.bks.cpg/sg72_13_cif.got.tgz:24138.got - 2010.06.03 17:03:01.
