data_PCOD9528389
_publ_section_title
;
Structure prediction by ZEFSAII (Michael W. Deem and Ramdas Pophale) SiO2 
 PCOD9528389
Probable space group: I B A M
;
_chemical_formula_sum "Si O2"
_cell_formula_units_Z 52
_cell_length_a 23.589266
_cell_length_b 7.765687
_cell_length_c 13.861863
_cell_angle_alpha 90.000000
_cell_angle_beta 90.000000
_cell_angle_gamma 90.000000
_cell_volume 2539.311106
_symmetry_space_group_name_H-M "I B A M"
_symmetry_group_IT_number 72
_symmetry_cell_setting 'orthorhombic'
loop_
_space_group_symop_operation_xyz
x,y,z
-x,-y,z
x,-y,1/2-z
-x,y,1/2-z
-x,-y,-z
x,y,-z
-x,y,1/2+z
x,-y,1/2+z
1/2+x,1/2+y,1/2+z
1/2-x,1/2-y,1/2+z
1/2+x,1/2-y,-z
1/2-x,1/2+y,-z
1/2-x,1/2-y,1/2-z
1/2+x,1/2+y,1/2-z
1/2-x,1/2+y,z
1/2+x,1/2-y,z
loop_
_atom_site_type_symbol
_atom_site_label
_atom_site_fract_x
_atom_site_fract_y
_atom_site_fract_z
Si Si1 0.342676 0.862171 0.500000
Si Si2 0.695365 0.330227 0.195138
Si Si3 0.770767 0.013984 0.000000
Si Si4 0.903234 0.600960 0.887444
Si Si5 0.000000 0.500000 0.250000
O O1 0.297326 0.020648 0.500000
O O2 0.308452 0.686010 0.500000
O O3 0.381436 0.904011 0.407535
O O4 0.674382 0.500000 0.250000
O O5 0.750000 0.250000 0.250000
O O6 0.716321 0.404928 0.094047
O O7 0.645804 0.198326 0.170649
O O8 0.958940 0.603464 0.822632
O O9 0.911484 0.663256 0.000000
#
# Coordination Sequence:
#
# PCOD9528389 Si02
#       5
#     8  16   8  16   4
#     4  10  22  39  71  95 143 187 218 289 364 430
#     4  12  26  40  71 109 149 190 230 289 368 445
#     4  12  22  42  63 110 150 181 223 292 375 433
#     4  10  25  48  67 101 138 187 241 297 357 417
#     4  12  26  44  82  94 132 196 260 294 348 434
#
# _framework density 20.477993999999999
#
# number of rings (size 3 to 8) (size 9 to 14) (size 15 to 20)
#    0.923    0.000    1.538    6.000   10.769    0.000 
#    0.000    0.769    0.000    3.692    0.000    0.000 
#    0.000    0.000    0.000    0.000    0.000    0.000 
#
# Total GULP energy -145013.898733 kJ/mol
# GULP energy per Si atom -5577.457644 kJ/mol
# Density = 2.043139 g / cm^3
# Si number density = 20.477994 Si / 1000 Ang^3
#
#
#
# Elastic Constant Matrix: (Units=GPa)
#
#
# Indices 1 2 3 4 5 6 
#
# 1 142.1241 47.7843 73.1264 0.0000 0.0000 0.0000
# 2 47.7843 91.4691 51.4732 0.0000 0.0000 0.0000
# 3 73.1264 51.4732 168.6660 0.0000 0.0000 0.0000
# 4 0.0000 0.0000 0.0000 37.6969 0.0000 0.0000
# 5 0.0000 0.0000 0.0000 0.0000 43.9986 0.0000
# 6 0.0000 0.0000 0.0000 0.0000 0.0000 22.4039
#
#
#
# Elastic Compliance Matrix: (Units=1/GPa)
#
#
# Indices 1 2 3 4 5 6 
#
# 1 0.009818 -0.003300 -0.003249 0.000000 0.000000 0.000000
# 2 -0.003300 0.014309 -0.002936 0.000000 0.000000 0.000000
# 3 -0.003249 -0.002936 0.008234 0.000000 0.000000 0.000000
# 4 0.000000 0.000000 0.000000 0.026527 0.000000 0.000000
# 5 0.000000 0.000000 0.000000 0.000000 0.022728 0.000000
# 6 0.000000 0.000000 0.000000 0.000000 0.000000 0.044635
#
#
# Mechanical properties :
#
#
# Convention : Reuss Voigt Hill
#
# Bulk Modulus (GPa) = 74.68763 83.00300 78.84532
# Shear Modulus (GPa) = 33.40360 36.14490 34.77425
#
# Velocity S-wave (km/s) = 4.04319 4.20582 4.12531
# Velocity P-wave (km/s) = 7.63857 8.01286 7.82796
#
# Compressibility (1/GPa) = 0.01338910
#
# Stress axis : x y z
#
# Youngs Moduli (GPa) = 101.85842 69.88664 121.45338
#
# Poissons Ratio (x) = 0.23064 0.39464
# Poissons Ratio (y) = 0.33616 0.35658
# Poissons Ratio (z) = 0.33097 0.20518
#
# Static dielectric constant tensor:
#      x y z
#    x 1.755310 0.000000 0.000000 
#    y 0.000000 1.769290 0.000000 
#    z 0.000000 0.000000 1.808780 
# 
# From -- ./inp_files/23744.got.cif
#   From: 2010.05.17/outbox.cif.g08.bks.cpg/sg72_12_cif.got.tgz:23744.got - 2010.06.03 17:03:01.
