data_PCOD9528429
_publ_section_title
;
Structure prediction by ZEFSAII (Michael W. Deem and Ramdas Pophale) SiO2 
 PCOD9528429
Probable space group: I B A M
;
_chemical_formula_sum "Si O2"
_cell_formula_units_Z 52
_cell_length_a 4.828529
_cell_length_b 28.988715
_cell_length_c 16.578278
_cell_angle_alpha 90.000000
_cell_angle_beta 90.000000
_cell_angle_gamma 90.000000
_cell_volume 2320.508837
_symmetry_space_group_name_H-M "I B A M"
_symmetry_group_IT_number 72
_symmetry_cell_setting 'orthorhombic'
loop_
_space_group_symop_operation_xyz
x,y,z
-x,-y,z
x,-y,1/2-z
-x,y,1/2-z
-x,-y,-z
x,y,-z
-x,y,1/2+z
x,-y,1/2+z
1/2+x,1/2+y,1/2+z
1/2-x,1/2-y,1/2+z
1/2+x,1/2-y,-z
1/2-x,1/2+y,-z
1/2-x,1/2-y,1/2-z
1/2+x,1/2+y,1/2-z
1/2-x,1/2+y,z
1/2+x,1/2-y,z
loop_
_atom_site_type_symbol
_atom_site_label
_atom_site_fract_x
_atom_site_fract_y
_atom_site_fract_z
Si Si1 0.655957 0.588088 0.171044
Si Si2 0.186180 0.630598 0.908585
Si Si3 0.510076 0.278133 0.847293
Si Si4 0.500000 0.500000 0.750000
O O1 0.500000 0.608974 0.250000
O O2 0.427999 0.592662 0.101542
O O3 0.685155 0.534880 0.196867
O O4 0.932043 0.614929 0.147831
O O5 0.346064 0.677176 0.883458
O O6 0.086517 0.634008 0.000000
O O7 0.500000 0.281456 0.750000
O O8 0.199208 0.265788 0.871605
#
# Coordination Sequence:
#
# PCOD9528429 Si02
#       4
#    16  16  16   4
#     4  10  23  43  70  91 128 172 231 268 330 412
#     4  12  24  40  65 103 137 173 216 278 349 396
#     4  10  22  40  63  93 133 179 227 267 310 385
#     4   8  24  46  74  94 120 174 242 266 340 410
#
# _framework density 22.408877
#
# number of rings (size 3 to 8) (size 9 to 14) (size 15 to 20)
#    0.923    0.615    0.000    4.615    0.000    8.615 
#    0.000    4.615    0.000    0.000    0.000    0.000 
#    0.000    0.000    0.000    0.000    0.000    0.000 
#
# Total GULP energy -145137.145943 kJ/mol
# GULP energy per Si atom -5582.197921 kJ/mol
# Density = 2.235787 g / cm^3
# Si number density = 22.408877 Si / 1000 Ang^3
#
#
#
# Elastic Constant Matrix: (Units=GPa)
#
#
# Indices 1 2 3 4 5 6 
#
# 1 116.5932 38.9477 38.0391 0.0000 0.0000 0.0000
# 2 38.9477 131.2277 44.1141 0.0000 0.0000 0.0000
# 3 38.0391 44.1141 93.5189 0.0000 0.0000 0.0000
# 4 0.0000 0.0000 0.0000 10.3165 0.0000 0.0000
# 5 0.0000 0.0000 0.0000 0.0000 27.8939 0.0000
# 6 0.0000 0.0000 0.0000 0.0000 0.0000 21.9489
#
#
#
# Elastic Compliance Matrix: (Units=1/GPa)
#
#
# Indices 1 2 3 4 5 6 
#
# 1 0.010296 -0.001959 -0.003264 0.000000 0.000000 0.000000
# 2 -0.001959 0.009429 -0.003651 0.000000 0.000000 0.000000
# 3 -0.003264 -0.003651 0.013743 0.000000 0.000000 0.000000
# 4 0.000000 0.000000 0.000000 0.096932 0.000000 0.000000
# 5 0.000000 0.000000 0.000000 0.000000 0.035850 0.000000
# 6 0.000000 0.000000 0.000000 0.000000 0.000000 0.045560
#
#
# Mechanical properties :
#
#
# Convention : Reuss Voigt Hill
#
# Bulk Modulus (GPa) = 63.61120 64.83796 64.22458
# Shear Modulus (GPa) = 21.29492 26.71447 24.00470
#
# Velocity S-wave (km/s) = 3.08602 3.45648 3.27649
# Velocity P-wave (km/s) = 6.41454 6.70273 6.56021
#
# Compressibility (1/GPa) = 0.01572050
#
# Stress axis : x y z
#
# Youngs Moduli (GPa) = 97.12521 106.05571 72.76435
#
# Poissons Ratio (x) = 0.20771 0.23751
# Poissons Ratio (y) = 0.19022 0.26567
# Poissons Ratio (z) = 0.31702 0.38723
#
# Static dielectric constant tensor:
#      x y z
#    x 1.823280 0.000000 0.000000 
#    y 0.000000 1.863250 0.000000 
#    z 0.000000 0.000000 1.860400 
# 
# From -- ./inp_files/26952.got.cif
#   From: 2010.05.17/outbox.cif.g08.bks.cpg/sg72_14_cif.got.tgz:26952.got - 2010.06.03 17:03:01.
