data_PCOD9528053
_publ_section_title
;
Structure prediction by ZEFSAII (Michael W. Deem and Ramdas Pophale) SiO2 
 PCOD9528053
Probable space group: I B A M
;
_chemical_formula_sum "Si O2"
_cell_formula_units_Z 92
_cell_length_a 18.705265
_cell_length_b 11.708741
_cell_length_c 21.147878
_cell_angle_alpha 90.000000
_cell_angle_beta 90.000000
_cell_angle_gamma 90.000000
_cell_volume 4631.704683
_symmetry_space_group_name_H-M "I B A M"
_symmetry_group_IT_number 72
_symmetry_cell_setting 'orthorhombic'
loop_
_space_group_symop_operation_xyz
x,y,z
-x,-y,z
x,-y,1/2-z
-x,y,1/2-z
-x,-y,-z
x,y,-z
-x,y,1/2+z
x,-y,1/2+z
1/2+x,1/2+y,1/2+z
1/2-x,1/2-y,1/2+z
1/2+x,1/2-y,-z
1/2-x,1/2+y,-z
1/2-x,1/2-y,1/2-z
1/2+x,1/2+y,1/2-z
1/2-x,1/2+y,z
1/2+x,1/2-y,z
loop_
_atom_site_type_symbol
_atom_site_label
_atom_site_fract_x
_atom_site_fract_y
_atom_site_fract_z
Si Si1 0.000000 0.000000 0.750000
Si Si2 0.314895 0.231390 0.500000
Si Si3 0.901988 0.047798 0.360372
Si Si4 0.854614 0.210561 0.000000
Si Si5 0.148760 0.784978 0.861336
Si Si6 0.597299 0.448951 0.000000
Si Si7 0.680607 0.768688 0.637725
Si Si8 0.415728 0.136373 0.749471
O O1 0.048380 0.929585 0.700417
O O2 0.231040 0.211051 0.500000
O O3 0.334102 0.365969 0.500000
O O4 0.342062 0.188834 0.567523
O O5 0.936315 0.072422 0.430267
O O6 0.834856 0.132715 0.357818
O O7 0.880049 0.915066 0.355623
O O8 0.873770 0.259097 0.068594
O O9 0.881175 0.080319 0.000000
O O10 0.235041 0.789966 0.854894
O O11 0.117996 0.701872 0.808896
O O12 0.629279 0.822835 0.689115
O O13 0.500000 0.162929 0.750000
O O14 0.408341 0.000000 0.750000
#
# Coordination Sequence:
#
# PCOD9528053 Si02
#       8
#     4   8  16   8  16   8  16  16
#     4  12  24  34  52  80 118 154 194 236 268 356
#     4   8  16  34  58  91 113 145 184 237 299 340
#     4  10  22  35  61  90 117 151 190 238 295 338
#     4   8  16  34  58  91 113 145 184 237 299 340
#     4  10  21  39  65  89 119 149 194 245 291 349
#     4   8  16  35  52  82 122 146 179 232 290 352
#     4  10  21  39  65  89 119 149 194 245 291 349
#     4  11  26  43  58  80 120 163 197 237 289 343
#
# _framework density 19.863095999999999
#
# number of rings (size 3 to 8) (size 9 to 14) (size 15 to 20)
#    0.000    2.261    0.000    1.565    7.304    0.348 
#    3.130    0.870    0.000    2.087    0.000    0.000 
#    0.000    0.000    0.000    0.000    0.000    0.000 
#
# Total GULP energy -256267.172083 kJ/mol
# GULP energy per Si atom -5571.025480 kJ/mol
# Density = 1.981789 g / cm^3
# Si number density = 19.863096 Si / 1000 Ang^3
#
#
#
# Elastic Constant Matrix: (Units=GPa)
#
#
# Indices 1 2 3 4 5 6 
#
# 1 78.9401 33.6589 65.6051 0.0000 0.0000 0.0000
# 2 33.6589 62.5769 55.1551 0.0000 0.0000 0.0000
# 3 65.6051 55.1551 238.0847 0.0000 0.0000 0.0000
# 4 0.0000 0.0000 0.0000-1092.0207 0.0000 0.0000
# 5 0.0000 0.0000 0.0000 0.0000 88.7446 0.0000
# 6 0.0000 0.0000 0.0000 0.0000 0.0000 12.5544
#
#
#
# Elastic Compliance Matrix: (Units=1/GPa)
#
#
# Indices 1 2 3 4 5 6 
#
# 1 0.018512 -0.006862 -0.003511 0.000000 0.000000 0.000000
# 2 -0.006862 0.022624 -0.003350 0.000000 0.000000 0.000000
# 3 -0.003511 -0.003350 0.005944 0.000000 0.000000 0.000000
# 4 0.000000 0.000000 0.000000 -0.000916 0.000000 0.000000
# 5 0.000000 0.000000 0.000000 0.000000 0.011268 0.000000
# 6 0.000000 0.000000 0.000000 0.000000 0.000000 0.079653
#
#
# Mechanical properties :
#
#
# Convention : Reuss Voigt Hill
#
# Bulk Modulus (GPa) = 50.93627 76.49330 63.71479
# Shear Modulus (GPa) = 29.22640 -183.13217 -76.95289
#
# Velocity S-wave (km/s) = 3.84003 -9.61235 -6.23103
# Velocity P-wave (km/s) = 6.73502 9.19797 4.42957
#
# Compressibility (1/GPa) = 0.01963238
#
# Stress axis : x y z
#
# Youngs Moduli (GPa) = 54.01896 44.20006 168.24090
#
# Poissons Ratio (x) = 0.30332 0.59074
# Poissons Ratio (y) = 0.37070 0.56365
# Poissons Ratio (z) = 0.18968 0.14808
#
# Static dielectric constant tensor:
#      x y z
#    x 1.695490 0.000000 0.000000 
#    y 0.000000 1.676030 0.000000 
#    z 0.000000 0.000000 1.775740 
# 
# From -- ./inp_files/36961.got.cif
#   From: 2010.05.17/outbox.cif.g08.bks.cpg/sg72_19_cif.got.tgz:36961.got - 2010.06.03 17:03:01.
