data_PCOD9528138
_publ_section_title
;
Structure prediction by ZEFSAII (Michael W. Deem and Ramdas Pophale) SiO2 
 PCOD9528138
Probable space group: I B A M
;
_chemical_formula_sum "Si O2"
_cell_formula_units_Z 84
_cell_length_a 14.431775
_cell_length_b 12.608021
_cell_length_c 21.841485
_cell_angle_alpha 90.000000
_cell_angle_beta 90.000000
_cell_angle_gamma 90.000000
_cell_volume 3974.191915
_symmetry_space_group_name_H-M "I B A M"
_symmetry_group_IT_number 72
_symmetry_cell_setting 'orthorhombic'
loop_
_space_group_symop_operation_xyz
x,y,z
-x,-y,z
x,-y,1/2-z
-x,y,1/2-z
-x,-y,-z
x,y,-z
-x,y,1/2+z
x,-y,1/2+z
1/2+x,1/2+y,1/2+z
1/2-x,1/2-y,1/2+z
1/2+x,1/2-y,-z
1/2-x,1/2+y,-z
1/2-x,1/2-y,1/2-z
1/2+x,1/2+y,1/2-z
1/2-x,1/2+y,z
1/2+x,1/2-y,z
loop_
_atom_site_type_symbol
_atom_site_label
_atom_site_fract_x
_atom_site_fract_y
_atom_site_fract_z
Si Si1 0.000000 0.500000 0.500000
Si Si2 0.110028 0.616192 0.264735
Si Si3 0.205310 0.840477 0.432826
Si Si4 0.400302 0.444205 0.929859
Si Si5 0.433838 0.160994 0.398809
Si Si6 0.131981 0.741226 0.148612
O O1 0.942609 0.433661 0.553431
O O2 0.150575 0.500000 0.250000
O O3 0.120763 0.634803 0.336570
O O4 0.140387 0.711964 0.220242
O O5 0.000000 0.609483 0.250000
O O6 0.247477 0.823031 0.500000
O O7 0.116252 0.763915 0.426673
O O8 0.280210 0.810605 0.383321
O O9 0.173086 0.960962 0.428113
O O10 0.500000 0.500000 0.921044
O O11 0.377679 0.360244 0.877055
O O12 0.399792 0.398479 0.000000
O O13 0.538167 0.188021 0.377593
#
# Coordination Sequence:
#
# PCOD9528138 Si02
#       6
#     4  16  16  16  16  16
#     4  12  24  36  74 102 132 170 226 288 364 418
#     4   9  20  42  64  94 137 181 220 283 349 415
#     4  11  24  41  64 103 139 174 232 294 351 417
#     4  10  21  40  66  95 139 188 229 291 359 411
#     4  11  23  42  64  97 133 176 224 286 349 418
#     4  11  23  41  70  93 133 186 231 276 350 426
#
# _framework density 21.136372000000001
#
# number of rings (size 3 to 8) (size 9 to 14) (size 15 to 20)
#    0.000    1.524    2.857    2.857    2.667    3.810 
#    3.429    0.952    0.000    0.000    0.000    0.000 
#    0.000    0.000    0.000    0.000    0.000    0.000 
#
# Total GULP energy -234052.743834 kJ/mol
# GULP energy per Si atom -5572.684377 kJ/mol
# Density = 2.108826 g / cm^3
# Si number density = 21.136372 Si / 1000 Ang^3
#
#
#
# Elastic Constant Matrix: (Units=GPa)
#
#
# Indices 1 2 3 4 5 6 
#
# 1 56.8900 8.0249 16.0311 0.0000 0.0000 0.0000
# 2 8.0249 110.7269 84.5116 0.0000 0.0000 0.0000
# 3 16.0311 84.5116 178.3945 0.0000 0.0000 0.0000
# 4 0.0000 0.0000 0.0000 34.7295 0.0000 0.0000
# 5 0.0000 0.0000 0.0000 0.0000 32.6383 0.0000
# 6 0.0000 0.0000 0.0000 0.0000 0.0000 16.1496
#
#
#
# Elastic Compliance Matrix: (Units=1/GPa)
#
#
# Indices 1 2 3 4 5 6 
#
# 1 0.018035 -0.000110 -0.001569 0.000000 0.000000 0.000000
# 2 -0.000110 0.014147 -0.006692 0.000000 0.000000 0.000000
# 3 -0.001569 -0.006692 0.008917 0.000000 0.000000 0.000000
# 4 0.000000 0.000000 0.000000 0.028794 0.000000 0.000000
# 5 0.000000 0.000000 0.000000 0.000000 0.030639 0.000000
# 6 0.000000 0.000000 0.000000 0.000000 0.000000 0.061921
#
#
# Mechanical properties :
#
#
# Convention : Reuss Voigt Hill
#
# Bulk Modulus (GPa) = 41.05443 62.57185 51.81314
# Shear Modulus (GPa) = 26.69332 32.53306 29.61319
#
# Velocity S-wave (km/s) = 3.55760 3.92752 3.74713
# Velocity P-wave (km/s) = 6.02836 7.08769 6.57938
#
# Compressibility (1/GPa) = 0.02435791
#
# Stress axis : x y z
#
# Youngs Moduli (GPa) = 55.44680 70.68755 112.14884
#
# Poissons Ratio (x) = 0.00776 0.17593
# Poissons Ratio (y) = 0.00609 0.75049
# Poissons Ratio (z) = 0.08698 0.47304
#
# Static dielectric constant tensor:
#      x y z
#    x 1.748170 0.000000 0.000000 
#    y 0.000000 1.778520 0.000000 
#    z 0.000000 0.000000 1.786540 
# 
# From -- ./inp_files/44151.got.cif
#   From: 2010.05.17/outbox.cif.g08.bks.cpg/sg72_23_cif.got.tgz:44151.got - 2010.06.03 17:03:01.
