data_PCOD9528841
_publ_section_title
;
Structure prediction by ZEFSAII (Michael W. Deem and Ramdas Pophale) SiO2 
 PCOD9528841
Probable space group: I B A M
;
_chemical_formula_sum "Si O2"
_cell_formula_units_Z 56
_cell_length_a 11.157646
_cell_length_b 24.650934
_cell_length_c 10.295910
_cell_angle_alpha 90.000000
_cell_angle_beta 90.000000
_cell_angle_gamma 90.000000
_cell_volume 2831.852930
_symmetry_space_group_name_H-M "I B A M"
_symmetry_group_IT_number 72
_symmetry_cell_setting 'orthorhombic'
loop_
_space_group_symop_operation_xyz
x,y,z
-x,-y,z
x,-y,1/2-z
-x,y,1/2-z
-x,-y,-z
x,y,-z
-x,y,1/2+z
x,-y,1/2+z
1/2+x,1/2+y,1/2+z
1/2-x,1/2-y,1/2+z
1/2+x,1/2-y,-z
1/2-x,1/2+y,-z
1/2-x,1/2-y,1/2-z
1/2+x,1/2+y,1/2-z
1/2-x,1/2+y,z
1/2+x,1/2-y,z
loop_
_atom_site_type_symbol
_atom_site_label
_atom_site_fract_x
_atom_site_fract_y
_atom_site_fract_z
Si Si1 0.534290 0.629499 0.500000
Si Si2 0.265131 0.201506 0.000000
Si Si3 0.736571 0.669028 0.000000
Si Si4 0.141150 0.630299 0.234620
Si Si5 0.828885 0.044251 0.355408
O O1 0.628610 0.678933 0.500000
O O2 0.398968 0.647196 0.500000
O O3 0.572072 0.590870 0.620111
O O4 0.329091 0.175865 0.126270
O O5 0.266900 0.265848 0.000000
O O6 0.802792 0.648173 0.871359
O O7 0.209322 0.576379 0.185631
O O8 0.000000 0.622599 0.250000
O O9 0.813529 0.019357 0.500000
O O10 0.859194 0.000000 0.250000
#
# Coordination Sequence:
#
# PCOD9528841 Si02
#       5
#     8   8   8  16  16
#     4   8  22  43  67 101 140 161 241 279 321 421
#     4  10  23  46  60  98 138 180 229 286 327 399
#     4  12  25  39  75  94 132 197 219 272 358 388
#     4  11  24  43  66 101 140 172 232 284 327 417
#     4   9  21  45  72  96 136 177 220 287 347 396
#
# _framework density 19.775040000000001
#
# number of rings (size 3 to 8) (size 9 to 14) (size 15 to 20)
#    0.857    1.143    1.429    1.714    6.000    5.143 
#    0.000    5.714    3.143    0.000    0.000    0.000 
#    0.000    0.000    0.000    0.000    0.000    0.000 
#
# Total GULP energy -156426.991722 kJ/mol
# GULP energy per Si atom -5586.678276 kJ/mol
# Density = 1.973003 g / cm^3
# Si number density = 19.775040 Si / 1000 Ang^3
#
#
#
# Elastic Constant Matrix: (Units=GPa)
#
#
# Indices 1 2 3 4 5 6 
#
# 1 196.0637 82.0395 83.2583 0.0000 0.0001 0.0000
# 2 82.0395 104.6704 54.8990 0.0000 0.0000 0.0000
# 3 83.2583 54.8990 173.9163 0.0006 0.0007 0.0001
# 4 0.0000 0.0000 0.0006 0.1143 0.0006 0.0000
# 5 0.0001 0.0000 0.0007 0.0006 20.4310 0.0000
# 6 0.0000 0.0000 0.0001 0.0000 0.0000 7.1715
#
#
#
# Elastic Compliance Matrix: (Units=1/GPa)
#
#
# Indices 1 2 3 4 5 6 
#
# 1 0.008291 -0.005293 -0.002298 0.000010 0.000000 0.000000
# 2 -0.005293 0.014828 -0.002147 0.000010 0.000000 0.000000
# 3 -0.002298 -0.002147 0.007528 -0.000037 0.000000 0.000000
# 4 0.000010 0.000010 -0.000037 8.746187 -0.000276 -0.000020
# 5 0.000000 0.000000 0.000000 -0.000276 0.048945 0.000000
# 6 0.000000 0.000000 0.000000 -0.000020 0.000000 0.139441
#
#
# Mechanical properties :
#
#
# Convention : Reuss Voigt Hill
#
# Bulk Modulus (GPa) = 89.51834 101.67154 95.59494
# Shear Modulus (GPa) = 0.55627 22.50695 11.53161
#
# Velocity S-wave (km/s) = 0.53095 3.37731 2.41745
# Velocity P-wave (km/s) = 6.76332 8.16909 7.49922
#
# Compressibility (1/GPa) = 0.01117090
#
# Stress axis : x y z
#
# Youngs Moduli (GPa) = 120.61023 67.43797 132.83951
#
# Poissons Ratio (x) = 0.35695 0.30532
# Poissons Ratio (y) = 0.63839 0.28519
# Poissons Ratio (z) = 0.27721 0.14478
#
# Static dielectric constant tensor:
#      x y z
#    x 1.666150 0.000000 0.000000 
#    y 0.000000 1.679040 0.000000 
#    z 0.000000 0.000000 1.702050 
# 
# From -- ./inp_files/2420.got.cif
#   From: 2010.05.17/outbox.cif.g08.bks.cpg/sg72_2_cif.got.tgz:2420.got - 2010.06.03 17:03:01.
