data_PCOD9528037
_publ_section_title
;
Structure prediction by ZEFSAII (Michael W. Deem and Ramdas Pophale) SiO2 
 PCOD9528037
Probable space group: I B A M
;
_chemical_formula_sum "Si O2"
_cell_formula_units_Z 96
_cell_length_a 14.626091
_cell_length_b 14.470973
_cell_length_c 23.696323
_cell_angle_alpha 90.000000
_cell_angle_beta 90.000000
_cell_angle_gamma 90.000000
_cell_volume 5015.416050
_symmetry_space_group_name_H-M "I B A M"
_symmetry_group_IT_number 72
_symmetry_cell_setting 'orthorhombic'
loop_
_space_group_symop_operation_xyz
x,y,z
-x,-y,z
x,-y,1/2-z
-x,y,1/2-z
-x,-y,-z
x,y,-z
-x,y,1/2+z
x,-y,1/2+z
1/2+x,1/2+y,1/2+z
1/2-x,1/2-y,1/2+z
1/2+x,1/2-y,-z
1/2-x,1/2+y,-z
1/2-x,1/2-y,1/2-z
1/2+x,1/2+y,1/2-z
1/2-x,1/2+y,z
1/2+x,1/2-y,z
loop_
_atom_site_type_symbol
_atom_site_label
_atom_site_fract_x
_atom_site_fract_y
_atom_site_fract_z
Si Si1 0.538696 0.765484 0.303287
Si Si2 0.714978 0.864510 0.342524
Si Si3 0.948193 0.147764 0.000000
Si Si4 0.378945 0.245410 0.108719
Si Si5 0.856020 0.945386 0.000000
Si Si6 0.832665 0.899346 0.230928
Si Si7 0.766782 0.567259 0.388049
O O1 0.500000 0.822093 0.250000
O O2 0.616484 0.819215 0.336764
O O3 0.454610 0.741840 0.343159
O O4 0.589820 0.677192 0.276093
O O5 0.786719 0.799765 0.374801
O O6 0.758421 0.875331 0.279441
O O7 0.707361 0.961779 0.374433
O O8 0.920346 0.207846 0.946338
O O9 0.054674 0.119704 0.000000
O O10 0.892654 0.050961 0.000000
O O11 0.349768 0.138555 0.103429
O O12 0.797228 0.929160 0.943338
O O13 0.786025 0.904259 0.169470
O O14 0.868779 0.000000 0.250000
#
# Coordination Sequence:
#
# PCOD9528037 Si02
#       7
#    16  16   8  16   8  16  16
#     4  12  23  39  67  97 135 177 217 276 332 409
#     4  11  23  43  65  97 135 173 222 277 333 402
#     4  11  25  42  68 103 132 167 222 288 341 393
#     4  12  24  44  66  97 135 176 227 268 347 403
#     4  11  23  44  70  99 128 171 227 283 338 393
#     4  10  21  39  63  99 131 172 217 273 338 393
#     4  11  23  43  69  93 132 180 219 273 334 404
#
# _framework density 19.140985000000001
#
# number of rings (size 3 to 8) (size 9 to 14) (size 15 to 20)
#    0.000    0.833    5.000    3.000    0.000    1.000 
#    0.000    1.667    0.000    2.000    0.000    0.000 
#    0.000    0.000    0.000    0.000    0.000    0.000 
#
# Total GULP energy -268199.917975 kJ/mol
# GULP energy per Si atom -5587.498291 kJ/mol
# Density = 1.909742 g / cm^3
# Si number density = 19.140985 Si / 1000 Ang^3
#
#
#
# Elastic Constant Matrix: (Units=GPa)
#
#
# Indices 1 2 3 4 5 6 
#
# 1 85.4761 46.1987 28.1765 0.0000 0.0000 0.0000
# 2 46.1987 100.4458 22.3367 0.0000 0.0000 0.0000
# 3 28.1765 22.3367 124.7469 0.0000 0.0000 0.0000
# 4 0.0000 0.0000 0.0000 25.9544 0.0000 0.0000
# 5 0.0000 0.0000 0.0000 0.0000 29.4262 0.0000
# 6 0.0000 0.0000 0.0000 0.0000 0.0000 19.0757
#
#
#
# Elastic Compliance Matrix: (Units=1/GPa)
#
#
# Indices 1 2 3 4 5 6 
#
# 1 0.016247 -0.006932 -0.002428 0.000000 0.000000 0.000000
# 2 -0.006932 0.013327 -0.000820 0.000000 0.000000 0.000000
# 3 -0.002428 -0.000820 0.008712 0.000000 0.000000 0.000000
# 4 0.000000 0.000000 0.000000 0.038529 0.000000 0.000000
# 5 0.000000 0.000000 0.000000 0.000000 0.033983 0.000000
# 6 0.000000 0.000000 0.000000 0.000000 0.000000 0.052423
#
#
# Mechanical properties :
#
#
# Convention : Reuss Voigt Hill
#
# Bulk Modulus (GPa) = 55.79579 56.01029 55.90304
# Shear Modulus (GPa) = 26.37740 29.15503 27.76622
#
# Velocity S-wave (km/s) = 3.71625 3.90702 3.81283
# Velocity P-wave (km/s) = 6.90125 7.04830 6.97516
#
# Compressibility (1/GPa) = 0.01792250
#
# Stress axis : x y z
#
# Youngs Moduli (GPa) = 61.55166 75.03843 114.78940
#
# Poissons Ratio (x) = 0.52019 0.27874
# Poissons Ratio (y) = 0.42670 0.09417
# Poissons Ratio (z) = 0.14947 0.06156
#
# Static dielectric constant tensor:
#      x y z
#    x 1.636880 0.000000 0.000000 
#    y 0.000000 1.679010 0.000000 
#    z 0.000000 0.000000 1.689730 
# 
# From -- ./inp_files/38073.got.cif
#   From: 2010.05.17/outbox.cif.g08.bks.cpg/sg72_20_cif.got.tgz:38073.got - 2010.06.03 17:03:01.
