data_PCOD9528335
_publ_section_title
;
Structure prediction by ZEFSAII (Michael W. Deem and Ramdas Pophale) SiO2 
 PCOD9528335
Probable space group: I B A M
;
_chemical_formula_sum "Si O2"
_cell_formula_units_Z 112
_cell_length_a 12.541588
_cell_length_b 13.739444
_cell_length_c 32.292807
_cell_angle_alpha 90.000000
_cell_angle_beta 90.000000
_cell_angle_gamma 90.000000
_cell_volume 5564.517148
_symmetry_space_group_name_H-M "I B A M"
_symmetry_group_IT_number 72
_symmetry_cell_setting 'orthorhombic'
loop_
_space_group_symop_operation_xyz
x,y,z
-x,-y,z
x,-y,1/2-z
-x,y,1/2-z
-x,-y,-z
x,y,-z
-x,y,1/2+z
x,-y,1/2+z
1/2+x,1/2+y,1/2+z
1/2-x,1/2-y,1/2+z
1/2+x,1/2-y,-z
1/2-x,1/2+y,-z
1/2-x,1/2-y,1/2-z
1/2+x,1/2+y,1/2-z
1/2-x,1/2+y,z
1/2+x,1/2-y,z
loop_
_atom_site_type_symbol
_atom_site_label
_atom_site_fract_x
_atom_site_fract_y
_atom_site_fract_z
Si Si1 0.588732 0.428388 0.364878
Si Si2 0.236112 0.279529 0.896133
Si Si3 0.317794 0.560438 0.210028
Si Si4 0.600509 0.894694 0.548747
Si Si5 0.620778 0.909503 0.094279
Si Si6 0.575018 0.084742 0.690924
Si Si7 0.435504 0.267771 0.675656
O O1 0.500000 0.500000 0.386015
O O2 0.679821 0.366830 0.387989
O O3 0.645789 0.496474 0.330034
O O4 0.517204 0.342374 0.345743
O O5 0.173452 0.306070 0.937575
O O6 0.294919 0.177087 0.902406
O O7 0.151618 0.271401 0.857903
O O8 0.350369 0.500000 0.250000
O O9 0.191683 0.580131 0.210205
O O10 0.373131 0.665213 0.207966
O O11 0.589234 0.906898 0.500000
O O12 0.486625 0.877714 0.570620
O O13 0.649158 0.992271 0.569733
O O14 0.594052 0.932353 0.141767
O O15 0.507403 0.183021 0.694268
O O16 0.500000 0.000000 0.706206
#
# Coordination Sequence:
#
# PCOD9528335 Si02
#       7
#    16  16  16  16  16  16  16
#     4  10  22  38  63  93 127 166 226 272 321 396
#     4  12  21  40  68  99 124 176 224 276 325 397
#     4  11  25  43  64  97 137 172 211 273 345 395
#     4  11  24  39  62 100 138 173 216 275 341 396
#     4  11  20  39  68  90 127 171 226 274 316 395
#     4  12  21  40  68  95 124 171 230 276 316 397
#     4  11  21  40  67  97 123 167 231 270 318 398
#
# _framework density 20.127531999999999
#
# number of rings (size 3 to 8) (size 9 to 14) (size 15 to 20)
#    0.000    0.857    5.714    2.571    2.000    4.000 
#    0.000    9.286    0.000    0.429    0.000    0.000 
#    0.000    0.000    0.000    0.000    0.000    0.000 
#
# Total GULP energy -312805.284070 kJ/mol
# GULP energy per Si atom -5585.808644 kJ/mol
# Density = 2.008172 g / cm^3
# Si number density = 20.127532 Si / 1000 Ang^3
#
#
#
# Elastic Constant Matrix: (Units=GPa)
#
#
# Indices 1 2 3 4 5 6 
#
# 1 94.1020 32.3234 7.9883 0.0000 0.0000 0.0000
# 2 32.3234 70.2509 5.2760 0.0000 0.0000 0.0000
# 3 7.9883 5.2760 76.4677 0.0000 0.0000 0.0000
# 4 0.0000 0.0000 0.0000 16.5291 0.0000 0.0000
# 5 0.0000 0.0000 0.0000 0.0000 0.8399 0.0000
# 6 0.0000 0.0000 0.0000 0.0000 0.0000 36.4784
#
#
#
# Elastic Compliance Matrix: (Units=1/GPa)
#
#
# Indices 1 2 3 4 5 6 
#
# 1 0.012687 -0.005768 -0.000927 0.000000 0.000000 0.000000
# 2 -0.005768 0.016931 -0.000566 0.000000 0.000000 0.000000
# 3 -0.000927 -0.000566 0.013213 0.000000 0.000000 0.000000
# 4 0.000000 0.000000 0.000000 0.060499 0.000000 0.000000
# 5 0.000000 0.000000 0.000000 0.000000 1.190598 0.000000
# 6 0.000000 0.000000 0.000000 0.000000 0.000000 0.027413
#
#
# Mechanical properties :
#
#
# Convention : Reuss Voigt Hill
#
# Bulk Modulus (GPa) = 35.32376 36.88844 36.10610
# Shear Modulus (GPa) = 3.71664 23.78502 13.75083
#
# Velocity S-wave (km/s) = 1.36035 3.44134 2.61662
# Velocity P-wave (km/s) = 4.47833 5.84445 5.20639
#
# Compressibility (1/GPa) = 0.02830956
#
# Stress axis : x y z
#
# Youngs Moduli (GPa) = 78.82304 59.06339 75.68120
#
# Poissons Ratio (x) = 0.34066 0.07018
# Poissons Ratio (y) = 0.45462 0.04281
# Poissons Ratio (z) = 0.07310 0.03341
#
# Static dielectric constant tensor:
#      x y z
#    x 1.057430 0.000000 0.000000 
#    y 0.000000 1.745040 0.000000 
#    z 0.000000 0.000000 1.700890 
# 
# From -- ./inp_files/51479.got.cif
#   From: 2010.05.17/outbox.cif.g08.bks.cpg/sg72_26_cif.got.tgz:51479.got - 2010.06.03 17:03:01.
