data_PCOD9528709
_publ_section_title
;
Structure prediction by ZEFSAII (Michael W. Deem and Ramdas Pophale) SiO2 
 PCOD9528709
Probable space group: I B A M
;
_chemical_formula_sum "Si O2"
_cell_formula_units_Z 56
_cell_length_a 7.524221
_cell_length_b 19.606308
_cell_length_c 13.679409
_cell_angle_alpha 90.000000
_cell_angle_beta 90.000000
_cell_angle_gamma 90.000000
_cell_volume 2018.016434
_symmetry_space_group_name_H-M "I B A M"
_symmetry_group_IT_number 72
_symmetry_cell_setting 'orthorhombic'
loop_
_space_group_symop_operation_xyz
x,y,z
-x,-y,z
x,-y,1/2-z
-x,y,1/2-z
-x,-y,-z
x,y,-z
-x,y,1/2+z
x,-y,1/2+z
1/2+x,1/2+y,1/2+z
1/2-x,1/2-y,1/2+z
1/2+x,1/2-y,-z
1/2-x,1/2+y,-z
1/2-x,1/2-y,1/2-z
1/2+x,1/2+y,1/2-z
1/2-x,1/2+y,z
1/2+x,1/2-y,z
loop_
_atom_site_type_symbol
_atom_site_label
_atom_site_fract_x
_atom_site_fract_y
_atom_site_fract_z
Si Si1 0.000000 0.236912 0.250000
Si Si2 0.516217 0.607274 0.615535
Si Si3 0.622852 0.847120 0.888172
Si Si4 0.664324 0.044591 0.114044
O O1 0.008317 0.182299 0.161441
O O2 0.868049 0.291280 0.196525
O O3 0.483751 0.609699 0.500000
O O4 0.726739 0.594407 0.627619
O O5 0.361477 0.558305 0.655536
O O6 0.428561 0.880403 0.884376
O O7 0.650230 0.821539 0.000000
O O8 0.500000 0.000000 0.152343
O O9 0.685304 0.024298 0.000000
#
# Coordination Sequence:
#
# PCOD9528709 Si02
#       4
#     8  16  16  16
#     4  12  24  40  65  97 146 190 230 278 360 428
#     4  10  23  40  63  98 135 177 232 288 346 419
#     4  10  23  40  62  97 136 181 232 288 349 417
#     4   9  20  41  67  93 126 173 230 289 347 411
#
# _framework density 27.750022999999999
#
# number of rings (size 3 to 8) (size 9 to 14) (size 15 to 20)
#    0.000    2.000    0.000    1.714    8.000    1.143 
#    0.000    6.429    0.000    1.714    0.000    0.000 
#    0.000    3.429    0.000    4.571    0.000    0.857 
#
# Total GULP energy -156194.510888 kJ/mol
# GULP energy per Si atom -5578.375389 kJ/mol
# Density = 2.768686 g / cm^3
# Si number density = 27.750023 Si / 1000 Ang^3
#
#
#
# Elastic Constant Matrix: (Units=GPa)
#
#
# Indices 1 2 3 4 5 6 
#
# 1 236.9792 83.2086 46.1952 0.0000 0.0000 0.0000
# 2 83.2086 93.0565 43.6230 -0.0001 0.0000 0.0000
# 3 46.1952 43.6230 155.9170 -0.0003 0.0000 0.0000
# 4 0.0000 -0.0001 -0.0003 -103.7543 0.0000 0.0000
# 5 0.0000 0.0000 0.0000 0.0000 23.5299 0.0000
# 6 0.0000 0.0000 0.0000 0.0000 0.0000 42.2180
#
#
#
# Elastic Compliance Matrix: (Units=1/GPa)
#
#
# Indices 1 2 3 4 5 6 
#
# 1 0.006165 -0.005360 -0.000327 0.000000 0.000000 0.000000
# 2 -0.005360 0.017027 -0.003176 0.000000 0.000000 0.000000
# 3 -0.000327 -0.003176 0.007399 0.000000 0.000000 0.000000
# 4 0.000000 0.000000 0.000000 -0.009638 0.000000 0.000000
# 5 0.000000 0.000000 0.000000 0.000000 0.042499 0.000000
# 6 0.000000 0.000000 0.000000 0.000000 0.000000 0.023687
#
#
# Mechanical properties :
#
#
# Convention : Reuss Voigt Hill
#
# Bulk Modulus (GPa) = 77.72155 92.44515 85.08335
# Shear Modulus (GPa) = 45.80680 13.26044 29.53362
#
# Velocity S-wave (km/s) = 4.06728 2.18836 3.26586
# Velocity P-wave (km/s) = 7.07994 6.30643 6.70435
#
# Compressibility (1/GPa) = 0.01286644
#
# Stress axis : x y z
#
# Youngs Moduli (GPa) = 162.19475 58.72881 135.14956
#
# Poissons Ratio (x) = 0.31476 0.04422
# Poissons Ratio (y) = 0.86930 0.42924
# Poissons Ratio (z) = 0.05307 0.18653
#
# Static dielectric constant tensor:
#      x y z
#    x 2.942040 0.000000 0.000000 
#    y 0.000000 2.223700 0.000000 
#    z 0.000000 0.000000 2.087590 
# 
# From -- ./inp_files/18389.got.cif
#   From: 2010.05.17/outbox.cif.g08.bks.cpg/sg72_10_cif.got.tgz:18389.got - 2010.06.03 17:03:01.
