data_PCOD9528844
_publ_section_title
;
Structure prediction by ZEFSAII (Michael W. Deem and Ramdas Pophale) SiO2 
 PCOD9528844
Probable space group: I B A M
;
_chemical_formula_sum "Si O2"
_cell_formula_units_Z 112
_cell_length_a 13.952822
_cell_length_b 15.381024
_cell_length_c 24.686844
_cell_angle_alpha 90.000000
_cell_angle_beta 90.000000
_cell_angle_gamma 90.000000
_cell_volume 5298.011252
_symmetry_space_group_name_H-M "I B A M"
_symmetry_group_IT_number 72
_symmetry_cell_setting 'orthorhombic'
loop_
_space_group_symop_operation_xyz
x,y,z
-x,-y,z
x,-y,1/2-z
-x,y,1/2-z
-x,-y,-z
x,y,-z
-x,y,1/2+z
x,-y,1/2+z
1/2+x,1/2+y,1/2+z
1/2-x,1/2-y,1/2+z
1/2+x,1/2-y,-z
1/2-x,1/2+y,-z
1/2-x,1/2-y,1/2-z
1/2+x,1/2+y,1/2-z
1/2-x,1/2+y,z
1/2+x,1/2-y,z
loop_
_atom_site_type_symbol
_atom_site_label
_atom_site_fract_x
_atom_site_fract_y
_atom_site_fract_z
Si Si1 0.178092 0.261673 0.938512
Si Si2 0.137502 0.805664 0.318242
Si Si3 0.902702 0.769474 0.560595
Si Si4 0.573966 0.111771 0.797389
Si Si5 0.286631 0.411414 0.773760
Si Si6 0.536495 0.596528 0.148667
Si Si7 0.486900 0.099042 0.417899
O O1 0.163407 0.206736 0.882285
O O2 0.289762 0.285826 0.935382
O O3 0.107773 0.345800 0.935645
O O4 0.164572 0.223327 0.000000
O O5 0.100957 0.713264 0.298067
O O6 0.215071 0.842852 0.276006
O O7 0.048183 0.869890 0.313336
O O8 0.934353 0.788862 0.500000
O O9 0.957621 0.833830 0.600272
O O10 0.928061 0.667872 0.570441
O O11 0.500000 0.093032 0.750000
O O12 0.679235 0.070147 0.794205
O O13 0.523669 0.092171 0.853666
O O14 0.325835 0.500000 0.750000
O O15 0.361103 0.391732 0.821648
O O16 0.500000 0.500000 0.132370
O O17 0.500000 0.000000 0.438691
#
# Coordination Sequence:
#
# PCOD9528844 Si02
#       7
#    16  16  16  16  16  16  16
#     4  10  23  46  71 100 135 178 233 287 347 412
#     4  11  23  41  69  97 129 183 225 279 336 416
#     4  11  25  47  73 100 139 181 229 296 352 415
#     4  11  25  42  64  95 135 184 225 279 333 416
#     4  12  26  40  66 100 141 179 229 281 346 412
#     4  12  23  43  70 101 136 179 235 281 346 420
#     4  11  25  44  72 103 142 183 231 286 355 424
#
# _framework density 21.140007000000001
#
# number of rings (size 3 to 8) (size 9 to 14) (size 15 to 20)
#    0.000    0.857    4.286    3.857    4.000    1.429 
#    2.571    0.000    0.000    0.000    0.000    0.000 
#    0.000    0.000    0.000    0.000    0.000    0.000 
#
# Total GULP energy -312332.856109 kJ/mol
# GULP energy per Si atom -5577.372431 kJ/mol
# Density = 2.109189 g / cm^3
# Si number density = 21.140007 Si / 1000 Ang^3
#
#
#
# Elastic Constant Matrix: (Units=GPa)
#
#
# Indices 1 2 3 4 5 6 
#
# 1 83.3740 -12.6971 21.0496 0.0000 0.0000 0.0000
# 2 -12.6971 98.6742 16.5945 0.0000 0.0000 0.0000
# 3 21.0496 16.5945 135.6714 0.0000 0.0000 0.0000
# 4 0.0000 0.0000 0.0000 -68.3277 0.0000 0.0000
# 5 0.0000 0.0000 0.0000 0.0000 31.3643 0.0000
# 6 0.0000 0.0000 0.0000 0.0000 0.0000 13.4354
#
#
#
# Elastic Compliance Matrix: (Units=1/GPa)
#
#
# Indices 1 2 3 4 5 6 
#
# 1 0.012871 0.002034 -0.002246 0.000000 0.000000 0.000000
# 2 0.002034 0.010669 -0.001620 0.000000 0.000000 0.000000
# 3 -0.002246 -0.001620 0.007917 0.000000 0.000000 0.000000
# 4 0.000000 0.000000 0.000000 -0.014635 0.000000 0.000000
# 5 0.000000 0.000000 0.000000 0.000000 0.031883 0.000000
# 6 0.000000 0.000000 0.000000 0.000000 0.000000 0.074430
#
#
# Mechanical properties :
#
#
# Convention : Reuss Voigt Hill
#
# Bulk Modulus (GPa) = 35.98131 40.84594 38.41363
# Shear Modulus (GPa) = 36.74740 14.81255 25.77997
#
# Velocity S-wave (km/s) = 4.17380 2.64992 3.49590
# Velocity P-wave (km/s) = 6.34704 5.35970 5.87415
#
# Compressibility (1/GPa) = 0.02779220
#
# Stress axis : x y z
#
# Youngs Moduli (GPa) = 77.69485 93.73304 126.30437
#
# Poissons Ratio (x) = -0.19064 0.28364
# Poissons Ratio (y) = -0.15802 0.20467
# Poissons Ratio (z) = 0.17448 0.15189
#
# Static dielectric constant tensor:
#      x y z
#    x 1.771440 0.000000 0.000000 
#    y 0.000000 1.836000 0.000000 
#    z 0.000000 0.000000 1.787130 
# 
# From -- ./inp_files/44332.got.cif
#   From: 2010.05.17/outbox.cif.g08.bks.cpg/sg72_23_cif.got.tgz:44332.got - 2010.06.03 17:03:01.
