data_PCOD9528135
_publ_section_title
;
Structure prediction by ZEFSAII (Michael W. Deem and Ramdas Pophale) SiO2 
 PCOD9528135
Probable space group: I B A M
;
_chemical_formula_sum "Si O2"
_cell_formula_units_Z 116
_cell_length_a 22.519692
_cell_length_b 13.485766
_cell_length_c 20.183289
_cell_angle_alpha 90.000000
_cell_angle_beta 90.000000
_cell_angle_gamma 90.000000
_cell_volume 6129.569941
_symmetry_space_group_name_H-M "I B A M"
_symmetry_group_IT_number 72
_symmetry_cell_setting 'orthorhombic'
loop_
_space_group_symop_operation_xyz
x,y,z
-x,-y,z
x,-y,1/2-z
-x,y,1/2-z
-x,-y,-z
x,y,-z
-x,y,1/2+z
x,-y,1/2+z
1/2+x,1/2+y,1/2+z
1/2-x,1/2-y,1/2+z
1/2+x,1/2-y,-z
1/2-x,1/2+y,-z
1/2-x,1/2-y,1/2-z
1/2+x,1/2+y,1/2-z
1/2-x,1/2+y,z
1/2+x,1/2-y,z
loop_
_atom_site_type_symbol
_atom_site_label
_atom_site_fract_x
_atom_site_fract_y
_atom_site_fract_z
Si Si1 0.932155 0.972886 0.423961
Si Si2 0.654905 0.432459 0.815899
Si Si3 0.056491 0.750171 0.114129
Si Si4 0.623844 0.772424 0.750164
Si Si5 0.000000 0.500000 0.750000
Si Si6 0.887710 0.458810 0.924912
Si Si7 0.207358 0.425905 0.311809
Si Si8 0.541925 0.872712 0.353550
O O1 0.922186 0.004717 0.500000
O O2 0.928206 0.853391 0.419842
O O3 0.886000 0.022759 0.373478
O O4 0.000000 0.000000 0.405245
O O5 0.649344 0.500000 0.750000
O O6 0.636714 0.322606 0.794041
O O7 0.724545 0.426873 0.833891
O O8 0.081878 0.758302 0.188783
O O9 0.083682 0.651149 0.080869
O O10 0.986114 0.725881 0.116246
O O11 0.681657 0.821983 0.783796
O O12 0.592026 0.851281 0.701455
O O13 0.011571 0.581424 0.808166
O O14 0.835306 0.459026 0.871234
O O15 0.932765 0.547710 0.904921
O O16 0.867718 0.474170 0.000000
O O17 0.201787 0.500000 0.250000
#
# Coordination Sequence:
#
# PCOD9528135 Si02
#       8
#    16  16  16  16   4  16  16  16
#     4  11  25  44  62  86 125 167 203 251 307 364
#     4  11  23  41  66  93 116 156 210 258 302 358
#     4  11  21  36  60  89 122 162 209 249 303 368
#     4  11  20  37  62  96 121 156 200 261 306 363
#     4  12  16  32  50  84 122 160 194 236 314 364
#     4  11  23  38  58  89 127 163 203 253 308 375
#     4  10  21  40  66  90 120 156 199 256 311 363
#     4  12  20  33  58  88 129 162 200 252 314 370
#
# _framework density 18.924655000000001
#
# number of rings (size 3 to 8) (size 9 to 14) (size 15 to 20)
#    0.000    0.966    5.517    2.483    0.000    2.483 
#    0.000    0.690    0.000    0.000    0.000    0.000 
#    0.000    0.000    0.000    0.000    0.000    0.000 
#
# Total GULP energy -323127.481712 kJ/mol
# GULP energy per Si atom -5571.163478 kJ/mol
# Density = 1.888158 g / cm^3
# Si number density = 18.924655 Si / 1000 Ang^3
#
#
#
# Elastic Constant Matrix: (Units=GPa)
#
#
# Indices 1 2 3 4 5 6 
#
# 1 121.6614 43.4910 62.1416 0.0000 0.0000 0.0000
# 2 43.4910 85.6481 36.9567 0.0000 0.0000 0.0000
# 3 62.1416 36.9567 109.5713 0.0000 0.0000 0.0000
# 4 0.0000 0.0000 0.0000 24.6172 0.0000 0.0000
# 5 0.0000 0.0000 0.0000 0.0000 14.7771 0.0000
# 6 0.0000 0.0000 0.0000 0.0000 0.0000 -31.9154
#
#
#
# Elastic Compliance Matrix: (Units=1/GPa)
#
#
# Indices 1 2 3 4 5 6 
#
# 1 0.012582 -0.003874 -0.005829 0.000000 0.000000 0.000000
# 2 -0.003874 0.014857 -0.002814 0.000000 0.000000 0.000000
# 3 -0.005829 -0.002814 0.013381 0.000000 0.000000 0.000000
# 4 0.000000 0.000000 0.000000 0.040622 0.000000 0.000000
# 5 0.000000 0.000000 0.000000 0.000000 0.067672 0.000000
# 6 0.000000 0.000000 0.000000 0.000000 0.000000 -0.031333
#
#
# Mechanical properties :
#
#
# Convention : Reuss Voigt Hill
#
# Bulk Modulus (GPa) = 63.34508 66.89549 65.12029
# Shear Modulus (GPa) = 33.76623 13.11521 23.44072
#
# Velocity S-wave (km/s) = 4.22862 2.63539 3.52324
# Velocity P-wave (km/s) = 7.57539 6.68472 7.14395
#
# Compressibility (1/GPa) = 0.01578655
#
# Stress axis : x y z
#
# Youngs Moduli (GPa) = 79.48173 67.30864 74.73049
#
# Poissons Ratio (x) = 0.26073 0.43560
# Poissons Ratio (y) = 0.30788 0.21030
# Poissons Ratio (z) = 0.46329 0.18942
#
# Static dielectric constant tensor:
#      x y z
#    x 1.682200 0.000000 0.000000 
#    y 0.000000 1.686330 0.000000 
#    z 0.000000 0.000000 1.647950 
# 
# From -- ./inp_files/33459.got.cif
#   From: 2010.05.17/outbox.cif.g08.bks.cpg/sg72_17_cif.got.tgz:33459.got - 2010.06.03 17:03:01.
