data_PCOD9528375
_publ_section_title
;
Structure prediction by ZEFSAII (Michael W. Deem and Ramdas Pophale) SiO2 
 PCOD9528375
Probable space group: I B A M
;
_chemical_formula_sum "Si O2"
_cell_formula_units_Z 112
_cell_length_a 14.393100
_cell_length_b 12.619097
_cell_length_c 30.116453
_cell_angle_alpha 90.000000
_cell_angle_beta 90.000000
_cell_angle_gamma 90.000000
_cell_volume 5469.988868
_symmetry_space_group_name_H-M "I B A M"
_symmetry_group_IT_number 72
_symmetry_cell_setting 'orthorhombic'
loop_
_space_group_symop_operation_xyz
x,y,z
-x,-y,z
x,-y,1/2-z
-x,y,1/2-z
-x,-y,-z
x,y,-z
-x,y,1/2+z
x,-y,1/2+z
1/2+x,1/2+y,1/2+z
1/2-x,1/2-y,1/2+z
1/2+x,1/2-y,-z
1/2-x,1/2+y,-z
1/2-x,1/2-y,1/2-z
1/2+x,1/2+y,1/2-z
1/2-x,1/2+y,z
1/2+x,1/2-y,z
loop_
_atom_site_type_symbol
_atom_site_label
_atom_site_fract_x
_atom_site_fract_y
_atom_site_fract_z
Si Si1 0.858874 0.770278 0.740144
Si Si2 0.513139 0.625138 0.585160
Si Si3 0.154493 0.291079 0.050211
Si Si4 0.111549 0.498382 0.892527
Si Si5 0.499250 0.622945 0.689899
Si Si6 0.105869 0.541813 0.794327
Si Si7 0.637887 0.209086 0.550622
O O1 0.750000 0.750000 0.750000
O O2 0.922855 0.810310 0.781881
O O3 0.897489 0.664306 0.717136
O O4 0.892098 0.850141 0.702027
O O5 0.500000 0.500000 0.574248
O O6 0.601078 0.683723 0.563690
O O7 0.519512 0.636005 0.638225
O O8 0.430099 0.700876 0.569191
O O9 0.137380 0.388709 0.083542
O O10 0.261583 0.261211 0.050389
O O11 0.126399 0.322332 0.000000
O O12 0.147560 0.510807 0.841801
O O13 0.138605 0.602303 0.920407
O O14 0.000000 0.500000 0.890026
O O15 0.500000 0.500000 0.701001
O O16 0.156380 0.500000 0.750000
O O17 0.000000 0.500000 0.794996
O O18 0.610928 0.182036 0.500000
#
# Coordination Sequence:
#
# PCOD9528375 Si02
#       7
#    16  16  16  16  16  16  16
#     4  11  23  40  66  95 129 174 224 276 329 400
#     4  11  25  44  68 100 136 185 225 281 343 417
#     4  11  26  44  70 102 137 183 228 286 353 410
#     4  11  23  43  72  99 133 176 233 284 341 413
#     4  10  23  44  66  91 135 177 224 274 337 401
#     4  10  22  39  63  97 131 169 209 275 335 387
#     4  11  25  44  67  99 137 177 229 288 344 410
#
# _framework density 20.475360999999999
#
# number of rings (size 3 to 8) (size 9 to 14) (size 15 to 20)
#    0.000    1.286    1.429    4.286    6.000    5.143 
#    2.571    0.000    0.000    0.000    0.000    0.000 
#    0.000    0.000    0.000    0.000    0.000    0.000 
#
# Total GULP energy -312244.679157 kJ/mol
# GULP energy per Si atom -5575.797842 kJ/mol
# Density = 2.042876 g / cm^3
# Si number density = 20.475361 Si / 1000 Ang^3
#
#
#
# Elastic Constant Matrix: (Units=GPa)
#
#
# Indices 1 2 3 4 5 6 
#
# 1 71.9742 2.0532 -0.0085 0.0000 0.0000 0.0000
# 2 2.0532 109.7779 50.4249 0.0000 0.0000 0.0000
# 3 -0.0085 50.4249 157.9000 0.0000 0.0000 0.0000
# 4 0.0000 0.0000 0.0000 66.3856 0.0000 0.0000
# 5 0.0000 0.0000 0.0000 0.0000 14.5619 0.0000
# 6 0.0000 0.0000 0.0000 0.0000 0.0000 9.6856
#
#
#
# Elastic Compliance Matrix: (Units=1/GPa)
#
#
# Indices 1 2 3 4 5 6 
#
# 1 0.013903 -0.000305 0.000098 0.000000 0.000000 0.000000
# 2 -0.000305 0.010682 -0.003411 0.000000 0.000000 0.000000
# 3 0.000098 -0.003411 0.007422 0.000000 0.000000 0.000000
# 4 0.000000 0.000000 0.000000 0.015063 0.000000 0.000000
# 5 0.000000 0.000000 0.000000 0.000000 0.068673 0.000000
# 6 0.000000 0.000000 0.000000 0.000000 0.000000 0.103246
#
#
# Mechanical properties :
#
#
# Convention : Reuss Voigt Hill
#
# Bulk Modulus (GPa) = 40.37043 49.39905 44.88474
# Shear Modulus (GPa) = 21.32360 37.27213 29.29786
#
# Velocity S-wave (km/s) = 3.23062 4.27117 3.78681
# Velocity P-wave (km/s) = 5.80304 6.96436 6.41005
#
# Compressibility (1/GPa) = 0.02477061
#
# Stress axis : x y z
#
# Youngs Moduli (GPa) = 71.92912 93.61611 134.72551
#
# Poissons Ratio (x) = 0.02856 -0.01323
# Poissons Ratio (y) = 0.02195 0.45958
# Poissons Ratio (z) = -0.00706 0.31935
#
# Static dielectric constant tensor:
#      x y z
#    x 1.764470 0.000000 0.000000 
#    y 0.000000 1.447100 0.000000 
#    z 0.000000 0.000000 1.657840 
# 
# From -- ./inp_files/51765.got.cif
#   From: 2010.05.17/outbox.cif.g08.bks.cpg/sg72_26_cif.got.tgz:51765.got - 2010.06.03 17:03:01.
