data_PCOD9528360
_publ_section_title
;
Structure prediction by ZEFSAII (Michael W. Deem and Ramdas Pophale) SiO2 
 PCOD9528360
Probable space group: I B A M
;
_chemical_formula_sum "Si O2"
_cell_formula_units_Z 80
_cell_length_a 15.546074
_cell_length_b 10.414399
_cell_length_c 26.200114
_cell_angle_alpha 90.000000
_cell_angle_beta 90.000000
_cell_angle_gamma 90.000000
_cell_volume 4241.877516
_symmetry_space_group_name_H-M "I B A M"
_symmetry_group_IT_number 72
_symmetry_cell_setting 'orthorhombic'
loop_
_space_group_symop_operation_xyz
x,y,z
-x,-y,z
x,-y,1/2-z
-x,y,1/2-z
-x,-y,-z
x,y,-z
-x,y,1/2+z
x,-y,1/2+z
1/2+x,1/2+y,1/2+z
1/2-x,1/2-y,1/2+z
1/2+x,1/2-y,-z
1/2-x,1/2+y,-z
1/2-x,1/2-y,1/2-z
1/2+x,1/2+y,1/2-z
1/2-x,1/2+y,z
1/2+x,1/2-y,z
loop_
_atom_site_type_symbol
_atom_site_label
_atom_site_fract_x
_atom_site_fract_y
_atom_site_fract_z
Si Si1 0.594064 0.212106 0.375915
Si Si2 0.401898 0.266842 0.373801
Si Si3 0.239912 0.810135 0.060000
Si Si4 0.674658 0.466667 0.648402
Si Si5 0.859446 0.474637 0.691971
O O1 0.498134 0.244292 0.393199
O O2 0.663680 0.214243 0.421532
O O3 0.626299 0.332424 0.341004
O O4 0.598980 0.081455 0.344681
O O5 0.329608 0.236702 0.416141
O O6 0.385703 0.410620 0.354250
O O7 0.385086 0.165196 0.328472
O O8 0.213839 0.938219 0.091682
O O9 0.242631 0.826393 0.000000
O O10 0.756313 0.487484 0.684428
O O11 0.883595 0.500000 0.750000
#
# Coordination Sequence:
#
# PCOD9528360 Si02
#       5
#    16  16  16  16  16
#     4  10  22  39  60  93 123 158 206 255 302 366
#     4  11  21  39  63  90 124 159 206 254 302 364
#     4   9  21  39  62  89 123 159 197 248 312 361
#     4   9  20  40  60  90 117 160 202 257 297 360
#     4  11  22  41  64  87 124 169 204 250 317 373
#
# _framework density 18.859573000000001
#
# number of rings (size 3 to 8) (size 9 to 14) (size 15 to 20)
#    1.200    0.800    2.000    1.200    0.000    6.400 
#    0.000    1.000    0.000    7.200    0.000    0.000 
#    0.000    0.000    0.000    0.000    0.000    0.000 
#
# Total GULP energy -222917.499245 kJ/mol
# GULP energy per Si atom -5572.937481 kJ/mol
# Density = 1.881665 g / cm^3
# Si number density = 18.859573 Si / 1000 Ang^3
#
#
#
# Elastic Constant Matrix: (Units=GPa)
#
#
# Indices 1 2 3 4 5 6 
#
# 1 110.5258 -15.7162 -7.0441 0.0000 0.0000 0.0000
# 2 -15.7162 78.3007 -5.5655 0.0000 0.0000 0.0000
# 3 -7.0441 -5.5655 55.4513 0.0000 0.0000 0.0000
# 4 0.0000 0.0000 0.0000 8.9202 0.0000 0.0000
# 5 0.0000 0.0000 0.0000 0.0000 -1.7158 0.0000
# 6 0.0000 0.0000 0.0000 0.0000 0.0000 24.8358
#
#
#
# Elastic Compliance Matrix: (Units=1/GPa)
#
#
# Indices 1 2 3 4 5 6 
#
# 1 0.009420 0.001990 0.001396 0.000000 0.000000 0.000000
# 2 0.001990 0.013283 0.001586 0.000000 0.000000 0.000000
# 3 0.001396 0.001586 0.018370 0.000000 0.000000 0.000000
# 4 0.000000 0.000000 0.000000 0.112106 0.000000 0.000000
# 5 0.000000 0.000000 0.000000 0.000000 -0.582810 0.000000
# 6 0.000000 0.000000 0.000000 0.000000 0.000000 0.040264
#
#
# Mechanical properties :
#
#
# Convention : Reuss Voigt Hill
#
# Bulk Modulus (GPa) = 19.60095 20.84735 20.22415
# Shear Modulus (GPa) = -13.07857 24.58160 5.75152
#
# Velocity S-wave (km/s) = -2.63624 3.61418 1.74822
# Velocity P-wave (km/s) = 1.07206 5.33801 3.84992
#
# Compressibility (1/GPa) = 0.05101792
#
# Stress axis : x y z
#
# Youngs Moduli (GPa) = 106.16152 75.28180 54.43540
#
# Poissons Ratio (x) = -0.14980 -0.07601
# Poissons Ratio (y) = -0.21125 -0.08634
# Poissons Ratio (z) = -0.14824 -0.11940
#
# Static dielectric constant tensor:
#      x y z
#    x 1.675890 0.000000 0.000000 
#    y 0.000000 1.665620 0.000000 
#    z 0.000000 0.000000 1.609700 
# 
# From -- ./inp_files/48542.got.cif
#   From: 2010.05.17/outbox.cif.g08.bks.cpg/sg72_25_cif.got.tgz:48542.got - 2010.06.03 17:03:01.
