data_PCOD9528252
_publ_section_title
;
Structure prediction by ZEFSAII (Michael W. Deem and Ramdas Pophale) SiO2 
 PCOD9528252
Probable space group: I B A M
;
_chemical_formula_sum "Si O2"
_cell_formula_units_Z 88
_cell_length_a 16.859576
_cell_length_b 10.916915
_cell_length_c 20.325685
_cell_angle_alpha 90.000000
_cell_angle_beta 90.000000
_cell_angle_gamma 90.000000
_cell_volume 3741.034971
_symmetry_space_group_name_H-M "I B A M"
_symmetry_group_IT_number 72
_symmetry_cell_setting 'orthorhombic'
loop_
_space_group_symop_operation_xyz
x,y,z
-x,-y,z
x,-y,1/2-z
-x,y,1/2-z
-x,-y,-z
x,y,-z
-x,y,1/2+z
x,-y,1/2+z
1/2+x,1/2+y,1/2+z
1/2-x,1/2-y,1/2+z
1/2+x,1/2-y,-z
1/2-x,1/2+y,-z
1/2-x,1/2-y,1/2-z
1/2+x,1/2+y,1/2-z
1/2-x,1/2+y,z
1/2+x,1/2-y,z
loop_
_atom_site_type_symbol
_atom_site_label
_atom_site_fract_x
_atom_site_fract_y
_atom_site_fract_z
Si Si1 0.745678 0.039748 0.108583
Si Si2 0.131607 0.632057 0.500000
Si Si3 0.826435 0.707091 0.394447
Si Si4 0.425004 0.387469 0.500000
Si Si5 0.500000 0.500000 0.118958
Si Si6 0.307059 0.500000 0.750000
Si Si7 0.956141 0.679592 0.500000
Si Si8 0.077664 0.800034 0.782660
O O1 0.742851 0.892830 0.095962
O O2 0.802591 0.153356 0.087749
O O3 0.755706 0.040045 0.187446
O O4 0.669566 0.081079 0.066435
O O5 0.137422 0.779017 0.500000
O O6 0.038348 0.608763 0.500000
O O7 0.900246 0.666290 0.438115
O O8 0.861598 0.712658 0.320670
O O9 0.430137 0.456082 0.430659
O O10 0.510278 0.318058 0.500000
O O11 0.537199 0.605703 0.164626
O O12 0.367554 0.613669 0.763699
O O13 0.000000 0.741198 0.750000
#
# Coordination Sequence:
#
# PCOD9528252 Si02
#       8
#    16   8  16   8   8   8   8  16
#     4  11  26  47  69 103 145 201 238 300 373 457
#     4  10  23  47  70 100 145 191 236 313 380 427
#     4  11  25  46  70 103 143 190 245 298 368 449
#     4   9  22  36  66 108 137 176 230 312 359 437
#     4  11  17  38  64 112 141 175 240 306 366 428
#     4  10  23  42  68  97 144 190 248 290 370 455
#     4  10  21  45  71 104 135 185 247 304 371 438
#     4  11  20  38  70 104 139 190 245 316 369 428
#
# _framework density 23.522901999999998
#
# number of rings (size 3 to 8) (size 9 to 14) (size 15 to 20)
#    0.545    0.909    3.636    1.091    0.000    7.273 
#    9.818    0.000    0.000    0.000    0.000    0.000 
#    0.000    0.000    0.000    0.000    0.000    0.000 
#
# Total GULP energy -245074.820174 kJ/mol
# GULP energy per Si atom -5569.882277 kJ/mol
# Density = 2.346936 g / cm^3
# Si number density = 23.522902 Si / 1000 Ang^3
#
#
#
# Elastic Constant Matrix: (Units=GPa)
#
#
# Indices 1 2 3 4 5 6 
#
# 1 120.3733 62.7847 51.8030 0.0000 0.0000 0.0000
# 2 62.7847 91.5407 25.1741 0.0000 0.0000 0.0000
# 3 51.8030 25.1741 92.9242 0.0000 0.0000 0.0000
# 4 0.0000 0.0000 0.0000-2467.8471 0.0000 0.0000
# 5 0.0000 0.0000 0.0000 0.0000 42.1210 0.0000
# 6 0.0000 0.0000 0.0000 0.0000 0.0000 37.3694
#
#
#
# Elastic Compliance Matrix: (Units=1/GPa)
#
#
# Indices 1 2 3 4 5 6 
#
# 1 0.015762 -0.009070 -0.006330 0.000000 0.000000 0.000000
# 2 -0.009070 0.017023 0.000445 0.000000 0.000000 0.000000
# 3 -0.006330 0.000445 0.014170 0.000000 0.000000 0.000000
# 4 0.000000 0.000000 0.000000 -0.000405 0.000000 0.000000
# 5 0.000000 0.000000 0.000000 0.000000 0.023741 0.000000
# 6 0.000000 0.000000 0.000000 0.000000 0.000000 0.026760
#
#
# Mechanical properties :
#
#
# Convention : Reuss Voigt Hill
#
# Bulk Modulus (GPa) = 58.67102 64.92908 61.80005
# Shear Modulus (GPa) = 37.69517 -466.66625 -214.48554
#
# Velocity S-wave (km/s) = 4.00745 -14.10031 -9.55926
# Velocity P-wave (km/s) = 6.81242 15.40874 9.77292
#
# Compressibility (1/GPa) = 0.01704419
#
# Stress axis : x y z
#
# Youngs Moduli (GPa) = 63.44178 58.74505 70.57271
#
# Poissons Ratio (x) = 0.53283 0.44673
# Poissons Ratio (y) = 0.57543 -0.03139
# Poissons Ratio (z) = 0.40159 -0.02613
#
# Static dielectric constant tensor:
#      x y z
#    x 1.916860 0.000000 0.000000 
#    y 0.000000 1.971340 0.000000 
#    z 0.000000 0.000000 1.620800 
# 
# From -- ./inp_files/38939.got.cif
#   From: 2010.05.17/outbox.cif.g08.bks.cpg/sg72_20_cif.got.tgz:38939.got - 2010.06.03 17:03:01.
