data_PCOD9528249
_publ_section_title
;
Structure prediction by ZEFSAII (Michael W. Deem and Ramdas Pophale) SiO2 
 PCOD9528249
Probable space group: I B A M
;
_chemical_formula_sum "Si O2"
_cell_formula_units_Z 112
_cell_length_a 15.717666
_cell_length_b 24.966656
_cell_length_c 14.796360
_cell_angle_alpha 90.000000
_cell_angle_beta 90.000000
_cell_angle_gamma 90.000000
_cell_volume 5806.351490
_symmetry_space_group_name_H-M "I B A M"
_symmetry_group_IT_number 72
_symmetry_cell_setting 'orthorhombic'
loop_
_space_group_symop_operation_xyz
x,y,z
-x,-y,z
x,-y,1/2-z
-x,y,1/2-z
-x,-y,-z
x,y,-z
-x,y,1/2+z
x,-y,1/2+z
1/2+x,1/2+y,1/2+z
1/2-x,1/2-y,1/2+z
1/2+x,1/2-y,-z
1/2-x,1/2+y,-z
1/2-x,1/2-y,1/2-z
1/2+x,1/2+y,1/2-z
1/2-x,1/2+y,z
1/2+x,1/2-y,z
loop_
_atom_site_type_symbol
_atom_site_label
_atom_site_fract_x
_atom_site_fract_y
_atom_site_fract_z
Si Si1 0.600070 0.438346 0.392790
Si Si2 0.399929 0.438347 0.607210
Si Si3 0.699603 0.370381 0.750000
Si Si4 0.407400 0.729705 0.249999
Si Si5 0.358812 0.058885 0.749999
Si Si6 0.000001 0.710392 0.895846
Si Si7 0.500000 0.081889 0.604928
O O1 0.612008 0.432018 0.500000
O O2 0.621043 0.500000 0.369423
O O3 0.499999 0.430760 0.373483
O O4 0.655412 0.397450 0.336651
O O5 0.387991 0.432018 0.500000
O O6 0.344586 0.397451 0.663348
O O7 0.672838 0.308504 0.750001
O O8 0.795535 0.391027 0.749999
O O9 0.500000 0.697877 0.250000
O O10 0.420214 0.766210 0.338797
O O11 0.420215 0.766210 0.161201
O O12 0.418860 0.062561 0.662018
O O13 0.418862 0.062561 0.837978
O O14 0.316189 0.000000 0.750000
O O15 0.000001 0.646532 0.891735
O O16 0.000001 0.727585 0.000000
O O17 0.500002 0.065648 0.500000
#
# Coordination Sequence:
#
# PCOD9528249 Si02
#       7
#    16  16  16  16  16  16  16
#     4   9  18  31  47  68 101 152 204 236 261 309
#     4   9  18  31  47  68 101 152 204 236 261 309
#     4  12  21  33  49  81 121 155 182 220 280 331
#     4   8  18  31  54  87 116 153 188 221 266 326
#     4  11  24  38  59  90 118 146 185 236 286 345
#     4   8  17  37  63  85 107 143 191 239 281 329
#     4  10  21  44  70  83 102 141 189 245 307 353
#
# _framework density 19.289221000000001
#
# number of rings (size 3 to 8) (size 9 to 14) (size 15 to 20)
#    0.857    1.429    0.000    6.000    0.000    4.571 
#    0.000    2.857    0.000    3.429    0.000    0.000 
#    0.000    0.000    0.000    0.000    0.000    0.000 
#
# Total GULP energy -312234.206881 kJ/mol
# GULP energy per Si atom -5575.610837 kJ/mol
# Density = 1.924532 g / cm^3
# Si number density = 19.289221 Si / 1000 Ang^3
#
#
#
# Elastic Constant Matrix: (Units=GPa)
#
#
# Indices 1 2 3 4 5 6 
#
# 1 53.7207 24.0418 29.3134 0.0000 0.0000 0.0000
# 2 24.0418 84.9660 39.0568 0.0000 0.0000 0.0000
# 3 29.3134 39.0568 134.8169 -0.0001 0.0000 0.0000
# 4 0.0000 0.0000 -0.0001 32.6812 0.0000 0.0000
# 5 0.0000 0.0000 0.0000 0.0000 9.6505 0.0000
# 6 0.0000 0.0000 0.0000 0.0000 0.0000 -8.7444
#
#
#
# Elastic Compliance Matrix: (Units=1/GPa)
#
#
# Indices 1 2 3 4 5 6 
#
# 1 0.022694 -0.004791 -0.003546 0.000000 0.000000 0.000000
# 2 -0.004791 0.014589 -0.003185 0.000000 0.000000 0.000000
# 3 -0.003546 -0.003185 0.009111 0.000000 0.000000 0.000000
# 4 0.000000 0.000000 0.000000 0.030599 0.000000 0.000000
# 5 0.000000 0.000000 0.000000 0.000000 0.103622 0.000000
# 6 0.000000 0.000000 0.000000 0.000000 0.000000 -0.114358
#
#
# Mechanical properties :
#
#
# Convention : Reuss Voigt Hill
#
# Bulk Modulus (GPa) = 42.82717 50.92528 46.87622
# Shear Modulus (GPa) = 51.50140 18.79022 35.14581
#
# Velocity S-wave (km/s) = 5.17277 3.12449 4.27317
# Velocity P-wave (km/s) = 7.61102 6.28290 6.97862
#
# Compressibility (1/GPa) = 0.02334966
#
# Stress axis : x y z
#
# Youngs Moduli (GPa) = 44.06409 68.54435 109.75530
#
# Poissons Ratio (x) = 0.32842 0.38923
# Poissons Ratio (y) = 0.21113 0.34954
# Poissons Ratio (z) = 0.15627 0.21829
#
# Static dielectric constant tensor:
#      x y z
#    x 1.681700 0.000000 0.000000 
#    y 0.000000 1.685840 0.000000 
#    z 0.000000 0.000000 1.655180 
# 
# From -- ./inp_files/22149.got.cif
#   From: 2010.05.17/outbox.cif.g08.bks.cpg/sg72_12_cif.got.tgz:22149.got - 2010.06.03 17:03:01.
