data_PCOD9528294
_publ_section_title
;
Structure prediction by ZEFSAII (Michael W. Deem and Ramdas Pophale) SiO2 
 PCOD9528294
Probable space group: I B A M
;
_chemical_formula_sum "Si O2"
_cell_formula_units_Z 96
_cell_length_a 21.614564
_cell_length_b 9.373804
_cell_length_c 22.476339
_cell_angle_alpha 90.000000
_cell_angle_beta 90.000000
_cell_angle_gamma 90.000000
_cell_volume 4553.946474
_symmetry_space_group_name_H-M "I B A M"
_symmetry_group_IT_number 72
_symmetry_cell_setting 'orthorhombic'
loop_
_space_group_symop_operation_xyz
x,y,z
-x,-y,z
x,-y,1/2-z
-x,y,1/2-z
-x,-y,-z
x,y,-z
-x,y,1/2+z
x,-y,1/2+z
1/2+x,1/2+y,1/2+z
1/2-x,1/2-y,1/2+z
1/2+x,1/2-y,-z
1/2-x,1/2+y,-z
1/2-x,1/2-y,1/2-z
1/2+x,1/2+y,1/2-z
1/2-x,1/2+y,z
1/2+x,1/2-y,z
loop_
_atom_site_type_symbol
_atom_site_label
_atom_site_fract_x
_atom_site_fract_y
_atom_site_fract_z
Si Si1 0.178439 0.668475 0.588933
Si Si2 0.517629 0.664441 0.813343
Si Si3 0.144069 0.904068 0.142027
Si Si4 0.731709 0.880824 0.709235
Si Si5 0.202268 0.339407 0.563665
Si Si6 0.433586 0.651739 0.070310
O O1 0.185149 0.673461 0.659585
O O2 0.198044 0.507804 0.573153
O O3 0.227457 0.783477 0.565007
O O4 0.111466 0.712604 0.568262
O O5 0.500000 0.500000 0.807330
O O6 0.500000 0.737513 0.750000
O O7 0.591337 0.658745 0.815993
O O8 0.486083 0.691668 0.879327
O O9 0.206421 0.948589 0.177659
O O10 0.167778 0.764706 0.107804
O O11 0.109353 0.023363 0.100276
O O12 0.750000 0.750000 0.750000
O O13 0.702130 0.000000 0.750000
O O14 0.174187 0.308136 0.500000
O O15 0.450848 0.620429 0.000000
#
# Coordination Sequence:
#
# PCOD9528294 Si02
#       6
#    16  16  16  16  16  16
#     4  11  23  38  56  92 120 161 207 251 311 371
#     4   9  21  38  62  91 123 162 207 260 308 365
#     4  10  22  37  60  90 121 157 209 253 316 366
#     4  11  22  35  57  84 120 159 199 252 309 374
#     4  11  21  37  59  85 123 160 199 254 310 371
#     4  11  22  39  64  93 126 165 209 260 312 375
#
# _framework density 21.080618000000001
#
# number of rings (size 3 to 8) (size 9 to 14) (size 15 to 20)
#    0.000    1.500    0.000    7.000    7.000    3.667 
#    0.000    0.833    0.000    3.000    0.000    0.000 
#    0.000    0.000    0.000    0.000    0.000    0.000 
#
# Total GULP energy -267227.036224 kJ/mol
# GULP energy per Si atom -5567.229921 kJ/mol
# Density = 2.103264 g / cm^3
# Si number density = 21.080618 Si / 1000 Ang^3
#
#
#
# Elastic Constant Matrix: (Units=GPa)
#
#
# Indices 1 2 3 4 5 6 
#
# 1 57.6812 -10.1166 11.2018 0.0000 0.0000 0.0000
# 2 -10.1166 73.4769 4.1414 0.0000 0.0000 0.0000
# 3 11.2018 4.1414 138.8198 0.0000 0.0000 0.0000
# 4 0.0000 0.0000 0.0000 19.4724 0.0000 0.0000
# 5 0.0000 0.0000 0.0000 0.0000 -3.5345 0.0000
# 6 0.0000 0.0000 0.0000 0.0000 0.0000 22.2851
#
#
#
# Elastic Compliance Matrix: (Units=1/GPa)
#
#
# Indices 1 2 3 4 5 6 
#
# 1 0.018087 0.002577 -0.001536 0.000000 0.000000 0.000000
# 2 0.002577 0.014000 -0.000626 0.000000 0.000000 0.000000
# 3 -0.001536 -0.000626 0.007346 0.000000 0.000000 0.000000
# 4 0.000000 0.000000 0.000000 0.051355 0.000000 0.000000
# 5 0.000000 0.000000 0.000000 0.000000 -0.282923 0.000000
# 6 0.000000 0.000000 0.000000 0.000000 0.000000 0.044873
#
#
# Mechanical properties :
#
#
# Convention : Reuss Voigt Hill
#
# Bulk Modulus (GPa) = 24.83679 31.15901 27.99790
# Shear Modulus (GPa) = -37.12758 25.29467 -5.91645
#
# Velocity S-wave (km/s) = -4.20124 3.46772 -1.67710
# Velocity P-wave (km/s) = 3.42440 5.55395 3.09192
#
# Compressibility (1/GPa) = 0.04026286
#
# Stress axis : x y z
#
# Youngs Moduli (GPa) = 55.28831 71.42973 136.12444
#
# Poissons Ratio (x) = -0.18407 0.20914
# Poissons Ratio (y) = -0.14247 0.08516
# Poissons Ratio (z) = 0.08494 0.04469
#
# Static dielectric constant tensor:
#      x y z
#    x 1.930090 0.000000 0.000000 
#    y 0.000000 1.670900 0.000000 
#    z 0.000000 0.000000 1.923470 
# 
# From -- ./inp_files/45643.got.cif
#   From: 2010.05.17/outbox.cif.g08.bks.cpg/sg72_23_cif.got.tgz:45643.got - 2010.06.03 17:03:01.
