data_PCOD9528539
_publ_section_title
;
Structure prediction by ZEFSAII (Michael W. Deem and Ramdas Pophale) SiO2 
 PCOD9528539
Probable space group: I B A M
;
_chemical_formula_sum "Si O2"
_cell_formula_units_Z 88
_cell_length_a 11.864904
_cell_length_b 17.588460
_cell_length_c 15.394738
_cell_angle_alpha 90.000000
_cell_angle_beta 90.000000
_cell_angle_gamma 90.000000
_cell_volume 3212.656894
_symmetry_space_group_name_H-M "I B A M"
_symmetry_group_IT_number 72
_symmetry_cell_setting 'orthorhombic'
loop_
_space_group_symop_operation_xyz
x,y,z
-x,-y,z
x,-y,1/2-z
-x,y,1/2-z
-x,-y,-z
x,y,-z
-x,y,1/2+z
x,-y,1/2+z
1/2+x,1/2+y,1/2+z
1/2-x,1/2-y,1/2+z
1/2+x,1/2-y,-z
1/2-x,1/2+y,-z
1/2-x,1/2-y,1/2-z
1/2+x,1/2+y,1/2-z
1/2-x,1/2+y,z
1/2+x,1/2-y,z
loop_
_atom_site_type_symbol
_atom_site_label
_atom_site_fract_x
_atom_site_fract_y
_atom_site_fract_z
Si Si1 0.818635 0.356867 0.500000
Si Si2 0.359606 0.217960 0.000000
Si Si3 0.401825 0.443465 0.603173
Si Si4 0.786888 0.676904 0.807637
Si Si5 0.148641 0.440570 0.321512
Si Si6 0.543132 0.697892 0.155669
Si Si7 0.650006 0.042199 0.500000
O O1 0.721312 0.291352 0.500000
O O2 0.852736 0.335526 0.600967
O O3 0.810995 0.450824 0.500000
O O4 0.429172 0.236754 0.086684
O O5 0.301979 0.134689 0.000000
O O6 0.500000 0.500000 0.635585
O O7 0.388967 0.458220 0.500000
O O8 0.279736 0.453766 0.646451
O O9 0.448453 0.358775 0.618055
O O10 0.750000 0.750000 0.750000
O O11 0.852643 0.634151 0.733388
O O12 0.659086 0.648944 0.831375
O O13 0.119311 0.500000 0.250000
O O14 0.084849 0.446860 0.410814
O O15 0.500000 0.722099 0.250000
#
# Coordination Sequence:
#
# PCOD9528539 Si02
#       7
#     8   8  16  16  16  16   8
#     4  10  22  42  63  87 135 178 197 262 338 374
#     4  10  24  41  61  97 135 163 226 269 315 397
#     4  11  23  34  54  85 128 175 209 247 312 410
#     4  11  23  39  61  91 126 166 217 265 317 388
#     4  12  22  35  58  92 129 165 218 255 307 398
#     4  11  21  38  60  84 128 175 204 261 330 384
#     4  12  24  41  64  91 135 179 212 270 319 379
#
# _framework density 27.391656999999999
#
# number of rings (size 3 to 8) (size 9 to 14) (size 15 to 20)
#    0.000    0.909    5.455    3.273    2.545    0.000 
#    0.000    0.909    0.000    0.000    0.000    3.818 
#    0.000    0.000    0.000    0.000    0.000    0.000 
#
# Total GULP energy -245107.245750 kJ/mol
# GULP energy per Si atom -5570.619222 kJ/mol
# Density = 2.732931 g / cm^3
# Si number density = 27.391657 Si / 1000 Ang^3
#
#
#
# Elastic Constant Matrix: (Units=GPa)
#
#
# Indices 1 2 3 4 5 6 
#
# 1 123.8283 25.0728 12.2708 0.0000 0.0000 0.0000
# 2 25.0728 190.8697 71.2518 0.0000 0.0000 0.0000
# 3 12.2708 71.2518 286.3927 0.0000 0.0000 0.0000
# 4 0.0000 0.0000 0.0000 33.4857 0.0000 0.0000
# 5 0.0000 0.0000 0.0000 0.0000 -63.7097 0.0000
# 6 0.0000 0.0000 0.0000 0.0000 0.0000 43.4293
#
#
#
# Elastic Compliance Matrix: (Units=1/GPa)
#
#
# Indices 1 2 3 4 5 6 
#
# 1 0.008299 -0.001055 -0.000093 0.000000 0.000000 0.000000
# 2 -0.001055 0.005910 -0.001425 0.000000 0.000000 0.000000
# 3 -0.000093 -0.001425 0.003850 0.000000 0.000000 0.000000
# 4 0.000000 0.000000 0.000000 0.029864 0.000000 0.000000
# 5 0.000000 0.000000 0.000000 0.000000 -0.015696 0.000000
# 6 0.000000 0.000000 0.000000 0.000000 0.000000 0.023026
#
#
# Mechanical properties :
#
#
# Convention : Reuss Voigt Hill
#
# Bulk Modulus (GPa) = 77.44909 90.92016 84.18462
# Shear Modulus (GPa) = 77.27646 35.47407 56.37527
#
# Velocity S-wave (km/s) = 5.31723 3.60261 4.54157
# Velocity P-wave (km/s) = 8.12609 7.11124 7.63554
#
# Compressibility (1/GPa) = 0.01291171
#
# Stress axis : x y z
#
# Youngs Moduli (GPa) = 120.50212 169.21050 259.72405
#
# Poissons Ratio (x) = 0.17858 0.02415
# Poissons Ratio (y) = 0.12718 0.37013
# Poissons Ratio (z) = 0.01121 0.24114
#
# Static dielectric constant tensor:
#      x y z
#    x 2.377740 0.000000 0.000000 
#    y 0.000000 2.103100 0.000000 
#    z 0.000000 0.000000 2.384150 
# 
# From -- ./inp_files/23227.got.cif
#   From: 2010.05.17/outbox.cif.g08.bks.cpg/sg72_12_cif.got.tgz:23227.got - 2010.06.03 17:03:01.
