data_PCOD9528474
_publ_section_title
;
Structure prediction by ZEFSAII (Michael W. Deem and Ramdas Pophale) SiO2 
 PCOD9528474
Probable space group: I B A M
;
_chemical_formula_sum "Si O2"
_cell_formula_units_Z 64
_cell_length_a 8.827770
_cell_length_b 21.403089
_cell_length_c 15.172815
_cell_angle_alpha 90.000000
_cell_angle_beta 90.000000
_cell_angle_gamma 90.000000
_cell_volume 2866.775138
_symmetry_space_group_name_H-M "I B A M"
_symmetry_group_IT_number 72
_symmetry_cell_setting 'orthorhombic'
loop_
_space_group_symop_operation_xyz
x,y,z
-x,-y,z
x,-y,1/2-z
-x,y,1/2-z
-x,-y,-z
x,y,-z
-x,y,1/2+z
x,-y,1/2+z
1/2+x,1/2+y,1/2+z
1/2-x,1/2-y,1/2+z
1/2+x,1/2-y,-z
1/2-x,1/2+y,-z
1/2-x,1/2-y,1/2-z
1/2+x,1/2+y,1/2-z
1/2-x,1/2+y,z
1/2+x,1/2-y,z
loop_
_atom_site_type_symbol
_atom_site_label
_atom_site_fract_x
_atom_site_fract_y
_atom_site_fract_z
Si Si1 0.097379 0.317208 0.101470
Si Si2 0.939828 0.064654 0.350498
Si Si3 0.408078 0.062286 0.893060
Si Si4 0.933344 0.193961 0.152002
O O1 0.252375 0.307746 0.153727
O O2 0.002838 0.376736 0.133222
O O3 0.994396 0.255691 0.104981
O O4 0.141876 0.329063 0.000000
O O5 0.759065 0.063904 0.353296
O O6 0.000000 0.064847 0.250000
O O7 0.004177 0.129287 0.389156
O O8 0.000000 0.000000 0.391542
O O9 0.500000 0.000000 0.869176
O O10 0.391595 0.063281 0.000000
O O11 0.000000 0.197826 0.250000
#
# Coordination Sequence:
#
# PCOD9528474 Si02
#       4
#    16  16  16  16
#     4  11  23  40  64  92 123 161 206 255 306 363
#     4  10  22  41  61  89 123 160 203 246 301 361
#     4  10  22  41  65  92 122 159 203 253 306 360
#     4  11  23  40  61  90 126 163 204 250 307 368
#
# _framework density 22.324736000000001
#
# number of rings (size 3 to 8) (size 9 to 14) (size 15 to 20)
#    0.000    1.500    0.000    4.500    0.000    6.500 
#    0.000   12.500    0.000    0.000    0.000    0.000 
#    0.000    0.000    0.000    0.000    0.000    0.000 
#
# Total GULP energy -179108.687466 kJ/mol
# GULP energy per Si atom -5597.146483 kJ/mol
# Density = 2.227392 g / cm^3
# Si number density = 22.324736 Si / 1000 Ang^3
#
#
#
# Elastic Constant Matrix: (Units=GPa)
#
#
# Indices 1 2 3 4 5 6 
#
# 1 235.7403 104.7725 34.5999 0.0000 0.0000 0.0000
# 2 104.7725 227.4842 9.8515 0.0000 0.0000 0.0000
# 3 34.5999 9.8515 67.3924 0.0000 -0.0002 0.0000
# 4 0.0000 0.0000 0.0000 9.3063 -0.0001 0.0000
# 5 0.0000 0.0000 -0.0002 -0.0001 105.5001 0.0000
# 6 0.0000 0.0000 0.0000 0.0000 0.0000 45.3164
#
#
#
# Elastic Compliance Matrix: (Units=1/GPa)
#
#
# Indices 1 2 3 4 5 6 
#
# 1 0.005747 -0.002535 -0.002580 0.000000 0.000000 0.000000
# 2 -0.002535 0.005542 0.000492 0.000000 0.000000 0.000000
# 3 -0.002580 0.000492 0.016091 0.000000 0.000000 0.000000
# 4 0.000000 0.000000 0.000000 0.107454 0.000000 0.000000
# 5 0.000000 0.000000 0.000000 0.000000 0.009479 0.000000
# 6 0.000000 0.000000 0.000000 0.000000 0.000000 0.022067
#
#
# Mechanical properties :
#
#
# Convention : Reuss Voigt Hill
#
# Bulk Modulus (GPa) = 55.14807 92.11831 73.63319
# Shear Modulus (GPa) = 27.52190 57.45076 42.48633
#
# Velocity S-wave (km/s) = 3.51493 5.07839 4.36719
# Velocity P-wave (km/s) = 6.42100 8.70282 7.64750
#
# Compressibility (1/GPa) = 0.01813300
#
# Stress axis : x y z
#
# Youngs Moduli (GPa) = 173.98935 180.42905 62.14536
#
# Poissons Ratio (x) = 0.45746 0.16035
# Poissons Ratio (y) = 0.44113 -0.03054
# Poissons Ratio (z) = 0.44893 -0.08868
#
# Static dielectric constant tensor:
#      x y z
#    x 1.741940 0.000000 0.000000 
#    y 0.000000 1.850470 0.000000 
#    z 0.000000 0.000000 1.903300 
# 
# From -- ./inp_files/18686.got.cif
#   From: 2010.05.17/outbox.cif.g08.bks.cpg/sg72_10_cif.got.tgz:18686.got - 2010.06.03 17:03:01.
