data_PCOD9528088
_publ_section_title
;
Structure prediction by ZEFSAII (Michael W. Deem and Ramdas Pophale) SiO2 
 PCOD9528088
Probable space group: I B A M
;
_chemical_formula_sum "Si O2"
_cell_formula_units_Z 64
_cell_length_a 18.016628
_cell_length_b 19.479906
_cell_length_c 9.882785
_cell_angle_alpha 90.000000
_cell_angle_beta 90.000000
_cell_angle_gamma 90.000000
_cell_volume 3468.484162
_symmetry_space_group_name_H-M "I B A M"
_symmetry_group_IT_number 72
_symmetry_cell_setting 'orthorhombic'
loop_
_space_group_symop_operation_xyz
x,y,z
-x,-y,z
x,-y,1/2-z
-x,y,1/2-z
-x,-y,-z
x,y,-z
-x,y,1/2+z
x,-y,1/2+z
1/2+x,1/2+y,1/2+z
1/2-x,1/2-y,1/2+z
1/2+x,1/2-y,-z
1/2-x,1/2+y,-z
1/2-x,1/2-y,1/2-z
1/2+x,1/2+y,1/2-z
1/2-x,1/2+y,z
1/2+x,1/2-y,z
loop_
_atom_site_type_symbol
_atom_site_label
_atom_site_fract_x
_atom_site_fract_y
_atom_site_fract_z
Si Si1 0.574988 0.559754 0.338771
Si Si2 0.920261 0.589867 0.500000
Si Si3 0.598162 0.926607 0.500000
Si Si4 0.676849 0.691440 0.343316
Si Si5 0.340788 0.159726 0.747587
O O1 0.614318 0.500000 0.250000
O O2 0.500000 0.569738 0.250000
O O3 0.565391 0.542689 0.500000
O O4 0.619969 0.629506 0.336206
O O5 0.896669 0.509387 0.500000
O O6 0.885560 0.629193 0.373030
O O7 0.009904 0.590510 0.500000
O O8 0.637239 0.890840 0.626958
O O9 0.695663 0.706558 0.500000
O O10 0.641527 0.760616 0.283235
O O11 0.752562 0.665947 0.273406
#
# Coordination Sequence:
#
# PCOD9528088 Si02
#       5
#    16   8   8  16  16
#     4  10  21  40  60  89 124 156 200 252 304 365
#     4  11  24  41  64  94 130 167 208 257 306 368
#     4  11  24  41  64  94 130 167 208 257 306 368
#     4  10  22  42  64  90 123 161 207 257 305 366
#     4  11  22  43  64  90 126 163 204 255 308 360
#
# _framework density 18.451864
#
# number of rings (size 3 to 8) (size 9 to 14) (size 15 to 20)
#    0.000    1.500    2.500    3.000    0.000    6.000 
#    9.000    0.000    0.000    0.000    0.000    0.000 
#    0.000    0.000    0.000    0.000    0.000    0.000 
#
# Total GULP energy -178382.321739 kJ/mol
# GULP energy per Si atom -5574.447554 kJ/mol
# Density = 1.840987 g / cm^3
# Si number density = 18.451864 Si / 1000 Ang^3
#
#
#
# Elastic Constant Matrix: (Units=GPa)
#
#
# Indices 1 2 3 4 5 6 
#
# 1 51.5961 71.0725 45.8382 0.0000 0.0000 0.0000
# 2 71.0725 172.5500 87.8917 0.0000 0.0000 0.0000
# 3 45.8382 87.8917 178.9114 0.0000 0.0000 0.0000
# 4 0.0000 0.0000 0.0000 64.5965 0.0000 0.0000
# 5 0.0000 0.0000 0.0000 0.0000 11.8864 0.0000
# 6 0.0000 0.0000 0.0000 0.0000 0.0000 40.4047
#
#
#
# Elastic Compliance Matrix: (Units=1/GPa)
#
#
# Indices 1 2 3 4 5 6 
#
# 1 0.046233 -0.017352 -0.003321 0.000000 0.000000 0.000000
# 2 -0.017352 0.014242 -0.002551 0.000000 0.000000 0.000000
# 3 -0.003321 -0.002551 0.007693 0.000000 0.000000 0.000000
# 4 0.000000 0.000000 0.000000 0.015481 0.000000 0.000000
# 5 0.000000 0.000000 0.000000 0.000000 0.084130 0.000000
# 6 0.000000 0.000000 0.000000 0.000000 0.000000 0.024750
#
#
# Mechanical properties :
#
#
# Convention : Reuss Voigt Hill
#
# Bulk Modulus (GPa) = 46.03774 90.29582 68.16678
# Shear Modulus (GPa) = 20.30739 36.59453 28.45096
#
# Velocity S-wave (km/s) = 3.32107 4.45819 3.93097
# Velocity P-wave (km/s) = 6.30161 8.69153 7.59122
#
# Compressibility (1/GPa) = 0.02172131
#
# Stress axis : x y z
#
# Youngs Moduli (GPa) = 21.62949 70.21618 129.98233
#
# Poissons Ratio (x) = 1.21836 0.43169
# Poissons Ratio (y) = 0.37530 0.33156
# Poissons Ratio (z) = 0.07183 0.17911
#
# Static dielectric constant tensor:
#      x y z
#    x 1.624110 0.000000 0.000000 
#    y 0.000000 1.628790 0.000000 
#    z 0.000000 0.000000 1.832220 
# 
# From -- ./inp_files/4336.got.cif
#   From: 2010.05.17/outbox.cif.g08.bks.cpg/sg72_3_cif.got.tgz:4336.got - 2010.06.03 17:03:01.
