data_PCOD9528297
_publ_section_title
;
Structure prediction by ZEFSAII (Michael W. Deem and Ramdas Pophale) SiO2 
 PCOD9528297
Probable space group: I B A M
;
_chemical_formula_sum "Si O2"
_cell_formula_units_Z 96
_cell_length_a 18.133554
_cell_length_b 10.618670
_cell_length_c 25.774451
_cell_angle_alpha 90.000000
_cell_angle_beta 90.000000
_cell_angle_gamma 90.000000
_cell_volume 4962.979459
_symmetry_space_group_name_H-M "I B A M"
_symmetry_group_IT_number 72
_symmetry_cell_setting 'orthorhombic'
loop_
_space_group_symop_operation_xyz
x,y,z
-x,-y,z
x,-y,1/2-z
-x,y,1/2-z
-x,-y,-z
x,y,-z
-x,y,1/2+z
x,-y,1/2+z
1/2+x,1/2+y,1/2+z
1/2-x,1/2-y,1/2+z
1/2+x,1/2-y,-z
1/2-x,1/2+y,-z
1/2-x,1/2-y,1/2-z
1/2+x,1/2+y,1/2-z
1/2-x,1/2+y,z
1/2+x,1/2-y,z
loop_
_atom_site_type_symbol
_atom_site_label
_atom_site_fract_x
_atom_site_fract_y
_atom_site_fract_z
Si Si1 0.068598 0.220019 0.640883
Si Si2 0.686288 0.799018 0.938363
Si Si3 0.604560 0.260017 0.156386
Si Si4 0.788049 0.578994 0.109088
Si Si5 0.412577 0.133229 0.239049
Si Si6 0.331233 0.510119 0.687497
O O1 0.109945 0.249556 0.587597
O O2 0.095779 0.328751 0.680194
O O3 0.100473 0.096922 0.669387
O O4 0.980300 0.216053 0.641266
O O5 0.744438 0.687508 0.923398
O O6 0.704875 0.940268 0.916554
O O7 0.681155 0.807952 0.000000
O O8 0.634363 0.142670 0.123783
O O9 0.611781 0.229785 0.217608
O O10 0.655042 0.382762 0.154588
O O11 0.742078 0.568575 0.162754
O O12 0.500000 0.125403 0.250000
O O13 0.377071 0.000000 0.250000
O O14 0.328599 0.500000 0.750000
#
# Coordination Sequence:
#
# PCOD9528297 Si02
#       6
#    16  16  16  16  16  16
#     4  10  22  37  63  93 126 167 211 264 316 379
#     4  11  24  45  67  91 124 168 221 275 327 376
#     4  11  21  38  62  93 130 163 208 256 321 389
#     4  11  24  42  66  93 128 170 215 269 321 388
#     4   9  17  30  52  86 122 158 191 240 306 373
#     4  11  22  38  64  95 133 175 212 252 316 398
#
# _framework density 19.343218
#
# number of rings (size 3 to 8) (size 9 to 14) (size 15 to 20)
#    0.000    1.500    3.333    2.000    0.000    5.333 
#    0.000    2.500    0.000    2.000    0.000    0.000 
#    0.000    0.000    0.000    0.000    0.000    0.000 
#
# Total GULP energy -267536.442627 kJ/mol
# GULP energy per Si atom -5573.675888 kJ/mol
# Density = 1.929919 g / cm^3
# Si number density = 19.343218 Si / 1000 Ang^3
#
#
#
# Elastic Constant Matrix: (Units=GPa)
#
#
# Indices 1 2 3 4 5 6 
#
# 1 75.2503 11.2725 46.8072 0.0000 0.0000 0.0000
# 2 11.2725 80.2739 37.0833 0.0000 0.0000 0.0000
# 3 46.8072 37.0833 129.2124 0.0000 0.0000 0.0000
# 4 0.0000 0.0000 0.0000 28.0111 0.0000 0.0000
# 5 0.0000 0.0000 0.0000 0.0000 13.4735 0.0000
# 6 0.0000 0.0000 0.0000 0.0000 0.0000 -2.9611
#
#
#
# Elastic Compliance Matrix: (Units=1/GPa)
#
#
# Indices 1 2 3 4 5 6 
#
# 1 0.017174 0.000533 -0.006374 0.000000 0.000000 0.000000
# 2 0.000533 0.014378 -0.004319 0.000000 0.000000 0.000000
# 3 -0.006374 -0.004319 0.011288 0.000000 0.000000 0.000000
# 4 0.000000 0.000000 0.000000 0.035700 0.000000 0.000000
# 5 0.000000 0.000000 0.000000 0.000000 0.074220 0.000000
# 6 0.000000 0.000000 0.000000 0.000000 0.000000 -0.337712
#
#
# Mechanical properties :
#
#
# Convention : Reuss Voigt Hill
#
# Bulk Modulus (GPa) = 44.40809 52.78473 48.59641
# Shear Modulus (GPa) = -31.82195 20.34295 -5.73950
#
# Velocity S-wave (km/s) = -4.06041 3.24649 -1.72442
# Velocity P-wave (km/s) = 1.01253 6.43433 4.60575
#
# Compressibility (1/GPa) = 0.02251842
#
# Stress axis : x y z
#
# Youngs Moduli (GPa) = 58.22732 69.55113 88.59021
#
# Poissons Ratio (x) = -0.03707 0.56470
# Poissons Ratio (y) = -0.03103 0.38266
# Poissons Ratio (z) = 0.37116 0.30042
#
# Static dielectric constant tensor:
#      x y z
#    x 1.662640 0.000000 0.000000 
#    y 0.000000 1.800360 0.000000 
#    z 0.000000 0.000000 1.674470 
# 
# From -- ./inp_files/44813.got.cif
#   From: 2010.05.17/outbox.cif.g08.bks.cpg/sg72_23_cif.got.tgz:44813.got - 2010.06.03 17:03:01.
