data_PCOD9528230
_publ_section_title
;
Structure prediction by ZEFSAII (Michael W. Deem and Ramdas Pophale) SiO2 
 PCOD9528230
Probable space group: I B A M
;
_chemical_formula_sum "Si O2"
_cell_formula_units_Z 112
_cell_length_a 11.481404
_cell_length_b 30.968056
_cell_length_c 14.291241
_cell_angle_alpha 90.000000
_cell_angle_beta 90.000000
_cell_angle_gamma 90.000000
_cell_volume 5081.347375
_symmetry_space_group_name_H-M "I B A M"
_symmetry_group_IT_number 72
_symmetry_cell_setting 'orthorhombic'
loop_
_space_group_symop_operation_xyz
x,y,z
-x,-y,z
x,-y,1/2-z
-x,y,1/2-z
-x,-y,-z
x,y,-z
-x,y,1/2+z
x,-y,1/2+z
1/2+x,1/2+y,1/2+z
1/2-x,1/2-y,1/2+z
1/2+x,1/2-y,-z
1/2-x,1/2+y,-z
1/2-x,1/2-y,1/2-z
1/2+x,1/2+y,1/2-z
1/2-x,1/2+y,z
1/2+x,1/2-y,z
loop_
_atom_site_type_symbol
_atom_site_label
_atom_site_fract_x
_atom_site_fract_y
_atom_site_fract_z
Si Si1 0.201647 0.892916 0.390586
Si Si2 0.366770 0.491892 0.360478
Si Si3 0.868103 0.637503 0.230906
Si Si4 0.172444 0.721930 0.385794
Si Si5 0.950686 0.139371 0.886317
Si Si6 0.077344 0.761761 0.113175
Si Si7 0.757651 0.422186 0.395037
O O1 0.219894 0.882526 0.500000
O O2 0.182087 0.944498 0.381704
O O3 0.299817 0.871991 0.326256
O O4 0.078751 0.873891 0.356851
O O5 0.500000 0.500000 0.394874
O O6 0.370738 0.500000 0.250000
O O7 0.279976 0.528514 0.396759
O O8 0.818871 0.675845 0.165687
O O9 0.859133 0.592924 0.172538
O O10 0.000000 0.648761 0.250000
O O11 0.174026 0.716593 0.500000
O O12 0.288330 0.750531 0.361350
O O13 0.045709 0.740742 0.357465
O O14 0.928886 0.188219 0.858684
O O15 0.855231 0.104248 0.857851
O O16 0.949814 0.138169 0.000000
O O17 0.073895 0.758686 0.000000
O O18 0.783858 0.407633 0.500000
#
# Coordination Sequence:
#
# PCOD9528230 Si02
#       7
#    16  16  16  16  16  16  16
#     4  11  24  42  65  98 137 175 224 287 345 404
#     4  11  21  36  66 106 141 171 214 276 354 422
#     4  12  27  45  64  92 133 183 237 277 331 402
#     4  10  21  42  72 103 137 177 226 287 352 418
#     4   9  18  35  64  98 131 169 212 267 341 413
#     4   9  18  36  66 100 133 174 221 274 341 412
#     4  11  21  39  69  98 131 173 217 271 341 415
#
# _framework density 22.041398999999998
#
# number of rings (size 3 to 8) (size 9 to 14) (size 15 to 20)
#    0.000    1.571    4.286    0.857    0.000    3.429 
#    0.000    7.143    0.000    1.714    0.000    1.000 
#    0.000    0.000    0.000    0.000    0.000    0.000 
#
# Total GULP energy -312863.857366 kJ/mol
# GULP energy per Si atom -5586.854596 kJ/mol
# Density = 2.199123 g / cm^3
# Si number density = 22.041399 Si / 1000 Ang^3
#
#
#
# Elastic Constant Matrix: (Units=GPa)
#
#
# Indices 1 2 3 4 5 6 
#
# 1 133.8009 55.7516 25.1105 -0.0001 0.0000 0.0000
# 2 55.7516 76.9190 7.1227 0.0000 0.0001 0.0000
# 3 25.1105 7.1227 82.6668 0.0000 -0.0002 0.0000
# 4 -0.0001 0.0000 0.0000 17.5312 0.0000 0.0000
# 5 0.0000 0.0001 -0.0002 0.0000 3.0332 0.0000
# 6 0.0000 0.0000 0.0000 0.0000 0.0000 31.9946
#
#
#
# Elastic Compliance Matrix: (Units=1/GPa)
#
#
# Indices 1 2 3 4 5 6 
#
# 1 0.011294 -0.007932 -0.002747 0.000000 0.000000 0.000000
# 2 -0.007932 0.018676 0.000800 0.000000 0.000000 0.000000
# 3 -0.002747 0.000800 0.012862 0.000000 0.000001 0.000000
# 4 0.000000 0.000000 0.000000 0.057041 0.000000 0.000000
# 5 0.000000 0.000000 0.000001 0.000000 0.329684 0.000000
# 6 0.000000 0.000000 0.000000 0.000000 0.000000 0.031255
#
#
# Mechanical properties :
#
#
# Convention : Reuss Voigt Hill
#
# Bulk Modulus (GPa) = 43.33797 52.15072 47.74435
# Shear Modulus (GPa) = 10.24040 24.20526 17.22283
#
# Velocity S-wave (km/s) = 2.15779 3.31746 2.79836
# Velocity P-wave (km/s) = 5.09047 6.19563 5.67004
#
# Compressibility (1/GPa) = 0.02307445
#
# Stress axis : x y z
#
# Youngs Moduli (GPa) = 88.53947 53.54560 77.74652
#
# Poissons Ratio (x) = 0.42472 0.21359
# Poissons Ratio (y) = 0.70228 -0.06221
# Poissons Ratio (z) = 0.24325 -0.04285
#
# Static dielectric constant tensor:
#      x y z
#    x 1.839020 0.000000 0.000000 
#    y 0.000000 1.783660 0.000000 
#    z 0.000000 0.000000 1.857960 
# 
# From -- ./inp_files/20689.got.cif
#   From: 2010.05.17/outbox.cif.g08.bks.cpg/sg72_11_cif.got.tgz:20689.got - 2010.06.03 17:03:01.
