data_PCOD9528646
_publ_section_title
;
Structure prediction by ZEFSAII (Michael W. Deem and Ramdas Pophale) SiO2 
 PCOD9528646
Probable space group: I B A M
;
_chemical_formula_sum "Si O2"
_cell_formula_units_Z 96
_cell_length_a 14.005994
_cell_length_b 19.228673
_cell_length_c 15.139224
_cell_angle_alpha 90.000000
_cell_angle_beta 90.000000
_cell_angle_gamma 90.000000
_cell_volume 4077.245525
_symmetry_space_group_name_H-M "I B A M"
_symmetry_group_IT_number 72
_symmetry_cell_setting 'orthorhombic'
loop_
_space_group_symop_operation_xyz
x,y,z
-x,-y,z
x,-y,1/2-z
-x,y,1/2-z
-x,-y,-z
x,y,-z
-x,y,1/2+z
x,-y,1/2+z
1/2+x,1/2+y,1/2+z
1/2-x,1/2-y,1/2+z
1/2+x,1/2-y,-z
1/2-x,1/2+y,-z
1/2-x,1/2-y,1/2-z
1/2+x,1/2+y,1/2-z
1/2-x,1/2+y,z
1/2+x,1/2-y,z
loop_
_atom_site_type_symbol
_atom_site_label
_atom_site_fract_x
_atom_site_fract_y
_atom_site_fract_z
Si Si1 0.706885 0.983674 0.000000
Si Si2 0.793322 0.965064 0.338102
Si Si3 0.539957 0.635316 0.840606
Si Si4 0.809228 0.333763 0.000000
Si Si5 0.084294 0.601925 0.694810
Si Si6 0.411015 0.694169 0.000000
Si Si7 0.843672 0.729455 0.694026
Si Si8 0.088428 0.366939 0.000000
O O1 0.646989 0.912231 0.000000
O O2 0.769513 0.979652 0.912645
O O3 0.663126 0.063552 0.000000
O O4 0.872847 0.912626 0.374883
O O5 0.688777 0.933348 0.313644
O O6 0.829955 0.000000 0.250000
O O7 0.500000 0.602384 0.750000
O O8 0.592110 0.703568 0.806622
O O9 0.466778 0.662667 0.914882
O O10 0.694963 0.335518 0.000000
O O11 0.832595 0.294353 0.091761
O O12 0.107443 0.669943 0.750138
O O13 0.047264 0.619546 0.596791
O O14 0.000000 0.567333 0.750000
O O15 0.398635 0.780621 0.000000
O O16 0.750000 0.750000 0.750000
#
# Coordination Sequence:
#
# PCOD9528646 Si02
#       8
#     8  16  16   8  16   8  16   8
#     4  10  25  45  73 107 151 200 254 305 387 473
#     4  11  25  47  72 101 154 200 253 310 389 461
#     4  12  26  45  72 111 143 199 257 316 378 454
#     4  12  27  45  75 110 150 199 258 321 392 472
#     4  11  23  42  74 108 148 195 254 321 388 463
#     4  12  26  43  74 108 152 192 260 322 380 455
#     4  12  23  42  73 107 150 193 254 319 393 449
#     4  10  22  45  73 111 153 202 249 323 385 460
#
# _framework density 23.545307000000001
#
# number of rings (size 3 to 8) (size 9 to 14) (size 15 to 20)
#    0.000    0.667    1.667    6.500    4.667    1.333 
#    0.000    1.667    0.000   12.000    0.000    0.000 
#    0.000    0.000    0.000    0.000    0.000    0.000 
#
# Total GULP energy -267774.487387 kJ/mol
# GULP energy per Si atom -5578.635154 kJ/mol
# Density = 2.349172 g / cm^3
# Si number density = 23.545307 Si / 1000 Ang^3
#
#
#
# Elastic Constant Matrix: (Units=GPa)
#
#
# Indices 1 2 3 4 5 6 
#
# 1 119.6704 33.3689 32.0154 0.0000 0.0000 0.0000
# 2 33.3689 89.8314 28.2590 -0.0002 0.0000 0.0000
# 3 32.0154 28.2590 177.7758 -0.0002 0.0002 0.0000
# 4 0.0000 -0.0002 -0.0002 43.5331 0.0000 0.0000
# 5 0.0000 0.0000 0.0002 0.0000 93.6050 0.0001
# 6 0.0000 0.0000 0.0000 0.0000 0.0001 16.5274
#
#
#
# Elastic Compliance Matrix: (Units=1/GPa)
#
#
# Indices 1 2 3 4 5 6 
#
# 1 0.009566 -0.003170 -0.001219 0.000000 0.000000 0.000000
# 2 -0.003170 0.012768 -0.001459 0.000000 0.000000 0.000000
# 3 -0.001219 -0.001459 0.006076 0.000000 0.000000 0.000000
# 4 0.000000 0.000000 0.000000 0.022971 0.000000 0.000000
# 5 0.000000 0.000000 0.000000 0.000000 0.010683 0.000000
# 6 0.000000 0.000000 0.000000 0.000000 0.000000 0.060506
#
#
# Mechanical properties :
#
#
# Convention : Reuss Voigt Hill
#
# Bulk Modulus (GPa) = 59.82380 63.84049 61.83214
# Shear Modulus (GPa) = 35.75556 50.30871 43.03214
#
# Velocity S-wave (km/s) = 3.90113 4.62743 4.27972
# Velocity P-wave (km/s) = 6.76423 7.46483 7.12315
#
# Compressibility (1/GPa) = 0.01671576
#
# Stress axis : x y z
#
# Youngs Moduli (GPa) = 104.53342 78.31819 164.56975
#
# Poissons Ratio (x) = 0.24828 0.20059
# Poissons Ratio (y) = 0.33138 0.24007
# Poissons Ratio (z) = 0.12741 0.11425
#
# Static dielectric constant tensor:
#      x y z
#    x -0.234910 -0.000010 0.000010 
#    y -0.000010 1.708760 0.000000 
#    z 0.000010 0.000000 1.956510 
# 
# From -- ./inp_files/21939.got.cif
#   From: 2010.05.17/outbox.cif.g08.bks.cpg/sg72_11_cif.got.tgz:21939.got - 2010.06.03 17:03:01.
