data_PCOD9528987
_publ_section_title
;
Structure prediction by ZEFSAII (Michael W. Deem and Ramdas Pophale) SiO2 
 PCOD9528987
Probable space group: I B A M
;
_chemical_formula_sum "Si O2"
_cell_formula_units_Z 88
_cell_length_a 6.990832
_cell_length_b 30.488877
_cell_length_c 15.036087
_cell_angle_alpha 90.000000
_cell_angle_beta 90.000000
_cell_angle_gamma 90.000000
_cell_volume 3204.830932
_symmetry_space_group_name_H-M "I B A M"
_symmetry_group_IT_number 72
_symmetry_cell_setting 'orthorhombic'
loop_
_space_group_symop_operation_xyz
x,y,z
-x,-y,z
x,-y,1/2-z
-x,y,1/2-z
-x,-y,-z
x,y,-z
-x,y,1/2+z
x,-y,1/2+z
1/2+x,1/2+y,1/2+z
1/2-x,1/2-y,1/2+z
1/2+x,1/2-y,-z
1/2-x,1/2+y,-z
1/2-x,1/2-y,1/2-z
1/2+x,1/2+y,1/2-z
1/2-x,1/2+y,z
1/2+x,1/2-y,z
loop_
_atom_site_type_symbol
_atom_site_label
_atom_site_fract_x
_atom_site_fract_y
_atom_site_fract_z
Si Si1 0.707599 0.607272 0.354908
Si Si2 0.630573 0.938043 0.500000
Si Si3 0.271775 0.491965 0.645805
Si Si4 0.441539 0.737347 0.500000
Si Si5 0.650269 0.716262 0.185467
Si Si6 0.747796 0.624498 0.847749
Si Si7 0.206139 0.175954 0.000000
O O1 0.761019 0.558234 0.385347
O O2 0.780623 0.611604 0.254793
O O3 0.475032 0.609744 0.361296
O O4 0.766432 0.648478 0.415298
O O5 0.632950 0.899984 0.421630
O O6 0.674848 0.974959 0.421664
O O7 0.500000 0.500000 0.640997
O O8 0.220343 0.500000 0.750000
O O9 0.461162 0.741374 0.392492
O O10 0.253601 0.771595 0.500000
O O11 0.476970 0.683797 0.500000
O O12 0.500000 0.691925 0.250000
O O13 0.750000 0.750000 0.250000
O O14 0.775690 0.676964 0.147609
#
# Coordination Sequence:
#
# PCOD9528987 Si02
#       7
#    16   8  16   8  16  16   8
#     4  11  19  34  49  75 113 154 197 238 306 370
#     4  12  20  28  48  72 108 156 199 237 291 368
#     4  11  19  29  43  74 110 155 196 234 289 382
#     4  12  23  41  59  89 115 159 225 257 317 383
#     4  12  24  41  62  87 119 162 212 267 317 366
#     4  11  19  32  50  73 105 150 200 236 295 364
#     4  12  24  39  62  83 119 169 208 263 310 368
#
# _framework density 27.458545999999998
#
# number of rings (size 3 to 8) (size 9 to 14) (size 15 to 20)
#    0.000    0.545    7.273    5.182    0.000    0.000 
#    0.000    0.000    0.000    0.000    0.000    0.000 
#    0.000    0.000    0.000  160.364    0.364    0.000 
#
# Total GULP energy -244983.258507 kJ/mol
# GULP energy per Si atom -5567.801330 kJ/mol
# Density = 2.739605 g / cm^3
# Si number density = 27.458546 Si / 1000 Ang^3
#
#
#
# Elastic Constant Matrix: (Units=GPa)
#
#
# Indices 1 2 3 4 5 6 
#
# 1 88.7990 37.0886 18.6269 -0.0001 0.0000 0.0000
# 2 37.0886 240.9061 72.4945 -0.0002 0.0001 0.0000
# 3 18.6269 72.4945 224.4947 -0.0008 0.0002 0.0000
# 4 -0.0001 -0.0002 -0.0008 194.2311 0.0004 0.0000
# 5 0.0000 0.0001 0.0002 0.0004 -42.9579 0.0000
# 6 0.0000 0.0000 0.0000 0.0000 0.0000 45.2550
#
#
#
# Elastic Compliance Matrix: (Units=1/GPa)
#
#
# Indices 1 2 3 4 5 6 
#
# 1 0.012075 -0.001725 -0.000445 0.000000 0.000000 0.000000
# 2 -0.001725 0.004844 -0.001421 0.000000 0.000000 0.000000
# 3 -0.000445 -0.001421 0.004950 0.000000 0.000000 0.000000
# 4 0.000000 0.000000 0.000000 0.005149 0.000000 0.000000
# 5 0.000000 0.000000 0.000000 0.000000 -0.023279 0.000000
# 6 0.000000 0.000000 0.000000 0.000000 0.000000 0.022097
#
#
# Mechanical properties :
#
#
# Convention : Reuss Voigt Hill
#
# Bulk Modulus (GPa) = 68.08536 90.06887 79.07712
# Shear Modulus (GPa) = 131.87439 67.70497 99.78968
#
# Velocity S-wave (km/s) = 6.93765 4.97098 6.03497
# Velocity P-wave (km/s) = 9.43526 8.11299 8.79900
#
# Compressibility (1/GPa) = 0.01468745
#
# Stress axis : x y z
#
# Youngs Moduli (GPa) = 82.81398 206.42983 202.00852
#
# Poissons Ratio (x) = 0.35613 0.08986
# Poissons Ratio (y) = 0.14287 0.28709
# Poissons Ratio (z) = 0.03684 0.29337
#
# Static dielectric constant tensor:
#      x y z
#    x 2.568180 0.000000 0.000000 
#    y 0.000000 2.060310 0.000000 
#    z 0.000000 0.000000 2.077060 
# 
# From -- ./inp_files/20543.got.cif
#   From: 2010.05.17/outbox.cif.g08.bks.cpg/sg72_11_cif.got.tgz:20543.got - 2010.06.03 17:03:01.
