data_PCOD9528533
_publ_section_title
;
Structure prediction by ZEFSAII (Michael W. Deem and Ramdas Pophale) SiO2 
 PCOD9528533
Probable space group: I B A M
;
_chemical_formula_sum "Si O2"
_cell_formula_units_Z 52
_cell_length_a 7.723239
_cell_length_b 21.409167
_cell_length_c 13.513989
_cell_angle_alpha 90.000000
_cell_angle_beta 90.000000
_cell_angle_gamma 90.000000
_cell_volume 2234.512587
_symmetry_space_group_name_H-M "I B A M"
_symmetry_group_IT_number 72
_symmetry_cell_setting 'orthorhombic'
loop_
_space_group_symop_operation_xyz
x,y,z
-x,-y,z
x,-y,1/2-z
-x,y,1/2-z
-x,-y,-z
x,y,-z
-x,y,1/2+z
x,-y,1/2+z
1/2+x,1/2+y,1/2+z
1/2-x,1/2-y,1/2+z
1/2+x,1/2-y,-z
1/2-x,1/2+y,-z
1/2-x,1/2-y,1/2-z
1/2+x,1/2+y,1/2-z
1/2-x,1/2+y,z
1/2+x,1/2-y,z
loop_
_atom_site_type_symbol
_atom_site_label
_atom_site_fract_x
_atom_site_fract_y
_atom_site_fract_z
Si Si1 0.321280 0.472648 0.859208
Si Si2 0.238890 0.167802 0.323965
Si Si3 0.870163 0.698000 0.385928
Si Si4 0.500000 0.000000 0.000000
O O1 0.500000 0.500000 0.897974
O O2 0.302904 0.500000 0.750000
O O3 0.334567 0.397863 0.856192
O O4 0.150919 0.491686 0.916423
O O5 0.137020 0.227570 0.365628
O O6 0.254788 0.171155 0.204150
O O7 0.434675 0.174582 0.366395
O O8 0.821036 0.684484 0.500000
#
# Coordination Sequence:
#
# PCOD9528533 Si02
#       4
#    16  16  16   4
#     4  11  28  51  76 111 156 199 254 317 379 453
#     4  10  24  44  68 106 145 187 250 308 375 454
#     4  10  22  41  72 103 139 191 242 308 378 449
#     4  12  28  48  80 112 140 216 260 304 378 454
#
# _framework density 23.271293
#
# number of rings (size 3 to 8) (size 9 to 14) (size 15 to 20)
#    0.000    1.538    0.000    1.846   12.923    9.846 
#    0.000    0.000    0.000    0.000    0.000    0.000 
#    0.000    0.000    0.000    0.000    0.000    0.000 
#
# Total GULP energy -145097.547400 kJ/mol
# GULP energy per Si atom -5580.674900 kJ/mol
# Density = 2.321833 g / cm^3
# Si number density = 23.271293 Si / 1000 Ang^3
#
#
#
# Elastic Constant Matrix: (Units=GPa)
#
#
# Indices 1 2 3 4 5 6 
#
# 1 136.7433 97.4840 55.4369 0.0000 0.0000 0.0000
# 2 97.4840 108.0669 21.6909 0.0000 0.0000 0.0001
# 3 55.4369 21.6909 201.4838 0.0003 0.0000 0.0000
# 4 0.0000 0.0000 0.0003 70.9258 0.0000 0.0003
# 5 0.0000 0.0000 0.0000 0.0000 30.5384 0.0000
# 6 0.0000 0.0001 0.0000 0.0003 0.0000 -169.6929
#
#
#
# Elastic Compliance Matrix: (Units=1/GPa)
#
#
# Indices 1 2 3 4 5 6 
#
# 1 0.023653 -0.020472 -0.004304 0.000000 0.000000 0.000000
# 2 -0.020472 0.027178 0.002707 0.000000 0.000000 0.000000
# 3 -0.004304 0.002707 0.005856 0.000000 0.000000 0.000000
# 4 0.000000 0.000000 0.000000 0.014099 0.000000 0.000000
# 5 0.000000 0.000000 0.000000 0.000000 0.032746 0.000000
# 6 0.000000 0.000000 0.000000 0.000000 0.000000 -0.005893
#
#
# Mechanical properties :
#
#
# Convention : Reuss Voigt Hill
#
# Bulk Modulus (GPa) = 79.69600 88.39085 84.04343
# Shear Modulus (GPa) = 34.25616 4.46639 19.36127
#
# Velocity S-wave (km/s) = 3.84087 1.38688 2.88754
# Velocity P-wave (km/s) = 7.34783 6.37415 6.87824
#
# Compressibility (1/GPa) = 0.01254768
#
# Stress axis : x y z
#
# Youngs Moduli (GPa) = 42.27881 36.79484 170.76703
#
# Poissons Ratio (x) = 0.75328 0.73496
# Poissons Ratio (y) = 0.86555 -0.46227
# Poissons Ratio (z) = 0.18196 -0.09960
#
# Static dielectric constant tensor:
#      x y z
#    x 1.877520 0.000000 0.000000 
#    y 0.000000 1.868690 0.000000 
#    z 0.000000 0.000000 1.860430 
# 
# From -- ./inp_files/18317.got.cif
#   From: 2010.05.17/outbox.cif.g08.bks.cpg/sg72_10_cif.got.tgz:18317.got - 2010.06.03 17:03:01.
