data_PCOD9528593
_publ_section_title
;
Structure prediction by ZEFSAII (Michael W. Deem and Ramdas Pophale) SiO2 
 PCOD9528593
Probable space group: I B A M
;
_chemical_formula_sum "Si O2"
_cell_formula_units_Z 56
_cell_length_a 9.283381
_cell_length_b 10.597843
_cell_length_c 22.009725
_cell_angle_alpha 90.000000
_cell_angle_beta 90.000000
_cell_angle_gamma 90.000000
_cell_volume 2165.400698
_symmetry_space_group_name_H-M "I B A M"
_symmetry_group_IT_number 72
_symmetry_cell_setting 'orthorhombic'
loop_
_space_group_symop_operation_xyz
x,y,z
-x,-y,z
x,-y,1/2-z
-x,y,1/2-z
-x,-y,-z
x,y,-z
-x,y,1/2+z
x,-y,1/2+z
1/2+x,1/2+y,1/2+z
1/2-x,1/2-y,1/2+z
1/2+x,1/2-y,-z
1/2-x,1/2+y,-z
1/2-x,1/2-y,1/2-z
1/2+x,1/2+y,1/2-z
1/2-x,1/2+y,z
1/2+x,1/2-y,z
loop_
_atom_site_type_symbol
_atom_site_label
_atom_site_fract_x
_atom_site_fract_y
_atom_site_fract_z
Si Si1 0.337466 0.815865 0.000000
Si Si2 0.929725 0.635948 0.398116
Si Si3 0.668496 0.475611 0.596259
Si Si4 0.365153 0.676446 0.709313
O O1 0.465322 0.807570 0.052030
O O2 0.223972 0.865117 0.053083
O O3 0.769735 0.594687 0.421031
O O4 0.920999 0.724113 0.340539
O O5 0.000000 0.500000 0.383009
O O6 0.500000 0.500000 0.587915
O O7 0.692080 0.437426 0.666954
O O8 0.500000 0.638837 0.750000
O O9 0.250000 0.750000 0.750000
#
# Coordination Sequence:
#
# PCOD9528593 Si02
#       4
#     8  16  16  16
#     4  10  22  44  67  92 125 166 213 252 317 396
#     4  10  22  43  66  88 126 173 206 251 317 383
#     4  11  23  40  66  97 127 160 206 272 319 355
#     4  12  26  42  63  96 130 167 217 256 305 382
#
# _framework density 25.861265
#
# number of rings (size 3 to 8) (size 9 to 14) (size 15 to 20)
#    0.000    1.143    0.000    9.429    0.000    8.000 
#    0.000    5.714    0.000    0.000    0.000    0.000 
#    0.000    0.000    0.000    0.000    0.000    0.000 
#
# Total GULP energy -156024.442135 kJ/mol
# GULP energy per Si atom -5572.301505 kJ/mol
# Density = 2.580240 g / cm^3
# Si number density = 25.861265 Si / 1000 Ang^3
#
#
#
# Elastic Constant Matrix: (Units=GPa)
#
#
# Indices 1 2 3 4 5 6 
#
# 1 236.5197 27.6705 70.3089 0.0000 0.0000 0.0000
# 2 27.6705 73.5761 -2.6116 0.0000 0.0000 0.0000
# 3 70.3089 -2.6116 173.7993 0.0000 0.0000 0.0000
# 4 0.0000 0.0000 0.0000 -148.3295 0.0000 0.0000
# 5 0.0000 0.0000 0.0000 0.0000 68.4648 0.0000
# 6 0.0000 0.0000 0.0000 0.0000 0.0000 45.9927
#
#
#
# Elastic Compliance Matrix: (Units=1/GPa)
#
#
# Indices 1 2 3 4 5 6 
#
# 1 0.005080 -0.001984 -0.002085 0.000000 0.000000 0.000000
# 2 -0.001984 0.014374 0.001019 0.000000 0.000000 0.000000
# 3 -0.002085 0.001019 0.006612 0.000000 0.000000 0.000000
# 4 0.000000 0.000000 0.000000 -0.006742 0.000000 0.000000
# 5 0.000000 0.000000 0.000000 0.000000 0.014606 0.000000
# 6 0.000000 0.000000 0.000000 0.000000 0.000000 0.021743
#
#
# Mechanical properties :
#
#
# Convention : Reuss Voigt Hill
#
# Bulk Modulus (GPa) = 50.08721 74.95897 62.52309
# Shear Modulus (GPa) = 73.06827 19.12742 46.09784
#
# Velocity S-wave (km/s) = 5.32121 2.72254 4.22655
# Velocity P-wave (km/s) = 7.56065 6.23947 6.93161
#
# Compressibility (1/GPa) = 0.01996518
#
# Stress axis : x y z
#
# Youngs Moduli (GPa) = 196.85474 69.57087 151.22930
#
# Poissons Ratio (x) = 0.13806 0.31529
# Poissons Ratio (y) = 0.39065 -0.15407
# Poissons Ratio (z) = 0.41041 -0.07088
#
# Static dielectric constant tensor:
#      x y z
#    x 2.050150 0.000000 0.000000 
#    y 0.000000 2.161180 0.000000 
#    z 0.000000 0.000000 2.095830 
# 
# From -- ./inp_files/35253.got.cif
#   From: 2010.05.17/outbox.cif.g08.bks.cpg/sg72_18_cif.got.tgz:35253.got - 2010.06.03 17:03:01.
