data_PCOD9528498
_publ_section_title
;
Structure prediction by ZEFSAII (Michael W. Deem and Ramdas Pophale) SiO2 
 PCOD9528498
Probable space group: I B A M
;
_chemical_formula_sum "Si O2"
_cell_formula_units_Z 84
_cell_length_a 15.420238
_cell_length_b 14.571715
_cell_length_c 14.882894
_cell_angle_alpha 90.000000
_cell_angle_beta 90.000000
_cell_angle_gamma 90.000000
_cell_volume 3344.176063
_symmetry_space_group_name_H-M "I B A M"
_symmetry_group_IT_number 72
_symmetry_cell_setting 'orthorhombic'
loop_
_space_group_symop_operation_xyz
x,y,z
-x,-y,z
x,-y,1/2-z
-x,y,1/2-z
-x,-y,-z
x,y,-z
-x,y,1/2+z
x,-y,1/2+z
1/2+x,1/2+y,1/2+z
1/2-x,1/2-y,1/2+z
1/2+x,1/2-y,-z
1/2-x,1/2+y,-z
1/2-x,1/2-y,1/2-z
1/2+x,1/2+y,1/2-z
1/2-x,1/2+y,z
1/2+x,1/2-y,z
loop_
_atom_site_type_symbol
_atom_site_label
_atom_site_fract_x
_atom_site_fract_y
_atom_site_fract_z
Si Si1 0.031824 0.331275 0.842848
Si Si2 0.157661 0.319295 0.403058
Si Si3 0.156676 0.184362 0.107073
Si Si4 0.869248 0.035159 0.102765
Si Si5 0.000000 0.000000 0.250000
Si Si6 0.175728 0.526745 0.355860
O O1 0.941331 0.299510 0.883420
O O2 0.097754 0.405789 0.882862
O O3 0.000000 0.374159 0.750000
O O4 0.089977 0.241572 0.834809
O O5 0.173442 0.278271 0.500000
O O6 0.247090 0.295769 0.354129
O O7 0.162477 0.430010 0.404273
O O8 0.139367 0.075894 0.109443
O O9 0.146805 0.209468 0.000000
O O10 0.770683 0.067297 0.121475
O O11 0.937581 0.056939 0.181560
O O12 0.895669 0.058057 0.000000
O O13 0.174233 0.500000 0.250000
#
# Coordination Sequence:
#
# PCOD9528498 Si02
#       6
#    16  16  16  16   4  16
#     4  12  24  37  66  99 133 169 222 275 339 409
#     4  10  22  41  65  90 127 176 218 273 340 398
#     4   9  22  44  62  89 134 171 216 275 332 401
#     4  10  23  44  68  95 131 177 225 278 337 396
#     4  12  22  40  72  98 130 172 228 280 324 394
#     4  11  21  41  62  94 134 170 218 285 335 393
#
# _framework density 25.118295
#
# number of rings (size 3 to 8) (size 9 to 14) (size 15 to 20)
#    0.000    1.524    2.857    3.143    1.333    4.571 
#    3.429    0.000    0.000    0.000    0.000    0.000 
#    0.000    0.000    0.000    0.000    0.000    0.000 
#
# Total GULP energy -234498.014921 kJ/mol
# GULP energy per Si atom -5583.286070 kJ/mol
# Density = 2.506112 g / cm^3
# Si number density = 25.118295 Si / 1000 Ang^3
#
#
#
# Elastic Constant Matrix: (Units=GPa)
#
#
# Indices 1 2 3 4 5 6 
#
# 1 224.6489 35.3610 48.6375 0.0000 0.0000 0.0000
# 2 35.3610 72.8076 -0.5542 0.0000 0.0000 0.0000
# 3 48.6375 -0.5542 104.1816 0.0000 0.0000 0.0000
# 4 0.0000 0.0000 0.0000 12.7690 0.0000 0.0000
# 5 0.0000 0.0000 0.0000 0.0000 34.4088 0.0000
# 6 0.0000 0.0000 0.0000 0.0000 0.0000 32.7837
#
#
#
# Elastic Compliance Matrix: (Units=1/GPa)
#
#
# Indices 1 2 3 4 5 6 
#
# 1 0.005420 -0.002652 -0.002544 0.000000 0.000000 0.000000
# 2 -0.002652 0.015033 0.001318 0.000000 0.000000 0.000000
# 3 -0.002544 0.001318 0.010793 0.000000 0.000000 0.000000
# 4 0.000000 0.000000 0.000000 0.078314 0.000000 0.000000
# 5 0.000000 0.000000 0.000000 0.000000 0.029062 0.000000
# 6 0.000000 0.000000 0.000000 0.000000 0.000000 0.030503
#
#
# Mechanical properties :
#
#
# Convention : Reuss Voigt Hill
#
# Bulk Modulus (GPa) = 42.57171 63.16963 52.87067
# Shear Modulus (GPa) = 27.06927 37.20524 32.13726
#
# Velocity S-wave (km/s) = 3.28635 3.85281 3.58080
# Velocity P-wave (km/s) = 5.60227 6.70788 6.17985
#
# Compressibility (1/GPa) = 0.02348978
#
# Stress axis : x y z
#
# Youngs Moduli (GPa) = 184.51541 66.52188 92.64896
#
# Poissons Ratio (x) = 0.17639 0.23572
# Poissons Ratio (y) = 0.48925 -0.12210
# Poissons Ratio (z) = 0.46946 -0.08767
#
# Static dielectric constant tensor:
#      x y z
#    x 2.130190 0.000000 0.000000 
#    y 0.000000 1.950790 0.000000 
#    z 0.000000 0.000000 2.043390 
# 
# From -- ./inp_files/21672.got.cif
#   From: 2010.05.17/outbox.cif.g08.bks.cpg/sg72_11_cif.got.tgz:21672.got - 2010.06.03 17:03:01.
