data_PCOD9528532
_publ_section_title
;
Structure prediction by ZEFSAII (Michael W. Deem and Ramdas Pophale) SiO2 
 PCOD9528532
Probable space group: I B A M
;
_chemical_formula_sum "Si O2"
_cell_formula_units_Z 68
_cell_length_a 8.156301
_cell_length_b 16.834429
_cell_length_c 22.012820
_cell_angle_alpha 90.000000
_cell_angle_beta 90.000000
_cell_angle_gamma 90.000000
_cell_volume 3022.507013
_symmetry_space_group_name_H-M "I B A M"
_symmetry_group_IT_number 72
_symmetry_cell_setting 'orthorhombic'
loop_
_space_group_symop_operation_xyz
x,y,z
-x,-y,z
x,-y,1/2-z
-x,y,1/2-z
-x,-y,-z
x,y,-z
-x,y,1/2+z
x,-y,1/2+z
1/2+x,1/2+y,1/2+z
1/2-x,1/2-y,1/2+z
1/2+x,1/2-y,-z
1/2-x,1/2+y,-z
1/2-x,1/2-y,1/2-z
1/2+x,1/2+y,1/2-z
1/2-x,1/2+y,z
1/2+x,1/2-y,z
loop_
_atom_site_type_symbol
_atom_site_label
_atom_site_fract_x
_atom_site_fract_y
_atom_site_fract_z
Si Si1 0.646812 0.935240 0.066912
Si Si2 0.000000 0.000000 0.000000
Si Si3 0.553578 0.226699 0.066421
Si Si4 0.804996 0.990084 0.317087
Si Si5 0.375840 0.636304 0.402324
O O1 0.570163 0.847890 0.069311
O O2 0.500000 0.000000 0.063592
O O3 0.735744 0.953569 0.129877
O O4 0.741113 0.944504 0.000000
O O5 0.935301 0.065114 0.054328
O O6 0.517044 0.299448 0.110933
O O7 0.731334 0.188731 0.069563
O O8 0.536262 0.264710 0.000000
O O9 0.789729 0.902091 0.343799
O O10 0.732964 0.000000 0.250000
O O11 0.000000 0.000000 0.313088
#
# Coordination Sequence:
#
# PCOD9528532 Si02
#       5
#    16   4  16  16  16
#     4  10  22  41  71 103 141 185 240 307 367 450
#     4  12  24  40  74 106 138 196 244 290 372 430
#     4  11  23  42  65 111 153 176 236 303 375 434
#     4  11  26  46  70  98 141 195 256 295 358 440
#     4  12  25  43  70 107 147 192 238 303 366 437
#
# _framework density 22.497881
#
# number of rings (size 3 to 8) (size 9 to 14) (size 15 to 20)
#    0.000    0.941    5.882    0.000    4.941    0.941 
#    4.235    1.176    0.000    0.000    0.000    0.000 
#    0.000    0.000    0.000    0.000    0.000    0.000 
#
# Total GULP energy -189598.442696 kJ/mol
# GULP energy per Si atom -5576.424785 kJ/mol
# Density = 2.244667 g / cm^3
# Si number density = 22.497881 Si / 1000 Ang^3
#
#
#
# Elastic Constant Matrix: (Units=GPa)
#
#
# Indices 1 2 3 4 5 6 
#
# 1 68.1663 39.4817 50.7630 0.0000 0.0000 0.0000
# 2 39.4817 165.8713 40.1185 0.0000 -0.0001 0.0000
# 3 50.7630 40.1185 157.5210 0.0000 -0.0003 0.0000
# 4 0.0000 0.0000 0.0000 19.6352 -0.0001 0.0000
# 5 0.0000 -0.0001 -0.0003 -0.0001-1828.5871 0.0000
# 6 0.0000 0.0000 0.0000 0.0000 0.0000 52.2446
#
#
#
# Elastic Compliance Matrix: (Units=1/GPa)
#
#
# Indices 1 2 3 4 5 6 
#
# 1 0.021152 -0.003608 -0.005897 0.000000 0.000000 0.000000
# 2 -0.003608 0.007040 -0.000630 0.000000 0.000000 0.000000
# 3 -0.005897 -0.000630 0.008409 0.000000 0.000000 0.000000
# 4 0.000000 0.000000 0.000000 0.050929 0.000000 0.000000
# 5 0.000000 0.000000 0.000000 0.000000 -0.000547 0.000000
# 6 0.000000 0.000000 0.000000 0.000000 0.000000 0.019141
#
#
# Mechanical properties :
#
#
# Convention : Reuss Voigt Hill
#
# Bulk Modulus (GPa) = 61.23941 72.47612 66.85776
# Shear Modulus (GPa) = 37.92508 -333.92845 -148.00169
#
# Velocity S-wave (km/s) = 4.11020 -12.19626 -8.11958
# Velocity P-wave (km/s) = 7.05721 12.88593 7.62375
#
# Compressibility (1/GPa) = 0.01632935
#
# Stress axis : x y z
#
# Youngs Moduli (GPa) = 47.27758 142.04422 118.91500
#
# Poissons Ratio (x) = 0.51254 0.70129
# Poissons Ratio (y) = 0.17059 0.07494
# Poissons Ratio (z) = 0.27881 0.08952
#
# Static dielectric constant tensor:
#      x y z
#    x 2.097540 0.000000 0.000000 
#    y 0.000000 1.808740 0.000000 
#    z 0.000000 0.000000 1.854730 
# 
# From -- ./inp_files/35475.got.cif
#   From: 2010.05.17/outbox.cif.g08.bks.cpg/sg72_18_cif.got.tgz:35475.got - 2010.06.03 17:03:01.
