data_PCOD9528003
_publ_section_title
;
Structure prediction by ZEFSAII (Michael W. Deem and Ramdas Pophale) SiO2 
 PCOD9528003
Probable space group: I B A M
;
_chemical_formula_sum "Si O2"
_cell_formula_units_Z 64
_cell_length_a 21.103839
_cell_length_b 7.246120
_cell_length_c 18.309183
_cell_angle_alpha 90.000000
_cell_angle_beta 90.000000
_cell_angle_gamma 90.000000
_cell_volume 2799.857655
_symmetry_space_group_name_H-M "I B A M"
_symmetry_group_IT_number 72
_symmetry_cell_setting 'orthorhombic'
loop_
_space_group_symop_operation_xyz
x,y,z
-x,-y,z
x,-y,1/2-z
-x,y,1/2-z
-x,-y,-z
x,y,-z
-x,y,1/2+z
x,-y,1/2+z
1/2+x,1/2+y,1/2+z
1/2-x,1/2-y,1/2+z
1/2+x,1/2-y,-z
1/2-x,1/2+y,-z
1/2-x,1/2-y,1/2-z
1/2+x,1/2+y,1/2-z
1/2-x,1/2+y,z
1/2+x,1/2-y,z
loop_
_atom_site_type_symbol
_atom_site_label
_atom_site_fract_x
_atom_site_fract_y
_atom_site_fract_z
Si Si1 0.394402 0.082477 0.919309
Si Si2 0.717220 0.638116 0.083919
Si Si3 0.432424 0.783822 0.271944
Si Si4 0.341055 0.274177 0.647205
O O1 0.325362 0.178533 0.918152
O O2 0.429663 0.202790 0.858755
O O3 0.386466 0.869233 0.896007
O O4 0.421169 0.097424 0.000000
O O5 0.673622 0.465912 0.106943
O O6 0.772827 0.672812 0.142333
O O7 0.741028 0.612627 0.000000
O O8 0.500000 0.705065 0.250000
O O9 0.373558 0.702672 0.226236
O O10 0.430589 0.000000 0.250000
#
# Coordination Sequence:
#
# PCOD9528003 Si02
#       4
#    16  16  16  16
#     4  10  21  39  61  87 122 161 198 251 310 359
#     4  11  21  35  58  94 130 157 199 247 304 379
#     4   9  21  43  63  88 120 160 215 258 293 364
#     4  11  21  37  62  88 123 164 194 249 311 356
#
# _framework density 22.858305000000001
#
# number of rings (size 3 to 8) (size 9 to 14) (size 15 to 20)
#    0.000    1.750    2.500    2.250    0.000    2.000 
#    4.500   15.000    0.000    3.000    0.000    0.000 
#    0.000    0.000    0.000    0.000    0.000    0.000 
#
# Total GULP energy -178611.145159 kJ/mol
# GULP energy per Si atom -5581.598286 kJ/mol
# Density = 2.280628 g / cm^3
# Si number density = 22.858305 Si / 1000 Ang^3
#
#
#
# Elastic Constant Matrix: (Units=GPa)
#
#
# Indices 1 2 3 4 5 6 
#
# 1 58.7549 13.7009 39.6452 0.0000 0.0000 0.0000
# 2 13.7009 123.3434 27.5638 0.0000 0.0000 0.0000
# 3 39.6452 27.5638 156.8746 0.0000 0.0000 0.0000
# 4 0.0000 0.0000 0.0000 15.8671 0.0000 0.0000
# 5 0.0000 0.0000 0.0000 0.0000 23.4657 0.0000
# 6 0.0000 0.0000 0.0000 0.0000 0.0000 413.0703
#
#
#
# Elastic Compliance Matrix: (Units=1/GPa)
#
#
# Indices 1 2 3 4 5 6 
#
# 1 0.020681 -0.001175 -0.005020 0.000000 0.000000 0.000000
# 2 -0.001175 0.008506 -0.001197 0.000000 0.000000 0.000000
# 3 -0.005020 -0.001197 0.007854 0.000000 0.000000 0.000000
# 4 0.000000 0.000000 0.000000 0.063024 0.000000 0.000000
# 5 0.000000 0.000000 0.000000 0.000000 0.042615 0.000000
# 6 0.000000 0.000000 0.000000 0.000000 0.000000 0.002421
#
#
# Mechanical properties :
#
#
# Convention : Reuss Voigt Hill
#
# Bulk Modulus (GPa) = 44.93442 55.64365 50.28903
# Shear Modulus (GPa) = 29.88568 107.68482 68.78525
#
# Velocity S-wave (km/s) = 3.61977 6.87110 5.49157
# Velocity P-wave (km/s) = 6.09678 9.34586 7.89037
#
# Compressibility (1/GPa) = 0.02225465
#
# Stress axis : x y z
#
# Youngs Moduli (GPa) = 48.35306 117.56958 127.33070
#
# Poissons Ratio (x) = 0.13819 0.63920
# Poissons Ratio (y) = 0.05684 0.15247
# Poissons Ratio (z) = 0.24273 0.14078
#
# Static dielectric constant tensor:
#      x y z
#    x 1.900810 0.000000 0.000000 
#    y 0.000000 1.872110 0.000000 
#    z 0.000000 0.000000 1.888400 
# 
# From -- ./inp_files/33066.got.cif
#   From: 2010.05.17/outbox.cif.g08.bks.cpg/sg72_17_cif.got.tgz:33066.got - 2010.06.03 17:03:01.
