data_PCOD9528486
_publ_section_title
;
Structure prediction by ZEFSAII (Michael W. Deem and Ramdas Pophale) SiO2 
 PCOD9528486
Probable space group: I B A M
;
_chemical_formula_sum "Si O2"
_cell_formula_units_Z 64
_cell_length_a 31.978522
_cell_length_b 8.035660
_cell_length_c 11.103774
_cell_angle_alpha 90.000000
_cell_angle_beta 90.000000
_cell_angle_gamma 90.000000
_cell_volume 2853.320483
_symmetry_space_group_name_H-M "I B A M"
_symmetry_group_IT_number 72
_symmetry_cell_setting 'orthorhombic'
loop_
_space_group_symop_operation_xyz
x,y,z
-x,-y,z
x,-y,1/2-z
-x,y,1/2-z
-x,-y,-z
x,y,-z
-x,y,1/2+z
x,-y,1/2+z
1/2+x,1/2+y,1/2+z
1/2-x,1/2-y,1/2+z
1/2+x,1/2-y,-z
1/2-x,1/2+y,-z
1/2-x,1/2-y,1/2-z
1/2+x,1/2+y,1/2-z
1/2-x,1/2+y,z
1/2+x,1/2-y,z
loop_
_atom_site_type_symbol
_atom_site_label
_atom_site_fract_x
_atom_site_fract_y
_atom_site_fract_z
Si Si1 0.731235 0.895800 0.129213
Si Si2 0.099968 0.623439 0.637342
Si Si3 0.516576 0.308308 0.128419
Si Si4 0.679190 0.318978 0.776690
O O1 0.698468 0.747970 0.150741
O O2 0.779234 0.839342 0.142058
O O3 0.723975 0.000000 0.250000
O O4 0.724802 0.975596 0.000000
O O5 0.090721 0.500000 0.750000
O O6 0.099296 0.551186 0.500000
O O7 0.066020 0.773566 0.635297
O O8 0.145257 0.699673 0.665679
O O9 0.500000 0.500000 0.128140
O O10 0.500000 0.227932 0.250000
O O11 0.502143 0.236032 0.000000
O O12 0.660841 0.500000 0.750000
#
# Coordination Sequence:
#
# PCOD9528486 Si02
#       4
#    16  16  16  16
#     4  10  22  41  63  91 129 174 222 273 330 387
#     4  11  25  44  66  97 134 172 214 266 324 387
#     4   9  20  40  68  97 125 163 209 261 319 380
#     4  10  23  38  63  95 128 171 223 275 324 380
#
# _framework density 22.430008000000001
#
# number of rings (size 3 to 8) (size 9 to 14) (size 15 to 20)
#    0.000    2.000    0.000    1.500    3.500   16.500 
#    0.000    2.500    0.000    0.000    0.000    0.000 
#    0.000    0.000    0.000    0.000    0.000    0.000 
#
# Total GULP energy -178350.864720 kJ/mol
# GULP energy per Si atom -5573.464523 kJ/mol
# Density = 2.237896 g / cm^3
# Si number density = 22.430008 Si / 1000 Ang^3
#
#
#
# Elastic Constant Matrix: (Units=GPa)
#
#
# Indices 1 2 3 4 5 6 
#
# 1 104.6937 26.8847 45.1907 0.0000 0.0000 0.0000
# 2 26.8847 82.3568 42.0944 0.0000 0.0000 0.0000
# 3 45.1907 42.0944 227.7509 0.0000 0.0000 0.0000
# 4 0.0000 0.0000 0.0000 16.6640 0.0000 0.0000
# 5 0.0000 0.0000 0.0000 0.0000 -27.0749 0.0000
# 6 0.0000 0.0000 0.0000 0.0000 0.0000 34.1437
#
#
#
# Elastic Compliance Matrix: (Units=1/GPa)
#
#
# Indices 1 2 3 4 5 6 
#
# 1 0.010974 -0.002727 -0.001674 0.000000 0.000000 0.000000
# 2 -0.002727 0.014087 -0.002062 0.000000 0.000000 0.000000
# 3 -0.001674 -0.002062 0.005104 0.000000 0.000000 0.000000
# 4 0.000000 0.000000 0.000000 0.060010 0.000000 0.000000
# 5 0.000000 0.000000 0.000000 0.000000 -0.036935 0.000000
# 6 0.000000 0.000000 0.000000 0.000000 0.000000 0.029288
#
#
# Mechanical properties :
#
#
# Convention : Reuss Voigt Hill
#
# Bulk Modulus (GPa) = 58.00843 71.46011 64.73427
# Shear Modulus (GPa) = 49.40690 24.78868 37.09779
#
# Velocity S-wave (km/s) = 4.69840 3.32800 4.07127
# Velocity P-wave (km/s) = 7.43985 6.83343 7.14308
#
# Compressibility (1/GPa) = 0.01723888
#
# Stress axis : x y z
#
# Youngs Moduli (GPa) = 91.12165 70.98886 195.92396
#
# Poissons Ratio (x) = 0.19360 0.32788
# Poissons Ratio (y) = 0.24850 0.40409
# Poissons Ratio (z) = 0.15249 0.14641
#
# Static dielectric constant tensor:
#      x y z
#    x 1.807670 0.000000 0.000000 
#    y 0.000000 1.951420 0.000000 
#    z 0.000000 0.000000 1.874500 
# 
# From -- ./inp_files/10541.got.cif
#   From: 2010.05.17/outbox.cif.g08.bks.cpg/sg72_6_cif.got.tgz:10541.got - 2010.06.03 17:03:01.
