data_PCOD9528357
_publ_section_title
;
Structure prediction by ZEFSAII (Michael W. Deem and Ramdas Pophale) SiO2 
 PCOD9528357
Probable space group: I B A M
;
_chemical_formula_sum "Si O2"
_cell_formula_units_Z 112
_cell_length_a 12.791081
_cell_length_b 25.083616
_cell_length_c 18.952497
_cell_angle_alpha 90.000000
_cell_angle_beta 90.000000
_cell_angle_gamma 90.000000
_cell_volume 6080.843542
_symmetry_space_group_name_H-M "I B A M"
_symmetry_group_IT_number 72
_symmetry_cell_setting 'orthorhombic'
loop_
_space_group_symop_operation_xyz
x,y,z
-x,-y,z
x,-y,1/2-z
-x,y,1/2-z
-x,-y,-z
x,y,-z
-x,y,1/2+z
x,-y,1/2+z
1/2+x,1/2+y,1/2+z
1/2-x,1/2-y,1/2+z
1/2+x,1/2-y,-z
1/2-x,1/2+y,-z
1/2-x,1/2-y,1/2-z
1/2+x,1/2+y,1/2-z
1/2-x,1/2+y,z
1/2+x,1/2-y,z
loop_
_atom_site_type_symbol
_atom_site_label
_atom_site_fract_x
_atom_site_fract_y
_atom_site_fract_z
Si Si1 0.277074 0.743925 0.831272
Si Si2 0.587672 0.283601 0.578768
Si Si3 0.577934 0.190482 0.079219
Si Si4 0.817963 0.502775 0.585568
Si Si5 0.608788 0.474908 0.171412
Si Si6 0.004314 0.577999 0.415350
Si Si7 0.445901 0.650417 0.825614
O O1 0.250000 0.750000 0.750000
O O2 0.173419 0.750241 0.877922
O O3 0.341043 0.794575 0.860742
O O4 0.348230 0.690744 0.838616
O O5 0.624971 0.297035 0.500000
O O6 0.492991 0.242212 0.572814
O O7 0.537360 0.334208 0.618657
O O8 0.510900 0.139676 0.100910
O O9 0.621753 0.179655 0.000000
O O10 0.804198 0.503714 0.500000
O O11 0.708267 0.509297 0.624318
O O12 0.887454 0.450892 0.605549
O O13 0.898600 0.549559 0.608724
O O14 0.500000 0.500000 0.144062
O O15 0.623005 0.500000 0.250000
O O16 0.591906 0.410848 0.173139
O O17 0.000936 0.571478 0.500000
O O18 0.500000 0.661507 0.750000
#
# Coordination Sequence:
#
# PCOD9528357 Si02
#       7
#    16  16  16  16  16  16  16
#     4  11  22  35  60  85 117 157 202 245 300 376
#     4  10  22  39  60  91 125 156 201 257 308 369
#     4   9  19  34  55  84 118 154 195 246 307 368
#     4   9  19  36  61  89 116 152 206 259 311 375
#     4  11  24  41  61  84 123 169 209 258 316 367
#     4   8  16  35  59  85 119 155 192 255 324 370
#     4  11  22  42  62  85 121 166 208 250 309 374
#
# _framework density 18.418498
#
# number of rings (size 3 to 8) (size 9 to 14) (size 15 to 20)
#    0.000    2.143    2.857    1.286    2.000    3.714 
#    0.000    2.857    3.143    0.000    0.000    0.000 
#    0.000    0.000    0.000    0.000    0.000    0.000 
#
# Total GULP energy -311784.265409 kJ/mol
# GULP energy per Si atom -5567.576168 kJ/mol
# Density = 1.837658 g / cm^3
# Si number density = 18.418498 Si / 1000 Ang^3
#
#
#
# Elastic Constant Matrix: (Units=GPa)
#
#
# Indices 1 2 3 4 5 6 
#
# 1 115.7856 23.5738 50.2780 0.0000 0.0000 0.0000
# 2 23.5738 86.9575 19.5115 0.0000 0.0000 0.0000
# 3 50.2780 19.5115 98.5212 0.0001 0.0000 0.0000
# 4 0.0000 0.0000 0.0001 17.1762 0.0000 0.0000
# 5 0.0000 0.0000 0.0000 0.0000 39.1796 0.0000
# 6 0.0000 0.0000 0.0000 0.0000 0.0000 15.0845
#
#
#
# Elastic Compliance Matrix: (Units=1/GPa)
#
#
# Indices 1 2 3 4 5 6 
#
# 1 0.011377 -0.001864 -0.005437 0.000000 0.000000 0.000000
# 2 -0.001864 0.012340 -0.001492 0.000000 0.000000 0.000000
# 3 -0.005437 -0.001492 0.013220 0.000000 0.000000 0.000000
# 4 0.000000 0.000000 0.000000 0.058220 0.000000 0.000000
# 5 0.000000 0.000000 0.000000 0.000000 0.025523 0.000000
# 6 0.000000 0.000000 0.000000 0.000000 0.000000 0.066293
#
#
# Mechanical properties :
#
#
# Convention : Reuss Voigt Hill
#
# Bulk Modulus (GPa) = 51.67902 54.22121 52.95012
# Shear Modulus (GPa) = 23.69538 28.14813 25.92175
#
# Velocity S-wave (km/s) = 3.59067 3.91353 3.75557
# Velocity P-wave (km/s) = 6.73125 7.06564 6.90047
#
# Compressibility (1/GPa) = 0.01935021
#
# Stress axis : x y z
#
# Youngs Moduli (GPa) = 87.89606 81.03620 75.64170
#
# Poissons Ratio (x) = 0.15108 0.41125
# Poissons Ratio (y) = 0.16387 0.11289
# Poissons Ratio (z) = 0.47787 0.12094
#
# Static dielectric constant tensor:
#      x y z
#    x 1.671450 0.000000 0.000000 
#    y 0.000000 1.634260 0.000000 
#    z 0.000000 0.000000 1.643030 
# 
# From -- ./inp_files/37296.got.cif
#   From: 2010.05.17/outbox.cif.g08.bks.cpg/sg72_19_cif.got.tgz:37296.got - 2010.06.03 17:03:01.
