data_PCOD9528943
_publ_section_title
;
Structure prediction by ZEFSAII (Michael W. Deem and Ramdas Pophale) SiO2 
 PCOD9528943
Probable space group: I B A M
;
_chemical_formula_sum "Si O2"
_cell_formula_units_Z 60
_cell_length_a 16.218585
_cell_length_b 5.489449
_cell_length_c 23.080276
_cell_angle_alpha 90.000000
_cell_angle_beta 90.000000
_cell_angle_gamma 90.000000
_cell_volume 2054.862250
_symmetry_space_group_name_H-M "I B A M"
_symmetry_group_IT_number 72
_symmetry_cell_setting 'orthorhombic'
loop_
_space_group_symop_operation_xyz
x,y,z
-x,-y,z
x,-y,1/2-z
-x,y,1/2-z
-x,-y,-z
x,y,-z
-x,y,1/2+z
x,-y,1/2+z
1/2+x,1/2+y,1/2+z
1/2-x,1/2-y,1/2+z
1/2+x,1/2-y,-z
1/2-x,1/2+y,-z
1/2-x,1/2-y,1/2-z
1/2+x,1/2+y,1/2-z
1/2-x,1/2+y,z
1/2+x,1/2-y,z
loop_
_atom_site_type_symbol
_atom_site_label
_atom_site_fract_x
_atom_site_fract_y
_atom_site_fract_z
Si Si1 0.844754 0.990593 0.186312
Si Si2 0.000000 0.000000 0.250000
Si Si3 0.451033 0.747448 0.931697
Si Si4 0.832552 0.556639 0.375929
Si Si5 0.702399 0.226027 0.500000
O O1 0.876225 0.261727 0.167557
O O2 0.802407 0.000000 0.250000
O O3 0.932717 0.868105 0.207878
O O4 0.873582 0.708253 0.110798
O O5 0.500000 0.500000 0.920538
O O6 0.500000 0.000000 0.924951
O O7 0.426777 0.734958 0.000000
O O8 0.740307 0.514645 0.353250
O O9 0.840747 0.684005 0.439038
O O10 0.763683 0.996318 0.500000
#
# Coordination Sequence:
#
# PCOD9528943 Si02
#       5
#    16   4  16  16   8
#     4  10  24  49  85 131 186 233 326 395 485 557
#     4   8  24  52  84 132 176 240 314 412 476 532
#     4  10  24  47  76 125 192 246 302 373 456 559
#     4  12  23  47  84 128 188 257 310 389 478 594
#     4  12  26  46  78 138 186 236 310 376 466 571
#
# _framework density 29.199036
#
# number of rings (size 3 to 8) (size 9 to 14) (size 15 to 20)
#    0.800    0.533    4.000    0.800    0.000    4.267 
#    7.200    0.000    0.000    4.800    0.000    6.533 
#    0.000    0.000    0.000    0.000    0.000    0.000 
#
# Total GULP energy -167311.280096 kJ/mol
# GULP energy per Si atom -5577.042670 kJ/mol
# Density = 2.913258 g / cm^3
# Si number density = 29.199036 Si / 1000 Ang^3
#
#
#
# Elastic Constant Matrix: (Units=GPa)
#
#
# Indices 1 2 3 4 5 6 
#
# 1 227.4820 85.6298 79.3587 0.0000 0.0000 0.0000
# 2 85.6298 143.7984 8.2330 0.0000 0.0000 0.0000
# 3 79.3587 8.2330 151.7944 0.0000 0.0000 0.0000
# 4 0.0000 0.0000 0.0000 29.6190 0.0000 0.0000
# 5 0.0000 0.0000 0.0000 0.0000 77.2330 0.0000
# 6 0.0000 0.0000 0.0000 0.0000 0.0000 72.9204
#
#
#
# Elastic Compliance Matrix: (Units=1/GPa)
#
#
# Indices 1 2 3 4 5 6 
#
# 1 0.007150 -0.004056 -0.003518 0.000000 0.000000 0.000000
# 2 -0.004056 0.009277 0.001618 0.000000 0.000000 0.000000
# 3 -0.003518 0.001618 0.008339 0.000000 0.000000 0.000000
# 4 0.000000 0.000000 0.000000 0.033762 0.000000 0.000000
# 5 0.000000 0.000000 0.000000 0.000000 0.012948 0.000000
# 6 0.000000 0.000000 0.000000 0.000000 0.000000 0.013714
#
#
# Mechanical properties :
#
#
# Convention : Reuss Voigt Hill
#
# Bulk Modulus (GPa) = 77.80467 96.61307 87.20887
# Shear Modulus (GPa) = 49.31520 59.27802 54.29661
#
# Velocity S-wave (km/s) = 4.11412 4.51059 4.31691
# Velocity P-wave (km/s) = 7.01941 7.76446 7.40132
#
# Compressibility (1/GPa) = 0.01285270
#
# Stress axis : x y z
#
# Youngs Moduli (GPa) = 139.85586 107.79220 119.91226
#
# Poissons Ratio (x) = 0.43725 0.42187
# Poissons Ratio (y) = 0.56731 -0.19396
# Poissons Ratio (z) = 0.49203 -0.17436
#
# Static dielectric constant tensor:
#      x y z
#    x 2.377170 0.000000 0.000000 
#    y 0.000000 1.994540 0.000000 
#    z 0.000000 0.000000 1.964550 
# 
# From -- ./inp_files/40036.got.cif
#   From: 2010.05.17/outbox.cif.g08.bks.cpg/sg72_21_cif.got.tgz:40036.got - 2010.06.03 17:03:01.
