data_PCOD9528174
_publ_section_title
;
Structure prediction by ZEFSAII (Michael W. Deem and Ramdas Pophale) SiO2 
 PCOD9528174
Probable space group: I B A M
;
_chemical_formula_sum "Si O2"
_cell_formula_units_Z 120
_cell_length_a 23.728581
_cell_length_b 28.859159
_cell_length_c 9.242122
_cell_angle_alpha 90.000000
_cell_angle_beta 90.000000
_cell_angle_gamma 90.000000
_cell_volume 6328.883999
_symmetry_space_group_name_H-M "I B A M"
_symmetry_group_IT_number 72
_symmetry_cell_setting 'orthorhombic'
loop_
_space_group_symop_operation_xyz
x,y,z
-x,-y,z
x,-y,1/2-z
-x,y,1/2-z
-x,-y,-z
x,y,-z
-x,y,1/2+z
x,-y,1/2+z
1/2+x,1/2+y,1/2+z
1/2-x,1/2-y,1/2+z
1/2+x,1/2-y,-z
1/2-x,1/2+y,-z
1/2-x,1/2-y,1/2-z
1/2+x,1/2+y,1/2-z
1/2-x,1/2+y,z
1/2+x,1/2-y,z
loop_
_atom_site_type_symbol
_atom_site_label
_atom_site_fract_x
_atom_site_fract_y
_atom_site_fract_z
Si Si1 0.696218 0.861133 0.168818
Si Si2 0.218403 0.451373 0.828405
Si Si3 0.442415 0.387245 0.670401
Si Si4 0.895617 0.786587 0.830936
Si Si5 0.721279 0.293940 0.673263
Si Si6 0.146761 0.048903 0.671632
Si Si7 0.921237 0.315991 0.764323
Si Si8 0.983150 0.660855 0.000000
O O1 0.687028 0.910855 0.241987
O O2 0.745112 0.837255 0.262349
O O3 0.640686 0.829288 0.179968
O O4 0.712157 0.865494 0.000000
O O5 0.206558 0.500000 0.750000
O O6 0.286083 0.443019 0.813768
O O7 0.205746 0.452432 0.000000
O O8 0.500000 0.400955 0.750000
O O9 0.443356 0.399241 0.500000
O O10 0.434705 0.331632 0.680752
O O11 0.390240 0.412142 0.749456
O O12 0.842648 0.794789 0.727261
O O13 0.922673 0.737652 0.787048
O O14 0.877656 0.782892 0.000000
O O15 0.725347 0.291504 0.500000
O O16 0.750000 0.250000 0.750000
O O17 0.133961 0.046979 0.500000
O O18 0.134367 0.000000 0.750000
O O19 0.935740 0.346403 0.625750
O O20 0.968974 0.326220 0.878993
#
# Coordination Sequence:
#
# PCOD9528174 Si02
#       8
#    16  16  16  16  16  16  16   8
#     4  12  24  40  63  93 127 164 209 253 308 372
#     4  10  22  40  67  99 130 162 197 248 310 372
#     4  11  25  40  58  86 117 159 207 258 306 357
#     4  11  24  40  60  85 122 163 207 256 312 362
#     4  12  25  38  57  86 124 164 206 253 308 374
#     4  10  21  41  65  90 118 154 196 246 306 367
#     4  11  23  40  61  88 117 165 207 255 305 354
#     4  10  24  40  60  84 121 156 213 254 300 354
#
# _framework density 18.960688000000001
#
# number of rings (size 3 to 8) (size 9 to 14) (size 15 to 20)
#    0.000    1.067    2.667    3.600    4.667    5.067 
#    0.000    1.333    0.000    0.000    0.000    2.800 
#    0.000    0.000    0.000    0.000    0.000    0.000 
#
# Total GULP energy -334139.962739 kJ/mol
# GULP energy per Si atom -5568.999379 kJ/mol
# Density = 1.891753 g / cm^3
# Si number density = 18.960688 Si / 1000 Ang^3
#
#
#
# Elastic Constant Matrix: (Units=GPa)
#
#
# Indices 1 2 3 4 5 6 
#
# 1 29.8631 -8.4812 19.1730 0.0000 0.0000 0.0000
# 2 -8.4812 79.4434 25.6618 0.0000 0.0000 0.0000
# 3 19.1730 25.6618 176.3396 0.0000 0.0000 0.0000
# 4 0.0000 0.0000 0.0000 32.3290 0.0000 0.0000
# 5 0.0000 0.0000 0.0000 0.0000 28.5599 0.0000
# 6 0.0000 0.0000 0.0000 0.0000 0.0000 11.2276
#
#
#
# Elastic Compliance Matrix: (Units=1/GPa)
#
#
# Indices 1 2 3 4 5 6 
#
# 1 0.038314 0.005704 -0.004996 0.000000 0.000000 0.000000
# 2 0.005704 0.014058 -0.002666 0.000000 0.000000 0.000000
# 3 -0.004996 -0.002666 0.006602 0.000000 0.000000 0.000000
# 4 0.000000 0.000000 0.000000 0.030932 0.000000 0.000000
# 5 0.000000 0.000000 0.000000 0.000000 0.035014 0.000000
# 6 0.000000 0.000000 0.000000 0.000000 0.000000 0.089066
#
#
# Mechanical properties :
#
#
# Convention : Reuss Voigt Hill
#
# Bulk Modulus (GPa) = 18.16275 39.81704 28.98990
# Shear Modulus (GPa) = 21.16367 31.04279 26.10323
#
# Velocity S-wave (km/s) = 3.34456 4.05065 3.71442
# Velocity P-wave (km/s) = 4.95124 6.55152 5.80677
#
# Compressibility (1/GPa) = 0.05505775
#
# Stress axis : x y z
#
# Youngs Moduli (GPa) = 26.10043 71.13559 151.46881
#
# Poissons Ratio (x) = -0.40576 0.75671
# Poissons Ratio (y) = -0.14888 0.40380
# Poissons Ratio (z) = 0.13039 0.18964
#
# Static dielectric constant tensor:
#      x y z
#    x 1.639280 0.000000 0.000000 
#    y 0.000000 1.695460 0.000000 
#    z 0.000000 0.000000 1.641730 
# 
# From -- ./inp_files/7341.got.cif
#   From: 2010.05.17/outbox.cif.g08.bks.cpg/sg72_4_cif.got.tgz:7341.got - 2010.06.03 17:03:01.
