data_PCOD9528437
_publ_section_title
;
Structure prediction by ZEFSAII (Michael W. Deem and Ramdas Pophale) SiO2 
 PCOD9528437
Probable space group: I B A M
;
_chemical_formula_sum "Si O2"
_cell_formula_units_Z 96
_cell_length_a 14.833336
_cell_length_b 13.597662
_cell_length_c 21.772803
_cell_angle_alpha 90.000000
_cell_angle_beta 90.000000
_cell_angle_gamma 90.000000
_cell_volume 4391.545827
_symmetry_space_group_name_H-M "I B A M"
_symmetry_group_IT_number 72
_symmetry_cell_setting 'orthorhombic'
loop_
_space_group_symop_operation_xyz
x,y,z
-x,-y,z
x,-y,1/2-z
-x,y,1/2-z
-x,-y,-z
x,y,-z
-x,y,1/2+z
x,-y,1/2+z
1/2+x,1/2+y,1/2+z
1/2-x,1/2-y,1/2+z
1/2+x,1/2-y,-z
1/2-x,1/2+y,-z
1/2-x,1/2-y,1/2-z
1/2+x,1/2+y,1/2-z
1/2-x,1/2+y,z
1/2+x,1/2-y,z
loop_
_atom_site_type_symbol
_atom_site_label
_atom_site_fract_x
_atom_site_fract_y
_atom_site_fract_z
Si Si1 0.842482 0.831032 0.352220
Si Si2 0.024218 0.738923 0.066374
Si Si3 0.848524 0.663057 0.107911
Si Si4 0.604407 0.734242 0.270882
Si Si5 0.159846 0.560507 0.928404
Si Si6 0.790372 0.044640 0.313980
O O1 0.936361 0.809069 0.383087
O O2 0.756792 0.811727 0.395694
O O3 0.838137 0.762483 0.292011
O O4 0.838089 0.945210 0.336484
O O5 0.074915 0.634281 0.076354
O O6 0.918013 0.729487 0.071638
O O7 0.051770 0.775176 0.000000
O O8 0.874877 0.681181 0.179554
O O9 0.864376 0.553240 0.083820
O O10 0.500000 0.733964 0.250000
O O11 0.639401 0.631169 0.299224
O O12 0.226932 0.578588 0.870597
O O13 0.192757 0.569431 0.000000
O O14 0.746756 0.000000 0.250000
#
# Coordination Sequence:
#
# PCOD9528437 Si02
#       6
#    16  16  16  16  16  16
#     4  10  22  40  64  93 128 163 209 271 329 385
#     4  11  23  40  62  91 124 169 218 261 319 395
#     4  11  22  39  63  93 125 168 215 265 324 389
#     4  11  21  41  67  95 127 168 214 270 330 391
#     4  10  22  41  65  93 132 175 217 270 335 399
#     4   9  21  40  66  97 125 171 219 270 330 396
#
# _framework density 21.860184
#
# number of rings (size 3 to 8) (size 9 to 14) (size 15 to 20)
#    0.000    1.667    1.667    2.500    0.000   10.333 
#    0.000    1.667    0.000    1.000    0.000    0.000 
#    0.000    0.000    0.000    0.000    0.000    0.000 
#
# Total GULP energy -267773.349922 kJ/mol
# GULP energy per Si atom -5578.611457 kJ/mol
# Density = 2.181043 g / cm^3
# Si number density = 21.860184 Si / 1000 Ang^3
#
#
#
# Elastic Constant Matrix: (Units=GPa)
#
#
# Indices 1 2 3 4 5 6 
#
# 1 66.2672 2.5902 17.1625 0.0000 0.0000 0.0000
# 2 2.5902 44.8679 29.2179 0.0000 0.0000 0.0000
# 3 17.1625 29.2179 103.0269 0.0000 0.0000 0.0000
# 4 0.0000 0.0000 0.0000 20.0542 0.0000 0.0000
# 5 0.0000 0.0000 0.0000 0.0000 22.0465 0.0000
# 6 0.0000 0.0000 0.0000 0.0000 0.0000 19.4187
#
#
#
# Elastic Compliance Matrix: (Units=1/GPa)
#
#
# Indices 1 2 3 4 5 6 
#
# 1 0.015806 0.000984 -0.002912 0.000000 0.000000 0.000000
# 2 0.000984 0.027397 -0.007934 0.000000 0.000000 0.000000
# 3 -0.002912 -0.007934 0.012441 0.000000 0.000000 0.000000
# 4 0.000000 0.000000 0.000000 0.049865 0.000000 0.000000
# 5 0.000000 0.000000 0.000000 0.000000 0.045359 0.000000
# 6 0.000000 0.000000 0.000000 0.000000 0.000000 0.051497
#
#
# Mechanical properties :
#
#
# Convention : Reuss Voigt Hill
#
# Bulk Modulus (GPa) = 27.83891 34.67815 31.25853
# Shear Modulus (GPa) = 21.36184 23.31663 22.33923
#
# Velocity S-wave (km/s) = 3.12942 3.26947 3.20021
# Velocity P-wave (km/s) = 5.08137 5.49096 5.29013
#
# Compressibility (1/GPa) = 0.03592095
#
# Stress axis : x y z
#
# Youngs Moduli (GPa) = 63.26652 36.50010 80.37794
#
# Poissons Ratio (x) = -0.03591 0.23406
# Poissons Ratio (y) = -0.06224 0.63769
# Poissons Ratio (z) = 0.18423 0.28958
#
# Static dielectric constant tensor:
#      x y z
#    x 1.786610 0.000000 0.000000 
#    y 0.000000 1.790710 0.000000 
#    z 0.000000 0.000000 1.842860 
# 
# From -- ./inp_files/38023.got.cif
#   From: 2010.05.17/outbox.cif.g08.bks.cpg/sg72_20_cif.got.tgz:38023.got - 2010.06.03 17:03:01.
