data_PCOD9529076
_publ_section_title
;
Structure prediction by ZEFSAII (Michael W. Deem and Ramdas Pophale) SiO2 
 PCOD9529076
Probable space group: I B A M
;
_chemical_formula_sum "Si O2"
_cell_formula_units_Z 96
_cell_length_a 12.526295
_cell_length_b 14.839849
_cell_length_c 26.652693
_cell_angle_alpha 90.000000
_cell_angle_beta 90.000000
_cell_angle_gamma 90.000000
_cell_volume 4954.424494
_symmetry_space_group_name_H-M "I B A M"
_symmetry_group_IT_number 72
_symmetry_cell_setting 'orthorhombic'
loop_
_space_group_symop_operation_xyz
x,y,z
-x,-y,z
x,-y,1/2-z
-x,y,1/2-z
-x,-y,-z
x,y,-z
-x,y,1/2+z
x,-y,1/2+z
1/2+x,1/2+y,1/2+z
1/2-x,1/2-y,1/2+z
1/2+x,1/2-y,-z
1/2-x,1/2+y,-z
1/2-x,1/2-y,1/2-z
1/2+x,1/2+y,1/2-z
1/2-x,1/2+y,z
1/2+x,1/2-y,z
loop_
_atom_site_type_symbol
_atom_site_label
_atom_site_fract_x
_atom_site_fract_y
_atom_site_fract_z
Si Si1 0.517465 0.102086 0.440616
Si Si2 0.672593 0.996964 0.806266
Si Si3 0.257054 0.095037 0.901316
Si Si4 0.022807 0.146168 0.500000
Si Si5 0.488993 0.841518 0.193854
Si Si6 0.067495 0.238479 0.902193
Si Si7 0.824404 0.007077 0.500000
O O1 0.532476 0.105687 0.500000
O O2 0.624696 0.133531 0.412412
O O3 0.416513 0.161493 0.424825
O O4 0.500000 0.000000 0.424537
O O5 0.746657 0.967091 0.852015
O O6 0.583969 0.916272 0.807437
O O7 0.719449 0.000000 0.750000
O O8 0.614123 0.093127 0.812932
O O9 0.169343 0.173922 0.898178
O O10 0.237239 0.033471 0.950019
O O11 0.005906 0.198162 0.552601
O O12 0.927108 0.073280 0.500000
O O13 0.133642 0.093917 0.500000
O O14 0.500000 0.803070 0.250000
O O15 0.481898 0.763137 0.152176
#
# Coordination Sequence:
#
# PCOD9529076 Si02
#       7
#    16  16  16   8  16  16   8
#     4  11  22  38  58  87 122 160 202 246 293 358
#     4   9  18  36  60  82 112 153 201 239 290 356
#     4  11  21  37  60  89 120 152 206 246 289 355
#     4   9  20  39  56  79 121 167 193 230 306 353
#     4   9  18  36  60  83 112 154 193 240 300 348
#     4  11  21  37  59  87 124 155 189 254 301 352
#     4   9  20  39  58  79 119 165 199 234 284 372
#
# _framework density 19.376619000000002
#
# number of rings (size 3 to 8) (size 9 to 14) (size 15 to 20)
#    0.000    2.000    3.333    2.000    0.000    0.000 
#    6.000    5.000    0.000    0.000    0.000    0.000 
#    0.000    0.000    0.000    0.000    0.000    0.000 
#
# Total GULP energy -267234.977966 kJ/mol
# GULP energy per Si atom -5567.395374 kJ/mol
# Density = 1.933252 g / cm^3
# Si number density = 19.376619 Si / 1000 Ang^3
#
#
#
# Elastic Constant Matrix: (Units=GPa)
#
#
# Indices 1 2 3 4 5 6 
#
# 1 50.3687 36.5466 46.0890 0.0000 0.0000 0.0000
# 2 36.5466 86.8764 68.6958 0.0000 0.0000 0.0000
# 3 46.0890 68.6958 195.8223 0.0000 0.0000 0.0000
# 4 0.0000 0.0000 0.0000 36.8489 0.0000 0.0000
# 5 0.0000 0.0000 0.0000 0.0000 19.2759 0.0000
# 6 0.0000 0.0000 0.0000 0.0000 0.0000 23.4763
#
#
#
# Elastic Compliance Matrix: (Units=1/GPa)
#
#
# Indices 1 2 3 4 5 6 
#
# 1 0.030389 -0.009865 -0.003692 0.000000 0.000000 0.000000
# 2 -0.009865 0.019131 -0.004390 0.000000 0.000000 0.000000
# 3 -0.003692 -0.004390 0.007516 0.000000 0.000000 0.000000
# 4 0.000000 0.000000 0.000000 0.027138 0.000000 0.000000
# 5 0.000000 0.000000 0.000000 0.000000 0.051878 0.000000
# 6 0.000000 0.000000 0.000000 0.000000 0.000000 0.042596
#
#
# Mechanical properties :
#
#
# Convention : Reuss Voigt Hill
#
# Bulk Modulus (GPa) = 47.29505 70.63667 58.96586
# Shear Modulus (GPa) = 22.56426 28.03595 25.30011
#
# Velocity S-wave (km/s) = 3.41619 3.80794 3.61737
# Velocity P-wave (km/s) = 6.32628 7.47446 6.92421
#
# Compressibility (1/GPa) = 0.02114386
#
# Stress axis : x y z
#
# Youngs Moduli (GPa) = 32.90613 52.26985 133.05797
#
# Poissons Ratio (x) = 0.51563 0.49123
# Poissons Ratio (y) = 0.32461 0.58408
# Poissons Ratio (z) = 0.12149 0.22945
#
# Static dielectric constant tensor:
#      x y z
#    x 1.702280 0.000000 0.000000 
#    y 0.000000 1.714910 0.000000 
#    z 0.000000 0.000000 1.755870 
# 
# From -- ./inp_files/48670.got.cif
#   From: 2010.05.17/outbox.cif.g08.bks.cpg/sg72_25_cif.got.tgz:48670.got - 2010.06.03 17:03:01.
