data_PCOD9529958
_publ_section_title
;
Structure prediction by ZEFSAII (Michael W. Deem and Ramdas Pophale) SiO2 
 PCOD9529958
Probable space group: I B C A 
;
_chemical_formula_sum "Si O2"
_cell_formula_units_Z 104
_cell_length_a 23.520842
_cell_length_b 13.534608
_cell_length_c 18.771880
_cell_angle_alpha 90.000000
_cell_angle_beta 90.000000
_cell_angle_gamma 90.000000
_cell_volume 5975.941202
_symmetry_space_group_name_H-M "I B C A "
_symmetry_group_IT_number 73
_symmetry_cell_setting 'orthorhombic'
loop_
_space_group_symop_operation_xyz
x,y,z
-x,1/2-y,z
x,-y,1/2-z
1/2-x,y,-z
-x,-y,-z
x,1/2+y,-z
-x,y,1/2+z
1/2+x,-y,z
1/2+x,1/2+y,1/2+z
1/2-x,-y,1/2+z
1/2+x,1/2-y,-z
-x,1/2+y,1/2-z
1/2-x,1/2-y,1/2-z
1/2+x,y,1/2-z
1/2-x,1/2+y,z
x,1/2-y,1/2+z
loop_
_atom_site_type_symbol
_atom_site_label
_atom_site_fract_x
_atom_site_fract_y
_atom_site_fract_z
Si Si1 0.687197 0.187991 0.965854
Si Si2 0.436404 0.786581 0.273198
Si Si3 0.735451 0.626608 0.795242
Si Si4 0.902497 0.000000 0.250000
Si Si5 0.842022 0.232563 0.392942
Si Si6 0.812264 0.991381 0.123009
Si Si7 0.667213 0.225183 0.313569
O O1 0.680969 0.075019 0.938071
O O2 0.676426 0.257473 0.897066
O O3 0.750000 0.200000 0.000000
O O4 0.646765 0.220981 0.029963
O O5 0.500000 0.750000 0.280398
O O6 0.438292 0.901360 0.253619
O O7 0.398099 0.774638 0.344273
O O8 0.397252 0.735725 0.212192
O O9 0.701183 0.693600 0.852146
O O10 0.756418 0.527896 0.833861
O O11 0.696144 0.632616 0.725732
O O12 0.795154 0.683840 0.779750
O O13 0.862849 0.002096 0.180188
O O14 0.814376 0.122869 0.400005
#
# Coordination Sequence:
#
# PCOD9529958 Si02
#       7
#    16  16  16   8  16  16  16
#     4  11  19  34  53  86 126 150 181 233 291 362
#     4  10  20  37  64  80 107 150 202 246 281 332
#     4   9  16  34  54  81 114 141 187 237 274 340
#     4  10  18  36  64  84 100 142 208 238 274 354
#     4  10  21  35  57  82 116 153 190 226 293 358
#     4  10  20  33  56  83 107 159 192 222 282 353
#     4   9  17  31  55  82 112 145 186 236 287 325
#
# _framework density 17.403117000000002
#
# number of rings (size 3 to 8) (size 9 to 14) (size 15 to 20)
#    0.000    2.154    6.154    0.000    2.154    0.615 
#    0.000    0.769   10.154    1.846    0.000    0.000 
#    0.000    0.000    0.000    0.000    0.000    0.000 
#
# Total GULP energy -289676.177171 kJ/mol
# GULP energy per Si atom -5570.695715 kJ/mol
# Density = 1.736351 g / cm^3
# Si number density = 17.403117 Si / 1000 Ang^3
#
#
#
# Elastic Constant Matrix: (Units=GPa)
#
#
# Indices 1 2 3 4 5 6 
#
# 1 100.3871 50.6631 37.6507 0.0000 0.0000 0.0000
# 2 50.6631 113.1438 46.2139 0.0000 0.0000 0.0000
# 3 37.6507 46.2139 122.2618 0.0000 0.0000 0.0000
# 4 0.0000 0.0000 0.0000 25.3787 0.0000 0.0000
# 5 0.0000 0.0000 0.0000 0.0000 12.0826 0.0000
# 6 0.0000 0.0000 0.0000 0.0000 0.0000 23.3593
#
#
#
# Elastic Compliance Matrix: (Units=1/GPa)
#
#
# Indices 1 2 3 4 5 6 
#
# 1 0.013348 -0.005083 -0.002189 0.000000 0.000000 0.000000
# 2 -0.005083 0.012387 -0.003117 0.000000 0.000000 0.000000
# 3 -0.002189 -0.003117 0.010032 0.000000 0.000000 0.000000
# 4 0.000000 0.000000 0.000000 0.039403 0.000000 0.000000
# 5 0.000000 0.000000 0.000000 0.000000 0.082763 0.000000
# 6 0.000000 0.000000 0.000000 0.000000 0.000000 0.042810
#
#
# Mechanical properties :
#
#
# Convention : Reuss Voigt Hill
#
# Bulk Modulus (GPa) = 66.71695 67.20534 66.96115
# Shear Modulus (GPa) = 22.07343 25.58179 23.82761
#
# Velocity S-wave (km/s) = 3.56527 3.83816 3.70423
# Velocity P-wave (km/s) = 7.44094 7.63823 7.54023
#
# Compressibility (1/GPa) = 0.01498869
#
# Stress axis : x y z
#
# Youngs Moduli (GPa) = 74.92002 80.72762 99.68492
#
# Poissons Ratio (x) = 0.41030 0.21824
# Poissons Ratio (y) = 0.38078 0.31073
# Poissons Ratio (z) = 0.16402 0.25164
#
# Static dielectric constant tensor:
#      x y z
#    x 1.571300 0.000000 0.000000 
#    y 0.000000 1.674570 0.000000 
#    z 0.000000 0.000000 1.663600 
# 
# From -- ./inp_files/26978.got.cif
#   From: 2010.05.17/outbox.cif.g08.bks.cpg/sg73_14_cif.got.tgz:26978.got - 2010.06.03 17:35:07.
