data_PCOD9529225
_publ_section_title
;
Structure prediction by ZEFSAII (Michael W. Deem and Ramdas Pophale) SiO2 
 PCOD9529225
Probable space group: I B A M
;
_chemical_formula_sum "Si O2"
_cell_formula_units_Z 104
_cell_length_a 8.834805
_cell_length_b 23.914613
_cell_length_c 24.039312
_cell_angle_alpha 90.000000
_cell_angle_beta 90.000000
_cell_angle_gamma 90.000000
_cell_volume 5079.048497
_symmetry_space_group_name_H-M "I B A M"
_symmetry_group_IT_number 72
_symmetry_cell_setting 'orthorhombic'
loop_
_space_group_symop_operation_xyz
x,y,z
-x,-y,z
x,-y,1/2-z
-x,y,1/2-z
-x,-y,-z
x,y,-z
-x,y,1/2+z
x,-y,1/2+z
1/2+x,1/2+y,1/2+z
1/2-x,1/2-y,1/2+z
1/2+x,1/2-y,-z
1/2-x,1/2+y,-z
1/2-x,1/2-y,1/2-z
1/2+x,1/2+y,1/2-z
1/2-x,1/2+y,z
1/2+x,1/2-y,z
loop_
_atom_site_type_symbol
_atom_site_label
_atom_site_fract_x
_atom_site_fract_y
_atom_site_fract_z
Si Si1 0.986020 0.737938 0.500000
Si Si2 0.429617 0.669315 0.807626
Si Si3 0.010996 0.564130 0.399175
Si Si4 0.331430 0.622427 0.383658
Si Si5 0.486852 0.629977 0.500000
Si Si6 0.841523 0.373862 0.000000
Si Si7 0.593671 0.132614 0.306328
Si Si8 0.603917 0.780927 0.377852
O O1 0.958435 0.803353 0.500000
O O2 0.070576 0.724259 0.557096
O O3 0.848788 0.693706 0.500000
O O4 0.500000 0.690741 0.750000
O O5 0.539790 0.623648 0.836396
O O6 0.266534 0.644691 0.794115
O O7 0.399118 0.720402 0.849900
O O8 0.182456 0.583542 0.385081
O O9 0.000000 0.500000 0.415977
O O10 0.932414 0.601560 0.447166
O O11 0.921113 0.576833 0.342696
O O12 0.409807 0.611420 0.442791
O O13 0.260496 0.684851 0.375317
O O14 0.663520 0.613262 0.500000
O O15 0.500000 0.130138 0.250000
O O16 0.519127 0.181177 0.345125
#
# Coordination Sequence:
#
# PCOD9529225 Si02
#       8
#     8  16  16  16   8   8  16  16
#     4  12  23  37  64  95 140 168 206 241 311 385
#     4  12  24  39  61  95 135 169 209 261 317 378
#     4  11  25  47  71  89 118 166 218 268 325 388
#     4  11  23  40  61  96 128 165 215 267 310 368
#     4  12  26  35  65  99 139 167 205 255 313 376
#     4  12  24  44  64  96 132 172 205 254 320 393
#     4  11  24  44  65  91 127 169 216 263 317 387
#     4  11  23  39  62  92 136 179 209 246 309 390
#
# _framework density 20.476275999999999
#
# number of rings (size 3 to 8) (size 9 to 14) (size 15 to 20)
#    0.000    0.615    4.615    5.308    2.154    2.154 
#    0.000    3.846    0.000    0.923    0.000    0.000 
#    0.000    0.000    0.000    0.000    0.000    0.000 
#
# Total GULP energy -290588.406321 kJ/mol
# GULP energy per Si atom -5588.238583 kJ/mol
# Density = 2.042967 g / cm^3
# Si number density = 20.476276 Si / 1000 Ang^3
#
#
#
# Elastic Constant Matrix: (Units=GPa)
#
#
# Indices 1 2 3 4 5 6 
#
# 1 129.2276 9.1104 42.0160 0.0000 0.0000 0.0000
# 2 9.1104 52.1014 10.6826 0.0000 0.0000 0.0000
# 3 42.0160 10.6826 136.5494 0.0000 0.0000 0.0000
# 4 0.0000 0.0000 0.0000 12.4302 0.0000 0.0000
# 5 0.0000 0.0000 0.0000 0.0000 35.7073 0.0000
# 6 0.0000 0.0000 0.0000 0.0000 0.0000 9.5806
#
#
#
# Elastic Compliance Matrix: (Units=1/GPa)
#
#
# Indices 1 2 3 4 5 6 
#
# 1 0.008648 -0.000982 -0.002584 0.000000 0.000000 0.000000
# 2 -0.000982 0.019618 -0.001233 0.000000 0.000000 0.000000
# 3 -0.002584 -0.001233 0.008215 0.000000 0.000000 0.000000
# 4 0.000000 0.000000 0.000000 0.080449 0.000000 0.000000
# 5 0.000000 0.000000 0.000000 0.000000 0.028005 0.000000
# 6 0.000000 0.000000 0.000000 0.000000 0.000000 0.104378
#
#
# Mechanical properties :
#
#
# Convention : Reuss Voigt Hill
#
# Bulk Modulus (GPa) = 37.19863 49.05515 43.12689
# Shear Modulus (GPa) = 18.66568 28.61491 23.64029
#
# Velocity S-wave (km/s) = 3.02251 3.74233 3.40151
# Velocity P-wave (km/s) = 5.51243 6.53318 6.04439
#
# Compressibility (1/GPa) = 0.02688271
#
# Stress axis : x y z
#
# Youngs Moduli (GPa) = 115.63790 50.97408 121.73035
#
# Poissons Ratio (x) = 0.05007 0.31455
# Poissons Ratio (y) = 0.11359 0.15003
# Poissons Ratio (z) = 0.29881 0.06283
#
# Static dielectric constant tensor:
#      x y z
#    x 1.748860 0.000000 0.000000 
#    y 0.000000 1.738940 0.000000 
#    z 0.000000 0.000000 1.752160 
# 
# From -- ./inp_files/42660.got.cif
#   From: 2010.05.17/outbox.cif.g08.bks.cpg/sg72_22_cif.got.tgz:42660.got - 2010.06.03 17:03:01.
