data_PCOD9529825
_publ_section_title
;
Structure prediction by ZEFSAII (Michael W. Deem and Ramdas Pophale) SiO2 
 PCOD9529825
Probable space group: I B C A 
;
_chemical_formula_sum "Si O2"
_cell_formula_units_Z 80
_cell_length_a 16.423442
_cell_length_b 9.436564
_cell_length_c 26.428011
_cell_angle_alpha 90.000000
_cell_angle_beta 90.000000
_cell_angle_gamma 90.000000
_cell_volume 4095.835913
_symmetry_space_group_name_H-M "I B C A "
_symmetry_group_IT_number 73
_symmetry_cell_setting 'orthorhombic'
loop_
_space_group_symop_operation_xyz
x,y,z
-x,1/2-y,z
x,-y,1/2-z
1/2-x,y,-z
-x,-y,-z
x,1/2+y,-z
-x,y,1/2+z
1/2+x,-y,z
1/2+x,1/2+y,1/2+z
1/2-x,-y,1/2+z
1/2+x,1/2-y,-z
-x,1/2+y,1/2-z
1/2-x,1/2-y,1/2-z
1/2+x,y,1/2-z
1/2-x,1/2+y,z
x,1/2-y,1/2+z
loop_
_atom_site_type_symbol
_atom_site_label
_atom_site_fract_x
_atom_site_fract_y
_atom_site_fract_z
Si Si1 0.721544 0.375933 0.786424
Si Si2 0.167912 0.282697 0.471883
Si Si3 0.699745 0.002877 0.615956
Si Si4 0.090390 0.767380 0.364923
Si Si5 0.369260 0.496751 0.059026
O O1 0.692490 0.500000 0.750000
O O2 0.750000 0.250000 0.750000
O O3 0.786250 0.444004 0.826403
O O4 0.651127 0.317030 0.821714
O O5 0.250000 0.222309 0.500000
O O6 0.179513 0.361972 0.418695
O O7 0.145928 0.406609 0.510431
O O8 0.105101 0.155416 0.462378
O O9 0.787091 0.959144 0.591414
O O10 0.634790 0.874358 0.613030
O O11 0.082809 0.896611 0.404873
O O12 0.000000 0.750000 0.344825
#
# Coordination Sequence:
#
# PCOD9529825 Si02
#       5
#    16  16  16  16  16
#     4  11  22  41  68  90 115 158 208 257 311 371
#     4  10  18  31  59  95 119 159 210 259 291 346
#     4  10  20  36  61  86 123 156 204 254 300 361
#     4  11  24  42  60  91 128 161 198 259 317 373
#     4  10  19  34  60  88 122 162 208 246 298 359
#
# _framework density 19.532032000000001
#
# number of rings (size 3 to 8) (size 9 to 14) (size 15 to 20)
#    0.000    1.600    2.000    6.600    2.800    0.000 
#    3.600    5.000    0.000    0.000    0.000    0.000 
#    0.000    0.000    0.000    0.000    0.000    0.000 
#
# Total GULP energy -222863.783570 kJ/mol
# GULP energy per Si atom -5571.594589 kJ/mol
# Density = 1.948758 g / cm^3
# Si number density = 19.532032 Si / 1000 Ang^3
#
#
#
# Elastic Constant Matrix: (Units=GPa)
#
#
# Indices 1 2 3 4 5 6 
#
# 1 33.1552 18.0989 -3.9381 0.0000 0.0000 0.0000
# 2 18.0989 126.6968 36.4212 0.0000 0.0000 0.0000
# 3 -3.9381 36.4212 91.2283 0.0000 0.0000 0.0000
# 4 0.0000 0.0000 0.0000 37.3213 0.0000 0.0000
# 5 0.0000 0.0000 0.0000 0.0000 1.6913 0.0000
# 6 0.0000 0.0000 0.0000 0.0000 0.0000 -1.7735
#
#
#
# Elastic Compliance Matrix: (Units=1/GPa)
#
#
# Indices 1 2 3 4 5 6 
#
# 1 0.033858 -0.005938 0.003832 0.000000 0.000000 0.000000
# 2 -0.005938 0.009958 -0.004232 0.000000 0.000000 0.000000
# 3 0.003832 -0.004232 0.012816 0.000000 0.000000 0.000000
# 4 0.000000 0.000000 0.000000 0.026794 0.000000 0.000000
# 5 0.000000 0.000000 0.000000 0.000000 0.591275 0.000000
# 6 0.000000 0.000000 0.000000 0.000000 0.000000 -0.563847
#
#
# Mechanical properties :
#
#
# Convention : Reuss Voigt Hill
#
# Bulk Modulus (GPa) = 22.74972 39.13826 30.94399
# Shear Modulus (GPa) = 36.18411 20.81436 28.49924
#
# Velocity S-wave (km/s) = 4.30880 3.26798 3.82396
# Velocity P-wave (km/s) = 6.03548 5.85842 5.94761
#
# Compressibility (1/GPa) = 0.04395659
#
# Stress axis : x y z
#
# Youngs Moduli (GPa) = 29.53503 100.42513 78.02506
#
# Poissons Ratio (x) = 0.59636 -0.29902
# Poissons Ratio (y) = 0.17539 0.33018
# Poissons Ratio (z) = -0.11319 0.42498
#
# Static dielectric constant tensor:
#      x y z
#    x 1.698430 0.000000 0.000000 
#    y 0.000000 1.744150 0.000000 
#    z 0.000000 0.000000 1.694150 
# 
# From -- ./inp_files/5587.got.cif
#   From: 2010.05.17/outbox.cif.g08.bks.cpg/sg73_3_cif.got.tgz:5587.got - 2010.06.03 17:35:07.
