data_PCOD9529560
_publ_section_title
;
Structure prediction by ZEFSAII (Michael W. Deem and Ramdas Pophale) SiO2 
 PCOD9529560
Probable space group: I B A M
;
_chemical_formula_sum "Si O2"
_cell_formula_units_Z 56
_cell_length_a 15.000000
_cell_length_b 12.000000
_cell_length_c 30.000000
_cell_angle_alpha 90.000000
_cell_angle_beta 90.000000
_cell_angle_gamma 90.000000
_cell_volume 5400.000000
_symmetry_space_group_name_H-M "I B A M"
_symmetry_group_IT_number 72
_symmetry_cell_setting 'orthorhombic'
loop_
_space_group_symop_operation_xyz
x,y,z
-x,-y,z
x,-y,1/2-z
-x,y,1/2-z
-x,-y,-z
x,y,-z
-x,y,1/2+z
x,-y,1/2+z
1/2+x,1/2+y,1/2+z
1/2-x,1/2-y,1/2+z
1/2+x,1/2-y,-z
1/2-x,1/2+y,-z
1/2-x,1/2-y,1/2-z
1/2+x,1/2+y,1/2-z
1/2-x,1/2+y,z
1/2+x,1/2-y,z
loop_
_atom_site_type_symbol
_atom_site_label
_atom_site_fract_x
_atom_site_fract_y
_atom_site_fract_z
Si Si1 0.892757 0.010655 0.198475
Si Si2 0.677284 0.633267 0.379120
Si Si3 0.144058 0.231176 0.357624
Si Si4 0.411978 0.842697 0.896558
Si Si5 0.501333 0.132042 0.197483
Si Si6 0.222628 0.499802 0.051456
Si Si7 0.418737 0.199349 0.948744
O O1 0.857247 0.913129 0.167372
O O2 0.863532 0.000000 0.250000
O O3 0.859760 0.121764 0.173032
O O4 0.000000 0.000000 0.198089
O O5 0.761494 0.710733 0.366226
O O6 0.606121 0.712510 0.402178
O O7 0.700436 0.538393 0.414883
O O8 0.082657 0.317096 0.329172
O O9 0.106362 0.216132 0.408291
O O10 0.423954 0.855040 0.842635
O O11 0.499124 0.866772 0.926053
O O12 0.333303 0.910248 0.920163
O O13 0.500000 0.176340 0.250000
O O14 0.500000 0.000000 0.202521
O O15 0.161307 0.610501 0.048243
O O16 0.243613 0.465792 0.000000
O O17 0.436352 0.237421 0.000000
#
# Coordination Sequence:
#
# PCOD9529560 Si02
#       7
#    16  16  16  16  16  16  16
#     4  11  25  44  66  87 121 172 217 261 318 392
#     4  11  24  41  58  90 123 162 210 265 310 379
#     4  10  22  40  63  89 127 160 209 261 321 380
#     4  11  20  35  62  84 123 161 206 256 313 385
#     4  10  21  37  60  91 123 160 202 265 325 382
#     4  10  21  38  61  90 125 158 199 259 325 382
#     4   9  18  35  62  92 117 152 201 252 311 382
#
# _framework density 10.370369999999999
#
# number of rings (size 3 to 8) (size 9 to 14) (size 15 to 20)
#    0.000    1.714    0.000    6.000    4.000    2.857 
#    5.143    3.571    0.000    1.714    0.000    0.000 
#    0.000    0.000    0.000    0.000    0.000    0.000 
#
# Total GULP energy -311921.736970 kJ/mol
# GULP energy per Si atom -5570.031017 kJ/mol
# Density = 1.034677 g / cm^3
# Si number density = 10.370370 Si / 1000 Ang^3
#
#
#
# Elastic Constant Matrix: (Units=GPa)
#
#
# Indices 1 2 3 4 5 6 
#
# 1 40.1389 13.7062 38.0691 0.0000 0.0000 0.0000
# 2 13.7062 61.6996 36.3919 0.0000 0.0000 0.0000
# 3 38.0691 36.3919 225.3379 0.0000 0.0000 0.0000
# 4 0.0000 0.0000 0.0000 29.3144 0.0000 0.0000
# 5 0.0000 0.0000 0.0000 0.0000 8.0824 0.0000
# 6 0.0000 0.0000 0.0000 0.0000 0.0000 28.0522
#
#
#
# Elastic Compliance Matrix: (Units=1/GPa)
#
#
# Indices 1 2 3 4 5 6 
#
# 1 0.030596 -0.004143 -0.004500 0.000000 0.000000 0.000000
# 2 -0.004143 0.018475 -0.002284 0.000000 0.000000 0.000000
# 3 -0.004500 -0.002284 0.005567 0.000000 0.000000 0.000000
# 4 0.000000 0.000000 0.000000 0.034113 0.000000 0.000000
# 5 0.000000 0.000000 0.000000 0.000000 0.123726 0.000000
# 6 0.000000 0.000000 0.000000 0.000000 0.000000 0.035648
#
#
# Mechanical properties :
#
#
# Convention : Reuss Voigt Hill
#
# Bulk Modulus (GPa) = 30.50168 55.94564 43.22366
# Shear Modulus (GPa) = 17.79958 29.02374 23.41166
#
# Velocity S-wave (km/s) = 2.93267 3.74486 3.36337
# Velocity P-wave (km/s) = 5.11913 6.76247 5.99735
#
# Compressibility (1/GPa) = 0.03278507
#
# Stress axis : x y z
#
# Youngs Moduli (GPa) = 32.68405 54.12758 179.63490
#
# Poissons Ratio (x) = 0.22423 0.80835
# Poissons Ratio (y) = 0.13539 0.41026
# Poissons Ratio (z) = 0.14708 0.12362
#
# Static dielectric constant tensor:
#      x y z
#    x 1.840190 0.000000 0.000000 
#    y 0.000000 1.754070 0.000000 
#    z 0.000000 0.000000 1.737240 
# 
# From -- ./inp_files/51767.got.cif
#   From: 2010.05.17/outbox.ucp.g08.bks.cvg/sg72_26_cif.got.tgz:51767.got - 2010.06.11 16:33:07.
