data_PCOD9529051
_publ_section_title
;
Structure prediction by ZEFSAII (Michael W. Deem and Ramdas Pophale) SiO2 
 PCOD9529051
Probable space group: I B A M
;
_chemical_formula_sum "Si O2"
_cell_formula_units_Z 72
_cell_length_a 13.228674
_cell_length_b 20.521788
_cell_length_c 14.599198
_cell_angle_alpha 90.000000
_cell_angle_beta 90.000000
_cell_angle_gamma 90.000000
_cell_volume 3963.332509
_symmetry_space_group_name_H-M "I B A M"
_symmetry_group_IT_number 72
_symmetry_cell_setting 'orthorhombic'
loop_
_space_group_symop_operation_xyz
x,y,z
-x,-y,z
x,-y,1/2-z
-x,y,1/2-z
-x,-y,-z
x,y,-z
-x,y,1/2+z
x,-y,1/2+z
1/2+x,1/2+y,1/2+z
1/2-x,1/2-y,1/2+z
1/2+x,1/2-y,-z
1/2-x,1/2+y,-z
1/2-x,1/2-y,1/2-z
1/2+x,1/2+y,1/2-z
1/2-x,1/2+y,z
1/2+x,1/2-y,z
loop_
_atom_site_type_symbol
_atom_site_label
_atom_site_fract_x
_atom_site_fract_y
_atom_site_fract_z
Si Si1 0.026930 0.209688 0.000000
Si Si2 0.900097 0.347070 0.500000
Si Si3 0.486285 0.074246 0.142450
Si Si4 0.896855 0.799092 0.203453
Si Si5 0.690735 0.726230 0.000000
Si Si6 0.823952 0.319068 0.177057
O O1 0.082873 0.195999 0.905204
O O2 0.912689 0.184975 0.000000
O O3 0.020237 0.287929 0.000000
O O4 0.789652 0.317663 0.500000
O O5 0.926628 0.387487 0.589563
O O6 0.500000 0.072033 0.250000
O O7 0.383938 0.118208 0.138087
O O8 0.500000 0.000000 0.109004
O O9 0.881413 0.725850 0.246474
O O10 0.787837 0.832878 0.217768
O O11 0.000000 0.824395 0.250000
O O12 0.690687 0.770120 0.091294
#
# Coordination Sequence:
#
# PCOD9529051 Si02
#       6
#     8   8  16  16   8  16
#     4  12  20  33  49  81 119 143 184 230 306 357
#     4  12  21  37  56  84 120 152 195 245 301 349
#     4  11  24  39  58  84 119 164 201 240 287 361
#     4  11  21  32  53  83 119 153 183 244 309 356
#     4  12  22  32  56  87 113 157 186 246 312 367
#     4  11  21  34  55  85 117 152 197 238 305 359
#
# _framework density 18.166530000000002
#
# number of rings (size 3 to 8) (size 9 to 14) (size 15 to 20)
#    0.000    0.667    6.667    2.333    3.111    0.000 
#    0.000    0.000    0.000    0.000    0.000   12.444 
#    0.000    0.000    0.000    0.000    0.000    0.000 
#
# Total GULP energy -200531.006387 kJ/mol
# GULP energy per Si atom -5570.305733 kJ/mol
# Density = 1.812518 g / cm^3
# Si number density = 18.166530 Si / 1000 Ang^3
#
#
#
# Elastic Constant Matrix: (Units=GPa)
#
#
# Indices 1 2 3 4 5 6 
#
# 1 162.5432 48.0246 30.6892 0.0000 0.0000 0.0000
# 2 48.0246 84.2609 17.6078 0.0001 -0.0002 0.0000
# 3 30.6892 17.6078 108.6184 0.0004 -0.0004 -0.0001
# 4 0.0000 0.0001 0.0004 17.3738 -0.0003 -0.0001
# 5 0.0000 -0.0002 -0.0004 -0.0003 37.3517 0.0001
# 6 0.0000 0.0000 -0.0001 -0.0001 0.0001 16.3938
#
#
#
# Elastic Compliance Matrix: (Units=1/GPa)
#
#
# Indices 1 2 3 4 5 6 
#
# 1 0.007627 -0.004034 -0.001501 0.000000 0.000000 0.000000
# 2 -0.004034 0.014417 -0.001197 0.000000 0.000000 0.000000
# 3 -0.001501 -0.001197 0.009825 0.000000 0.000000 0.000000
# 4 0.000000 0.000000 0.000000 0.057558 0.000000 0.000000
# 5 0.000000 0.000000 0.000000 0.000000 0.026773 0.000000
# 6 0.000000 0.000000 0.000000 0.000000 0.000000 0.060999
#
#
# Mechanical properties :
#
#
# Convention : Reuss Voigt Hill
#
# Bulk Modulus (GPa) = 54.33343 60.89616 57.61480
# Shear Modulus (GPa) = 25.40681 31.49725 28.45203
#
# Velocity S-wave (km/s) = 3.74378 4.16842 3.96179
# Velocity P-wave (km/s) = 6.97576 7.53402 7.26026
#
# Compressibility (1/GPa) = 0.01840487
#
# Stress axis : x y z
#
# Youngs Moduli (GPa) = 131.10658 69.36229 101.78313
#
# Poissons Ratio (x) = 0.27978 0.15280
# Poissons Ratio (y) = 0.52882 0.12188
# Poissons Ratio (z) = 0.19682 0.08306
#
# Static dielectric constant tensor:
#      x y z
#    x 1.699820 0.000000 0.000000 
#    y 0.000000 1.628780 0.000000 
#    z 0.000000 0.000000 1.594760 
# 
# From -- ./inp_files/21496.got.cif
#   From: 2010.05.17/outbox.cif.g08.bks.cpg/sg72_11_cif.got.tgz:21496.got - 2010.06.03 17:03:01.
