data_PCOD9529954
_publ_section_title
;
Structure prediction by ZEFSAII (Michael W. Deem and Ramdas Pophale) SiO2 
 PCOD9529954
Probable space group: I B C A 
;
_chemical_formula_sum "Si O2"
_cell_formula_units_Z 96
_cell_length_a 13.928621
_cell_length_b 19.618726
_cell_length_c 15.021694
_cell_angle_alpha 90.000000
_cell_angle_beta 90.000000
_cell_angle_gamma 90.000000
_cell_volume 4104.855126
_symmetry_space_group_name_H-M "I B C A "
_symmetry_group_IT_number 73
_symmetry_cell_setting 'orthorhombic'
loop_
_space_group_symop_operation_xyz
x,y,z
-x,1/2-y,z
x,-y,1/2-z
1/2-x,y,-z
-x,-y,-z
x,1/2+y,-z
-x,y,1/2+z
1/2+x,-y,z
1/2+x,1/2+y,1/2+z
1/2-x,-y,1/2+z
1/2+x,1/2-y,-z
-x,1/2+y,1/2-z
1/2-x,1/2-y,1/2-z
1/2+x,y,1/2-z
1/2-x,1/2+y,z
x,1/2-y,1/2+z
loop_
_atom_site_type_symbol
_atom_site_label
_atom_site_fract_x
_atom_site_fract_y
_atom_site_fract_z
Si Si1 0.000000 0.250000 0.332821
Si Si2 0.913075 0.163090 0.985462
Si Si3 0.947244 0.970400 0.586736
Si Si4 0.553759 0.112714 0.372174
Si Si5 0.750000 0.242651 0.500000
Si Si6 0.084821 0.611125 0.225345
Si Si7 0.737258 0.816970 0.188360
O O1 0.067793 0.208049 0.398836
O O2 0.054715 0.309090 0.282138
O O3 0.880653 0.090081 0.949001
O O4 0.833689 0.206934 0.034995
O O5 0.011826 0.150277 0.040244
O O6 0.024570 0.933428 0.653156
O O7 0.896334 0.038803 0.620318
O O8 0.000000 0.000000 0.500000
O O9 0.456937 0.091549 0.320407
O O10 0.626031 0.161126 0.319427
O O11 0.770617 0.197056 0.413795
O O12 0.198529 0.618574 0.219315
O O13 0.750000 0.750000 0.250000
#
# Coordination Sequence:
#
# PCOD9529954 Si02
#       7
#     8  16  16  16   8  16  16
#     4  10  18  36  62  88 126 170 206 280 338 396
#     4  10  21  40  65  96 135 178 226 283 347 422
#     4   9  22  43  66  94 130 185 232 273 350 421
#     4  11  24  45  67  98 143 181 232 298 350 417
#     4  12  24  42  66 104 140 178 232 290 358 418
#     4  11  22  42  67  94 135 177 228 287 346 415
#     4  12  27  43  70 110 138 182 240 292 362 425
#
# _framework density 23.386939999999999
#
# number of rings (size 3 to 8) (size 9 to 14) (size 15 to 20)
#    0.000    1.333    1.667    3.500    7.000    2.000 
#    6.000    1.667    0.000    0.000    0.000    0.000 
#    0.000    0.000    0.000    0.000    0.000    0.000 
#
# Total GULP energy -267674.412554 kJ/mol
# GULP energy per Si atom -5576.550262 kJ/mol
# Density = 2.333371 g / cm^3
# Si number density = 23.386940 Si / 1000 Ang^3
#
#
#
# Elastic Constant Matrix: (Units=GPa)
#
#
# Indices 1 2 3 4 5 6 
#
# 1 68.4086 9.5218 -1.5321 0.0000 0.0000 0.0000
# 2 9.5218 113.1569 5.9737 0.0000 0.0000 0.0000
# 3 -1.5321 5.9737 64.0774 0.0000 0.0000 0.0000
# 4 0.0000 0.0000 0.0000 32.6457 0.0000 0.0000
# 5 0.0000 0.0000 0.0000 0.0000 26.3276 0.0000
# 6 0.0000 0.0000 0.0000 0.0000 0.0000 27.0358
#
#
#
# Elastic Compliance Matrix: (Units=1/GPa)
#
#
# Indices 1 2 3 4 5 6 
#
# 1 0.014806 -0.001271 0.000472 0.000000 0.000000 0.000000
# 2 -0.001271 0.008990 -0.000868 0.000000 0.000000 0.000000
# 3 0.000472 -0.000868 0.015698 0.000000 0.000000 0.000000
# 4 0.000000 0.000000 0.000000 0.030632 0.000000 0.000000
# 5 0.000000 0.000000 0.000000 0.000000 0.037983 0.000000
# 6 0.000000 0.000000 0.000000 0.000000 0.000000 0.036988
#
#
# Mechanical properties :
#
#
# Convention : Reuss Voigt Hill
#
# Bulk Modulus (GPa) = 27.65460 30.39664 29.02562
# Shear Modulus (GPa) = 31.15578 32.64713 31.90145
#
# Velocity S-wave (km/s) = 3.65387 3.74030 3.69734
# Velocity P-wave (km/s) = 5.44532 5.62838 5.53761
#
# Compressibility (1/GPa) = 0.03616035
#
# Stress axis : x y z
#
# Youngs Moduli (GPa) = 67.54240 111.23389 63.70078
#
# Poissons Ratio (x) = 0.14135 -0.03010
# Poissons Ratio (y) = 0.08583 0.05532
# Poissons Ratio (z) = -0.03191 0.09661
#
# Static dielectric constant tensor:
#      x y z
#    x 2.024480 0.000000 0.000000 
#    y 0.000000 1.947810 0.000000 
#    z 0.000000 0.000000 1.935420 
# 
# From -- ./inp_files/17089.got.cif
#   From: 2010.05.17/outbox.cif.g08.bks.cpg/sg73_9_cif.got.tgz:17089.got - 2010.06.03 17:35:07.
