data_PCOD9529802
_publ_section_title
;
Structure prediction by ZEFSAII (Michael W. Deem and Ramdas Pophale) SiO2 
 PCOD9529802
Probable space group: I B C A 
;
_chemical_formula_sum "Si O2"
_cell_formula_units_Z 96
_cell_length_a 18.918467
_cell_length_b 18.300115
_cell_length_c 14.901999
_cell_angle_alpha 90.000000
_cell_angle_beta 90.000000
_cell_angle_gamma 90.000000
_cell_volume 5159.222888
_symmetry_space_group_name_H-M "I B C A "
_symmetry_group_IT_number 73
_symmetry_cell_setting 'orthorhombic'
loop_
_space_group_symop_operation_xyz
x,y,z
-x,1/2-y,z
x,-y,1/2-z
1/2-x,y,-z
-x,-y,-z
x,1/2+y,-z
-x,y,1/2+z
1/2+x,-y,z
1/2+x,1/2+y,1/2+z
1/2-x,-y,1/2+z
1/2+x,1/2-y,-z
-x,1/2+y,1/2-z
1/2-x,1/2-y,1/2-z
1/2+x,y,1/2-z
1/2-x,1/2+y,z
x,1/2-y,1/2+z
loop_
_atom_site_type_symbol
_atom_site_label
_atom_site_fract_x
_atom_site_fract_y
_atom_site_fract_z
Si Si1 0.318901 0.820294 0.661262
Si Si2 0.056538 0.084290 0.224267
Si Si3 0.975542 0.166108 0.072646
Si Si4 0.017482 0.836001 0.623041
Si Si5 0.839754 0.705238 0.685139
Si Si6 0.828212 0.714029 0.999313
O O1 0.369896 0.887252 0.682290
O O2 0.236691 0.832751 0.683515
O O3 0.344089 0.753293 0.725229
O O4 0.323535 0.787540 0.561413
O O5 0.998038 0.113231 0.152857
O O6 0.040533 0.124734 0.317508
O O7 0.055133 0.000000 0.250000
O O8 0.893393 0.169671 0.042897
O O9 0.000000 0.250000 0.095080
O O10 0.016176 0.143814 0.981332
O O11 0.093555 0.846206 0.669034
O O12 0.000000 0.750000 0.626138
O O13 0.841813 0.760679 0.600574
O O14 0.750000 0.679067 0.000000
#
# Coordination Sequence:
#
# PCOD9529802 Si02
#       6
#    16  16  16  16  16  16
#     4  10  19  32  51  80 112 141 185 235 290 349
#     4  12  24  36  53  82 121 164 192 231 298 368
#     4  11  19  35  59  85 115 147 198 256 292 337
#     4  11  19  35  59  82 111 143 198 256 289 341
#     4  10  18  31  55  83 104 136 185 249 297 327
#     4  10  18  30  54  87 112 135 184 249 305 332
#
# _framework density 18.607454000000001
#
# number of rings (size 3 to 8) (size 9 to 14) (size 15 to 20)
#    0.000    1.333    6.667    1.500    0.000    0.667 
#    0.000    0.833    0.000    0.000    0.000   12.833 
#    0.000    0.000    0.000    0.000    0.000    0.000 
#
# Total GULP energy -267801.117676 kJ/mol
# GULP energy per Si atom -5579.189952 kJ/mol
# Density = 1.856510 g / cm^3
# Si number density = 18.607454 Si / 1000 Ang^3
#
#
#
# Elastic Constant Matrix: (Units=GPa)
#
#
# Indices 1 2 3 4 5 6 
#
# 1 135.4004 27.7101 14.9888 0.0000 0.0000 0.0000
# 2 27.7101 48.8007 33.6347 0.0000 0.0000 0.0000
# 3 14.9888 33.6347 97.5841 0.0000 0.0000 0.0000
# 4 0.0000 0.0000 0.0000 8.8466 0.0000 0.0000
# 5 0.0000 0.0000 0.0000 0.0000 31.7559 0.0000
# 6 0.0000 0.0000 0.0000 0.0000 0.0000 13.5845
#
#
#
# Elastic Compliance Matrix: (Units=1/GPa)
#
#
# Indices 1 2 3 4 5 6 
#
# 1 0.008372 -0.005073 0.000462 0.000000 0.000000 0.000000
# 2 -0.005073 0.029950 -0.009544 0.000000 0.000000 0.000000
# 3 0.000462 -0.009544 0.013466 0.000000 0.000000 0.000000
# 4 0.000000 0.000000 0.000000 0.113038 0.000000 0.000000
# 5 0.000000 0.000000 0.000000 0.000000 0.031490 0.000000
# 6 0.000000 0.000000 0.000000 0.000000 0.000000 0.073613
#
#
# Mechanical properties :
#
#
# Convention : Reuss Voigt Hill
#
# Bulk Modulus (GPa) = 42.58929 48.27249 45.43089
# Shear Modulus (GPa) = 16.33644 24.53418 20.43531
#
# Velocity S-wave (km/s) = 2.96624 3.63507 3.31755
# Velocity P-wave (km/s) = 5.88807 6.60433 6.25646
#
# Compressibility (1/GPa) = 0.02348008
#
# Stress axis : x y z
#
# Youngs Moduli (GPa) = 119.43905 33.38930 74.26100
#
# Poissons Ratio (x) = 0.16938 -0.03434
# Poissons Ratio (y) = 0.60589 0.70873
# Poissons Ratio (z) = -0.05524 0.31866
#
# Static dielectric constant tensor:
#      x y z
#    x 1.742140 0.000000 0.000000 
#    y 0.000000 1.589510 0.000000 
#    z 0.000000 0.000000 1.661750 
# 
# From -- ./inp_files/17067.got.cif
#   From: 2010.05.17/outbox.cif.g08.bks.cpg/sg73_9_cif.got.tgz:17067.got - 2010.06.03 17:35:07.
