data_PCOD9529812
_publ_section_title
;
Structure prediction by ZEFSAII (Michael W. Deem and Ramdas Pophale) SiO2 
 PCOD9529812
Probable space group: I B C A 
;
_chemical_formula_sum "Si O2"
_cell_formula_units_Z 80
_cell_length_a 9.222170
_cell_length_b 20.704384
_cell_length_c 24.868129
_cell_angle_alpha 90.000000
_cell_angle_beta 90.000000
_cell_angle_gamma 90.000000
_cell_volume 4748.304362
_symmetry_space_group_name_H-M "I B C A "
_symmetry_group_IT_number 73
_symmetry_cell_setting 'orthorhombic'
loop_
_space_group_symop_operation_xyz
x,y,z
-x,1/2-y,z
x,-y,1/2-z
1/2-x,y,-z
-x,-y,-z
x,1/2+y,-z
-x,y,1/2+z
1/2+x,-y,z
1/2+x,1/2+y,1/2+z
1/2-x,-y,1/2+z
1/2+x,1/2-y,-z
-x,1/2+y,1/2-z
1/2-x,1/2-y,1/2-z
1/2+x,y,1/2-z
1/2-x,1/2+y,z
x,1/2-y,1/2+z
loop_
_atom_site_type_symbol
_atom_site_label
_atom_site_fract_x
_atom_site_fract_y
_atom_site_fract_z
Si Si1 0.511025 0.500000 0.750000
Si Si2 0.235894 0.042116 0.674878
Si Si3 0.500000 0.250000 0.954809
Si Si4 0.250000 0.338626 0.500000
Si Si5 0.893785 0.876029 0.408916
Si Si6 0.750000 0.544862 0.000000
Si Si7 0.194823 0.058372 0.086557
O O1 0.618482 0.462527 0.709656
O O2 0.400867 0.457703 0.785366
O O3 0.222968 0.102242 0.634830
O O4 0.729047 0.021670 0.636084
O O5 0.388356 0.206373 0.988602
O O6 0.412022 0.300700 0.918535
O O7 0.227128 0.385656 0.448339
O O8 0.853157 0.909726 0.465279
O O9 0.046608 0.909132 0.393674
O O10 0.669025 0.498327 0.957519
#
# Coordination Sequence:
#
# PCOD9529812 Si02
#       7
#     8  16   8   8  16   8  16
#     4  10  20  34  54  80 102 120 168 218 280 310
#     4  10  19  34  54  80 100 130 161 219 271 308
#     4  10  20  34  48  72 106 150 174 198 232 294
#     4   9  19  34  50  74 109 141 172 202 234 305
#     4  10  18  31  49  74 107 139 168 202 248 307
#     4   9  17  26  48  76 105 129 168 204 252 309
#     4   9  17  31  49  77 106 133 160 210 264 300
#
# _framework density 16.848120000000002
#
# number of rings (size 3 to 8) (size 9 to 14) (size 15 to 20)
#    0.000    2.400    2.000    1.200    0.000    1.600 
#    3.600    0.000    0.000    1.200    0.000    0.000 
#    0.000    0.000    0.000    0.000    0.000    0.000 
#
# Total GULP energy -222748.675173 kJ/mol
# GULP energy per Si atom -5568.716879 kJ/mol
# Density = 1.680977 g / cm^3
# Si number density = 16.848120 Si / 1000 Ang^3
#
#
#
# Elastic Constant Matrix: (Units=GPa)
#
#
# Indices 1 2 3 4 5 6 
#
# 1 54.9004 21.8492 25.1228 0.0000 0.0000 0.0000
# 2 21.8492 97.8374 30.7115 0.0000 0.0000 0.0000
# 3 25.1228 30.7115 76.3444 0.0000 0.0000 0.0000
# 4 0.0000 0.0000 0.0000 7.1195 0.0000 0.0000
# 5 0.0000 0.0000 0.0000 0.0000 34.0163 0.0000
# 6 0.0000 0.0000 0.0000 0.0000 0.0000 22.0502
#
#
#
# Elastic Compliance Matrix: (Units=1/GPa)
#
#
# Indices 1 2 3 4 5 6 
#
# 1 0.022212 -0.003051 -0.006082 0.000000 0.000000 0.000000
# 2 -0.003051 0.012117 -0.003870 0.000000 0.000000 0.000000
# 3 -0.006082 -0.003870 0.016657 0.000000 0.000000 0.000000
# 4 0.000000 0.000000 0.000000 0.140458 0.000000 0.000000
# 5 0.000000 0.000000 0.000000 0.000000 0.029398 0.000000
# 6 0.000000 0.000000 0.000000 0.000000 0.000000 0.045351
#
#
# Mechanical properties :
#
#
# Convention : Reuss Voigt Hill
#
# Bulk Modulus (GPa) = 40.03335 42.71658 41.37497
# Shear Modulus (GPa) = 16.63741 22.73046 19.68393
#
# Velocity S-wave (km/s) = 3.14585 3.67705 3.42177
# Velocity P-wave (km/s) = 6.08342 6.59064 6.34211
#
# Compressibility (1/GPa) = 0.02497918
#
# Stress axis : x y z
#
# Youngs Moduli (GPa) = 45.02006 82.52591 60.03515
#
# Poissons Ratio (x) = 0.25181 0.36513
# Poissons Ratio (y) = 0.13737 0.23236
# Poissons Ratio (z) = 0.27381 0.31941
#
# Static dielectric constant tensor:
#      x y z
#    x 1.604930 0.000000 0.000000 
#    y 0.000000 1.552420 0.000000 
#    z 0.000000 0.000000 1.598570 
# 
# From -- ./inp_files/31855.got.cif
#   From: 2010.05.17/outbox.cif.g08.bks.cpg/sg73_16_cif.got.tgz:31855.got - 2010.06.03 17:35:07.
