data_PCOD9529284
_publ_section_title
;
Structure prediction by ZEFSAII (Michael W. Deem and Ramdas Pophale) SiO2 
 PCOD9529284
Probable space group: I B A M
;
_chemical_formula_sum "Si O2"
_cell_formula_units_Z 96
_cell_length_a 29.489709
_cell_length_b 8.981894
_cell_length_c 17.575362
_cell_angle_alpha 90.000000
_cell_angle_beta 90.000000
_cell_angle_gamma 90.000000
_cell_volume 4655.246598
_symmetry_space_group_name_H-M "I B A M"
_symmetry_group_IT_number 72
_symmetry_cell_setting 'orthorhombic'
loop_
_space_group_symop_operation_xyz
x,y,z
-x,-y,z
x,-y,1/2-z
-x,y,1/2-z
-x,-y,-z
x,y,-z
-x,y,1/2+z
x,-y,1/2+z
1/2+x,1/2+y,1/2+z
1/2-x,1/2-y,1/2+z
1/2+x,1/2-y,-z
1/2-x,1/2+y,-z
1/2-x,1/2-y,1/2-z
1/2+x,1/2+y,1/2-z
1/2-x,1/2+y,z
1/2+x,1/2-y,z
loop_
_atom_site_type_symbol
_atom_site_label
_atom_site_fract_x
_atom_site_fract_y
_atom_site_fract_z
Si Si1 0.949106 0.680591 0.840421
Si Si2 0.715546 0.762662 0.679325
Si Si3 0.052156 0.662001 0.156349
Si Si4 0.625876 0.595180 0.321635
Si Si5 0.718119 0.929399 0.909757
Si Si6 0.860014 0.189587 0.089753
O O1 0.939576 0.511015 0.865522
O O2 0.946487 0.674042 0.748099
O O3 0.913038 0.806829 0.861383
O O4 0.000972 0.709641 0.864364
O O5 0.750000 0.750000 0.750000
O O6 0.665954 0.706028 0.703559
O O7 0.736436 0.656190 0.614461
O O8 0.713319 0.926001 0.642975
O O9 0.091316 0.757833 0.119805
O O10 0.607544 0.500000 0.250000
O O11 0.648437 0.470534 0.374137
O O12 0.677597 0.813624 0.892235
O O13 0.717612 0.965224 0.000000
O O14 0.860828 0.175591 0.000000
#
# Coordination Sequence:
#
# PCOD9529284 Si02
#       6
#    16  16  16  16  16  16
#     4   9  19  36  66  90 119 161 208 260 311 367
#     4  12  25  41  65  95 125 160 214 277 323 369
#     4   9  18  39  62  92 120 158 214 256 304 378
#     4  12  23  39  60  92 126 163 209 261 322 383
#     4  11  24  43  65  89 125 174 214 256 323 396
#     4  11  24  41  62  91 130 169 208 260 317 379
#
# _framework density 20.621893
#
# number of rings (size 3 to 8) (size 9 to 14) (size 15 to 20)
#    0.000    1.333    1.667    6.000    0.000    3.333 
#    0.000    4.167    0.000    0.000    0.000    0.000 
#    0.000    0.000    0.000    0.000    0.000    0.000 
#
# Total GULP energy -268255.808255 kJ/mol
# GULP energy per Si atom -5588.662672 kJ/mol
# Density = 2.057496 g / cm^3
# Si number density = 20.621893 Si / 1000 Ang^3
#
#
#
# Elastic Constant Matrix: (Units=GPa)
#
#
# Indices 1 2 3 4 5 6 
#
# 1 85.9734 54.2421 19.9271 0.0000 0.0000 0.0000
# 2 54.2421 120.9308 42.4566 0.0000 0.0000 0.0000
# 3 19.9271 42.4566 60.7584 0.0000 0.0000 0.0000
# 4 0.0000 0.0000 0.0000 28.4053 0.0000 0.0000
# 5 0.0000 0.0000 0.0000 0.0000 19.9352 0.0000
# 6 0.0000 0.0000 0.0000 0.0000 0.0000 36.4972
#
#
#
# Elastic Compliance Matrix: (Units=1/GPa)
#
#
# Indices 1 2 3 4 5 6 
#
# 1 0.016227 -0.007169 -0.000313 0.000000 0.000000 0.000000
# 2 -0.007169 0.014124 -0.007519 0.000000 0.000000 0.000000
# 3 -0.000313 -0.007519 0.021815 0.000000 0.000000 0.000000
# 4 0.000000 0.000000 0.000000 0.035205 0.000000 0.000000
# 5 0.000000 0.000000 0.000000 0.000000 0.050163 0.000000
# 6 0.000000 0.000000 0.000000 0.000000 0.000000 0.027399
#
#
# Mechanical properties :
#
#
# Convention : Reuss Voigt Hill
#
# Bulk Modulus (GPa) = 45.11358 55.65715 50.38537
# Shear Modulus (GPa) = 24.71319 27.03666 25.87492
#
# Velocity S-wave (km/s) = 3.46554 3.62479 3.54606
# Velocity P-wave (km/s) = 6.15933 6.67583 6.42278
#
# Compressibility (1/GPa) = 0.02216627
#
# Stress axis : x y z
#
# Youngs Moduli (GPa) = 61.62667 70.80043 45.83992
#
# Poissons Ratio (x) = 0.50754 0.01434
# Poissons Ratio (y) = 0.44177 0.34465
# Poissons Ratio (z) = 0.01927 0.53232
#
# Static dielectric constant tensor:
#      x y z
#    x 1.739390 0.000000 0.000000 
#    y 0.000000 1.742520 0.000000 
#    z 0.000000 0.000000 1.740320 
# 
# From -- ./inp_files/40710.got.cif
#   From: 2010.05.17/outbox.cif.g08.bks.cpg/sg72_21_cif.got.tgz:40710.got - 2010.06.03 17:03:01.
