data_PCOD9529014
_publ_section_title
;
Structure prediction by ZEFSAII (Michael W. Deem and Ramdas Pophale) SiO2 
 PCOD9529014
Probable space group: I B A M
;
_chemical_formula_sum "Si O2"
_cell_formula_units_Z 80
_cell_length_a 23.256226
_cell_length_b 21.731493
_cell_length_c 10.286290
_cell_angle_alpha 90.000000
_cell_angle_beta 90.000000
_cell_angle_gamma 90.000000
_cell_volume 5198.613948
_symmetry_space_group_name_H-M "I B A M"
_symmetry_group_IT_number 72
_symmetry_cell_setting 'orthorhombic'
loop_
_space_group_symop_operation_xyz
x,y,z
-x,-y,z
x,-y,1/2-z
-x,y,1/2-z
-x,-y,-z
x,y,-z
-x,y,1/2+z
x,-y,1/2+z
1/2+x,1/2+y,1/2+z
1/2-x,1/2-y,1/2+z
1/2+x,1/2-y,-z
1/2-x,1/2+y,-z
1/2-x,1/2-y,1/2-z
1/2+x,1/2+y,1/2-z
1/2-x,1/2+y,z
1/2+x,1/2-y,z
loop_
_atom_site_type_symbol
_atom_site_label
_atom_site_fract_x
_atom_site_fract_y
_atom_site_fract_z
Si Si1 0.256236 0.422996 0.500000
Si Si2 0.106438 0.078859 0.000000
Si Si3 0.108282 0.935717 0.000000
Si Si4 0.249258 0.933919 0.000000
Si Si5 0.567307 0.646634 0.760616
Si Si6 0.336174 0.737442 0.342150
Si Si7 0.270757 0.150206 0.739639
O O1 0.324969 0.422476 0.500000
O O2 0.237080 0.493867 0.500000
O O3 0.237652 0.386902 0.372107
O O4 0.085861 0.114730 0.126757
O O5 0.089863 0.006942 0.000000
O O6 0.083030 0.901433 0.125290
O O7 0.178521 0.929629 0.000000
O O8 0.274727 0.898875 0.875665
O O9 0.500000 0.659814 0.750000
O O10 0.604995 0.706532 0.794656
O O11 0.335066 0.743797 0.500000
O O12 0.321081 0.800872 0.268916
O O13 0.285365 0.690563 0.299196
#
# Coordination Sequence:
#
# PCOD9529014 Si02
#       7
#     8   8   8   8  16  16  16
#     4  11  20  33  53  81 107 134 177 212 260 308
#     4  11  23  33  51  75  99 140 190 221 243 297
#     4  11  21  39  49  67 111 144 174 219 267 285
#     4  11  20  35  55  77 109 138 167 222 258 308
#     4  12  23  36  52  71 100 138 186 224 255 296
#     4  11  21  36  54  73 105 137 175 218 267 306
#     4  11  20  34  55  77 101 139 173 207 267 322
#
# _framework density 15.388717
#
# number of rings (size 3 to 8) (size 9 to 14) (size 15 to 20)
#    0.000    0.800    7.000    1.800    0.000    6.400 
#    0.000    0.000    0.000    0.000    0.000    0.000 
#    0.000    4.800    0.000    0.000    0.000    0.000 
#
# Total GULP energy -223301.035957 kJ/mol
# GULP energy per Si atom -5582.525899 kJ/mol
# Density = 1.535369 g / cm^3
# Si number density = 15.388717 Si / 1000 Ang^3
#
#
#
# Elastic Constant Matrix: (Units=GPa)
#
#
# Indices 1 2 3 4 5 6 
#
# 1 69.0345 64.3067 43.7969 0.0000 0.0000 0.0000
# 2 64.3067 99.0660 50.2085 0.0000 0.0000 0.0000
# 3 43.7969 50.2085 144.2382 0.0000 0.0000 0.0000
# 4 0.0000 0.0000 0.0000 166.2220 0.0000 0.0000
# 5 0.0000 0.0000 0.0000 0.0000 15.9122 0.0000
# 6 0.0000 0.0000 0.0000 0.0000 0.0000 17.8002
#
#
#
# Elastic Compliance Matrix: (Units=1/GPa)
#
#
# Indices 1 2 3 4 5 6 
#
# 1 0.038118 -0.022921 -0.003596 0.000000 0.000000 0.000000
# 2 -0.022921 0.026040 -0.002104 0.000000 0.000000 0.000000
# 3 -0.003596 -0.002104 0.008757 0.000000 0.000000 0.000000
# 4 0.000000 0.000000 0.000000 0.006016 0.000000 0.000000
# 5 0.000000 0.000000 0.000000 0.000000 0.062845 0.000000
# 6 0.000000 0.000000 0.000000 0.000000 0.000000 0.056179
#
#
# Mechanical properties :
#
#
# Convention : Reuss Voigt Hill
#
# Bulk Modulus (GPa) = 63.80538 69.88477 66.84508
# Shear Modulus (GPa) = 19.19960 50.25532 34.72746
#
# Velocity S-wave (km/s) = 3.53603 5.72085 4.75561
# Velocity P-wave (km/s) = 7.63045 9.44188 8.58408
#
# Compressibility (1/GPa) = 0.01567266
#
# Stress axis : x y z
#
# Youngs Moduli (GPa) = 26.23414 38.40271 114.19102
#
# Poissons Ratio (x) = 0.88025 0.41058
# Poissons Ratio (y) = 0.60132 0.24030
# Poissons Ratio (z) = 0.09433 0.08081
#
# Static dielectric constant tensor:
#      x y z
#    x 1.492530 0.000000 0.000000 
#    y 0.000000 1.519570 0.000000 
#    z 0.000000 0.000000 1.596090 
# 
# From -- ./inp_files/5730.got.cif
#   From: 2010.05.17/outbox.cif.g08.bks.cpg/sg72_3_cif.got.tgz:5730.got - 2010.06.03 17:03:01.
