data_PCOD9529767
_publ_section_title
;
Structure prediction by ZEFSAII (Michael W. Deem and Ramdas Pophale) SiO2 
 PCOD9529767
Probable space group: I B C A 
;
_chemical_formula_sum "Si O2"
_cell_formula_units_Z 64
_cell_length_a 32.185038
_cell_length_b 13.737606
_cell_length_c 5.346146
_cell_angle_alpha 90.000000
_cell_angle_beta 90.000000
_cell_angle_gamma 90.000000
_cell_volume 2363.773707
_symmetry_space_group_name_H-M "I B C A "
_symmetry_group_IT_number 73
_symmetry_cell_setting 'orthorhombic'
loop_
_space_group_symop_operation_xyz
x,y,z
-x,1/2-y,z
x,-y,1/2-z
1/2-x,y,-z
-x,-y,-z
x,1/2+y,-z
-x,y,1/2+z
1/2+x,-y,z
1/2+x,1/2+y,1/2+z
1/2-x,-y,1/2+z
1/2+x,1/2-y,-z
-x,1/2+y,1/2-z
1/2-x,1/2-y,1/2-z
1/2+x,y,1/2-z
1/2-x,1/2+y,z
x,1/2-y,1/2+z
loop_
_atom_site_type_symbol
_atom_site_label
_atom_site_fract_x
_atom_site_fract_y
_atom_site_fract_z
Si Si1 0.635021 0.113726 0.943481
Si Si2 0.727495 0.883709 0.747002
Si Si3 0.605750 0.109909 0.447857
Si Si4 0.984400 0.638189 0.206625
O O1 0.678691 0.128686 0.804087
O O2 0.603935 0.152655 0.728868
O O3 0.635926 0.151263 0.229401
O O4 0.621568 0.000775 0.997832
O O5 0.750000 0.847405 0.500000
O O6 0.732890 0.000000 0.750000
O O7 0.750000 0.850962 0.000000
O O8 0.561184 0.122241 0.319092
O O9 0.000000 0.750000 0.173102
O O10 0.013278 0.596614 0.427373
#
# Coordination Sequence:
#
# PCOD9529767 Si02
#       4
#    16  16  16  16
#     4  10  19  32  46  73 109 142 175 205 254 317
#     4  10  18  26  43  66 100 149 181 196 232 291
#     4  10  19  32  50  70 100 138 172 216 260 312
#     4  10  21  38  56  73  94 128 173 228 277 317
#
# _framework density 27.075351999999999
#
# number of rings (size 3 to 8) (size 9 to 14) (size 15 to 20)
#    0.000    2.000    2.500    3.000    7.000    0.000 
#    0.000   15.000    0.000    0.000    0.000    0.000 
#    0.000    0.000    0.000  477.000    0.000    0.000 
#
# Total GULP energy -178655.030131 kJ/mol
# GULP energy per Si atom -5582.969692 kJ/mol
# Density = 2.701373 g / cm^3
# Si number density = 27.075352 Si / 1000 Ang^3
#
#
#
# Elastic Constant Matrix: (Units=GPa)
#
#
# Indices 1 2 3 4 5 6 
#
# 1 156.1977 8.8683 64.5326 0.0001 0.0001 0.0000
# 2 8.8683 121.6871 -26.0308 0.0001 0.0000 0.0001
# 3 64.5326 -26.0308 294.1883 0.0003 -0.0002 0.0007
# 4 0.0001 0.0001 0.0003 -63.4041 0.0000 0.0001
# 5 0.0001 0.0000 -0.0002 0.0000 63.6577 0.0002
# 6 0.0000 0.0001 0.0007 0.0001 0.0002 -13.3320
#
#
#
# Elastic Compliance Matrix: (Units=1/GPa)
#
#
# Indices 1 2 3 4 5 6 
#
# 1 0.007130 -0.000871 -0.001641 0.000000 0.000000 0.000000
# 2 -0.000871 0.008483 0.000942 0.000000 0.000000 0.000000
# 3 -0.001641 0.000942 0.003842 0.000000 0.000000 0.000000
# 4 0.000000 0.000000 0.000000 -0.015772 0.000000 0.000000
# 5 0.000000 0.000000 0.000000 0.000000 0.015709 0.000000
# 6 0.000000 0.000000 0.000000 0.000000 0.000000 -0.075008
#
#
# Mechanical properties :
#
#
# Convention : Reuss Voigt Hill
#
# Bulk Modulus (GPa) = 61.29475 74.09035 67.69255
# Shear Modulus (GPa) = -106.29789 32.36452 -36.96668
#
# Velocity S-wave (km/s) = -6.27258 3.46113 -3.69904
# Velocity P-wave (km/s) = 5.45643 6.58760 2.60997
#
# Compressibility (1/GPa) = 0.01631461
#
# Stress axis : x y z
#
# Youngs Moduli (GPa) = 140.26170 117.88759 260.25044
#
# Poissons Ratio (x) = 0.10263 0.42706
# Poissons Ratio (y) = 0.12211 -0.24504
# Poissons Ratio (z) = 0.23016 -0.11100
#
# Static dielectric constant tensor:
#      x y z
#    x 2.243440 0.000000 0.000000 
#    y 0.000000 2.419350 0.000000 
#    z 0.000000 0.000000 2.234690 
# 
# From -- ./inp_files/2506.got.cif
#   From: 2010.05.17/outbox.cif.g08.bks.cpg/sg73_2_cif.got.tgz:2506.got - 2010.06.03 17:35:07.
