data_PCOD9529186
_publ_section_title
;
Structure prediction by ZEFSAII (Michael W. Deem and Ramdas Pophale) SiO2 
 PCOD9529186
Probable space group: I B A M
;
_chemical_formula_sum "Si O2"
_cell_formula_units_Z 80
_cell_length_a 20.900097
_cell_length_b 13.709851
_cell_length_c 14.036468
_cell_angle_alpha 90.000000
_cell_angle_beta 90.000000
_cell_angle_gamma 90.000000
_cell_volume 4021.970460
_symmetry_space_group_name_H-M "I B A M"
_symmetry_group_IT_number 72
_symmetry_cell_setting 'orthorhombic'
loop_
_space_group_symop_operation_xyz
x,y,z
-x,-y,z
x,-y,1/2-z
-x,y,1/2-z
-x,-y,-z
x,y,-z
-x,y,1/2+z
x,-y,1/2+z
1/2+x,1/2+y,1/2+z
1/2-x,1/2-y,1/2+z
1/2+x,1/2-y,-z
1/2-x,1/2+y,-z
1/2-x,1/2-y,1/2-z
1/2+x,1/2+y,1/2-z
1/2-x,1/2+y,z
1/2+x,1/2-y,z
loop_
_atom_site_type_symbol
_atom_site_label
_atom_site_fract_x
_atom_site_fract_y
_atom_site_fract_z
Si Si1 0.300258 0.005452 0.106016
Si Si2 0.261868 0.362892 0.253584
Si Si3 0.912005 0.886745 0.262741
Si Si4 0.556579 0.058664 0.350603
Si Si5 0.000356 0.773527 0.886944
O O1 0.255669 0.092045 0.144322
O O2 0.372741 0.045335 0.108607
O O3 0.284914 0.918245 0.179379
O O4 0.284477 0.974125 0.000000
O O5 0.250000 0.250000 0.250000
O O6 0.335894 0.381111 0.233041
O O7 0.943313 0.848565 0.360187
O O8 0.942162 0.816799 0.178798
O O9 0.929024 0.000000 0.250000
O O10 0.529687 0.169094 0.352329
O O11 0.500000 0.000000 0.401029
O O12 0.562815 0.000000 0.250000
O O13 0.986132 0.768863 0.000000
#
# Coordination Sequence:
#
# PCOD9529186 Si02
#       5
#    16  16  16  16  16
#     4  11  24  43  66 100 135 176 226 276 335 405
#     4  11  24  44  68  95 136 182 223 276 337 405
#     4  11  23  44  66  95 136 179 225 278 341 398
#     4  11  22  41  69  97 136 174 212 273 340 398
#     4  11  25  41  67 102 132 175 228 280 335 399
#
# _framework density 19.890747999999999
#
# number of rings (size 3 to 8) (size 9 to 14) (size 15 to 20)
#    0.000    1.000    4.000    5.400    2.800    5.600 
#    0.000    0.000    0.000    0.000    0.000    0.000 
#    0.000    0.000    0.000    0.000    0.000    0.000 
#
# Total GULP energy -222937.626437 kJ/mol
# GULP energy per Si atom -5573.440661 kJ/mol
# Density = 1.984548 g / cm^3
# Si number density = 19.890748 Si / 1000 Ang^3
#
#
#
# Elastic Constant Matrix: (Units=GPa)
#
#
# Indices 1 2 3 4 5 6 
#
# 1 86.1510 15.9868 -5.2773 0.0000 0.0000 0.0000
# 2 15.9868 174.3265 20.9459 0.0000 0.0000 0.0000
# 3 -5.2773 20.9459 117.8512 0.0000 0.0000 0.0000
# 4 0.0000 0.0000 0.0000 -9.6883 0.0000 0.0000
# 5 0.0000 0.0000 0.0000 0.0000 -255.9823 0.0000
# 6 0.0000 0.0000 0.0000 0.0000 0.0000 34.7950
#
#
#
# Elastic Compliance Matrix: (Units=1/GPa)
#
#
# Indices 1 2 3 4 5 6 
#
# 1 0.011871 -0.001178 0.000741 0.000000 0.000000 0.000000
# 2 -0.001178 0.005978 -0.001115 0.000000 0.000000 0.000000
# 3 0.000741 -0.001115 0.008717 0.000000 0.000000 0.000000
# 4 0.000000 0.000000 0.000000 -0.103218 0.000000 0.000000
# 5 0.000000 0.000000 0.000000 0.000000 -0.003907 0.000000
# 6 0.000000 0.000000 0.000000 0.000000 0.000000 0.028740
#
#
# Mechanical properties :
#
#
# Convention : Reuss Voigt Hill
#
# Bulk Modulus (GPa) = 42.62148 49.07104 45.84626
# Shear Modulus (GPa) = -122.27006 -23.06354 -72.66680
#
# Velocity S-wave (km/s) = -7.84884 -3.40885 -6.05081
# Velocity P-wave (km/s) = 7.78876 3.03811 5.07122
#
# Compressibility (1/GPa) = 0.02346235
#
# Stress axis : x y z
#
# Youngs Moduli (GPa) = 84.23566 167.26973 114.72267
#
# Poissons Ratio (x) = 0.19699 -0.08500
# Poissons Ratio (y) = 0.09920 0.12795
# Poissons Ratio (z) = -0.06241 0.18655
#
# Static dielectric constant tensor:
#      x y z
#    x 1.720650 0.000000 0.000000 
#    y 0.000000 1.724100 0.000000 
#    z 0.000000 0.000000 1.734180 
# 
# From -- ./inp_files/24898.got.cif
#   From: 2010.05.17/outbox.cif.g08.bks.cpg/sg72_13_cif.got.tgz:24898.got - 2010.06.03 17:03:01.
