data_PCOD9529829
_publ_section_title
;
Structure prediction by ZEFSAII (Michael W. Deem and Ramdas Pophale) SiO2 
 PCOD9529829
Probable space group: I B C A 
;
_chemical_formula_sum "Si O2"
_cell_formula_units_Z 80
_cell_length_a 8.819787
_cell_length_b 16.905648
_cell_length_c 23.628545
_cell_angle_alpha 90.000000
_cell_angle_beta 90.000000
_cell_angle_gamma 90.000000
_cell_volume 3523.115641
_symmetry_space_group_name_H-M "I B C A "
_symmetry_group_IT_number 73
_symmetry_cell_setting 'orthorhombic'
loop_
_space_group_symop_operation_xyz
x,y,z
-x,1/2-y,z
x,-y,1/2-z
1/2-x,y,-z
-x,-y,-z
x,1/2+y,-z
-x,y,1/2+z
1/2+x,-y,z
1/2+x,1/2+y,1/2+z
1/2-x,-y,1/2+z
1/2+x,1/2-y,-z
-x,1/2+y,1/2-z
1/2-x,1/2-y,1/2-z
1/2+x,y,1/2-z
1/2-x,1/2+y,z
x,1/2-y,1/2+z
loop_
_atom_site_type_symbol
_atom_site_label
_atom_site_fract_x
_atom_site_fract_y
_atom_site_fract_z
Si Si1 0.624087 0.138069 0.177174
Si Si2 0.250000 0.274473 0.000000
Si Si3 0.828270 0.224885 0.621394
Si Si4 0.250000 0.957904 0.500000
Si Si5 0.953426 0.409793 0.442926
Si Si6 0.797085 0.836836 0.224631
O O1 0.708573 0.209078 0.143240
O O2 0.565499 0.088559 0.124361
O O3 0.741572 0.107443 0.224321
O O4 0.474225 0.160208 0.212343
O O5 0.310711 0.225104 0.946305
O O6 0.121867 0.333554 0.974056
O O7 0.787118 0.153873 0.664178
O O8 0.000000 0.250000 0.633622
O O9 0.372097 0.913817 0.461139
O O10 0.141650 0.015147 0.463911
O O11 0.750000 0.750000 0.250000
#
# Coordination Sequence:
#
# PCOD9529829 Si02
#       6
#    16   8  16   8  16  16
#     4  10  20  34  52  77 107 143 190 223 257 316
#     4   9  20  32  47  80 114 138 179 224 262 323
#     4  10  19  31  48  72 110 152 183 218 257 302
#     4   9  18  38  63  80 102 130 167 224 300 345
#     4   9  19  36  58  82 104 133 173 227 282 336
#     4  10  18  32  51  72 106 149 181 209 247 300
#
# _framework density 22.707173999999998
#
# number of rings (size 3 to 8) (size 9 to 14) (size 15 to 20)
#    0.000    2.400    0.000    4.800    0.000    4.800 
#    0.000    4.000    0.000    3.600    0.000    0.000 
#    0.000    0.000    0.000    0.000    0.000    0.000 
#
# Total GULP energy -223006.783972 kJ/mol
# GULP energy per Si atom -5575.169599 kJ/mol
# Density = 2.265549 g / cm^3
# Si number density = 22.707174 Si / 1000 Ang^3
#
#
#
# Elastic Constant Matrix: (Units=GPa)
#
#
# Indices 1 2 3 4 5 6 
#
# 1 180.6714 22.6288 68.3297 0.0000 0.0000 0.0000
# 2 22.6288 20.1170 20.6828 0.0000 0.0000 0.0000
# 3 68.3297 20.6828 206.8851 0.0000 0.0000 0.0000
# 4 0.0000 0.0000 0.0000 8.8512 0.0000 0.0000
# 5 0.0000 0.0000 0.0000 0.0000 53.2713 0.0000
# 6 0.0000 0.0000 0.0000 0.0000 0.0000 9.2131
#
#
#
# Elastic Compliance Matrix: (Units=1/GPa)
#
#
# Indices 1 2 3 4 5 6 
#
# 1 0.006931 -0.006066 -0.001683 0.000000 0.000000 0.000000
# 2 -0.006066 0.060713 -0.004066 0.000000 0.000000 0.000000
# 3 -0.001683 -0.004066 0.005796 0.000000 0.000000 0.000000
# 4 0.000000 0.000000 0.000000 0.112979 0.000000 0.000000
# 5 0.000000 0.000000 0.000000 0.000000 0.018772 0.000000
# 6 0.000000 0.000000 0.000000 0.000000 0.000000 0.108542
#
#
# Mechanical properties :
#
#
# Convention : Reuss Voigt Hill
#
# Bulk Modulus (GPa) = 20.07631 70.10624 45.09128
# Shear Modulus (GPa) = 14.12563 34.00261 24.06412
#
# Velocity S-wave (km/s) = 2.49686 3.87387 3.25892
# Velocity P-wave (km/s) = 4.14403 7.13795 5.83623
#
# Compressibility (1/GPa) = 0.04980994
#
# Stress axis : x y z
#
# Youngs Moduli (GPa) = 144.27660 16.47082 172.53699
#
# Poissons Ratio (x) = 0.09992 0.29033
# Poissons Ratio (y) = 0.87525 0.70154
# Poissons Ratio (z) = 0.24278 0.06697
#
# Static dielectric constant tensor:
#      x y z
#    x 1.731950 0.000000 0.000000 
#    y 0.000000 1.961980 0.000000 
#    z 0.000000 0.000000 1.946110 
# 
# From -- ./inp_files/6392.got.cif
#   From: 2010.05.17/outbox.cif.g08.bks.cpg/sg73_4_cif.got.tgz:6392.got - 2010.06.03 17:35:07.
