data_PCOD9529535
_publ_section_title
;
Structure prediction by ZEFSAII (Michael W. Deem and Ramdas Pophale) SiO2 
 PCOD9529535
Probable space group: I B A M
;
_chemical_formula_sum "Si O2"
_cell_formula_units_Z 58
_cell_length_a 24.000000
_cell_length_b 27.000000
_cell_length_c 9.000000
_cell_angle_alpha 90.000000
_cell_angle_beta 90.000000
_cell_angle_gamma 90.000000
_cell_volume 5832.000000
_symmetry_space_group_name_H-M "I B A M"
_symmetry_group_IT_number 72
_symmetry_cell_setting 'orthorhombic'
loop_
_space_group_symop_operation_xyz
x,y,z
-x,-y,z
x,-y,1/2-z
-x,y,1/2-z
-x,-y,-z
x,y,-z
-x,y,1/2+z
x,-y,1/2+z
1/2+x,1/2+y,1/2+z
1/2-x,1/2-y,1/2+z
1/2+x,1/2-y,-z
1/2-x,1/2+y,-z
1/2-x,1/2-y,1/2-z
1/2+x,1/2+y,1/2-z
1/2-x,1/2+y,z
1/2+x,1/2-y,z
loop_
_atom_site_type_symbol
_atom_site_label
_atom_site_fract_x
_atom_site_fract_y
_atom_site_fract_z
Si Si1 0.752595 0.695351 0.319856
Si Si2 0.677751 0.553069 0.673621
Si Si3 0.855909 0.145612 0.822620
Si Si4 0.803501 0.447553 0.173806
Si Si5 0.559376 0.727612 0.177551
Si Si6 0.500000 0.000000 0.750000
Si Si7 0.878480 0.325923 0.822826
Si Si8 0.084460 0.586231 0.330860
O O1 0.750570 0.696864 0.500000
O O2 0.750000 0.750000 0.250000
O O3 0.698224 0.669351 0.253971
O O4 0.812909 0.671069 0.278463
O O5 0.675909 0.500000 0.750000
O O6 0.664653 0.549581 0.500000
O O7 0.639604 0.590514 0.762246
O O8 0.741548 0.573926 0.682786
O O9 0.909938 0.177098 0.782058
O O10 0.848332 0.147110 0.000000
O O11 0.795799 0.500000 0.250000
O O12 0.856113 0.427382 0.261001
O O13 0.818460 0.450686 0.000000
O O14 0.500000 0.733521 0.250000
O O15 0.600970 0.771734 0.219962
O O16 0.553485 0.729614 0.000000
O O17 0.457507 0.960279 0.823372
O O18 0.925024 0.364019 0.761718
O O19 0.878220 0.331788 0.000000
O O20 0.090647 0.600384 0.500000
#
# Coordination Sequence:
#
# PCOD9529535 Si02
#       8
#    16  16  16  16  16   4  16  16
#     4  11  21  37  62  94 130 166 204 254 316 381
#     4  10  21  37  60  94 128 163 200 243 299 362
#     4  11  22  39  62  92 129 167 205 252 307 370
#     4  10  20  36  58  83 116 152 192 242 296 359
#     4  10  23  43  63  88 122 163 206 252 305 362
#     4  12  30  48  60  82 118 156 214 280 330 376
#     4  10  23  43  63  88 125 160 198 258 319 372
#     4  12  26  42  62  84 109 151 206 259 317 374
#
# _framework density 9.9451300000000007
#
# number of rings (size 3 to 8) (size 9 to 14) (size 15 to 20)
#    0.000    1.379    2.069    3.103    0.966    9.379 
#    0.000    0.000    0.000    0.414    0.000    2.897 
#    0.000    0.000    0.000    0.000    0.000    0.000 
#
# Total GULP energy -323265.433223 kJ/mol
# GULP energy per Si atom -5573.541952 kJ/mol
# Density = 0.992249 g / cm^3
# Si number density = 9.945130 Si / 1000 Ang^3
#
#
#
# Elastic Constant Matrix: (Units=GPa)
#
#
# Indices 1 2 3 4 5 6 
#
# 1 30.0353 -17.9446 13.9714 0.0000 0.0000 0.0000
# 2 -17.9446 34.9950 5.3852 0.0000 0.0000 0.0000
# 3 13.9714 5.3852 23.5564 0.0000 0.0000 0.0000
# 4 0.0000 0.0000 0.0000 25.3531 0.0000 0.0000
# 5 0.0000 0.0000 0.0000 0.0000 11.9892 0.0000
# 6 0.0000 0.0000 0.0000 0.0000 0.0000 22.2889
#
#
#
# Elastic Compliance Matrix: (Units=1/GPa)
#
#
# Indices 1 2 3 4 5 6 
#
# 1 0.117445 0.073529 -0.086466 0.000000 0.000000 0.000000
# 2 0.073529 0.075652 -0.060905 0.000000 0.000000 0.000000
# 3 -0.086466 -0.060905 0.107658 0.000000 0.000000 0.000000
# 4 0.000000 0.000000 0.000000 0.039443 0.000000 0.000000
# 5 0.000000 0.000000 0.000000 0.000000 0.083409 0.000000
# 6 0.000000 0.000000 0.000000 0.000000 0.000000 0.044865
#
#
# Mechanical properties :
#
#
# Convention : Reuss Voigt Hill
#
# Bulk Modulus (GPa) = 6.53295 10.15675 8.34485
# Shear Modulus (GPa) = 7.49424 17.73788 12.61606
#
# Velocity S-wave (km/s) = 1.94319 2.98952 2.52123
# Velocity P-wave (km/s) = 2.88553 4.12720 3.56090
#
# Compressibility (1/GPa) = 0.15307013
#
# Stress axis : x y z
#
# Youngs Moduli (GPa) = 8.51464 13.21848 9.28868
#
# Poissons Ratio (x) = -0.97194 0.80316
# Poissons Ratio (y) = -0.62607 0.56573
# Poissons Ratio (z) = 0.73623 0.80507
#
# Static dielectric constant tensor:
#      x y z
#    x 1.701310 0.000000 0.000000 
#    y 0.000000 1.738990 0.000000 
#    z 0.000000 0.000000 1.619580 
# 
# From -- ./inp_files/7292.got.cif
#   From: 2010.05.17/outbox.ucp.g08.bks.cvg/sg72_4_cif.got.tgz:7292.got - 2010.06.11 16:33:07.
