data_PCOD9529181
_publ_section_title
;
Structure prediction by ZEFSAII (Michael W. Deem and Ramdas Pophale) SiO2 
 PCOD9529181
Probable space group: I B A M
;
_chemical_formula_sum "Si O2"
_cell_formula_units_Z 96
_cell_length_a 7.375857
_cell_length_b 19.650567
_cell_length_c 22.937369
_cell_angle_alpha 90.000000
_cell_angle_beta 90.000000
_cell_angle_gamma 90.000000
_cell_volume 3324.537037
_symmetry_space_group_name_H-M "I B A M"
_symmetry_group_IT_number 72
_symmetry_cell_setting 'orthorhombic'
loop_
_space_group_symop_operation_xyz
x,y,z
-x,-y,z
x,-y,1/2-z
-x,y,1/2-z
-x,-y,-z
x,y,-z
-x,y,1/2+z
x,-y,1/2+z
1/2+x,1/2+y,1/2+z
1/2-x,1/2-y,1/2+z
1/2+x,1/2-y,-z
1/2-x,1/2+y,-z
1/2-x,1/2-y,1/2-z
1/2+x,1/2+y,1/2-z
1/2-x,1/2+y,z
1/2+x,1/2-y,z
loop_
_atom_site_type_symbol
_atom_site_label
_atom_site_fract_x
_atom_site_fract_y
_atom_site_fract_z
Si Si1 0.244274 0.019078 0.436025
Si Si2 0.794637 0.662447 0.775939
Si Si3 0.984418 0.647676 0.934682
Si Si4 0.712704 0.016493 0.813318
Si Si5 0.924543 0.160789 0.936186
Si Si6 0.217447 0.804027 0.343412
O O1 0.242622 0.986157 0.500000
O O2 0.574139 0.932279 0.432416
O O3 0.223297 0.983509 0.373678
O O4 0.091577 0.078690 0.436926
O O5 0.769902 0.598022 0.817164
O O6 0.757603 0.730966 0.811610
O O7 0.686417 0.652470 0.715614
O O8 0.000000 0.664757 0.750000
O O9 0.113855 0.670676 0.882743
O O10 0.786234 0.682997 0.931937
O O11 0.058732 0.659768 0.000000
O O12 0.500000 0.000000 0.809717
O O13 0.791163 0.000000 0.750000
O O14 0.048639 0.187923 0.885676
O O15 0.991389 0.181986 0.000000
#
# Coordination Sequence:
#
# PCOD9529181 Si02
#       6
#    16  16  16  16  16  16
#     4   8  18  39  69 108 151 181 244 315 361 447
#     4  11  25  44  60 111 144 187 267 305 376 449
#     4   8  17  36  70 112 154 193 242 299 366 469
#     4  11  22  40  75  99 136 201 254 323 367 440
#     4   8  18  38  71 114 156 197 240 295 376 473
#     4  11  22  40  75 101 159 200 227 311 383 472
#
# _framework density 28.876200999999998
#
# number of rings (size 3 to 8) (size 9 to 14) (size 15 to 20)
#    1.000    1.500    1.667    1.500    0.000    3.000 
#    0.000    4.167    0.000   10.000    0.000    2.333 
#    0.000    0.000    0.000    0.000    0.000    0.000 
#
# Total GULP energy -269055.480027 kJ/mol
# GULP energy per Si atom -5605.322501 kJ/mol
# Density = 2.881048 g / cm^3
# Si number density = 28.876201 Si / 1000 Ang^3
#
#
#
# Elastic Constant Matrix: (Units=GPa)
#
#
# Indices 1 2 3 4 5 6 
#
# 1 142.7945 32.9509 87.2061 0.0000 0.0000 0.0000
# 2 32.9509 99.7312 48.8727 0.0000 0.0000 0.0000
# 3 87.2061 48.8727 359.4340 0.0000 0.0000 0.0000
# 4 0.0000 0.0000 0.0000 46.2631 0.0000 0.0000
# 5 0.0000 0.0000 0.0000 0.0000 54.8608 0.0000
# 6 0.0000 0.0000 0.0000 0.0000 0.0000 30.0252
#
#
#
# Elastic Compliance Matrix: (Units=1/GPa)
#
#
# Indices 1 2 3 4 5 6 
#
# 1 0.008557 -0.001939 -0.001813 0.000000 0.000000 0.000000
# 2 -0.001939 0.011182 -0.001050 0.000000 0.000000 0.000000
# 3 -0.001813 -0.001050 0.003365 0.000000 0.000000 0.000000
# 4 0.000000 0.000000 0.000000 0.021615 0.000000 0.000000
# 5 0.000000 0.000000 0.000000 0.000000 0.018228 0.000000
# 6 0.000000 0.000000 0.000000 0.000000 0.000000 0.033305
#
#
# Mechanical properties :
#
#
# Convention : Reuss Voigt Hill
#
# Bulk Modulus (GPa) = 74.06860 104.44659 89.25759
# Shear Modulus (GPa) = 45.30759 55.09183 50.19971
#
# Velocity S-wave (km/s) = 3.96539 4.37265 4.17399
# Velocity P-wave (km/s) = 6.83168 7.85763 7.36255
#
# Compressibility (1/GPa) = 0.01350100
#
# Stress axis : x y z
#
# Youngs Moduli (GPa) = 116.85672 89.42810 297.20481
#
# Poissons Ratio (x) = 0.17341 0.53870
# Poissons Ratio (y) = 0.22660 0.31206
# Poissons Ratio (z) = 0.21181 0.09390
#
# Static dielectric constant tensor:
#      x y z
#    x 2.340120 0.000000 0.000000 
#    y 0.000000 2.360240 0.000000 
#    z 0.000000 0.000000 2.198400 
# 
# From -- ./inp_files/43344.got.cif
#   From: 2010.05.17/outbox.cif.g08.bks.cpg/sg72_22_cif.got.tgz:43344.got - 2010.06.03 17:03:01.
