data_PCOD9529716
_publ_section_title
;
Structure prediction by ZEFSAII (Michael W. Deem and Ramdas Pophale) SiO2 
 PCOD9529716
Probable space group: I B C A 
;
_chemical_formula_sum "Si O2"
_cell_formula_units_Z 88
_cell_length_a 10.406362
_cell_length_b 17.787175
_cell_length_c 17.771259
_cell_angle_alpha 90.000000
_cell_angle_beta 90.000000
_cell_angle_gamma 90.000000
_cell_volume 3289.456167
_symmetry_space_group_name_H-M "I B C A "
_symmetry_group_IT_number 73
_symmetry_cell_setting 'orthorhombic'
loop_
_space_group_symop_operation_xyz
x,y,z
-x,1/2-y,z
x,-y,1/2-z
1/2-x,y,-z
-x,-y,-z
x,1/2+y,-z
-x,y,1/2+z
1/2+x,-y,z
1/2+x,1/2+y,1/2+z
1/2-x,-y,1/2+z
1/2+x,1/2-y,-z
-x,1/2+y,1/2-z
1/2-x,1/2-y,1/2-z
1/2+x,y,1/2-z
1/2-x,1/2+y,z
x,1/2-y,1/2+z
loop_
_atom_site_type_symbol
_atom_site_label
_atom_site_fract_x
_atom_site_fract_y
_atom_site_fract_z
Si Si1 0.657766 0.275144 0.181442
Si Si2 0.189852 0.929375 0.720089
Si Si3 0.750000 0.316756 0.500000
Si Si4 0.652496 0.965261 0.070316
Si Si5 0.362876 0.887194 0.861278
Si Si6 0.601405 0.299038 0.922701
O O1 0.750000 0.250000 0.250000
O O2 0.606458 0.355642 0.210094
O O3 0.591115 0.198911 0.153014
O O4 0.761238 0.298769 0.118164
O O5 0.257851 0.951579 0.642992
O O6 0.297972 0.912495 0.783246
O O7 0.110515 0.000000 0.750000
O O8 0.756854 0.367326 0.425903
O O9 0.870693 0.260958 0.510884
O O10 0.574659 0.886251 0.059781
O O11 0.573092 0.040420 0.096171
O O12 0.750000 0.973999 0.000000
O O13 0.500000 0.250000 0.874349
#
# Coordination Sequence:
#
# PCOD9529716 Si02
#       6
#    16  16   8  16  16  16
#     4   8  15  29  51  78 102 141 188 228 289 357
#     4   8  15  26  46  79 104 136 183 232 289 351
#     4  10  18  32  54  76 104 146 192 240 298 366
#     4  10  17  30  51  78 106 147 195 236 297 359
#     4   9  16  28  50  78 104 141 192 237 288 360
#     4  10  20  33  52  80 112 149 194 249 302 366
#
# _framework density 26.752141999999999
#
# number of rings (size 3 to 8) (size 9 to 14) (size 15 to 20)
#    0.000    2.909    1.818    0.000    0.000    0.000 
#    0.000    0.909    0.000   17.455    0.000  106.909 
#    0.000    0.000    0.000    0.000    0.000    0.000 
#
# Total GULP energy -244958.707256 kJ/mol
# GULP energy per Si atom -5567.243347 kJ/mol
# Density = 2.669125 g / cm^3
# Si number density = 26.752142 Si / 1000 Ang^3
#
#
#
# Elastic Constant Matrix: (Units=GPa)
#
#
# Indices 1 2 3 4 5 6 
#
# 1 34.8557 32.0329 -5.3998 0.0000 0.0000 0.0000
# 2 32.0329 286.5166 29.2829 0.0000 0.0000 0.0000
# 3 -5.3998 29.2829 153.4073 0.0000 0.0000 0.0000
# 4 0.0000 0.0000 0.0000 30.9063 0.0000 0.0000
# 5 0.0000 0.0000 0.0000 0.0000 3.2620 0.0000
# 6 0.0000 0.0000 0.0000 0.0000 0.0000 13.8884
#
#
#
# Elastic Compliance Matrix: (Units=1/GPa)
#
#
# Indices 1 2 3 4 5 6 
#
# 1 0.032495 -0.003824 0.001874 0.000000 0.000000 0.000000
# 2 -0.003824 0.004010 -0.000900 0.000000 0.000000 0.000000
# 3 0.001874 -0.000900 0.006756 0.000000 0.000000 0.000000
# 4 0.000000 0.000000 0.000000 0.032356 0.000000 0.000000
# 5 0.000000 0.000000 0.000000 0.000000 0.306563 0.000000
# 6 0.000000 0.000000 0.000000 0.000000 0.000000 0.072002
#
#
# Mechanical properties :
#
#
# Convention : Reuss Voigt Hill
#
# Bulk Modulus (GPa) = 26.62442 65.17907 45.90174
# Shear Modulus (GPa) = 10.58417 37.53559 24.05988
#
# Velocity S-wave (km/s) = 1.99122 3.74984 3.00219
# Velocity P-wave (km/s) = 3.90647 6.57004 5.40490
#
# Compressibility (1/GPa) = 0.03755950
#
# Stress axis : x y z
#
# Youngs Moduli (GPa) = 30.77426 249.39136 148.00891
#
# Poissons Ratio (x) = 0.95379 -0.27734
# Poissons Ratio (y) = 0.11769 0.13321
# Poissons Ratio (z) = -0.05767 0.22446
#
# Static dielectric constant tensor:
#      x y z
#    x 2.364500 0.000000 0.000000 
#    y 0.000000 2.218120 0.000000 
#    z 0.000000 0.000000 2.185520 
# 
# From -- ./inp_files/22448.got.cif
#   From: 2010.05.17/outbox.cif.g08.bks.cpg/sg73_12_cif.got.tgz:22448.got - 2010.06.03 17:35:07.
