data_PCOD9529613
_publ_section_title
;
Structure prediction by ZEFSAII (Michael W. Deem and Ramdas Pophale) SiO2 
 PCOD9529613
Probable space group: I B C A 
;
_chemical_formula_sum "Si O2"
_cell_formula_units_Z 64
_cell_length_a 34.963277
_cell_length_b 5.354682
_cell_length_c 13.379724
_cell_angle_alpha 90.000000
_cell_angle_beta 90.000000
_cell_angle_gamma 90.000000
_cell_volume 2504.914866
_symmetry_space_group_name_H-M "I B C A "
_symmetry_group_IT_number 73
_symmetry_cell_setting 'orthorhombic'
loop_
_space_group_symop_operation_xyz
x,y,z
-x,1/2-y,z
x,-y,1/2-z
1/2-x,y,-z
-x,-y,-z
x,1/2+y,-z
-x,y,1/2+z
1/2+x,-y,z
1/2+x,1/2+y,1/2+z
1/2-x,-y,1/2+z
1/2+x,1/2-y,-z
-x,1/2+y,1/2-z
1/2-x,1/2-y,1/2-z
1/2+x,y,1/2-z
1/2-x,1/2+y,z
x,1/2-y,1/2+z
loop_
_atom_site_type_symbol
_atom_site_label
_atom_site_fract_x
_atom_site_fract_y
_atom_site_fract_z
Si Si1 0.735042 0.939914 0.136029
Si Si2 0.957432 0.356788 0.895291
Si Si3 0.154901 0.765103 0.434084
Si Si4 0.572292 0.139950 0.375876
O O1 0.736505 0.224740 0.094360
O O2 0.745339 0.000000 0.250000
O O3 0.693519 0.816370 0.126867
O O4 0.954926 0.629867 0.847677
O O5 0.000000 0.250000 0.906807
O O6 0.934545 0.139955 0.838322
O O7 0.938341 0.392081 0.004797
O O8 0.154131 0.495609 0.487051
O O9 0.116375 0.785611 0.369562
#
# Coordination Sequence:
#
# PCOD9529613 Si02
#       4
#    16  16  16  16
#     4  10  23  42  59  77 104 140 180 220 265 328
#     4  10  16  25  41  61  99 147 170 196 251 309
#     4  12  21  34  55  80 111 139 168 225 278 314
#     4  10  16  27  38  66 100 133 165 209 253 300
#
# _framework density 25.549772999999998
#
# number of rings (size 3 to 8) (size 9 to 14) (size 15 to 20)
#    0.000    1.500    5.000    5.250    0.000    3.000 
#    0.000    0.000    0.000    0.000    0.000    0.000 
#    0.000    6.000    0.000    0.500    0.000    0.000 
#
# Total GULP energy -178899.537388 kJ/mol
# GULP energy per Si atom -5590.610543 kJ/mol
# Density = 2.549162 g / cm^3
# Si number density = 25.549773 Si / 1000 Ang^3
#
#
#
# Elastic Constant Matrix: (Units=GPa)
#
#
# Indices 1 2 3 4 5 6 
#
# 1 141.3083 13.4431 -22.6783 0.0000 0.0000 0.0000
# 2 13.4431 201.3175 9.8579 0.0000 0.0000 0.0000
# 3 -22.6783 9.8579 54.8699 0.0000 0.0000 0.0000
# 4 0.0000 0.0000 0.0000 37.2466 0.0000 0.0000
# 5 0.0000 0.0000 0.0000 0.0000 9.1111 0.0000
# 6 0.0000 0.0000 0.0000 0.0000 0.0000 47.7313
#
#
#
# Elastic Compliance Matrix: (Units=1/GPa)
#
#
# Indices 1 2 3 4 5 6 
#
# 1 0.007669 -0.000673 0.003291 0.000000 0.000000 0.000000
# 2 -0.000673 0.005070 -0.001189 0.000000 0.000000 0.000000
# 3 0.003291 -0.001189 0.019799 0.000000 0.000000 0.000000
# 4 0.000000 0.000000 0.000000 0.026848 0.000000 0.000000
# 5 0.000000 0.000000 0.000000 0.000000 0.109756 0.000000
# 6 0.000000 0.000000 0.000000 0.000000 0.000000 0.020951
#
#
# Mechanical properties :
#
#
# Convention : Reuss Voigt Hill
#
# Bulk Modulus (GPa) = 28.25322 44.30458 36.27890
# Shear Modulus (GPa) = 25.12124 45.27600 35.19862
#
# Velocity S-wave (km/s) = 3.13905 4.21416 3.71570
# Velocity P-wave (km/s) = 4.92141 6.40758 5.71303
#
# Compressibility (1/GPa) = 0.03539419
#
# Stress axis : x y z
#
# Youngs Moduli (GPa) = 130.39739 197.22055 50.50864
#
# Poissons Ratio (x) = 0.13277 -0.16620
# Poissons Ratio (y) = 0.08779 0.06007
# Poissons Ratio (z) = -0.42908 0.23454
#
# Static dielectric constant tensor:
#      x y z
#    x 1.945360 0.000000 0.000000 
#    y 0.000000 2.103440 0.000000 
#    z 0.000000 0.000000 2.255500 
# 
# From -- ./inp_files/1147.got.cif
#   From: 2010.05.17/outbox.cif.g08.bks.cpg/sg73_1_cif.got.tgz:1147.got - 2010.06.03 17:35:07.
