data_PCOD9529442
_publ_section_title
;
Structure prediction by ZEFSAII (Michael W. Deem and Ramdas Pophale) SiO2 
 PCOD9529442
Probable space group: I B A M
;
_chemical_formula_sum "Si O2"
_cell_formula_units_Z 88
_cell_length_a 11.826929
_cell_length_b 13.334155
_cell_length_c 27.517400
_cell_angle_alpha 90.000000
_cell_angle_beta 90.000000
_cell_angle_gamma 90.000000
_cell_volume 4339.551889
_symmetry_space_group_name_H-M "I B A M"
_symmetry_group_IT_number 72
_symmetry_cell_setting 'orthorhombic'
loop_
_space_group_symop_operation_xyz
x,y,z
-x,-y,z
x,-y,1/2-z
-x,y,1/2-z
-x,-y,-z
x,y,-z
-x,y,1/2+z
x,-y,1/2+z
1/2+x,1/2+y,1/2+z
1/2-x,1/2-y,1/2+z
1/2+x,1/2-y,-z
1/2-x,1/2+y,-z
1/2-x,1/2-y,1/2-z
1/2+x,1/2+y,1/2-z
1/2-x,1/2+y,z
1/2+x,1/2-y,z
loop_
_atom_site_type_symbol
_atom_site_label
_atom_site_fract_x
_atom_site_fract_y
_atom_site_fract_z
Si Si1 0.383301 0.041823 0.870254
Si Si2 0.206913 0.591867 0.715636
Si Si3 0.500000 0.777526 0.250000
Si Si4 0.683149 0.556741 0.553401
Si Si5 0.891928 0.229961 0.161319
Si Si6 0.449465 0.346072 0.945296
O O1 0.281037 0.049343 0.907862
O O2 0.388568 0.150495 0.845676
O O3 0.500000 0.000000 0.892866
O O4 0.355432 0.963338 0.828292
O O5 0.252619 0.500000 0.750000
O O6 0.112096 0.655112 0.744173
O O7 0.293399 0.668777 0.689389
O O8 0.493291 0.714361 0.299822
O O9 0.732066 0.574984 0.500000
O O10 0.584192 0.637941 0.561675
O O11 0.614202 0.452660 0.552339
O O12 0.905512 0.197945 0.105325
O O13 0.432787 0.300353 0.000000
#
# Coordination Sequence:
#
# PCOD9529442 Si02
#       6
#    16  16   8  16  16  16
#     4  12  24  41  68  96 137 183 221 279 339 411
#     4  12  24  46  65  94 134 185 226 276 339 404
#     4  12  25  44  63  96 136 182 221 276 339 416
#     4   9  20  41  68  94 130 177 224 281 345 402
#     4  12  26  40  72 101 135 178 234 276 345 411
#     4   9  20  43  69  96 132 173 224 290 348 398
#
# _framework density 20.278592
#
# number of rings (size 3 to 8) (size 9 to 14) (size 15 to 20)
#    0.000    1.091    5.455    1.909    2.545    1.091 
#    0.000    0.000    0.000    0.000    0.000    0.000 
#    0.000    0.000    0.000    0.000    0.000    0.000 
#
# Total GULP energy -245001.789506 kJ/mol
# GULP energy per Si atom -5568.222489 kJ/mol
# Density = 2.023244 g / cm^3
# Si number density = 20.278592 Si / 1000 Ang^3
#
#
#
# Elastic Constant Matrix: (Units=GPa)
#
#
# Indices 1 2 3 4 5 6 
#
# 1 83.3433 29.3600 60.9820 0.0000 0.0000 0.0000
# 2 29.3600 59.3840 18.7733 0.0000 0.0000 0.0000
# 3 60.9820 18.7733 148.5997 0.0000 0.0000 0.0000
# 4 0.0000 0.0000 0.0000 31.4156 0.0000 0.0000
# 5 0.0000 0.0000 0.0000 0.0000 20.1184 0.0000
# 6 0.0000 0.0000 0.0000 0.0000 0.0000 21.0599
#
#
#
# Elastic Compliance Matrix: (Units=1/GPa)
#
#
# Indices 1 2 3 4 5 6 
#
# 1 0.019963 -0.007583 -0.007235 0.000000 0.000000 0.000000
# 2 -0.007583 0.020420 0.000532 0.000000 0.000000 0.000000
# 3 -0.007235 0.000532 0.009631 0.000000 0.000000 0.000000
# 4 0.000000 0.000000 0.000000 0.031831 0.000000 0.000000
# 5 0.000000 0.000000 0.000000 0.000000 0.049706 0.000000
# 6 0.000000 0.000000 0.000000 0.000000 0.000000 0.047484
#
#
# Mechanical properties :
#
#
# Convention : Reuss Voigt Hill
#
# Bulk Modulus (GPa) = 46.63288 56.61750 51.62519
# Shear Modulus (GPa) = 23.28241 26.66624 24.97432
#
# Velocity S-wave (km/s) = 3.39208 3.63022 3.51317
# Velocity P-wave (km/s) = 6.19578 6.74921 6.47840
#
# Compressibility (1/GPa) = 0.02144410
#
# Stress axis : x y z
#
# Youngs Moduli (GPa) = 50.09181 48.97057 103.82969
#
# Poissons Ratio (x) = 0.37134 0.75116
# Poissons Ratio (y) = 0.37985 -0.05525
# Poissons Ratio (z) = 0.36239 -0.02606
#
# Static dielectric constant tensor:
#      x y z
#    x 1.736490 0.000000 0.000000 
#    y 0.000000 1.749270 0.000000 
#    z 0.000000 0.000000 1.775220 
# 
# From -- ./inp_files/48030.got.cif
#   From: 2010.05.17/outbox.cif.g08.bks.cpg/sg72_25_cif.got.tgz:48030.got - 2010.06.03 17:03:01.
