data_PCOD9529072
_publ_section_title
;
Structure prediction by ZEFSAII (Michael W. Deem and Ramdas Pophale) SiO2 
 PCOD9529072
Probable space group: I B A M
;
_chemical_formula_sum "Si O2"
_cell_formula_units_Z 116
_cell_length_a 7.854365
_cell_length_b 31.764609
_cell_length_c 27.211250
_cell_angle_alpha 90.000000
_cell_angle_beta 90.000000
_cell_angle_gamma 90.000000
_cell_volume 6788.957434
_symmetry_space_group_name_H-M "I B A M"
_symmetry_group_IT_number 72
_symmetry_cell_setting 'orthorhombic'
loop_
_space_group_symop_operation_xyz
x,y,z
-x,-y,z
x,-y,1/2-z
-x,y,1/2-z
-x,-y,-z
x,y,-z
-x,y,1/2+z
x,-y,1/2+z
1/2+x,1/2+y,1/2+z
1/2-x,1/2-y,1/2+z
1/2+x,1/2-y,-z
1/2-x,1/2+y,-z
1/2-x,1/2-y,1/2-z
1/2+x,1/2+y,1/2-z
1/2-x,1/2+y,z
1/2+x,1/2-y,z
loop_
_atom_site_type_symbol
_atom_site_label
_atom_site_fract_x
_atom_site_fract_y
_atom_site_fract_z
Si Si1 0.900747 0.417739 0.054375
Si Si2 0.607890 0.207133 0.899261
Si Si3 0.448645 0.683386 0.195525
Si Si4 0.581836 0.228287 0.303916
Si Si5 0.744323 0.290824 0.943997
Si Si6 0.099235 0.873902 0.397019
Si Si7 0.759985 0.126585 0.058492
Si Si8 0.000000 0.500000 0.000000
O O1 0.759865 0.404289 0.093703
O O2 0.085789 0.398853 0.066752
O O3 0.928183 0.466690 0.042157
O O4 0.850861 0.399044 0.000000
O O5 0.530747 0.205107 0.844894
O O6 0.687085 0.252529 0.909688
O O7 0.443578 0.201678 0.934594
O O8 0.737722 0.171059 0.914321
O O9 0.500000 0.668871 0.250000
O O10 0.578245 0.721839 0.182508
O O11 0.266769 0.707406 0.197131
O O12 0.432940 0.645605 0.156852
O O13 0.500000 0.225261 0.250000
O O14 0.643830 0.332422 0.929092
O O15 0.711566 0.279097 0.000000
O O16 0.928205 0.894029 0.418888
O O17 0.779660 0.131982 0.000000
#
# Coordination Sequence:
#
# PCOD9529072 Si02
#       8
#    16  16  16  16  16  16  16   4
#     4   9  19  40  59  89 115 151 180 225 295 346
#     4  12  22  35  48  75 106 153 212 247 293 339
#     4  11  23  36  51  74 103 153 209 263 304 330
#     4  11  21  36  54  68  98 152 213 276 298 328
#     4  12  22  33  47  69 107 154 202 243 280 337
#     4  12  22  36  56  78 116 152 195 243 292 345
#     4  11  22  34  55  81 117 156 185 233 287 348
#     4   8  20  40  74  84 124 152 172 232 270 380
#
# _framework density 17.086572
#
# number of rings (size 3 to 8) (size 9 to 14) (size 15 to 20)
#    0.414    0.552    4.138    4.966    3.862    0.000 
#    0.000    1.379    0.000    0.000    0.000    0.000 
#    0.000    3.310    0.000    0.000    0.000    0.000 
#
# Total GULP energy -323353.118474 kJ/mol
# GULP energy per Si atom -5575.053767 kJ/mol
# Density = 1.704768 g / cm^3
# Si number density = 17.086572 Si / 1000 Ang^3
#
#
#
# Elastic Constant Matrix: (Units=GPa)
#
#
# Indices 1 2 3 4 5 6 
#
# 1 91.7079 31.6180 38.2820 0.0000 0.0000 0.0000
# 2 31.6180 54.2766 38.4606 0.0000 0.0000 0.0000
# 3 38.2820 38.4606 111.8822 0.0000 0.0000 0.0000
# 4 0.0000 0.0000 0.0000 15.0849 0.0000 0.0000
# 5 0.0000 0.0000 0.0000 0.0000 24.2362 0.0000
# 6 0.0000 0.0000 0.0000 0.0000 0.0000 8.3698
#
#
#
# Elastic Compliance Matrix: (Units=1/GPa)
#
#
# Indices 1 2 3 4 5 6 
#
# 1 0.014223 -0.006394 -0.002668 0.000000 0.000000 0.000000
# 2 -0.006394 0.027232 -0.007173 0.000000 0.000000 0.000000
# 3 -0.002668 -0.007173 0.012317 0.000000 0.000000 0.000000
# 4 0.000000 0.000000 0.000000 0.066292 0.000000 0.000000
# 5 0.000000 0.000000 0.000000 0.000000 0.041261 0.000000
# 6 0.000000 0.000000 0.000000 0.000000 0.000000 0.119477
#
#
# Mechanical properties :
#
#
# Convention : Reuss Voigt Hill
#
# Bulk Modulus (GPa) = 46.94949 52.73199 49.84074
# Shear Modulus (GPa) = 15.60682 19.50527 17.55604
#
# Velocity S-wave (km/s) = 3.02552 3.38236 3.20890
# Velocity P-wave (km/s) = 6.30414 6.79577 6.55456
#
# Compressibility (1/GPa) = 0.02129949
#
# Stress axis : x y z
#
# Youngs Moduli (GPa) = 70.31060 36.72128 81.18927
#
# Poissons Ratio (x) = 0.23481 0.21664
# Poissons Ratio (y) = 0.44959 0.58240
# Poissons Ratio (z) = 0.18761 0.26342
#
# Static dielectric constant tensor:
#      x y z
#    x 1.653680 0.000000 0.000000 
#    y 0.000000 1.563500 0.000000 
#    z 0.000000 0.000000 1.601210 
# 
# From -- ./inp_files/47720.got.cif
#   From: 2010.05.17/outbox.cif.g08.bks.cpg/sg72_24_cif.got.tgz:47720.got - 2010.06.03 17:03:01.
