data_PCOD9529411
_publ_section_title
;
Structure prediction by ZEFSAII (Michael W. Deem and Ramdas Pophale) SiO2 
 PCOD9529411
Probable space group: I B A M
;
_chemical_formula_sum "Si O2"
_cell_formula_units_Z 80
_cell_length_a 7.170788
_cell_length_b 28.278359
_cell_length_c 14.805437
_cell_angle_alpha 90.000000
_cell_angle_beta 90.000000
_cell_angle_gamma 90.000000
_cell_volume 3002.218642
_symmetry_space_group_name_H-M "I B A M"
_symmetry_group_IT_number 72
_symmetry_cell_setting 'orthorhombic'
loop_
_space_group_symop_operation_xyz
x,y,z
-x,-y,z
x,-y,1/2-z
-x,y,1/2-z
-x,-y,-z
x,y,-z
-x,y,1/2+z
x,-y,1/2+z
1/2+x,1/2+y,1/2+z
1/2-x,1/2-y,1/2+z
1/2+x,1/2-y,-z
1/2-x,1/2+y,-z
1/2-x,1/2-y,1/2-z
1/2+x,1/2+y,1/2-z
1/2-x,1/2+y,z
1/2+x,1/2-y,z
loop_
_atom_site_type_symbol
_atom_site_label
_atom_site_fract_x
_atom_site_fract_y
_atom_site_fract_z
Si Si1 0.871349 0.830825 0.500000
Si Si2 0.211628 0.392942 0.346594
Si Si3 0.784044 0.403555 0.368577
Si Si4 0.481858 0.761198 0.000000
Si Si5 0.666870 0.791910 0.186841
Si Si6 0.727342 0.004938 0.645625
O O1 0.842995 0.864342 0.585819
O O2 0.696340 0.794797 0.500000
O O3 0.043677 0.795321 0.500000
O O4 0.217893 0.403940 0.239601
O O5 0.280142 0.338652 0.342837
O O6 0.285613 0.442833 0.386916
O O7 0.001648 0.391746 0.388218
O O8 0.721001 0.455556 0.399694
O O9 0.583236 0.771152 0.904957
O O10 0.500000 0.811095 0.250000
O O11 0.750000 0.750000 0.250000
O O12 0.500000 0.000000 0.644876
O O13 0.786196 0.000000 0.750000
#
# Coordination Sequence:
#
# PCOD9529411 Si02
#       6
#     8  16  16   8  16  16
#     4  12  22  36  52  77 118 149 188 238 286 336
#     4   9  14  29  47  71 103 141 177 223 277 337
#     4   9  15  28  46  71 102 142 173 222 281 340
#     4  12  24  38  55  82 111 154 198 240 282 342
#     4  12  23  38  58  81 116 158 197 239 289 341
#     4   7  12  21  43  68  98 134 170 214 279 341
#
# _framework density 26.64696
#
# number of rings (size 3 to 8) (size 9 to 14) (size 15 to 20)
#    0.000    2.200    4.000    4.800    0.000    0.000 
#    0.000    5.500    0.000    0.000    0.000    0.000 
#    0.000   44.000    0.000    0.600    0.000    0.000 
#
# Total GULP energy -223205.070037 kJ/mol
# GULP energy per Si atom -5580.126751 kJ/mol
# Density = 2.658631 g / cm^3
# Si number density = 26.646960 Si / 1000 Ang^3
#
#
#
# Elastic Constant Matrix: (Units=GPa)
#
#
# Indices 1 2 3 4 5 6 
#
# 1 86.9745 49.6751 30.3943 0.0000 0.0000 0.0000
# 2 49.6751 294.1535 50.2190 -0.0001 0.0000 0.0000
# 3 30.3943 50.2190 141.7938 -0.0001 0.0000 0.0000
# 4 0.0000 -0.0001 -0.0001 -48.3919 0.0000 0.0000
# 5 0.0000 0.0000 0.0000 0.0000 23.9153 0.0000
# 6 0.0000 0.0000 0.0000 0.0000 0.0000 11.7452
#
#
#
# Elastic Compliance Matrix: (Units=1/GPa)
#
#
# Indices 1 2 3 4 5 6 
#
# 1 0.013337 -0.001878 -0.002194 0.000000 0.000000 0.000000
# 2 -0.001878 0.003883 -0.000973 0.000000 0.000000 0.000000
# 3 -0.002194 -0.000973 0.007867 0.000000 0.000000 0.000000
# 4 0.000000 0.000000 0.000000 -0.020665 0.000000 0.000000
# 5 0.000000 0.000000 0.000000 0.000000 0.041814 0.000000
# 6 0.000000 0.000000 0.000000 0.000000 0.000000 0.085141
#
#
# Mechanical properties :
#
#
# Convention : Reuss Voigt Hill
#
# Bulk Modulus (GPa) = 66.67373 87.05542 76.86458
# Shear Modulus (GPa) = 34.13784 23.62928 28.88356
#
# Velocity S-wave (km/s) = 3.58315 2.98107 3.29589
# Velocity P-wave (km/s) = 6.49570 6.67757 6.58726
#
# Compressibility (1/GPa) = 0.01499841
#
# Stress axis : x y z
#
# Youngs Moduli (GPa) = 74.98102 257.55025 127.10965
#
# Poissons Ratio (x) = 0.48360 0.27885
# Poissons Ratio (y) = 0.14079 0.12363
# Poissons Ratio (z) = 0.16449 0.25051
#
# Static dielectric constant tensor:
#      x y z
#    x 2.191930 0.000000 0.000000 
#    y 0.000000 2.181170 0.000000 
#    z 0.000000 0.000000 2.024880 
# 
# From -- ./inp_files/28203.got.cif
#   From: 2010.05.17/outbox.cif.g08.bks.cpg/sg72_15_cif.got.tgz:28203.got - 2010.06.03 17:03:01.
