data_PCOD9529871
_publ_section_title
;
Structure prediction by ZEFSAII (Michael W. Deem and Ramdas Pophale) SiO2 
 PCOD9529871
Probable space group: I B C A 
;
_chemical_formula_sum "Si O2"
_cell_formula_units_Z 104
_cell_length_a 28.355441
_cell_length_b 7.933092
_cell_length_c 27.203666
_cell_angle_alpha 90.000000
_cell_angle_beta 90.000000
_cell_angle_gamma 90.000000
_cell_volume 6119.364616
_symmetry_space_group_name_H-M "I B C A "
_symmetry_group_IT_number 73
_symmetry_cell_setting 'orthorhombic'
loop_
_space_group_symop_operation_xyz
x,y,z
-x,1/2-y,z
x,-y,1/2-z
1/2-x,y,-z
-x,-y,-z
x,1/2+y,-z
-x,y,1/2+z
1/2+x,-y,z
1/2+x,1/2+y,1/2+z
1/2-x,-y,1/2+z
1/2+x,1/2-y,-z
-x,1/2+y,1/2-z
1/2-x,1/2-y,1/2-z
1/2+x,y,1/2-z
1/2-x,1/2+y,z
x,1/2-y,1/2+z
loop_
_atom_site_type_symbol
_atom_site_label
_atom_site_fract_x
_atom_site_fract_y
_atom_site_fract_z
Si Si1 0.061005 0.500000 0.250000
Si Si2 0.103359 0.282722 0.162119
Si Si3 0.555252 0.303746 0.524615
Si Si4 0.000000 0.250000 0.316313
Si Si5 0.813390 0.357662 0.214048
Si Si6 0.427222 0.032162 0.424042
Si Si7 0.223960 0.000000 0.750000
Si Si8 0.034946 0.984528 0.387078
O O1 0.089498 0.379824 0.212328
O O2 0.028289 0.380807 0.283196
O O3 0.150372 0.175458 0.170711
O O4 0.108155 0.418569 0.118832
O O5 0.061906 0.159931 0.142400
O O6 0.500000 0.250000 0.520341
O O7 0.573511 0.345407 0.470870
O O8 0.557020 0.465123 0.560532
O O9 0.579335 0.151466 0.553178
O O10 0.034671 0.147589 0.351993
O O11 0.835970 0.500000 0.250000
O O12 0.761350 0.440492 0.207585
O O13 0.803816 0.170178 0.236575
O O14 0.479829 0.044374 0.400037
#
# Coordination Sequence:
#
# PCOD9529871 Si02
#       8
#     8  16  16   8  16  16   8  16
#     4  12  25  34  45  62 104 154 186 229 262 311
#     4  12  23  33  51  78 108 137 184 225 269 320
#     4  10  18  33  54  69  95 141 193 236 275 300
#     4  12  22  36  44  60  96 150 200 216 256 302
#     4   9  19  36  58  83 104 138 169 222 271 329
#     4  11  20  35  49  75 101 143 185 231 271 306
#     4   8  17  40  63  78 102 138 178 215 274 337
#     4  11  20  35  49  71 101 143 193 233 259 309
#
# _framework density 16.995228999999998
#
# number of rings (size 3 to 8) (size 9 to 14) (size 15 to 20)
#    0.462    0.923    3.846    5.538    2.154    0.000 
#    2.769    0.000    0.000    0.000    0.000    0.000 
#    0.000   14.769    0.000    0.000    0.000    0.000 
#
# Total GULP energy -289671.815091 kJ/mol
# GULP energy per Si atom -5570.611829 kJ/mol
# Density = 1.695655 g / cm^3
# Si number density = 16.995229 Si / 1000 Ang^3
#
#
#
# Elastic Constant Matrix: (Units=GPa)
#
#
# Indices 1 2 3 4 5 6 
#
# 1 40.2182 16.5125 22.7056 0.0000 0.0000 0.0000
# 2 16.5125 95.1759 27.9471 0.0000 0.0000 0.0000
# 3 22.7056 27.9471 94.8465 0.0000 0.0000 0.0000
# 4 0.0000 0.0000 0.0000 47.5449 0.0000 0.0000
# 5 0.0000 0.0000 0.0000 0.0000 7.6222 0.0000
# 6 0.0000 0.0000 0.0000 0.0000 0.0000 7.1143
#
#
#
# Elastic Compliance Matrix: (Units=1/GPa)
#
#
# Indices 1 2 3 4 5 6 
#
# 1 0.029697 -0.003355 -0.006121 0.000000 0.000000 0.000000
# 2 -0.003355 0.011881 -0.002698 0.000000 0.000000 0.000000
# 3 -0.006121 -0.002698 0.012803 0.000000 0.000000 0.000000
# 4 0.000000 0.000000 0.000000 0.021033 0.000000 0.000000
# 5 0.000000 0.000000 0.000000 0.000000 0.131196 0.000000
# 6 0.000000 0.000000 0.000000 0.000000 0.000000 0.140562
#
#
# Mechanical properties :
#
#
# Convention : Reuss Voigt Hill
#
# Bulk Modulus (GPa) = 33.29446 40.50789 36.90117
# Shear Modulus (GPa) = 13.10509 23.32798 18.21653
#
# Velocity S-wave (km/s) = 2.77989 3.70891 3.27748
# Velocity P-wave (km/s) = 5.47144 6.49830 6.00686
#
# Compressibility (1/GPa) = 0.03003503
#
# Stress axis : x y z
#
# Youngs Moduli (GPa) = 33.67300 84.16749 78.10367
#
# Poissons Ratio (x) = 0.28239 0.47805
# Poissons Ratio (y) = 0.11297 0.21070
# Poissons Ratio (z) = 0.20610 0.22705
#
# Static dielectric constant tensor:
#      x y z
#    x 1.562520 0.000000 0.000000 
#    y 0.000000 1.594200 0.000000 
#    z 0.000000 0.000000 1.583190 
# 
# From -- ./inp_files/32991.got.cif
#   From: 2010.05.17/outbox.cif.g08.bks.cpg/sg73_17_cif.got.tgz:32991.got - 2010.06.03 17:35:07.
