data_PCOD9529056
_publ_section_title
;
Structure prediction by ZEFSAII (Michael W. Deem and Ramdas Pophale) SiO2 
 PCOD9529056
Probable space group: I B A M
;
_chemical_formula_sum "Si O2"
_cell_formula_units_Z 96
_cell_length_a 24.535610
_cell_length_b 24.445586
_cell_length_c 8.492352
_cell_angle_alpha 90.000000
_cell_angle_beta 90.000000
_cell_angle_gamma 90.000000
_cell_volume 5093.605423
_symmetry_space_group_name_H-M "I B A M"
_symmetry_group_IT_number 72
_symmetry_cell_setting 'orthorhombic'
loop_
_space_group_symop_operation_xyz
x,y,z
-x,-y,z
x,-y,1/2-z
-x,y,1/2-z
-x,-y,-z
x,y,-z
-x,y,1/2+z
x,-y,1/2+z
1/2+x,1/2+y,1/2+z
1/2-x,1/2-y,1/2+z
1/2+x,1/2-y,-z
1/2-x,1/2+y,-z
1/2-x,1/2-y,1/2-z
1/2+x,1/2+y,1/2-z
1/2-x,1/2+y,z
1/2+x,1/2-y,z
loop_
_atom_site_type_symbol
_atom_site_label
_atom_site_fract_x
_atom_site_fract_y
_atom_site_fract_z
Si Si1 0.940543 0.351423 0.311631
Si Si2 0.439205 0.728334 0.687795
Si Si3 0.057083 0.938356 0.810535
Si Si4 0.853983 0.859087 0.184194
Si Si5 0.643099 0.941038 0.811597
Si Si6 0.733428 0.440035 0.312132
O O1 0.941213 0.348611 0.500000
O O2 0.931103 0.290673 0.243515
O O3 0.894969 0.393164 0.252838
O O4 0.000000 0.369223 0.250000
O O5 0.500000 0.712093 0.750000
O O6 0.441339 0.724848 0.500000
O O7 0.387702 0.692317 0.745754
O O8 0.103974 0.907404 0.720808
O O9 0.000000 0.914835 0.750000
O O10 0.058472 0.000000 0.750000
O O11 0.061749 0.934899 0.000000
O O12 0.799647 0.886029 0.257988
O O13 0.845290 0.849888 0.000000
O O14 0.704777 0.935003 0.748818
O O15 0.623135 0.000000 0.750000
O O16 0.643720 0.940869 0.000000
O O17 0.712751 0.500000 0.250000
O O18 0.731918 0.442953 0.500000
#
# Coordination Sequence:
#
# PCOD9529056 Si02
#       6
#    16  16  16  16  16  16
#     4  11  22  40  64  93 124 158 193 235 286 345
#     4  11  22  39  60  86 117 155 197 244 295 349
#     4  11  21  34  49  71 101 137 180 235 295 351
#     4  12  23  37  55  79 109 149 196 243 289 344
#     4  11  22  40  64  93 124 158 193 235 286 345
#     4  11  22  39  60  86 117 155 197 244 295 349
#
# _framework density 18.847159999999999
#
# number of rings (size 3 to 8) (size 9 to 14) (size 15 to 20)
#    0.000    0.833    0.000   12.500    0.000    0.333 
#    0.000    2.500    0.000    0.000    0.000    0.000 
#    0.000    0.000    0.000    0.000    0.000    0.000 
#
# Total GULP energy -268124.816270 kJ/mol
# GULP energy per Si atom -5585.933672 kJ/mol
# Density = 1.880426 g / cm^3
# Si number density = 18.847160 Si / 1000 Ang^3
#
#
#
# Elastic Constant Matrix: (Units=GPa)
#
#
# Indices 1 2 3 4 5 6 
#
# 1 90.2304 66.0189 37.6455 0.0000 0.0000 0.0000
# 2 66.0189 115.8982 42.6813 0.0000 0.0000 0.0000
# 3 37.6455 42.6813 188.4393 0.0000 0.0000 0.0000
# 4 0.0000 0.0000 0.0000 33.3083 0.0000 0.0000
# 5 0.0000 0.0000 0.0000 0.0000 32.4623 0.0000
# 6 0.0000 0.0000 0.0000 0.0000 0.0000 41.0349
#
#
#
# Elastic Compliance Matrix: (Units=1/GPa)
#
#
# Indices 1 2 3 4 5 6 
#
# 1 0.019382 -0.010489 -0.001496 0.000000 0.000000 0.000000
# 2 -0.010489 0.015090 -0.001322 0.000000 0.000000 0.000000
# 3 -0.001496 -0.001322 0.005905 0.000000 0.000000 0.000000
# 4 0.000000 0.000000 0.000000 0.030023 0.000000 0.000000
# 5 0.000000 0.000000 0.000000 0.000000 0.030805 0.000000
# 6 0.000000 0.000000 0.000000 0.000000 0.000000 0.024370
#
#
# Mechanical properties :
#
#
# Convention : Reuss Voigt Hill
#
# Bulk Modulus (GPa) = 72.66766 76.36215 74.51490
# Shear Modulus (GPa) = 31.89239 37.90924 34.90082
#
# Velocity S-wave (km/s) = 4.11805 4.48973 4.30790
# Velocity P-wave (km/s) = 7.82631 8.21471 8.02286
#
# Compressibility (1/GPa) = 0.01376128
#
# Stress axis : x y z
#
# Youngs Moduli (GPa) = 51.59499 66.26771 169.34313
#
# Poissons Ratio (x) = 0.69511 0.25336
# Poissons Ratio (y) = 0.54120 0.22394
# Poissons Ratio (z) = 0.07719 0.08763
#
# Static dielectric constant tensor:
#      x y z
#    x 1.634330 0.000000 0.000000 
#    y 0.000000 1.641840 0.000000 
#    z 0.000000 0.000000 1.632020 
# 
# From -- ./inp_files/6971.got.cif
#   From: 2010.05.17/outbox.cif.g08.bks.cpg/sg72_4_cif.got.tgz:6971.got - 2010.06.03 17:03:01.
