data_PCOD9529058
_publ_section_title
;
Structure prediction by ZEFSAII (Michael W. Deem and Ramdas Pophale) SiO2 
 PCOD9529058
Probable space group: I B A M
;
_chemical_formula_sum "Si O2"
_cell_formula_units_Z 96
_cell_length_a 23.225511
_cell_length_b 24.841172
_cell_length_c 8.575150
_cell_angle_alpha 90.000000
_cell_angle_beta 90.000000
_cell_angle_gamma 90.000000
_cell_volume 4947.423476
_symmetry_space_group_name_H-M "I B A M"
_symmetry_group_IT_number 72
_symmetry_cell_setting 'orthorhombic'
loop_
_space_group_symop_operation_xyz
x,y,z
-x,-y,z
x,-y,1/2-z
-x,y,1/2-z
-x,-y,-z
x,y,-z
-x,y,1/2+z
x,-y,1/2+z
1/2+x,1/2+y,1/2+z
1/2-x,1/2-y,1/2+z
1/2+x,1/2-y,-z
1/2-x,1/2+y,-z
1/2-x,1/2-y,1/2-z
1/2+x,1/2+y,1/2-z
1/2-x,1/2+y,z
1/2+x,1/2-y,z
loop_
_atom_site_type_symbol
_atom_site_label
_atom_site_fract_x
_atom_site_fract_y
_atom_site_fract_z
Si Si1 0.630609 0.661013 0.685247
Si Si2 0.935175 0.057960 0.814492
Si Si3 0.062854 0.386982 0.811494
Si Si4 0.242013 0.333886 0.187640
Si Si5 0.175773 0.443905 0.185424
Si Si6 0.625315 0.778212 0.689748
O O1 0.622342 0.655721 0.500000
O O2 0.603539 0.608603 0.764394
O O3 0.697938 0.668018 0.724428
O O4 0.605505 0.718965 0.739124
O O5 0.000000 0.065765 0.750000
O O6 0.914291 0.000000 0.750000
O O7 0.937504 0.054674 0.000000
O O8 0.111838 0.428511 0.756399
O O9 0.084633 0.327474 0.761489
O O10 0.000000 0.398921 0.750000
O O11 0.062490 0.387392 0.000000
O O12 0.215636 0.392927 0.218244
O O13 0.191053 0.292975 0.237475
O O14 0.250702 0.328006 0.000000
O O15 0.197063 0.500000 0.250000
O O16 0.172376 0.448366 0.000000
O O17 0.626492 0.778613 0.500000
#
# Coordination Sequence:
#
# PCOD9529058 Si02
#       6
#    16  16  16  16  16  16
#     4  11  21  34  56  86 112 140 177 217 261 320
#     4  11  23  42  63  83 109 141 175 217 265 316
#     4   9  18  34  52  73 101 137 175 217 264 310
#     4   9  18  35  54  75 106 145 182 224 271 313
#     4   9  19  34  52  72 101 137 175 218 266 312
#     4   8  17  34  54  75 107 144 180 222 269 314
#
# _framework density 19.404039000000001
#
# number of rings (size 3 to 8) (size 9 to 14) (size 15 to 20)
#    0.000    2.500    0.000    5.000    0.000    3.000 
#    0.000   10.000    0.000    0.000    0.000    0.000 
#    0.000    0.000    0.000    0.000    0.000    0.000 
#
# Total GULP energy -267775.805789 kJ/mol
# GULP energy per Si atom -5578.662621 kJ/mol
# Density = 1.935987 g / cm^3
# Si number density = 19.404039 Si / 1000 Ang^3
#
#
#
# Elastic Constant Matrix: (Units=GPa)
#
#
# Indices 1 2 3 4 5 6 
#
# 1 11.0831 -2.9964 1.6775 0.0000 0.0000 0.0000
# 2 -2.9964 120.6360 29.7340 0.0000 0.0000 0.0000
# 3 1.6775 29.7340 43.2118 0.0000 0.0000 0.0000
# 4 0.0000 0.0000 0.0000 5.5472 0.0000 0.0000
# 5 0.0000 0.0000 0.0000 0.0000 29.3081 0.0000
# 6 0.0000 0.0000 0.0000 0.0000 0.0000 23.4293
#
#
#
# Elastic Compliance Matrix: (Units=1/GPa)
#
#
# Indices 1 2 3 4 5 6 
#
# 1 0.092200 0.003820 -0.006208 0.000000 0.000000 0.000000
# 2 0.003820 0.010141 -0.007126 0.000000 0.000000 0.000000
# 3 -0.006208 -0.007126 0.028286 0.000000 0.000000 0.000000
# 4 0.000000 0.000000 0.000000 0.180271 0.000000 0.000000
# 5 0.000000 0.000000 0.000000 0.000000 0.034120 0.000000
# 6 0.000000 0.000000 0.000000 0.000000 0.000000 0.042682
#
#
# Mechanical properties :
#
#
# Convention : Reuss Voigt Hill
#
# Bulk Modulus (GPa) = 8.96066 25.75124 17.35595
# Shear Modulus (GPa) = 11.26311 21.42464 16.34388
#
# Velocity S-wave (km/s) = 2.41187 3.32645 2.90538
# Velocity P-wave (km/s) = 3.51911 5.29657 4.49654
#
# Compressibility (1/GPa) = 0.11159891
#
# Stress axis : x y z
#
# Youngs Moduli (GPa) = 10.84604 98.61250 35.35286
#
# Poissons Ratio (x) = -0.37672 0.21947
# Poissons Ratio (y) = -0.04143 0.25193
# Poissons Ratio (z) = 0.06733 0.70272
#
# Static dielectric constant tensor:
#      x y z
#    x 1.664320 0.000000 0.000000 
#    y 0.000000 4.844860 0.000000 
#    z 0.000000 0.000000 1.446740 
# 
# From -- ./inp_files/6963.got.cif
#   From: 2010.05.17/outbox.cif.g08.bks.cpg/sg72_4_cif.got.tgz:6963.got - 2010.06.03 17:03:01.
