data_PCOD9529841
_publ_section_title
;
Structure prediction by ZEFSAII (Michael W. Deem and Ramdas Pophale) SiO2 
 PCOD9529841
Probable space group: I B C A 
;
_chemical_formula_sum "Si O2"
_cell_formula_units_Z 96
_cell_length_a 24.845556
_cell_length_b 12.254281
_cell_length_c 14.956341
_cell_angle_alpha 90.000000
_cell_angle_beta 90.000000
_cell_angle_gamma 90.000000
_cell_volume 4553.673760
_symmetry_space_group_name_H-M "I B C A "
_symmetry_group_IT_number 73
_symmetry_cell_setting 'orthorhombic'
loop_
_space_group_symop_operation_xyz
x,y,z
-x,1/2-y,z
x,-y,1/2-z
1/2-x,y,-z
-x,-y,-z
x,1/2+y,-z
-x,y,1/2+z
1/2+x,-y,z
1/2+x,1/2+y,1/2+z
1/2-x,-y,1/2+z
1/2+x,1/2-y,-z
-x,1/2+y,1/2-z
1/2-x,1/2-y,1/2-z
1/2+x,y,1/2-z
1/2-x,1/2+y,z
x,1/2-y,1/2+z
loop_
_atom_site_type_symbol
_atom_site_label
_atom_site_fract_x
_atom_site_fract_y
_atom_site_fract_z
Si Si1 0.621140 0.419222 0.531789
Si Si2 0.811037 0.976457 0.123060
Si Si3 0.555021 0.685766 0.126302
Si Si4 0.696177 0.757257 0.961776
Si Si5 0.909612 0.000000 0.250000
Si Si6 0.779426 0.000000 0.750000
Si Si7 0.638540 0.369580 0.868107
O O1 0.667310 0.461887 0.463451
O O2 0.575616 0.368426 0.467321
O O3 0.652839 0.323030 0.582066
O O4 0.608162 0.521727 0.594288
O O5 0.788079 0.858055 0.100491
O O6 0.764063 0.039951 0.175589
O O7 0.866180 0.956300 0.177922
O O8 0.500000 0.750000 0.113314
O O9 0.555310 0.590143 0.199714
O O10 0.597926 0.775407 0.161040
O O11 0.750000 0.704714 0.000000
O O12 0.666981 0.813909 0.046396
O O13 0.818402 0.912208 0.796396
#
# Coordination Sequence:
#
# PCOD9529841 Si02
#       7
#    16  16  16  16   8   8  16
#     4   9  21  37  58  85 119 157 205 251 292 358
#     4   9  19  36  54  81 123 167 195 232 302 368
#     4  10  22  43  66  87 116 158 204 258 310 349
#     4  10  18  32  54  82 117 164 201 242 291 353
#     4   9  20  41  60  86 120 159 198 243 308 374
#     4  11  20  33  54  86 128 161 194 245 298 368
#     4  10  22  37  55  88 121 151 209 251 291 365
#
# _framework density 21.081879000000001
#
# number of rings (size 3 to 8) (size 9 to 14) (size 15 to 20)
#    0.000    2.333    1.667    0.000    2.333    2.667 
#    0.000    4.167    0.000    8.000    0.000    0.000 
#    0.000    0.000    0.000    0.000    0.000    0.000 
#
# Total GULP energy -267577.169481 kJ/mol
# GULP energy per Si atom -5574.524364 kJ/mol
# Density = 2.103390 g / cm^3
# Si number density = 21.081879 Si / 1000 Ang^3
#
#
#
# Elastic Constant Matrix: (Units=GPa)
#
#
# Indices 1 2 3 4 5 6 
#
# 1 67.3300 44.9951 12.1832 0.0000 0.0000 0.0000
# 2 44.9951 98.3121 29.7883 0.0000 0.0000 0.0000
# 3 12.1832 29.7883 40.6442 0.0000 0.0000 0.0000
# 4 0.0000 0.0000 0.0000 25.1773 0.0000 0.0000
# 5 0.0000 0.0000 0.0000 0.0000 11.1857 0.0000
# 6 0.0000 0.0000 0.0000 0.0000 0.0000 28.3123
#
#
#
# Elastic Compliance Matrix: (Units=1/GPa)
#
#
# Indices 1 2 3 4 5 6 
#
# 1 0.021427 -0.010104 0.000983 0.000000 0.000000 0.000000
# 2 -0.010104 0.017840 -0.010046 0.000000 0.000000 0.000000
# 3 0.000983 -0.010046 0.031672 0.000000 0.000000 0.000000
# 4 0.000000 0.000000 0.000000 0.039718 0.000000 0.000000
# 5 0.000000 0.000000 0.000000 0.000000 0.089400 0.000000
# 6 0.000000 0.000000 0.000000 0.000000 0.000000 0.035320
#
#
# Mechanical properties :
#
#
# Convention : Reuss Voigt Hill
#
# Bulk Modulus (GPa) = 30.67165 42.24659 36.45912
# Shear Modulus (GPa) = 17.56967 20.88971 19.22969
#
# Velocity S-wave (km/s) = 2.89000 3.15125 3.02345
# Velocity P-wave (km/s) = 5.07115 5.77263 5.43322
#
# Compressibility (1/GPa) = 0.03260340
#
# Stress axis : x y z
#
# Youngs Moduli (GPa) = 46.67031 56.05320 31.57343
#
# Poissons Ratio (x) = 0.56638 -0.03103
# Poissons Ratio (y) = 0.47157 0.31720
# Poissons Ratio (z) = -0.04586 0.56313
#
# Static dielectric constant tensor:
#      x y z
#    x 1.724140 0.000000 0.000000 
#    y 0.000000 1.803440 0.000000 
#    z 0.000000 0.000000 1.807570 
# 
# From -- ./inp_files/23589.got.cif
#   From: 2010.05.17/outbox.cif.g08.bks.cpg/sg73_12_cif.got.tgz:23589.got - 2010.06.03 17:35:07.
