data_PCOD9529893
_publ_section_title
;
Structure prediction by ZEFSAII (Michael W. Deem and Ramdas Pophale) SiO2 
 PCOD9529893
Probable space group: I B C A 
;
_chemical_formula_sum "Si O2"
_cell_formula_units_Z 120
_cell_length_a 27.285279
_cell_length_b 29.803201
_cell_length_c 8.011603
_cell_angle_alpha 90.000000
_cell_angle_beta 90.000000
_cell_angle_gamma 90.000000
_cell_volume 6514.944663
_symmetry_space_group_name_H-M "I B C A "
_symmetry_group_IT_number 73
_symmetry_cell_setting 'orthorhombic'
loop_
_space_group_symop_operation_xyz
x,y,z
-x,1/2-y,z
x,-y,1/2-z
1/2-x,y,-z
-x,-y,-z
x,1/2+y,-z
-x,y,1/2+z
1/2+x,-y,z
1/2+x,1/2+y,1/2+z
1/2-x,-y,1/2+z
1/2+x,1/2-y,-z
-x,1/2+y,1/2-z
1/2-x,1/2-y,1/2-z
1/2+x,y,1/2-z
1/2-x,1/2+y,z
x,1/2-y,1/2+z
loop_
_atom_site_type_symbol
_atom_site_label
_atom_site_fract_x
_atom_site_fract_y
_atom_site_fract_z
Si Si1 0.760160 0.671951 0.187123
Si Si2 0.250000 0.606151 0.000000
Si Si3 0.984927 0.894349 0.483232
Si Si4 0.356726 0.598745 0.953775
Si Si5 0.071463 0.855151 0.296987
Si Si6 0.152455 0.307911 0.253311
Si Si7 0.555831 0.050068 0.687495
Si Si8 0.365646 0.714353 0.380456
O O1 0.761029 0.636650 0.337307
O O2 0.710895 0.699924 0.226550
O O3 0.811549 0.697909 0.179043
O O4 0.750000 0.652992 0.000000
O O5 0.198619 0.581996 0.026875
O O6 0.950471 0.877844 0.630958
O O7 0.954330 0.912531 0.328622
O O8 0.025662 0.857755 0.425628
O O9 0.016914 0.936647 0.545846
O O10 0.354726 0.643434 0.836133
O O11 0.390367 0.560173 0.879302
O O12 0.384478 0.616343 0.119858
O O13 0.094287 0.808233 0.239461
O O14 0.133081 0.267961 0.369030
O O15 0.128957 0.303055 0.070033
O O16 0.549686 0.000000 0.750000
#
# Coordination Sequence:
#
# PCOD9529893 Si02
#       8
#    16   8  16  16  16  16  16  16
#     4   9  19  31  48  80 112 147 191 233 272 318
#     4  10  18  34  56  78 118 150 190 232 276 340
#     4   9  20  35  57  86 110 136 180 233 290 334
#     4  10  20  35  55  81 110 150 186 223 291 335
#     4  10  19  35  57  79 110 146 179 230 276 339
#     4  10  21  31  50  78 112 149 184 231 267 320
#     4  10  19  35  60  86 110 138 177 233 291 347
#     4  11  19  32  51  77 111 147 189 225 277 324
#
# _framework density 18.41919
#
# number of rings (size 3 to 8) (size 9 to 14) (size 15 to 20)
#    0.000    2.133    1.333    2.400    1.867    0.000 
#    1.200    0.000    0.000   28.800    0.000    0.000 
#    0.000    0.000    0.000    0.000    0.000    0.000 
#
# Total GULP energy -334435.443971 kJ/mol
# GULP energy per Si atom -5573.924066 kJ/mol
# Density = 1.837727 g / cm^3
# Si number density = 18.419190 Si / 1000 Ang^3
#
#
#
# Elastic Constant Matrix: (Units=GPa)
#
#
# Indices 1 2 3 4 5 6 
#
# 1 81.4320 12.3804 27.8405 0.0000 0.0000 0.0000
# 2 12.3804 32.5345 -1.9811 0.0000 0.0000 0.0000
# 3 27.8405 -1.9811 59.2893 0.0000 0.0000 0.0000
# 4 0.0000 0.0000 0.0000 17.5322 0.0000 0.0000
# 5 0.0000 0.0000 0.0000 0.0000 30.0818 0.0000
# 6 0.0000 0.0000 0.0000 0.0000 0.0000 8.4000
#
#
#
# Elastic Compliance Matrix: (Units=1/GPa)
#
#
# Indices 1 2 3 4 5 6 
#
# 1 0.015898 -0.006517 -0.007683 0.000000 0.000000 0.000000
# 2 -0.006517 0.033471 0.004179 0.000000 0.000000 0.000000
# 3 -0.007683 0.004179 0.020614 0.000000 0.000000 0.000000
# 4 0.000000 0.000000 0.000000 0.057038 0.000000 0.000000
# 5 0.000000 0.000000 0.000000 0.000000 0.033243 0.000000
# 6 0.000000 0.000000 0.000000 0.000000 0.000000 0.119047
#
#
# Mechanical properties :
#
#
# Convention : Reuss Voigt Hill
#
# Bulk Modulus (GPa) = 20.02418 27.74839 23.88628
# Shear Modulus (GPa) = 15.82280 20.20388 18.01334
#
# Velocity S-wave (km/s) = 2.93412 3.31553 3.13064
# Velocity P-wave (km/s) = 4.73008 5.45478 5.10531
#
# Compressibility (1/GPa) = 0.04993962
#
# Stress axis : x y z
#
# Youngs Moduli (GPa) = 62.90209 29.87647 48.51130
#
# Poissons Ratio (x) = 0.19472 0.37271
# Poissons Ratio (y) = 0.40996 -0.20272
# Poissons Ratio (z) = 0.48327 -0.12485
#
# Static dielectric constant tensor:
#      x y z
#    x 1.656020 0.000000 0.000000 
#    y 0.000000 1.584660 0.000000 
#    z 0.000000 0.000000 1.678130 
# 
# From -- ./inp_files/8143.got.cif
#   From: 2010.05.17/outbox.cif.g08.bks.cpg/sg73_5_cif.got.tgz:8143.got - 2010.06.03 17:35:07.
