data_PCOD9529781
_publ_section_title
;
Structure prediction by ZEFSAII (Michael W. Deem and Ramdas Pophale) SiO2 
 PCOD9529781
Probable space group: I B C A 
;
_chemical_formula_sum "Si O2"
_cell_formula_units_Z 80
_cell_length_a 8.331218
_cell_length_b 24.991099
_cell_length_c 17.815161
_cell_angle_alpha 90.000000
_cell_angle_beta 90.000000
_cell_angle_gamma 90.000000
_cell_volume 3709.228646
_symmetry_space_group_name_H-M "I B C A "
_symmetry_group_IT_number 73
_symmetry_cell_setting 'orthorhombic'
loop_
_space_group_symop_operation_xyz
x,y,z
-x,1/2-y,z
x,-y,1/2-z
1/2-x,y,-z
-x,-y,-z
x,1/2+y,-z
-x,y,1/2+z
1/2+x,-y,z
1/2+x,1/2+y,1/2+z
1/2-x,-y,1/2+z
1/2+x,1/2-y,-z
-x,1/2+y,1/2-z
1/2-x,1/2-y,1/2-z
1/2+x,y,1/2-z
1/2-x,1/2+y,z
x,1/2-y,1/2+z
loop_
_atom_site_type_symbol
_atom_site_label
_atom_site_fract_x
_atom_site_fract_y
_atom_site_fract_z
Si Si1 0.959242 0.312559 0.067960
Si Si2 0.049792 0.500000 0.250000
Si Si3 0.845835 0.178194 0.208113
Si Si4 0.342660 0.222162 0.133957
Si Si5 0.701492 0.429121 0.662822
Si Si6 0.750000 0.882533 0.500000
O O1 0.764555 0.311489 0.076210
O O2 0.000000 0.250000 0.057363
O O3 0.004594 0.330492 0.153220
O O4 0.089900 0.346619 0.019495
O O5 0.949249 0.458795 0.300873
O O6 0.153561 0.533862 0.308710
O O7 0.762748 0.230115 0.170489
O O8 0.892156 0.188526 0.293265
O O9 0.729266 0.128434 0.200067
O O10 0.500000 0.250000 0.101099
O O11 0.708255 0.417383 0.573795
#
# Coordination Sequence:
#
# PCOD9529781 Si02
#       6
#    16   8  16  16  16   8
#     4   9  19  37  58  87 134 179 219 258 332 420
#     4  10  24  44  68  96 126 174 234 320 354 412
#     4   9  18  32  58  94 133 170 218 273 336 418
#     4  10  18  29  57 101 133 170 215 276 332 408
#     4  10  23  42  68  96 130 174 233 293 367 417
#     4  10  22  42  70  96 134 192 224 282 354 446
#
# _framework density 21.567827999999999
#
# number of rings (size 3 to 8) (size 9 to 14) (size 15 to 20)
#    0.000    2.400    0.000    3.000    8.400    0.800 
#    0.000    9.000    0.000   14.400    0.000    0.000 
#    0.000    0.000    0.000    0.000    0.000    0.000 
#
# Total GULP energy -223149.662158 kJ/mol
# GULP energy per Si atom -5578.741554 kJ/mol
# Density = 2.151874 g / cm^3
# Si number density = 21.567828 Si / 1000 Ang^3
#
#
#
# Elastic Constant Matrix: (Units=GPa)
#
#
# Indices 1 2 3 4 5 6 
#
# 1 135.9309 34.4135 77.1184 0.0000 0.0000 0.0000
# 2 34.4135 93.4359 68.9816 0.0000 0.0000 0.0000
# 3 77.1184 68.9816 188.6577 0.0000 0.0000 0.0000
# 4 0.0000 0.0000 0.0000 26.2168 0.0000 0.0000
# 5 0.0000 0.0000 0.0000 0.0000 5.3673 0.0000
# 6 0.0000 0.0000 0.0000 0.0000 0.0000 27.0452
#
#
#
# Elastic Compliance Matrix: (Units=1/GPa)
#
#
# Indices 1 2 3 4 5 6 
#
# 1 0.009630 -0.000877 -0.003616 0.000000 0.000000 0.000000
# 2 -0.000877 0.014740 -0.005031 0.000000 0.000000 0.000000
# 3 -0.003616 -0.005031 0.008618 0.000000 0.000000 0.000000
# 4 0.000000 0.000000 0.000000 0.038144 0.000000 0.000000
# 5 0.000000 0.000000 0.000000 0.000000 0.186312 0.000000
# 6 0.000000 0.000000 0.000000 0.000000 0.000000 0.036975
#
#
# Mechanical properties :
#
#
# Convention : Reuss Voigt Hill
#
# Bulk Modulus (GPa) = 71.73586 86.56127 79.14856
# Shear Modulus (GPa) = 15.71764 27.55994 21.63879
#
# Velocity S-wave (km/s) = 2.70247 3.57855 3.17091
# Velocity P-wave (km/s) = 6.56282 7.56943 7.08403
#
# Compressibility (1/GPa) = 0.01394003
#
# Stress axis : x y z
#
# Youngs Moduli (GPa) = 103.84061 67.84316 116.03464
#
# Poissons Ratio (x) = 0.05953 0.41955
# Poissons Ratio (y) = 0.09112 0.58375
# Poissons Ratio (z) = 0.37546 0.34131
#
# Static dielectric constant tensor:
#      x y z
#    x 1.923690 0.000000 0.000000 
#    y 0.000000 1.752760 0.000000 
#    z 0.000000 0.000000 1.823130 
# 
# From -- ./inp_files/20767.got.cif
#   From: 2010.05.17/outbox.cif.g08.bks.cpg/sg73_11_cif.got.tgz:20767.got - 2010.06.03 17:35:07.
