data_PCOD9529978
_publ_section_title
;
Structure prediction by ZEFSAII (Michael W. Deem and Ramdas Pophale) SiO2 
 PCOD9529978
Probable space group: I B C A 
;
_chemical_formula_sum "Si O2"
_cell_formula_units_Z 96
_cell_length_a 14.706046
_cell_length_b 15.092275
_cell_length_c 19.887233
_cell_angle_alpha 90.000000
_cell_angle_beta 90.000000
_cell_angle_gamma 90.000000
_cell_volume 4413.925433
_symmetry_space_group_name_H-M "I B C A "
_symmetry_group_IT_number 73
_symmetry_cell_setting 'orthorhombic'
loop_
_space_group_symop_operation_xyz
x,y,z
-x,1/2-y,z
x,-y,1/2-z
1/2-x,y,-z
-x,-y,-z
x,1/2+y,-z
-x,y,1/2+z
1/2+x,-y,z
1/2+x,1/2+y,1/2+z
1/2-x,-y,1/2+z
1/2+x,1/2-y,-z
-x,1/2+y,1/2-z
1/2-x,1/2-y,1/2-z
1/2+x,y,1/2-z
1/2-x,1/2+y,z
x,1/2-y,1/2+z
loop_
_atom_site_type_symbol
_atom_site_label
_atom_site_fract_x
_atom_site_fract_y
_atom_site_fract_z
Si Si1 0.993638 0.558467 0.066459
Si Si2 0.500000 0.250000 0.753950
Si Si3 0.909268 0.192993 0.019131
Si Si4 0.465928 0.093149 0.349154
Si Si5 0.186426 0.346257 0.450092
Si Si6 0.326871 0.000000 0.250000
Si Si7 0.304731 0.311527 0.698811
O O1 0.972852 0.488029 0.124216
O O2 0.093061 0.603776 0.072171
O O3 0.000000 0.500000 0.000000
O O4 0.920174 0.631910 0.047117
O O5 0.483526 0.166972 0.804601
O O6 0.411479 0.282029 0.711296
O O7 0.912356 0.137145 0.087652
O O8 0.000000 0.250000 0.025023
O O9 0.838623 0.268151 0.002039
O O10 0.390735 0.045460 0.304952
O O11 0.250000 0.404848 0.500000
O O12 0.220414 0.306277 0.379642
O O13 0.281576 0.913743 0.282341
O O14 0.250000 0.250000 0.750000
#
# Coordination Sequence:
#
# PCOD9529978 Si02
#       7
#    16   8  16  16  16   8  16
#     4   9  19  37  62  93 127 168 225 281 331 414
#     4  10  24  40  74  94 138 188 228 288 356 422
#     4   9  19  34  62  94 131 167 228 276 341 418
#     4  10  18  37  62  98 125 180 229 281 347 416
#     4  11  24  40  66  99 139 180 225 295 355 411
#     4  10  22  40  66  88 142 180 230 296 338 418
#     4  11  26  46  70 102 144 188 242 292 362 430
#
# _framework density 21.749348000000001
#
# number of rings (size 3 to 8) (size 9 to 14) (size 15 to 20)
#    0.000    2.000    2.500    0.000    8.167    0.000 
#    0.000   11.667    0.000    0.000    0.000    0.000 
#    0.000    0.000    0.000    0.000    0.000    0.000 
#
# Total GULP energy -267264.787472 kJ/mol
# GULP energy per Si atom -5568.016406 kJ/mol
# Density = 2.169985 g / cm^3
# Si number density = 21.749348 Si / 1000 Ang^3
#
#
#
# Elastic Constant Matrix: (Units=GPa)
#
#
# Indices 1 2 3 4 5 6 
#
# 1 47.3345 12.4282 21.2177 0.0000 0.0000 0.0000
# 2 12.4282 111.8040 44.4896 0.0000 0.0000 0.0000
# 3 21.2177 44.4896 141.4513 0.0000 0.0000 0.0000
# 4 0.0000 0.0000 0.0000 29.0507 0.0000 0.0000
# 5 0.0000 0.0000 0.0000 0.0000 12.3903 0.0000
# 6 0.0000 0.0000 0.0000 0.0000 0.0000 24.3968
#
#
#
# Elastic Compliance Matrix: (Units=1/GPa)
#
#
# Indices 1 2 3 4 5 6 
#
# 1 0.022824 -0.001343 -0.003001 0.000000 0.000000 0.000000
# 2 -0.001343 0.010303 -0.003039 0.000000 0.000000 0.000000
# 3 -0.003001 -0.003039 0.008476 0.000000 0.000000 0.000000
# 4 0.000000 0.000000 0.000000 0.034423 0.000000 0.000000
# 5 0.000000 0.000000 0.000000 0.000000 0.080708 0.000000
# 6 0.000000 0.000000 0.000000 0.000000 0.000000 0.040989
#
#
# Mechanical properties :
#
#
# Convention : Reuss Voigt Hill
#
# Bulk Modulus (GPa) = 37.26306 50.76230 44.01268
# Shear Modulus (GPa) = 22.58006 27.99784 25.28895
#
# Velocity S-wave (km/s) = 3.22560 3.59178 3.41360
# Velocity P-wave (km/s) = 5.57161 6.37115 5.98475
#
# Compressibility (1/GPa) = 0.02683623
#
# Stress axis : x y z
#
# Youngs Moduli (GPa) = 43.81329 97.06094 117.98572
#
# Poissons Ratio (x) = 0.13034 0.35411
# Poissons Ratio (y) = 0.05884 0.35856
# Poissons Ratio (z) = 0.13149 0.29497
#
# Static dielectric constant tensor:
#      x y z
#    x 1.767560 0.000000 0.000000 
#    y 0.000000 1.336150 0.000000 
#    z 0.000000 0.000000 1.915150 
# 
# From -- ./inp_files/26034.got.cif
#   From: 2010.05.17/outbox.cif.g08.bks.cpg/sg73_14_cif.got.tgz:26034.got - 2010.06.03 17:35:07.
