data_PCOD9529263
_publ_section_title
;
Structure prediction by ZEFSAII (Michael W. Deem and Ramdas Pophale) SiO2 
 PCOD9529263
Probable space group: I B A M
;
_chemical_formula_sum "Si O2"
_cell_formula_units_Z 52
_cell_length_a 16.622226
_cell_length_b 8.381334
_cell_length_c 17.030811
_cell_angle_alpha 90.000000
_cell_angle_beta 90.000000
_cell_angle_gamma 90.000000
_cell_volume 2372.671753
_symmetry_space_group_name_H-M "I B A M"
_symmetry_group_IT_number 72
_symmetry_cell_setting 'orthorhombic'
loop_
_space_group_symop_operation_xyz
x,y,z
-x,-y,z
x,-y,1/2-z
-x,y,1/2-z
-x,-y,-z
x,y,-z
-x,y,1/2+z
x,-y,1/2+z
1/2+x,1/2+y,1/2+z
1/2-x,1/2-y,1/2+z
1/2+x,1/2-y,-z
1/2-x,1/2+y,-z
1/2-x,1/2-y,1/2-z
1/2+x,1/2+y,1/2-z
1/2-x,1/2+y,z
1/2+x,1/2-y,z
loop_
_atom_site_type_symbol
_atom_site_label
_atom_site_fract_x
_atom_site_fract_y
_atom_site_fract_z
Si Si1 0.872920 0.372603 0.143219
Si Si2 0.785360 0.961636 0.656933
Si Si3 0.000000 0.500000 0.250000
Si Si4 0.373779 0.428554 0.500000
Si Si5 0.529518 0.764772 0.000000
O O1 0.817166 0.216975 0.145936
O O2 0.810193 0.517487 0.145222
O O3 0.936012 0.380403 0.212345
O O4 0.933818 0.361063 0.071663
O O5 0.802199 0.000000 0.750000
O O6 0.824819 0.060111 0.582988
O O7 0.435694 0.280126 0.500000
O O8 0.425767 0.592257 0.500000
#
# Coordination Sequence:
#
# PCOD9529263 Si02
#       5
#    16  16   4   8   8
#     4  11  25  43  68  97 140 177 236 289 357 419
#     4  11  23  43  71  99 136 192 231 292 345 437
#     4  12  28  42  62 104 140 172 238 304 356 422
#     4   9  21  40  68 105 138 170 243 272 360 422
#     4   9  21  43  64 100 138 176 217 299 340 419
#
# _framework density 21.916219999999999
#
# number of rings (size 3 to 8) (size 9 to 14) (size 15 to 20)
#    0.000    1.538    1.538    1.846    4.308    0.615 
#    0.000    0.000    0.000    0.000    0.000    0.000 
#    0.000    0.000    0.000    0.000    0.000    0.000 
#
# Total GULP energy -144792.009035 kJ/mol
# GULP energy per Si atom -5568.923424 kJ/mol
# Density = 2.186634 g / cm^3
# Si number density = 21.916220 Si / 1000 Ang^3
#
#
#
# Elastic Constant Matrix: (Units=GPa)
#
#
# Indices 1 2 3 4 5 6 
#
# 1 189.7157 56.8083 68.0285 0.0000 0.0000 0.0000
# 2 56.8083 67.1219 23.0251 0.0000 0.0000 0.0000
# 3 68.0285 23.0251 122.4708 0.0000 0.0000 0.0000
# 4 0.0000 0.0000 0.0000 5.3424 0.0000 0.0000
# 5 0.0000 0.0000 0.0000 0.0000 82.9304 0.0000
# 6 0.0000 0.0000 0.0000 0.0000 0.0000 48.0885
#
#
#
# Elastic Compliance Matrix: (Units=1/GPa)
#
#
# Indices 1 2 3 4 5 6 
#
# 1 0.008260 -0.005790 -0.003499 0.000000 0.000000 0.000000
# 2 -0.005790 0.019984 -0.000541 0.000000 0.000000 0.000000
# 3 -0.003499 -0.000541 0.010211 0.000000 0.000000 0.000000
# 4 0.000000 0.000000 0.000000 0.187182 0.000000 0.000000
# 5 0.000000 0.000000 0.000000 0.000000 0.012058 0.000000
# 6 0.000000 0.000000 0.000000 0.000000 0.000000 0.020795
#
#
# Mechanical properties :
#
#
# Convention : Reuss Voigt Hill
#
# Bulk Modulus (GPa) = 53.20915 75.00359 64.10637
# Shear Modulus (GPa) = 17.57990 42.70201 30.14095
#
# Velocity S-wave (km/s) = 2.83528 4.41888 3.71250
# Velocity P-wave (km/s) = 5.92027 7.76740 6.90587
#
# Compressibility (1/GPa) = 0.01879376
#
# Stress axis : x y z
#
# Youngs Moduli (GPa) = 121.07064 50.03940 97.93639
#
# Poissons Ratio (x) = 0.28973 0.34272
# Poissons Ratio (y) = 0.70101 0.05298
# Poissons Ratio (z) = 0.42367 0.02707
#
# Static dielectric constant tensor:
#      x y z
#    x 1.737400 0.000000 0.000000 
#    y 0.000000 1.793760 0.000000 
#    z 0.000000 0.000000 1.629670 
# 
# From -- ./inp_files/28655.got.cif
#   From: 2010.05.17/outbox.cif.g08.bks.cpg/sg72_15_cif.got.tgz:28655.got - 2010.06.03 17:03:01.
