data_PCOD9529452
_publ_section_title
;
Structure prediction by ZEFSAII (Michael W. Deem and Ramdas Pophale) SiO2 
 PCOD9529452
Probable space group: I B A M
;
_chemical_formula_sum "Si O2"
_cell_formula_units_Z 96
_cell_length_a 14.754855
_cell_length_b 20.897786
_cell_length_c 14.204275
_cell_angle_alpha 90.000000
_cell_angle_beta 90.000000
_cell_angle_gamma 90.000000
_cell_volume 4379.800162
_symmetry_space_group_name_H-M "I B A M"
_symmetry_group_IT_number 72
_symmetry_cell_setting 'orthorhombic'
loop_
_space_group_symop_operation_xyz
x,y,z
-x,-y,z
x,-y,1/2-z
-x,y,1/2-z
-x,-y,-z
x,y,-z
-x,y,1/2+z
x,-y,1/2+z
1/2+x,1/2+y,1/2+z
1/2-x,1/2-y,1/2+z
1/2+x,1/2-y,-z
1/2-x,1/2+y,-z
1/2-x,1/2-y,1/2-z
1/2+x,1/2+y,1/2-z
1/2-x,1/2+y,z
1/2+x,1/2-y,z
loop_
_atom_site_type_symbol
_atom_site_label
_atom_site_fract_x
_atom_site_fract_y
_atom_site_fract_z
Si Si1 0.594155 0.602147 0.205259
Si Si2 0.715944 0.980564 0.000000
Si Si3 0.829490 0.781944 0.814501
Si Si4 0.165525 0.861556 0.500000
Si Si5 0.972383 0.923856 0.500000
Si Si6 0.024248 0.575759 0.000000
Si Si7 0.432372 0.158290 0.664490
Si Si8 0.212515 0.444987 0.192356
O O1 0.500000 0.578434 0.250000
O O2 0.612059 0.673473 0.244024
O O3 0.582994 0.592590 0.094109
O O4 0.687349 0.566976 0.232630
O O5 0.800471 0.934239 0.000000
O O6 0.632299 0.930602 0.000000
O O7 0.715678 0.026912 0.088589
O O8 0.750000 0.750000 0.750000
O O9 0.892286 0.727165 0.861282
O O10 0.802410 0.825750 0.904579
O O11 0.057527 0.874602 0.500000
O O12 0.000000 0.000000 0.500000
O O13 0.000000 0.500000 0.000000
O O14 0.982907 0.614597 0.912381
O O15 0.500000 0.167531 0.750000
O O16 0.344419 0.118745 0.696237
O O17 0.162764 0.500000 0.250000
#
# Coordination Sequence:
#
# PCOD9529452 Si02
#       8
#    16   8  16   8   8   8  16  16
#     4  12  26  48  74 108 152 195 254 310 375 456
#     4  12  26  47  72 111 148 190 238 307 383 453
#     4  12  27  52  75 107 150 203 257 311 375 453
#     4  12  27  50  74 106 151 192 250 312 371 458
#     4  12  28  47  77 113 148 197 248 310 393 456
#     4  12  25  46  73 108 148 185 242 312 376 451
#     4  12  27  46  75 105 145 195 245 301 373 438
#     4  12  25  43  73 107 151 186 239 306 374 447
#
# _framework density 21.918809
#
# number of rings (size 3 to 8) (size 9 to 14) (size 15 to 20)
#    0.000    0.000    5.000    4.500    4.667    0.667 
#    0.000    0.000    0.000    0.000    0.000    0.000 
#    0.000    0.000    0.000    0.000    0.000    0.000 
#
# Total GULP energy -268301.684558 kJ/mol
# GULP energy per Si atom -5589.618428 kJ/mol
# Density = 2.186892 g / cm^3
# Si number density = 21.918809 Si / 1000 Ang^3
#
#
#
# Elastic Constant Matrix: (Units=GPa)
#
#
# Indices 1 2 3 4 5 6 
#
# 1 90.5486 10.6293 -6.5576 0.0000 0.0000 0.0000
# 2 10.6293 103.0546 13.6394 0.0000 0.0000 0.0000
# 3 -6.5576 13.6394 86.6241 0.0000 0.0000 0.0000
# 4 0.0000 0.0000 0.0000 122.2675 0.0000 0.0000
# 5 0.0000 0.0000 0.0000 0.0000 37.1143 0.0000
# 6 0.0000 0.0000 0.0000 0.0000 0.0000 59.3519
#
#
#
# Elastic Compliance Matrix: (Units=1/GPa)
#
#
# Indices 1 2 3 4 5 6 
#
# 1 0.011273 -0.001303 0.001059 0.000000 0.000000 0.000000
# 2 -0.001303 0.010061 -0.001683 0.000000 0.000000 0.000000
# 3 0.001059 -0.001683 0.011889 0.000000 0.000000 0.000000
# 4 0.000000 0.000000 0.000000 0.008179 0.000000 0.000000
# 5 0.000000 0.000000 0.000000 0.000000 0.026944 0.000000
# 6 0.000000 0.000000 0.000000 0.000000 0.000000 0.016849
#
#
# Mechanical properties :
#
#
# Convention : Reuss Voigt Hill
#
# Bulk Modulus (GPa) = 34.04924 35.07215 34.56070
# Shear Modulus (GPa) = 50.58764 61.24782 55.91773
#
# Velocity S-wave (km/s) = 4.80933 5.29185 5.05635
# Velocity P-wave (km/s) = 6.81231 7.30575 7.06334
#
# Compressibility (1/GPa) = 0.02936923
#
# Stress axis : x y z
#
# Youngs Moduli (GPa) = 88.70440 99.39681 84.10977
#
# Poissons Ratio (x) = 0.12950 -0.08904
# Poissons Ratio (y) = 0.11557 0.14153
# Poissons Ratio (z) = -0.09390 0.16726
#
# Static dielectric constant tensor:
#      x y z
#    x 1.853130 0.000000 0.000000 
#    y 0.000000 2.710190 0.000000 
#    z 0.000000 0.000000 1.754960 
# 
# From -- ./inp_files/21934.got.cif
#   From: 2010.05.17/outbox.cif.g08.bks.cpg/sg72_11_cif.got.tgz:21934.got - 2010.06.03 17:03:01.
