data_PCOD9529569
_publ_section_title
;
Structure prediction by ZEFSAII (Michael W. Deem and Ramdas Pophale) SiO2 
 PCOD9529569
Probable space group: I B A M
;
_chemical_formula_sum "Si O2"
_cell_formula_units_Z 36
_cell_length_a 9.000000
_cell_length_b 27.000000
_cell_length_c 15.000000
_cell_angle_alpha 90.000000
_cell_angle_beta 90.000000
_cell_angle_gamma 90.000000
_cell_volume 3645.000000
_symmetry_space_group_name_H-M "I B A M"
_symmetry_group_IT_number 72
_symmetry_cell_setting 'orthorhombic'
loop_
_space_group_symop_operation_xyz
x,y,z
-x,-y,z
x,-y,1/2-z
-x,y,1/2-z
-x,-y,-z
x,y,-z
-x,y,1/2+z
x,-y,1/2+z
1/2+x,1/2+y,1/2+z
1/2-x,1/2-y,1/2+z
1/2+x,1/2-y,-z
1/2-x,1/2+y,-z
1/2-x,1/2-y,1/2-z
1/2+x,1/2+y,1/2-z
1/2-x,1/2+y,z
1/2+x,1/2-y,z
loop_
_atom_site_type_symbol
_atom_site_label
_atom_site_fract_x
_atom_site_fract_y
_atom_site_fract_z
Si Si1 0.925271 0.305225 0.153396
Si Si2 0.018294 0.130730 0.000000
Si Si3 0.759430 0.455758 0.000000
Si Si4 0.764573 0.434482 0.500000
Si Si5 0.484613 0.917584 0.358229
Si Si6 0.576247 0.291333 0.847296
O O1 0.942254 0.360574 0.117750
O O2 0.753735 0.290425 0.161293
O O3 0.000000 0.308902 0.250000
O O4 0.014285 0.259750 0.110865
O O5 0.038623 0.164181 0.912844
O O6 0.857131 0.107366 0.000000
O O7 0.138217 0.086986 0.000000
O O8 0.696410 0.510836 0.000000
O O9 0.861192 0.449486 0.910997
O O10 0.865020 0.428968 0.588471
O O11 0.500000 0.923881 0.250000
O O12 0.500000 0.297560 0.750000
#
# Coordination Sequence:
#
# PCOD9529569 Si02
#       6
#    16   8   8   8  16  16
#     4  10  21  39  67  94 129 163 204 252 310 369
#     4  12  27  40  64  93 126 171 212 250 315 377
#     4  11  23  48  60  94 126 159 213 270 313 359
#     4  11  27  40  68  89 126 164 210 270 314 365
#     4  10  22  42  70  95 123 162 208 256 315 377
#     4  11  24  41  64  94 133 166 205 253 307 373
#
# _framework density 9.8765429999999999
#
# number of rings (size 3 to 8) (size 9 to 14) (size 15 to 20)
#    0.000    1.333    2.222    4.333    9.333    4.444 
#    0.000    0.000    0.000    4.000    0.000    0.000 
#    0.000    0.000    0.000    0.000    0.000    0.000 
#
# Total GULP energy -200958.985315 kJ/mol
# GULP energy per Si atom -5582.194037 kJ/mol
# Density = 0.985406 g / cm^3
# Si number density = 9.876543 Si / 1000 Ang^3
#
#
#
# Elastic Constant Matrix: (Units=GPa)
#
#
# Indices 1 2 3 4 5 6 
#
# 1 45.1634 47.6824 14.9142 0.0000 0.0000 0.0000
# 2 47.6824 105.0845 21.9164 -0.0001 0.0000 0.0000
# 3 14.9142 21.9164 113.1579 -0.0003 0.0000 0.0000
# 4 0.0000 -0.0001 -0.0003 3.6725 0.0000 0.0000
# 5 0.0000 0.0000 0.0000 0.0000 13.4212 0.0000
# 6 0.0000 0.0000 0.0000 0.0000 0.0000 8.5602
#
#
#
# Elastic Compliance Matrix: (Units=1/GPa)
#
#
# Indices 1 2 3 4 5 6 
#
# 1 0.042919 -0.019065 -0.001964 -0.000001 0.000000 0.000000
# 2 -0.019065 0.018385 -0.001048 0.000000 0.000000 0.000000
# 3 -0.001964 -0.001048 0.009299 0.000001 0.000000 0.000000
# 4 -0.000001 0.000000 0.000001 0.272294 -0.000001 -0.000001
# 5 0.000000 0.000000 0.000000 -0.000001 0.074509 0.000000
# 6 0.000000 0.000000 0.000000 -0.000001 0.000000 0.116820
#
#
# Mechanical properties :
#
#
# Convention : Reuss Voigt Hill
#
# Bulk Modulus (GPa) = 37.80878 48.04796 42.92837
# Shear Modulus (GPa) = 8.51503 17.05697 12.78600
#
# Velocity S-wave (km/s) = 2.07848 2.94174 2.54695
# Velocity P-wave (km/s) = 4.99423 5.99296 5.51624
#
# Compressibility (1/GPa) = 0.02644888
#
# Stress axis : x y z
#
# Youngs Moduli (GPa) = 23.29989 54.39074 107.53732
#
# Poissons Ratio (x) = 1.03695 0.21122
# Poissons Ratio (y) = 0.44421 0.11272
# Poissons Ratio (z) = 0.04577 0.05701
#
# Static dielectric constant tensor:
#      x y z
#    x 1.669360 0.000000 0.000000 
#    y 0.000000 1.739530 0.000000 
#    z 0.000000 0.000000 1.696730 
# 
# From -- ./inp_files/18931.got.cif
#   From: 2010.05.17/outbox.ucp.g08.bks.cvg/sg72_10_cif.got.tgz:18931.got - 2010.06.11 16:33:07.
