data_PCOD9529626
_publ_section_title
;
Structure prediction by ZEFSAII (Michael W. Deem and Ramdas Pophale) SiO2 
 PCOD9529626
Probable space group: I B C A 
;
_chemical_formula_sum "Si O2"
_cell_formula_units_Z 72
_cell_length_a 29.751681
_cell_length_b 8.553226
_cell_length_c 13.848428
_cell_angle_alpha 90.000000
_cell_angle_beta 90.000000
_cell_angle_gamma 90.000000
_cell_volume 3524.048962
_symmetry_space_group_name_H-M "I B C A "
_symmetry_group_IT_number 73
_symmetry_cell_setting 'orthorhombic'
loop_
_space_group_symop_operation_xyz
x,y,z
-x,1/2-y,z
x,-y,1/2-z
1/2-x,y,-z
-x,-y,-z
x,1/2+y,-z
-x,y,1/2+z
1/2+x,-y,z
1/2+x,1/2+y,1/2+z
1/2-x,-y,1/2+z
1/2+x,1/2-y,-z
-x,1/2+y,1/2-z
1/2-x,1/2-y,1/2-z
1/2+x,y,1/2-z
1/2-x,1/2+y,z
x,1/2-y,1/2+z
loop_
_atom_site_type_symbol
_atom_site_label
_atom_site_fract_x
_atom_site_fract_y
_atom_site_fract_z
Si Si1 0.100368 0.505160 0.469672
Si Si2 0.250000 0.355670 0.000000
Si Si3 0.455876 0.161377 0.192278
Si Si4 0.186026 0.905555 0.422958
Si Si5 0.902773 0.168946 0.642535
O O1 0.076676 0.394376 0.392470
O O2 0.151785 0.453885 0.489971
O O3 0.078742 0.471668 0.575352
O O4 0.098023 0.679127 0.428271
O O5 0.286622 0.248333 0.948385
O O6 0.223454 0.460707 0.922034
O O7 0.500000 0.250000 0.157392
O O8 0.430321 0.277868 0.265760
O O9 0.467273 0.000000 0.250000
O O10 0.149492 0.875133 0.339365
#
# Coordination Sequence:
#
# PCOD9529626 Si02
#       5
#    16   8  16  16  16
#     4   9  18  35  55  78 108 143 174 215 271 309
#     4  10  16  26  56  80 102 134 182 210 256 328
#     4  10  22  38  56  79 107 144 178 221 261 320
#     4   9  16  30  51  80 104 138 173 214 264 305
#     4   9  18  35  55  78 108 143 174 215 271 309
#
# _framework density 20.431044
#
# number of rings (size 3 to 8) (size 9 to 14) (size 15 to 20)
#    1.333    1.333    2.222    0.000    0.000    2.667 
#    0.000    4.444    0.000    8.000    0.000    0.000 
#    0.000    0.000    0.000    0.000    0.000    0.000 
#
# Total GULP energy -200421.251285 kJ/mol
# GULP energy per Si atom -5567.256980 kJ/mol
# Density = 2.038454 g / cm^3
# Si number density = 20.431044 Si / 1000 Ang^3
#
#
#
# Elastic Constant Matrix: (Units=GPa)
#
#
# Indices 1 2 3 4 5 6 
#
# 1 79.7976 37.0869 13.8949 0.0000 0.0000 0.0000
# 2 37.0869 74.7938 27.1826 0.0000 0.0000 0.0000
# 3 13.8949 27.1826 35.6862 0.0000 0.0000 0.0000
# 4 0.0000 0.0000 0.0000 34.4105 0.0000 0.0000
# 5 0.0000 0.0000 0.0000 0.0000 16.2732 0.0000
# 6 0.0000 0.0000 0.0000 0.0000 0.0000 701.9283
#
#
#
# Elastic Compliance Matrix: (Units=1/GPa)
#
#
# Indices 1 2 3 4 5 6 
#
# 1 0.016286 -0.007980 -0.000263 0.000000 0.000000 0.000000
# 2 -0.007980 0.022398 -0.013954 0.000000 0.000000 0.000000
# 3 -0.000263 -0.013954 0.038753 0.000000 0.000000 0.000000
# 4 0.000000 0.000000 0.000000 0.029061 0.000000 0.000000
# 5 0.000000 0.000000 0.000000 0.000000 0.061451 0.000000
# 6 0.000000 0.000000 0.000000 0.000000 0.000000 0.001425
#
#
# Mechanical properties :
#
#
# Convention : Reuss Voigt Hill
#
# Bulk Modulus (GPa) = 30.26239 38.51183 34.38711
# Shear Modulus (GPa) = 22.24369 157.99662 90.12016
#
# Velocity S-wave (km/s) = 3.30316 8.80338 6.64870
# Velocity P-wave (km/s) = 5.42143 11.05546 8.70676
#
# Compressibility (1/GPa) = 0.03304432
#
# Stress axis : x y z
#
# Youngs Moduli (GPa) = 61.40112 44.64590 25.80425
#
# Poissons Ratio (x) = 0.35628 0.00678
# Poissons Ratio (y) = 0.48999 0.36007
# Poissons Ratio (z) = 0.01613 0.62299
#
# Static dielectric constant tensor:
#      x y z
#    x 1.723420 0.000000 0.000000 
#    y 0.000000 1.771280 0.000000 
#    z 0.000000 0.000000 1.732550 
# 
# From -- ./inp_files/23779.got.cif
#   From: 2010.05.17/outbox.cif.g08.bks.cpg/sg73_12_cif.got.tgz:23779.got - 2010.06.03 17:35:07.
