data_PCOD9529432
_publ_section_title
;
Structure prediction by ZEFSAII (Michael W. Deem and Ramdas Pophale) SiO2 
 PCOD9529432
Probable space group: I B A M
;
_chemical_formula_sum "Si O2"
_cell_formula_units_Z 64
_cell_length_a 8.891806
_cell_length_b 13.389197
_cell_length_c 24.167732
_cell_angle_alpha 90.000000
_cell_angle_beta 90.000000
_cell_angle_gamma 90.000000
_cell_volume 2877.268603
_symmetry_space_group_name_H-M "I B A M"
_symmetry_group_IT_number 72
_symmetry_cell_setting 'orthorhombic'
loop_
_space_group_symop_operation_xyz
x,y,z
-x,-y,z
x,-y,1/2-z
-x,y,1/2-z
-x,-y,-z
x,y,-z
-x,y,1/2+z
x,-y,1/2+z
1/2+x,1/2+y,1/2+z
1/2-x,1/2-y,1/2+z
1/2+x,1/2-y,-z
1/2-x,1/2+y,-z
1/2-x,1/2-y,1/2-z
1/2+x,1/2+y,1/2-z
1/2-x,1/2+y,z
1/2+x,1/2-y,z
loop_
_atom_site_type_symbol
_atom_site_label
_atom_site_fract_x
_atom_site_fract_y
_atom_site_fract_z
Si Si1 0.261012 0.044618 0.620528
Si Si2 0.758839 0.556037 0.000000
Si Si3 0.134130 0.813250 0.211887
Si Si4 0.431259 0.840792 0.500000
Si Si5 0.581804 0.156403 0.381643
O O1 0.181859 0.058490 0.560396
O O2 0.195271 0.096878 0.674421
O O3 0.424634 0.097296 0.613873
O O4 0.291867 0.927347 0.629157
O O5 0.848751 0.449304 0.000000
O O6 0.890056 0.639433 0.000000
O O7 0.250000 0.750000 0.250000
O O8 0.073744 0.734128 0.167072
O O9 0.000000 0.849415 0.250000
O O10 0.388909 0.793784 0.441450
#
# Coordination Sequence:
#
# PCOD9529432 Si02
#       5
#    16   8  16   8  16
#     4   9  18  36  61  87 114 156 195 246 299 355
#     4   7  12  27  56  89 114 137 194 246 294 352
#     4  12  24  39  56  85 123 159 206 246 280 353
#     4   7  12  27  56  89 110 141 192 245 292 366
#     4   9  18  36  61  85 116 153 196 244 306 351
#
# _framework density 22.243319
#
# number of rings (size 3 to 8) (size 9 to 14) (size 15 to 20)
#    0.000    2.750    2.500    3.000    0.000    2.000 
#    0.000    2.500    0.000    0.000    0.000    5.250 
#    0.000    0.000    0.000    0.000    0.000    0.500 
#
# Total GULP energy -178491.698269 kJ/mol
# GULP energy per Si atom -5577.865571 kJ/mol
# Density = 2.219269 g / cm^3
# Si number density = 22.243319 Si / 1000 Ang^3
#
#
#
# Elastic Constant Matrix: (Units=GPa)
#
#
# Indices 1 2 3 4 5 6 
#
# 1 40.0518 9.6310 46.7354 0.0000 0.0000 0.0000
# 2 9.6310 43.5061 36.6236 0.0000 0.0000 0.0000
# 3 46.7354 36.6236 199.6921 0.0000 0.0000 0.0000
# 4 0.0000 0.0000 0.0000 2766.5703 0.0000 0.0000
# 5 0.0000 0.0000 0.0000 0.0000 21.9006 0.0000
# 6 0.0000 0.0000 0.0000 0.0000 0.0000 19.6293
#
#
#
# Elastic Compliance Matrix: (Units=1/GPa)
#
#
# Indices 1 2 3 4 5 6 
#
# 1 0.034384 -0.000990 -0.007865 0.000000 0.000000 0.000000
# 2 -0.000990 0.027210 -0.004759 0.000000 0.000000 0.000000
# 3 -0.007865 -0.004759 0.007721 0.000000 0.000000 0.000000
# 4 0.000000 0.000000 0.000000 0.000361 0.000000 0.000000
# 5 0.000000 0.000000 0.000000 0.000000 0.045661 0.000000
# 6 0.000000 0.000000 0.000000 0.000000 0.000000 0.050944
#
#
# Mechanical properties :
#
#
# Convention : Reuss Voigt Hill
#
# Bulk Modulus (GPa) = 23.76055 52.13666 37.94860
# Shear Modulus (GPa) = 24.09174 574.30401 299.19788
#
# Velocity S-wave (km/s) = 3.29462 16.08578 11.61048
# Velocity P-wave (km/s) = 5.01777 19.19617 14.02981
#
# Compressibility (1/GPa) = 0.04208657
#
# Stress axis : x y z
#
# Youngs Moduli (GPa) = 29.08342 36.75070 129.51267
#
# Poissons Ratio (x) = 0.03640 1.01868
# Poissons Ratio (y) = 0.02880 0.61630
# Poissons Ratio (z) = 0.22875 0.17488
#
# Static dielectric constant tensor:
#      x y z
#    x 1.848880 0.000000 0.000000 
#    y 0.000000 1.810760 0.000000 
#    z 0.000000 0.000000 1.856230 
# 
# From -- ./inp_files/41957.got.cif
#   From: 2010.05.17/outbox.cif.g08.bks.cpg/sg72_21_cif.got.tgz:41957.got - 2010.06.03 17:03:01.
