data_PCOD9529480
_publ_section_title
;
Structure prediction by ZEFSAII (Michael W. Deem and Ramdas Pophale) SiO2 
 PCOD9529480
Probable space group: I B A M
;
_chemical_formula_sum "Si O2"
_cell_formula_units_Z 96
_cell_length_a 10.777944
_cell_length_b 29.254034
_cell_length_c 14.306091
_cell_angle_alpha 90.000000
_cell_angle_beta 90.000000
_cell_angle_gamma 90.000000
_cell_volume 4510.686747
_symmetry_space_group_name_H-M "I B A M"
_symmetry_group_IT_number 72
_symmetry_cell_setting 'orthorhombic'
loop_
_space_group_symop_operation_xyz
x,y,z
-x,-y,z
x,-y,1/2-z
-x,y,1/2-z
-x,-y,-z
x,y,-z
-x,y,1/2+z
x,-y,1/2+z
1/2+x,1/2+y,1/2+z
1/2-x,1/2-y,1/2+z
1/2+x,1/2-y,-z
1/2-x,1/2+y,-z
1/2-x,1/2-y,1/2-z
1/2+x,1/2+y,1/2-z
1/2-x,1/2+y,z
1/2+x,1/2-y,z
loop_
_atom_site_type_symbol
_atom_site_label
_atom_site_fract_x
_atom_site_fract_y
_atom_site_fract_z
Si Si1 0.512345 0.223792 0.144185
Si Si2 0.873272 0.975098 0.885974
Si Si3 0.477773 0.120523 0.611654
Si Si4 0.231730 0.879640 0.612779
Si Si5 0.875919 0.527391 0.114123
Si Si6 0.763123 0.777132 0.152013
O O1 0.500000 0.241267 0.250000
O O2 0.550074 0.170629 0.149560
O O3 0.373031 0.225518 0.105126
O O4 0.622662 0.252785 0.101318
O O5 0.851863 0.922477 0.856862
O O6 0.751437 0.003636 0.857512
O O7 0.873342 0.974214 0.000000
O O8 0.000000 0.000000 0.857181
O O9 0.462627 0.123881 0.500000
O O10 0.622569 0.108892 0.627684
O O11 0.392976 0.079408 0.646976
O O12 0.216807 0.873230 0.500000
O O13 0.208439 0.830955 0.661029
O O14 0.000000 0.500000 0.141078
O O15 0.875991 0.527989 0.000000
O O16 0.750000 0.750000 0.250000
#
# Coordination Sequence:
#
# PCOD9529480 Si02
#       6
#    16  16  16  16  16  16
#     4   9  18  33  50  67  92 120 162 196 240 288
#     4   9  16  26  41  66 102 133 156 188 231 285
#     4   9  16  27  47  72  94 122 159 197 234 278
#     4   9  16  28  47  71  99 131 161 195 243 286
#     4   9  14  24  43  65  91 123 157 185 219 276
#     4   9  18  33  51  69  90 124 166 200 238 292
#
# _framework density 21.282791
#
# number of rings (size 3 to 8) (size 9 to 14) (size 15 to 20)
#    0.000    3.000    1.667    0.000    0.000    0.667 
#    3.000    0.000    0.000    0.500    0.000    0.000 
#    0.000    0.000    0.000    0.000    0.000    0.333 
#
# Total GULP energy -267726.746499 kJ/mol
# GULP energy per Si atom -5577.640552 kJ/mol
# Density = 2.123435 g / cm^3
# Si number density = 21.282791 Si / 1000 Ang^3
#
#
#
# Elastic Constant Matrix: (Units=GPa)
#
#
# Indices 1 2 3 4 5 6 
#
# 1 161.9591 107.5972 1.1243 0.0000 0.0000 0.0000
# 2 107.5972 181.8144 18.7321 0.0000 0.0000 0.0000
# 3 1.1243 18.7321 77.1285 0.0002 0.0000 0.0000
# 4 0.0000 0.0000 0.0002 23.4909 0.0000 0.0000
# 5 0.0000 0.0000 0.0000 0.0000 -8.6056 0.0000
# 6 0.0000 0.0000 0.0000 0.0000 0.0000 42.6571
#
#
#
# Elastic Compliance Matrix: (Units=1/GPa)
#
#
# Indices 1 2 3 4 5 6 
#
# 1 0.010313 -0.006244 0.001366 0.000000 0.000000 0.000000
# 2 -0.006244 0.009422 -0.002197 0.000000 0.000000 0.000000
# 3 0.001366 -0.002197 0.013479 0.000000 0.000000 0.000000
# 4 0.000000 0.000000 0.000000 0.042570 0.000000 0.000000
# 5 0.000000 0.000000 0.000000 0.000000 -0.116204 0.000000
# 6 0.000000 0.000000 0.000000 0.000000 0.000000 0.023443
#
#
# Mechanical properties :
#
#
# Convention : Reuss Voigt Hill
#
# Bulk Modulus (GPa) = 52.45569 75.08992 63.77281
# Shear Modulus (GPa) = 1417.41326 31.07170 724.24248
#
# Velocity S-wave (km/s) = 25.83479 3.82507 18.46710
# Velocity P-wave (km/s) = 30.24261 7.40721 22.01684
#
# Compressibility (1/GPa) = 0.01906371
#
# Stress axis : x y z
#
# Youngs Moduli (GPa) = 96.96389 106.13816 74.18894
#
# Poissons Ratio (x) = 0.66273 -0.10135
# Poissons Ratio (y) = 0.60544 0.16301
# Poissons Ratio (z) = -0.13247 0.23321
#
# Static dielectric constant tensor:
#      x y z
#    x 1.800010 0.000000 0.000000 
#    y 0.000000 1.749430 0.000000 
#    z 0.000000 0.000000 1.826070 
# 
# From -- ./inp_files/29584.got.cif
#   From: 2010.05.17/outbox.cif.g08.bks.cpg/sg72_15_cif.got.tgz:29584.got - 2010.06.03 17:03:01.
