data_PCOD9529238
_publ_section_title
;
Structure prediction by ZEFSAII (Michael W. Deem and Ramdas Pophale) SiO2 
 PCOD9529238
Probable space group: I B A M
;
_chemical_formula_sum "Si O2"
_cell_formula_units_Z 96
_cell_length_a 17.670344
_cell_length_b 17.691171
_cell_length_c 18.104519
_cell_angle_alpha 90.000000
_cell_angle_beta 90.000000
_cell_angle_gamma 90.000000
_cell_volume 5659.636980
_symmetry_space_group_name_H-M "I B A M"
_symmetry_group_IT_number 72
_symmetry_cell_setting 'orthorhombic'
loop_
_space_group_symop_operation_xyz
x,y,z
-x,-y,z
x,-y,1/2-z
-x,y,1/2-z
-x,-y,-z
x,y,-z
-x,y,1/2+z
x,-y,1/2+z
1/2+x,1/2+y,1/2+z
1/2-x,1/2-y,1/2+z
1/2+x,1/2-y,-z
1/2-x,1/2+y,-z
1/2-x,1/2-y,1/2-z
1/2+x,1/2+y,1/2-z
1/2-x,1/2+y,z
1/2+x,1/2-y,z
loop_
_atom_site_type_symbol
_atom_site_label
_atom_site_fract_x
_atom_site_fract_y
_atom_site_fract_z
Si Si1 0.329071 0.667080 0.087442
Si Si2 0.413224 0.913026 0.727978
Si Si3 0.798605 0.299162 0.308119
Si Si4 0.771972 0.077888 0.912309
Si Si5 0.083337 0.018580 0.910273
Si Si6 0.174608 0.574024 0.914901
O O1 0.338319 0.740058 0.137090
O O2 0.386200 0.600805 0.111048
O O3 0.244675 0.631895 0.096855
O O4 0.338776 0.682088 0.000000
O O5 0.500000 0.898126 0.750000
O O6 0.357688 0.854234 0.767839
O O7 0.392468 0.909638 0.641483
O O8 0.396511 0.000000 0.750000
O O9 0.750000 0.250000 0.250000
O O10 0.747741 0.352666 0.360229
O O11 0.852919 0.042464 0.890815
O O12 0.711440 0.009325 0.903500
O O13 0.772860 0.097361 0.000000
O O14 0.081801 0.019007 0.000000
O O15 0.000000 0.000000 0.882697
O O16 0.151077 0.579430 0.000000
#
# Coordination Sequence:
#
# PCOD9529238 Si02
#       6
#    16  16  16  16  16  16
#     4   9  18  33  56  85 113 143 183 231 279 332
#     4  11  23  41  59  80 112 151 188 234 285 333
#     4  12  22  35  56  80 113 149 185 230 283 331
#     4   9  18  33  57  83 105 142 194 232 266 335
#     4   8  15  32  57  83 111 142 178 224 278 330
#     4   9  17  36  61  82 106 144 193 233 269 331
#
# _framework density 16.962218
#
# number of rings (size 3 to 8) (size 9 to 14) (size 15 to 20)
#    0.000    2.333    3.333    2.500    0.000    0.000 
#    3.000    3.333    0.000    1.000    0.000    0.000 
#    0.000    0.000    0.000    0.000    0.000    0.000 
#
# Total GULP energy -267566.458493 kJ/mol
# GULP energy per Si atom -5574.301219 kJ/mol
# Density = 1.692361 g / cm^3
# Si number density = 16.962218 Si / 1000 Ang^3
#
#
#
# Elastic Constant Matrix: (Units=GPa)
#
#
# Indices 1 2 3 4 5 6 
#
# 1 120.6187 64.1887 67.0750 0.0000 0.0000 0.0000
# 2 64.1887 123.9099 60.6281 0.0000 0.0000 0.0000
# 3 67.0750 60.6281 91.4148 0.0000 0.0000 0.0000
# 4 0.0000 0.0000 0.0000 32.9188 0.0000 0.0000
# 5 0.0000 0.0000 0.0000 0.0000 18.0906 0.0000
# 6 0.0000 0.0000 0.0000 0.0000 0.0000 18.3262
#
#
#
# Elastic Compliance Matrix: (Units=1/GPa)
#
#
# Indices 1 2 3 4 5 6 
#
# 1 0.014978 -0.003526 -0.008652 0.000000 0.000000 0.000000
# 2 -0.003526 0.012777 -0.005887 0.000000 0.000000 0.000000
# 3 -0.008652 -0.005887 0.021192 0.000000 0.000000 0.000000
# 4 0.000000 0.000000 0.000000 0.030378 0.000000 0.000000
# 5 0.000000 0.000000 0.000000 0.000000 0.055277 0.000000
# 6 0.000000 0.000000 0.000000 0.000000 0.000000 0.054567
#
#
# Mechanical properties :
#
#
# Convention : Reuss Voigt Hill
#
# Bulk Modulus (GPa) = 78.01604 79.96966 78.99285
# Shear Modulus (GPa) = 21.77979 23.47056 22.62518
#
# Velocity S-wave (km/s) = 3.58721 3.72384 3.65616
# Velocity P-wave (km/s) = 7.95307 8.10786 8.03084
#
# Compressibility (1/GPa) = 0.01281788
#
# Stress axis : x y z
#
# Youngs Moduli (GPa) = 66.76459 78.26312 47.18831
#
# Poissons Ratio (x) = 0.27594 0.40825
# Poissons Ratio (y) = 0.23540 0.27780
# Poissons Ratio (z) = 0.57762 0.46075
#
# Static dielectric constant tensor:
#      x y z
#    x 1.560400 0.000000 0.000000 
#    y 0.000000 1.568220 0.000000 
#    z 0.000000 0.000000 1.580280 
# 
# From -- ./inp_files/31651.got.cif
#   From: 2010.05.17/outbox.cif.g08.bks.cpg/sg72_16_cif.got.tgz:31651.got - 2010.06.03 17:03:01.
