data_PCOD9529435
_publ_section_title
;
Structure prediction by ZEFSAII (Michael W. Deem and Ramdas Pophale) SiO2 
 PCOD9529435
Probable space group: I B A M
;
_chemical_formula_sum "Si O2"
_cell_formula_units_Z 52
_cell_length_a 7.398734
_cell_length_b 21.074972
_cell_length_c 15.663793
_cell_angle_alpha 90.000000
_cell_angle_beta 90.000000
_cell_angle_gamma 90.000000
_cell_volume 2442.425667
_symmetry_space_group_name_H-M "I B A M"
_symmetry_group_IT_number 72
_symmetry_cell_setting 'orthorhombic'
loop_
_space_group_symop_operation_xyz
x,y,z
-x,-y,z
x,-y,1/2-z
-x,y,1/2-z
-x,-y,-z
x,y,-z
-x,y,1/2+z
x,-y,1/2+z
1/2+x,1/2+y,1/2+z
1/2-x,1/2-y,1/2+z
1/2+x,1/2-y,-z
1/2-x,1/2+y,-z
1/2-x,1/2-y,1/2-z
1/2+x,1/2+y,1/2-z
1/2-x,1/2+y,z
1/2+x,1/2-y,z
loop_
_atom_site_type_symbol
_atom_site_label
_atom_site_fract_x
_atom_site_fract_y
_atom_site_fract_z
Si Si1 0.741317 0.287815 0.160477
Si Si2 0.885984 0.661891 0.903606
Si Si3 0.000000 0.000000 0.500000
Si Si4 0.962364 0.902361 0.656005
O O1 0.750000 0.250000 0.250000
O O2 0.708872 0.230903 0.094677
O O3 0.578192 0.337250 0.155279
O O4 0.924904 0.325542 0.142684
O O5 0.748462 0.615503 0.855572
O O6 0.914802 0.638676 0.000000
O O7 0.015657 0.945433 0.576098
O O8 0.000000 0.929508 0.750000
#
# Coordination Sequence:
#
# PCOD9529435 Si02
#       4
#    16  16   4  16
#     4  12  24  41  72 112 150 180 235 307 394 454
#     4  12  24  39  68 112 146 184 235 304 389 450
#     4  12  30  52  70 102 140 218 262 294 370 458
#     4  12  26  48  74 103 149 193 252 314 369 461
#
# _framework density 21.290310999999999
#
# number of rings (size 3 to 8) (size 9 to 14) (size 15 to 20)
#    0.000    0.000    7.692    2.308    4.308    0.000 
#    0.000    3.077    0.000    3.692    0.000    0.000 
#    0.000    0.000    0.000    0.000    0.000    0.000 
#
# Total GULP energy -144878.216805 kJ/mol
# GULP energy per Si atom -5572.239108 kJ/mol
# Density = 2.124185 g / cm^3
# Si number density = 21.290311 Si / 1000 Ang^3
#
#
#
# Elastic Constant Matrix: (Units=GPa)
#
#
# Indices 1 2 3 4 5 6 
#
# 1 130.1091 3.1344 41.9001 0.0000 0.0000 0.0000
# 2 3.1344 71.6280 37.3025 0.0000 0.0000 0.0000
# 3 41.9001 37.3025 205.1134 0.0000 0.0000 0.0000
# 4 0.0000 0.0000 0.0000 42.4445 0.0000 0.0000
# 5 0.0000 0.0000 0.0000 0.0000 17.9744 0.0000
# 6 0.0000 0.0000 0.0000 0.0000 0.0000 -9.4979
#
#
#
# Elastic Compliance Matrix: (Units=1/GPa)
#
#
# Indices 1 2 3 4 5 6 
#
# 1 0.008248 0.000571 -0.001789 0.000000 0.000000 0.000000
# 2 0.000571 0.015461 -0.002928 0.000000 0.000000 0.000000
# 3 -0.001789 -0.002928 0.005773 0.000000 0.000000 0.000000
# 4 0.000000 0.000000 0.000000 0.023560 0.000000 0.000000
# 5 0.000000 0.000000 0.000000 0.000000 0.055635 0.000000
# 6 0.000000 0.000000 0.000000 0.000000 0.000000 -0.105287
#
#
# Mechanical properties :
#
#
# Convention : Reuss Voigt Hill
#
# Bulk Modulus (GPa) = 47.19294 63.50271 55.34783
# Shear Modulus (GPa) = 266.70801 31.81842 149.26321
#
# Velocity S-wave (km/s) = 11.20464 3.87007 8.38217
# Velocity P-wave (km/s) = 13.76977 7.06129 10.94231
#
# Compressibility (1/GPa) = 0.02118961
#
# Stress axis : x y z
#
# Youngs Moduli (GPa) = 121.23948 64.67853 173.21122
#
# Poissons Ratio (x) = -0.03690 0.30982
# Poissons Ratio (y) = -0.06918 0.50722
# Poissons Ratio (z) = 0.21686 0.18940
#
# Static dielectric constant tensor:
#      x y z
#    x 1.792730 0.000000 0.000000 
#    y 0.000000 1.748750 0.000000 
#    z 0.000000 0.000000 1.830280 
# 
# From -- ./inp_files/18498.got.cif
#   From: 2010.05.17/outbox.cif.g08.bks.cpg/sg72_10_cif.got.tgz:18498.got - 2010.06.03 17:03:01.
