data_PCOD9529482
_publ_section_title
;
Structure prediction by ZEFSAII (Michael W. Deem and Ramdas Pophale) SiO2 
 PCOD9529482
Probable space group: I B A M
;
_chemical_formula_sum "Si O2"
_cell_formula_units_Z 96
_cell_length_a 23.832600
_cell_length_b 10.545255
_cell_length_c 14.543197
_cell_angle_alpha 90.000000
_cell_angle_beta 90.000000
_cell_angle_gamma 90.000000
_cell_volume 3655.008549
_symmetry_space_group_name_H-M "I B A M"
_symmetry_group_IT_number 72
_symmetry_cell_setting 'orthorhombic'
loop_
_space_group_symop_operation_xyz
x,y,z
-x,-y,z
x,-y,1/2-z
-x,y,1/2-z
-x,-y,-z
x,y,-z
-x,y,1/2+z
x,-y,1/2+z
1/2+x,1/2+y,1/2+z
1/2-x,1/2-y,1/2+z
1/2+x,1/2-y,-z
1/2-x,1/2+y,-z
1/2-x,1/2-y,1/2-z
1/2+x,1/2+y,1/2-z
1/2-x,1/2+y,z
1/2+x,1/2-y,z
loop_
_atom_site_type_symbol
_atom_site_label
_atom_site_fract_x
_atom_site_fract_y
_atom_site_fract_z
Si Si1 0.066111 0.999874 0.387593
Si Si2 0.243793 0.330117 0.888117
Si Si3 0.017408 0.353078 0.152321
Si Si4 0.313990 0.429158 0.387512
Si Si5 0.369834 0.035154 0.610433
Si Si6 0.593508 0.766154 0.899025
O O1 0.063915 0.000209 0.500000
O O2 0.091783 0.132213 0.351966
O O3 0.119560 0.909325 0.364912
O O4 0.000000 0.000000 0.358908
O O5 0.292410 0.429483 0.859125
O O6 0.228500 0.185458 0.857347
O O7 0.188851 0.409998 0.862541
O O8 0.247264 0.322268 0.000000
O O9 0.081984 0.364099 0.132871
O O10 0.000000 0.500000 0.150486
O O11 0.000000 0.299506 0.250000
O O12 0.973070 0.288961 0.087566
O O13 0.311347 0.427782 0.500000
O O14 0.371834 0.020579 0.500000
O O15 0.382656 0.893251 0.647234
O O16 0.620836 0.752612 0.000000
#
# Coordination Sequence:
#
# PCOD9529482 Si02
#       6
#    16  16  16  16  16  16
#     4   9  18  29  44  67  99 136 172 211 260 315
#     4   9  18  29  46  69 101 138 173 215 261 307
#     4   9  17  29  45  69 102 133 171 207 252 310
#     4   9  18  30  44  67 100 139 177 212 258 312
#     4   9  17  28  46  73 102 134 171 216 263 307
#     4   9  17  28  46  70 100 132 167 210 256 305
#
# _framework density 26.265329999999999
#
# number of rings (size 3 to 8) (size 9 to 14) (size 15 to 20)
#    0.000    3.000    0.000    0.500    4.667    2.000 
#    0.000    0.000    0.000    0.500    0.000    1.167 
#    0.000    0.000    0.000    0.000    0.000    0.000 
#
# Total GULP energy -267409.975274 kJ/mol
# GULP energy per Si atom -5571.041152 kJ/mol
# Density = 2.620555 g / cm^3
# Si number density = 26.265330 Si / 1000 Ang^3
#
#
#
# Elastic Constant Matrix: (Units=GPa)
#
#
# Indices 1 2 3 4 5 6 
#
# 1 216.2436 67.8656 0.0125 0.0000 0.0000 0.0000
# 2 67.8656 170.8760 6.2827 0.0000 0.0000 0.0000
# 3 0.0125 6.2827 53.1509 0.0000 0.0000 0.0000
# 4 0.0000 0.0000 0.0000 -64.3612 0.0000 0.0000
# 5 0.0000 0.0000 0.0000 0.0000 -11.6203 0.0000
# 6 0.0000 0.0000 0.0000 0.0000 0.0000 112.2896
#
#
#
# Elastic Compliance Matrix: (Units=1/GPa)
#
#
# Indices 1 2 3 4 5 6 
#
# 1 0.005286 -0.002109 0.000248 0.000000 0.000000 0.000000
# 2 -0.002109 0.006719 -0.000794 0.000000 0.000000 0.000000
# 3 0.000248 -0.000794 0.018908 0.000000 0.000000 0.000000
# 4 0.000000 0.000000 0.000000 -0.015537 0.000000 0.000000
# 5 0.000000 0.000000 0.000000 0.000000 -0.086056 0.000000
# 6 0.000000 0.000000 0.000000 0.000000 0.000000 0.008906
#
#
# Mechanical properties :
#
#
# Convention : Reuss Voigt Hill
#
# Bulk Modulus (GPa) = 39.05561 65.39914 52.22738
# Shear Modulus (GPa) = -104.31524 31.66893 -36.32316
#
# Velocity S-wave (km/s) = -6.30890 3.47613 -3.72281
# Velocity P-wave (km/s) = 6.17800 6.40818 1.20357
#
# Compressibility (1/GPa) = 0.02560452
#
# Stress axis : x y z
#
# Youngs Moduli (GPa) = 189.17337 148.83544 52.88737
#
# Poissons Ratio (x) = 0.31383 -0.01312
# Poissons Ratio (y) = 0.39889 0.04198
# Poissons Ratio (z) = -0.04691 0.11813
#
# Static dielectric constant tensor:
#      x y z
#    x 2.077860 0.000000 0.000000 
#    y 0.000000 2.110930 0.000000 
#    z 0.000000 0.000000 6.084710 
# 
# From -- ./inp_files/45354.got.cif
#   From: 2010.05.17/outbox.cif.g08.bks.cpg/sg72_23_cif.got.tgz:45354.got - 2010.06.03 17:03:01.
