data_PCOD9529343
_publ_section_title
;
Structure prediction by ZEFSAII (Michael W. Deem and Ramdas Pophale) SiO2 
 PCOD9529343
Probable space group: I B A M
;
_chemical_formula_sum "Si O2"
_cell_formula_units_Z 56
_cell_length_a 11.539695
_cell_length_b 7.939145
_cell_length_c 27.765702
_cell_angle_alpha 90.000000
_cell_angle_beta 90.000000
_cell_angle_gamma 90.000000
_cell_volume 2543.763448
_symmetry_space_group_name_H-M "I B A M"
_symmetry_group_IT_number 72
_symmetry_cell_setting 'orthorhombic'
loop_
_space_group_symop_operation_xyz
x,y,z
-x,-y,z
x,-y,1/2-z
-x,y,1/2-z
-x,-y,-z
x,y,-z
-x,y,1/2+z
x,-y,1/2+z
1/2+x,1/2+y,1/2+z
1/2-x,1/2-y,1/2+z
1/2+x,1/2-y,-z
1/2-x,1/2+y,-z
1/2-x,1/2-y,1/2-z
1/2+x,1/2+y,1/2-z
1/2-x,1/2+y,z
1/2+x,1/2-y,z
loop_
_atom_site_type_symbol
_atom_site_label
_atom_site_fract_x
_atom_site_fract_y
_atom_site_fract_z
Si Si1 0.586604 0.157873 0.442880
Si Si2 0.864141 0.500782 0.695782
Si Si3 0.283396 0.693925 0.133140
Si Si4 0.000000 0.000000 0.896417
O O1 0.603885 0.148220 0.500000
O O2 0.712341 0.170471 0.416574
O O3 0.526264 0.333398 0.427713
O O4 0.500000 0.000000 0.430068
O O5 0.813711 0.500000 0.750000
O O6 0.816632 0.667921 0.672234
O O7 0.837365 0.364544 0.653898
O O8 0.000000 0.500000 0.700647
O O9 0.386378 0.555981 0.133342
#
# Coordination Sequence:
#
# PCOD9529343 Si02
#       4
#    16  16  16   8
#     4  11  26  47  73 107 147 192 243 301 361 429
#     4  11  25  45  72 102 138 184 239 302 367 431
#     4  12  23  47  71 102 144 185 238 301 360 435
#     4  12  25  44  73 106 144 188 245 288 365 432
#
# _framework density 22.014627000000001
#
# number of rings (size 3 to 8) (size 9 to 14) (size 15 to 20)
#    0.000    0.571    2.857    5.571    0.000    2.286 
#    0.000    0.000    0.000    0.857    0.000    0.000 
#    0.000    0.000    0.000    0.000    0.000    0.000 
#
# Total GULP energy -156036.334287 kJ/mol
# GULP energy per Si atom -5572.726225 kJ/mol
# Density = 2.196452 g / cm^3
# Si number density = 22.014627 Si / 1000 Ang^3
#
#
#
# Elastic Constant Matrix: (Units=GPa)
#
#
# Indices 1 2 3 4 5 6 
#
# 1 107.7117 33.4886 33.4637 0.0000 0.0000 0.0000
# 2 33.4886 124.9928 30.0083 0.0000 0.0000 0.0000
# 3 33.4637 30.0083 118.2789 0.0000 0.0000 0.0000
# 4 0.0000 0.0000 0.0000 60.1955 0.0000 0.0000
# 5 0.0000 0.0000 0.0000 0.0000 18.8470 0.0000
# 6 0.0000 0.0000 0.0000 0.0000 0.0000 30.5382
#
#
#
# Elastic Compliance Matrix: (Units=1/GPa)
#
#
# Indices 1 2 3 4 5 6 
#
# 1 0.010762 -0.002292 -0.002463 0.000000 0.000000 0.000000
# 2 -0.002292 0.009008 -0.001637 0.000000 0.000000 0.000000
# 3 -0.002463 -0.001637 0.009567 0.000000 0.000000 0.000000
# 4 0.000000 0.000000 0.000000 0.016613 0.000000 0.000000
# 5 0.000000 0.000000 0.000000 0.000000 0.053059 0.000000
# 6 0.000000 0.000000 0.000000 0.000000 0.000000 0.032746
#
#
# Mechanical properties :
#
#
# Convention : Reuss Voigt Hill
#
# Bulk Modulus (GPa) = 60.41559 60.54495 60.48027
# Shear Modulus (GPa) = 33.32107 38.85099 36.08603
#
# Velocity S-wave (km/s) = 3.89471 4.20549 4.05308
# Velocity P-wave (km/s) = 6.90854 7.15146 7.03105
#
# Compressibility (1/GPa) = 0.01655202
#
# Stress axis : x y z
#
# Youngs Moduli (GPa) = 92.92009 111.01848 104.52837
#
# Poissons Ratio (x) = 0.25445 0.25748
# Poissons Ratio (y) = 0.21297 0.17109
# Poissons Ratio (z) = 0.22889 0.18172
#
# Static dielectric constant tensor:
#      x y z
#    x 1.876830 0.000000 0.000000 
#    y 0.000000 2.025250 0.000000 
#    z 0.000000 0.000000 1.822490 
# 
# From -- ./inp_files/46882.got.cif
#   From: 2010.05.17/outbox.cif.g08.bks.cpg/sg72_24_cif.got.tgz:46882.got - 2010.06.03 17:03:01.
