data_PCOD9529369
_publ_section_title
;
Structure prediction by ZEFSAII (Michael W. Deem and Ramdas Pophale) SiO2 
 PCOD9529369
Probable space group: I B A M
;
_chemical_formula_sum "Si O2"
_cell_formula_units_Z 64
_cell_length_a 15.568859
_cell_length_b 10.664294
_cell_length_c 17.690821
_cell_angle_alpha 90.000000
_cell_angle_beta 90.000000
_cell_angle_gamma 90.000000
_cell_volume 2937.222749
_symmetry_space_group_name_H-M "I B A M"
_symmetry_group_IT_number 72
_symmetry_cell_setting 'orthorhombic'
loop_
_space_group_symop_operation_xyz
x,y,z
-x,-y,z
x,-y,1/2-z
-x,y,1/2-z
-x,-y,-z
x,y,-z
-x,y,1/2+z
x,-y,1/2+z
1/2+x,1/2+y,1/2+z
1/2-x,1/2-y,1/2+z
1/2+x,1/2-y,-z
1/2-x,1/2+y,-z
1/2-x,1/2-y,1/2-z
1/2+x,1/2+y,1/2-z
1/2-x,1/2+y,z
1/2+x,1/2-y,z
loop_
_atom_site_type_symbol
_atom_site_label
_atom_site_fract_x
_atom_site_fract_y
_atom_site_fract_z
Si Si1 0.056494 0.264889 0.180694
Si Si2 0.895813 0.515887 0.914586
Si Si3 0.805910 0.868669 0.270971
Si Si4 0.610019 0.269980 0.411303
O O1 0.116546 0.371496 0.143832
O O2 0.109434 0.153071 0.218682
O O3 0.000000 0.320989 0.250000
O O4 0.988370 0.221474 0.117746
O O5 0.863123 0.376108 0.896797
O O6 0.000000 0.500000 0.916117
O O7 0.868539 0.549447 0.000000
O O8 0.750000 0.750000 0.250000
O O9 0.834266 0.857931 0.357806
O O10 0.765594 0.000000 0.250000
O O11 0.616425 0.293583 0.500000
#
# Coordination Sequence:
#
# PCOD9529369 Si02
#       4
#    16  16  16  16
#     4   9  18  32  59  90 121 156 205 251 305 350
#     4   8  14  27  52  90 123 148 185 238 297 356
#     4  11  26  43  61  87 124 167 210 247 303 375
#     4   9  19  38  64  94 124 155 201 260 309 356
#
# _framework density 21.789290000000001
#
# number of rings (size 3 to 8) (size 9 to 14) (size 15 to 20)
#    0.000    2.750    0.000    2.250    3.500   15.000 
#    0.000    7.500    0.000    0.000    0.000    0.000 
#    0.000    0.000    0.000    0.000    0.000    0.000 
#
# Total GULP energy -178648.224813 kJ/mol
# GULP energy per Si atom -5582.757025 kJ/mol
# Density = 2.173970 g / cm^3
# Si number density = 21.789290 Si / 1000 Ang^3
#
#
#
# Elastic Constant Matrix: (Units=GPa)
#
#
# Indices 1 2 3 4 5 6 
#
# 1 35.2032 16.2541 25.9752 0.0000 0.0000 0.0000
# 2 16.2541 92.2674 51.6721 0.0000 0.0000 0.0000
# 3 25.9752 51.6721 139.2076 0.0000 0.0000 0.0000
# 4 0.0000 0.0000 0.0000 24.6862 0.0000 0.0000
# 5 0.0000 0.0000 0.0000 0.0000 13.1954 0.0000
# 6 0.0000 0.0000 0.0000 0.0000 0.0000 22.2644
#
#
#
# Elastic Compliance Matrix: (Units=1/GPa)
#
#
# Indices 1 2 3 4 5 6 
#
# 1 0.033604 -0.003040 -0.005142 0.000000 0.000000 0.000000
# 2 -0.003040 0.013957 -0.004613 0.000000 0.000000 0.000000
# 3 -0.005142 -0.004613 0.009855 0.000000 0.000000 0.000000
# 4 0.000000 0.000000 0.000000 0.040508 0.000000 0.000000
# 5 0.000000 0.000000 0.000000 0.000000 0.075784 0.000000
# 6 0.000000 0.000000 0.000000 0.000000 0.000000 0.044915
#
#
# Mechanical properties :
#
#
# Convention : Reuss Voigt Hill
#
# Bulk Modulus (GPa) = 31.42102 50.49788 40.95945
# Shear Modulus (GPa) = 19.62140 23.54767 21.58453
#
# Velocity S-wave (km/s) = 3.00410 3.29097 3.15080
# Velocity P-wave (km/s) = 5.14631 6.13730 5.66352
#
# Compressibility (1/GPa) = 0.03182583
#
# Stress axis : x y z
#
# Youngs Moduli (GPa) = 29.75815 71.64705 101.46720
#
# Poissons Ratio (x) = 0.21783 0.52172
# Poissons Ratio (y) = 0.09047 0.46812
# Poissons Ratio (z) = 0.15301 0.33054
#
# Static dielectric constant tensor:
#      x y z
#    x 1.846050 0.000000 0.000000 
#    y 0.000000 1.805530 0.000000 
#    z 0.000000 0.000000 1.791290 
# 
# From -- ./inp_files/28936.got.cif
#   From: 2010.05.17/outbox.cif.g08.bks.cpg/sg72_15_cif.got.tgz:28936.got - 2010.06.03 17:03:01.
