data_PCOD9529939
_publ_section_title
;
Structure prediction by ZEFSAII (Michael W. Deem and Ramdas Pophale) SiO2 
 PCOD9529939
Probable space group: I B C A 
;
_chemical_formula_sum "Si O2"
_cell_formula_units_Z 96
_cell_length_a 27.220350
_cell_length_b 8.312915
_cell_length_c 16.642262
_cell_angle_alpha 90.000000
_cell_angle_beta 90.000000
_cell_angle_gamma 90.000000
_cell_volume 3765.818631
_symmetry_space_group_name_H-M "I B C A "
_symmetry_group_IT_number 73
_symmetry_cell_setting 'orthorhombic'
loop_
_space_group_symop_operation_xyz
x,y,z
-x,1/2-y,z
x,-y,1/2-z
1/2-x,y,-z
-x,-y,-z
x,1/2+y,-z
-x,y,1/2+z
1/2+x,-y,z
1/2+x,1/2+y,1/2+z
1/2-x,-y,1/2+z
1/2+x,1/2-y,-z
-x,1/2+y,1/2-z
1/2-x,1/2-y,1/2-z
1/2+x,y,1/2-z
1/2-x,1/2+y,z
x,1/2-y,1/2+z
loop_
_atom_site_type_symbol
_atom_site_label
_atom_site_fract_x
_atom_site_fract_y
_atom_site_fract_z
Si Si1 0.700912 0.645249 0.102536
Si Si2 0.500000 0.750000 0.903737
Si Si3 0.896913 0.723665 0.154678
Si Si4 0.049915 0.699786 0.940026
Si Si5 0.359375 0.000000 0.250000
Si Si6 0.199693 0.510718 0.657059
Si Si7 0.883685 0.496250 0.977230
O O1 0.674464 0.552258 0.176166
O O2 0.758068 0.605257 0.108871
O O3 0.694445 0.834205 0.118506
O O4 0.670445 0.573920 0.027127
O O5 0.545161 0.680890 0.853610
O O6 0.473974 0.643775 0.972971
O O7 0.851592 0.604607 0.164962
O O8 0.892783 0.848529 0.228119
O O9 0.883285 0.835999 0.077465
O O10 0.091040 0.559823 0.938864
O O11 0.000000 0.750000 0.892957
O O12 0.082177 0.861121 0.942418
O O13 0.217557 0.500000 0.750000
#
# Coordination Sequence:
#
# PCOD9529939 Si02
#       7
#    16   8  16  16   8  16  16
#     4  11  22  37  64  95 127 162 211 255 320 376
#     4   8  20  38  62  84 120 168 208 264 298 376
#     4  10  21  37  61  90 130 163 211 255 314 367
#     4   9  19  38  65  89 119 162 222 257 319 366
#     4  10  18  36  56  88 128 162 200 256 300 380
#     4  12  22  40  64  94 127 174 207 255 312 393
#     4  10  21  37  63  96 120 162 209 275 305 376
#
# _framework density 25.492466
#
# number of rings (size 3 to 8) (size 9 to 14) (size 15 to 20)
#    0.500    1.333    2.500    3.000    0.000    2.667 
#    1.500    0.000    3.667   21.000    0.000    0.000 
#    0.000    0.000    0.000    0.000    0.000    0.000 
#
# Total GULP energy -267495.662706 kJ/mol
# GULP energy per Si atom -5572.826306 kJ/mol
# Density = 2.543444 g / cm^3
# Si number density = 25.492466 Si / 1000 Ang^3
#
#
#
# Elastic Constant Matrix: (Units=GPa)
#
#
# Indices 1 2 3 4 5 6 
#
# 1 191.7488 60.9093 42.5630 0.0000 0.0000 0.0000
# 2 60.9093 109.9474 12.6939 0.0000 0.0000 0.0000
# 3 42.5630 12.6939 39.5886 0.0000 0.0000 0.0000
# 4 0.0000 0.0000 0.0000 26.9448 0.0000 0.0000
# 5 0.0000 0.0000 0.0000 0.0000 26.2664 0.0000
# 6 0.0000 0.0000 0.0000 0.0000 0.0000 31.2306
#
#
#
# Elastic Compliance Matrix: (Units=1/GPa)
#
#
# Indices 1 2 3 4 5 6 
#
# 1 0.008007 -0.003574 -0.007463 0.000000 0.000000 0.000000
# 2 -0.003574 0.011040 0.000303 0.000000 0.000000 0.000000
# 3 -0.007463 0.000303 0.033186 0.000000 0.000000 0.000000
# 4 0.000000 0.000000 0.000000 0.037113 0.000000 0.000000
# 5 0.000000 0.000000 0.000000 0.000000 0.038071 0.000000
# 6 0.000000 0.000000 0.000000 0.000000 0.000000 0.032020
#
#
# Mechanical properties :
#
#
# Convention : Reuss Voigt Hill
#
# Bulk Modulus (GPa) = 32.50423 63.73524 48.11973
# Shear Modulus (GPa) = 26.15602 31.89628 29.02615
#
# Velocity S-wave (km/s) = 3.20664 3.54107 3.37800
# Velocity P-wave (km/s) = 5.14668 6.46334 5.84222
#
# Compressibility (1/GPa) = 0.03076523
#
# Stress axis : x y z
#
# Youngs Moduli (GPa) = 124.89128 90.57687 30.13323
#
# Poissons Ratio (x) = 0.32374 0.22487
# Poissons Ratio (y) = 0.44638 -0.00912
# Poissons Ratio (z) = 0.93200 -0.02741
#
# Static dielectric constant tensor:
#      x y z
#    x 2.124350 0.000000 0.000000 
#    y 0.000000 2.095480 0.000000 
#    z 0.000000 0.000000 2.146350 
# 
# From -- ./inp_files/32843.got.cif
#   From: 2010.05.17/outbox.cif.g08.bks.cpg/sg73_17_cif.got.tgz:32843.got - 2010.06.03 17:35:07.
