data_PCOD9529920
_publ_section_title
;
Structure prediction by ZEFSAII (Michael W. Deem and Ramdas Pophale) SiO2 
 PCOD9529920
Probable space group: I B C A 
;
_chemical_formula_sum "Si O2"
_cell_formula_units_Z 120
_cell_length_a 14.180733
_cell_length_b 18.594123
_cell_length_c 23.056978
_cell_angle_alpha 90.000000
_cell_angle_beta 90.000000
_cell_angle_gamma 90.000000
_cell_volume 6079.624615
_symmetry_space_group_name_H-M "I B C A "
_symmetry_group_IT_number 73
_symmetry_cell_setting 'orthorhombic'
loop_
_space_group_symop_operation_xyz
x,y,z
-x,1/2-y,z
x,-y,1/2-z
1/2-x,y,-z
-x,-y,-z
x,1/2+y,-z
-x,y,1/2+z
1/2+x,-y,z
1/2+x,1/2+y,1/2+z
1/2-x,-y,1/2+z
1/2+x,1/2-y,-z
-x,1/2+y,1/2-z
1/2-x,1/2-y,1/2-z
1/2+x,y,1/2-z
1/2-x,1/2+y,z
x,1/2-y,1/2+z
loop_
_atom_site_type_symbol
_atom_site_label
_atom_site_fract_x
_atom_site_fract_y
_atom_site_fract_z
Si Si1 0.565035 0.405037 0.822477
Si Si2 0.100850 0.932190 0.528077
Si Si3 0.133900 0.850754 0.808951
Si Si4 0.737232 0.927334 0.783389
Si Si5 0.929815 0.981828 0.586571
Si Si6 0.284976 0.977205 0.110972
Si Si7 0.608368 0.271934 0.900716
Si Si8 0.250000 0.811822 0.500000
O O1 0.474314 0.368854 0.795354
O O2 0.650766 0.417883 0.779491
O O3 0.538883 0.479401 0.854211
O O4 0.601444 0.350937 0.872627
O O5 0.072754 0.957405 0.463798
O O6 0.171529 0.865377 0.527613
O O7 0.155518 0.000492 0.555384
O O8 0.005520 0.924002 0.565153
O O9 0.189801 0.860865 0.749087
O O10 0.170855 0.912240 0.853159
O O11 0.136798 0.778782 0.846625
O O12 0.708159 0.000000 0.750000
O O13 0.716346 0.950095 0.849389
O O14 0.822517 0.958274 0.595818
O O15 0.500000 0.250000 0.918834
O O16 0.687195 0.270139 0.951536
#
# Coordination Sequence:
#
# PCOD9529920 Si02
#       8
#    16  16  16  16  16  16  16   8
#     4  10  18  38  58  79 116 149 194 239 292 362
#     4  11  19  32  59  86 116 151 189 240 302 351
#     4  10  21  38  55  82 114 152 201 236 291 361
#     4   9  20  34  57  86 110 142 189 247 308 343
#     4  10  19  31  55  89 116 147 187 245 296 359
#     4  10  18  35  53  87 119 145 185 247 310 347
#     4  10  23  40  61  80 115 168 205 236 291 363
#     4  12  20  40  58  86 122 162 202 248 302 362
#
# _framework density 19.738060000000001
#
# number of rings (size 3 to 8) (size 9 to 14) (size 15 to 20)
#    0.000    1.867    4.000    0.800    0.000    2.133 
#    7.200    0.000    0.000    0.000    0.000    0.000 
#    0.000    0.000    0.000    0.000    0.000    0.000 
#
# Total GULP energy -334424.766335 kJ/mol
# GULP energy per Si atom -5573.746106 kJ/mol
# Density = 1.969314 g / cm^3
# Si number density = 19.738060 Si / 1000 Ang^3
#
#
#
# Elastic Constant Matrix: (Units=GPa)
#
#
# Indices 1 2 3 4 5 6 
#
# 1 96.9637 15.0644 37.7955 0.0000 0.0000 0.0000
# 2 15.0644 41.9267 13.8969 0.0000 0.0000 0.0000
# 3 37.7955 13.8969 46.0285 0.0000 0.0000 0.0000
# 4 0.0000 0.0000 0.0000 19.9917 0.0000 0.0000
# 5 0.0000 0.0000 0.0000 0.0000 41.0333 0.0000
# 6 0.0000 0.0000 0.0000 0.0000 0.0000 22.6475
#
#
#
# Elastic Compliance Matrix: (Units=1/GPa)
#
#
# Indices 1 2 3 4 5 6 
#
# 1 0.015250 -0.001477 -0.012076 0.000000 0.000000 0.000000
# 2 -0.001477 0.026646 -0.006833 0.000000 0.000000 0.000000
# 3 -0.012076 -0.006833 0.033705 0.000000 0.000000 0.000000
# 4 0.000000 0.000000 0.000000 0.050021 0.000000 0.000000
# 5 0.000000 0.000000 0.000000 0.000000 0.024370 0.000000
# 6 0.000000 0.000000 0.000000 0.000000 0.000000 0.044155
#
#
# Mechanical properties :
#
#
# Convention : Reuss Voigt Hill
#
# Bulk Modulus (GPa) = 28.71082 35.38138 32.04610
# Shear Modulus (GPa) = 20.28167 24.61197 22.44682
#
# Velocity S-wave (km/s) = 3.20901 3.53502 3.37595
# Velocity P-wave (km/s) = 5.32051 5.88440 5.60954
#
# Compressibility (1/GPa) = 0.03483008
#
# Stress axis : x y z
#
# Youngs Moduli (GPa) = 65.57480 37.52858 29.66937
#
# Poissons Ratio (x) = 0.05541 0.35830
# Poissons Ratio (y) = 0.09682 0.20272
# Poissons Ratio (z) = 0.79190 0.25642
#
# Static dielectric constant tensor:
#      x y z
#    x 1.728390 0.000000 0.000000 
#    y 0.000000 1.683550 0.000000 
#    z 0.000000 0.000000 1.738580 
# 
# From -- ./inp_files/29641.got.cif
#   From: 2010.05.17/outbox.cif.g08.bks.cpg/sg73_15_cif.got.tgz:29641.got - 2010.06.03 17:35:07.
