data_PCOD9529060
_publ_section_title
;
Structure prediction by ZEFSAII (Michael W. Deem and Ramdas Pophale) SiO2 
 PCOD9529060
Probable space group: I B A M
;
_chemical_formula_sum "Si O2"
_cell_formula_units_Z 84
_cell_length_a 10.157648
_cell_length_b 24.104413
_cell_length_c 18.791117
_cell_angle_alpha 90.000000
_cell_angle_beta 90.000000
_cell_angle_gamma 90.000000
_cell_volume 4600.894928
_symmetry_space_group_name_H-M "I B A M"
_symmetry_group_IT_number 72
_symmetry_cell_setting 'orthorhombic'
loop_
_space_group_symop_operation_xyz
x,y,z
-x,-y,z
x,-y,1/2-z
-x,y,1/2-z
-x,-y,-z
x,y,-z
-x,y,1/2+z
x,-y,1/2+z
1/2+x,1/2+y,1/2+z
1/2-x,1/2-y,1/2+z
1/2+x,1/2-y,-z
1/2-x,1/2+y,-z
1/2-x,1/2-y,1/2-z
1/2+x,1/2+y,1/2-z
1/2-x,1/2+y,z
1/2+x,1/2-y,z
loop_
_atom_site_type_symbol
_atom_site_label
_atom_site_fract_x
_atom_site_fract_y
_atom_site_fract_z
Si Si1 0.222925 0.543925 0.500000
Si Si2 0.774492 0.685422 0.500000
Si Si3 0.075445 0.351046 0.000000
Si Si4 0.500000 0.500000 0.250000
Si Si5 0.566342 0.573639 0.117783
Si Si6 0.349624 0.565574 0.000000
Si Si7 0.560066 0.696025 0.174108
Si Si8 0.826335 0.269687 0.617897
O O1 0.096025 0.582965 0.500000
O O2 0.308081 0.561280 0.430986
O O3 0.228560 0.477400 0.500000
O O4 0.694159 0.628739 0.500000
O O5 0.736975 0.722736 0.432544
O O6 0.926199 0.668989 0.500000
O O7 0.143215 0.322683 0.931410
O O8 0.571497 0.541313 0.193307
O O9 0.440140 0.556135 0.069801
O O10 0.554089 0.639665 0.128724
O O11 0.500000 0.681510 0.250000
O O12 0.712198 0.715019 0.173782
O O13 0.463009 0.744090 0.145482
#
# Coordination Sequence:
#
# PCOD9529060 Si02
#       8
#     8   8   8   4  16   8  16  16
#     4  11  21  37  58  85 116 149 196 246 290 352
#     4  11  22  36  61  84 115 154 194 252 302 345
#     4  11  22  36  61  84 115 154 194 252 302 345
#     4  12  20  38  56  92 122 142 184 256 298 344
#     4  11  21  34  60  90 115 146 192 242 300 345
#     4  11  21  37  58  85 116 149 196 246 290 352
#     4  12  23  38  59  89 119 164 197 237 295 372
#     4  11  23  38  58  88 121 151 202 244 300 354
#
# _framework density 18.257317
#
# number of rings (size 3 to 8) (size 9 to 14) (size 15 to 20)
#    0.000    0.762    8.571    1.143    0.000    0.381 
#    0.000    0.000    0.000    0.000    0.000    1.333 
#    0.000    0.000    0.000    0.000    0.000    0.000 
#
# Total GULP energy -234245.085930 kJ/mol
# GULP energy per Si atom -5577.263951 kJ/mol
# Density = 1.821576 g / cm^3
# Si number density = 18.257317 Si / 1000 Ang^3
#
#
#
# Elastic Constant Matrix: (Units=GPa)
#
#
# Indices 1 2 3 4 5 6 
#
# 1 58.7215 -6.4172 3.0542 0.0000 0.0000 0.0000
# 2 -6.4172 78.9537 -3.0897 0.0000 0.0000 0.0000
# 3 3.0542 -3.0897 69.5637 0.0000 0.0000 0.0000
# 4 0.0000 0.0000 0.0000 -7.2752 0.0000 0.0000
# 5 0.0000 0.0000 0.0000 0.0000 13.3162 0.0000
# 6 0.0000 0.0000 0.0000 0.0000 0.0000 24.4029
#
#
#
# Elastic Compliance Matrix: (Units=1/GPa)
#
#
# Indices 1 2 3 4 5 6 
#
# 1 0.017216 0.001372 -0.000695 0.000000 0.000000 0.000000
# 2 0.001372 0.012797 0.000508 0.000000 0.000000 0.000000
# 3 -0.000695 0.000508 0.014428 0.000000 0.000000 0.000000
# 4 0.000000 0.000000 0.000000 -0.137453 0.000000 0.000000
# 5 0.000000 0.000000 0.000000 0.000000 0.075097 0.000000
# 6 0.000000 0.000000 0.000000 0.000000 0.000000 0.040979
#
#
# Mechanical properties :
#
#
# Convention : Reuss Voigt Hill
#
# Bulk Modulus (GPa) = 21.36220 21.59261 21.47740
# Shear Modulus (GPa) = 137.75266 20.33487 79.04377
#
# Velocity S-wave (km/s) = 8.69566 3.34097 6.58698
# Velocity P-wave (km/s) = 10.60874 5.17062 8.34508
#
# Compressibility (1/GPa) = 0.04681166
#
# Stress axis : x y z
#
# Youngs Moduli (GPa) = 58.08673 78.14300 69.30780
#
# Poissons Ratio (x) = -0.10722 0.04816
# Poissons Ratio (y) = -0.07970 -0.03522
# Poissons Ratio (z) = 0.04037 -0.03971
#
# Static dielectric constant tensor:
#      x y z
#    x 1.613740 0.000000 0.000000 
#    y 0.000000 1.647010 0.000000 
#    z 0.000000 0.000000 1.625870 
# 
# From -- ./inp_files/29254.got.cif
#   From: 2010.05.17/outbox.cif.g08.bks.cpg/sg72_15_cif.got.tgz:29254.got - 2010.06.03 17:03:01.
