data_PCOD9529262
_publ_section_title
;
Structure prediction by ZEFSAII (Michael W. Deem and Ramdas Pophale) SiO2 
 PCOD9529262
Probable space group: I B A M
;
_chemical_formula_sum "Si O2"
_cell_formula_units_Z 72
_cell_length_a 27.032519
_cell_length_b 9.545667
_cell_length_c 14.529195
_cell_angle_alpha 90.000000
_cell_angle_beta 90.000000
_cell_angle_gamma 90.000000
_cell_volume 3749.163234
_symmetry_space_group_name_H-M "I B A M"
_symmetry_group_IT_number 72
_symmetry_cell_setting 'orthorhombic'
loop_
_space_group_symop_operation_xyz
x,y,z
-x,-y,z
x,-y,1/2-z
-x,y,1/2-z
-x,-y,-z
x,y,-z
-x,y,1/2+z
x,-y,1/2+z
1/2+x,1/2+y,1/2+z
1/2-x,1/2-y,1/2+z
1/2+x,1/2-y,-z
1/2-x,1/2+y,-z
1/2-x,1/2-y,1/2-z
1/2+x,1/2+y,1/2-z
1/2-x,1/2+y,z
1/2+x,1/2-y,z
loop_
_atom_site_type_symbol
_atom_site_label
_atom_site_fract_x
_atom_site_fract_y
_atom_site_fract_z
Si Si1 0.703703 0.283205 0.500000
Si Si2 0.456573 0.608564 0.610726
Si Si3 0.320130 0.272052 0.500000
Si Si4 0.869819 0.527747 0.500000
Si Si5 0.655119 0.508636 0.856958
Si Si6 0.451211 0.924392 0.347252
O O1 0.762025 0.260938 0.500000
O O2 0.675262 0.136247 0.500000
O O3 0.685412 0.372329 0.588155
O O4 0.500000 0.500000 0.634208
O O5 0.458604 0.633583 0.500000
O O6 0.402939 0.544982 0.633012
O O7 0.461315 0.758767 0.659245
O O8 0.333894 0.365676 0.588581
O O9 0.350373 0.129315 0.500000
O O10 0.904387 0.555957 0.587674
O O11 0.668133 0.500000 0.750000
O O12 0.500000 0.000000 0.387012
O O13 0.442571 0.000000 0.250000
#
# Coordination Sequence:
#
# PCOD9529262 Si02
#       6
#     8  16   8   8  16  16
#     4  11  23  52  64  94 136 171 223 286 337 383
#     4  11  23  43  71  97 136 183 222 268 324 394
#     4  11  27  42  72  97 124 180 220 282 336 395
#     4  12  23  42  71  92 134 175 218 268 336 389
#     4  11  24  44  69 100 134 170 225 273 330 402
#     4  11  25  40  63 100 140 171 212 266 325 392
#
# _framework density 19.204286
#
# number of rings (size 3 to 8) (size 9 to 14) (size 15 to 20)
#    0.000    0.889    5.556    1.667    6.222    3.111 
#    0.000    2.222    0.000    0.000    0.000    0.000 
#    0.000    0.000    0.000    0.000    0.000    0.000 
#
# Total GULP energy -201384.146417 kJ/mol
# GULP energy per Si atom -5594.004067 kJ/mol
# Density = 1.916058 g / cm^3
# Si number density = 19.204286 Si / 1000 Ang^3
#
#
#
# Elastic Constant Matrix: (Units=GPa)
#
#
# Indices 1 2 3 4 5 6 
#
# 1 131.2021 74.7464 27.3937 0.0000 0.0000 0.0000
# 2 74.7464 188.4774 68.5062 0.0000 0.0000 0.0000
# 3 27.3937 68.5062 146.1736 0.0000 0.0000 0.0000
# 4 0.0000 0.0000 0.0000 16.6014 0.0000 0.0000
# 5 0.0000 0.0000 0.0000 0.0000 -49.4126 0.0000
# 6 0.0000 0.0000 0.0000 0.0000 0.0000 90.9306
#
#
#
# Elastic Compliance Matrix: (Units=1/GPa)
#
#
# Indices 1 2 3 4 5 6 
#
# 1 0.009847 -0.003898 -0.000018 0.000000 0.000000 0.000000
# 2 -0.003898 0.007938 -0.002990 0.000000 0.000000 0.000000
# 3 -0.000018 -0.002990 0.008246 0.000000 0.000000 0.000000
# 4 0.000000 0.000000 0.000000 0.060236 0.000000 0.000000
# 5 0.000000 0.000000 0.000000 0.000000 -0.020238 0.000000
# 6 0.000000 0.000000 0.000000 0.000000 0.000000 0.010997
#
#
# Mechanical properties :
#
#
# Convention : Reuss Voigt Hill
#
# Bulk Modulus (GPa) = 81.84750 89.68283 85.76517
# Shear Modulus (GPa) = 52.68050 31.30433 41.99241
#
# Velocity S-wave (km/s) = 5.24320 4.04179 4.68120
# Velocity P-wave (km/s) = 8.90881 8.28144 8.60084
#
# Compressibility (1/GPa) = 0.01221784
#
# Stress axis : x y z
#
# Youngs Moduli (GPa) = 101.55875 125.97017 121.27305
#
# Poissons Ratio (x) = 0.49107 0.00222
# Poissons Ratio (y) = 0.39590 0.36259
# Poissons Ratio (z) = 0.00186 0.37663
#
# Static dielectric constant tensor:
#      x y z
#    x 1.564010 0.000000 0.000000 
#    y 0.000000 1.652730 0.000000 
#    z 0.000000 0.000000 1.675430 
# 
# From -- ./inp_files/18951.got.cif
#   From: 2010.05.17/outbox.cif.g08.bks.cpg/sg72_10_cif.got.tgz:18951.got - 2010.06.03 17:03:01.
