data_PCOD9529269
_publ_section_title
;
Structure prediction by ZEFSAII (Michael W. Deem and Ramdas Pophale) SiO2 
 PCOD9529269
Probable space group: I B A M
;
_chemical_formula_sum "Si O2"
_cell_formula_units_Z 88
_cell_length_a 14.806180
_cell_length_b 18.508934
_cell_length_c 15.068324
_cell_angle_alpha 90.000000
_cell_angle_beta 90.000000
_cell_angle_gamma 90.000000
_cell_volume 4129.423087
_symmetry_space_group_name_H-M "I B A M"
_symmetry_group_IT_number 72
_symmetry_cell_setting 'orthorhombic'
loop_
_space_group_symop_operation_xyz
x,y,z
-x,-y,z
x,-y,1/2-z
-x,y,1/2-z
-x,-y,-z
x,y,-z
-x,y,1/2+z
x,-y,1/2+z
1/2+x,1/2+y,1/2+z
1/2-x,1/2-y,1/2+z
1/2+x,1/2-y,-z
1/2-x,1/2+y,-z
1/2-x,1/2-y,1/2-z
1/2+x,1/2+y,1/2-z
1/2-x,1/2+y,z
1/2+x,1/2-y,z
loop_
_atom_site_type_symbol
_atom_site_label
_atom_site_fract_x
_atom_site_fract_y
_atom_site_fract_z
Si Si1 0.900416 0.024062 0.855785
Si Si2 0.595014 0.648420 0.000000
Si Si3 0.601492 0.875022 0.841616
Si Si4 0.102957 0.648589 0.356346
Si Si5 0.400679 0.727510 0.000000
Si Si6 0.800679 0.294630 0.000000
Si Si7 0.201596 0.494535 0.900002
O O1 0.807536 0.989946 0.890491
O O2 0.898160 0.000000 0.750000
O O3 0.895349 0.101703 0.908434
O O4 0.000000 0.000000 0.885131
O O5 0.671899 0.710219 0.000000
O O6 0.494436 0.683925 0.000000
O O7 0.497229 0.884446 0.867566
O O8 0.610386 0.835919 0.747610
O O9 0.652593 0.829187 0.914766
O O10 0.647348 0.952902 0.835977
O O11 0.104267 0.719646 0.415258
O O12 0.176258 0.588598 0.382507
O O13 0.305205 0.686983 0.000000
O O14 0.172304 0.511606 0.000000
#
# Coordination Sequence:
#
# PCOD9529269 Si02
#       7
#    16   8  16  16   8   8  16
#     4  11  26  48  72 103 134 178 242 294 349 404
#     4  12  25  49  74 102 146 183 231 297 347 418
#     4  11  24  42  70 102 144 176 239 284 354 414
#     4  11  23  46  67 104 140 183 234 290 348 418
#     4  12  26  44  73  97 143 190 231 280 356 420
#     4  12  26  45  69 105 137 193 226 284 350 430
#     4  12  23  40  75 102 141 191 230 299 349 405
#
# _framework density 21.310483000000001
#
# number of rings (size 3 to 8) (size 9 to 14) (size 15 to 20)
#    0.000    0.545    4.545    3.545    2.545    2.909 
#    6.545    0.000    0.000    0.000    0.000    0.000 
#    0.000    0.000    0.000    0.000    0.000    0.000 
#
# Total GULP energy -245509.729619 kJ/mol
# GULP energy per Si atom -5579.766582 kJ/mol
# Density = 2.126198 g / cm^3
# Si number density = 21.310483 Si / 1000 Ang^3
#
#
#
# Elastic Constant Matrix: (Units=GPa)
#
#
# Indices 1 2 3 4 5 6 
#
# 1 118.1497 11.8297 27.8982 0.0000 0.0000 0.0000
# 2 11.8297 69.5343 39.4967 0.0000 0.0000 0.0000
# 3 27.8982 39.4967 120.6426 0.0000 0.0000 0.0000
# 4 0.0000 0.0000 0.0000 32.7002 0.0000 0.0000
# 5 0.0000 0.0000 0.0000 0.0000 28.3964 0.0000
# 6 0.0000 0.0000 0.0000 0.0000 0.0000 20.0026
#
#
#
# Elastic Compliance Matrix: (Units=1/GPa)
#
#
# Indices 1 2 3 4 5 6 
#
# 1 0.008963 -0.000427 -0.001933 0.000000 0.000000 0.000000
# 2 -0.000427 0.017687 -0.005692 0.000000 0.000000 0.000000
# 3 -0.001933 -0.005692 0.010599 0.000000 0.000000 0.000000
# 4 0.000000 0.000000 0.000000 0.030581 0.000000 0.000000
# 5 0.000000 0.000000 0.000000 0.000000 0.035216 0.000000
# 6 0.000000 0.000000 0.000000 0.000000 0.000000 0.049994
#
#
# Mechanical properties :
#
#
# Convention : Reuss Voigt Hill
#
# Bulk Modulus (GPa) = 47.28987 51.86399 49.57693
# Shear Modulus (GPa) = 28.37823 31.49331 29.93577
#
# Velocity S-wave (km/s) = 3.65314 3.84843 3.75206
# Velocity P-wave (km/s) = 6.32717 6.64359 6.48731
#
# Compressibility (1/GPa) = 0.02114618
#
# Stress axis : x y z
#
# Youngs Moduli (GPa) = 111.56993 56.53858 94.34567
#
# Poissons Ratio (x) = 0.02414 0.18236
# Poissons Ratio (y) = 0.04763 0.53699
# Poissons Ratio (z) = 0.21565 0.32180
#
# Static dielectric constant tensor:
#      x y z
#    x 1.760620 0.000000 0.000000 
#    y 0.000000 1.781770 0.000000 
#    z 0.000000 0.000000 1.793350 
# 
# From -- ./inp_files/21736.got.cif
#   From: 2010.05.17/outbox.cif.g08.bks.cpg/sg72_11_cif.got.tgz:21736.got - 2010.06.03 17:03:01.
