data_PCOD9529201
_publ_section_title
;
Structure prediction by ZEFSAII (Michael W. Deem and Ramdas Pophale) SiO2 
 PCOD9529201
Probable space group: I B A M
;
_chemical_formula_sum "Si O2"
_cell_formula_units_Z 64
_cell_length_a 8.789888
_cell_length_b 18.780646
_cell_length_c 17.807505
_cell_angle_alpha 90.000000
_cell_angle_beta 90.000000
_cell_angle_gamma 90.000000
_cell_volume 2939.658917
_symmetry_space_group_name_H-M "I B A M"
_symmetry_group_IT_number 72
_symmetry_cell_setting 'orthorhombic'
loop_
_space_group_symop_operation_xyz
x,y,z
-x,-y,z
x,-y,1/2-z
-x,y,1/2-z
-x,-y,-z
x,y,-z
-x,y,1/2+z
x,-y,1/2+z
1/2+x,1/2+y,1/2+z
1/2-x,1/2-y,1/2+z
1/2+x,1/2-y,-z
1/2-x,1/2+y,-z
1/2-x,1/2-y,1/2-z
1/2+x,1/2+y,1/2-z
1/2-x,1/2+y,z
1/2+x,1/2-y,z
loop_
_atom_site_type_symbol
_atom_site_label
_atom_site_fract_x
_atom_site_fract_y
_atom_site_fract_z
Si Si1 0.418377 0.140038 0.832303
Si Si2 0.132377 0.207928 0.696130
Si Si3 0.675942 0.526536 0.669008
Si Si4 0.201394 0.598404 0.585167
O O1 0.500000 0.130922 0.750000
O O2 0.427638 0.224135 0.849971
O O3 0.526166 0.102509 0.891822
O O4 0.249971 0.105434 0.835136
O O5 0.250000 0.250000 0.750000
O O6 0.207918 0.149414 0.643671
O O7 0.000000 0.178285 0.750000
O O8 0.500000 0.500000 0.668497
O O9 0.736152 0.500000 0.750000
O O10 0.745234 0.481110 0.601782
O O11 0.229234 0.619840 0.500000
#
# Coordination Sequence:
#
# PCOD9529201 Si02
#       4
#    16  16  16  16
#     4  11  22  43  70  99 135 187 241 279 342 431
#     4  11  22  43  73  99 133 183 239 282 337 430
#     4  11  24  40  70 101 134 184 237 284 343 422
#     4  12  27  43  67 106 142 174 228 300 360 405
#
# _framework density 21.771232999999999
#
# number of rings (size 3 to 8) (size 9 to 14) (size 15 to 20)
#    0.000    0.750    7.500    0.750    7.000    3.500 
#    0.000    0.000    0.000    0.000    0.000    0.000 
#    0.000    0.000    0.000    0.000    0.000    0.000 
#
# Total GULP energy -178535.594223 kJ/mol
# GULP energy per Si atom -5579.237319 kJ/mol
# Density = 2.172168 g / cm^3
# Si number density = 21.771233 Si / 1000 Ang^3
#
#
#
# Elastic Constant Matrix: (Units=GPa)
#
#
# Indices 1 2 3 4 5 6 
#
# 1 110.8203 41.3320 32.5355 0.0000 0.0000 0.0000
# 2 41.3320 95.4092 26.4479 0.0000 0.0000 0.0000
# 3 32.5355 26.4479 104.3229 0.0000 0.0000 0.0000
# 4 0.0000 0.0000 0.0000 18.8938 0.0000 0.0000
# 5 0.0000 0.0000 0.0000 0.0000 16.6613 0.0000
# 6 0.0000 0.0000 0.0000 0.0000 0.0000 43.0158
#
#
#
# Elastic Compliance Matrix: (Units=1/GPa)
#
#
# Indices 1 2 3 4 5 6 
#
# 1 0.011321 -0.004222 -0.002460 0.000000 0.000000 0.000000
# 2 -0.004222 0.012848 -0.001940 0.000000 0.000000 0.000000
# 3 -0.002460 -0.001940 0.010845 0.000000 0.000000 0.000000
# 4 0.000000 0.000000 0.000000 0.052927 0.000000 0.000000
# 5 0.000000 0.000000 0.000000 0.000000 0.060019 0.000000
# 6 0.000000 0.000000 0.000000 0.000000 0.000000 0.023247
#
#
# Mechanical properties :
#
#
# Convention : Reuss Voigt Hill
#
# Bulk Modulus (GPa) = 56.28127 56.79815 56.53971
# Shear Modulus (GPa) = 25.72331 29.72998 27.72665
#
# Velocity S-wave (km/s) = 3.44106 3.69936 3.57255
# Velocity P-wave (km/s) = 6.45718 6.66275 6.56077
#
# Compressibility (1/GPa) = 0.01776790
#
# Stress axis : x y z
#
# Youngs Moduli (GPa) = 88.33430 77.83213 92.20978
#
# Poissons Ratio (x) = 0.32862 0.22685
# Poissons Ratio (y) = 0.37297 0.17893
# Poissons Ratio (z) = 0.21732 0.15103
#
# Static dielectric constant tensor:
#      x y z
#    x 1.912790 0.000000 0.000000 
#    y 0.000000 1.908000 0.000000 
#    z 0.000000 0.000000 1.787130 
# 
# From -- ./inp_files/27651.got.cif
#   From: 2010.05.17/outbox.cif.g08.bks.cpg/sg72_14_cif.got.tgz:27651.got - 2010.06.03 17:03:01.
