data_PCOD9529822
_publ_section_title
;
Structure prediction by ZEFSAII (Michael W. Deem and Ramdas Pophale) SiO2 
 PCOD9529822
Probable space group: I B C A 
;
_chemical_formula_sum "Si O2"
_cell_formula_units_Z 104
_cell_length_a 17.141515
_cell_length_b 27.343552
_cell_length_c 10.740418
_cell_angle_alpha 90.000000
_cell_angle_beta 90.000000
_cell_angle_gamma 90.000000
_cell_volume 5034.140319
_symmetry_space_group_name_H-M "I B C A "
_symmetry_group_IT_number 73
_symmetry_cell_setting 'orthorhombic'
loop_
_space_group_symop_operation_xyz
x,y,z
-x,1/2-y,z
x,-y,1/2-z
1/2-x,y,-z
-x,-y,-z
x,1/2+y,-z
-x,y,1/2+z
1/2+x,-y,z
1/2+x,1/2+y,1/2+z
1/2-x,-y,1/2+z
1/2+x,1/2-y,-z
-x,1/2+y,1/2-z
1/2-x,1/2-y,1/2-z
1/2+x,y,1/2-z
1/2-x,1/2+y,z
x,1/2-y,1/2+z
loop_
_atom_site_type_symbol
_atom_site_label
_atom_site_fract_x
_atom_site_fract_y
_atom_site_fract_z
Si Si1 0.405318 0.190803 0.770625
Si Si2 0.050679 0.467589 0.399503
Si Si3 0.922727 0.000000 0.750000
Si Si4 0.403895 0.804662 0.232222
Si Si5 0.415178 0.859505 0.477864
Si Si6 0.601395 0.142744 0.015840
Si Si7 0.341404 0.531931 0.492439
O O1 0.500807 0.191014 0.767711
O O2 0.383395 0.247702 0.777388
O O3 0.372489 0.167564 0.644106
O O4 0.381964 0.159264 0.891312
O O5 0.084307 0.417152 0.450234
O O6 0.123237 0.503934 0.388771
O O7 0.000000 0.500000 0.500000
O O8 0.989125 0.541019 0.213624
O O9 0.867133 0.998754 0.630796
O O10 0.380165 0.829825 0.361778
O O11 0.371092 0.832613 0.111937
O O12 0.508095 0.849566 0.484113
O O13 0.621867 0.085777 0.016053
O O14 0.250000 0.536055 0.500000
#
# Coordination Sequence:
#
# PCOD9529822 Si02
#       7
#    16  16   8  16  16  16  16
#     4   9  18  30  52  83 119 155 197 265 317 363
#     4  10  21  35  60  87 115 165 212 249 296 373
#     4  10  22  40  66  82 120 164 212 260 308 368
#     4   9  18  30  49  86 121 149 200 267 316 359
#     4  10  18  31  57  84 117 158 211 251 306 371
#     4  10  19  32  56  78 118 160 202 250 316 375
#     4  11  25  40  58  92 129 166 210 262 322 379
#
# _framework density 20.658939
#
# number of rings (size 3 to 8) (size 9 to 14) (size 15 to 20)
#    0.000    2.154    3.077    0.923    6.462    4.308 
#    0.000    0.000    0.000    0.923    0.000    2.154 
#    0.000    0.000    0.000    0.000    0.000    0.000 
#
# Total GULP energy -289524.134238 kJ/mol
# GULP energy per Si atom -5567.771812 kJ/mol
# Density = 2.061192 g / cm^3
# Si number density = 20.658939 Si / 1000 Ang^3
#
#
#
# Elastic Constant Matrix: (Units=GPa)
#
#
# Indices 1 2 3 4 5 6 
#
# 1 11.0180 -8.7675 26.4072 0.0000 0.0000 0.0000
# 2 -8.7675 109.1727 59.0113 -0.0002 0.0001 0.0000
# 3 26.4072 59.0113 149.5765 0.0001 0.0002 0.0000
# 4 0.0000 -0.0002 0.0001 20.9968 -0.0001 0.0000
# 5 0.0000 0.0001 0.0002 -0.0001 -0.8019 0.0000
# 6 0.0000 0.0000 0.0000 0.0000 0.0000 -1.3158
#
#
#
# Elastic Compliance Matrix: (Units=1/GPa)
#
#
# Indices 1 2 3 4 5 6 
#
# 1 0.483013 0.107892 -0.127840 0.000000 -0.000003 -0.000007
# 2 0.107892 0.035743 -0.033149 0.000000 -0.000001 -0.000002
# 3 -0.127840 -0.033149 0.042333 0.000000 0.000003 0.000002
# 4 0.000000 0.000000 0.000000 0.047626 -0.000004 0.000000
# 5 -0.000003 -0.000001 0.000003 -0.000004 -1.247065 -0.000007
# 6 -0.000007 -0.000002 0.000002 0.000000 -0.000007 -0.759974
#
#
# Mechanical properties :
#
#
# Convention : Reuss Voigt Hill
#
# Bulk Modulus (GPa) = 2.19832 47.00769 24.60300
# Shear Modulus (GPa) = -4.38405 16.65022 6.13309
#
# Velocity S-wave (km/s) = -1.45833 2.84202 1.72487
# Velocity P-wave (km/s) = 1.33012 5.79422 3.98772
#
# Compressibility (1/GPa) = 0.45489375
#
# Stress axis : x y z
#
# Youngs Moduli (GPa) = 2.07034 27.97775 23.62200
#
# Poissons Ratio (x) = -3.01857 3.01984
# Poissons Ratio (y) = -0.22337 0.78305
# Poissons Ratio (z) = 0.26467 0.92744
#
# Static dielectric constant tensor:
#      x y z
#    x 1.754500 0.000000 0.000000 
#    y 0.000000 1.753660 0.000000 
#    z 0.000000 0.000000 1.849140 
# 
# From -- ./inp_files/12192.got.cif
#   From: 2010.05.17/outbox.cif.g08.bks.cpg/sg73_7_cif.got.tgz:12192.got - 2010.06.03 17:35:07.
