data_PCOD9529731
_publ_section_title
;
Structure prediction by ZEFSAII (Michael W. Deem and Ramdas Pophale) SiO2 
 PCOD9529731
Probable space group: I B C A 
;
_chemical_formula_sum "Si O2"
_cell_formula_units_Z 120
_cell_length_a 27.437303
_cell_length_b 12.971593
_cell_length_c 13.842391
_cell_angle_alpha 90.000000
_cell_angle_beta 90.000000
_cell_angle_gamma 90.000000
_cell_volume 4926.583471
_symmetry_space_group_name_H-M "I B C A "
_symmetry_group_IT_number 73
_symmetry_cell_setting 'orthorhombic'
loop_
_space_group_symop_operation_xyz
x,y,z
-x,1/2-y,z
x,-y,1/2-z
1/2-x,y,-z
-x,-y,-z
x,1/2+y,-z
-x,y,1/2+z
1/2+x,-y,z
1/2+x,1/2+y,1/2+z
1/2-x,-y,1/2+z
1/2+x,1/2-y,-z
-x,1/2+y,1/2-z
1/2-x,1/2-y,1/2-z
1/2+x,y,1/2-z
1/2-x,1/2+y,z
x,1/2-y,1/2+z
loop_
_atom_site_type_symbol
_atom_site_label
_atom_site_fract_x
_atom_site_fract_y
_atom_site_fract_z
Si Si1 0.582079 0.768421 0.118567
Si Si2 0.250759 0.534294 0.118061
Si Si3 0.784271 0.238551 0.410422
Si Si4 0.115199 0.366569 0.437770
Si Si5 0.651935 0.921278 0.608206
Si Si6 0.062237 0.325136 0.828871
Si Si7 0.500000 0.250000 0.028949
Si Si8 0.342444 0.423896 0.123873
O O1 0.596591 0.864664 0.048397
O O2 0.625162 0.684489 0.139855
O O3 0.557652 0.803420 0.216812
O O4 0.542166 0.719778 0.047425
O O5 0.240713 0.649988 0.150471
O O6 0.206278 0.455452 0.144455
O O7 0.306400 0.515313 0.146537
O O8 0.250000 0.533436 0.000000
O O9 0.750000 0.272996 0.500000
O O10 0.830448 0.175960 0.451421
O O11 0.808155 0.327448 0.348732
O O12 0.118994 0.474878 0.382532
O O13 0.086372 0.278257 0.378705
O O14 0.655182 0.911349 0.492218
O O15 0.103546 0.411760 0.838751
O O16 0.013058 0.339238 0.890608
#
# Coordination Sequence:
#
# PCOD9529731 Si02
#       8
#    16  16  16  16  16  16   8  16
#     4  11  21  38  64  89 118 162 198 258 322 367
#     4   8  16  25  48  83 111 161 209 233 286 350
#     4   9  14  26  50  81 111 159 209 238 275 346
#     4   9  20  35  57  89 121 157 211 248 293 368
#     4  10  17  34  59  87 122 165 200 249 301 357
#     4  10  21  38  61  91 122 157 205 259 317 372
#     4  10  20  42  66  88 118 156 204 260 316 390
#     4  10  17  32  54  85 124 164 204 251 296 350
#
# _framework density 24.357651000000001
#
# number of rings (size 3 to 8) (size 9 to 14) (size 15 to 20)
#    0.000    2.400    4.000    2.400    0.000    0.533 
#    0.000    4.000    0.000    3.200   38.133    0.000 
#    0.000    0.000    0.000    0.000    0.000    0.000 
#
# Total GULP energy -334017.809609 kJ/mol
# GULP energy per Si atom -5566.963493 kJ/mol
# Density = 2.430221 g / cm^3
# Si number density = 24.357651 Si / 1000 Ang^3
#
#
#
# Elastic Constant Matrix: (Units=GPa)
#
#
# Indices 1 2 3 4 5 6 
#
# 1 71.1265 3.4509 -1.0691 0.0000 0.0000 0.0000
# 2 3.4509 46.9167 -17.0053 0.0000 0.0000 0.0000
# 3 -1.0691 -17.0053 112.7207 0.0000 0.0000 0.0000
# 4 0.0000 0.0000 0.0000 12.4732 0.0000 0.0000
# 5 0.0000 0.0000 0.0000 0.0000 -5.4058 0.0000
# 6 0.0000 0.0000 0.0000 0.0000 0.0000 6.3979
#
#
#
# Elastic Compliance Matrix: (Units=1/GPa)
#
#
# Indices 1 2 3 4 5 6 
#
# 1 0.014110 -0.001047 -0.000024 0.000000 0.000000 0.000000
# 2 -0.001047 0.022625 0.003403 0.000000 0.000000 0.000000
# 3 -0.000024 0.003403 0.009385 0.000000 0.000000 0.000000
# 4 0.000000 0.000000 0.000000 0.080172 0.000000 0.000000
# 5 0.000000 0.000000 0.000000 0.000000 -0.184986 0.000000
# 6 0.000000 0.000000 0.000000 0.000000 0.000000 0.156302
#
#
# Mechanical properties :
#
#
# Convention : Reuss Voigt Hill
#
# Bulk Modulus (GPa) = 19.69091 22.39077 21.04084
# Shear Modulus (GPa) = 45.50814 19.05221 32.28018
#
# Velocity S-wave (km/s) = 4.32711 2.79979 3.64436
# Velocity P-wave (km/s) = 5.75037 4.43444 5.13474
#
# Compressibility (1/GPa) = 0.05078486
#
# Stress axis : x y z
#
# Youngs Moduli (GPa) = 70.87238 44.19911 106.55655
#
# Poissons Ratio (x) = 0.04626 0.00256
# Poissons Ratio (y) = 0.07417 -0.36265
# Poissons Ratio (z) = 0.00170 -0.15042
#
# Static dielectric constant tensor:
#      x y z
#    x 2.124280 0.000000 0.000000 
#    y 0.000000 2.146270 0.000000 
#    z 0.000000 0.000000 1.962330 
# 
# From -- ./inp_files/20145.got.cif
#   From: 2010.05.17/outbox.cif.g08.bks.cpg/sg73_11_cif.got.tgz:20145.got - 2010.06.03 17:35:07.
