data_PCOD9529303
_publ_section_title
;
Structure prediction by ZEFSAII (Michael W. Deem and Ramdas Pophale) SiO2 
 PCOD9529303
Probable space group: I B A M
;
_chemical_formula_sum "Si O2"
_cell_formula_units_Z 112
_cell_length_a 12.200126
_cell_length_b 31.377250
_cell_length_c 14.460266
_cell_angle_alpha 90.000000
_cell_angle_beta 90.000000
_cell_angle_gamma 90.000000
_cell_volume 5535.482422
_symmetry_space_group_name_H-M "I B A M"
_symmetry_group_IT_number 72
_symmetry_cell_setting 'orthorhombic'
loop_
_space_group_symop_operation_xyz
x,y,z
-x,-y,z
x,-y,1/2-z
-x,y,1/2-z
-x,-y,-z
x,y,-z
-x,y,1/2+z
x,-y,1/2+z
1/2+x,1/2+y,1/2+z
1/2-x,1/2-y,1/2+z
1/2+x,1/2-y,-z
1/2-x,1/2+y,-z
1/2-x,1/2-y,1/2-z
1/2+x,1/2+y,1/2-z
1/2-x,1/2+y,z
1/2+x,1/2-y,z
loop_
_atom_site_type_symbol
_atom_site_label
_atom_site_fract_x
_atom_site_fract_y
_atom_site_fract_z
Si Si1 0.869301 0.949123 0.746365
Si Si2 0.210933 0.806021 0.600530
Si Si3 0.237065 0.115492 0.610577
Si Si4 0.016211 0.636146 0.612143
Si Si5 0.457814 0.227012 0.895919
Si Si6 0.217467 0.401901 0.392985
Si Si7 0.894528 0.810657 0.287988
O O1 0.821583 0.925056 0.656263
O O2 0.791748 0.931374 0.828791
O O3 0.000000 0.939903 0.750000
O O4 0.858133 0.000000 0.750000
O O5 0.160969 0.795901 0.500000
O O6 0.333657 0.789295 0.597958
O O7 0.219163 0.856870 0.606906
O O8 0.162720 0.791168 0.697395
O O9 0.223921 0.116898 0.500000
O O10 0.366971 0.115357 0.632656
O O11 0.183936 0.158086 0.655543
O O12 0.005608 0.638857 0.500000
O O13 0.018997 0.685584 0.645428
O O14 0.906513 0.610368 0.641033
O O15 0.444783 0.272038 0.846601
O O16 0.499224 0.232507 0.000000
O O17 0.209629 0.416748 0.500000
O O18 0.000000 0.836285 0.250000
#
# Coordination Sequence:
#
# PCOD9529303 Si02
#       7
#    16  16  16  16  16  16  16
#     4  11  25  45  67  99 135 164 207 261 317 399
#     4   9  19  36  58  81 115 160 214 267 313 374
#     4  11  24  43  66  93 131 172 214 271 331 384
#     4   8  18  39  66  94 127 170 219 268 320 381
#     4   9  19  37  58  86 121 164 217 268 322 377
#     4   9  18  39  68  94 122 168 214 255 315 384
#     4  12  24  37  53  85 125 170 222 268 322 380
#
# _framework density 20.233104999999998
#
# number of rings (size 3 to 8) (size 9 to 14) (size 15 to 20)
#    0.000    2.143    1.429    3.000    0.000    5.143 
#    0.000    5.714    0.000    2.571    0.000    0.000 
#    0.000    0.000    0.000    0.000    0.000    0.000 
#
# Total GULP energy -312247.943998 kJ/mol
# GULP energy per Si atom -5575.856143 kJ/mol
# Density = 2.018705 g / cm^3
# Si number density = 20.233105 Si / 1000 Ang^3
#
#
#
# Elastic Constant Matrix: (Units=GPa)
#
#
# Indices 1 2 3 4 5 6 
#
# 1 127.1750 63.2844 42.0861 -0.0007 -0.0001 -0.0001
# 2 63.2844 115.3591 42.4394 -0.0003 -0.0001 -0.0001
# 3 42.0861 42.4394 118.7167 -0.0025 -0.0008 -0.0007
# 4 -0.0007 -0.0003 -0.0025 -11.7289 -0.0002 -0.0004
# 5 -0.0001 -0.0001 -0.0008 -0.0002 29.6481 -0.0001
# 6 -0.0001 -0.0001 -0.0007 -0.0004 -0.0001 26.4606
#
#
#
# Elastic Compliance Matrix: (Units=1/GPa)
#
#
# Indices 1 2 3 4 5 6 
#
# 1 0.011232 -0.005408 -0.002049 0.000000 0.000000 0.000000
# 2 -0.005408 0.012585 -0.002582 0.000000 0.000000 0.000000
# 3 -0.002049 -0.002582 0.010073 -0.000002 0.000000 0.000000
# 4 0.000000 0.000000 -0.000002 -0.085259 -0.000001 -0.000001
# 5 0.000000 0.000000 0.000000 -0.000001 0.033729 0.000000
# 6 0.000000 0.000000 0.000000 -0.000001 0.000000 0.037792
#
#
# Mechanical properties :
#
#
# Convention : Reuss Voigt Hill
#
# Bulk Modulus (GPa) = 72.39562 72.98563 72.69063
# Shear Modulus (GPa) = 111.52410 23.10537 67.31473
#
# Velocity S-wave (km/s) = 7.43231 3.38295 5.77424
# Velocity P-wave (km/s) = 10.46474 7.17007 8.96997
#
# Compressibility (1/GPa) = 0.01381299
#
# Stress axis : x y z
#
# Youngs Moduli (GPa) = 89.02846 79.45790 99.27917
#
# Poissons Ratio (x) = 0.42973 0.20338
# Poissons Ratio (y) = 0.48149 0.25632
# Poissons Ratio (z) = 0.18238 0.20514
#
# Static dielectric constant tensor:
#      x y z
#    x 1.738940 0.000000 0.000000 
#    y 0.000000 1.716230 0.000000 
#    z 0.000000 0.000000 1.780750 
# 
# From -- ./inp_files/20722.got.cif
#   From: 2010.05.17/outbox.cif.g08.bks.cpg/sg72_11_cif.got.tgz:20722.got - 2010.06.03 17:03:01.
