data_PCOD9529551
_publ_section_title
;
Structure prediction by ZEFSAII (Michael W. Deem and Ramdas Pophale) SiO2 
 PCOD9529551
Probable space group: I B A M
;
_chemical_formula_sum "Si O2"
_cell_formula_units_Z 58
_cell_length_a 24.000000
_cell_length_b 27.000000
_cell_length_c 9.000000
_cell_angle_alpha 90.000000
_cell_angle_beta 90.000000
_cell_angle_gamma 90.000000
_cell_volume 5832.000000
_symmetry_space_group_name_H-M "I B A M"
_symmetry_group_IT_number 72
_symmetry_cell_setting 'orthorhombic'
loop_
_space_group_symop_operation_xyz
x,y,z
-x,-y,z
x,-y,1/2-z
-x,y,1/2-z
-x,-y,-z
x,y,-z
-x,y,1/2+z
x,-y,1/2+z
1/2+x,1/2+y,1/2+z
1/2-x,1/2-y,1/2+z
1/2+x,1/2-y,-z
1/2-x,1/2+y,-z
1/2-x,1/2-y,1/2-z
1/2+x,1/2+y,1/2-z
1/2-x,1/2+y,z
1/2+x,1/2-y,z
loop_
_atom_site_type_symbol
_atom_site_label
_atom_site_fract_x
_atom_site_fract_y
_atom_site_fract_z
Si Si1 0.869339 0.825441 0.177111
Si Si2 0.411056 0.415468 0.828724
Si Si3 0.442833 0.765178 0.822438
Si Si4 0.254494 0.696822 0.677706
Si Si5 0.000000 0.000000 0.750000
Si Si6 0.714032 0.447736 0.321120
Si Si7 0.678086 0.888072 0.320449
Si Si8 0.557530 0.881438 0.321146
O O1 0.914749 0.866591 0.227156
O O2 0.893322 0.771599 0.218711
O O3 0.809826 0.830060 0.258967
O O4 0.861054 0.828373 0.000000
O O5 0.456208 0.459769 0.818825
O O6 0.349522 0.434084 0.782495
O O7 0.409280 0.399378 0.000000
O O8 0.500000 0.747308 0.750000
O O9 0.436580 0.822908 0.783432
O O10 0.447802 0.762940 0.000000
O O11 0.259869 0.699062 0.500000
O O12 0.250000 0.750000 0.750000
O O13 0.197239 0.667852 0.711716
O O14 0.723380 0.500000 0.250000
O O15 0.715537 0.447594 0.500000
O O16 0.767503 0.417039 0.268141
O O17 0.675800 0.892204 0.500000
O O18 0.616786 0.903323 0.267952
O O19 0.500000 0.899788 0.250000
O O20 0.553395 0.885860 0.500000
#
# Coordination Sequence:
#
# PCOD9529551 Si02
#       8
#    16  16  16  16   4  16  16  16
#     4  11  23  38  56  82 115 153 197 249 301 355
#     4  11  24  42  62  84 112 150 198 250 309 371
#     4   9  19  34  51  75 108 148 192 233 279 340
#     4  11  21  36  57  85 119 158 199 243 295 359
#     4  12  26  44  64  90 118 152 202 270 334 380
#     4  10  20  39  62  85 111 146 189 238 295 354
#     4   9  18  35  58  80 110 151 188 225 286 353
#     4   9  17  33  56  80 110 146 184 225 270 329
#
# _framework density 9.9451300000000007
#
# number of rings (size 3 to 8) (size 9 to 14) (size 15 to 20)
#    0.000    1.931    2.069    1.862    0.966    4.966 
#    0.000    4.828    0.000    0.414    0.000    2.897 
#    0.000    0.000    0.000    0.000    0.000    0.000 
#
# Total GULP energy -322963.352167 kJ/mol
# GULP energy per Si atom -5568.333658 kJ/mol
# Density = 0.992249 g / cm^3
# Si number density = 9.945130 Si / 1000 Ang^3
#
#
#
# Elastic Constant Matrix: (Units=GPa)
#
#
# Indices 1 2 3 4 5 6 
#
# 1 142.6699 19.6813 20.5114 0.0000 0.0000 0.0000
# 2 19.6813 43.2997 9.4160 0.0000 0.0000 0.0000
# 3 20.5114 9.4160 17.9813 0.0000 0.0000 0.0000
# 4 0.0000 0.0000 0.0000 17.9970 0.0000 0.0000
# 5 0.0000 0.0000 0.0000 0.0000 23.0696 0.0000
# 6 0.0000 0.0000 0.0000 0.0000 0.0000 29.4630
#
#
#
# Elastic Compliance Matrix: (Units=1/GPa)
#
#
# Indices 1 2 3 4 5 6 
#
# 1 0.008533 -0.001988 -0.008693 0.000000 0.000000 0.000000
# 2 -0.001988 0.026526 -0.011622 0.000000 0.000000 0.000000
# 3 -0.008693 -0.011622 0.071615 0.000000 0.000000 0.000000
# 4 0.000000 0.000000 0.000000 0.055565 0.000000 0.000000
# 5 0.000000 0.000000 0.000000 0.000000 0.043347 0.000000
# 6 0.000000 0.000000 0.000000 0.000000 0.000000 0.033941
#
#
# Mechanical properties :
#
#
# Convention : Reuss Voigt Hill
#
# Bulk Modulus (GPa) = 16.11145 33.68537 24.89841
# Shear Modulus (GPa) = 16.40295 24.39539 20.39917
#
# Velocity S-wave (km/s) = 2.87483 3.50594 3.20595
# Velocity P-wave (km/s) = 4.37461 5.77592 5.12340
#
# Compressibility (1/GPa) = 0.06206766
#
# Stress axis : x y z
#
# Youngs Moduli (GPa) = 117.18909 37.69883 13.96352
#
# Poissons Ratio (x) = 0.07496 0.12138
# Poissons Ratio (y) = 0.23301 0.16229
# Poissons Ratio (z) = 1.01869 0.43815
#
# Static dielectric constant tensor:
#      x y z
#    x 1.727520 0.000000 0.000000 
#    y 0.000000 1.755470 0.000000 
#    z 0.000000 0.000000 1.671220 
# 
# From -- ./inp_files/7296.got.cif
#   From: 2010.05.17/outbox.ucp.g08.bks.cvg/sg72_4_cif.got.tgz:7296.got - 2010.06.11 16:33:07.
