data_PCOD9529714
_publ_section_title
;
Structure prediction by ZEFSAII (Michael W. Deem and Ramdas Pophale) SiO2 
 PCOD9529714
Probable space group: I B C A 
;
_chemical_formula_sum "Si O2"
_cell_formula_units_Z 96
_cell_length_a 36.047248
_cell_length_b 19.168087
_cell_length_c 5.613286
_cell_angle_alpha 90.000000
_cell_angle_beta 90.000000
_cell_angle_gamma 90.000000
_cell_volume 3878.538052
_symmetry_space_group_name_H-M "I B C A "
_symmetry_group_IT_number 73
_symmetry_cell_setting 'orthorhombic'
loop_
_space_group_symop_operation_xyz
x,y,z
-x,1/2-y,z
x,-y,1/2-z
1/2-x,y,-z
-x,-y,-z
x,1/2+y,-z
-x,y,1/2+z
1/2+x,-y,z
1/2+x,1/2+y,1/2+z
1/2-x,-y,1/2+z
1/2+x,1/2-y,-z
-x,1/2+y,1/2-z
1/2-x,1/2-y,1/2-z
1/2+x,y,1/2-z
1/2-x,1/2+y,z
x,1/2-y,1/2+z
loop_
_atom_site_type_symbol
_atom_site_label
_atom_site_fract_x
_atom_site_fract_y
_atom_site_fract_z
Si Si1 0.822344 0.116885 0.885515
Si Si2 0.470015 0.500000 0.750000
Si Si3 0.121712 0.256430 0.856769
Si Si4 0.915909 0.939107 0.887177
Si Si5 0.985512 0.856429 0.767178
Si Si6 0.750000 0.706907 0.000000
Si Si7 0.344220 0.390619 0.620018
O O1 0.857139 0.170134 0.855349
O O2 0.832203 0.076746 0.128852
O O3 0.785921 0.158711 0.962748
O O4 0.820445 0.088946 0.614376
O O5 0.444313 0.488648 0.525044
O O6 0.492927 0.569560 0.723762
O O7 0.100929 0.252677 0.107609
O O8 0.153482 0.195005 0.858556
O O9 0.941873 0.879017 0.770861
O O10 0.887174 0.906924 0.070757
O O11 0.893543 0.000000 0.750000
O O12 0.000844 0.824618 0.519984
O O13 0.750000 0.750000 0.250000
#
# Coordination Sequence:
#
# PCOD9529714 Si02
#       7
#    16   8  16  16  16   8  16
#     4  10  20  35  50  78 109 132 163 210 258 317
#     4  10  18  32  48  70 104 136 164 234 274 306
#     4   8  14  29  45  62  96 128 149 190 243 291
#     4  11  20  31  49  72 106 142 180 208 268 322
#     4  10  17  30  47  68  96 135 159 217 278 308
#     4  12  20  32  62  88 108 140 168 202 280 340
#     4  10  21  31  48  73 109 139 168 208 254 321
#
# _framework density 24.751594999999998
#
# number of rings (size 3 to 8) (size 9 to 14) (size 15 to 20)
#    0.000    2.000    2.500    5.000    2.333    0.000 
#    0.000    0.000    0.000    0.000    0.000    2.333 
#    0.000  144.000    0.000    0.000    0.000    0.000 
#
# Total GULP energy -267608.995769 kJ/mol
# GULP energy per Si atom -5575.187412 kJ/mol
# Density = 2.469526 g / cm^3
# Si number density = 24.751595 Si / 1000 Ang^3
#
#
#
# Elastic Constant Matrix: (Units=GPa)
#
#
# Indices 1 2 3 4 5 6 
#
# 1 70.8652 7.0897 14.9698 0.0000 0.0001 0.0001
# 2 7.0897 60.1378 14.4560 0.0001 0.0000 0.0000
# 3 14.9698 14.4560 243.5774 -0.0001 0.0000 -0.0002
# 4 0.0000 0.0001 -0.0001 0.6812 0.0000 0.0000
# 5 0.0001 0.0000 0.0000 0.0000 26.6403 0.0000
# 6 0.0001 0.0000 -0.0002 0.0000 0.0000 17.0131
#
#
#
# Elastic Compliance Matrix: (Units=1/GPa)
#
#
# Indices 1 2 3 4 5 6 
#
# 1 0.014431 -0.001510 -0.000797 0.000000 0.000000 0.000000
# 2 -0.001510 0.017027 -0.000918 -0.000001 0.000000 0.000000
# 3 -0.000797 -0.000918 0.004209 0.000001 0.000000 0.000000
# 4 0.000000 -0.000001 0.000001 1.468064 -0.000001 0.000000
# 5 0.000000 0.000000 0.000000 -0.000001 0.037537 0.000000
# 6 0.000000 0.000000 0.000000 0.000000 0.000000 0.058778
#
#
# Mechanical properties :
#
#
# Convention : Reuss Voigt Hill
#
# Bulk Modulus (GPa) = 34.22613 49.73461 41.98037
# Shear Modulus (GPa) = 3.09361 31.40458 17.24909
#
# Velocity S-wave (km/s) = 1.11919 3.56587 2.64273
# Velocity P-wave (km/s) = 3.94055 6.09024 5.12928
#
# Compressibility (1/GPa) = 0.02921744
#
# Stress axis : x y z
#
# Youngs Moduli (GPa) = 69.29646 58.73009 237.58954
#
# Poissons Ratio (x) = 0.08866 0.18943
# Poissons Ratio (y) = 0.10461 0.21805
# Poissons Ratio (z) = 0.05525 0.05390
#
# Static dielectric constant tensor:
#      x y z
#    x 1.655070 0.000000 0.000000 
#    y 0.000000 1.993740 0.000000 
#    z 0.000000 0.000000 2.225340 
# 
# From -- ./inp_files/3242.got.cif
#   From: 2010.05.17/outbox.cif.g08.bks.cpg/sg73_2_cif.got.tgz:3242.got - 2010.06.03 17:35:07.
