data_PCOD9529564
_publ_section_title
;
Structure prediction by ZEFSAII (Michael W. Deem and Ramdas Pophale) SiO2 
 PCOD9529564
Probable space group: I B A M
;
_chemical_formula_sum "Si O2"
_cell_formula_units_Z 58
_cell_length_a 27.000000
_cell_length_b 24.000000
_cell_length_c 9.000000
_cell_angle_alpha 90.000000
_cell_angle_beta 90.000000
_cell_angle_gamma 90.000000
_cell_volume 5832.000000
_symmetry_space_group_name_H-M "I B A M"
_symmetry_group_IT_number 72
_symmetry_cell_setting 'orthorhombic'
loop_
_space_group_symop_operation_xyz
x,y,z
-x,-y,z
x,-y,1/2-z
-x,y,1/2-z
-x,-y,-z
x,y,-z
-x,y,1/2+z
x,-y,1/2+z
1/2+x,1/2+y,1/2+z
1/2-x,1/2-y,1/2+z
1/2+x,1/2-y,-z
1/2-x,1/2+y,-z
1/2-x,1/2-y,1/2-z
1/2+x,1/2+y,1/2-z
1/2-x,1/2+y,z
1/2+x,1/2-y,z
loop_
_atom_site_type_symbol
_atom_site_label
_atom_site_fract_x
_atom_site_fract_y
_atom_site_fract_z
Si Si1 0.928532 0.101113 0.328007
Si Si2 0.265346 0.942444 0.824866
Si Si3 0.670947 0.633289 0.176919
Si Si4 0.554272 0.059794 0.679706
Si Si5 0.859292 0.374032 0.679456
Si Si6 0.000000 0.000000 0.750000
Si Si7 0.849791 0.247631 0.323012
Si Si8 0.548876 0.714781 0.823452
O O1 0.928911 0.120447 0.500000
O O2 0.872008 0.100171 0.267564
O O3 0.961028 0.044543 0.321909
O O4 0.949509 0.149015 0.218958
O O5 0.222074 0.898189 0.801946
O O6 0.317357 0.917669 0.773251
O O7 0.252549 0.000000 0.750000
O O8 0.269828 0.951664 0.000000
O O9 0.675957 0.696302 0.238266
O O10 0.658476 0.634740 0.000000
O O11 0.500000 0.069602 0.750000
O O12 0.552210 0.056281 0.500000
O O13 0.591362 0.108025 0.734578
O O14 0.570808 0.000000 0.750000
O O15 0.867514 0.377121 0.500000
O O16 0.838078 0.312017 0.709116
O O17 0.846201 0.238783 0.500000
O O18 0.905441 0.240803 0.263215
O O19 0.500000 0.738905 0.750000
O O20 0.551243 0.721770 0.000000
#
# Coordination Sequence:
#
# PCOD9529564 Si02
#       8
#    16  16  16  16  16   4  16  16
#     4  11  23  38  57  82 115 154 199 247 302 358
#     4  10  23  42  64  91 122 160 200 247 303 359
#     4  10  22  41  62  87 121 157 200 252 304 360
#     4  11  22  38  62  92 128 168 207 249 303 361
#     4  10  22  41  63  91 126 160 203 252 301 360
#     4  12  26  36  56  86 122 156 202 252 302 360
#     4  10  21  38  61  87 117 156 199 248 303 359
#     4  11  21  36  57  80 112 152 196 243 295 355
#
# _framework density 9.9451300000000007
#
# number of rings (size 3 to 8) (size 9 to 14) (size 15 to 20)
#    0.000    1.517    0.690    6.414    0.966    6.621 
#    0.000    0.000    0.000    0.000    0.000    0.000 
#    0.000    0.000    0.000    0.000    0.000    0.000 
#
# Total GULP energy -323580.833446 kJ/mol
# GULP energy per Si atom -5578.979887 kJ/mol
# Density = 0.992249 g / cm^3
# Si number density = 9.945130 Si / 1000 Ang^3
#
#
#
# Elastic Constant Matrix: (Units=GPa)
#
#
# Indices 1 2 3 4 5 6 
#
# 1 46.8393 19.3657 29.7047 0.0000 0.0000 0.0000
# 2 19.3657 84.1056 42.4315 0.0000 0.0000 0.0000
# 3 29.7047 42.4315 78.0280 0.0000 0.0000 0.0000
# 4 0.0000 0.0000 0.0000 4.8452 0.0000 0.0000
# 5 0.0000 0.0000 0.0000 0.0000 12.2483 0.0000
# 6 0.0000 0.0000 0.0000 0.0000 0.0000 4.3052
#
#
#
# Elastic Compliance Matrix: (Units=1/GPa)
#
#
# Indices 1 2 3 4 5 6 
#
# 1 0.028279 -0.001488 -0.009956 0.000000 0.000000 0.000000
# 2 -0.001488 0.016463 -0.008386 0.000000 0.000000 0.000000
# 3 -0.009956 -0.008386 0.021167 0.000000 0.000000 0.000000
# 4 0.000000 0.000000 0.000000 0.206388 0.000000 0.000000
# 5 0.000000 0.000000 0.000000 0.000000 0.081644 0.000000
# 6 0.000000 0.000000 0.000000 0.000000 0.000000 0.232277
#
#
# Mechanical properties :
#
#
# Convention : Reuss Voigt Hill
#
# Bulk Modulus (GPa) = 38.09899 43.55296 40.82597
# Shear Modulus (GPa) = 7.87862 12.11115 9.99488
#
# Velocity S-wave (km/s) = 1.99240 2.47026 2.24409
# Velocity P-wave (km/s) = 4.94864 5.48456 5.22348
#
# Compressibility (1/GPa) = 0.02624741
#
# Stress axis : x y z
#
# Youngs Moduli (GPa) = 35.36185 60.74096 47.24440
#
# Poissons Ratio (x) = 0.09041 0.47038
# Poissons Ratio (y) = 0.05263 0.39620
# Poissons Ratio (z) = 0.35207 0.50938
#
# Static dielectric constant tensor:
#      x y z
#    x 1.657800 0.000000 0.000000 
#    y 0.000000 1.755540 0.000000 
#    z 0.000000 0.000000 1.663270 
# 
# From -- ./inp_files/8416.got.cif
#   From: 2010.05.17/outbox.ucp.g08.bks.cvg/sg72_5_cif.got.tgz:8416.got - 2010.06.11 16:33:07.
