data_PCOD9529640
_publ_section_title
;
Structure prediction by ZEFSAII (Michael W. Deem and Ramdas Pophale) SiO2 
 PCOD9529640
Probable space group: I B C A 
;
_chemical_formula_sum "Si O2"
_cell_formula_units_Z 72
_cell_length_a 33.772748
_cell_length_b 22.308798
_cell_length_c 5.128878
_cell_angle_alpha 90.000000
_cell_angle_beta 90.000000
_cell_angle_gamma 90.000000
_cell_volume 3864.247541
_symmetry_space_group_name_H-M "I B C A "
_symmetry_group_IT_number 73
_symmetry_cell_setting 'orthorhombic'
loop_
_space_group_symop_operation_xyz
x,y,z
-x,1/2-y,z
x,-y,1/2-z
1/2-x,y,-z
-x,-y,-z
x,1/2+y,-z
-x,y,1/2+z
1/2+x,-y,z
1/2+x,1/2+y,1/2+z
1/2-x,-y,1/2+z
1/2+x,1/2-y,-z
-x,1/2+y,1/2-z
1/2-x,1/2-y,1/2-z
1/2+x,y,1/2-z
1/2-x,1/2+y,z
x,1/2-y,1/2+z
loop_
_atom_site_type_symbol
_atom_site_label
_atom_site_fract_x
_atom_site_fract_y
_atom_site_fract_z
Si Si1 0.295012 0.558155 0.059180
Si Si2 0.517333 0.317507 0.244002
Si Si3 0.108621 0.209062 0.688787
Si Si4 0.750000 0.292448 0.500000
Si Si5 0.176368 0.118006 0.553803
O O1 0.288287 0.500000 0.250000
O O2 0.323027 0.594971 0.256635
O O3 0.250000 0.580025 0.000000
O O4 0.314128 0.566687 0.770655
O O5 0.500000 0.250000 0.203017
O O6 0.491020 0.347056 0.467322
O O7 0.562897 0.311659 0.318456
O O8 0.115341 0.258781 0.465184
O O9 0.137568 0.153976 0.636132
O O10 0.750000 0.250000 0.750000
O O11 0.787623 0.334899 0.543170
#
# Coordination Sequence:
#
# PCOD9529640 Si02
#       5
#    16  16  16   8  16
#     4  12  23  43  64  82 101 141 196 266 308 330
#     4  10  16  30  50  74 108 153 191 230 258 313
#     4  12  21  34  53  81 120 163 185 223 277 334
#     4  12  22  38  52  74 120 162 186 216 260 338
#     4  12  24  38  56  85 114 145 202 233 283 359
#
# _framework density 18.632346999999999
#
# number of rings (size 3 to 8) (size 9 to 14) (size 15 to 20)
#    0.000    0.444    6.667    6.000    0.000    0.000 
#    0.000    0.000    0.000    0.000    0.000    0.000 
#    0.000   17.778    0.000    0.000    0.000    0.000 
#
# Total GULP energy -200528.006515 kJ/mol
# GULP energy per Si atom -5570.222403 kJ/mol
# Density = 1.858994 g / cm^3
# Si number density = 18.632347 Si / 1000 Ang^3
#
#
#
# Elastic Constant Matrix: (Units=GPa)
#
#
# Indices 1 2 3 4 5 6 
#
# 1 86.8615 16.3815 -11.6459 0.0000 0.0000 0.0000
# 2 16.3815 34.7690 13.2452 0.0000 0.0000 0.0000
# 3 -11.6459 13.2452 124.4382 0.0000 0.0000 0.0000
# 4 0.0000 0.0000 0.0000 25.5255 0.0000 0.0000
# 5 0.0000 0.0000 0.0000 0.0000 19.7736 0.0000
# 6 0.0000 0.0000 0.0000 0.0000 0.0000 -42.9914
#
#
#
# Elastic Compliance Matrix: (Units=1/GPa)
#
#
# Indices 1 2 3 4 5 6 
#
# 1 0.013078 -0.006908 0.001959 0.000000 0.000000 0.000000
# 2 -0.006908 0.033626 -0.004226 0.000000 0.000000 0.000000
# 3 0.001959 -0.004226 0.008669 0.000000 0.000000 0.000000
# 4 0.000000 0.000000 0.000000 0.039177 0.000000 0.000000
# 5 0.000000 0.000000 0.000000 0.000000 0.050573 0.000000
# 6 0.000000 0.000000 0.000000 0.000000 0.000000 -0.023260
#
#
# Mechanical properties :
#
#
# Convention : Reuss Voigt Hill
#
# Bulk Modulus (GPa) = 27.00946 31.33670 29.17308
# Shear Modulus (GPa) = 32.77566 15.66739 24.22152
#
# Velocity S-wave (km/s) = 4.19868 2.90292 3.60942
# Velocity P-wave (km/s) = 6.16707 5.30008 5.74994
#
# Compressibility (1/GPa) = 0.03702406
#
# Stress axis : x y z
#
# Youngs Moduli (GPa) = 76.46375 29.73908 115.35017
#
# Poissons Ratio (x) = 0.20544 -0.22600
# Poissons Ratio (y) = 0.52822 0.48743
# Poissons Ratio (z) = -0.14981 0.12567
#
# Static dielectric constant tensor:
#      x y z
#    x 1.615410 0.000000 0.000000 
#    y 0.000000 1.807490 0.000000 
#    z 0.000000 0.000000 1.707790 
# 
# From -- ./inp_files/1803.got.cif
#   From: 2010.05.17/outbox.cif.g08.bks.cpg/sg73_1_cif.got.tgz:1803.got - 2010.06.03 17:35:07.
