data_PCOD9529684
_publ_section_title
;
Structure prediction by ZEFSAII (Michael W. Deem and Ramdas Pophale) SiO2 
 PCOD9529684
Probable space group: I B C A 
;
_chemical_formula_sum "Si O2"
_cell_formula_units_Z 72
_cell_length_a 5.301369
_cell_length_b 19.988776
_cell_length_c 26.307635
_cell_angle_alpha 90.000000
_cell_angle_beta 90.000000
_cell_angle_gamma 90.000000
_cell_volume 2787.764241
_symmetry_space_group_name_H-M "I B C A "
_symmetry_group_IT_number 73
_symmetry_cell_setting 'orthorhombic'
loop_
_space_group_symop_operation_xyz
x,y,z
-x,1/2-y,z
x,-y,1/2-z
1/2-x,y,-z
-x,-y,-z
x,1/2+y,-z
-x,y,1/2+z
1/2+x,-y,z
1/2+x,1/2+y,1/2+z
1/2-x,-y,1/2+z
1/2+x,1/2-y,-z
-x,1/2+y,1/2-z
1/2-x,1/2-y,1/2-z
1/2+x,y,1/2-z
1/2-x,1/2+y,z
x,1/2-y,1/2+z
loop_
_atom_site_type_symbol
_atom_site_label
_atom_site_fract_x
_atom_site_fract_y
_atom_site_fract_z
Si Si1 0.500000 0.250000 0.135571
Si Si2 0.195420 0.966087 0.439173
Si Si3 0.170669 0.684003 0.941002
Si Si4 0.585400 0.476085 0.308446
Si Si5 0.795164 0.171337 0.215862
O O1 0.600148 0.306772 0.098062
O O2 0.719540 0.222210 0.171716
O O3 0.250000 0.971776 0.500000
O O4 0.080572 0.891591 0.431573
O O5 0.479830 0.982403 0.421430
O O6 0.000000 0.750000 0.932646
O O7 0.250000 0.687171 0.000000
O O8 0.542777 0.500000 0.250000
O O9 0.302884 0.475857 0.329688
O O10 0.701731 0.402689 0.307400
O O11 0.564511 0.177122 0.256156
#
# Coordination Sequence:
#
# PCOD9529684 Si02
#       5
#     8  16  16  16  16
#     4  12  30  44  66 108 138 194 252 298 358 458
#     4   9  20  39  70 103 136 181 236 301 376 438
#     4  11  25  47  76 103 147 196 250 312 374 442
#     4  10  16  34  64  95 125 177 230 276 351 432
#     4  12  24  44  69  97 142 187 226 298 361 423
#
# _framework density 25.82715
#
# number of rings (size 3 to 8) (size 9 to 14) (size 15 to 20)
#    0.000    1.333    5.556    0.667    6.222    0.889 
#    0.000    2.222    0.000    0.000    0.000    0.000 
#    0.000    0.000    0.000    0.000    0.000    0.000 
#
# Total GULP energy -201377.977983 kJ/mol
# GULP energy per Si atom -5593.832722 kJ/mol
# Density = 2.576837 g / cm^3
# Si number density = 25.827150 Si / 1000 Ang^3
#
#
#
# Elastic Constant Matrix: (Units=GPa)
#
#
# Indices 1 2 3 4 5 6 
#
# 1 172.6626 43.0789 50.3024 0.0000 0.0000 0.0000
# 2 43.0789 129.4687 20.0593 0.0000 0.0000 0.0000
# 3 50.3024 20.0593 111.5296 0.0000 0.0000 0.0000
# 4 0.0000 0.0000 0.0000 -36.7666 0.0000 0.0000
# 5 0.0000 0.0000 0.0000 0.0000 28.1138 0.0000
# 6 0.0000 0.0000 0.0000 0.0000 0.0000 41.4542
#
#
#
# Elastic Compliance Matrix: (Units=1/GPa)
#
#
# Indices 1 2 3 4 5 6 
#
# 1 0.007104 -0.001921 -0.002858 0.000000 0.000000 0.000000
# 2 -0.001921 0.008465 -0.000656 0.000000 0.000000 0.000000
# 3 -0.002858 -0.000656 0.010373 0.000000 0.000000 0.000000
# 4 0.000000 0.000000 0.000000 -0.027199 0.000000 0.000000
# 5 0.000000 0.000000 0.000000 0.000000 0.035570 0.000000
# 6 0.000000 0.000000 0.000000 0.000000 0.000000 0.024123
#
#
# Mechanical properties :
#
#
# Convention : Reuss Voigt Hill
#
# Bulk Modulus (GPa) = 66.35214 71.17132 68.76173
# Shear Modulus (GPa) = 67.26749 26.57499 46.92124
#
# Velocity S-wave (km/s) = 5.10899 3.21121 4.26695
# Velocity P-wave (km/s) = 7.78133 6.43162 7.13845
#
# Compressibility (1/GPa) = 0.01507110
#
# Stress axis : x y z
#
# Youngs Moduli (GPa) = 140.77324 118.13859 96.39994
#
# Poissons Ratio (x) = 0.22692 0.27555
# Poissons Ratio (y) = 0.27039 0.06325
# Poissons Ratio (z) = 0.40239 0.07751
#
# Static dielectric constant tensor:
#      x y z
#    x 2.078390 0.000000 0.000000 
#    y 0.000000 2.029660 0.000000 
#    z 0.000000 0.000000 2.167200 
# 
# From -- ./inp_files/30859.got.cif
#   From: 2010.05.17/outbox.cif.g08.bks.cpg/sg73_16_cif.got.tgz:30859.got - 2010.06.03 17:35:07.
