data_PCOD9529633
_publ_section_title
;
Structure prediction by ZEFSAII (Michael W. Deem and Ramdas Pophale) SiO2 
 PCOD9529633
Probable space group: I B C A 
;
_chemical_formula_sum "Si O2"
_cell_formula_units_Z 88
_cell_length_a 5.360435
_cell_length_b 26.660055
_cell_length_c 28.014932
_cell_angle_alpha 90.000000
_cell_angle_beta 90.000000
_cell_angle_gamma 90.000000
_cell_volume 4003.599698
_symmetry_space_group_name_H-M "I B C A "
_symmetry_group_IT_number 73
_symmetry_cell_setting 'orthorhombic'
loop_
_space_group_symop_operation_xyz
x,y,z
-x,1/2-y,z
x,-y,1/2-z
1/2-x,y,-z
-x,-y,-z
x,1/2+y,-z
-x,y,1/2+z
1/2+x,-y,z
1/2+x,1/2+y,1/2+z
1/2-x,-y,1/2+z
1/2+x,1/2-y,-z
-x,1/2+y,1/2-z
1/2-x,1/2-y,1/2-z
1/2+x,y,1/2-z
1/2-x,1/2+y,z
x,1/2-y,1/2+z
loop_
_atom_site_type_symbol
_atom_site_label
_atom_site_fract_x
_atom_site_fract_y
_atom_site_fract_z
Si Si1 0.000000 0.250000 0.532743
Si Si2 0.423641 0.525538 0.565493
Si Si3 0.500536 0.862022 0.532159
Si Si4 0.804765 0.118284 0.779440
Si Si5 0.377554 0.019894 0.322453
Si Si6 0.249085 0.769863 0.194274
O O1 0.750000 0.250001 0.500000
O O2 0.996799 0.193896 0.556715
O O3 0.652534 0.491639 0.546634
O O4 0.481173 0.584924 0.560292
O O5 0.411422 0.512177 0.621646
O O6 0.250000 0.864995 0.500000
O O7 0.750000 0.862030 0.500000
O O8 0.586733 0.116227 0.739512
O O9 0.743932 0.073454 0.814283
O O10 0.762090 0.171171 0.804025
O O11 0.658482 0.016062 0.302095
O O12 0.500000 0.750000 0.171830
O O13 0.250000 0.750000 0.250000
O O14 0.000000 0.750000 0.170725
#
# Coordination Sequence:
#
# PCOD9529633 Si02
#       6
#     8  16  16  16  16  16
#     4   8  16  30  48  76 110 142 168 206 260 302
#     4  10  21  37  55  75 109 147 172 217 273 318
#     4  10  19  32  55  85 109 139 179 218 255 310
#     4  12  21  32  56  79  97 132 174 222 260 307
#     4  10  23  40  52  72 105 142 175 209 268 322
#     4  10  16  30  48  73 101 126 153 202 267 323
#
# _framework density 21.980219999999999
#
# number of rings (size 3 to 8) (size 9 to 14) (size 15 to 20)
#    0.000    1.818    3.636    2.182    0.000    4.364 
#    0.000    0.000    2.000    0.000    9.455    0.000 
#    0.000    0.000    0.000    0.000    0.000    0.000 
#
# Total GULP energy -245283.769734 kJ/mol
# GULP energy per Si atom -5574.631130 kJ/mol
# Density = 2.193019 g / cm^3
# Si number density = 21.980220 Si / 1000 Ang^3
#
#
#
# Elastic Constant Matrix: (Units=GPa)
#
#
# Indices 1 2 3 4 5 6 
#
# 1 181.3040 56.4673 12.8720 0.0000 0.0000 0.0000
# 2 56.4673 146.8427 -10.0310 0.0000 0.0000 0.0000
# 3 12.8720 -10.0310 17.2002 0.0000 0.0000 0.0000
# 4 0.0000 0.0000 0.0000 -103.8946 0.0000 0.0000
# 5 0.0000 0.0000 0.0000 0.0000 5.6266 0.0000
# 6 0.0000 0.0000 0.0000 0.0000 0.0000 24.9674
#
#
#
# Elastic Compliance Matrix: (Units=1/GPa)
#
#
# Indices 1 2 3 4 5 6 
#
# 1 0.007010 -0.003181 -0.007101 0.000000 0.000000 0.000000
# 2 -0.003181 0.008536 0.007359 0.000000 0.000000 0.000000
# 3 -0.007101 0.007359 0.067745 0.000000 0.000000 0.000000
# 4 0.000000 0.000000 0.000000 -0.009625 0.000000 0.000000
# 5 0.000000 0.000000 0.000000 0.000000 0.177727 0.000000
# 6 0.000000 0.000000 0.000000 0.000000 0.000000 0.040052
#
#
# Mechanical properties :
#
#
# Convention : Reuss Voigt Hill
#
# Bulk Modulus (GPa) = 12.91265 51.55149 32.23207
# Shear Modulus (GPa) = 15.47473 4.40913 9.94193
#
# Velocity S-wave (km/s) = 2.65623 1.41785 2.12907
# Velocity P-wave (km/s) = 3.91087 5.11712 4.55411
#
# Compressibility (1/GPa) = 0.07744345
#
# Stress axis : x y z
#
# Youngs Moduli (GPa) = 142.64339 117.15230 14.76128
#
# Poissons Ratio (x) = 0.37266 0.10483
# Poissons Ratio (y) = 0.45374 -0.10862
# Poissons Ratio (z) = 1.01298 -0.86207
#
# Static dielectric constant tensor:
#      x y z
#    x 1.840330 0.000000 0.000000 
#    y 0.000000 1.820470 0.000000 
#    z 0.000000 0.000000 1.776000 
# 
# From -- ./inp_files/33257.got.cif
#   From: 2010.05.17/outbox.cif.g08.bks.cpg/sg73_17_cif.got.tgz:33257.got - 2010.06.03 17:35:07.
