data_PCOD9529293
_publ_section_title
;
Structure prediction by ZEFSAII (Michael W. Deem and Ramdas Pophale) SiO2 
 PCOD9529293
Probable space group: I B A M
;
_chemical_formula_sum "Si O2"
_cell_formula_units_Z 48
_cell_length_a 12.709885
_cell_length_b 7.768751
_cell_length_c 20.028046
_cell_angle_alpha 90.000000
_cell_angle_beta 90.000000
_cell_angle_gamma 90.000000
_cell_volume 1977.567896
_symmetry_space_group_name_H-M "I B A M"
_symmetry_group_IT_number 72
_symmetry_cell_setting 'orthorhombic'
loop_
_space_group_symop_operation_xyz
x,y,z
-x,-y,z
x,-y,1/2-z
-x,y,1/2-z
-x,-y,-z
x,y,-z
-x,y,1/2+z
x,-y,1/2+z
1/2+x,1/2+y,1/2+z
1/2-x,1/2-y,1/2+z
1/2+x,1/2-y,-z
1/2-x,1/2+y,-z
1/2-x,1/2-y,1/2-z
1/2+x,1/2+y,1/2-z
1/2-x,1/2+y,z
1/2+x,1/2-y,z
loop_
_atom_site_type_symbol
_atom_site_label
_atom_site_fract_x
_atom_site_fract_y
_atom_site_fract_z
Si Si1 0.202548 0.034201 0.827788
Si Si2 0.911764 0.607729 0.858323
Si Si3 0.069979 0.170289 0.429001
O O1 0.312824 0.018838 0.867575
O O2 0.135106 0.883637 0.863182
O O3 0.223478 0.000000 0.750000
O O4 0.141401 0.215877 0.831318
O O5 0.000000 0.500000 0.818693
O O6 0.985313 0.680054 0.917375
O O7 0.128610 0.195218 0.500000
O O8 0.000000 0.000000 0.436004
#
# Coordination Sequence:
#
# PCOD9529293 Si02
#       3
#    16  16  16
#     4  11  24  42  67 102 139 182 236 296 362 429
#     4  11  24  42  67  99 136 180 232 293 359 427
#     4   9  21  42  66  94 132 179 230 286 352 426
#
# _framework density 24.272238999999999
#
# number of rings (size 3 to 8) (size 9 to 14) (size 15 to 20)
#    0.000    1.667    0.000    3.000    0.000   11.333 
#    0.000    6.667    0.000    0.000    0.000    0.000 
#    0.000    0.000    0.000    0.000    0.000    0.000 
#
# Total GULP energy -133613.478787 kJ/mol
# GULP energy per Si atom -5567.228283 kJ/mol
# Density = 2.421699 g / cm^3
# Si number density = 24.272239 Si / 1000 Ang^3
#
#
#
# Elastic Constant Matrix: (Units=GPa)
#
#
# Indices 1 2 3 4 5 6 
#
# 1 132.0927 49.2882 19.8100 0.0000 0.0000 0.0000
# 2 49.2882 194.2129 12.4210 0.0000 0.0000 0.0000
# 3 19.8100 12.4210 108.0473 0.0000 0.0000 0.0000
# 4 0.0000 0.0000 0.0000 -9.5409 0.0000 0.0000
# 5 0.0000 0.0000 0.0000 0.0000 7.4918 0.0000
# 6 0.0000 0.0000 0.0000 0.0000 0.0000 58.9198
#
#
#
# Elastic Compliance Matrix: (Units=1/GPa)
#
#
# Indices 1 2 3 4 5 6 
#
# 1 0.008547 -0.002084 -0.001327 0.000000 0.000000 0.000000
# 2 -0.002084 0.005695 -0.000273 0.000000 0.000000 0.000000
# 3 -0.001327 -0.000273 0.009530 0.000000 0.000000 0.000000
# 4 0.000000 0.000000 0.000000 -0.104812 0.000000 0.000000
# 5 0.000000 0.000000 0.000000 0.000000 0.133479 0.000000
# 6 0.000000 0.000000 0.000000 0.000000 0.000000 0.016972
#
#
# Mechanical properties :
#
#
# Convention : Reuss Voigt Hill
#
# Bulk Modulus (GPa) = 60.96130 66.37682 63.66906
# Shear Modulus (GPa) = 60.79159 34.89639 47.84399
#
# Velocity S-wave (km/s) = 5.01000 3.79583 4.44457
# Velocity P-wave (km/s) = 7.65748 6.82768 7.25445
#
# Compressibility (1/GPa) = 0.01640385
#
# Stress axis : x y z
#
# Youngs Moduli (GPa) = 116.99696 175.58108 104.93249
#
# Poissons Ratio (x) = 0.36596 0.13930
# Poissons Ratio (y) = 0.24385 0.02860
# Poissons Ratio (z) = 0.15531 0.04786
#
# Static dielectric constant tensor:
#      x y z
#    x 1.958010 0.000000 0.000000 
#    y 0.000000 2.023240 0.000000 
#    z 0.000000 0.000000 1.918430 
# 
# From -- ./inp_files/27241.got.cif
#   From: 2010.05.17/outbox.cif.g08.bks.cpg/sg72_14_cif.got.tgz:27241.got - 2010.06.03 17:03:01.
