data_PCOD9529831
_publ_section_title
;
Structure prediction by ZEFSAII (Michael W. Deem and Ramdas Pophale) SiO2 
 PCOD9529831
Probable space group: I B C A 
;
_chemical_formula_sum "Si O2"
_cell_formula_units_Z 88
_cell_length_a 33.003323
_cell_length_b 16.726668
_cell_length_c 7.726834
_cell_angle_alpha 90.000000
_cell_angle_beta 90.000000
_cell_angle_gamma 90.000000
_cell_volume 4265.487650
_symmetry_space_group_name_H-M "I B C A "
_symmetry_group_IT_number 73
_symmetry_cell_setting 'orthorhombic'
loop_
_space_group_symop_operation_xyz
x,y,z
-x,1/2-y,z
x,-y,1/2-z
1/2-x,y,-z
-x,-y,-z
x,1/2+y,-z
-x,y,1/2+z
1/2+x,-y,z
1/2+x,1/2+y,1/2+z
1/2-x,-y,1/2+z
1/2+x,1/2-y,-z
-x,1/2+y,1/2-z
1/2-x,1/2-y,1/2-z
1/2+x,y,1/2-z
1/2-x,1/2+y,z
x,1/2-y,1/2+z
loop_
_atom_site_type_symbol
_atom_site_label
_atom_site_fract_x
_atom_site_fract_y
_atom_site_fract_z
Si Si1 0.207884 0.058643 0.581397
Si Si2 0.473088 0.637930 0.124915
Si Si3 0.901078 0.448385 0.007283
Si Si4 0.340764 0.000000 0.750000
Si Si5 0.375389 0.619558 0.656048
Si Si6 0.052174 0.306999 0.000966
O O1 0.250000 0.088687 0.500000
O O2 0.172974 0.121462 0.634917
O O3 0.213011 0.000000 0.750000
O O4 0.187328 0.015700 0.415186
O O5 0.521637 0.640478 0.121570
O O6 0.456057 0.658321 0.312822
O O7 0.460976 0.715097 0.010607
O O8 0.448000 0.563437 0.053162
O O9 0.887240 0.389608 0.855516
O O10 0.890742 0.536685 0.935280
O O11 0.872819 0.435017 0.175801
O O12 0.402184 0.686186 0.565841
#
# Coordination Sequence:
#
# PCOD9529831 Si02
#       6
#    16  16  16   8  16  16
#     4  11  19  32  53  82 112 144 181 229 280 342
#     4  11  21  36  54  78 105 150 191 228 276 330
#     4  10  19  34  55  78 113 145 185 229 279 337
#     4  10  18  32  52  78 112 140 178 226 282 316
#     4  10  20  36  53  82 112 142 180 236 283 331
#     4  11  22  36  55  78 111 145 190 236 274 332
#
# _framework density 20.630700999999998
#
# number of rings (size 3 to 8) (size 9 to 14) (size 15 to 20)
#    0.000    1.455    4.545    6.545    0.000    0.727 
#    0.000    1.818    0.000    0.000    0.000   16.545 
#    0.000    0.000    0.000    0.000    0.000    0.000 
#
# Total GULP energy -245262.281957 kJ/mol
# GULP energy per Si atom -5574.142772 kJ/mol
# Density = 2.058374 g / cm^3
# Si number density = 20.630701 Si / 1000 Ang^3
#
#
#
# Elastic Constant Matrix: (Units=GPa)
#
#
# Indices 1 2 3 4 5 6 
#
# 1 139.2765 13.5454 24.1382 0.0000 0.0000 0.0000
# 2 13.5454 16.9053 0.5435 0.0000 0.0000 0.0000
# 3 24.1382 0.5435 129.0212 0.0000 0.0000 0.0000
# 4 0.0000 0.0000 0.0000 15.3945 0.0000 0.0000
# 5 0.0000 0.0000 0.0000 0.0000 17.8811 0.0000
# 6 0.0000 0.0000 0.0000 0.0000 0.0000 12.6091
#
#
#
# Elastic Compliance Matrix: (Units=1/GPa)
#
#
# Indices 1 2 3 4 5 6 
#
# 1 0.008060 -0.006411 -0.001481 0.000000 0.000000 0.000000
# 2 -0.006411 0.064260 0.000929 0.000000 0.000000 0.000000
# 3 -0.001481 0.000929 0.008024 0.000000 0.000000 0.000000
# 4 0.000000 0.000000 0.000000 0.064958 0.000000 0.000000
# 5 0.000000 0.000000 0.000000 0.000000 0.055925 0.000000
# 6 0.000000 0.000000 0.000000 0.000000 0.000000 0.079308
#
#
# Mechanical properties :
#
#
# Convention : Reuss Voigt Hill
#
# Bulk Modulus (GPa) = 15.05615 40.18412 27.62014
# Shear Modulus (GPa) = 15.79280 25.64200 20.71740
#
# Velocity S-wave (km/s) = 2.76977 3.52931 3.17235
# Velocity P-wave (km/s) = 4.18839 6.01067 5.18029
#
# Compressibility (1/GPa) = 0.06641805
#
# Stress axis : x y z
#
# Youngs Moduli (GPa) = 124.06808 15.56181 124.62900
#
# Poissons Ratio (x) = 0.09976 0.18457
# Poissons Ratio (y) = 0.79535 -0.11574
# Poissons Ratio (z) = 0.18374 -0.01445
#
# Static dielectric constant tensor:
#      x y z
#    x 1.803650 0.000000 0.000000 
#    y 0.000000 1.752600 0.000000 
#    z 0.000000 0.000000 1.814860 
# 
# From -- ./inp_files/8441.got.cif
#   From: 2010.05.17/outbox.cif.g08.bks.cpg/sg73_5_cif.got.tgz:8441.got - 2010.06.03 17:35:07.
