data_PCOD9529617
_publ_section_title
;
Structure prediction by ZEFSAII (Michael W. Deem and Ramdas Pophale) SiO2 
 PCOD9529617
Probable space group: I B C A 
;
_chemical_formula_sum "Si O2"
_cell_formula_units_Z 80
_cell_length_a 5.420464
_cell_length_b 34.116327
_cell_length_c 21.903289
_cell_angle_alpha 90.000000
_cell_angle_beta 90.000000
_cell_angle_gamma 90.000000
_cell_volume 4050.494681
_symmetry_space_group_name_H-M "I B C A "
_symmetry_group_IT_number 73
_symmetry_cell_setting 'orthorhombic'
loop_
_space_group_symop_operation_xyz
x,y,z
-x,1/2-y,z
x,-y,1/2-z
1/2-x,y,-z
-x,-y,-z
x,1/2+y,-z
-x,y,1/2+z
1/2+x,-y,z
1/2+x,1/2+y,1/2+z
1/2-x,-y,1/2+z
1/2+x,1/2-y,-z
-x,1/2+y,1/2-z
1/2-x,1/2-y,1/2-z
1/2+x,y,1/2-z
1/2-x,1/2+y,z
x,1/2-y,1/2+z
loop_
_atom_site_type_symbol
_atom_site_label
_atom_site_fract_x
_atom_site_fract_y
_atom_site_fract_z
Si Si1 0.503639 0.544551 0.025669
Si Si2 0.737044 0.140114 0.677917
Si Si3 0.558269 0.475986 0.332123
Si Si4 0.252566 0.266507 0.679656
Si Si5 0.268805 0.892082 0.185325
O O1 0.537890 0.537987 0.097466
O O2 0.250000 0.562396 0.000000
O O3 0.500000 0.500000 0.000000
O O4 0.750000 0.564311 0.000000
O O5 0.726353 0.186829 0.676537
O O6 0.755840 0.129367 0.749692
O O7 0.495684 0.116623 0.654708
O O8 0.996296 0.125803 0.650355
O O9 0.284255 0.493468 0.320904
O O10 0.653042 0.436535 0.299971
O O11 0.500000 0.250000 0.650436
O O12 0.250000 0.250000 0.750000
O O13 0.000000 0.250000 0.652366
#
# Coordination Sequence:
#
# PCOD9529617 Si02
#       5
#    16  16  16  16  16
#     4  10  16  30  48  66  83 102 123 187 248 271
#     4  10  19  35  44  59  95 122 152 178 223 273
#     4  12  21  32  47  67  84 105 159 199 218 275
#     4  10  16  25  46  69  80 106 152 190 208 245
#     4  10  20  32  46  59  83 126 148 185 232 262
#
# _framework density 19.750675000000001
#
# number of rings (size 3 to 8) (size 9 to 14) (size 15 to 20)
#    0.000    1.600    4.000    7.200    0.000    0.000 
#    0.000   12.000    0.000    0.000    0.000    0.000 
#    0.000    0.000    0.000    0.000    0.000  182.000 
#
# Total GULP energy -222821.057299 kJ/mol
# GULP energy per Si atom -5570.526432 kJ/mol
# Density = 1.970572 g / cm^3
# Si number density = 19.750675 Si / 1000 Ang^3
#
#
#
# Elastic Constant Matrix: (Units=GPa)
#
#
# Indices 1 2 3 4 5 6 
#
# 1 189.5254 2.6601 4.7777 0.0000 0.0000 0.0000
# 2 2.6601 82.9969 1.1785 0.0000 0.0000 0.0000
# 3 4.7777 1.1785 34.7195 0.0000 0.0000 0.0000
# 4 0.0000 0.0000 0.0000 -0.1655 0.0000 0.0000
# 5 0.0000 0.0000 0.0000 0.0000 38.9402 0.0000
# 6 0.0000 0.0000 0.0000 0.0000 0.0000 26.6144
#
#
#
# Elastic Compliance Matrix: (Units=1/GPa)
#
#
# Indices 1 2 3 4 5 6 
#
# 1 0.005297 -0.000159 -0.000723 0.000000 0.000000 0.000000
# 2 -0.000159 0.012059 -0.000387 0.000000 0.000000 0.000000
# 3 -0.000723 -0.000387 0.028915 -0.000001 0.000000 0.000000
# 4 0.000000 0.000000 -0.000001 -6.041605 0.000001 0.000000
# 5 0.000000 0.000000 0.000000 0.000001 0.025680 0.000000
# 6 0.000000 0.000000 0.000000 0.000000 0.000000 0.037574
#
#
# Mechanical properties :
#
#
# Convention : Reuss Voigt Hill
#
# Bulk Modulus (GPa) = 22.86741 36.05271 29.46006
# Shear Modulus (GPa) = -0.84531 32.98618 16.07044
#
# Velocity S-wave (km/s) = -0.65492 4.09116 2.85558
# Velocity P-wave (km/s) = 3.32134 6.37262 5.08141
#
# Compressibility (1/GPa) = 0.04373036
#
# Stress axis : x y z
#
# Youngs Moduli (GPa) = 188.79273 82.92390 34.58414
#
# Poissons Ratio (x) = 0.01323 0.02502
# Poissons Ratio (y) = 0.03011 0.01340
# Poissons Ratio (z) = 0.13659 0.03212
#
# Static dielectric constant tensor:
#      x y z
#    x 2.032310 0.000000 0.000000 
#    y 0.000000 1.666470 0.000000 
#    z 0.000000 0.000000 1.741810 
# 
# From -- ./inp_files/28053.got.cif
#   From: 2010.05.17/outbox.cif.g08.bks.cpg/sg73_15_cif.got.tgz:28053.got - 2010.06.03 17:35:07.
