data_PCOD9529965
_publ_section_title
;
Structure prediction by ZEFSAII (Michael W. Deem and Ramdas Pophale) SiO2 
 PCOD9529965
Probable space group: I B C A 
;
_chemical_formula_sum "Si O2"
_cell_formula_units_Z 64
_cell_length_a 11.836806
_cell_length_b 22.582498
_cell_length_c 8.430980
_cell_angle_alpha 90.000000
_cell_angle_beta 90.000000
_cell_angle_gamma 90.000000
_cell_volume 2253.640140
_symmetry_space_group_name_H-M "I B C A "
_symmetry_group_IT_number 73
_symmetry_cell_setting 'orthorhombic'
loop_
_space_group_symop_operation_xyz
x,y,z
-x,1/2-y,z
x,-y,1/2-z
1/2-x,y,-z
-x,-y,-z
x,1/2+y,-z
-x,y,1/2+z
1/2+x,-y,z
1/2+x,1/2+y,1/2+z
1/2-x,-y,1/2+z
1/2+x,1/2-y,-z
-x,1/2+y,1/2-z
1/2-x,1/2-y,1/2-z
1/2+x,y,1/2-z
1/2-x,1/2+y,z
x,1/2-y,1/2+z
loop_
_atom_site_type_symbol
_atom_site_label
_atom_site_fract_x
_atom_site_fract_y
_atom_site_fract_z
Si Si1 0.000000 0.250000 0.945178
Si Si2 0.321796 0.141121 0.262227
Si Si3 0.927843 0.621929 0.093353
Si Si4 0.750000 0.943380 0.000000
Si Si5 0.250000 0.269242 0.500000
Si Si6 0.411774 0.000000 0.750000
O O1 0.005658 0.316130 0.863284
O O2 0.121545 0.254762 0.036322
O O3 0.199635 0.128859 0.343942
O O4 0.411107 0.124705 0.402069
O O5 0.325247 0.097096 0.112715
O O6 0.284854 0.199391 0.163060
O O7 0.964793 0.559344 0.172010
O O8 0.668019 0.980330 0.107312
#
# Coordination Sequence:
#
# PCOD9529965 Si02
#       6
#     8  16  16   8   8   8
#     4  12  28  48  76 116 164 212 268 336 404 478
#     4   9  20  41  67 109 154 205 261 326 403 480
#     4  10  22  39  69 108 156 207 269 335 402 476
#     4   9  16  31  66 108 156 201 258 333 402 464
#     4  11  26  45  74 110 160 215 268 329 402 478
#     4  10  18  36  68 114 156 208 274 338 398 476
#
# _framework density 28.398502000000001
#
# number of rings (size 3 to 8) (size 9 to 14) (size 15 to 20)
#    0.000    2.000    0.000    4.500    0.000    8.000 
#    0.000    0.000    0.000   39.000    0.000   14.000 
#    0.000   18.000    0.000    0.000    0.000    0.000 
#
# Total GULP energy -178226.956880 kJ/mol
# GULP energy per Si atom -5569.592402 kJ/mol
# Density = 2.833387 g / cm^3
# Si number density = 28.398502 Si / 1000 Ang^3
#
#
#
# Elastic Constant Matrix: (Units=GPa)
#
#
# Indices 1 2 3 4 5 6 
#
# 1 134.6285 75.7566 38.2740 0.0000 -0.0001 -0.0001
# 2 75.7566 235.0584 114.8224 0.0005 -0.0001 -0.0003
# 3 38.2740 114.8224 220.0385 0.0003 -0.0008 -0.0006
# 4 0.0000 0.0005 0.0003 66.3814 -0.0003 -0.0006
# 5 -0.0001 -0.0001 -0.0008 -0.0003 5.8209 0.0003
# 6 -0.0001 -0.0003 -0.0006 -0.0006 0.0003 17.4239
#
#
#
# Elastic Compliance Matrix: (Units=1/GPa)
#
#
# Indices 1 2 3 4 5 6 
#
# 1 0.009074 -0.002890 -0.000070 0.000000 0.000000 0.000000
# 2 -0.002890 0.006630 -0.002957 0.000000 0.000000 0.000000
# 3 -0.000070 -0.002957 0.006100 0.000000 0.000001 0.000000
# 4 0.000000 0.000000 0.000000 0.015064 0.000001 0.000000
# 5 0.000000 0.000000 0.000001 0.000001 0.171794 -0.000003
# 6 0.000000 0.000000 0.000000 0.000000 -0.000003 0.057392
#
#
# Mechanical properties :
#
#
# Convention : Reuss Voigt Hill
#
# Bulk Modulus (GPa) = 100.30754 116.38126 108.34440
# Shear Modulus (GPa) = 17.78009 41.98343 29.88176
#
# Velocity S-wave (km/s) = 2.50490 3.84913 3.24733
# Velocity P-wave (km/s) = 6.61545 7.79903 7.23149
#
# Compressibility (1/GPa) = 0.00996934
#
# Stress axis : x y z
#
# Youngs Moduli (GPa) = 110.20326 150.82378 163.93496
#
# Poissons Ratio (x) = 0.43591 0.01151
# Poissons Ratio (y) = 0.31851 0.48478
# Poissons Ratio (z) = 0.00773 0.44601
#
# Static dielectric constant tensor:
#      x y z
#    x 2.137730 0.000000 0.000000 
#    y 0.000000 2.405260 0.000000 
#    z 0.000000 0.000000 2.171350 
# 
# From -- ./inp_files/9623.got.cif
#   From: 2010.05.17/outbox.cif.g08.bks.cpg/sg73_5_cif.got.tgz:9623.got - 2010.06.03 17:35:07.
