data_PCOD9529926
_publ_section_title
;
Structure prediction by ZEFSAII (Michael W. Deem and Ramdas Pophale) SiO2 
 PCOD9529926
Probable space group: I B C A 
;
_chemical_formula_sum "Si O2"
_cell_formula_units_Z 120
_cell_length_a 18.886731
_cell_length_b 22.515651
_cell_length_c 11.053191
_cell_angle_alpha 90.000000
_cell_angle_beta 90.000000
_cell_angle_gamma 90.000000
_cell_volume 4700.336796
_symmetry_space_group_name_H-M "I B C A "
_symmetry_group_IT_number 73
_symmetry_cell_setting 'orthorhombic'
loop_
_space_group_symop_operation_xyz
x,y,z
-x,1/2-y,z
x,-y,1/2-z
1/2-x,y,-z
-x,-y,-z
x,1/2+y,-z
-x,y,1/2+z
1/2+x,-y,z
1/2+x,1/2+y,1/2+z
1/2-x,-y,1/2+z
1/2+x,1/2-y,-z
-x,1/2+y,1/2-z
1/2-x,1/2-y,1/2-z
1/2+x,y,1/2-z
1/2-x,1/2+y,z
x,1/2-y,1/2+z
loop_
_atom_site_type_symbol
_atom_site_label
_atom_site_fract_x
_atom_site_fract_y
_atom_site_fract_z
Si Si1 0.638978 0.245513 0.953116
Si Si2 0.911778 0.884187 0.444802
Si Si3 0.759077 0.612000 0.859739
Si Si4 0.812963 0.802923 0.193539
Si Si5 0.049341 0.942927 0.170136
Si Si6 0.225354 0.500000 0.250000
Si Si7 0.385585 0.080219 0.109947
Si Si8 0.571985 0.366454 0.874714
O O1 0.602684 0.183327 0.990167
O O2 0.670992 0.231178 0.819100
O O3 0.588054 0.300155 0.918523
O O4 0.686423 0.264983 0.069858
O O5 0.844193 0.898888 0.364642
O O6 0.917368 0.937510 0.539018
O O7 0.988839 0.879944 0.388901
O O8 0.748175 0.656592 0.746421
O O9 0.729519 0.548309 0.823991
O O10 0.750000 0.631514 0.000000
O O11 0.871437 0.852231 0.156864
O O12 0.082167 0.885165 0.237200
O O13 0.964265 0.938644 0.149872
O O14 0.063067 0.000000 0.250000
O O15 0.175406 0.463527 0.343514
O O16 0.386345 0.090011 0.965425
#
# Coordination Sequence:
#
# PCOD9529926 Si02
#       8
#    16  16  16  16  16   8  16  16
#     4  10  18  35  58  84 121 156 198 239 288 359
#     4  10  22  35  54  83 116 156 196 247 295 349
#     4  10  22  41  59  80 109 150 206 258 305 361
#     4   9  19  35  59  86 115 153 195 248 294 347
#     4  11  21  31  49  83 122 157 187 237 302 364
#     4  10  18  36  60  74 100 148 188 234 292 364
#     4   9  19  32  52  79 112 151 194 225 286 369
#     4  10  20  32  52  85 120 159 189 230 293 365
#
# _framework density 25.530085
#
# number of rings (size 3 to 8) (size 9 to 14) (size 15 to 20)
#    0.000    2.133    0.667    3.600    1.867    1.067 
#    1.200    9.333    0.000    0.000    0.000    1.867 
#    0.000    0.000    0.000    0.000    0.000    0.000 
#
# Total GULP energy -334693.017828 kJ/mol
# GULP energy per Si atom -5578.216964 kJ/mol
# Density = 2.547198 g / cm^3
# Si number density = 25.530085 Si / 1000 Ang^3
#
#
#
# Elastic Constant Matrix: (Units=GPa)
#
#
# Indices 1 2 3 4 5 6 
#
# 1 45.9333 -7.8241 -2.3325 0.0000 0.0000 0.0000
# 2 -7.8241 83.5955 8.0068 0.0000 0.0000 0.0000
# 3 -2.3325 8.0068 96.6416 0.0000 0.0000 0.0000
# 4 0.0000 0.0000 0.0000 49.7012 0.0000 0.0000
# 5 0.0000 0.0000 0.0000 0.0000 25.2785 0.0000
# 6 0.0000 0.0000 0.0000 0.0000 0.0000 26.0460
#
#
#
# Elastic Compliance Matrix: (Units=1/GPa)
#
#
# Indices 1 2 3 4 5 6 
#
# 1 0.022136 0.002037 0.000366 0.000000 0.000000 0.000000
# 2 0.002037 0.012245 -0.000965 0.000000 0.000000 0.000000
# 3 0.000366 -0.000965 0.010436 0.000000 0.000000 0.000000
# 4 0.000000 0.000000 0.000000 0.020120 0.000000 0.000000
# 5 0.000000 0.000000 0.000000 0.000000 0.039559 0.000000
# 6 0.000000 0.000000 0.000000 0.000000 0.000000 0.038394
#
#
# Mechanical properties :
#
#
# Convention : Reuss Voigt Hill
#
# Bulk Modulus (GPa) = 20.96793 24.65232 22.81013
# Shear Modulus (GPa) = 32.06885 35.42648 33.74767
#
# Velocity S-wave (km/s) = 3.54802 3.72914 3.63971
# Velocity P-wave (km/s) = 5.00155 5.31217 5.15920
#
# Compressibility (1/GPa) = 0.04769188
#
# Stress axis : x y z
#
# Youngs Moduli (GPa) = 45.17488 81.66289 95.81923
#
# Poissons Ratio (x) = -0.16633 -0.03502
# Poissons Ratio (y) = -0.09201 0.09250
# Poissons Ratio (z) = -0.01651 0.07884
#
# Static dielectric constant tensor:
#      x y z
#    x 2.023430 0.000000 0.000000 
#    y 0.000000 2.090040 0.000000 
#    z 0.000000 0.000000 2.109740 
# 
# From -- ./inp_files/14444.got.cif
#   From: 2010.05.17/outbox.cif.g08.bks.cpg/sg73_8_cif.got.tgz:14444.got - 2010.06.03 17:35:07.
