data_PCOD9529200
_publ_section_title
;
Structure prediction by ZEFSAII (Michael W. Deem and Ramdas Pophale) SiO2 
 PCOD9529200
Probable space group: I B A M
;
_chemical_formula_sum "Si O2"
_cell_formula_units_Z 48
_cell_length_a 10.876077
_cell_length_b 14.135133
_cell_length_c 14.055062
_cell_angle_alpha 90.000000
_cell_angle_beta 90.000000
_cell_angle_gamma 90.000000
_cell_volume 2160.752074
_symmetry_space_group_name_H-M "I B A M"
_symmetry_group_IT_number 72
_symmetry_cell_setting 'orthorhombic'
loop_
_space_group_symop_operation_xyz
x,y,z
-x,-y,z
x,-y,1/2-z
-x,y,1/2-z
-x,-y,-z
x,y,-z
-x,y,1/2+z
x,-y,1/2+z
1/2+x,1/2+y,1/2+z
1/2-x,1/2-y,1/2+z
1/2+x,1/2-y,-z
1/2-x,1/2+y,-z
1/2-x,1/2-y,1/2-z
1/2+x,1/2+y,1/2-z
1/2-x,1/2+y,z
1/2+x,1/2-y,z
loop_
_atom_site_type_symbol
_atom_site_label
_atom_site_fract_x
_atom_site_fract_y
_atom_site_fract_z
Si Si1 0.563894 0.690737 0.605412
Si Si2 0.559364 0.096208 0.854099
Si Si3 0.164597 0.896262 0.213172
O O1 0.601475 0.657388 0.500000
O O2 0.537132 0.802288 0.600233
O O3 0.439017 0.641768 0.642026
O O4 0.660383 0.668812 0.691004
O O5 0.500000 0.103446 0.750000
O O6 0.705460 0.092068 0.838436
O O7 0.500000 0.000000 0.895111
O O8 0.132614 0.000000 0.250000
#
# Coordination Sequence:
#
# PCOD9529200 Si02
#       3
#    16  16  16
#     4  11  25  42  66 100 133 169 214 266 327 386
#     4  11  22  43  70  93 125 173 221 263 322 380
#     4  11  23  43  69  94 131 174 216 266 320 384
#
# _framework density 22.214486999999998
#
# number of rings (size 3 to 8) (size 9 to 14) (size 15 to 20)
#    0.000    1.000    6.667    3.000    0.000    4.667 
#    0.000    0.000    0.000    1.000    0.000    0.000 
#    0.000    0.000    0.000    0.000    0.000    0.000 
#
# Total GULP energy -134027.466815 kJ/mol
# GULP energy per Si atom -5584.477784 kJ/mol
# Density = 2.216393 g / cm^3
# Si number density = 22.214487 Si / 1000 Ang^3
#
#
#
# Elastic Constant Matrix: (Units=GPa)
#
#
# Indices 1 2 3 4 5 6 
#
# 1 136.5865 46.0167 1.8958 0.0000 0.0000 0.0000
# 2 46.0167 177.1756 30.7079 0.0000 0.0000 0.0000
# 3 1.8958 30.7079 111.2891 0.0000 0.0000 0.0000
# 4 0.0000 0.0000 0.0000 -23.1086 0.0000 0.0000
# 5 0.0000 0.0000 0.0000 0.0000 -14.9209 0.0000
# 6 0.0000 0.0000 0.0000 0.0000 0.0000 22.9725
#
#
#
# Elastic Compliance Matrix: (Units=1/GPa)
#
#
# Indices 1 2 3 4 5 6 
#
# 1 0.008046 -0.002170 0.000462 0.000000 0.000000 0.000000
# 2 -0.002170 0.006513 -0.001760 0.000000 0.000000 0.000000
# 3 0.000462 -0.001760 0.009463 0.000000 0.000000 0.000000
# 4 0.000000 0.000000 0.000000 -0.043274 0.000000 0.000000
# 5 0.000000 0.000000 0.000000 0.000000 -0.067020 0.000000
# 6 0.000000 0.000000 0.000000 0.000000 0.000000 0.043530
#
#
# Mechanical properties :
#
#
# Convention : Reuss Voigt Hill
#
# Bulk Modulus (GPa) = 58.52855 64.69913 61.61384
# Shear Modulus (GPa) = -166.05789 20.08398 -72.98696
#
# Velocity S-wave (km/s) = -8.65531 3.01008 -5.73820
# Velocity P-wave (km/s) = 8.57214 6.42407 4.01328
#
# Compressibility (1/GPa) = 0.01708568
#
# Stress axis : x y z
#
# Youngs Moduli (GPa) = 124.28609 153.54604 105.67029
#
# Poissons Ratio (x) = 0.33315 -0.04878
# Poissons Ratio (y) = 0.26967 0.18599
# Poissons Ratio (z) = -0.05737 0.27025
#
# Static dielectric constant tensor:
#      x y z
#    x 1.831500 0.000000 0.000000 
#    y 0.000000 1.866130 0.000000 
#    z 0.000000 0.000000 1.925930 
# 
# From -- ./inp_files/19276.got.cif
#   From: 2010.05.17/outbox.cif.g08.bks.cpg/sg72_10_cif.got.tgz:19276.got - 2010.06.03 17:03:01.
