data_PCOD9529135
_publ_section_title
;
Structure prediction by ZEFSAII (Michael W. Deem and Ramdas Pophale) SiO2 
 PCOD9529135
Probable space group: I B A M
;
_chemical_formula_sum "Si O2"
_cell_formula_units_Z 100
_cell_length_a 20.118629
_cell_length_b 13.528667
_cell_length_c 19.311973
_cell_angle_alpha 90.000000
_cell_angle_beta 90.000000
_cell_angle_gamma 90.000000
_cell_volume 5256.298672
_symmetry_space_group_name_H-M "I B A M"
_symmetry_group_IT_number 72
_symmetry_cell_setting 'orthorhombic'
loop_
_space_group_symop_operation_xyz
x,y,z
-x,-y,z
x,-y,1/2-z
-x,y,1/2-z
-x,-y,-z
x,y,-z
-x,y,1/2+z
x,-y,1/2+z
1/2+x,1/2+y,1/2+z
1/2-x,1/2-y,1/2+z
1/2+x,1/2-y,-z
1/2-x,1/2+y,-z
1/2-x,1/2-y,1/2-z
1/2+x,1/2+y,1/2-z
1/2-x,1/2+y,z
1/2+x,1/2-y,z
loop_
_atom_site_type_symbol
_atom_site_label
_atom_site_fract_x
_atom_site_fract_y
_atom_site_fract_z
Si Si1 0.894195 0.594204 0.581673
Si Si2 0.320136 0.609711 0.778020
Si Si3 0.971461 0.109268 0.675490
Si Si4 0.116865 0.599461 0.671069
Si Si5 0.972812 0.712674 0.080574
Si Si6 0.814668 0.695183 0.305358
Si Si7 0.000000 0.500000 0.750000
O O1 0.878386 0.589121 0.500000
O O2 0.870291 0.496183 0.623141
O O3 0.972436 0.624131 0.586107
O O4 0.859067 0.677042 0.627822
O O5 0.305883 0.500000 0.750000
O O6 0.391593 0.606004 0.815288
O O7 0.258709 0.653827 0.821585
O O8 0.321020 0.690860 0.716448
O O9 0.000000 0.141731 0.750000
O O10 0.994689 0.188256 0.619316
O O11 0.000000 0.000000 0.662165
O O12 0.162743 0.634728 0.734933
O O13 0.048695 0.570210 0.708696
O O14 0.095966 0.683692 0.617805
O O15 0.963212 0.730009 0.000000
#
# Coordination Sequence:
#
# PCOD9529135 Si02
#       7
#    16  16  16  16  16  16   4
#     4  11  22  36  56  88 130 166 201 253 320 373
#     4  11  22  40  65  94 120 152 210 262 310 360
#     4  11  22  39  64  91 117 161 207 261 305 367
#     4  12  19  35  57  89 120 159 207 254 304 364
#     4  11  23  36  57  89 127 164 203 257 317 370
#     4  11  23  39  66  91 119 163 209 262 304 368
#     4  12  20  28  58  84 118 144 196 252 288 360
#
# _framework density 19.024794
#
# number of rings (size 3 to 8) (size 9 to 14) (size 15 to 20)
#    0.000    0.800    6.400    2.400    1.120    1.600 
#    0.000    0.800    0.000    0.960    0.000    0.000 
#    0.000    0.000    0.000    0.000    0.000    0.000 
#
# Total GULP energy -278702.451454 kJ/mol
# GULP energy per Si atom -5574.049029 kJ/mol
# Density = 1.898149 g / cm^3
# Si number density = 19.024794 Si / 1000 Ang^3
#
#
#
# Elastic Constant Matrix: (Units=GPa)
#
#
# Indices 1 2 3 4 5 6 
#
# 1 83.8219 19.5472 23.3695 0.0000 0.0000 0.0000
# 2 19.5472 107.6178 35.2541 0.0000 0.0000 0.0000
# 3 23.3695 35.2541 105.6440 0.0000 0.0000 0.0000
# 4 0.0000 0.0000 0.0000 334.6806 0.0000 0.0000
# 5 0.0000 0.0000 0.0000 0.0000 49.0080 0.0000
# 6 0.0000 0.0000 0.0000 0.0000 0.0000 25.2052
#
#
#
# Elastic Compliance Matrix: (Units=1/GPa)
#
#
# Indices 1 2 3 4 5 6 
#
# 1 0.012951 -0.001587 -0.002335 0.000000 0.000000 0.000000
# 2 -0.001587 0.010627 -0.003195 0.000000 0.000000 0.000000
# 3 -0.002335 -0.003195 0.011049 0.000000 0.000000 0.000000
# 4 0.000000 0.000000 0.000000 0.002988 0.000000 0.000000
# 5 0.000000 0.000000 0.000000 0.000000 0.020405 0.000000
# 6 0.000000 0.000000 0.000000 0.000000 0.000000 0.039674
#
#
# Mechanical properties :
#
#
# Convention : Reuss Voigt Hill
#
# Bulk Modulus (GPa) = 49.04038 50.38059 49.71049
# Shear Modulus (GPa) = 42.11342 96.37296 69.24319
#
# Velocity S-wave (km/s) = 4.71000 7.12506 6.03948
# Velocity P-wave (km/s) = 7.44392 9.70709 8.64984
#
# Compressibility (1/GPa) = 0.02039136
#
# Stress axis : x y z
#
# Youngs Moduli (GPa) = 77.21231 94.09831 90.50933
#
# Poissons Ratio (x) = 0.14937 0.21136
# Poissons Ratio (y) = 0.12257 0.28920
# Poissons Ratio (z) = 0.18031 0.30066
#
# Static dielectric constant tensor:
#      x y z
#    x 1.710320 0.000000 0.000000 
#    y 0.000000 1.740830 0.000000 
#    z 0.000000 0.000000 1.790920 
# 
# From -- ./inp_files/32679.got.cif
#   From: 2010.05.17/outbox.cif.g08.bks.cpg/sg72_17_cif.got.tgz:32679.got - 2010.06.03 17:03:01.
