data_PCOD9529709
_publ_section_title
;
Structure prediction by ZEFSAII (Michael W. Deem and Ramdas Pophale) SiO2 
 PCOD9529709
Probable space group: I B C A 
;
_chemical_formula_sum "Si O2"
_cell_formula_units_Z 80
_cell_length_a 14.835163
_cell_length_b 31.138586
_cell_length_c 8.491753
_cell_angle_alpha 90.000000
_cell_angle_beta 90.000000
_cell_angle_gamma 90.000000
_cell_volume 3922.731322
_symmetry_space_group_name_H-M "I B C A "
_symmetry_group_IT_number 73
_symmetry_cell_setting 'orthorhombic'
loop_
_space_group_symop_operation_xyz
x,y,z
-x,1/2-y,z
x,-y,1/2-z
1/2-x,y,-z
-x,-y,-z
x,1/2+y,-z
-x,y,1/2+z
1/2+x,-y,z
1/2+x,1/2+y,1/2+z
1/2-x,-y,1/2+z
1/2+x,1/2-y,-z
-x,1/2+y,1/2-z
1/2-x,1/2-y,1/2-z
1/2+x,y,1/2-z
1/2-x,1/2+y,z
x,1/2-y,1/2+z
loop_
_atom_site_type_symbol
_atom_site_label
_atom_site_fract_x
_atom_site_fract_y
_atom_site_fract_z
Si Si1 0.913272 0.455655 0.175507
Si Si2 0.907745 0.365807 0.325573
Si Si3 0.242649 0.701868 0.689252
Si Si4 0.610757 0.865710 0.702670
Si Si5 0.617423 0.955909 0.803382
O O1 0.878524 0.500000 0.250000
O O2 0.878241 0.411501 0.251374
O O3 0.020681 0.455471 0.213176
O O4 0.898629 0.456489 0.989499
O O5 0.846790 0.325740 0.270604
O O6 0.899720 0.368194 0.514156
O O7 0.012232 0.360870 0.278552
O O8 0.250000 0.702935 0.500000
O O9 0.250000 0.750000 0.750000
O O10 0.326738 0.673857 0.747874
O O11 0.657028 0.910047 0.757792
O O12 0.663749 0.000000 0.750000
#
# Coordination Sequence:
#
# PCOD9529709 Si02
#       5
#    16  16  16  16  16
#     4  10  17  28  49  79 112 149 185 224 268 322
#     4  10  20  37  58  84 113 147 185 228 275 328
#     4  10  24  42  61  82 111 144 183 232 284 334
#     4  10  20  37  58  84 113 147 185 228 275 328
#     4  10  17  28  49  79 112 149 185 224 268 322
#
# _framework density 20.393954000000001
#
# number of rings (size 3 to 8) (size 9 to 14) (size 15 to 20)
#    0.000    2.000    0.000    8.400    0.000    4.000 
#    0.000    5.000    0.000    0.000    0.000    0.000 
#    0.000    0.000    0.000    0.000    0.000    0.000 
#
# Total GULP energy -223414.776433 kJ/mol
# GULP energy per Si atom -5585.369411 kJ/mol
# Density = 2.034754 g / cm^3
# Si number density = 20.393954 Si / 1000 Ang^3
#
#
#
# Elastic Constant Matrix: (Units=GPa)
#
#
# Indices 1 2 3 4 5 6 
#
# 1 77.7382 56.9622 -7.1707 -0.0006 -0.0014 0.0009
# 2 56.9622 222.7389 21.3736 -0.0016 -0.0027 0.0005
# 3 -7.1707 21.3736 51.8118 0.0005 -0.0025 0.0019
# 4 -0.0006 -0.0016 0.0005 42.2476 -0.0003 -0.0011
# 5 -0.0014 -0.0027 -0.0025 -0.0003 7.0842 -0.0001
# 6 0.0009 0.0005 0.0019 -0.0011 -0.0001 40.0255
#
#
#
# Elastic Compliance Matrix: (Units=1/GPa)
#
#
# Indices 1 2 3 4 5 6 
#
# 1 0.016677 -0.004671 0.004235 0.000000 0.000003 -0.000001
# 2 -0.004671 0.005983 -0.003115 0.000000 0.000000 0.000000
# 3 0.004235 -0.003115 0.021172 0.000000 0.000007 -0.000001
# 4 0.000000 0.000000 0.000000 0.023670 0.000001 0.000001
# 5 0.000003 0.000000 0.000007 0.000001 0.141160 0.000000
# 6 -0.000001 0.000000 -0.000001 0.000001 0.000000 0.024984
#
#
# Mechanical properties :
#
#
# Convention : Reuss Voigt Hill
#
# Bulk Modulus (GPa) = 27.22550 54.95767 41.09158
# Shear Modulus (GPa) = 19.76356 36.61305 28.18831
#
# Velocity S-wave (km/s) = 3.11640 4.24168 3.72181
# Velocity P-wave (km/s) = 5.13108 7.14113 6.21787
#
# Compressibility (1/GPa) = 0.03673027
#
# Stress axis : x y z
#
# Youngs Moduli (GPa) = 59.96188 167.13817 47.23295
#
# Poissons Ratio (x) = 0.78076 -0.20004
# Poissons Ratio (y) = 0.28010 0.14712
# Poissons Ratio (z) = -0.25395 0.52058
#
# Static dielectric constant tensor:
#      x y z
#    x 1.778070 0.000000 0.000000 
#    y 0.000000 1.743930 0.000000 
#    z 0.000000 0.000000 1.688950 
# 
# From -- ./inp_files/5572.got.cif
#   From: 2010.05.17/outbox.cif.g08.bks.cpg/sg73_3_cif.got.tgz:5572.got - 2010.06.03 17:35:07.
