data_PCOD9529467
_publ_section_title
;
Structure prediction by ZEFSAII (Michael W. Deem and Ramdas Pophale) SiO2 
 PCOD9529467
Probable space group: I B A M
;
_chemical_formula_sum "Si O2"
_cell_formula_units_Z 52
_cell_length_a 9.497260
_cell_length_b 14.640215
_cell_length_c 15.513549
_cell_angle_alpha 90.000000
_cell_angle_beta 90.000000
_cell_angle_gamma 90.000000
_cell_volume 2157.033768
_symmetry_space_group_name_H-M "I B A M"
_symmetry_group_IT_number 72
_symmetry_cell_setting 'orthorhombic'
loop_
_space_group_symop_operation_xyz
x,y,z
-x,-y,z
x,-y,1/2-z
-x,y,1/2-z
-x,-y,-z
x,y,-z
-x,y,1/2+z
x,-y,1/2+z
1/2+x,1/2+y,1/2+z
1/2-x,1/2-y,1/2+z
1/2+x,1/2-y,-z
1/2-x,1/2+y,-z
1/2-x,1/2-y,1/2-z
1/2+x,1/2+y,1/2-z
1/2-x,1/2+y,z
1/2+x,1/2-y,z
loop_
_atom_site_type_symbol
_atom_site_label
_atom_site_fract_x
_atom_site_fract_y
_atom_site_fract_z
Si Si1 0.592332 0.148141 0.596986
Si Si2 0.301661 0.786033 0.843074
Si Si3 0.783285 0.993775 0.652296
Si Si4 0.000000 0.000000 0.000000
O O1 0.545094 0.125992 0.500000
O O2 0.250000 0.250000 0.750000
O O3 0.468342 0.203577 0.644474
O O4 0.726828 0.214589 0.594827
O O5 0.247223 0.887483 0.862333
O O6 0.355198 0.942487 0.645509
O O7 0.885633 0.025177 0.576598
O O8 0.837485 0.000000 0.750000
#
# Coordination Sequence:
#
# PCOD9529467 Si02
#       4
#    16  16  16   4
#     4  12  28  49  80 120 159 218 275 339 415 493
#     4  12  28  48  80 117 163 213 272 339 414 494
#     4  12  28  51  80 114 168 215 277 344 417 500
#     4  12  30  48  82 122 156 226 280 340 416 486
#
# _framework density 24.10718
#
# number of rings (size 3 to 8) (size 9 to 14) (size 15 to 20)
#    0.000    0.000    4.615    3.231    8.615    4.923 
#    0.000    0.000    0.000    0.000    0.000    0.000 
#    0.000    0.000    0.000    0.000    0.000    0.000 
#
# Total GULP energy -145054.080858 kJ/mol
# GULP energy per Si atom -5579.003110 kJ/mol
# Density = 2.405231 g / cm^3
# Si number density = 24.107180 Si / 1000 Ang^3
#
#
#
# Elastic Constant Matrix: (Units=GPa)
#
#
# Indices 1 2 3 4 5 6 
#
# 1 137.8066 31.2621 55.8582 0.0000 0.0000 0.0000
# 2 31.2621 136.4214 2.6996 0.0000 0.0000 0.0000
# 3 55.8582 2.6996 215.3183 0.0000 0.0000 0.0000
# 4 0.0000 0.0000 0.0000 -6.3493 0.0000 0.0000
# 5 0.0000 0.0000 0.0000 0.0000 31.8595 0.0000
# 6 0.0000 0.0000 0.0000 0.0000 0.0000 -19.6961
#
#
#
# Elastic Compliance Matrix: (Units=1/GPa)
#
#
# Indices 1 2 3 4 5 6 
#
# 1 0.008586 -0.001924 -0.002203 0.000000 0.000000 0.000000
# 2 -0.001924 0.007763 0.000402 0.000000 0.000000 0.000000
# 3 -0.002203 0.000402 0.005211 0.000000 0.000000 0.000000
# 4 0.000000 0.000000 0.000000 -0.157498 0.000000 0.000000
# 5 0.000000 0.000000 0.000000 0.000000 0.031388 0.000000
# 6 0.000000 0.000000 0.000000 0.000000 0.000000 -0.050771
#
#
# Mechanical properties :
#
#
# Convention : Reuss Voigt Hill
#
# Bulk Modulus (GPa) = 70.87610 74.35403 72.61506
# Shear Modulus (GPa) = -34.92416 27.81124 -3.55646
#
# Velocity S-wave (km/s) = -3.81031 3.40023 -1.21593
# Velocity P-wave (km/s) = 3.17903 6.80628 5.31186
#
# Compressibility (1/GPa) = 0.01410913
#
# Stress axis : x y z
#
# Youngs Moduli (GPa) = 116.46745 128.81329 191.90790
#
# Poissons Ratio (x) = 0.24783 0.42283
# Poissons Ratio (y) = 0.22408 -0.07711
# Poissons Ratio (z) = 0.25661 -0.05176
#
# Static dielectric constant tensor:
#      x y z
#    x 1.952850 0.000000 0.000000 
#    y 0.000000 1.923120 0.000000 
#    z 0.000000 0.000000 2.018800 
# 
# From -- ./inp_files/12643.got.cif
#   From: 2010.05.17/outbox.cif.g08.bks.cpg/sg72_7_cif.got.tgz:12643.got - 2010.06.03 17:03:01.
