data_PCOD9529210
_publ_section_title
;
Structure prediction by ZEFSAII (Michael W. Deem and Ramdas Pophale) SiO2 
 PCOD9529210
Probable space group: I B A M
;
_chemical_formula_sum "Si O2"
_cell_formula_units_Z 64
_cell_length_a 8.353970
_cell_length_b 14.157984
_cell_length_c 22.695070
_cell_angle_alpha 90.000000
_cell_angle_beta 90.000000
_cell_angle_gamma 90.000000
_cell_volume 2684.267883
_symmetry_space_group_name_H-M "I B A M"
_symmetry_group_IT_number 72
_symmetry_cell_setting 'orthorhombic'
loop_
_space_group_symop_operation_xyz
x,y,z
-x,-y,z
x,-y,1/2-z
-x,y,1/2-z
-x,-y,-z
x,y,-z
-x,y,1/2+z
x,-y,1/2+z
1/2+x,1/2+y,1/2+z
1/2-x,1/2-y,1/2+z
1/2+x,1/2-y,-z
1/2-x,1/2+y,-z
1/2-x,1/2-y,1/2-z
1/2+x,1/2+y,1/2-z
1/2-x,1/2+y,z
1/2+x,1/2-y,z
loop_
_atom_site_type_symbol
_atom_site_label
_atom_site_fract_x
_atom_site_fract_y
_atom_site_fract_z
Si Si1 0.319168 0.114682 0.242948
Si Si2 0.859318 0.794331 0.066928
Si Si3 0.669620 0.359746 0.365125
Si Si4 0.327095 0.945917 0.382860
O O1 0.500000 0.149789 0.250000
O O2 0.206032 0.153006 0.294879
O O3 0.294885 0.121619 0.173690
O O4 0.319088 0.000000 0.250000
O O5 0.795882 0.699149 0.096440
O O6 0.718024 0.873332 0.066367
O O7 0.000413 0.830394 0.109167
O O8 0.915688 0.780406 0.000000
O O9 0.702137 0.469119 0.378513
O O10 0.500000 0.000000 0.381244
#
# Coordination Sequence:
#
# PCOD9529210 Si02
#       4
#    16  16  16  16
#     4   9  17  39  71 100 135 170 219 287 357 432
#     4  12  28  46  67 102 143 194 252 288 336 422
#     4  11  24  44  70  99 143 185 233 299 357 412
#     4  11  22  44  75 103 139 182 228 295 369 423
#
# _framework density 23.842628999999999
#
# number of rings (size 3 to 8) (size 9 to 14) (size 15 to 20)
#    0.000    1.250    5.000    3.000    0.000    5.500 
#    0.000    3.750    0.000    0.000    0.000    0.000 
#    0.000    0.000    0.000    0.000    0.000    0.000 
#
# Total GULP energy -178773.199924 kJ/mol
# GULP energy per Si atom -5586.662498 kJ/mol
# Density = 2.378836 g / cm^3
# Si number density = 23.842629 Si / 1000 Ang^3
#
#
#
# Elastic Constant Matrix: (Units=GPa)
#
#
# Indices 1 2 3 4 5 6 
#
# 1 108.6626 36.0484 74.7260 0.0000 0.0000 0.0000
# 2 36.0484 91.5045 41.8264 0.0000 0.0000 0.0000
# 3 74.7260 41.8264 176.3727 0.0000 0.0000 0.0000
# 4 0.0000 0.0000 0.0000 5.1567 0.0000 0.0000
# 5 0.0000 0.0000 0.0000 0.0000 27.3689 0.0000
# 6 0.0000 0.0000 0.0000 0.0000 0.0000 46.3339
#
#
#
# Elastic Compliance Matrix: (Units=1/GPa)
#
#
# Indices 1 2 3 4 5 6 
#
# 1 0.013720 -0.003082 -0.005082 0.000000 0.000000 0.000000
# 2 -0.003082 0.012949 -0.001765 0.000000 0.000000 0.000000
# 3 -0.005082 -0.001765 0.008242 0.000000 0.000000 0.000000
# 4 0.000000 0.000000 0.000000 0.193922 0.000000 0.000000
# 5 0.000000 0.000000 0.000000 0.000000 0.036538 0.000000
# 6 0.000000 0.000000 0.000000 0.000000 0.000000 0.021582
#
#
# Mechanical properties :
#
#
# Convention : Reuss Voigt Hill
#
# Bulk Modulus (GPa) = 66.43351 75.74905 71.09128
# Shear Modulus (GPa) = 16.03441 30.70116 23.36779
#
# Velocity S-wave (km/s) = 2.59609 3.59229 3.13403
# Velocity P-wave (km/s) = 6.07537 7.00325 6.55574
#
# Compressibility (1/GPa) = 0.01505265
#
# Stress axis : x y z
#
# Youngs Moduli (GPa) = 72.88553 77.22343 121.33581
#
# Poissons Ratio (x) = 0.23801 0.61664
# Poissons Ratio (y) = 0.22464 0.21417
# Poissons Ratio (z) = 0.37041 0.13631
#
# Static dielectric constant tensor:
#      x y z
#    x 2.003010 0.000000 0.000000 
#    y 0.000000 1.905400 0.000000 
#    z 0.000000 0.000000 1.935110 
# 
# From -- ./inp_files/41938.got.cif
#   From: 2010.05.17/outbox.cif.g08.bks.cpg/sg72_21_cif.got.tgz:41938.got - 2010.06.03 17:03:01.
