data_PCOD9529381
_publ_section_title
;
Structure prediction by ZEFSAII (Michael W. Deem and Ramdas Pophale) SiO2 
 PCOD9529381
Probable space group: I B A M
;
_chemical_formula_sum "Si O2"
_cell_formula_units_Z 52
_cell_length_a 9.072892
_cell_length_b 14.718280
_cell_length_c 17.076833
_cell_angle_alpha 90.000000
_cell_angle_beta 90.000000
_cell_angle_gamma 90.000000
_cell_volume 2280.395279
_symmetry_space_group_name_H-M "I B A M"
_symmetry_group_IT_number 72
_symmetry_cell_setting 'orthorhombic'
loop_
_space_group_symop_operation_xyz
x,y,z
-x,-y,z
x,-y,1/2-z
-x,y,1/2-z
-x,-y,-z
x,y,-z
-x,y,1/2+z
x,-y,1/2+z
1/2+x,1/2+y,1/2+z
1/2-x,1/2-y,1/2+z
1/2+x,1/2-y,-z
1/2-x,1/2+y,-z
1/2-x,1/2-y,1/2-z
1/2+x,1/2+y,1/2-z
1/2-x,1/2+y,z
1/2+x,1/2-y,z
loop_
_atom_site_type_symbol
_atom_site_label
_atom_site_fract_x
_atom_site_fract_y
_atom_site_fract_z
Si Si1 0.635161 0.856317 0.620232
Si Si2 0.163283 0.106428 0.765833
Si Si3 0.812176 0.315439 0.913033
Si Si4 0.500000 0.000000 0.000000
O O1 0.709390 0.864416 0.705267
O O2 0.743274 0.783823 0.580136
O O3 0.474334 0.811334 0.622140
O O4 0.600905 0.946842 0.570002
O O5 0.211421 0.128950 0.853666
O O6 0.000000 0.145177 0.750000
O O7 0.153596 0.000000 0.750000
O O8 0.829064 0.359624 0.000000
#
# Coordination Sequence:
#
# PCOD9529381 Si02
#       4
#    16  16  16   4
#     4  12  25  45  76 106 154 198 267 316 403 472
#     4  11  26  48  73 108 156 209 264 324 397 473
#     4  12  24  46  72 111 146 200 257 330 394 474
#     4  12  24  44  74 114 142 202 256 336 390 470
#
# _framework density 22.803063999999999
#
# number of rings (size 3 to 8) (size 9 to 14) (size 15 to 20)
#    0.000    0.308    3.077    5.538    0.000    1.231 
#    2.769    1.538    0.000    0.000    0.000    0.000 
#    0.000    0.000    0.000    0.000    0.000    0.000 
#
# Total GULP energy -144829.656484 kJ/mol
# GULP energy per Si atom -5570.371403 kJ/mol
# Density = 2.275116 g / cm^3
# Si number density = 22.803064 Si / 1000 Ang^3
#
#
#
# Elastic Constant Matrix: (Units=GPa)
#
#
# Indices 1 2 3 4 5 6 
#
# 1 197.3769 40.9847 76.6147 0.0000 0.0000 0.0000
# 2 40.9847 78.2017 43.6790 0.0000 0.0000 0.0000
# 3 76.6147 43.6790 190.0136 0.0000 0.0000 0.0000
# 4 0.0000 0.0000 0.0000 39.5854 0.0000 0.0000
# 5 0.0000 0.0000 0.0000 0.0000 34.1876 0.0000
# 6 0.0000 0.0000 0.0000 0.0000 0.0000 34.0424
#
#
#
# Elastic Compliance Matrix: (Units=1/GPa)
#
#
# Indices 1 2 3 4 5 6 
#
# 1 0.006310 -0.002164 -0.002047 0.000000 0.000000 0.000000
# 2 -0.002164 0.015413 -0.002671 0.000000 0.000000 0.000000
# 3 -0.002047 -0.002671 0.006702 0.000000 0.000000 0.000000
# 4 0.000000 0.000000 0.000000 0.025262 0.000000 0.000000
# 5 0.000000 0.000000 0.000000 0.000000 0.029250 0.000000
# 6 0.000000 0.000000 0.000000 0.000000 0.000000 0.029375
#
#
# Mechanical properties :
#
#
# Convention : Reuss Voigt Hill
#
# Bulk Modulus (GPa) = 68.20031 87.57212 77.88621
# Shear Modulus (GPa) = 38.17867 41.85067 40.01467
#
# Velocity S-wave (km/s) = 4.09623 4.28870 4.19357
# Velocity P-wave (km/s) = 7.23502 7.93794 7.59462
#
# Compressibility (1/GPa) = 0.01466269
#
# Stress axis : x y z
#
# Youngs Moduli (GPa) = 158.47047 64.87968 149.20878
#
# Poissons Ratio (x) = 0.14039 0.30542
# Poissons Ratio (y) = 0.34291 0.39847
# Poissons Ratio (z) = 0.32438 0.17327
#
# Static dielectric constant tensor:
#      x y z
#    x 1.751320 0.000000 0.000000 
#    y 0.000000 -0.208790 0.000000 
#    z 0.000000 0.000000 1.985050 
# 
# From -- ./inp_files/27406.got.cif
#   From: 2010.05.17/outbox.cif.g08.bks.cpg/sg72_14_cif.got.tgz:27406.got - 2010.06.03 17:03:01.
