data_PCOD9529705
_publ_section_title
;
Structure prediction by ZEFSAII (Michael W. Deem and Ramdas Pophale) SiO2 
 PCOD9529705
Probable space group: I B C A 
;
_chemical_formula_sum "Si O2"
_cell_formula_units_Z 120
_cell_length_a 15.071258
_cell_length_b 15.561724
_cell_length_c 23.306693
_cell_angle_alpha 90.000000
_cell_angle_beta 90.000000
_cell_angle_gamma 90.000000
_cell_volume 5466.229587
_symmetry_space_group_name_H-M "I B C A "
_symmetry_group_IT_number 73
_symmetry_cell_setting 'orthorhombic'
loop_
_space_group_symop_operation_xyz
x,y,z
-x,1/2-y,z
x,-y,1/2-z
1/2-x,y,-z
-x,-y,-z
x,1/2+y,-z
-x,y,1/2+z
1/2+x,-y,z
1/2+x,1/2+y,1/2+z
1/2-x,-y,1/2+z
1/2+x,1/2-y,-z
-x,1/2+y,1/2-z
1/2-x,1/2-y,1/2-z
1/2+x,y,1/2-z
1/2-x,1/2+y,z
x,1/2-y,1/2+z
loop_
_atom_site_type_symbol
_atom_site_label
_atom_site_fract_x
_atom_site_fract_y
_atom_site_fract_z
Si Si1 0.320883 0.373201 0.170170
Si Si2 0.922604 0.009001 0.412885
Si Si3 0.334531 0.349283 0.040474
Si Si4 0.500000 0.250000 0.069267
Si Si5 0.096851 0.951090 0.463602
Si Si6 0.980809 0.132021 0.323896
Si Si7 0.816559 0.897140 0.236618
Si Si8 0.766510 0.548219 0.374709
O O1 0.309044 0.334432 0.107063
O O2 0.418465 0.350512 0.192144
O O3 0.243529 0.356098 0.214636
O O4 0.323052 0.476212 0.158597
O O5 0.962300 0.038819 0.351808
O O6 0.999505 0.945189 0.435383
O O7 0.912843 0.070277 0.469643
O O8 0.818632 0.995073 0.399502
O O9 0.420355 0.289325 0.032433
O O10 0.371023 0.447787 0.036283
O O11 0.250000 0.337605 0.000000
O O12 0.537320 0.316535 0.117131
O O13 0.174261 0.910831 0.424817
O O14 0.912950 0.142632 0.272585
O O15 0.822890 0.000000 0.250000
O O16 0.771115 0.889539 0.173885
#
# Coordination Sequence:
#
# PCOD9529705 Si02
#       8
#    16  16  16   8  16  16  16  16
#     4   9  17  34  50  74 100 135 177 205 260 328
#     4  10  17  27  49  76 103 134 176 216 265 314
#     4  10  19  35  60  75  99 142 180 219 264 326
#     4  10  20  38  56  76 102 142 188 214 246 322
#     4  10  17  29  49  78 107 140 176 217 268 329
#     4  10  19  36  54  73 106 143 180 216 264 315
#     4   9  19  31  52  79 106 137 172 224 269 318
#     4   9  16  28  43  73 109 136 166 209 264 319
#
# _framework density 21.952974000000001
#
# number of rings (size 3 to 8) (size 9 to 14) (size 15 to 20)
#    0.000    2.400    4.000    2.000    0.000    1.600 
#    2.400    5.333    0.000    0.800    0.000    0.000 
#    0.000    0.000    0.000    0.000    0.000    0.000 
#
# Total GULP energy -334054.249556 kJ/mol
# GULP energy per Si atom -5567.570826 kJ/mol
# Density = 2.190301 g / cm^3
# Si number density = 21.952974 Si / 1000 Ang^3
#
#
#
# Elastic Constant Matrix: (Units=GPa)
#
#
# Indices 1 2 3 4 5 6 
#
# 1 168.5747 21.5335 98.9978 0.0000 0.0000 0.0000
# 2 21.5335 14.3562 7.1897 0.0000 0.0000 0.0000
# 3 98.9978 7.1897 98.2427 0.0000 0.0000 0.0000
# 4 0.0000 0.0000 0.0000 7.9089 0.0000 0.0000
# 5 0.0000 0.0000 0.0000 0.0000 53.0449 0.0000
# 6 0.0000 0.0000 0.0000 0.0000 0.0000 4.7886
#
#
#
# Elastic Compliance Matrix: (Units=1/GPa)
#
#
# Indices 1 2 3 4 5 6 
#
# 1 0.018500 -0.019113 -0.017244 0.000000 0.000000 0.000000
# 2 -0.019113 0.092054 0.012524 0.000000 0.000000 0.000000
# 3 -0.017244 0.012524 0.026638 0.000000 0.000000 0.000000
# 4 0.000000 0.000000 0.000000 0.126440 0.000000 0.000000
# 5 0.000000 0.000000 0.000000 0.000000 0.018852 0.000000
# 6 0.000000 0.000000 0.000000 0.000000 0.000000 0.208828
#
#
# Mechanical properties :
#
#
# Convention : Reuss Voigt Hill
#
# Bulk Modulus (GPa) = 11.17000 59.62394 35.39697
# Shear Modulus (GPa) = 8.79011 23.37866 16.08439
#
# Velocity S-wave (km/s) = 2.00319 3.26689 2.70973
# Velocity P-wave (km/s) = 3.23257 6.43808 5.09404
#
# Compressibility (1/GPa) = 0.08952551
#
# Stress axis : x y z
#
# Youngs Moduli (GPa) = 54.05373 10.86322 37.53975
#
# Poissons Ratio (x) = 0.20763 0.64732
# Poissons Ratio (y) = 1.03316 -0.47013
# Poissons Ratio (z) = 0.93208 -0.13605
#
# Static dielectric constant tensor:
#      x y z
#    x 1.884060 0.000000 0.000000 
#    y 0.000000 1.960510 0.000000 
#    z 0.000000 0.000000 1.821860 
# 
# From -- ./inp_files/29677.got.cif
#   From: 2010.05.17/outbox.cif.g08.bks.cpg/sg73_15_cif.got.tgz:29677.got - 2010.06.03 17:35:07.
