data_PCOD9529997
_publ_section_title
;
Structure prediction by ZEFSAII (Michael W. Deem and Ramdas Pophale) SiO2 
 PCOD9529997
Probable space group: I B C A 
;
_chemical_formula_sum "Si O2"
_cell_formula_units_Z 112
_cell_length_a 30.255310
_cell_length_b 11.594346
_cell_length_c 14.546240
_cell_angle_alpha 90.000000
_cell_angle_beta 90.000000
_cell_angle_gamma 90.000000
_cell_volume 5102.683275
_symmetry_space_group_name_H-M "I B C A "
_symmetry_group_IT_number 73
_symmetry_cell_setting 'orthorhombic'
loop_
_space_group_symop_operation_xyz
x,y,z
-x,1/2-y,z
x,-y,1/2-z
1/2-x,y,-z
-x,-y,-z
x,1/2+y,-z
-x,y,1/2+z
1/2+x,-y,z
1/2+x,1/2+y,1/2+z
1/2-x,-y,1/2+z
1/2+x,1/2-y,-z
-x,1/2+y,1/2-z
1/2-x,1/2-y,1/2-z
1/2+x,y,1/2-z
1/2-x,1/2+y,z
x,1/2-y,1/2+z
loop_
_atom_site_type_symbol
_atom_site_label
_atom_site_fract_x
_atom_site_fract_y
_atom_site_fract_z
Si Si1 0.257627 0.375112 0.202912
Si Si2 0.371162 0.091539 0.891934
Si Si3 0.067216 0.500000 0.750000
Si Si4 0.208136 0.757313 0.446411
Si Si5 0.000000 0.250000 0.556315
Si Si6 0.151180 0.334406 0.885106
Si Si7 0.492939 0.497839 0.890085
Si Si8 0.077219 0.324877 0.428225
O O1 0.247283 0.500000 0.250000
O O2 0.250000 0.250000 0.250000
O O3 0.227900 0.349929 0.112031
O O4 0.309747 0.368043 0.183851
O O5 0.401097 0.094541 0.799589
O O6 0.323249 0.153970 0.890554
O O7 0.369226 0.955964 0.908006
O O8 0.395897 0.132943 0.982646
O O9 0.033615 0.456875 0.829265
O O10 0.250000 0.814058 0.500000
O O11 0.177153 0.710655 0.526193
O O12 0.993039 0.359996 0.622124
O O13 0.959626 0.247969 0.483459
O O14 0.112453 0.243210 0.866557
O O15 0.449060 0.573337 0.876119
O O16 0.500000 0.500000 0.000000
#
# Coordination Sequence:
#
# PCOD9529997 Si02
#       8
#    16  16   8  16   8  16  16  16
#     4  11  24  43  68  99 141 180 223 294 366 434
#     4  11  22  40  67 100 132 172 238 297 351 436
#     4  12  24  40  66 100 134 186 234 298 362 430
#     4   9  22  43  68  99 133 185 233 285 367 447
#     4  10  18  38  62  88 126 180 212 280 354 418
#     4  10  23  40  67  94 126 178 228 284 352 427
#     4  10  21  42  63  92 135 181 231 285 362 434
#     4  10  21  40  66  92 128 175 230 289 346 426
#
# _framework density 21.949235999999999
#
# number of rings (size 3 to 8) (size 9 to 14) (size 15 to 20)
#    0.000    1.714    2.857    1.714    5.000    5.143 
#    2.571    0.000    4.714    0.000    0.000    0.000 
#    0.000    0.000    0.000    0.000    0.000    0.000 
#
# Total GULP energy -311867.515251 kJ/mol
# GULP energy per Si atom -5569.062772 kJ/mol
# Density = 2.189928 g / cm^3
# Si number density = 21.949236 Si / 1000 Ang^3
#
#
#
# Elastic Constant Matrix: (Units=GPa)
#
#
# Indices 1 2 3 4 5 6 
#
# 1 154.8976 70.4148 44.7753 0.0000 0.0000 0.0000
# 2 70.4148 118.8457 31.1057 0.0000 0.0000 0.0000
# 3 44.7753 31.1057 77.2111 0.0000 0.0000 0.0000
# 4 0.0000 0.0000 0.0000 11.2075 0.0000 0.0000
# 5 0.0000 0.0000 0.0000 0.0000 10.7968 0.0000
# 6 0.0000 0.0000 0.0000 0.0000 0.0000 41.1995
#
#
#
# Elastic Compliance Matrix: (Units=1/GPa)
#
#
# Indices 1 2 3 4 5 6 
#
# 1 0.009697 -0.004777 -0.003699 0.000000 0.000000 0.000000
# 2 -0.004777 0.011760 -0.001967 0.000000 0.000000 0.000000
# 3 -0.003699 -0.001967 0.015889 0.000000 0.000000 0.000000
# 4 0.000000 0.000000 0.000000 0.089226 0.000000 0.000000
# 5 0.000000 0.000000 0.000000 0.000000 0.092620 0.000000
# 6 0.000000 0.000000 0.000000 0.000000 0.000000 0.024272
#
#
# Mechanical properties :
#
#
# Convention : Reuss Voigt Hill
#
# Bulk Modulus (GPa) = 60.75649 71.50512 66.13081
# Shear Modulus (GPa) = 18.52979 26.28466 22.40723
#
# Velocity S-wave (km/s) = 2.90868 3.46428 3.19857
# Velocity P-wave (km/s) = 6.24669 6.97494 6.62084
#
# Compressibility (1/GPa) = 0.01645915
#
# Stress axis : x y z
#
# Youngs Moduli (GPa) = 103.12855 85.03732 62.93705
#
# Poissons Ratio (x) = 0.40623 0.23278
# Poissons Ratio (y) = 0.49266 0.12381
# Poissons Ratio (z) = 0.38143 0.16729
#
# Static dielectric constant tensor:
#      x y z
#    x 1.906080 0.000000 0.000000 
#    y 0.000000 1.839590 0.000000 
#    z 0.000000 0.000000 1.900460 
# 
# From -- ./inp_files/20086.got.cif
#   From: 2010.05.17/outbox.cif.g08.bks.cpg/sg73_11_cif.got.tgz:20086.got - 2010.06.03 17:35:07.
