data_PCOD9529213
_publ_section_title
;
Structure prediction by ZEFSAII (Michael W. Deem and Ramdas Pophale) SiO2 
 PCOD9529213
Probable space group: I B A M
;
_chemical_formula_sum "Si O2"
_cell_formula_units_Z 48
_cell_length_a 17.157412
_cell_length_b 21.849594
_cell_length_c 5.606138
_cell_angle_alpha 90.000000
_cell_angle_beta 90.000000
_cell_angle_gamma 90.000000
_cell_volume 2101.642952
_symmetry_space_group_name_H-M "I B A M"
_symmetry_group_IT_number 72
_symmetry_cell_setting 'orthorhombic'
loop_
_space_group_symop_operation_xyz
x,y,z
-x,-y,z
x,-y,1/2-z
-x,y,1/2-z
-x,-y,-z
x,y,-z
-x,y,1/2+z
x,-y,1/2+z
1/2+x,1/2+y,1/2+z
1/2-x,1/2-y,1/2+z
1/2+x,1/2-y,-z
1/2-x,1/2+y,-z
1/2-x,1/2-y,1/2-z
1/2+x,1/2+y,1/2-z
1/2-x,1/2+y,z
1/2+x,1/2-y,z
loop_
_atom_site_type_symbol
_atom_site_label
_atom_site_fract_x
_atom_site_fract_y
_atom_site_fract_z
Si Si1 0.374089 0.428702 0.251072
Si Si2 0.779206 0.585181 0.500000
Si Si3 0.542297 0.915015 0.000000
Si Si4 0.961806 0.265208 0.000000
Si Si5 0.712704 0.230864 0.500000
O O1 0.398422 0.500000 0.250000
O O2 0.402115 0.400101 0.500000
O O3 0.279511 0.429980 0.281582
O O4 0.396715 0.401039 0.000000
O O5 0.867623 0.561771 0.500000
O O6 0.787924 0.657838 0.500000
O O7 0.500000 0.932319 0.750000
O O8 0.540322 0.840272 0.000000
O O9 0.000000 0.246667 0.250000
O O10 0.873753 0.243687 0.000000
O O11 0.750000 0.250000 0.750000
#
# Coordination Sequence:
#
# PCOD9529213 Si02
#       5
#    16   8   8   8   8
#     4   8  15  26  43  62  74 103 151 184 212 278
#     4   9  20  29  49  56  89 118 140 183 244 267
#     4   9  18  27  40  60  75 102 153 192 217 263
#     4   9  17  33  51  63  84 125 168 197 226 279
#     4  11  23  33  46  75 104 123 157 203 247 285
#
# _framework density 22.839274
#
# number of rings (size 3 to 8) (size 9 to 14) (size 15 to 20)
#    1.000    2.000    0.000    1.000    4.667    2.667 
#    0.000    0.000    0.000    3.000    0.000    0.000 
#    0.000    0.000    0.000    0.000    0.000   58.333 
#
# Total GULP energy -133612.542395 kJ/mol
# GULP energy per Si atom -5567.189266 kJ/mol
# Density = 2.278729 g / cm^3
# Si number density = 22.839274 Si / 1000 Ang^3
#
#
#
# Elastic Constant Matrix: (Units=GPa)
#
#
# Indices 1 2 3 4 5 6 
#
# 1 124.0173 0.4683 75.5121 0.0000 0.0000 0.0000
# 2 0.4683 50.2765 10.9492 0.0000 0.0000 0.0000
# 3 75.5121 10.9492 282.1724 0.0000 0.0000 0.0000
# 4 0.0000 0.0000 0.0000 -19.6482 0.0000 0.0000
# 5 0.0000 0.0000 0.0000 0.0000 -0.9632 0.0000
# 6 0.0000 0.0000 0.0000 0.0000 0.0000 -87.8176
#
#
#
# Elastic Compliance Matrix: (Units=1/GPa)
#
#
# Indices 1 2 3 4 5 6 
#
# 1 0.009644 0.000476 -0.002599 0.000000 0.000000 0.000000
# 2 0.000476 0.020083 -0.000907 0.000000 0.000000 0.000000
# 3 -0.002599 -0.000907 0.004275 0.000000 0.000000 0.000000
# 4 0.000000 0.000000 0.000000 -0.050895 0.000000 0.000000
# 5 0.000000 0.000000 0.000000 0.000000 -1.038185 0.000000
# 6 0.000000 0.000000 0.000000 0.000000 0.000000 -0.011387
#
#
# Mechanical properties :
#
#
# Convention : Reuss Voigt Hill
#
# Bulk Modulus (GPa) = 35.78796 70.03614 52.91205
# Shear Modulus (GPa) = -4.75696 2.94998 -0.90349
#
# Velocity S-wave (km/s) = -1.44476 1.13773 -0.62964
# Velocity P-wave (km/s) = 3.59450 5.69713 4.76328
#
# Compressibility (1/GPa) = 0.02794235
#
# Stress axis : x y z
#
# Youngs Moduli (GPa) = 103.68793 49.79330 233.93231
#
# Poissons Ratio (x) = -0.02371 0.60808
# Poissons Ratio (y) = -0.04938 0.21212
# Poissons Ratio (z) = 0.26953 0.04515
#
# Static dielectric constant tensor:
#      x y z
#    x 1.871640 0.000000 0.000000 
#    y 0.000000 1.836570 0.000000 
#    z 0.000000 0.000000 1.772890 
# 
# From -- ./inp_files/536.got.cif
#   From: 2010.05.17/outbox.cif.g08.bks.cpg/sg72_1_cif.got.tgz:536.got - 2010.06.03 17:03:01.
