data_PCOD9529968
_publ_section_title
;
Structure prediction by ZEFSAII (Michael W. Deem and Ramdas Pophale) SiO2 
 PCOD9529968
Probable space group: I B C A 
;
_chemical_formula_sum "Si O2"
_cell_formula_units_Z 96
_cell_length_a 26.829290
_cell_length_b 11.395484
_cell_length_c 14.249544
_cell_angle_alpha 90.000000
_cell_angle_beta 90.000000
_cell_angle_gamma 90.000000
_cell_volume 4356.552201
_symmetry_space_group_name_H-M "I B C A "
_symmetry_group_IT_number 73
_symmetry_cell_setting 'orthorhombic'
loop_
_space_group_symop_operation_xyz
x,y,z
-x,1/2-y,z
x,-y,1/2-z
1/2-x,y,-z
-x,-y,-z
x,1/2+y,-z
-x,y,1/2+z
1/2+x,-y,z
1/2+x,1/2+y,1/2+z
1/2-x,-y,1/2+z
1/2+x,1/2-y,-z
-x,1/2+y,1/2-z
1/2-x,1/2-y,1/2-z
1/2+x,y,1/2-z
1/2-x,1/2+y,z
x,1/2-y,1/2+z
loop_
_atom_site_type_symbol
_atom_site_label
_atom_site_fract_x
_atom_site_fract_y
_atom_site_fract_z
Si Si1 0.383515 0.930595 0.651148
Si Si2 0.680935 0.778267 0.846130
Si Si3 0.500000 0.250000 0.715054
Si Si4 0.777679 0.392002 0.183435
Si Si5 0.582731 0.342618 0.572642
Si Si6 0.931746 0.675008 0.860801
Si Si7 0.369397 0.000000 0.250000
O O1 0.325326 0.928752 0.622390
O O2 0.405463 0.800673 0.660937
O O3 0.385468 0.000000 0.750000
O O4 0.412335 0.017183 0.582400
O O5 0.735379 0.826967 0.876883
O O6 0.696988 0.693076 0.760857
O O7 0.637945 0.715998 0.908878
O O8 0.657838 0.893551 0.800356
O O9 0.544762 0.293646 0.650190
O O10 0.477851 0.341571 0.790077
O O11 0.759379 0.500000 0.250000
O O12 0.560392 0.317868 0.470976
O O13 0.898070 0.565384 0.833765
#
# Coordination Sequence:
#
# PCOD9529968 Si02
#       7
#    16  16   8  16  16  16   8
#     4  11  20  47  71  97 141 197 228 282 361 424
#     4  11  21  38  69 103 138 185 239 289 351 419
#     4  12  24  52  72 106 140 188 242 294 372 418
#     4  10  18  36  72 101 133 194 237 277 358 423
#     4  12  26  46  73 104 143 190 240 293 359 434
#     4  12  28  44  73 104 143 186 239 299 358 427
#     4  12  22  44  64 100 140 182 228 294 356 402
#
# _framework density 22.035775000000001
#
# number of rings (size 3 to 8) (size 9 to 14) (size 15 to 20)
#    0.000    0.667    9.167    0.500    2.333    1.333 
#    0.000    3.333    0.000    0.000    0.000    0.000 
#    0.000    0.000    0.000    0.000    0.000    0.000 
#
# Total GULP energy -267673.640099 kJ/mol
# GULP energy per Si atom -5576.534169 kJ/mol
# Density = 2.198562 g / cm^3
# Si number density = 22.035775 Si / 1000 Ang^3
#
#
#
# Elastic Constant Matrix: (Units=GPa)
#
#
# Indices 1 2 3 4 5 6 
#
# 1 94.3247 24.1765 48.8098 0.0000 0.0000 0.0000
# 2 24.1765 120.9577 22.3170 0.0000 0.0000 0.0000
# 3 48.8098 22.3170 118.3766 0.0000 0.0000 0.0000
# 4 0.0000 0.0000 0.0000 21.7047 0.0000 0.0000
# 5 0.0000 0.0000 0.0000 0.0000 -12.0875 0.0000
# 6 0.0000 0.0000 0.0000 0.0000 0.0000 -95.7672
#
#
#
# Elastic Compliance Matrix: (Units=1/GPa)
#
#
# Indices 1 2 3 4 5 6 
#
# 1 0.013835 -0.001775 -0.005370 0.000000 0.000000 0.000000
# 2 -0.001775 0.008793 -0.000926 0.000000 0.000000 0.000000
# 3 -0.005370 -0.000926 0.010836 0.000000 0.000000 0.000000
# 4 0.000000 0.000000 0.000000 0.046073 0.000000 0.000000
# 5 0.000000 0.000000 0.000000 0.000000 -0.082730 0.000000
# 6 0.000000 0.000000 0.000000 0.000000 0.000000 -0.010442
#
#
# Mechanical properties :
#
#
# Convention : Reuss Voigt Hill
#
# Bulk Modulus (GPa) = 57.72557 58.25172 57.98865
# Shear Modulus (GPa) = 603.73706 -1.33962 301.19872
#
# Velocity S-wave (km/s) = 16.57031 -0.78055 11.70397
# Velocity P-wave (km/s) = 19.80791 5.06756 14.45741
#
# Compressibility (1/GPa) = 0.01732335
#
# Stress axis : x y z
#
# Youngs Moduli (GPa) = 72.27846 113.72827 92.28126
#
# Poissons Ratio (x) = 0.20182 0.49556
# Poissons Ratio (y) = 0.12826 0.08545
# Poissons Ratio (z) = 0.38815 0.10531
#
# Static dielectric constant tensor:
#      x y z
#    x 1.971750 0.000000 0.000000 
#    y 0.000000 2.167650 0.000000 
#    z 0.000000 0.000000 1.812610 
# 
# From -- ./inp_files/20002.got.cif
#   From: 2010.05.17/outbox.cif.g08.bks.cpg/sg73_11_cif.got.tgz:20002.got - 2010.06.03 17:35:07.
