data_PCOD9529975
_publ_section_title
;
Structure prediction by ZEFSAII (Michael W. Deem and Ramdas Pophale) SiO2 
 PCOD9529975
Probable space group: I B C A 
;
_chemical_formula_sum "Si O2"
_cell_formula_units_Z 120
_cell_length_a 22.982683
_cell_length_b 16.624573
_cell_length_c 15.201549
_cell_angle_alpha 90.000000
_cell_angle_beta 90.000000
_cell_angle_gamma 90.000000
_cell_volume 5808.166665
_symmetry_space_group_name_H-M "I B C A "
_symmetry_group_IT_number 73
_symmetry_cell_setting 'orthorhombic'
loop_
_space_group_symop_operation_xyz
x,y,z
-x,1/2-y,z
x,-y,1/2-z
1/2-x,y,-z
-x,-y,-z
x,1/2+y,-z
-x,y,1/2+z
1/2+x,-y,z
1/2+x,1/2+y,1/2+z
1/2-x,-y,1/2+z
1/2+x,1/2-y,-z
-x,1/2+y,1/2-z
1/2-x,1/2-y,1/2-z
1/2+x,y,1/2-z
1/2-x,1/2+y,z
x,1/2-y,1/2+z
loop_
_atom_site_type_symbol
_atom_site_label
_atom_site_fract_x
_atom_site_fract_y
_atom_site_fract_z
Si Si1 0.478691 0.596110 0.073715
Si Si2 0.246668 0.500000 0.250000
Si Si3 0.303798 0.984524 0.939176
Si Si4 0.308414 0.162259 0.191000
Si Si5 0.359702 0.152675 0.001936
Si Si6 0.675668 0.785553 0.166967
Si Si7 0.570240 0.415395 0.559625
Si Si8 0.580955 0.597894 0.747001
O O1 0.463856 0.500547 0.073245
O O2 0.468396 0.618914 0.175174
O O3 0.426683 0.633329 0.015935
O O4 0.538389 0.618622 0.026103
O O5 0.284344 0.480500 0.162702
O O6 0.205601 0.427175 0.278525
O O7 0.361948 0.933567 0.954029
O O8 0.250000 0.959496 0.000000
O O9 0.322103 0.075158 0.968252
O O10 0.345007 0.166837 0.102321
O O11 0.244370 0.198071 0.170715
O O12 0.336453 0.210884 0.270550
O O13 0.342125 0.222416 0.934270
O O14 0.638835 0.859801 0.208517
O O15 0.566759 0.373381 0.654635
O O16 0.588230 0.500000 0.750000
#
# Coordination Sequence:
#
# PCOD9529975 Si02
#       8
#    16   8  16  16  16  16  16  16
#     4   8  17  30  52  85 113 155 202 246 305 357
#     4  12  22  36  58  90 124 168 208 244 326 380
#     4  11  20  33  58  86 120 167 200 246 310 376
#     4  11  22  34  58  86 125 162 200 260 303 368
#     4  10  18  37  61  77 123 171 195 244 324 362
#     4  10  20  34  56  89 114 160 213 245 298 370
#     4   9  17  29  52  86 119 144 205 254 284 363
#     4   9  17  31  59  86 116 162 205 254 296 374
#
# _framework density 20.660563
#
# number of rings (size 3 to 8) (size 9 to 14) (size 15 to 20)
#    0.000    2.133    2.667    2.000    5.600    0.000 
#    0.000    5.333    2.933    0.800    0.000    3.733 
#    0.000    0.000    0.000    0.000    0.000    0.000 
#
# Total GULP energy -334862.224663 kJ/mol
# GULP energy per Si atom -5581.037078 kJ/mol
# Density = 2.061354 g / cm^3
# Si number density = 20.660563 Si / 1000 Ang^3
#
#
#
# Elastic Constant Matrix: (Units=GPa)
#
#
# Indices 1 2 3 4 5 6 
#
# 1 81.7380 12.9658 80.6083 0.0000 0.0000 0.0000
# 2 12.9658 19.3677 19.5138 0.0000 0.0000 0.0000
# 3 80.6083 19.5138 145.2538 0.0000 0.0000 0.0000
# 4 0.0000 0.0000 0.0000 22.4770 0.0000 0.0000
# 5 0.0000 0.0000 0.0000 0.0000 29.1271 0.0000
# 6 0.0000 0.0000 0.0000 0.0000 0.0000 -3.4137
#
#
#
# Elastic Compliance Matrix: (Units=1/GPa)
#
#
# Indices 1 2 3 4 5 6 
#
# 1 0.027224 -0.003474 -0.014641 0.000000 0.000000 0.000000
# 2 -0.003474 0.060158 -0.006154 0.000000 0.000000 0.000000
# 3 -0.014641 -0.006154 0.015836 0.000000 0.000000 0.000000
# 4 0.000000 0.000000 0.000000 0.044490 0.000000 0.000000
# 5 0.000000 0.000000 0.000000 0.000000 0.034332 0.000000
# 6 0.000000 0.000000 0.000000 0.000000 0.000000 -0.292938
#
#
# Mechanical properties :
#
#
# Convention : Reuss Voigt Hill
#
# Bulk Modulus (GPa) = 18.28798 52.50393 35.39595
# Shear Modulus (GPa) = -113.29905 18.52285 -47.38810
#
# Velocity S-wave (km/s) = -7.41332 2.99746 -4.79440
# Velocity P-wave (km/s) = 8.02531 6.11944 3.67138
#
# Compressibility (1/GPa) = 0.05468074
#
# Stress axis : x y z
#
# Youngs Moduli (GPa) = 36.73194 16.62280 63.14534
#
# Poissons Ratio (x) = 0.05774 0.92454
# Poissons Ratio (y) = 0.12759 0.38861
# Poissons Ratio (z) = 0.53781 0.10230
#
# Static dielectric constant tensor:
#      x y z
#    x 1.722080 0.000000 0.000000 
#    y 0.000000 1.791270 0.000000 
#    z 0.000000 0.000000 1.763580 
# 
# From -- ./inp_files/19543.got.cif
#   From: 2010.05.17/outbox.cif.g08.bks.cpg/sg73_10_cif.got.tgz:19543.got - 2010.06.03 17:35:07.
