data_PCOD9529145
_publ_section_title
;
Structure prediction by ZEFSAII (Michael W. Deem and Ramdas Pophale) SiO2 
 PCOD9529145
Probable space group: I B A M
;
_chemical_formula_sum "Si O2"
_cell_formula_units_Z 88
_cell_length_a 8.055112
_cell_length_b 21.380665
_cell_length_c 22.054055
_cell_angle_alpha 90.000000
_cell_angle_beta 90.000000
_cell_angle_gamma 90.000000
_cell_volume 3798.229876
_symmetry_space_group_name_H-M "I B A M"
_symmetry_group_IT_number 72
_symmetry_cell_setting 'orthorhombic'
loop_
_space_group_symop_operation_xyz
x,y,z
-x,-y,z
x,-y,1/2-z
-x,y,1/2-z
-x,-y,-z
x,y,-z
-x,y,1/2+z
x,-y,1/2+z
1/2+x,1/2+y,1/2+z
1/2-x,1/2-y,1/2+z
1/2+x,1/2-y,-z
1/2-x,1/2+y,-z
1/2-x,1/2-y,1/2-z
1/2+x,1/2+y,1/2-z
1/2-x,1/2+y,z
1/2+x,1/2-y,z
loop_
_atom_site_type_symbol
_atom_site_label
_atom_site_fract_x
_atom_site_fract_y
_atom_site_fract_z
Si Si1 0.961806 0.325667 0.000000
Si Si2 0.585183 0.186000 0.873162
Si Si3 0.668968 0.469552 0.104834
Si Si4 0.906818 0.873623 0.000000
Si Si5 0.270681 0.068057 0.500000
Si Si6 0.122485 0.784204 0.204741
Si Si7 0.560001 0.929436 0.184483
O O1 0.038256 0.293456 0.059579
O O2 0.055705 0.393984 0.000000
O O3 0.759365 0.327330 0.000000
O O4 0.772111 0.183733 0.848227
O O5 0.484186 0.231561 0.828935
O O6 0.515266 0.116947 0.864129
O O7 0.500000 0.500000 0.125301
O O8 0.753391 0.439460 0.163779
O O9 0.632886 0.412916 0.059818
O O10 0.753072 0.522202 0.059393
O O11 0.114652 0.880696 0.000000
O O12 0.250000 0.750000 0.250000
O O13 0.000000 0.821495 0.250000
O O14 0.500000 0.905510 0.250000
O O15 0.500000 0.000000 0.180055
#
# Coordination Sequence:
#
# PCOD9529145 Si02
#       7
#     8  16  16   8   8  16  16
#     4  12  22  37  64 100 143 173 211 292 358 408
#     4  11  23  42  67 100 129 179 230 276 356 410
#     4   9  18  35  59  84 128 178 229 269 315 409
#     4   9  18  36  56  91 128 178 220 274 321 404
#     4   9  20  36  58  95 131 181 242 246 330 437
#     4   9  20  44  70  90 121 174 240 284 319 403
#     4  11  22  37  59  94 134 172 221 282 343 414
#
# _framework density 23.168686000000001
#
# number of rings (size 3 to 8) (size 9 to 14) (size 15 to 20)
#    0.000    2.000    1.818    3.818    0.000    1.455 
#    6.545    9.091    0.000    0.000    0.000    0.000 
#    0.000    0.000    0.000    0.000    0.000    0.000 
#
# Total GULP energy -244952.829858 kJ/mol
# GULP energy per Si atom -5567.109769 kJ/mol
# Density = 2.311595 g / cm^3
# Si number density = 23.168686 Si / 1000 Ang^3
#
#
#
# Elastic Constant Matrix: (Units=GPa)
#
#
# Indices 1 2 3 4 5 6 
#
# 1 85.2497 25.8332 60.3654 0.0000 0.0000 0.0000
# 2 25.8332 23.2381 6.0287 0.0000 0.0000 0.0000
# 3 60.3654 6.0287 156.1553 0.0000 0.0000 0.0000
# 4 0.0000 0.0000 0.0000 4.7619 0.0000 0.0000
# 5 0.0000 0.0000 0.0000 0.0000 41.5253 0.0000
# 6 0.0000 0.0000 0.0000 0.0000 0.0000 20.8566
#
#
#
# Elastic Compliance Matrix: (Units=1/GPa)
#
#
# Indices 1 2 3 4 5 6 
#
# 1 0.026383 -0.026953 -0.009158 0.000000 0.000000 0.000000
# 2 -0.026953 0.071004 0.007678 0.000000 0.000000 0.000000
# 3 -0.009158 0.007678 0.009648 0.000000 0.000000 0.000000
# 4 0.000000 0.000000 0.000000 0.210001 0.000000 0.000000
# 5 0.000000 0.000000 0.000000 0.000000 0.024082 0.000000
# 6 0.000000 0.000000 0.000000 0.000000 0.000000 0.047946
#
#
# Mechanical properties :
#
#
# Convention : Reuss Voigt Hill
#
# Bulk Modulus (GPa) = 19.93301 49.89975 34.91638
# Shear Modulus (GPa) = 10.80721 24.92315 17.86518
#
# Velocity S-wave (km/s) = 2.16211 3.28338 2.77987
# Velocity P-wave (km/s) = 3.85422 5.99654 5.04051
#
# Compressibility (1/GPa) = 0.05016803
#
# Stress axis : x y z
#
# Youngs Moduli (GPa) = 37.90315 14.08363 103.65029
#
# Poissons Ratio (x) = 0.37960 0.94927
# Poissons Ratio (y) = 1.02162 -0.79585
# Poissons Ratio (z) = 0.34713 -0.10814
#
# Static dielectric constant tensor:
#      x y z
#    x 1.936360 0.000000 0.000000 
#    y 0.000000 1.859130 0.000000 
#    z 0.000000 0.000000 3.295430 
# 
# From -- ./inp_files/35895.got.cif
#   From: 2010.05.17/outbox.cif.g08.bks.cpg/sg72_18_cif.got.tgz:35895.got - 2010.06.03 17:03:01.
