data_PCOD9529417
_publ_section_title
;
Structure prediction by ZEFSAII (Michael W. Deem and Ramdas Pophale) SiO2 
 PCOD9529417
Probable space group: I B A M
;
_chemical_formula_sum "Si O2"
_cell_formula_units_Z 48
_cell_length_a 9.258985
_cell_length_b 12.280121
_cell_length_c 19.623314
_cell_angle_alpha 90.000000
_cell_angle_beta 90.000000
_cell_angle_gamma 90.000000
_cell_volume 2231.199376
_symmetry_space_group_name_H-M "I B A M"
_symmetry_group_IT_number 72
_symmetry_cell_setting 'orthorhombic'
loop_
_space_group_symop_operation_xyz
x,y,z
-x,-y,z
x,-y,1/2-z
-x,y,1/2-z
-x,-y,-z
x,y,-z
-x,y,1/2+z
x,-y,1/2+z
1/2+x,1/2+y,1/2+z
1/2-x,1/2-y,1/2+z
1/2+x,1/2-y,-z
1/2-x,1/2+y,-z
1/2-x,1/2-y,1/2-z
1/2+x,1/2+y,1/2-z
1/2-x,1/2+y,z
1/2+x,1/2-y,z
loop_
_atom_site_type_symbol
_atom_site_label
_atom_site_fract_x
_atom_site_fract_y
_atom_site_fract_z
Si Si1 0.932950 0.684047 0.575923
Si Si2 0.358613 0.673201 0.706466
Si Si3 0.150169 0.471434 0.132607
O O1 0.917894 0.727497 0.500000
O O2 0.905551 0.764986 0.637473
O O3 0.827110 0.579664 0.588370
O O4 0.091486 0.628348 0.586245
O O5 0.500000 0.651533 0.750000
O O6 0.250000 0.750000 0.750000
O O7 0.274445 0.567012 0.681153
O O8 0.000000 0.500000 0.171723
#
# Coordination Sequence:
#
# PCOD9529417 Si02
#       3
#    16  16  16
#     4   9  20  39  67  96 133 182 229 279 340 402
#     4  12  22  41  67 103 138 178 226 283 344 414
#     4   8  19  41  67  92 130 176 226 274 340 397
#
# _framework density 21.513093000000001
#
# number of rings (size 3 to 8) (size 9 to 14) (size 15 to 20)
#    2.000    0.000    3.333    2.000    0.000    4.000 
#    6.000    3.333    0.000    2.000    0.000    0.000 
#    0.000    0.000    0.000    0.000    0.000    0.000 
#
# Total GULP energy -133750.328186 kJ/mol
# GULP energy per Si atom -5572.930341 kJ/mol
# Density = 2.146413 g / cm^3
# Si number density = 21.513093 Si / 1000 Ang^3
#
#
#
# Elastic Constant Matrix: (Units=GPa)
#
#
# Indices 1 2 3 4 5 6 
#
# 1 109.5502 27.3339 58.6942 0.0000 0.0000 0.0000
# 2 27.3339 32.6409 42.0867 0.0000 0.0000 0.0000
# 3 58.6942 42.0867 187.6806 0.0000 0.0000 0.0000
# 4 0.0000 0.0000 0.0000 29.2186 0.0000 0.0000
# 5 0.0000 0.0000 0.0000 0.0000 15.5677 0.0000
# 6 0.0000 0.0000 0.0000 0.0000 0.0000 21.9628
#
#
#
# Elastic Compliance Matrix: (Units=1/GPa)
#
#
# Indices 1 2 3 4 5 6 
#
# 1 0.012116 -0.007400 -0.002130 0.000000 0.000000 0.000000
# 2 -0.007400 0.047617 -0.008364 0.000000 0.000000 0.000000
# 3 -0.002130 -0.008364 0.007870 0.000000 0.000000 0.000000
# 4 0.000000 0.000000 0.000000 0.034225 0.000000 0.000000
# 5 0.000000 0.000000 0.000000 0.000000 0.064235 0.000000
# 6 0.000000 0.000000 0.000000 0.000000 0.000000 0.045532
#
#
# Mechanical properties :
#
#
# Convention : Reuss Voigt Hill
#
# Bulk Modulus (GPa) = 31.43060 65.12236 48.27648
# Shear Modulus (GPa) = 19.38086 26.80028 23.09057
#
# Velocity S-wave (km/s) = 3.00473 3.53337 3.27972
# Velocity P-wave (km/s) = 5.16523 6.85442 6.06888
#
# Compressibility (1/GPa) = 0.03181613
#
# Stress axis : x y z
#
# Youngs Moduli (GPa) = 82.53855 21.00072 127.06898
#
# Poissons Ratio (x) = 0.15540 0.27060
# Poissons Ratio (y) = 0.61078 1.06278
# Poissons Ratio (z) = 0.17577 0.17565
#
# Static dielectric constant tensor:
#      x y z
#    x 1.808330 0.000000 0.000000 
#    y 0.000000 1.867710 0.000000 
#    z 0.000000 0.000000 1.776850 
# 
# From -- ./inp_files/27240.got.cif
#   From: 2010.05.17/outbox.cif.g08.bks.cpg/sg72_14_cif.got.tgz:27240.got - 2010.06.03 17:03:01.
