data_PCOD9529455
_publ_section_title
;
Structure prediction by ZEFSAII (Michael W. Deem and Ramdas Pophale) SiO2 
 PCOD9529455
Probable space group: I B A M
;
_chemical_formula_sum "Si O2"
_cell_formula_units_Z 64
_cell_length_a 9.918787
_cell_length_b 13.290108
_cell_length_c 22.347289
_cell_angle_alpha 90.000000
_cell_angle_beta 90.000000
_cell_angle_gamma 90.000000
_cell_volume 2945.858754
_symmetry_space_group_name_H-M "I B A M"
_symmetry_group_IT_number 72
_symmetry_cell_setting 'orthorhombic'
loop_
_space_group_symop_operation_xyz
x,y,z
-x,-y,z
x,-y,1/2-z
-x,y,1/2-z
-x,-y,-z
x,y,-z
-x,y,1/2+z
x,-y,1/2+z
1/2+x,1/2+y,1/2+z
1/2-x,1/2-y,1/2+z
1/2+x,1/2-y,-z
1/2-x,1/2+y,-z
1/2-x,1/2-y,1/2-z
1/2+x,1/2+y,1/2-z
1/2-x,1/2+y,z
1/2+x,1/2-y,z
loop_
_atom_site_type_symbol
_atom_site_label
_atom_site_fract_x
_atom_site_fract_y
_atom_site_fract_z
Si Si1 0.155592 0.529451 0.376313
Si Si2 0.784687 0.365414 0.500000
Si Si3 0.407345 0.595288 0.869296
Si Si4 0.374465 0.787237 0.210184
Si Si5 0.023032 0.175874 0.000000
O O1 0.200489 0.567359 0.441395
O O2 0.253031 0.437944 0.360075
O O3 0.174173 0.622172 0.331516
O O4 0.000000 0.500000 0.377065
O O5 0.900850 0.281908 0.500000
O O6 0.638254 0.313845 0.500000
O O7 0.500000 0.500000 0.851942
O O8 0.429057 0.695108 0.830577
O O9 0.435402 0.619257 0.939058
O O10 0.500000 0.822616 0.250000
O O11 0.250000 0.750000 0.250000
#
# Coordination Sequence:
#
# PCOD9529455 Si02
#       5
#    16   8  16  16   8
#     4  12  27  46  74 108 146 188 237 297 364 425
#     4  12  26  46  76 110 145 183 234 298 370 431
#     4  12  25  47  76 102 144 191 237 293 365 429
#     4  12  28  47  71 104 144 190 248 296 345 422
#     4  12  26  45  78 108 145 184 232 297 370 435
#
# _framework density 21.725415000000002
#
# number of rings (size 3 to 8) (size 9 to 14) (size 15 to 20)
#    0.000    0.000    5.000    4.500    3.500    6.000 
#    0.000    0.000    0.000    0.000    0.000    0.000 
#    0.000    0.000    0.000    0.000    0.000    0.000 
#
# Total GULP energy -179373.875921 kJ/mol
# GULP energy per Si atom -5605.433623 kJ/mol
# Density = 2.167597 g / cm^3
# Si number density = 21.725415 Si / 1000 Ang^3
#
#
#
# Elastic Constant Matrix: (Units=GPa)
#
#
# Indices 1 2 3 4 5 6 
#
# 1 89.1166 -25.0425 1.0266 0.0000 0.0000 0.0000
# 2 -25.0425 42.4944 15.8583 0.0000 0.0000 0.0000
# 3 1.0266 15.8583 113.7404 0.0000 0.0000 0.0000
# 4 0.0000 0.0000 0.0000 18.6617 0.0000 0.0000
# 5 0.0000 0.0000 0.0000 0.0000 24.2486 0.0000
# 6 0.0000 0.0000 0.0000 0.0000 0.0000 53.1406
#
#
#
# Elastic Compliance Matrix: (Units=1/GPa)
#
#
# Indices 1 2 3 4 5 6 
#
# 1 0.013631 0.008522 -0.001311 0.000000 0.000000 0.000000
# 2 0.008522 0.030152 -0.004281 0.000000 0.000000 0.000000
# 3 -0.001311 -0.004281 0.009401 0.000000 0.000000 0.000000
# 4 0.000000 0.000000 0.000000 0.053586 0.000000 0.000000
# 5 0.000000 0.000000 0.000000 0.000000 0.041239 0.000000
# 6 0.000000 0.000000 0.000000 0.000000 0.000000 0.018818
#
#
# Mechanical properties :
#
#
# Convention : Reuss Voigt Hill
#
# Bulk Modulus (GPa) = 16.93631 25.44847 21.19239
# Shear Modulus (GPa) = 27.67802 36.11078 31.89440
#
# Velocity S-wave (km/s) = 3.57318 4.08136 3.83570
# Velocity P-wave (km/s) = 4.98357 5.82659 5.42149
#
# Compressibility (1/GPa) = 0.05904473
#
# Stress axis : x y z
#
# Youngs Moduli (GPa) = 73.36099 33.16476 106.37557
#
# Poissons Ratio (x) = -0.28264 0.13949
# Poissons Ratio (y) = -0.62521 0.45539
# Poissons Ratio (z) = 0.09620 0.14198
#
# Static dielectric constant tensor:
#      x y z
#    x 1.753160 0.000000 0.000000 
#    y 0.000000 1.748550 0.000000 
#    z 0.000000 0.000000 1.788240 
# 
# From -- ./inp_files/41940.got.cif
#   From: 2010.05.17/outbox.cif.g08.bks.cpg/sg72_21_cif.got.tgz:41940.got - 2010.06.03 17:03:01.
