data_PCOD9529981
_publ_section_title
;
Structure prediction by ZEFSAII (Michael W. Deem and Ramdas Pophale) SiO2 
 PCOD9529981
Probable space group: I B C A 
;
_chemical_formula_sum "Si O2"
_cell_formula_units_Z 80
_cell_length_a 15.992873
_cell_length_b 14.084587
_cell_length_c 14.609884
_cell_angle_alpha 90.000000
_cell_angle_beta 90.000000
_cell_angle_gamma 90.000000
_cell_volume 3290.920364
_symmetry_space_group_name_H-M "I B C A "
_symmetry_group_IT_number 73
_symmetry_cell_setting 'orthorhombic'
loop_
_space_group_symop_operation_xyz
x,y,z
-x,1/2-y,z
x,-y,1/2-z
1/2-x,y,-z
-x,-y,-z
x,1/2+y,-z
-x,y,1/2+z
1/2+x,-y,z
1/2+x,1/2+y,1/2+z
1/2-x,-y,1/2+z
1/2+x,1/2-y,-z
-x,1/2+y,1/2-z
1/2-x,1/2-y,1/2-z
1/2+x,y,1/2-z
1/2-x,1/2+y,z
x,1/2-y,1/2+z
loop_
_atom_site_type_symbol
_atom_site_label
_atom_site_fract_x
_atom_site_fract_y
_atom_site_fract_z
Si Si1 0.084465 0.388911 0.723512
Si Si2 0.000000 0.750000 0.582776
Si Si3 0.589134 0.886519 0.767041
Si Si4 0.345605 0.336472 0.080079
Si Si5 0.255127 0.661455 0.858524
Si Si6 0.750000 0.492257 0.000000
O O1 0.084940 0.500000 0.750000
O O2 0.115075 0.343220 0.818516
O O3 0.158278 0.360904 0.655934
O O4 0.989043 0.362110 0.700134
O O5 0.951709 0.664792 0.641354
O O6 0.924534 0.795509 0.525827
O O7 0.684402 0.847598 0.769127
O O8 0.597881 0.000000 0.750000
O O9 0.272109 0.260982 0.093401
O O10 0.316011 0.436876 0.045097
O O11 0.287380 0.576325 0.923300
#
# Coordination Sequence:
#
# PCOD9529981 Si02
#       6
#    16   8  16  16  16   8
#     4  10  18  37  64  90 120 158 207 263 308 356
#     4   8  18  38  60  84 120 158 196 256 318 352
#     4   9  19  34  61  91 117 151 201 255 307 360
#     4  10  21  39  62  89 123 160 208 256 308 371
#     4  11  22  39  64  91 125 165 203 255 317 363
#     4  12  24  38  62  90 128 170 206 242 308 388
#
# _framework density 24.309308999999999
#
# number of rings (size 3 to 8) (size 9 to 14) (size 15 to 20)
#    0.000    2.000    2.000    1.800    0.000    0.000 
#    0.000    9.000    4.400    0.000    0.000    0.000 
#    0.000    0.000    0.000    0.000    0.000    0.000 
#
# Total GULP energy -222736.788333 kJ/mol
# GULP energy per Si atom -5568.419708 kJ/mol
# Density = 2.425398 g / cm^3
# Si number density = 24.309309 Si / 1000 Ang^3
#
#
#
# Elastic Constant Matrix: (Units=GPa)
#
#
# Indices 1 2 3 4 5 6 
#
# 1 112.6805 9.6895 20.3148 0.0000 0.0000 0.0000
# 2 9.6895 104.7395 28.7378 0.0000 0.0000 0.0000
# 3 20.3148 28.7378 39.5005 0.0000 0.0000 0.0000
# 4 0.0000 0.0000 0.0000 15.9023 0.0000 0.0000
# 5 0.0000 0.0000 0.0000 0.0000 5.9580 0.0000
# 6 0.0000 0.0000 0.0000 0.0000 0.0000 30.3049
#
#
#
# Elastic Compliance Matrix: (Units=1/GPa)
#
#
# Indices 1 2 3 4 5 6 
#
# 1 0.009811 0.000596 -0.005479 0.000000 0.000000 0.000000
# 2 0.000596 0.011965 -0.009011 0.000000 0.000000 0.000000
# 3 -0.005479 -0.009011 0.034690 0.000000 0.000000 0.000000
# 4 0.000000 0.000000 0.000000 0.062884 0.000000 0.000000
# 5 0.000000 0.000000 0.000000 0.000000 0.167843 0.000000
# 6 0.000000 0.000000 0.000000 0.000000 0.000000 0.032998
#
#
# Mechanical properties :
#
#
# Convention : Reuss Voigt Hill
#
# Bulk Modulus (GPa) = 34.87156 41.60054 38.23605
# Shear Modulus (GPa) = 13.98448 23.64491 18.81469
#
# Velocity S-wave (km/s) = 2.40109 3.12215 2.78505
# Velocity P-wave (km/s) = 4.69713 5.49065 5.10932
#
# Compressibility (1/GPa) = 0.02867667
#
# Stress axis : x y z
#
# Youngs Moduli (GPa) = 101.92372 83.57840 28.82678
#
# Poissons Ratio (x) = -0.04979 0.15795
# Poissons Ratio (y) = -0.06072 0.25976
# Poissons Ratio (z) = 0.55847 0.75314
#
# Static dielectric constant tensor:
#      x y z
#    x 2.129530 0.000000 0.000000 
#    y 0.000000 1.983720 0.000000 
#    z 0.000000 0.000000 2.058490 
# 
# From -- ./inp_files/22428.got.cif
#   From: 2010.05.17/outbox.cif.g08.bks.cpg/sg73_12_cif.got.tgz:22428.got - 2010.06.03 17:35:07.
