data_PCOD9529510
_publ_section_title
;
Structure prediction by ZEFSAII (Michael W. Deem and Ramdas Pophale) SiO2 
 PCOD9529510
Probable space group: I B A M
;
_chemical_formula_sum "Si O2"
_cell_formula_units_Z 50
_cell_length_a 21.000000
_cell_length_b 30.000000
_cell_length_c 9.000000
_cell_angle_alpha 90.000000
_cell_angle_beta 90.000000
_cell_angle_gamma 90.000000
_cell_volume 5670.000000
_symmetry_space_group_name_H-M "I B A M"
_symmetry_group_IT_number 72
_symmetry_cell_setting 'orthorhombic'
loop_
_space_group_symop_operation_xyz
x,y,z
-x,-y,z
x,-y,1/2-z
-x,y,1/2-z
-x,-y,-z
x,y,-z
-x,y,1/2+z
x,-y,1/2+z
1/2+x,1/2+y,1/2+z
1/2-x,1/2-y,1/2+z
1/2+x,1/2-y,-z
1/2-x,1/2+y,-z
1/2-x,1/2-y,1/2-z
1/2+x,1/2+y,1/2-z
1/2-x,1/2+y,z
1/2+x,1/2-y,z
loop_
_atom_site_type_symbol
_atom_site_label
_atom_site_fract_x
_atom_site_fract_y
_atom_site_fract_z
Si Si1 0.500000 0.500000 0.750000
Si Si2 0.564731 0.723494 0.326522
Si Si3 0.065752 0.669929 0.324830
Si Si4 0.157024 0.841961 0.823154
Si Si5 0.798198 0.366185 0.320860
Si Si6 0.109181 0.928513 0.333407
Si Si7 0.255613 0.955151 0.672543
O O1 0.551653 0.464091 0.816142
O O2 0.500000 0.707392 0.250000
O O3 0.563162 0.713104 0.500000
O O4 0.568166 0.776630 0.308326
O O5 0.623383 0.699811 0.249814
O O6 0.061737 0.659750 0.500000
O O7 0.133752 0.652062 0.267393
O O8 0.000000 0.654111 0.250000
O O9 0.231105 0.843676 0.773629
O O10 0.117286 0.886313 0.775323
O O11 0.155769 0.839344 0.000000
O O12 0.799128 0.364494 0.500000
O O13 0.787515 0.415516 0.261983
O O14 0.104402 0.909926 0.500000
O O15 0.178362 0.951762 0.319072
O O16 0.272339 0.953010 0.500000
O O17 0.275860 0.000000 0.750000
#
# Coordination Sequence:
#
# PCOD9529510 Si02
#       7
#     4  16  16  16  16  16  16
#     4  12  22  36  52  74 102 140 186 230 274 308
#     4  10  20  35  54  76 106 143 181 222 268 317
#     4   9  19  36  58  83 110 139 173 214 264 323
#     4  10  21  36  54  76 106 143 182 224 270 316
#     4   9  19  36  56  80 109 141 176 217 266 320
#     4  10  22  36  51  72 101 138 182 227 268 312
#     4  10  19  34  54  77 104 138 177 218 263 312
#
# _framework density 8.8183419999999995
#
# number of rings (size 3 to 8) (size 9 to 14) (size 15 to 20)
#    0.000    2.240    0.800    1.680    1.120    4.480 
#    0.000    0.000    0.000    0.480    0.000    3.360 
#    0.000    0.000    0.000    0.000    0.000    0.000 
#
# Total GULP energy -278348.913474 kJ/mol
# GULP energy per Si atom -5566.978269 kJ/mol
# Density = 0.879827 g / cm^3
# Si number density = 8.818342 Si / 1000 Ang^3
#
#
#
# Elastic Constant Matrix: (Units=GPa)
#
#
# Indices 1 2 3 4 5 6 
#
# 1 139.1928 43.0592 45.7475 0.0000 0.0000 0.0000
# 2 43.0592 0.3530 23.3933 0.0000 0.0000 0.0000
# 3 45.7475 23.3933 17.7675 0.0000 0.0000 0.0000
# 4 0.0000 0.0000 0.0000 13.2790 0.0000 0.0000
# 5 0.0000 0.0000 0.0000 0.0000 23.6627 0.0000
# 6 0.0000 0.0000 0.0000 0.0000 0.0000 -0.6806
#
#
#
# Elastic Compliance Matrix: (Units=1/GPa)
#
#
# Indices 1 2 3 4 5 6 
#
# 1 0.032166 -0.018143 -0.058933 0.000000 0.000000 0.000000
# 2 -0.018143 -0.022610 0.076483 0.000000 0.000000 0.000000
# 3 -0.058933 0.076483 0.107321 0.000000 0.000000 0.000000
# 4 0.000000 0.000000 0.000000 0.075307 0.000000 0.000000
# 5 0.000000 0.000000 0.000000 0.000000 0.042261 0.000000
# 6 0.000000 0.000000 0.000000 0.000000 0.000000 -1.469374
#
#
# Mechanical properties :
#
#
# Convention : Reuss Voigt Hill
#
# Bulk Modulus (GPa) = 8.64362 42.41260 25.52811
# Shear Modulus (GPa) = -4.18346 10.25977 3.03815
#
# Velocity S-wave (km/s) = -1.54181 2.41452 1.31391
# Velocity P-wave (km/s) = 1.31985 5.64565 4.09972
#
# Compressibility (1/GPa) = 0.11569222
#
# Stress axis : x y z
#
# Youngs Moduli (GPa) = 31.08906 -44.22734 9.31784
#
# Poissons Ratio (x) = -0.80240 0.54912
# Poissons Ratio (y) = 0.56404 -0.71266
# Poissons Ratio (z) = 1.83216 3.38265
#
# Static dielectric constant tensor:
#      x y z
#    x 1.607580 0.000000 0.000000 
#    y 0.000000 1.590810 0.000000 
#    z 0.000000 0.000000 1.603030 
# 
# From -- ./inp_files/6391.got.cif
#   From: 2010.05.17/outbox.ucp.g08.bks.cvg/sg72_4_cif.got.tgz:6391.got - 2010.06.11 16:33:07.
