data_PCOD9529925
_publ_section_title
;
Structure prediction by ZEFSAII (Michael W. Deem and Ramdas Pophale) SiO2 
 PCOD9529925
Probable space group: I B C A 
;
_chemical_formula_sum "Si O2"
_cell_formula_units_Z 112
_cell_length_a 23.716777
_cell_length_b 16.012747
_cell_length_c 15.523223
_cell_angle_alpha 90.000000
_cell_angle_beta 90.000000
_cell_angle_gamma 90.000000
_cell_volume 5895.266037
_symmetry_space_group_name_H-M "I B C A "
_symmetry_group_IT_number 73
_symmetry_cell_setting 'orthorhombic'
loop_
_space_group_symop_operation_xyz
x,y,z
-x,1/2-y,z
x,-y,1/2-z
1/2-x,y,-z
-x,-y,-z
x,1/2+y,-z
-x,y,1/2+z
1/2+x,-y,z
1/2+x,1/2+y,1/2+z
1/2-x,-y,1/2+z
1/2+x,1/2-y,-z
-x,1/2+y,1/2-z
1/2-x,1/2-y,1/2-z
1/2+x,y,1/2-z
1/2-x,1/2+y,z
x,1/2-y,1/2+z
loop_
_atom_site_type_symbol
_atom_site_label
_atom_site_fract_x
_atom_site_fract_y
_atom_site_fract_z
Si Si1 0.726328 0.116140 0.091962
Si Si2 0.063043 0.932265 0.367614
Si Si3 0.129928 0.749746 0.637443
Si Si4 0.280390 0.838616 0.261449
Si Si5 0.463653 0.382466 0.183524
Si Si6 0.187878 0.049128 0.159416
Si Si7 0.459387 0.327563 0.532008
O O1 0.677974 0.182343 0.115435
O O2 0.773312 0.118580 0.168026
O O3 0.700861 0.023102 0.091340
O O4 0.750000 0.138716 0.000000
O O5 0.028317 0.899653 0.284675
O O6 0.128690 0.906134 0.357655
O O7 0.040792 0.895742 0.456859
O O8 0.062248 0.032682 0.357430
O O9 0.158581 0.817594 0.700355
O O10 0.079512 0.694609 0.676907
O O11 0.102712 0.793335 0.554037
O O12 0.250000 0.750000 0.250000
O O13 0.241176 0.891176 0.326605
O O14 0.516368 0.361964 0.122725
O O15 0.180065 0.000000 0.250000
O O16 0.500000 0.250000 0.507519
#
# Coordination Sequence:
#
# PCOD9529925 Si02
#       7
#    16  16  16  16  16  16  16
#     4  10  20  34  55  85 119 151 195 238 284 351
#     4  11  19  37  67  83 107 158 199 230 300 356
#     4  10  20  39  55  82 121 152 187 246 297 333
#     4   9  19  34  57  81 115 152 190 237 286 350
#     4  10  20  39  62  84 112 152 202 246 283 351
#     4  10  18  35  58  84 109 152 195 226 283 355
#     4  10  24  37  56  88 121 148 195 256 293 342
#
# _framework density 18.998294000000001
#
# number of rings (size 3 to 8) (size 9 to 14) (size 15 to 20)
#    0.000    2.000    2.857    2.143    0.000    6.286 
#    0.000    2.143   12.571    0.000    0.000    0.000 
#    0.000    0.000    0.000    0.000    0.000    0.000 
#
# Total GULP energy -312144.548158 kJ/mol
# GULP energy per Si atom -5574.009789 kJ/mol
# Density = 1.895505 g / cm^3
# Si number density = 18.998294 Si / 1000 Ang^3
#
#
#
# Elastic Constant Matrix: (Units=GPa)
#
#
# Indices 1 2 3 4 5 6 
#
# 1 60.5898 25.8931 38.7389 0.0000 0.0000 0.0000
# 2 25.8931 62.4213 31.2788 0.0000 0.0000 0.0000
# 3 38.7389 31.2788 78.4292 0.0000 0.0000 0.0000
# 4 0.0000 0.0000 0.0000 15.6363 0.0000 0.0000
# 5 0.0000 0.0000 0.0000 0.0000 10.8460 0.0000
# 6 0.0000 0.0000 0.0000 0.0000 0.0000 22.4345
#
#
#
# Elastic Compliance Matrix: (Units=1/GPa)
#
#
# Indices 1 2 3 4 5 6 
#
# 1 0.025464 -0.005324 -0.010454 0.000000 0.000000 0.000000
# 2 -0.005324 0.021135 -0.005799 0.000000 0.000000 0.000000
# 3 -0.010454 -0.005799 0.020227 0.000000 0.000000 0.000000
# 4 0.000000 0.000000 0.000000 0.063954 0.000000 0.000000
# 5 0.000000 0.000000 0.000000 0.000000 0.092200 0.000000
# 6 0.000000 0.000000 0.000000 0.000000 0.000000 0.044574
#
#
# Mechanical properties :
#
#
# Convention : Reuss Voigt Hill
#
# Bulk Modulus (GPa) = 42.24669 43.69575 42.97122
# Shear Modulus (GPa) = 15.69379 16.81865 16.25622
#
# Velocity S-wave (km/s) = 2.87725 2.97858 2.92835
# Velocity P-wave (km/s) = 5.77265 5.90585 5.83963
#
# Compressibility (1/GPa) = 0.02367049
#
# Stress axis : x y z
#
# Youngs Moduli (GPa) = 39.27169 47.31594 49.43968
#
# Poissons Ratio (x) = 0.25192 0.51684
# Poissons Ratio (y) = 0.20909 0.28670
# Poissons Ratio (z) = 0.41055 0.27438
#
# Static dielectric constant tensor:
#      x y z
#    x 1.668810 0.000000 0.000000 
#    y 0.000000 1.699300 0.000000 
#    z 0.000000 0.000000 1.676720 
# 
# From -- ./inp_files/19386.got.cif
#   From: 2010.05.17/outbox.cif.g08.bks.cpg/sg73_10_cif.got.tgz:19386.got - 2010.06.03 17:35:07.
