data_PCOD9529538
_publ_section_title
;
Structure prediction by ZEFSAII (Michael W. Deem and Ramdas Pophale) SiO2 
 PCOD9529538
Probable space group: I B A M
;
_chemical_formula_sum "Si O2"
_cell_formula_units_Z 58
_cell_length_a 18.000000
_cell_length_b 18.000000
_cell_length_c 18.000000
_cell_angle_alpha 90.000000
_cell_angle_beta 90.000000
_cell_angle_gamma 90.000000
_cell_volume 5832.000000
_symmetry_space_group_name_H-M "I B A M"
_symmetry_group_IT_number 72
_symmetry_cell_setting 'orthorhombic'
loop_
_space_group_symop_operation_xyz
x,y,z
-x,-y,z
x,-y,1/2-z
-x,y,1/2-z
-x,-y,-z
x,y,-z
-x,y,1/2+z
x,-y,1/2+z
1/2+x,1/2+y,1/2+z
1/2-x,1/2-y,1/2+z
1/2+x,1/2-y,-z
1/2-x,1/2+y,-z
1/2-x,1/2-y,1/2-z
1/2+x,1/2+y,1/2-z
1/2-x,1/2+y,z
1/2+x,1/2-y,z
loop_
_atom_site_type_symbol
_atom_site_label
_atom_site_fract_x
_atom_site_fract_y
_atom_site_fract_z
Si Si1 0.533679 0.082092 0.910873
Si Si2 0.995594 0.752392 0.910467
Si Si3 0.142325 0.152742 0.414316
Si Si4 0.670215 0.951865 0.314184
Si Si5 0.774146 0.827766 0.721468
Si Si6 0.305563 0.507938 0.086492
Si Si7 0.000000 0.000000 0.250000
Si Si8 0.100286 0.876804 0.669175
O O1 0.499418 0.164045 0.891000
O O2 0.613429 0.081074 0.872480
O O3 0.500000 0.000000 0.890584
O O4 0.537868 0.081804 0.000000
O O5 0.071392 0.797806 0.895244
O O6 0.936673 0.802784 0.865149
O O7 0.981520 0.756889 0.000000
O O8 0.157246 0.164049 0.500000
O O9 0.210803 0.177953 0.365538
O O10 0.139551 0.063473 0.402290
O O11 0.711255 0.888064 0.268404
O O12 0.632120 0.000000 0.250000
O O13 0.735257 0.994059 0.359870
O O14 0.750000 0.750000 0.750000
O O15 0.848866 0.854434 0.761167
O O16 0.347483 0.582576 0.109033
O O17 0.283480 0.508278 0.000000
O O18 0.046318 0.057742 0.198784
#
# Coordination Sequence:
#
# PCOD9529538 Si02
#       8
#    16  16  16  16  16  16   4  16
#     4  10  23  43  66  88 116 159 211 269 325 371
#     4  10  21  39  62  91 125 162 210 264 312 368
#     4   9  20  38  60  85 121 163 203 250 306 375
#     4  11  21  40  60  86 118 158 202 251 307 370
#     4  11  23  38  58  87 123 162 201 250 307 364
#     4  10  20  36  60  90 123 161 202 247 305 370
#     4  12  24  36  62  92 130 176 204 244 316 372
#     4  12  21  37  58  94 126 168 202 252 303 376
#
# _framework density 9.9451300000000007
#
# number of rings (size 3 to 8) (size 9 to 14) (size 15 to 20)
#    0.000    1.517    1.379    4.966    0.000    1.931 
#    0.000    6.897    0.000    0.000    0.000    0.000 
#    0.000    0.000    0.000    0.000    0.000    0.000 
#
# Total GULP energy -323265.209380 kJ/mol
# GULP energy per Si atom -5573.538093 kJ/mol
# Density = 0.992249 g / cm^3
# Si number density = 9.945130 Si / 1000 Ang^3
#
#
#
# Elastic Constant Matrix: (Units=GPa)
#
#
# Indices 1 2 3 4 5 6 
#
# 1 31.0049 24.9521 19.1471 0.0000 0.0000 0.0000
# 2 24.9521 90.3084 54.8119 0.0000 0.0000 0.0000
# 3 19.1471 54.8119 16.7062 0.0000 0.0000 0.0000
# 4 0.0000 0.0000 0.0000 28.1690 0.0000 0.0000
# 5 0.0000 0.0000 0.0000 0.0000 -11.8626 0.0000
# 6 0.0000 0.0000 0.0000 0.0000 0.0000 3.1339
#
#
#
# Elastic Compliance Matrix: (Units=1/GPa)
#
#
# Indices 1 2 3 4 5 6 
#
# 1 0.039876 -0.016867 0.009637 0.000000 0.000000 0.000000
# 2 -0.016867 -0.004036 0.032572 0.000000 0.000000 0.000000
# 3 0.009637 0.032572 -0.058052 0.000000 0.000000 0.000000
# 4 0.000000 0.000000 0.000000 0.035500 0.000000 0.000000
# 5 0.000000 0.000000 0.000000 0.000000 -0.084298 0.000000
# 6 0.000000 0.000000 0.000000 0.000000 0.000000 0.319088
#
#
# Mechanical properties :
#
#
# Convention : Reuss Voigt Hill
#
# Bulk Modulus (GPa) = 35.12254 37.31573 36.21914
# Shear Modulus (GPa) = 24.16816 6.49529 15.33172
#
# Velocity S-wave (km/s) = 3.48957 1.80905 2.77937
# Velocity P-wave (km/s) = 5.82518 4.81301 5.34311
#
# Compressibility (1/GPa) = 0.02847174
#
# Stress axis : x y z
#
# Youngs Moduli (GPa) = 25.07801 -247.79688 -17.22589
#
# Poissons Ratio (x) = -4.17954 0.16601
# Poissons Ratio (y) = 0.42299 0.56107
# Poissons Ratio (z) = -0.24168 8.07112
#
# Static dielectric constant tensor:
#      x y z
#    x 1.706810 0.000000 0.000000 
#    y 0.000000 1.732880 0.000000 
#    z 0.000000 0.000000 1.694950 
# 
# From -- ./inp_files/31721.got.cif
#   From: 2010.05.17/outbox.ucp.g08.bks.cvg/sg72_16_cif.got.tgz:31721.got - 2010.06.11 16:33:07.
