data_PCOD9529641
_publ_section_title
;
Structure prediction by ZEFSAII (Michael W. Deem and Ramdas Pophale) SiO2 
 PCOD9529641
Probable space group: I B C A 
;
_chemical_formula_sum "Si O2"
_cell_formula_units_Z 104
_cell_length_a 18.141453
_cell_length_b 16.412208
_cell_length_c 20.675707
_cell_angle_alpha 90.000000
_cell_angle_beta 90.000000
_cell_angle_gamma 90.000000
_cell_volume 6156.011882
_symmetry_space_group_name_H-M "I B C A "
_symmetry_group_IT_number 73
_symmetry_cell_setting 'orthorhombic'
loop_
_space_group_symop_operation_xyz
x,y,z
-x,1/2-y,z
x,-y,1/2-z
1/2-x,y,-z
-x,-y,-z
x,1/2+y,-z
-x,y,1/2+z
1/2+x,-y,z
1/2+x,1/2+y,1/2+z
1/2-x,-y,1/2+z
1/2+x,1/2-y,-z
-x,1/2+y,1/2-z
1/2-x,1/2-y,1/2-z
1/2+x,y,1/2-z
1/2-x,1/2+y,z
x,1/2-y,1/2+z
loop_
_atom_site_type_symbol
_atom_site_label
_atom_site_fract_x
_atom_site_fract_y
_atom_site_fract_z
Si Si1 0.373004 0.761609 0.237057
Si Si2 0.725541 0.389818 0.926319
Si Si3 0.226954 0.938331 0.865275
Si Si4 0.683430 0.000000 0.250000
Si Si5 0.413342 0.888977 0.655708
Si Si6 0.273101 0.270170 0.149269
Si Si7 0.570078 0.070170 0.804117
O O1 0.415778 0.695947 0.194219
O O2 0.347281 0.731561 0.307709
O O3 0.296740 0.773553 0.197758
O O4 0.415314 0.846500 0.235480
O O5 0.750635 0.479427 0.902249
O O6 0.638174 0.382247 0.907943
O O7 0.764119 0.315496 0.887540
O O8 0.750000 0.381602 0.000000
O O9 0.259944 0.852998 0.891923
O O10 0.139980 0.938908 0.851662
O O11 0.264729 0.945046 0.794425
O O12 0.633541 0.947073 0.203053
O O13 0.495646 0.923031 0.653988
O O14 0.565914 0.000000 0.750000
#
# Coordination Sequence:
#
# PCOD9529641 Si02
#       7
#    16  16  16   8  16  16  16
#     4   9  17  29  49  78 106 130 162 206 265 318
#     4  10  22  37  52  72 101 142 188 220 244 296
#     4  10  19  32  54  77 106 139 173 210 258 312
#     4  10  16  30  50  76 106 134 162 206 256 314
#     4  10  19  32  49  75 109 134 164 213 265 303
#     4   9  17  31  53  76 101 134 172 216 255 302
#     4  11  19  28  48  82 112 136 158 205 271 326
#
# _framework density 16.894055000000002
#
# number of rings (size 3 to 8) (size 9 to 14) (size 15 to 20)
#    0.000    2.154    3.077    1.385    4.308    0.615 
#    0.000    0.769    0.000    0.000    0.000   19.385 
#    0.000    0.000    0.000    0.000    0.000    0.000 
#
# Total GULP energy -289511.091466 kJ/mol
# GULP energy per Si atom -5567.520990 kJ/mol
# Density = 1.685560 g / cm^3
# Si number density = 16.894055 Si / 1000 Ang^3
#
#
#
# Elastic Constant Matrix: (Units=GPa)
#
#
# Indices 1 2 3 4 5 6 
#
# 1 99.5545 25.2845 31.0332 0.0000 0.0000 0.0000
# 2 25.2845 122.7201 30.1998 0.0000 0.0000 0.0000
# 3 31.0332 30.1998 59.2982 0.0000 0.0000 0.0000
# 4 0.0000 0.0000 0.0000 9.9585 0.0000 0.0000
# 5 0.0000 0.0000 0.0000 0.0000 9.9284 0.0000
# 6 0.0000 0.0000 0.0000 0.0000 0.0000 5.6715
#
#
#
# Elastic Compliance Matrix: (Units=1/GPa)
#
#
# Indices 1 2 3 4 5 6 
#
# 1 0.012125 -0.001071 -0.005800 0.000000 0.000000 0.000000
# 2 -0.001071 0.009411 -0.004232 0.000000 0.000000 0.000000
# 3 -0.005800 -0.004232 0.022055 0.000000 0.000000 0.000000
# 4 0.000000 0.000000 0.000000 0.100417 0.000000 0.000000
# 5 0.000000 0.000000 0.000000 0.000000 0.100721 0.000000
# 6 0.000000 0.000000 0.000000 0.000000 0.000000 0.176322
#
#
# Mechanical properties :
#
#
# Convention : Reuss Voigt Hill
#
# Bulk Modulus (GPa) = 46.76420 50.51197 48.63809
# Shear Modulus (GPa) = 11.10163 18.11536 14.60850
#
# Velocity S-wave (km/s) = 2.56624 3.27814 2.94379
# Velocity P-wave (km/s) = 6.04332 6.65526 6.35666
#
# Compressibility (1/GPa) = 0.02138388
#
# Stress axis : x y z
#
# Youngs Moduli (GPa) = 82.47635 106.26110 45.34160
#
# Poissons Ratio (x) = 0.11378 0.26298
# Poissons Ratio (y) = 0.08831 0.19190
# Poissons Ratio (z) = 0.47836 0.44974
#
# Static dielectric constant tensor:
#      x y z
#    x 1.581730 0.000000 0.000000 
#    y 0.000000 1.683430 0.000000 
#    z 0.000000 0.000000 1.554250 
# 
# From -- ./inp_files/26538.got.cif
#   From: 2010.05.17/outbox.cif.g08.bks.cpg/sg73_14_cif.got.tgz:26538.got - 2010.06.03 17:35:07.
