data_PCOD9529483
_publ_section_title
;
Structure prediction by ZEFSAII (Michael W. Deem and Ramdas Pophale) SiO2 
 PCOD9529483
Probable space group: I B A M
;
_chemical_formula_sum "Si O2"
_cell_formula_units_Z 48
_cell_length_a 12.944746
_cell_length_b 16.612617
_cell_length_c 10.412272
_cell_angle_alpha 90.000000
_cell_angle_beta 90.000000
_cell_angle_gamma 90.000000
_cell_volume 2239.118563
_symmetry_space_group_name_H-M "I B A M"
_symmetry_group_IT_number 72
_symmetry_cell_setting 'orthorhombic'
loop_
_space_group_symop_operation_xyz
x,y,z
-x,-y,z
x,-y,1/2-z
-x,y,1/2-z
-x,-y,-z
x,y,-z
-x,y,1/2+z
x,-y,1/2+z
1/2+x,1/2+y,1/2+z
1/2-x,1/2-y,1/2+z
1/2+x,1/2-y,-z
1/2-x,1/2+y,-z
1/2-x,1/2-y,1/2-z
1/2+x,1/2+y,1/2-z
1/2-x,1/2+y,z
1/2+x,1/2-y,z
loop_
_atom_site_type_symbol
_atom_site_label
_atom_site_fract_x
_atom_site_fract_y
_atom_site_fract_z
Si Si1 0.056554 0.872066 0.500000
Si Si2 0.338021 0.453806 0.000000
Si Si3 0.636984 0.936554 0.642676
Si Si4 0.162755 0.739779 0.644761
O O1 0.088462 0.815892 0.621149
O O2 0.938054 0.897983 0.500000
O O3 0.123576 0.953789 0.500000
O O4 0.261942 0.438476 0.120557
O O5 0.598714 0.957736 0.500000
O O6 0.607451 0.844922 0.671531
O O7 0.610201 0.000000 0.750000
O O8 0.209978 0.730226 0.500000
O O9 0.250000 0.750000 0.750000
#
# Coordination Sequence:
#
# PCOD9529483 Si02
#       4
#     8   8  16  16
#     4   9  17  30  48  70 105 143 172 208 271 312
#     4   9  17  30  48  72 105 145 172 210 269 331
#     4   9  18  31  51  76 107 140 186 217 270 316
#     4   9  18  31  49  68  99 139 180 223 256 311
#
# _framework density 21.437007999999999
#
# number of rings (size 3 to 8) (size 9 to 14) (size 15 to 20)
#    2.000    1.000    0.000    2.000    0.000    0.000 
#    0.000   11.667    0.000    0.000    0.000    0.000 
#    0.000   61.333    0.000    0.000    0.000    0.000 
#
# Total GULP energy -133659.467224 kJ/mol
# GULP energy per Si atom -5569.144468 kJ/mol
# Density = 2.138822 g / cm^3
# Si number density = 21.437008 Si / 1000 Ang^3
#
#
#
# Elastic Constant Matrix: (Units=GPa)
#
#
# Indices 1 2 3 4 5 6 
#
# 1 125.9157 72.3090 30.1169 0.0000 0.0000 0.0000
# 2 72.3090 184.1873 67.5650 0.0000 0.0000 0.0000
# 3 30.1169 67.5650 106.1923 0.0000 0.0000 0.0000
# 4 0.0000 0.0000 0.0000 35.2737 0.0000 0.0000
# 5 0.0000 0.0000 0.0000 0.0000 -38.1447 0.0000
# 6 0.0000 0.0000 0.0000 0.0000 0.0000 26.5859
#
#
#
# Elastic Compliance Matrix: (Units=1/GPa)
#
#
# Indices 1 2 3 4 5 6 
#
# 1 0.010270 -0.003866 -0.000453 0.000000 0.000000 0.000000
# 2 -0.003866 0.008537 -0.004336 0.000000 0.000000 0.000000
# 3 -0.000453 -0.004336 0.012304 0.000000 0.000000 0.000000
# 4 0.000000 0.000000 0.000000 0.028350 0.000000 0.000000
# 5 0.000000 0.000000 0.000000 0.000000 -0.026216 0.000000
# 6 0.000000 0.000000 0.000000 0.000000 0.000000 0.037614
#
#
# Mechanical properties :
#
#
# Convention : Reuss Voigt Hill
#
# Bulk Modulus (GPa) = 72.45009 84.03079 78.24044
# Shear Modulus (GPa) = 53.89762 21.16326 37.53044
#
# Velocity S-wave (km/s) = 5.01965 3.14543 4.18871
# Velocity P-wave (km/s) = 8.21377 7.24401 7.74408
#
# Compressibility (1/GPa) = 0.01380261
#
# Stress axis : x y z
#
# Youngs Moduli (GPa) = 97.36986 117.13398 81.27523
#
# Poissons Ratio (x) = 0.45280 0.03683
# Poissons Ratio (y) = 0.37640 0.35237
# Poissons Ratio (z) = 0.04412 0.50783
#
# Static dielectric constant tensor:
#      x y z
#    x 1.786140 0.000000 0.000000 
#    y 0.000000 1.805980 0.000000 
#    z 0.000000 0.000000 1.776610 
# 
# From -- ./inp_files/12195.got.cif
#   From: 2010.05.17/outbox.cif.g08.bks.cpg/sg72_7_cif.got.tgz:12195.got - 2010.06.03 17:03:01.
