data_PCOD9529506
_publ_section_title
;
Structure prediction by ZEFSAII (Michael W. Deem and Ramdas Pophale) SiO2 
 PCOD9529506
Probable space group: I B A M
;
_chemical_formula_sum "Si O2"
_cell_formula_units_Z 58
_cell_length_a 24.000000
_cell_length_b 30.000000
_cell_length_c 9.000000
_cell_angle_alpha 90.000000
_cell_angle_beta 90.000000
_cell_angle_gamma 90.000000
_cell_volume 6480.000000
_symmetry_space_group_name_H-M "I B A M"
_symmetry_group_IT_number 72
_symmetry_cell_setting 'orthorhombic'
loop_
_space_group_symop_operation_xyz
x,y,z
-x,-y,z
x,-y,1/2-z
-x,y,1/2-z
-x,-y,-z
x,y,-z
-x,y,1/2+z
x,-y,1/2+z
1/2+x,1/2+y,1/2+z
1/2-x,1/2-y,1/2+z
1/2+x,1/2-y,-z
1/2-x,1/2+y,-z
1/2-x,1/2-y,1/2-z
1/2+x,1/2+y,1/2-z
1/2-x,1/2+y,z
1/2+x,1/2-y,z
loop_
_atom_site_type_symbol
_atom_site_label
_atom_site_fract_x
_atom_site_fract_y
_atom_site_fract_z
Si Si1 0.557465 0.450616 0.319308
Si Si2 0.787795 0.548477 0.821008
Si Si3 0.500000 0.000000 0.750000
Si Si4 0.441595 0.823505 0.824120
Si Si5 0.085947 0.572675 0.322597
Si Si6 0.670072 0.213360 0.677358
Si Si7 0.717447 0.311008 0.677864
Si Si8 0.173088 0.095973 0.320151
O O1 0.562051 0.500000 0.250000
O O2 0.500000 0.431457 0.250000
O O3 0.553477 0.452337 0.500000
O O4 0.614386 0.425366 0.274738
O O5 0.788586 0.500000 0.750000
O O6 0.848117 0.570173 0.786832
O O7 0.730746 0.572515 0.770167
O O8 0.785220 0.545872 0.000000
O O9 0.451485 0.961328 0.726260
O O10 0.500000 0.810011 0.750000
O O11 0.433810 0.876766 0.803593
O O12 0.387883 0.800414 0.751006
O O13 0.442623 0.814606 0.000000
O O14 0.078313 0.560395 0.500000
O O15 0.666994 0.207821 0.500000
O O16 0.686995 0.264555 0.711152
O O17 0.722646 0.186426 0.743313
O O18 0.727244 0.312736 0.500000
O O19 0.679433 0.352528 0.721601
O O20 0.173284 0.093315 0.500000
#
# Coordination Sequence:
#
# PCOD9529506 Si02
#       8
#    16  16   4  16  16  16  16  16
#     4  10  19  33  53  77 104 139 177 213 257 313
#     4  10  19  33  50  73 103 138 178 217 261 309
#     4  12  18  36  52  74 104 140 188 224 266 308
#     4  11  22  38  57  79 107 143 184 226 274 323
#     4  10  21  34  52  74 103 144 183 222 269 317
#     4  10  20  35  57  85 110 137 177 222 271 326
#     4   9  18  36  60  81 106 140 175 217 268 324
#     4   9  18  33  55  78 104 138 175 216 265 317
#
# _framework density 8.9506169999999994
#
# number of rings (size 3 to 8) (size 9 to 14) (size 15 to 20)
#    0.000    2.069    1.379    3.103    0.000    2.759 
#    0.000    6.207    0.000    1.655    0.000    0.000 
#    0.000    0.000    0.000    0.000    0.000    0.000 
#
# Total GULP energy -323066.538536 kJ/mol
# GULP energy per Si atom -5570.112733 kJ/mol
# Density = 0.893025 g / cm^3
# Si number density = 8.950617 Si / 1000 Ang^3
#
#
#
# Elastic Constant Matrix: (Units=GPa)
#
#
# Indices 1 2 3 4 5 6 
#
# 1 186.8415 63.9614 42.3359 0.0000 0.0000 0.0000
# 2 63.9614 59.0733 25.3530 0.0000 0.0000 0.0000
# 3 42.3359 25.3530 38.6516 0.0000 0.0000 0.0000
# 4 0.0000 0.0000 0.0000 17.0297 0.0000 0.0000
# 5 0.0000 0.0000 0.0000 0.0000 22.6031 0.0000
# 6 0.0000 0.0000 0.0000 0.0000 0.0000 25.0279
#
#
#
# Elastic Compliance Matrix: (Units=1/GPa)
#
#
# Indices 1 2 3 4 5 6 
#
# 1 0.009123 -0.007780 -0.004890 0.000000 0.000000 0.000000
# 2 -0.007780 0.030194 -0.011285 0.000000 0.000000 0.000000
# 3 -0.004890 -0.011285 0.038630 0.000000 0.000000 0.000000
# 4 0.000000 0.000000 0.000000 0.058721 0.000000 0.000000
# 5 0.000000 0.000000 0.000000 0.000000 0.044242 0.000000
# 6 0.000000 0.000000 0.000000 0.000000 0.000000 0.039955
#
#
# Mechanical properties :
#
#
# Convention : Reuss Voigt Hill
#
# Bulk Modulus (GPa) = 33.28925 60.87410 47.08168
# Shear Modulus (GPa) = 17.93479 23.12655 20.53067
#
# Velocity S-wave (km/s) = 3.16867 3.59820 3.39024
# Velocity P-wave (km/s) = 5.65895 7.16534 6.45623
#
# Compressibility (1/GPa) = 0.03003973
#
# Stress axis : x y z
#
# Youngs Moduli (GPa) = 109.60914 33.11863 25.88643
#
# Poissons Ratio (x) = 0.25765 0.12659
# Poissons Ratio (y) = 0.85271 0.29212
# Poissons Ratio (z) = 0.53600 0.37373
#
# Static dielectric constant tensor:
#      x y z
#    x 1.607730 0.000000 0.000000 
#    y 0.000000 1.615710 0.000000 
#    z 0.000000 0.000000 1.618700 
# 
# From -- ./inp_files/7510.got.cif
#   From: 2010.05.17/outbox.ucp.g08.bks.cvg/sg72_4_cif.got.tgz:7510.got - 2010.06.11 16:33:07.
