data_PCOD9529757
_publ_section_title
;
Structure prediction by ZEFSAII (Michael W. Deem and Ramdas Pophale) SiO2 
 PCOD9529757
Probable space group: I B C A 
;
_chemical_formula_sum "Si O2"
_cell_formula_units_Z 80
_cell_length_a 14.806695
_cell_length_b 15.212625
_cell_length_c 17.430689
_cell_angle_alpha 90.000000
_cell_angle_beta 90.000000
_cell_angle_gamma 90.000000
_cell_volume 3926.240012
_symmetry_space_group_name_H-M "I B C A "
_symmetry_group_IT_number 73
_symmetry_cell_setting 'orthorhombic'
loop_
_space_group_symop_operation_xyz
x,y,z
-x,1/2-y,z
x,-y,1/2-z
1/2-x,y,-z
-x,-y,-z
x,1/2+y,-z
-x,y,1/2+z
1/2+x,-y,z
1/2+x,1/2+y,1/2+z
1/2-x,-y,1/2+z
1/2+x,1/2-y,-z
-x,1/2+y,1/2-z
1/2-x,1/2-y,1/2-z
1/2+x,y,1/2-z
1/2-x,1/2+y,z
x,1/2-y,1/2+z
loop_
_atom_site_type_symbol
_atom_site_label
_atom_site_fract_x
_atom_site_fract_y
_atom_site_fract_z
Si Si1 0.560478 0.168519 0.173261
Si Si2 0.426485 0.814705 0.651782
Si Si3 0.114422 0.994718 0.393674
Si Si4 0.775459 0.828928 0.340134
Si Si5 0.750000 0.581888 0.000000
Si Si6 0.751142 0.000000 0.250000
O O1 0.500000 0.250000 0.145874
O O2 0.540905 0.155937 0.263435
O O3 0.667951 0.188742 0.167474
O O4 0.550303 0.075329 0.130631
O O5 0.500000 0.750000 0.618706
O O6 0.424746 0.899122 0.598832
O O7 0.335761 0.757975 0.665649
O O8 0.169462 0.023706 0.467306
O O9 0.185965 0.982134 0.322803
O O10 0.784704 0.863515 0.427156
O O11 0.798383 0.909049 0.279739
#
# Coordination Sequence:
#
# PCOD9529757 Si02
#       6
#    16  16  16  16   8   8
#     4   9  18  34  57  88 115 146 190 244 299 349
#     4  11  21  34  55  87 119 154 191 245 293 349
#     4  10  17  37  58  85 120 154 189 251 290 361
#     4  10  19  37  57  86 116 150 200 244 287 368
#     4   8  20  36  60  80 112 160 204 234 310 344
#     4   8  16  32  58  80 112 146 182 242 292 336
#
# _framework density 20.375727999999999
#
# number of rings (size 3 to 8) (size 9 to 14) (size 15 to 20)
#    0.000    2.800    4.000    0.600    0.000    0.800 
#    7.200    5.000    0.000    0.000    0.000    0.000 
#    0.000    0.000    0.000    0.000    0.000    0.000 
#
# Total GULP energy -222834.939508 kJ/mol
# GULP energy per Si atom -5570.873488 kJ/mol
# Density = 2.032935 g / cm^3
# Si number density = 20.375728 Si / 1000 Ang^3
#
#
#
# Elastic Constant Matrix: (Units=GPa)
#
#
# Indices 1 2 3 4 5 6 
#
# 1 41.0246 53.8576 5.8788 0.0000 0.0000 0.0000
# 2 53.8576 182.2302 40.4881 0.0000 0.0001 0.0000
# 3 5.8788 40.4881 92.4097 0.0000 0.0001 0.0000
# 4 0.0000 0.0000 0.0000 21.6990 0.0001 0.0000
# 5 0.0000 0.0001 0.0001 0.0001 762.6514 0.0000
# 6 0.0000 0.0000 0.0000 0.0000 0.0000 41.5499
#
#
#
# Elastic Compliance Matrix: (Units=1/GPa)
#
#
# Indices 1 2 3 4 5 6 
#
# 1 0.040547 -0.012641 0.002959 0.000000 0.000000 0.000000
# 2 -0.012641 0.010020 -0.003586 0.000000 0.000000 0.000000
# 3 0.002959 -0.003586 0.012204 0.000000 0.000000 0.000000
# 4 0.000000 0.000000 0.000000 0.046085 0.000000 0.000000
# 5 0.000000 0.000000 0.000000 0.000000 0.001311 0.000000
# 6 0.000000 0.000000 0.000000 0.000000 0.000000 0.024067
#
#
# Mechanical properties :
#
#
# Convention : Reuss Voigt Hill
#
# Bulk Modulus (GPa) = 27.59737 57.34595 42.47166
# Shear Modulus (GPa) = 28.92694 179.54274 104.23484
#
# Velocity S-wave (km/s) = 3.77195 9.39720 7.16013
# Velocity P-wave (km/s) = 5.70471 12.08091 9.44701
#
# Compressibility (1/GPa) = 0.03623533
#
# Stress axis : x y z
#
# Youngs Moduli (GPa) = 24.66297 99.79751 81.93813
#
# Poissons Ratio (x) = 1.26153 -0.24245
# Poissons Ratio (y) = 0.31176 0.29384
# Poissons Ratio (z) = -0.07298 0.35788
#
# Static dielectric constant tensor:
#      x y z
#    x 1.770500 0.000000 0.000000 
#    y 0.000000 1.819520 0.000000 
#    z 0.000000 0.000000 1.706610 
# 
# From -- ./inp_files/22410.got.cif
#   From: 2010.05.17/outbox.cif.g08.bks.cpg/sg73_12_cif.got.tgz:22410.got - 2010.06.03 17:35:07.
