data_PCOD9529758
_publ_section_title
;
Structure prediction by ZEFSAII (Michael W. Deem and Ramdas Pophale) SiO2 
 PCOD9529758
Probable space group: I B C A 
;
_chemical_formula_sum "Si O2"
_cell_formula_units_Z 64
_cell_length_a 14.943982
_cell_length_b 9.838407
_cell_length_c 18.074681
_cell_angle_alpha 90.000000
_cell_angle_beta 90.000000
_cell_angle_gamma 90.000000
_cell_volume 2657.429560
_symmetry_space_group_name_H-M "I B C A "
_symmetry_group_IT_number 73
_symmetry_cell_setting 'orthorhombic'
loop_
_space_group_symop_operation_xyz
x,y,z
-x,1/2-y,z
x,-y,1/2-z
1/2-x,y,-z
-x,-y,-z
x,1/2+y,-z
-x,y,1/2+z
1/2+x,-y,z
1/2+x,1/2+y,1/2+z
1/2-x,-y,1/2+z
1/2+x,1/2-y,-z
-x,1/2+y,1/2-z
1/2-x,1/2-y,1/2-z
1/2+x,y,1/2-z
1/2-x,1/2+y,z
x,1/2-y,1/2+z
loop_
_atom_site_type_symbol
_atom_site_label
_atom_site_fract_x
_atom_site_fract_y
_atom_site_fract_z
Si Si1 0.415272 0.558079 0.097679
Si Si2 0.754392 0.593388 0.319793
Si Si3 0.106877 0.484279 0.426449
Si Si4 0.590801 0.731532 0.828950
O O1 0.341923 0.650960 0.138372
O O2 0.522468 0.581113 0.093639
O O3 0.402977 0.420996 0.145256
O O4 0.384956 0.524731 0.014172
O O5 0.773090 0.500000 0.250000
O O6 0.698486 0.501967 0.380730
O O7 0.819182 0.793975 0.202835
O O8 0.077599 0.333303 0.398945
O O9 0.500000 0.750000 0.782001
#
# Coordination Sequence:
#
# PCOD9529758 Si02
#       4
#    16  16  16  16
#     4  10  17  37  61  78 112 151 195 245 284 348
#     4  10  21  35  56  88 116 150 196 234 294 357
#     4   8  19  36  57  83 107 152 195 234 297 337
#     4   8  18  37  57  77 116 154 187 241 296 335
#
# _framework density 24.083423
#
# number of rings (size 3 to 8) (size 9 to 14) (size 15 to 20)
#    1.500    1.500    0.000    0.750    0.000    2.000 
#    9.000    0.000    0.000    0.000    0.000    0.000 
#    0.000    0.000    0.000    0.000    0.000    0.000 
#
# Total GULP energy -178206.952476 kJ/mol
# GULP energy per Si atom -5568.967265 kJ/mol
# Density = 2.402861 g / cm^3
# Si number density = 24.083423 Si / 1000 Ang^3
#
#
#
# Elastic Constant Matrix: (Units=GPa)
#
#
# Indices 1 2 3 4 5 6 
#
# 1 169.0565 3.8742 73.0763 0.0000 0.0000 0.0000
# 2 3.8742 25.8053 -7.3664 0.0000 0.0000 0.0000
# 3 73.0763 -7.3664 82.3772 0.0000 0.0000 0.0000
# 4 0.0000 0.0000 0.0000 8.1803 0.0000 0.0000
# 5 0.0000 0.0000 0.0000 0.0000 35.3593 0.0000
# 6 0.0000 0.0000 0.0000 0.0000 0.0000 34.9422
#
#
#
# Elastic Compliance Matrix: (Units=1/GPa)
#
#
# Indices 1 2 3 4 5 6 
#
# 1 0.010008 -0.004143 -0.009248 0.000000 0.000000 0.000000
# 2 -0.004143 0.041482 0.007384 0.000000 0.000000 0.000000
# 3 -0.009248 0.007384 0.021004 0.000000 0.000000 0.000000
# 4 0.000000 0.000000 0.000000 0.122245 0.000000 0.000000
# 5 0.000000 0.000000 0.000000 0.000000 0.028281 0.000000
# 6 0.000000 0.000000 0.000000 0.000000 0.000000 0.028619
#
#
# Mechanical properties :
#
#
# Convention : Reuss Voigt Hill
#
# Bulk Modulus (GPa) = 16.53442 46.26747 31.40094
# Shear Modulus (GPa) = 17.61737 29.54001 23.57869
#
# Velocity S-wave (km/s) = 2.70759 3.50604 3.13236
# Velocity P-wave (km/s) = 4.08106 5.97016 5.11360
#
# Compressibility (1/GPa) = 0.06047991
#
# Stress axis : x y z
#
# Youngs Moduli (GPa) = 99.92232 24.10707 47.61066
#
# Poissons Ratio (x) = 0.09986 0.44032
# Poissons Ratio (y) = 0.41393 -0.35157
# Poissons Ratio (z) = 0.92411 -0.17801
#
# Static dielectric constant tensor:
#      x y z
#    x 2.120880 0.000000 0.000000 
#    y 0.000000 1.969090 0.000000 
#    z 0.000000 0.000000 1.862700 
# 
# From -- ./inp_files/10412.got.cif
#   From: 2010.05.17/outbox.cif.g08.bks.cpg/sg73_6_cif.got.tgz:10412.got - 2010.06.03 17:35:07.
