data_PCOD9529206
_publ_section_title
;
Structure prediction by ZEFSAII (Michael W. Deem and Ramdas Pophale) SiO2 
 PCOD9529206
Probable space group: I B A M
;
_chemical_formula_sum "Si O2"
_cell_formula_units_Z 88
_cell_length_a 26.624801
_cell_length_b 5.133382
_cell_length_c 28.957029
_cell_angle_alpha 90.000000
_cell_angle_beta 90.000000
_cell_angle_gamma 90.000000
_cell_volume 3957.709879
_symmetry_space_group_name_H-M "I B A M"
_symmetry_group_IT_number 72
_symmetry_cell_setting 'orthorhombic'
loop_
_space_group_symop_operation_xyz
x,y,z
-x,-y,z
x,-y,1/2-z
-x,y,1/2-z
-x,-y,-z
x,y,-z
-x,y,1/2+z
x,-y,1/2+z
1/2+x,1/2+y,1/2+z
1/2-x,1/2-y,1/2+z
1/2+x,1/2-y,-z
1/2-x,1/2+y,-z
1/2-x,1/2-y,1/2-z
1/2+x,1/2+y,1/2-z
1/2-x,1/2+y,z
1/2+x,1/2-y,z
loop_
_atom_site_type_symbol
_atom_site_label
_atom_site_fract_x
_atom_site_fract_y
_atom_site_fract_z
Si Si1 0.918572 0.500000 0.750000
Si Si2 0.713666 0.497428 0.500000
Si Si3 0.956141 0.204421 0.669552
Si Si4 0.943329 0.422509 0.425737
Si Si5 0.373911 0.602406 0.572012
Si Si6 0.215854 0.000000 0.250000
Si Si7 0.139049 0.155599 0.675637
O O1 0.954548 0.314823 0.720708
O O2 0.882605 0.628892 0.711194
O O3 0.746405 0.760454 0.500000
O O4 0.674557 0.474810 0.542540
O O5 0.950233 0.422837 0.630260
O O6 0.905817 0.043035 0.669375
O O7 0.000000 0.000000 0.659175
O O8 0.906070 0.645819 0.443055
O O9 0.000000 0.500000 0.442802
O O10 0.914847 0.140596 0.431638
O O11 0.351393 0.703347 0.621745
O O12 0.250000 0.250000 0.250000
O O13 0.182570 0.016391 0.295929
#
# Coordination Sequence:
#
# PCOD9529206 Si02
#       7
#     8   8  16  16  16   8  16
#     4  12  21  41  61  92 152 189 256 285 341 404
#     4  12  28  54  83 118 139 168 244 322 376 448
#     4  11  24  38  60 100 144 202 245 293 340 411
#     4  11  22  44  69 107 150 198 239 282 342 442
#     4  11  25  46  77 103 145 192 229 300 378 423
#     4  12  27  42  64  90 127 177 244 295 346 420
#     4  11  24  43  64  95 141 190 240 294 359 426
#
# _framework density 22.235081000000001
#
# number of rings (size 3 to 8) (size 9 to 14) (size 15 to 20)
#    0.000    0.727    3.636    4.364    0.000    3.636 
#    3.273    2.727    0.000    0.000    0.000    0.000 
#    0.000    0.000    0.000    0.000    0.000    0.000 
#
# Total GULP energy -245374.339894 kJ/mol
# GULP energy per Si atom -5576.689543 kJ/mol
# Density = 2.218447 g / cm^3
# Si number density = 22.235081 Si / 1000 Ang^3
#
#
#
# Elastic Constant Matrix: (Units=GPa)
#
#
# Indices 1 2 3 4 5 6 
#
# 1 135.3227 33.1540 25.9164 0.0000 0.0000 0.0000
# 2 33.1540 111.2755 2.7900 0.0000 0.0000 0.0000
# 3 25.9164 2.7900 96.9948 0.0000 0.0000 0.0000
# 4 0.0000 0.0000 0.0000 10.6559 0.0000 0.0000
# 5 0.0000 0.0000 0.0000 0.0000 40.4848 0.0000
# 6 0.0000 0.0000 0.0000 0.0000 0.0000 46.8277
#
#
#
# Elastic Compliance Matrix: (Units=1/GPa)
#
#
# Indices 1 2 3 4 5 6 
#
# 1 0.008407 -0.002450 -0.002176 0.000000 0.000000 0.000000
# 2 -0.002450 0.009707 0.000375 0.000000 0.000000 0.000000
# 3 -0.002176 0.000375 0.010880 0.000000 0.000000 0.000000
# 4 0.000000 0.000000 0.000000 0.093845 0.000000 0.000000
# 5 0.000000 0.000000 0.000000 0.000000 0.024701 0.000000
# 6 0.000000 0.000000 0.000000 0.000000 0.000000 0.021355
#
#
# Mechanical properties :
#
#
# Convention : Reuss Voigt Hill
#
# Bulk Modulus (GPa) = 48.79612 51.92378 50.35995
# Shear Modulus (GPa) = 27.14047 38.37584 32.75816
#
# Velocity S-wave (km/s) = 3.49752 4.15892 3.84248
# Velocity P-wave (km/s) = 6.18897 6.81653 6.51032
#
# Compressibility (1/GPa) = 0.02049343
#
# Stress axis : x y z
#
# Youngs Moduli (GPa) = 118.95237 103.01513 91.90862
#
# Poissons Ratio (x) = 0.25241 0.19997
# Poissons Ratio (y) = 0.29146 -0.03451
# Poissons Ratio (z) = 0.25881 -0.03868
#
# Static dielectric constant tensor:
#      x y z
#    x 1.795280 0.000000 0.000000 
#    y 0.000000 1.771980 0.000000 
#    z 0.000000 0.000000 2.223470 
# 
# From -- ./inp_files/52375.got.cif
#   From: 2010.05.17/outbox.cif.g08.bks.cpg/sg72_27_cif.got.tgz:52375.got - 2010.06.03 17:03:01.
