data_PCOD9529772
_publ_section_title
;
Structure prediction by ZEFSAII (Michael W. Deem and Ramdas Pophale) SiO2 
 PCOD9529772
Probable space group: I B C A 
;
_chemical_formula_sum "Si O2"
_cell_formula_units_Z 48
_cell_length_a 5.164775
_cell_length_b 30.821177
_cell_length_c 13.551252
_cell_angle_alpha 90.000000
_cell_angle_beta 90.000000
_cell_angle_gamma 90.000000
_cell_volume 2157.148521
_symmetry_space_group_name_H-M "I B C A "
_symmetry_group_IT_number 73
_symmetry_cell_setting 'orthorhombic'
loop_
_space_group_symop_operation_xyz
x,y,z
-x,1/2-y,z
x,-y,1/2-z
1/2-x,y,-z
-x,-y,-z
x,1/2+y,-z
-x,y,1/2+z
1/2+x,-y,z
1/2+x,1/2+y,1/2+z
1/2-x,-y,1/2+z
1/2+x,1/2-y,-z
-x,1/2+y,1/2-z
1/2-x,1/2-y,1/2-z
1/2+x,y,1/2-z
1/2-x,1/2+y,z
x,1/2-y,1/2+z
loop_
_atom_site_type_symbol
_atom_site_label
_atom_site_fract_x
_atom_site_fract_y
_atom_site_fract_z
Si Si1 0.250000 0.847066 0.500000
Si Si2 0.976016 0.802245 0.806771
Si Si3 0.750000 0.096536 0.000000
Si Si4 0.050930 0.018158 0.610912
O O1 0.136390 0.818957 0.409963
O O2 0.496643 0.876456 0.470802
O O3 0.763545 0.816372 0.725055
O O4 0.000000 0.750000 0.810162
O O5 0.838959 0.065809 0.091374
O O6 0.765972 0.013996 0.654839
O O7 0.000000 0.000000 0.500000
#
# Coordination Sequence:
#
# PCOD9529772 Si02
#       4
#     8  16   8  16
#     4  12  22  34  60  88 114 142 184 240 290 328
#     4  10  23  42  60  80 111 150 189 227 275 343
#     4  10  18  28  46  84 118 138 180 238 278 322
#     4   8  13  24  41  64 109 148 175 220 261 318
#
# _framework density 22.251597
#
# number of rings (size 3 to 8) (size 9 to 14) (size 15 to 20)
#    0.000    2.667    0.000    6.000    0.000    5.333 
#    0.000    0.000    0.000    0.000    0.000    0.000 
#    0.000  840.000    0.000    0.000    0.000    0.000 
#
# Total GULP energy -133732.466381 kJ/mol
# GULP energy per Si atom -5572.186099 kJ/mol
# Density = 2.220095 g / cm^3
# Si number density = 22.251597 Si / 1000 Ang^3
#
#
#
# Elastic Constant Matrix: (Units=GPa)
#
#
# Indices 1 2 3 4 5 6 
#
# 1 218.6222 68.7989 23.6723 0.0000 0.0000 0.0000
# 2 68.7989 57.1313 33.8163 0.0000 0.0000 0.0000
# 3 23.6723 33.8163 87.4382 0.0000 0.0000 0.0000
# 4 0.0000 0.0000 0.0000 6.3943 0.0000 0.0000
# 5 0.0000 0.0000 0.0000 0.0000 12.3099 0.0000
# 6 0.0000 0.0000 0.0000 0.0000 0.0000 42.9556
#
#
#
# Elastic Compliance Matrix: (Units=1/GPa)
#
#
# Indices 1 2 3 4 5 6 
#
# 1 0.007607 -0.010299 0.001924 0.000000 0.000000 0.000000
# 2 -0.010299 0.036644 -0.011384 0.000000 0.000000 0.000000
# 3 0.001924 -0.011384 0.015318 0.000000 0.000000 0.000000
# 4 0.000000 0.000000 0.000000 0.156389 0.000000 0.000000
# 5 0.000000 0.000000 0.000000 0.000000 0.081236 0.000000
# 6 0.000000 0.000000 0.000000 0.000000 0.000000 0.023280
#
#
# Mechanical properties :
#
#
# Convention : Reuss Voigt Hill
#
# Bulk Modulus (GPa) = 49.87206 68.41852 59.14529
# Shear Modulus (GPa) = 13.63605 28.12556 20.88081
#
# Velocity S-wave (km/s) = 2.47819 3.55911 3.06665
# Velocity P-wave (km/s) = 5.53625 6.90681 6.25916
#
# Compressibility (1/GPa) = 0.02005131
#
# Stress axis : x y z
#
# Youngs Moduli (GPa) = 131.46130 27.28983 65.28107
#
# Poissons Ratio (x) = 0.28106 -0.12558
# Poissons Ratio (y) = 1.35391 0.74313
# Poissons Ratio (z) = -0.25288 0.31065
#
# Static dielectric constant tensor:
#      x y z
#    x -3.354220 0.000000 0.000000 
#    y 0.000000 1.840520 0.000000 
#    z 0.000000 0.000000 1.815000 
# 
# From -- ./inp_files/15115.got.cif
#   From: 2010.05.17/outbox.cif.g08.bks.cpg/sg73_8_cif.got.tgz:15115.got - 2010.06.03 17:35:07.
