data_PCOD9529796
_publ_section_title
;
Structure prediction by ZEFSAII (Michael W. Deem and Ramdas Pophale) SiO2 
 PCOD9529796
Probable space group: I B C A 
;
_chemical_formula_sum "Si O2"
_cell_formula_units_Z 80
_cell_length_a 25.206125
_cell_length_b 18.095181
_cell_length_c 8.808252
_cell_angle_alpha 90.000000
_cell_angle_beta 90.000000
_cell_angle_gamma 90.000000
_cell_volume 4017.526484
_symmetry_space_group_name_H-M "I B C A "
_symmetry_group_IT_number 73
_symmetry_cell_setting 'orthorhombic'
loop_
_space_group_symop_operation_xyz
x,y,z
-x,1/2-y,z
x,-y,1/2-z
1/2-x,y,-z
-x,-y,-z
x,1/2+y,-z
-x,y,1/2+z
1/2+x,-y,z
1/2+x,1/2+y,1/2+z
1/2-x,-y,1/2+z
1/2+x,1/2-y,-z
-x,1/2+y,1/2-z
1/2-x,1/2-y,1/2-z
1/2+x,y,1/2-z
1/2-x,1/2+y,z
x,1/2-y,1/2+z
loop_
_atom_site_type_symbol
_atom_site_label
_atom_site_fract_x
_atom_site_fract_y
_atom_site_fract_z
Si Si1 0.981676 0.670511 0.586595
Si Si2 0.339768 0.147877 0.823757
Si Si3 0.637447 0.699738 0.335971
Si Si4 0.761743 0.668347 0.820936
Si Si5 0.551010 0.419604 0.805419
O O1 0.924668 0.680359 0.668663
O O2 0.972288 0.606570 0.464814
O O3 0.000000 0.750000 0.521098
O O4 0.027714 0.642133 0.694076
O O5 0.356242 0.214658 0.710198
O O6 0.281999 0.121280 0.770548
O O7 0.385672 0.087686 0.815274
O O8 0.341948 0.182612 0.993317
O O9 0.677003 0.655598 0.222987
O O10 0.750000 0.750000 0.750000
O O11 0.750000 0.666562 0.000000
O O12 0.534868 0.500000 0.750000
#
# Coordination Sequence:
#
# PCOD9529796 Si02
#       5
#    16  16  16  16  16
#     4  11  22  38  61  87 118 157 210 256 297 358
#     4  10  19  33  54  81 116 148 189 239 296 351
#     4  10  19  31  54  85 111 148 193 250 293 338
#     4  10  18  30  51  83 115 146 185 242 299 347
#     4  11  24  39  58  85 122 162 196 247 310 363
#
# _framework density 19.912749999999999
#
# number of rings (size 3 to 8) (size 9 to 14) (size 15 to 20)
#    0.000    1.600    2.000    6.600    2.800    1.600 
#    0.000    0.000    0.000    6.000    0.000    0.000 
#    0.000    0.000    0.000    0.000    0.000    0.000 
#
# Total GULP energy -223026.902731 kJ/mol
# GULP energy per Si atom -5575.672568 kJ/mol
# Density = 1.986743 g / cm^3
# Si number density = 19.912750 Si / 1000 Ang^3
#
#
#
# Elastic Constant Matrix: (Units=GPa)
#
#
# Indices 1 2 3 4 5 6 
#
# 1 106.2742 7.6469 36.8115 0.0000 0.0000 0.0000
# 2 7.6469 31.3709 24.5786 0.0000 0.0000 0.0000
# 3 36.8115 24.5786 86.6860 0.0000 0.0000 0.0000
# 4 0.0000 0.0000 0.0000 15.6433 0.0000 0.0000
# 5 0.0000 0.0000 0.0000 0.0000 13.0719 0.0000
# 6 0.0000 0.0000 0.0000 0.0000 0.0000 7.3553
#
#
#
# Elastic Compliance Matrix: (Units=1/GPa)
#
#
# Indices 1 2 3 4 5 6 
#
# 1 0.011071 0.001266 -0.005060 0.000000 0.000000 0.000000
# 2 0.001266 0.041125 -0.012198 0.000000 0.000000 0.000000
# 3 -0.005060 -0.012198 0.017143 0.000000 0.000000 0.000000
# 4 0.000000 0.000000 0.000000 0.063925 0.000000 0.000000
# 5 0.000000 0.000000 0.000000 0.000000 0.076500 0.000000
# 6 0.000000 0.000000 0.000000 0.000000 0.000000 0.135956
#
#
# Mechanical properties :
#
#
# Convention : Reuss Voigt Hill
#
# Bulk Modulus (GPa) = 26.77027 40.26724 33.51876
# Shear Modulus (GPa) = 12.81533 17.56704 15.19118
#
# Velocity S-wave (km/s) = 2.53963 2.97341 2.76504
# Velocity P-wave (km/s) = 4.69815 5.66162 5.20224
#
# Compressibility (1/GPa) = 0.03735487
#
# Stress axis : x y z
#
# Youngs Moduli (GPa) = 90.32294 24.31613 58.33150
#
# Poissons Ratio (x) = -0.03079 0.29518
# Poissons Ratio (y) = -0.11435 0.71153
# Poissons Ratio (z) = 0.45708 0.29661
#
# Static dielectric constant tensor:
#      x y z
#    x 1.792890 0.000000 0.000000 
#    y 0.000000 1.705030 0.000000 
#    z 0.000000 0.000000 1.723530 
# 
# From -- ./inp_files/7735.got.cif
#   From: 2010.05.17/outbox.cif.g08.bks.cpg/sg73_4_cif.got.tgz:7735.got - 2010.06.03 17:35:07.
