data_PCOD9529497
_publ_section_title
;
Structure prediction by ZEFSAII (Michael W. Deem and Ramdas Pophale) SiO2 
 PCOD9529497
Probable space group: I B A M
;
_chemical_formula_sum "Si O2"
_cell_formula_units_Z 52
_cell_length_a 27.000000
_cell_length_b 21.000000
_cell_length_c 9.000000
_cell_angle_alpha 90.000000
_cell_angle_beta 90.000000
_cell_angle_gamma 90.000000
_cell_volume 5103.000000
_symmetry_space_group_name_H-M "I B A M"
_symmetry_group_IT_number 72
_symmetry_cell_setting 'orthorhombic'
loop_
_space_group_symop_operation_xyz
x,y,z
-x,-y,z
x,-y,1/2-z
-x,y,1/2-z
-x,-y,-z
x,y,-z
-x,y,1/2+z
x,-y,1/2+z
1/2+x,1/2+y,1/2+z
1/2-x,1/2-y,1/2+z
1/2+x,1/2-y,-z
1/2-x,1/2+y,-z
1/2-x,1/2-y,1/2-z
1/2+x,1/2+y,1/2-z
1/2-x,1/2+y,z
1/2+x,1/2-y,z
loop_
_atom_site_type_symbol
_atom_site_label
_atom_site_fract_x
_atom_site_fract_y
_atom_site_fract_z
Si Si1 0.500000 0.181273 0.750000
Si Si2 0.172851 0.242019 0.175557
Si Si3 0.422064 0.067087 0.323531
Si Si4 0.813100 0.611370 0.180218
Si Si5 0.925449 0.209933 0.167314
Si Si6 0.704731 0.613281 0.820944
Si Si7 0.095245 0.066701 0.677362
O O1 0.457630 0.129341 0.700102
O O2 0.532202 0.235614 0.662397
O O3 0.186132 0.313764 0.219784
O O4 0.115023 0.233016 0.214918
O O5 0.200116 0.185714 0.262920
O O6 0.181340 0.234825 0.000000
O O7 0.420617 0.056842 0.500000
O O8 0.365510 0.081628 0.268365
O O9 0.438752 0.000000 0.250000
O O10 0.758617 0.586369 0.228477
O O11 0.814589 0.607301 0.000000
O O12 0.933967 0.134286 0.205290
O O13 0.903483 0.207589 0.000000
O O14 0.652929 0.579802 0.774461
O O15 0.704776 0.613362 0.000000
O O16 0.094577 0.057544 0.500000
O O17 0.078128 0.000000 0.750000
#
# Coordination Sequence:
#
# PCOD9529497 Si02
#       7
#     8  16  16  16  16  16  16
#     4  12  23  42  71  90 112 148 202 258 311 366
#     4  10  18  32  55  86 121 156 198 247 296 348
#     4  11  25  44  63  89 122 158 199 248 305 363
#     4   9  18  35  56  82 120 158 195 245 296 342
#     4  10  22  39  62  91 119 153 199 249 305 363
#     4   9  18  33  55  83 120 163 200 239 288 346
#     4   9  19  36  57  85 120 158 195 234 285 348
#
# _framework density 10.190084000000001
#
# number of rings (size 3 to 8) (size 9 to 14) (size 15 to 20)
#    0.000    2.154    1.538    2.538    0.000    5.538 
#    0.000    1.923    0.000    1.846    0.000    0.000 
#    0.000    0.000    0.000    0.000    0.000    0.000 
#
# Total GULP energy -289481.955983 kJ/mol
# GULP energy per Si atom -5566.960692 kJ/mol
# Density = 1.016689 g / cm^3
# Si number density = 10.190084 Si / 1000 Ang^3
#
#
#
# Elastic Constant Matrix: (Units=GPa)
#
#
# Indices 1 2 3 4 5 6 
#
# 1 85.2335 31.7639 12.4408 0.0000 0.0000 0.0000
# 2 31.7639 147.2465 26.7243 0.0000 0.0000 0.0000
# 3 12.4408 26.7243 23.0848 0.0000 0.0000 0.0000
# 4 0.0000 0.0000 0.0000 23.1467 0.0000 0.0000
# 5 0.0000 0.0000 0.0000 0.0000 4.6737 0.0000
# 6 0.0000 0.0000 0.0000 0.0000 0.0000 19.5412
#
#
#
# Elastic Compliance Matrix: (Units=1/GPa)
#
#
# Indices 1 2 3 4 5 6 
#
# 1 0.013169 -0.001966 -0.004821 0.000000 0.000000 0.000000
# 2 -0.001966 0.008891 -0.009234 0.000000 0.000000 0.000000
# 3 -0.004821 -0.009234 0.056606 0.000000 0.000000 0.000000
# 4 0.000000 0.000000 0.000000 0.043203 0.000000 0.000000
# 5 0.000000 0.000000 0.000000 0.000000 0.213963 0.000000
# 6 0.000000 0.000000 0.000000 0.000000 0.000000 0.051174
#
#
# Mechanical properties :
#
#
# Convention : Reuss Voigt Hill
#
# Bulk Modulus (GPa) = 21.44772 44.15807 32.80290
# Shear Modulus (GPa) = 11.50513 21.78138 16.64326
#
# Velocity S-wave (km/s) = 2.37855 3.27273 2.86079
# Velocity P-wave (km/s) = 4.25324 5.99960 5.20025
#
# Compressibility (1/GPa) = 0.04662500
#
# Stress axis : x y z
#
# Youngs Moduli (GPa) = 75.93738 112.47046 17.66593
#
# Poissons Ratio (x) = 0.22109 0.08517
# Poissons Ratio (y) = 0.14927 0.16312
# Poissons Ratio (z) = 0.36611 1.03851
#
# Static dielectric constant tensor:
#      x y z
#    x 1.810540 0.000000 0.000000 
#    y 0.000000 1.712230 0.000000 
#    z 0.000000 0.000000 1.725900 
# 
# From -- ./inp_files/8197.got.cif
#   From: 2010.05.17/outbox.ucp.g08.bks.cvg/sg72_5_cif.got.tgz:8197.got - 2010.06.11 16:33:07.
