data_PCOD9529917
_publ_section_title
;
Structure prediction by ZEFSAII (Michael W. Deem and Ramdas Pophale) SiO2 
 PCOD9529917
Probable space group: I B C A 
;
_chemical_formula_sum "Si O2"
_cell_formula_units_Z 88
_cell_length_a 10.826680
_cell_length_b 24.403487
_cell_length_c 15.572474
_cell_angle_alpha 90.000000
_cell_angle_beta 90.000000
_cell_angle_gamma 90.000000
_cell_volume 4114.383806
_symmetry_space_group_name_H-M "I B C A "
_symmetry_group_IT_number 73
_symmetry_cell_setting 'orthorhombic'
loop_
_space_group_symop_operation_xyz
x,y,z
-x,1/2-y,z
x,-y,1/2-z
1/2-x,y,-z
-x,-y,-z
x,1/2+y,-z
-x,y,1/2+z
1/2+x,-y,z
1/2+x,1/2+y,1/2+z
1/2-x,-y,1/2+z
1/2+x,1/2-y,-z
-x,1/2+y,1/2-z
1/2-x,1/2-y,1/2-z
1/2+x,y,1/2-z
1/2-x,1/2+y,z
x,1/2-y,1/2+z
loop_
_atom_site_type_symbol
_atom_site_label
_atom_site_fract_x
_atom_site_fract_y
_atom_site_fract_z
Si Si1 0.174245 0.400723 0.701770
Si Si2 0.500778 0.536217 0.585683
Si Si3 0.389173 0.212238 0.879158
Si Si4 0.750000 0.290885 0.500000
Si Si5 0.944767 0.429780 0.822492
Si Si6 0.526032 0.636526 0.987657
O O1 0.160373 0.336272 0.680541
O O2 0.315910 0.414001 0.721784
O O3 0.130912 0.439133 0.620461
O O4 0.068952 0.415994 0.770303
O O5 0.500000 0.500000 0.500000
O O6 0.446409 0.494075 0.653945
O O7 0.431009 0.591173 0.557743
O O8 0.500000 0.250000 0.842132
O O9 0.293395 0.253742 0.920854
O O10 0.441262 0.179051 0.961522
O O11 0.643746 0.329118 0.538282
O O12 0.957006 0.394154 0.910497
#
# Coordination Sequence:
#
# PCOD9529917 Si02
#       6
#    16  16  16   8  16  16
#     4  11  24  41  61  89 127 167 208 255 315 384
#     4   9  21  39  62  89 117 153 201 257 313 373
#     4   9  19  38  61  87 118 159 208 260 310 371
#     4  10  18  34  64  92 120 154 206 266 316 368
#     4  11  24  41  61  90 128 166 204 255 316 379
#     4   9  20  37  61  91 119 156 208 258 313 377
#
# _framework density 21.388377999999999
#
# number of rings (size 3 to 8) (size 9 to 14) (size 15 to 20)
#    0.000    2.182    0.000    1.636    0.000   16.000 
#    0.000    6.364    0.000    0.000    0.000    0.000 
#    0.000    0.000    0.000    0.000    0.000    0.000 
#
# Total GULP energy -245404.536451 kJ/mol
# GULP energy per Si atom -5577.375828 kJ/mol
# Density = 2.133970 g / cm^3
# Si number density = 21.388378 Si / 1000 Ang^3
#
#
#
# Elastic Constant Matrix: (Units=GPa)
#
#
# Indices 1 2 3 4 5 6 
#
# 1 115.2533 74.7470 28.9655 0.0000 0.0000 0.0000
# 2 74.7470 145.9137 21.0749 0.0000 0.0000 0.0000
# 3 28.9655 21.0749 54.1778 0.0000 0.0000 0.0000
# 4 0.0000 0.0000 0.0000 33.4836 0.0000 0.0000
# 5 0.0000 0.0000 0.0000 0.0000 19.8983 0.0000
# 6 0.0000 0.0000 0.0000 0.0000 0.0000 26.1496
#
#
#
# Elastic Compliance Matrix: (Units=1/GPa)
#
#
# Indices 1 2 3 4 5 6 
#
# 1 0.014183 -0.006538 -0.005040 0.000000 0.000000 0.000000
# 2 -0.006538 0.010275 -0.000502 0.000000 0.000000 0.000000
# 3 -0.005040 -0.000502 0.021347 0.000000 0.000000 0.000000
# 4 0.000000 0.000000 0.000000 0.029865 0.000000 0.000000
# 5 0.000000 0.000000 0.000000 0.000000 0.050256 0.000000
# 6 0.000000 0.000000 0.000000 0.000000 0.000000 0.038241
#
#
# Mechanical properties :
#
#
# Convention : Reuss Voigt Hill
#
# Bulk Modulus (GPa) = 46.19508 62.76884 54.48196
# Shear Modulus (GPa) = 25.57006 28.61013 27.09009
#
# Velocity S-wave (km/s) = 3.46137 3.66136 3.56277
# Velocity P-wave (km/s) = 6.13350 6.87640 6.51555
#
# Compressibility (1/GPa) = 0.02164733
#
# Stress axis : x y z
#
# Youngs Moduli (GPa) = 70.50654 97.32505 46.84442
#
# Poissons Ratio (x) = 0.63628 0.23608
# Poissons Ratio (y) = 0.46095 0.02350
# Poissons Ratio (z) = 0.35533 0.04882
#
# Static dielectric constant tensor:
#      x y z
#    x 1.946430 0.000000 0.000000 
#    y 0.000000 1.781940 0.000000 
#    z 0.000000 0.000000 1.837930 
# 
# From -- ./inp_files/16131.got.cif
#   From: 2010.05.17/outbox.cif.g08.bks.cpg/sg73_9_cif.got.tgz:16131.got - 2010.06.03 17:35:07.
