data_PCOD9529516
_publ_section_title
;
Structure prediction by ZEFSAII (Michael W. Deem and Ramdas Pophale) SiO2 
 PCOD9529516
Probable space group: I B A M
;
_chemical_formula_sum "Si O2"
_cell_formula_units_Z 56
_cell_length_a 15.000000
_cell_length_b 24.000000
_cell_length_c 15.000000
_cell_angle_alpha 90.000000
_cell_angle_beta 90.000000
_cell_angle_gamma 90.000000
_cell_volume 5400.000000
_symmetry_space_group_name_H-M "I B A M"
_symmetry_group_IT_number 72
_symmetry_cell_setting 'orthorhombic'
loop_
_space_group_symop_operation_xyz
x,y,z
-x,-y,z
x,-y,1/2-z
-x,y,1/2-z
-x,-y,-z
x,y,-z
-x,y,1/2+z
x,-y,1/2+z
1/2+x,1/2+y,1/2+z
1/2-x,1/2-y,1/2+z
1/2+x,1/2-y,-z
1/2-x,1/2+y,-z
1/2-x,1/2-y,1/2-z
1/2+x,1/2+y,1/2-z
1/2-x,1/2+y,z
1/2+x,1/2-y,z
loop_
_atom_site_type_symbol
_atom_site_label
_atom_site_fract_x
_atom_site_fract_y
_atom_site_fract_z
Si Si1 0.827711 0.854543 0.304041
Si Si2 0.887387 0.842673 0.902233
Si Si3 0.667161 0.904823 0.397712
Si Si4 0.528477 0.133304 0.647159
Si Si5 0.021964 0.062090 0.354618
Si Si6 0.598316 0.980218 0.107506
Si Si7 0.963012 0.758915 0.350624
O O1 0.838012 0.848139 0.195353
O O2 0.727080 0.865406 0.335567
O O3 0.881525 0.907526 0.348167
O O4 0.877869 0.800329 0.345463
O O5 0.954456 0.789648 0.898763
O O6 0.954104 0.895288 0.899701
O O7 0.840346 0.842227 0.000000
O O8 0.700506 0.903456 0.500000
O O9 0.564082 0.884878 0.399791
O O10 0.663947 0.969610 0.364241
O O11 0.500000 0.134029 0.750000
O O12 0.601852 0.084507 0.634545
O O13 0.555752 0.195782 0.619224
O O14 0.000000 0.060677 0.250000
O O15 0.000000 0.000000 0.388762
O O16 0.500000 0.000000 0.138145
O O17 0.599874 0.981567 0.000000
O O18 0.000000 0.755426 0.250000
#
# Coordination Sequence:
#
# PCOD9529516 Si02
#       7
#    16  16  16  16  16  16  16
#     4   9  18  35  57  84 117 152 196 244 291 348
#     4   9  17  30  51  80 116 157 197 240 289 344
#     4  10  21  37  58  84 114 150 192 243 300 350
#     4  10  19  35  60  86 111 149 195 238 291 353
#     4   8  15  30  51  74 104 147 195 237 284 348
#     4   8  16  32  53  79 110 143 185 232 282 353
#     4   8  17  34  55  82 115 154 200 240 284 352
#
# _framework density 10.370369999999999
#
# number of rings (size 3 to 8) (size 9 to 14) (size 15 to 20)
#    0.000    3.143    0.000    3.000    0.000    6.286 
#    0.000   12.143    0.000    5.143    0.000    1.000 
#    0.000    0.571    0.000    0.000    0.000    0.000 
#
# Total GULP energy -311817.581769 kJ/mol
# GULP energy per Si atom -5568.171103 kJ/mol
# Density = 1.034677 g / cm^3
# Si number density = 10.370370 Si / 1000 Ang^3
#
#
#
# Elastic Constant Matrix: (Units=GPa)
#
#
# Indices 1 2 3 4 5 6 
#
# 1 42.3795 20.7611 19.2993 0.0000 0.0000 0.0000
# 2 20.7611 162.9255 23.9932 -0.0002 0.0000 0.0000
# 3 19.2993 23.9932 99.9096 -0.0003 0.0000 0.0000
# 4 0.0000 -0.0002 -0.0003 36.5350 0.0000 0.0000
# 5 0.0000 0.0000 0.0000 0.0000 21.1008 0.0000
# 6 0.0000 0.0000 0.0000 0.0000 0.0000 21.2129
#
#
#
# Elastic Compliance Matrix: (Units=1/GPa)
#
#
# Indices 1 2 3 4 5 6 
#
# 1 0.027029 -0.002773 -0.004555 0.000000 0.000000 0.000000
# 2 -0.002773 0.006647 -0.001061 0.000000 0.000000 0.000000
# 3 -0.004555 -0.001061 0.011144 0.000000 0.000000 0.000000
# 4 0.000000 0.000000 0.000000 0.027371 0.000000 0.000000
# 5 0.000000 0.000000 0.000000 0.000000 0.047391 0.000000
# 6 0.000000 0.000000 0.000000 0.000000 0.000000 0.047141
#
#
# Mechanical properties :
#
#
# Convention : Reuss Voigt Hill
#
# Bulk Modulus (GPa) = 35.66084 48.14686 41.90385
# Shear Modulus (GPa) = 25.92691 31.84715 28.88703
#
# Velocity S-wave (km/s) = 3.53944 3.92278 3.73603
# Velocity P-wave (km/s) = 5.82533 6.61677 6.23362
#
# Compressibility (1/GPa) = 0.02804197
#
# Stress axis : x y z
#
# Youngs Moduli (GPa) = 36.99677 150.43520 89.73715
#
# Poissons Ratio (x) = 0.41723 0.40877
# Poissons Ratio (y) = 0.10261 0.09518
# Poissons Ratio (z) = 0.16853 0.15955
#
# Static dielectric constant tensor:
#      x y z
#    x 1.758510 0.000000 0.000000 
#    y 0.000000 1.811790 0.000000 
#    z 0.000000 0.000000 1.796470 
# 
# From -- ./inp_files/22143.got.cif
#   From: 2010.05.17/outbox.ucp.g08.bks.cvg/sg72_12_cif.got.tgz:22143.got - 2010.06.11 16:33:07.
