data_PCOD9529217
_publ_section_title
;
Structure prediction by ZEFSAII (Michael W. Deem and Ramdas Pophale) SiO2 
 PCOD9529217
Probable space group: I B A M
;
_chemical_formula_sum "Si O2"
_cell_formula_units_Z 72
_cell_length_a 9.888404
_cell_length_b 17.313499
_cell_length_c 20.868197
_cell_angle_alpha 90.000000
_cell_angle_beta 90.000000
_cell_angle_gamma 90.000000
_cell_volume 3572.695276
_symmetry_space_group_name_H-M "I B A M"
_symmetry_group_IT_number 72
_symmetry_cell_setting 'orthorhombic'
loop_
_space_group_symop_operation_xyz
x,y,z
-x,-y,z
x,-y,1/2-z
-x,y,1/2-z
-x,-y,-z
x,y,-z
-x,y,1/2+z
x,-y,1/2+z
1/2+x,1/2+y,1/2+z
1/2-x,1/2-y,1/2+z
1/2+x,1/2-y,-z
1/2-x,1/2+y,-z
1/2-x,1/2-y,1/2-z
1/2+x,1/2+y,1/2-z
1/2-x,1/2+y,z
1/2+x,1/2-y,z
loop_
_atom_site_type_symbol
_atom_site_label
_atom_site_fract_x
_atom_site_fract_y
_atom_site_fract_z
Si Si1 0.829733 0.930480 0.500000
Si Si2 0.464278 0.584322 0.359718
Si Si3 0.368691 0.720908 0.705933
Si Si4 0.701868 0.692070 0.394767
Si Si5 0.163432 0.411093 0.500000
Si Si6 0.894471 0.691788 0.000000
O O1 0.915639 0.927909 0.566217
O O2 0.746998 0.852061 0.500000
O O3 0.719120 0.000635 0.500000
O O4 0.500000 0.500000 0.335109
O O5 0.359836 0.631534 0.315949
O O6 0.591037 0.643110 0.355937
O O7 0.500000 0.737081 0.750000
O O8 0.250000 0.750000 0.750000
O O9 0.326969 0.767540 0.641424
O O10 0.767275 0.628013 0.439528
O O11 0.615857 0.752852 0.437761
O O12 0.011779 0.373699 0.500000
#
# Coordination Sequence:
#
# PCOD9529217 Si02
#       6
#     8  16  16  16   8   8
#     4  12  22  41  67 103 145 177 221 285 357 433
#     4  12  24  44  70 101 138 176 232 285 350 421
#     4  12  26  46  70  98 131 185 242 290 335 404
#     4  11  23  41  68  99 135 180 228 288 345 423
#     4  11  23  38  63 104 143 175 219 281 363 424
#     4  11  23  36  64 100 141 182 220 280 359 420
#
# _framework density 20.152851999999999
#
# number of rings (size 3 to 8) (size 9 to 14) (size 15 to 20)
#    0.000    0.444    6.667    3.333    3.111    0.444 
#    0.000    0.000    0.000    1.333    0.000    0.000 
#    0.000    0.000    0.000    0.000    0.000    0.000 
#
# Total GULP energy -200490.975794 kJ/mol
# GULP energy per Si atom -5569.193772 kJ/mol
# Density = 2.010698 g / cm^3
# Si number density = 20.152852 Si / 1000 Ang^3
#
#
#
# Elastic Constant Matrix: (Units=GPa)
#
#
# Indices 1 2 3 4 5 6 
#
# 1 97.5012 42.3653 34.0644 0.0000 0.0000 0.0000
# 2 42.3653 154.8113 42.8944 0.0000 0.0000 0.0000
# 3 34.0644 42.8944 78.8621 0.0000 0.0000 0.0000
# 4 0.0000 0.0000 0.0000 21.4096 0.0000 0.0000
# 5 0.0000 0.0000 0.0000 0.0000 48.3611 0.0000
# 6 0.0000 0.0000 0.0000 0.0000 0.0000 45.5937
#
#
#
# Elastic Compliance Matrix: (Units=1/GPa)
#
#
# Indices 1 2 3 4 5 6 
#
# 1 0.012744 -0.002311 -0.004248 0.000000 0.000000 0.000000
# 2 -0.002311 0.008025 -0.003367 0.000000 0.000000 0.000000
# 3 -0.004248 -0.003367 0.016347 0.000000 0.000000 0.000000
# 4 0.000000 0.000000 0.000000 0.046708 0.000000 0.000000
# 5 0.000000 0.000000 0.000000 0.000000 0.020678 0.000000
# 6 0.000000 0.000000 0.000000 0.000000 0.000000 0.021933
#
#
# Mechanical properties :
#
#
# Convention : Reuss Voigt Hill
#
# Bulk Modulus (GPa) = 57.92145 63.31363 60.61754
# Shear Modulus (GPa) = 32.88606 37.19624 35.04115
#
# Velocity S-wave (km/s) = 4.04398 4.30083 4.17438
# Velocity P-wave (km/s) = 7.11396 7.49318 7.30603
#
# Compressibility (1/GPa) = 0.01726476
#
# Stress axis : x y z
#
# Youngs Moduli (GPa) = 78.46548 124.61681 61.17490
#
# Poissons Ratio (x) = 0.28793 0.25988
# Poissons Ratio (y) = 0.18130 0.20596
# Poissons Ratio (z) = 0.33334 0.41954
#
# Static dielectric constant tensor:
#      x y z
#    x 2.515540 0.000000 0.000000 
#    y 0.000000 1.728120 0.000000 
#    z 0.000000 0.000000 2.006900 
# 
# From -- ./inp_files/42126.got.cif
#   From: 2010.05.17/outbox.cif.g08.bks.cpg/sg72_22_cif.got.tgz:42126.got - 2010.06.03 17:03:01.
