data_PCOD9529729
_publ_section_title
;
Structure prediction by ZEFSAII (Michael W. Deem and Ramdas Pophale) SiO2 
 PCOD9529729
Probable space group: I B C A 
;
_chemical_formula_sum "Si O2"
_cell_formula_units_Z 120
_cell_length_a 11.389454
_cell_length_b 17.942341
_cell_length_c 30.440105
_cell_angle_alpha 90.000000
_cell_angle_beta 90.000000
_cell_angle_gamma 90.000000
_cell_volume 6220.541007
_symmetry_space_group_name_H-M "I B C A "
_symmetry_group_IT_number 73
_symmetry_cell_setting 'orthorhombic'
loop_
_space_group_symop_operation_xyz
x,y,z
-x,1/2-y,z
x,-y,1/2-z
1/2-x,y,-z
-x,-y,-z
x,1/2+y,-z
-x,y,1/2+z
1/2+x,-y,z
1/2+x,1/2+y,1/2+z
1/2-x,-y,1/2+z
1/2+x,1/2-y,-z
-x,1/2+y,1/2-z
1/2-x,1/2-y,1/2-z
1/2+x,y,1/2-z
1/2-x,1/2+y,z
x,1/2-y,1/2+z
loop_
_atom_site_type_symbol
_atom_site_label
_atom_site_fract_x
_atom_site_fract_y
_atom_site_fract_z
Si Si1 0.568743 0.467510 0.558828
Si Si2 0.689584 0.715172 0.375759
Si Si3 0.945613 0.365544 0.365011
Si Si4 0.625443 0.744734 0.551474
Si Si5 0.750000 0.624428 0.000000
Si Si6 0.005379 0.158478 0.265918
Si Si7 0.754786 0.327384 0.223279
Si Si8 0.614339 0.400134 0.995377
O O1 0.578705 0.440396 0.608373
O O2 0.670190 0.426611 0.530835
O O3 0.570225 0.554354 0.547326
O O4 0.452596 0.433652 0.536617
O O5 0.569602 0.668936 0.381360
O O6 0.651137 0.801874 0.373612
O O7 0.778943 0.709408 0.415981
O O8 0.740615 0.689760 0.328574
O O9 0.956550 0.372870 0.313079
O O10 0.500000 0.750000 0.575091
O O11 0.672701 0.821070 0.530756
O O12 0.601096 0.687418 0.511687
O O13 0.114816 0.140650 0.233665
O O14 0.000000 0.250000 0.269729
O O15 0.868272 0.134271 0.260355
O O16 0.750000 0.250000 0.250000
O O17 0.750000 0.415336 0.000000
#
# Coordination Sequence:
#
# PCOD9529729 Si02
#       8
#    16  16  16  16   8  16  16  16
#     4  11  23  37  57  73 104 145 187 221 272 325
#     4  10  19  31  49  78 110 136 175 223 271 321
#     4  10  17  32  52  75 100 143 180 219 258 330
#     4  12  24  35  52  81 110 138 180 231 281 323
#     4  12  22  36  56  76 104 140 180 228 270 332
#     4   9  15  27  46  72 109 139 177 209 272 329
#     4   9  15  27  45  72 107 145 165 212 273 333
#     4  11  23  39  54  76 104 143 186 229 272 324
#
# _framework density 19.290925999999999
#
# number of rings (size 3 to 8) (size 9 to 14) (size 15 to 20)
#    0.000    1.600    8.000    0.800    0.000    1.600 
#    0.000    0.000    0.000    0.000    0.000    0.933 
#    0.000    4.267    0.000    0.000    0.000    0.000 
#
# Total GULP energy -334406.428590 kJ/mol
# GULP energy per Si atom -5573.440477 kJ/mol
# Density = 1.924702 g / cm^3
# Si number density = 19.290926 Si / 1000 Ang^3
#
#
#
# Elastic Constant Matrix: (Units=GPa)
#
#
# Indices 1 2 3 4 5 6 
#
# 1 114.8036 -1.7032 26.8370 0.0000 0.0000 0.0000
# 2 -1.7032 38.9673 2.4206 0.0000 0.0000 0.0000
# 3 26.8370 2.4206 49.6506 0.0000 0.0000 0.0000
# 4 0.0000 0.0000 0.0000 20.5164 0.0000 0.0000
# 5 0.0000 0.0000 0.0000 0.0000 26.7822 0.0000
# 6 0.0000 0.0000 0.0000 0.0000 0.0000 46.6137
#
#
#
# Elastic Compliance Matrix: (Units=1/GPa)
#
#
# Indices 1 2 3 4 5 6 
#
# 1 0.009994 0.000775 -0.005439 0.000000 0.000000 0.000000
# 2 0.000775 0.025801 -0.001677 0.000000 0.000000 0.000000
# 3 -0.005439 -0.001677 0.023163 0.000000 0.000000 0.000000
# 4 0.000000 0.000000 0.000000 0.048741 0.000000 0.000000
# 5 0.000000 0.000000 0.000000 0.000000 0.037338 0.000000
# 6 0.000000 0.000000 0.000000 0.000000 0.000000 0.021453
#
#
# Mechanical properties :
#
#
# Convention : Reuss Voigt Hill
#
# Bulk Modulus (GPa) = 21.61037 28.72558 25.16798
# Shear Modulus (GPa) = 25.69417 30.50694 28.10055
#
# Velocity S-wave (km/s) = 3.65352 3.98101 3.82078
# Velocity P-wave (km/s) = 5.38742 6.00453 5.70432
#
# Compressibility (1/GPa) = 0.04627407
#
# Stress axis : x y z
#
# Youngs Moduli (GPa) = 100.06428 38.75886 43.17301
#
# Poissons Ratio (x) = -0.03003 0.23484
# Poissons Ratio (y) = -0.07752 0.07238
# Poissons Ratio (z) = 0.54430 0.06498
#
# Static dielectric constant tensor:
#      x y z
#    x 1.764860 0.000000 0.000000 
#    y 0.000000 1.674130 0.000000 
#    z 0.000000 0.000000 1.683790 
# 
# From -- ./inp_files/31908.got.cif
#   From: 2010.05.17/outbox.cif.g08.bks.cpg/sg73_16_cif.got.tgz:31908.got - 2010.06.03 17:35:07.
