data_PCOD9529312
_publ_section_title
;
Structure prediction by ZEFSAII (Michael W. Deem and Ramdas Pophale) SiO2 
 PCOD9529312
Probable space group: I B A M
;
_chemical_formula_sum "Si O2"
_cell_formula_units_Z 64
_cell_length_a 13.485804
_cell_length_b 10.477474
_cell_length_c 22.588485
_cell_angle_alpha 90.000000
_cell_angle_beta 90.000000
_cell_angle_gamma 90.000000
_cell_volume 3191.688797
_symmetry_space_group_name_H-M "I B A M"
_symmetry_group_IT_number 72
_symmetry_cell_setting 'orthorhombic'
loop_
_space_group_symop_operation_xyz
x,y,z
-x,-y,z
x,-y,1/2-z
-x,y,1/2-z
-x,-y,-z
x,y,-z
-x,y,1/2+z
x,-y,1/2+z
1/2+x,1/2+y,1/2+z
1/2-x,1/2-y,1/2+z
1/2+x,1/2-y,-z
1/2-x,1/2+y,-z
1/2-x,1/2-y,1/2-z
1/2+x,1/2+y,1/2-z
1/2-x,1/2+y,z
1/2+x,1/2-y,z
loop_
_atom_site_type_symbol
_atom_site_label
_atom_site_fract_x
_atom_site_fract_y
_atom_site_fract_z
Si Si1 0.760948 0.975776 0.153156
Si Si2 0.895771 0.575637 0.068327
Si Si3 0.069709 0.796224 0.337956
Si Si4 0.648944 0.271999 0.703733
O O1 0.871125 0.921925 0.143440
O O2 0.698551 0.862662 0.185677
O O3 0.698489 0.999194 0.093710
O O4 0.779801 0.107380 0.189069
O O5 0.903496 0.691661 0.113717
O O6 0.000000 0.500000 0.072960
O O7 0.882038 0.611434 0.000000
O O8 0.111804 0.769595 0.271626
O O9 0.951717 0.796787 0.332600
#
# Coordination Sequence:
#
# PCOD9529312 Si02
#       4
#    16  16  16  16
#     4  12  23  43  69 102 135 179 220 281 339 407
#     4  11  25  45  69  97 135 184 235 278 326 400
#     4  11  24  44  67 101 141 177 219 282 345 407
#     4  11  25  41  70 104 140 172 222 280 353 407
#
# _framework density 20.052081000000001
#
# number of rings (size 3 to 8) (size 9 to 14) (size 15 to 20)
#    0.000    0.750    5.000    2.250    3.500    3.000 
#    0.000    1.250    0.000    3.000    0.000    0.000 
#    0.000    0.000    0.000    0.000    0.000    0.000 
#
# Total GULP energy -178576.702424 kJ/mol
# GULP energy per Si atom -5580.521951 kJ/mol
# Density = 2.000644 g / cm^3
# Si number density = 20.052081 Si / 1000 Ang^3
#
#
#
# Elastic Constant Matrix: (Units=GPa)
#
#
# Indices 1 2 3 4 5 6 
#
# 1 133.3327 49.7369 50.5561 0.0000 0.0000 0.0000
# 2 49.7369 117.8703 66.0483 0.0000 0.0000 0.0000
# 3 50.5561 66.0483 127.3373 0.0000 0.0000 0.0000
# 4 0.0000 0.0000 0.0000 15.9549 0.0000 0.0000
# 5 0.0000 0.0000 0.0000 0.0000 30.1608 0.0000
# 6 0.0000 0.0000 0.0000 0.0000 0.0000 40.3624
#
#
#
# Elastic Compliance Matrix: (Units=1/GPa)
#
#
# Indices 1 2 3 4 5 6 
#
# 1 0.009377 -0.002637 -0.002355 0.000000 0.000000 0.000000
# 2 -0.002637 0.012702 -0.005541 0.000000 0.000000 0.000000
# 3 -0.002355 -0.005541 0.011662 0.000000 0.000000 0.000000
# 4 0.000000 0.000000 0.000000 0.062677 0.000000 0.000000
# 5 0.000000 0.000000 0.000000 0.000000 0.033156 0.000000
# 6 0.000000 0.000000 0.000000 0.000000 0.000000 0.024776
#
#
# Mechanical properties :
#
#
# Convention : Reuss Voigt Hill
#
# Bulk Modulus (GPa) = 78.90056 79.02476 78.96266
# Shear Modulus (GPa) = 27.83353 31.44222 29.63788
#
# Velocity S-wave (km/s) = 3.72971 3.96413 3.84871
# Velocity P-wave (km/s) = 7.61452 7.77481 7.69508
#
# Compressibility (1/GPa) = 0.01267418
#
# Stress axis : x y z
#
# Youngs Moduli (GPa) = 106.64784 78.73009 85.74623
#
# Poissons Ratio (x) = 0.20761 0.20193
# Poissons Ratio (y) = 0.28123 0.47514
# Poissons Ratio (z) = 0.25115 0.43626
#
# Static dielectric constant tensor:
#      x y z
#    x 1.767620 0.000000 0.000000 
#    y 0.000000 1.755120 0.000000 
#    z 0.000000 0.000000 1.677200 
# 
# From -- ./inp_files/43920.got.cif
#   From: 2010.05.17/outbox.cif.g08.bks.cpg/sg72_22_cif.got.tgz:43920.got - 2010.06.03 17:03:01.
