data_PCOD9529518
_publ_section_title
;
Structure prediction by ZEFSAII (Michael W. Deem and Ramdas Pophale) SiO2 
 PCOD9529518
Probable space group: I B A M
;
_chemical_formula_sum "Si O2"
_cell_formula_units_Z 32
_cell_length_a 12.000000
_cell_length_b 15.000000
_cell_length_c 18.000000
_cell_angle_alpha 90.000000
_cell_angle_beta 90.000000
_cell_angle_gamma 90.000000
_cell_volume 3240.000000
_symmetry_space_group_name_H-M "I B A M"
_symmetry_group_IT_number 72
_symmetry_cell_setting 'orthorhombic'
loop_
_space_group_symop_operation_xyz
x,y,z
-x,-y,z
x,-y,1/2-z
-x,y,1/2-z
-x,-y,-z
x,y,-z
-x,y,1/2+z
x,-y,1/2+z
1/2+x,1/2+y,1/2+z
1/2-x,1/2-y,1/2+z
1/2+x,1/2-y,-z
1/2-x,1/2+y,-z
1/2-x,1/2-y,1/2-z
1/2+x,1/2+y,1/2-z
1/2-x,1/2+y,z
1/2+x,1/2-y,z
loop_
_atom_site_type_symbol
_atom_site_label
_atom_site_fract_x
_atom_site_fract_y
_atom_site_fract_z
Si Si1 0.990297 0.891923 0.500000
Si Si2 0.679836 0.061160 0.325659
Si Si3 0.881297 0.449015 0.000000
Si Si4 0.500000 0.814559 0.750000
Si Si5 0.364767 0.696763 0.869651
Si Si6 0.294301 0.255029 0.000000
O O1 0.870189 0.843153 0.500000
O O2 0.051589 0.853227 0.426530
O O3 0.000000 0.000000 0.500000
O O4 0.665707 0.028175 0.413979
O O5 0.574715 0.123408 0.303933
O O6 0.788653 0.122981 0.329953
O O7 0.688896 0.000000 0.250000
O O8 0.865856 0.339417 0.000000
O O9 0.000000 0.500000 0.000000
O O10 0.425557 0.755373 0.806712
O O11 0.283069 0.750918 0.926221
#
# Coordination Sequence:
#
# PCOD9529518 Si02
#       6
#     8  16   8   8  16   8
#     4  11  24  43  65  93 127 172 223 270 328 402
#     4  11  24  41  63  98 132 166 216 273 329 394
#     4  10  19  38  66  95 129 168 211 268 329 390
#     4  12  23  40  65  92 126 172 218 268 334 400
#     4  10  23  41  64  91 126 171 218 270 331 394
#     4   9  21  43  64  94 134 170 220 278 331 394
#
# _framework density 9.8765429999999999
#
# number of rings (size 3 to 8) (size 9 to 14) (size 15 to 20)
#    0.000    1.500    0.000    6.375    0.000    5.000 
#    0.000   13.750    0.000    1.500    0.000    0.000 
#    0.000    0.000    0.000    0.000    0.000    0.000 
#
# Total GULP energy -178394.433835 kJ/mol
# GULP energy per Si atom -5574.826057 kJ/mol
# Density = 0.985406 g / cm^3
# Si number density = 9.876543 Si / 1000 Ang^3
#
#
#
# Elastic Constant Matrix: (Units=GPa)
#
#
# Indices 1 2 3 4 5 6 
#
# 1 108.4352 56.1644 61.2859 0.0000 0.0000 0.0000
# 2 56.1644 88.1464 59.5830 0.0000 0.0000 0.0000
# 3 61.2859 59.5830 185.5006 0.0000 0.0000 0.0000
# 4 0.0000 0.0000 0.0000 35.9044 0.0000 0.0000
# 5 0.0000 0.0000 0.0000 0.0000 51.8802 0.0000
# 6 0.0000 0.0000 0.0000 0.0000 0.0000 33.9877
#
#
#
# Elastic Compliance Matrix: (Units=1/GPa)
#
#
# Indices 1 2 3 4 5 6 
#
# 1 0.014513 -0.007672 -0.002331 0.000000 0.000000 0.000000
# 2 -0.007672 0.018547 -0.003423 0.000000 0.000000 0.000000
# 3 -0.002331 -0.003423 0.007260 0.000000 0.000000 0.000000
# 4 0.000000 0.000000 0.000000 0.027852 0.000000 0.000000
# 5 0.000000 0.000000 0.000000 0.000000 0.019275 0.000000
# 6 0.000000 0.000000 0.000000 0.000000 0.000000 0.029422
#
#
# Mechanical properties :
#
#
# Convention : Reuss Voigt Hill
#
# Bulk Modulus (GPa) = 74.24105 81.79431 78.01768
# Shear Modulus (GPa) = 33.73615 38.02438 35.88027
#
# Velocity S-wave (km/s) = 4.13715 4.39222 4.26659
# Velocity P-wave (km/s) = 7.77737 8.19881 7.99087
#
# Compressibility (1/GPa) = 0.01346964
#
# Stress axis : x y z
#
# Youngs Moduli (GPa) = 68.90367 53.91835 137.73873
#
# Poissons Ratio (x) = 0.41366 0.32101
# Poissons Ratio (y) = 0.52862 0.47141
# Poissons Ratio (z) = 0.16059 0.18454
#
# Static dielectric constant tensor:
#      x y z
#    x 1.747210 0.000000 0.000000 
#    y 0.000000 1.719020 0.000000 
#    z 0.000000 0.000000 1.699000 
# 
# From -- ./inp_files/28867.got.cif
#   From: 2010.05.17/outbox.ucp.g08.bks.cvg/sg72_15_cif.got.tgz:28867.got - 2010.06.11 16:33:07.
