data_PCOD9529669
_publ_section_title
;
Structure prediction by ZEFSAII (Michael W. Deem and Ramdas Pophale) SiO2 
 PCOD9529669
Probable space group: I B C A 
;
_chemical_formula_sum "Si O2"
_cell_formula_units_Z 80
_cell_length_a 28.631702
_cell_length_b 24.075788
_cell_length_c 5.491394
_cell_angle_alpha 90.000000
_cell_angle_beta 90.000000
_cell_angle_gamma 90.000000
_cell_volume 3785.386950
_symmetry_space_group_name_H-M "I B C A "
_symmetry_group_IT_number 73
_symmetry_cell_setting 'orthorhombic'
loop_
_space_group_symop_operation_xyz
x,y,z
-x,1/2-y,z
x,-y,1/2-z
1/2-x,y,-z
-x,-y,-z
x,1/2+y,-z
-x,y,1/2+z
1/2+x,-y,z
1/2+x,1/2+y,1/2+z
1/2-x,-y,1/2+z
1/2+x,1/2-y,-z
-x,1/2+y,1/2-z
1/2-x,1/2-y,1/2-z
1/2+x,y,1/2-z
1/2-x,1/2+y,z
x,1/2-y,1/2+z
loop_
_atom_site_type_symbol
_atom_site_label
_atom_site_fract_x
_atom_site_fract_y
_atom_site_fract_z
Si Si1 0.346570 0.482219 0.004077
Si Si2 0.750000 0.217166 0.000000
Si Si3 0.189361 0.128941 0.673414
Si Si4 0.980801 0.686325 0.581612
Si Si5 0.872514 0.214032 0.434210
Si Si6 0.250000 0.945283 0.500000
O O1 0.371330 0.500000 0.250000
O O2 0.368852 0.500000 0.750000
O O3 0.338606 0.417057 0.975022
O O4 0.296211 0.515856 0.015920
O O5 0.750000 0.250000 0.250000
O O6 0.794068 0.177298 0.999409
O O7 0.161891 0.161633 0.886713
O O8 0.233805 0.095907 0.785400
O O9 0.925223 0.690991 0.574117
O O10 0.000000 0.750000 0.584832
O O11 0.001084 0.660616 0.333854
O O12 0.867285 0.245857 0.693630
#
# Coordination Sequence:
#
# PCOD9529669 Si02
#       6
#    16   8  16  16  16   8
#     4  10  20  36  58  77  95 131 186 242 287 315
#     4  12  24  38  48  66 106 156 188 206 264 334
#     4  11  24  38  58  82 110 149 198 243 282 332
#     4  10  16  33  58  80 106 154 188 223 278 334
#     4  12  23  37  55  86 123 154 190 236 279 335
#     4  10  20  40  60  76 100 142 192 244 286 324
#
# _framework density 21.133904999999999
#
# number of rings (size 3 to 8) (size 9 to 14) (size 15 to 20)
#    0.000    1.200    4.000    5.400    0.000    6.400 
#    0.000    0.000    0.000    0.000    0.000    0.000 
#    0.000   20.800    0.000    0.000    0.000    0.000 
#
# Total GULP energy -223211.120443 kJ/mol
# GULP energy per Si atom -5580.278011 kJ/mol
# Density = 2.108580 g / cm^3
# Si number density = 21.133905 Si / 1000 Ang^3
#
#
#
# Elastic Constant Matrix: (Units=GPa)
#
#
# Indices 1 2 3 4 5 6 
#
# 1 50.4682 11.8229 5.6929 0.0000 0.0000 0.0000
# 2 11.8229 92.3662 56.3211 0.0000 0.0000 0.0000
# 3 5.6929 56.3211 200.8957 0.0000 0.0000 0.0000
# 4 0.0000 0.0000 0.0000 26.5821 0.0000 0.0000
# 5 0.0000 0.0000 0.0000 0.0000 22.0573 0.0000
# 6 0.0000 0.0000 0.0000 0.0000 0.0000 3.8116
#
#
#
# Elastic Compliance Matrix: (Units=1/GPa)
#
#
# Indices 1 2 3 4 5 6 
#
# 1 0.020433 -0.002729 0.000186 0.000000 0.000000 0.000000
# 2 -0.002729 0.013423 -0.003686 0.000000 0.000000 0.000000
# 3 0.000186 -0.003686 0.006006 0.000000 0.000000 0.000000
# 4 0.000000 0.000000 0.000000 0.037619 0.000000 0.000000
# 5 0.000000 0.000000 0.000000 0.000000 0.045336 0.000000
# 6 0.000000 0.000000 0.000000 0.000000 0.000000 0.262354
#
#
# Mechanical properties :
#
#
# Convention : Reuss Voigt Hill
#
# Bulk Modulus (GPa) = 36.49047 54.60041 45.54544
# Shear Modulus (GPa) = 12.29214 28.48309 20.38762
#
# Velocity S-wave (km/s) = 2.41432 3.67515 3.10931
# Velocity P-wave (km/s) = 5.00757 6.62574 5.87266
#
# Compressibility (1/GPa) = 0.02740441
#
# Stress axis : x y z
#
# Youngs Moduli (GPa) = 48.94104 74.49752 166.50643
#
# Poissons Ratio (x) = 0.20329 -0.03097
# Poissons Ratio (y) = 0.13355 0.61372
# Poissons Ratio (z) = -0.00910 0.27459
#
# Static dielectric constant tensor:
#      x y z
#    x 1.771730 0.000000 0.000000 
#    y 0.000000 1.777990 0.000000 
#    z 0.000000 0.000000 1.933360 
# 
# From -- ./inp_files/3083.got.cif
#   From: 2010.05.17/outbox.cif.g08.bks.cpg/sg73_2_cif.got.tgz:3083.got - 2010.06.03 17:35:07.
