data_PCOD9529914
_publ_section_title
;
Structure prediction by ZEFSAII (Michael W. Deem and Ramdas Pophale) SiO2 
 PCOD9529914
Probable space group: I B C A 
;
_chemical_formula_sum "Si O2"
_cell_formula_units_Z 48
_cell_length_a 32.595391
_cell_length_b 15.064332
_cell_length_c 4.891557
_cell_angle_alpha 90.000000
_cell_angle_beta 90.000000
_cell_angle_gamma 90.000000
_cell_volume 2401.890432
_symmetry_space_group_name_H-M "I B C A "
_symmetry_group_IT_number 73
_symmetry_cell_setting 'orthorhombic'
loop_
_space_group_symop_operation_xyz
x,y,z
-x,1/2-y,z
x,-y,1/2-z
1/2-x,y,-z
-x,-y,-z
x,1/2+y,-z
-x,y,1/2+z
1/2+x,-y,z
1/2+x,1/2+y,1/2+z
1/2-x,-y,1/2+z
1/2+x,1/2-y,-z
-x,1/2+y,1/2-z
1/2-x,1/2-y,1/2-z
1/2+x,y,1/2-z
1/2-x,1/2+y,z
x,1/2-y,1/2+z
loop_
_atom_site_type_symbol
_atom_site_label
_atom_site_fract_x
_atom_site_fract_y
_atom_site_fract_z
Si Si1 0.392235 0.440347 0.519232
Si Si2 0.030743 0.000000 0.750000
Si Si3 0.675847 0.308825 0.835136
Si Si4 0.750000 0.436916 0.000000
O O1 0.400279 0.500000 0.250000
O O2 0.435612 0.576447 0.826272
O O3 0.365931 0.358087 0.420093
O O4 0.369202 0.500000 0.750000
O O5 0.000000 0.000000 0.500000
O O6 0.678458 0.278865 0.522352
O O7 0.712786 0.374703 0.905047
O O8 0.762279 0.500000 0.750000
#
# Coordination Sequence:
#
# PCOD9529914 Si02
#       4
#    16   8  16   8
#     4  10  20  36  60  87 117 152 205 239 296 345
#     4  10  18  34  62  92 110 146 204 254 288 346
#     4  12  24  39  60  89 125 160 196 243 304 354
#     4  12  24  42  64  86 122 158 210 248 284 344
#
# _framework density 19.984259999999999
#
# number of rings (size 3 to 8) (size 9 to 14) (size 15 to 20)
#    1.000    0.000    1.667    7.000    0.000    0.000 
#    0.000    0.000    0.000    6.000    0.000    0.000 
#    0.000    0.000    0.000    0.000    0.000    0.000 
#
# Total GULP energy -133781.106180 kJ/mol
# GULP energy per Si atom -5574.212757 kJ/mol
# Density = 1.993878 g / cm^3
# Si number density = 19.984260 Si / 1000 Ang^3
#
#
#
# Elastic Constant Matrix: (Units=GPa)
#
#
# Indices 1 2 3 4 5 6 
#
# 1 111.9917 23.0420 -6.4986 -0.0001 -0.0005 -0.0002
# 2 23.0420 44.9535 -3.3285 -0.0003 -0.0009 0.0001
# 3 -6.4986 -3.3285 91.2515 -0.0019 -0.0037 -0.0018
# 4 -0.0001 -0.0003 -0.0019 27.7888 -0.0008 -0.0001
# 5 -0.0005 -0.0009 -0.0037 -0.0008 11.4189 0.0009
# 6 -0.0002 0.0001 -0.0018 -0.0001 0.0009 -3.3485
#
#
#
# Elastic Compliance Matrix: (Units=1/GPa)
#
#
# Indices 1 2 3 4 5 6 
#
# 1 0.010007 -0.005090 0.000527 0.000000 0.000000 -0.000001
# 2 -0.005090 0.024895 0.000546 0.000000 0.000002 0.000001
# 3 0.000527 0.000546 0.011016 0.000001 0.000004 -0.000006
# 4 0.000000 0.000000 0.000001 0.035986 0.000003 -0.000001
# 5 0.000000 0.000002 0.000004 0.000003 0.087574 0.000022
# 6 -0.000001 0.000001 -0.000006 -0.000001 0.000022 -0.298640
#
#
# Mechanical properties :
#
#
# Convention : Reuss Voigt Hill
#
# Bulk Modulus (GPa) = 26.39748 30.51406 28.45577
# Shear Modulus (GPa) = -46.08307 22.83730 -11.62289
#
# Velocity S-wave (km/s) = -4.80726 3.38415 -2.41426
# Velocity P-wave (km/s) = 4.19228 5.52921 2.54921
#
# Compressibility (1/GPa) = 0.03788241
#
# Stress axis : x y z
#
# Youngs Moduli (GPa) = 99.92859 40.16903 90.77577
#
# Poissons Ratio (x) = 0.20448 -0.04784
# Poissons Ratio (y) = 0.50868 -0.04952
# Poissons Ratio (z) = -0.05266 -0.02191
#
# Static dielectric constant tensor:
#      x y z
#    x 1.734570 0.000000 0.000000 
#    y 0.000000 1.713400 0.000000 
#    z 0.000000 0.000000 1.715190 
# 
# From -- ./inp_files/2847.got.cif
#   From: 2010.05.17/outbox.cif.g08.bks.cpg/sg73_2_cif.got.tgz:2847.got - 2010.06.03 17:35:07.
