data_PCOD9529109
_publ_section_title
;
Structure prediction by ZEFSAII (Michael W. Deem and Ramdas Pophale) SiO2 
 PCOD9529109
Probable space group: I B A M
;
_chemical_formula_sum "Si O2"
_cell_formula_units_Z 112
_cell_length_a 15.376507
_cell_length_b 11.440671
_cell_length_c 30.449594
_cell_angle_alpha 90.000000
_cell_angle_beta 90.000000
_cell_angle_gamma 90.000000
_cell_volume 5356.618210
_symmetry_space_group_name_H-M "I B A M"
_symmetry_group_IT_number 72
_symmetry_cell_setting 'orthorhombic'
loop_
_space_group_symop_operation_xyz
x,y,z
-x,-y,z
x,-y,1/2-z
-x,y,1/2-z
-x,-y,-z
x,y,-z
-x,y,1/2+z
x,-y,1/2+z
1/2+x,1/2+y,1/2+z
1/2-x,1/2-y,1/2+z
1/2+x,1/2-y,-z
1/2-x,1/2+y,-z
1/2-x,1/2-y,1/2-z
1/2+x,1/2+y,1/2-z
1/2-x,1/2+y,z
1/2+x,1/2-y,z
loop_
_atom_site_type_symbol
_atom_site_label
_atom_site_fract_x
_atom_site_fract_y
_atom_site_fract_z
Si Si1 0.407956 0.945591 0.138756
Si Si2 0.640065 0.285636 0.344726
Si Si3 0.628234 0.471955 0.202365
Si Si4 0.813986 0.542148 0.050193
Si Si5 0.276038 0.699691 0.917850
Si Si6 0.052479 0.807289 0.365888
Si Si7 0.818452 0.582489 0.709582
O O1 0.412278 0.813366 0.153149
O O2 0.500000 0.000000 0.149396
O O3 0.388368 0.955943 0.087278
O O4 0.334587 0.008997 0.165626
O O5 0.655478 0.413001 0.324889
O O6 0.716825 0.233916 0.375290
O O7 0.550478 0.289582 0.373135
O O8 0.631870 0.201240 0.302141
O O9 0.592660 0.500000 0.250000
O O10 0.564378 0.402773 0.171117
O O11 0.715616 0.397778 0.212743
O O12 0.759617 0.422104 0.061086
O O13 0.773170 0.674513 0.056214
O O14 0.842956 0.532998 0.000000
O O15 0.376912 0.672311 0.904534
O O16 0.846219 0.500000 0.750000
#
# Coordination Sequence:
#
# PCOD9529109 Si02
#       7
#    16  16  16  16  16  16  16
#     4  11  21  41  61  93 129 168 218 275 333 388
#     4  12  23  42  66  91 127 180 222 271 338 399
#     4  11  25  40  59  88 130 172 223 281 331 389
#     4  11  23  40  68  98 129 173 221 274 343 406
#     4  11  22  43  68  95 134 169 221 278 335 407
#     4  11  22  39  64  89 126 171 220 267 330 395
#     4  11  24  40  63  93 124 174 223 273 326 394
#
# _framework density 20.908715000000001
#
# number of rings (size 3 to 8) (size 9 to 14) (size 15 to 20)
#    0.000    0.857    4.286    3.429    2.000    2.857 
#    0.000    0.000    0.000    3.429    0.000    0.000 
#    0.000    0.000    0.000    0.000    0.000    0.000 
#
# Total GULP energy -312113.679489 kJ/mol
# GULP energy per Si atom -5573.458562 kJ/mol
# Density = 2.086113 g / cm^3
# Si number density = 20.908715 Si / 1000 Ang^3
#
#
#
# Elastic Constant Matrix: (Units=GPa)
#
#
# Indices 1 2 3 4 5 6 
#
# 1 98.1833 16.4054 21.1487 0.0000 0.0000 0.0000
# 2 16.4054 116.6317 25.3624 0.0000 0.0000 0.0000
# 3 21.1487 25.3624 94.8208 0.0000 0.0000 0.0000
# 4 0.0000 0.0000 0.0000 27.9719 0.0000 0.0000
# 5 0.0000 0.0000 0.0000 0.0000 9.9897 0.0000
# 6 0.0000 0.0000 0.0000 0.0000 0.0000 21.4634
#
#
#
# Elastic Compliance Matrix: (Units=1/GPa)
#
#
# Indices 1 2 3 4 5 6 
#
# 1 0.010821 -0.001059 -0.002130 0.000000 0.000000 0.000000
# 2 -0.001059 0.009207 -0.002227 0.000000 0.000000 0.000000
# 3 -0.002130 -0.002227 0.011617 0.000000 0.000000 0.000000
# 4 0.000000 0.000000 0.000000 0.035750 0.000000 0.000000
# 5 0.000000 0.000000 0.000000 0.000000 0.100103 0.000000
# 6 0.000000 0.000000 0.000000 0.000000 0.000000 0.046591
#
#
# Mechanical properties :
#
#
# Convention : Reuss Voigt Hill
#
# Bulk Modulus (GPa) = 48.04553 48.38544 48.21548
# Shear Modulus (GPa) = 21.56488 28.33294 24.94891
#
# Velocity S-wave (km/s) = 3.21500 3.68513 3.45806
# Velocity P-wave (km/s) = 6.06714 6.42639 6.24935
#
# Compressibility (1/GPa) = 0.02081359
#
# Stress axis : x y z
#
# Youngs Moduli (GPa) = 92.41456 108.61171 86.08155
#
# Poissons Ratio (x) = 0.11500 0.18338
# Poissons Ratio (y) = 0.09785 0.19166
# Poissons Ratio (z) = 0.19687 0.24183
#
# Static dielectric constant tensor:
#      x y z
#    x 1.774230 0.000000 0.000000 
#    y 0.000000 1.668790 0.000000 
#    z 0.000000 0.000000 1.730300 
# 
# From -- ./inp_files/51770.got.cif
#   From: 2010.05.17/outbox.cif.g08.bks.cpg/sg72_26_cif.got.tgz:51770.got - 2010.06.03 17:03:01.
