data_PCOD9529220
_publ_section_title
;
Structure prediction by ZEFSAII (Michael W. Deem and Ramdas Pophale) SiO2 
 PCOD9529220
Probable space group: I B A M
;
_chemical_formula_sum "Si O2"
_cell_formula_units_Z 52
_cell_length_a 4.849321
_cell_length_b 26.099235
_cell_length_c 18.439550
_cell_angle_alpha 90.000000
_cell_angle_beta 90.000000
_cell_angle_gamma 90.000000
_cell_volume 2333.775247
_symmetry_space_group_name_H-M "I B A M"
_symmetry_group_IT_number 72
_symmetry_cell_setting 'orthorhombic'
loop_
_space_group_symop_operation_xyz
x,y,z
-x,-y,z
x,-y,1/2-z
-x,y,1/2-z
-x,-y,-z
x,y,-z
-x,y,1/2+z
x,-y,1/2+z
1/2+x,1/2+y,1/2+z
1/2-x,1/2-y,1/2+z
1/2+x,1/2-y,-z
1/2-x,1/2+y,-z
1/2-x,1/2-y,1/2-z
1/2+x,1/2+y,1/2-z
1/2-x,1/2+y,z
1/2+x,1/2-y,z
loop_
_atom_site_type_symbol
_atom_site_label
_atom_site_fract_x
_atom_site_fract_y
_atom_site_fract_z
Si Si1 0.383381 0.218676 0.088100
Si Si2 0.500000 0.000000 0.750000
Si Si3 0.341905 0.885891 0.082725
Si Si4 0.655121 0.449484 0.874727
O O1 0.076912 0.233677 0.109709
O O2 0.516165 0.165577 0.112415
O O3 0.383000 0.215592 0.000000
O O4 0.299775 0.966318 0.699905
O O5 0.587407 0.927397 0.081202
O O6 0.085203 0.907263 0.127797
O O7 0.241860 0.876809 0.000000
O O8 0.500000 0.500000 0.904535
#
# Coordination Sequence:
#
# PCOD9529220 Si02
#       4
#    16   4  16  16
#     4   9  17  32  54  82 122 161 189 224 274 353
#     4  12  26  48  60  80 110 156 226 250 282 348
#     4  11  23  37  59  96 127 155 192 234 306 363
#     4  12  24  41  62  83 119 159 203 251 290 345
#
# _framework density 22.281495
#
# number of rings (size 3 to 8) (size 9 to 14) (size 15 to 20)
#    0.000    1.231    3.077    3.231    0.000    8.615 
#    0.000    0.000    0.000    0.000    0.000   21.538 
#    0.000    0.000    0.000    0.000    0.000    0.000 
#
# Total GULP energy -145243.202633 kJ/mol
# GULP energy per Si atom -5586.277024 kJ/mol
# Density = 2.223078 g / cm^3
# Si number density = 22.281495 Si / 1000 Ang^3
#
#
#
# Elastic Constant Matrix: (Units=GPa)
#
#
# Indices 1 2 3 4 5 6 
#
# 1 127.1464 15.2977 15.2258 0.0000 0.0000 0.0000
# 2 15.2977 65.6400 17.0353 0.0000 0.0000 0.0000
# 3 15.2258 17.0353 42.2979 0.0000 0.0000 0.0000
# 4 0.0000 0.0000 0.0000 59.3361 0.0000 0.0000
# 5 0.0000 0.0000 0.0000 0.0000 30.1600 0.0000
# 6 0.0000 0.0000 0.0000 0.0000 0.0000 41.9063
#
#
#
# Elastic Compliance Matrix: (Units=1/GPa)
#
#
# Indices 1 2 3 4 5 6 
#
# 1 0.008317 -0.001297 -0.002471 0.000000 0.000000 0.000000
# 2 -0.001297 0.017215 -0.006466 0.000000 0.000000 0.000000
# 3 -0.002471 -0.006466 0.027136 0.000000 0.000000 0.000000
# 4 0.000000 0.000000 0.000000 0.016853 0.000000 0.000000
# 5 0.000000 0.000000 0.000000 0.000000 0.033156 0.000000
# 6 0.000000 0.000000 0.000000 0.000000 0.000000 0.023863
#
#
# Mechanical properties :
#
#
# Convention : Reuss Voigt Hill
#
# Bulk Modulus (GPa) = 31.05769 36.68909 33.87339
# Shear Modulus (GPa) = 31.69721 38.78219 35.23970
#
# Velocity S-wave (km/s) = 3.77580 4.17652 3.98121
# Velocity P-wave (km/s) = 5.74264 6.30553 6.03066
#
# Compressibility (1/GPa) = 0.03219815
#
# Stress axis : x y z
#
# Youngs Moduli (GPa) = 120.23640 58.08862 36.85167
#
# Poissons Ratio (x) = 0.07533 0.09108
# Poissons Ratio (y) = 0.15593 0.23830
# Poissons Ratio (z) = 0.29716 0.37563
#
# Static dielectric constant tensor:
#      x y z
#    x 1.794130 0.000000 0.000000 
#    y 0.000000 1.876260 0.000000 
#    z 0.000000 0.000000 1.792810 
# 
# From -- ./inp_files/26861.got.cif
#   From: 2010.05.17/outbox.cif.g08.bks.cpg/sg72_14_cif.got.tgz:26861.got - 2010.06.03 17:03:01.
