data_PCOD9529787
_publ_section_title
;
Structure prediction by ZEFSAII (Michael W. Deem and Ramdas Pophale) SiO2 
 PCOD9529787
Probable space group: I B C A 
;
_chemical_formula_sum "Si O2"
_cell_formula_units_Z 104
_cell_length_a 9.315574
_cell_length_b 30.407173
_cell_length_c 15.110591
_cell_angle_alpha 90.000000
_cell_angle_beta 90.000000
_cell_angle_gamma 90.000000
_cell_volume 4280.230090
_symmetry_space_group_name_H-M "I B C A "
_symmetry_group_IT_number 73
_symmetry_cell_setting 'orthorhombic'
loop_
_space_group_symop_operation_xyz
x,y,z
-x,1/2-y,z
x,-y,1/2-z
1/2-x,y,-z
-x,-y,-z
x,1/2+y,-z
-x,y,1/2+z
1/2+x,-y,z
1/2+x,1/2+y,1/2+z
1/2-x,-y,1/2+z
1/2+x,1/2-y,-z
-x,1/2+y,1/2-z
1/2-x,1/2-y,1/2-z
1/2+x,y,1/2-z
1/2-x,1/2+y,z
x,1/2-y,1/2+z
loop_
_atom_site_type_symbol
_atom_site_label
_atom_site_fract_x
_atom_site_fract_y
_atom_site_fract_z
Si Si1 0.478783 0.353545 0.881170
Si Si2 0.362944 0.025594 0.082931
Si Si3 0.922894 0.390910 0.816645
Si Si4 0.500000 0.750000 0.382295
Si Si5 0.338670 0.169564 0.618413
Si Si6 0.903867 0.564617 0.967987
Si Si7 0.234587 0.690890 0.820521
O O1 0.456022 0.376929 0.784727
O O2 0.322149 0.338029 0.910707
O O3 0.508456 0.395938 0.941026
O O4 0.587040 0.312577 0.875486
O O5 0.356734 0.061430 0.161510
O O6 0.370423 0.973683 0.104566
O O7 0.250000 0.030982 0.000000
O O8 0.518542 0.038232 0.044990
O O9 0.803139 0.355972 0.844998
O O10 0.065812 0.374226 0.868421
O O11 0.573960 0.791597 0.428915
O O12 0.636348 0.725382 0.334162
O O13 0.315903 0.188076 0.719174
O O14 0.750000 0.580304 0.000000
#
# Coordination Sequence:
#
# PCOD9529787 Si02
#       7
#    16  16  16   8  16  16  16
#     4  10  19  33  52  78 110 140 179 226 273 325
#     4  10  20  35  54  77 106 142 186 227 267 324
#     4   9  18  33  51  75 108 143 178 222 272 320
#     4  10  18  30  48  76 112 142 170 216 278 324
#     4   9  18  30  48  75 108 139 174 220 269 321
#     4  10  21  35  53  79 108 140 183 229 269 322
#     4   9  18  30  48  76 107 140 176 220 270 324
#
# _framework density 24.29776
#
# number of rings (size 3 to 8) (size 9 to 14) (size 15 to 20)
#    0.000    2.462    0.000    3.231    0.000    1.231 
#    0.000    0.000    0.000   11.077    0.000   53.846 
#    0.000    4.923    0.000    0.000    0.000    0.000 
#
# Total GULP energy -289542.449179 kJ/mol
# GULP energy per Si atom -5568.124023 kJ/mol
# Density = 2.424246 g / cm^3
# Si number density = 24.297760 Si / 1000 Ang^3
#
#
#
# Elastic Constant Matrix: (Units=GPa)
#
#
# Indices 1 2 3 4 5 6 
#
# 1 112.9825 29.6921 24.3540 0.0000 0.0000 0.0000
# 2 29.6921 125.7886 28.0249 -0.0002 0.0000 0.0000
# 3 24.3540 28.0249 53.7522 -0.0002 0.0001 0.0000
# 4 0.0000 -0.0002 -0.0002 8.9402 0.0002 0.0000
# 5 0.0000 0.0000 0.0001 0.0002 20.1203 0.0000
# 6 0.0000 0.0000 0.0000 0.0000 0.0000 38.7411
#
#
#
# Elastic Compliance Matrix: (Units=1/GPa)
#
#
# Indices 1 2 3 4 5 6 
#
# 1 0.010065 -0.001539 -0.003758 0.000000 0.000000 0.000000
# 2 -0.001539 0.009230 -0.004115 0.000000 0.000000 0.000000
# 3 -0.003758 -0.004115 0.022452 0.000000 0.000000 0.000000
# 4 0.000000 0.000000 0.000000 0.111855 -0.000001 0.000000
# 5 0.000000 0.000000 0.000000 -0.000001 0.049701 0.000000
# 6 0.000000 0.000000 0.000000 0.000000 0.000000 0.025812
#
#
# Mechanical properties :
#
#
# Convention : Reuss Voigt Hill
#
# Bulk Modulus (GPa) = 43.62323 50.74058 47.18190
# Shear Modulus (GPa) = 19.56330 27.59046 23.57688
#
# Velocity S-wave (km/s) = 2.84059 3.37340 3.11839
# Velocity P-wave (km/s) = 5.36201 6.00843 5.69440
#
# Compressibility (1/GPa) = 0.02292356
#
# Stress axis : x y z
#
# Youngs Moduli (GPa) = 99.35039 108.34427 44.53922
#
# Poissons Ratio (x) = 0.16670 0.16739
# Poissons Ratio (y) = 0.15286 0.18328
# Poissons Ratio (z) = 0.37338 0.44584
#
# Static dielectric constant tensor:
#      x y z
#    x 1.980750 0.000000 0.000000 
#    y 0.000000 2.050520 0.000000 
#    z 0.000000 0.000000 2.041880 
# 
# From -- ./inp_files/24992.got.cif
#   From: 2010.05.17/outbox.cif.g08.bks.cpg/sg73_13_cif.got.tgz:24992.got - 2010.06.03 17:35:07.
