data_PCOD9529780
_publ_section_title
;
Structure prediction by ZEFSAII (Michael W. Deem and Ramdas Pophale) SiO2 
 PCOD9529780
Probable space group: I B C A 
;
_chemical_formula_sum "Si O2"
_cell_formula_units_Z 96
_cell_length_a 8.947620
_cell_length_b 23.145795
_cell_length_c 23.864025
_cell_angle_alpha 90.000000
_cell_angle_beta 90.000000
_cell_angle_gamma 90.000000
_cell_volume 4942.234286
_symmetry_space_group_name_H-M "I B C A "
_symmetry_group_IT_number 73
_symmetry_cell_setting 'orthorhombic'
loop_
_space_group_symop_operation_xyz
x,y,z
-x,1/2-y,z
x,-y,1/2-z
1/2-x,y,-z
-x,-y,-z
x,1/2+y,-z
-x,y,1/2+z
1/2+x,-y,z
1/2+x,1/2+y,1/2+z
1/2-x,-y,1/2+z
1/2+x,1/2-y,-z
-x,1/2+y,1/2-z
1/2-x,1/2-y,1/2-z
1/2+x,y,1/2-z
1/2-x,1/2+y,z
x,1/2-y,1/2+z
loop_
_atom_site_type_symbol
_atom_site_label
_atom_site_fract_x
_atom_site_fract_y
_atom_site_fract_z
Si Si1 0.500000 0.750000 0.745743
Si Si2 0.878266 0.938438 0.806070
Si Si3 0.872451 0.000000 0.250000
Si Si4 0.388813 0.462146 0.427974
Si Si5 0.099872 0.913144 0.025546
Si Si6 0.820607 0.354866 0.940397
Si Si7 0.262519 0.685397 0.817596
O O1 0.415116 0.704342 0.786525
O O2 0.369100 0.773714 0.705569
O O3 0.743617 0.984330 0.798718
O O4 0.949028 0.949504 0.866470
O O5 0.797366 0.877729 0.800663
O O6 0.012584 0.948597 0.762964
O O7 0.501097 0.438324 0.474517
O O8 0.361276 0.529697 0.438287
O O9 0.244521 0.420446 0.432423
O O10 0.997189 0.865712 0.055102
O O11 0.250000 0.888007 0.000000
O O12 0.779988 0.318370 0.885221
O O13 0.750000 0.334515 0.000000
#
# Coordination Sequence:
#
# PCOD9529780 Si02
#       7
#     8  16   8  16  16  16  16
#     4  10  22  42  68  86 102 146 208 252 310 344
#     4  10  21  35  53  79 116 155 182 230 272 332
#     4  10  22  34  48  80 122 154 192 208 274 340
#     4   9  18  30  50  73 113 157 193 221 264 322
#     4  10  18  29  49  81 110 153 194 221 258 337
#     4   9  19  36  55  82 120 153 185 238 295 341
#     4  10  21  41  64  85 113 146 197 255 295 347
#
# _framework density 19.424413000000001
#
# number of rings (size 3 to 8) (size 9 to 14) (size 15 to 20)
#    0.000    2.333    0.000    3.500    7.000    0.000 
#    0.000   10.833    0.000    0.000    0.000    0.000 
#    0.000    0.000    0.000    0.000    0.000    0.000 
#
# Total GULP energy -267379.300854 kJ/mol
# GULP energy per Si atom -5570.402101 kJ/mol
# Density = 1.938020 g / cm^3
# Si number density = 19.424413 Si / 1000 Ang^3
#
#
#
# Elastic Constant Matrix: (Units=GPa)
#
#
# Indices 1 2 3 4 5 6 
#
# 1 80.2644 11.7060 29.6016 0.0000 0.0000 0.0000
# 2 11.7060 38.0703 33.9480 0.0000 0.0000 0.0000
# 3 29.6016 33.9480 106.6805 0.0000 0.0000 0.0000
# 4 0.0000 0.0000 0.0000 24.3394 0.0000 0.0000
# 5 0.0000 0.0000 0.0000 0.0000 23.1466 0.0000
# 6 0.0000 0.0000 0.0000 0.0000 0.0000 18.2595
#
#
#
# Elastic Compliance Matrix: (Units=1/GPa)
#
#
# Indices 1 2 3 4 5 6 
#
# 1 0.013916 -0.001167 -0.003490 0.000000 0.000000 0.000000
# 2 -0.001167 0.036772 -0.011378 0.000000 0.000000 0.000000
# 3 -0.003490 -0.011378 0.013963 0.000000 0.000000 0.000000
# 4 0.000000 0.000000 0.000000 0.041086 0.000000 0.000000
# 5 0.000000 0.000000 0.000000 0.000000 0.043203 0.000000
# 6 0.000000 0.000000 0.000000 0.000000 0.000000 0.054766
#
#
# Mechanical properties :
#
#
# Convention : Reuss Voigt Hill
#
# Bulk Modulus (GPa) = 30.69240 41.72516 36.20878
# Shear Modulus (GPa) = 20.27286 23.13308 21.70297
#
# Velocity S-wave (km/s) = 3.23411 3.45473 3.34624
# Velocity P-wave (km/s) = 5.45721 6.11890 5.79750
#
# Compressibility (1/GPa) = 0.03258136
#
# Stress axis : x y z
#
# Youngs Moduli (GPa) = 71.85894 27.19483 71.61840
#
# Poissons Ratio (x) = 0.03173 0.24996
# Poissons Ratio (y) = 0.08384 0.81486
# Poissons Ratio (z) = 0.25080 0.30942
#
# Static dielectric constant tensor:
#      x y z
#    x 1.706630 0.000000 0.000000 
#    y 0.000000 1.685890 0.000000 
#    z 0.000000 0.000000 1.735890 
# 
# From -- ./inp_files/7854.got.cif
#   From: 2010.05.17/outbox.cif.g08.bks.cpg/sg73_4_cif.got.tgz:7854.got - 2010.06.03 17:35:07.
