data_PCOD9529331
_publ_section_title
;
Structure prediction by ZEFSAII (Michael W. Deem and Ramdas Pophale) SiO2 
 PCOD9529331
Probable space group: I B A M
;
_chemical_formula_sum "Si O2"
_cell_formula_units_Z 52
_cell_length_a 24.928569
_cell_length_b 6.937895
_cell_length_c 14.157262
_cell_angle_alpha 90.000000
_cell_angle_beta 90.000000
_cell_angle_gamma 90.000000
_cell_volume 2448.523864
_symmetry_space_group_name_H-M "I B A M"
_symmetry_group_IT_number 72
_symmetry_cell_setting 'orthorhombic'
loop_
_space_group_symop_operation_xyz
x,y,z
-x,-y,z
x,-y,1/2-z
-x,y,1/2-z
-x,-y,-z
x,y,-z
-x,y,1/2+z
x,-y,1/2+z
1/2+x,1/2+y,1/2+z
1/2-x,1/2-y,1/2+z
1/2+x,1/2-y,-z
1/2-x,1/2+y,-z
1/2-x,1/2-y,1/2-z
1/2+x,1/2+y,1/2-z
1/2-x,1/2+y,z
1/2+x,1/2-y,z
loop_
_atom_site_type_symbol
_atom_site_label
_atom_site_fract_x
_atom_site_fract_y
_atom_site_fract_z
Si Si1 0.000000 0.500000 0.500000
Si Si2 0.297247 0.173243 0.000000
Si Si3 0.171622 0.235791 0.000000
Si Si4 0.848414 0.947268 0.652719
Si Si5 0.551763 0.817118 0.188841
O O1 0.966515 0.613582 0.585098
O O2 0.175232 0.464504 0.000000
O O3 0.315920 0.295015 0.909787
O O4 0.233129 0.160333 0.000000
O O5 0.144046 0.139694 0.090713
O O6 0.903986 0.845167 0.677739
O O7 0.819679 0.000000 0.750000
O O8 0.500000 0.753454 0.250000
O O9 0.573160 0.000000 0.250000
#
# Coordination Sequence:
#
# PCOD9529331 Si02
#       5
#     4   8   8  16  16
#     4   8  14  36  66  88 124 178 214 280 350 370
#     4  11  24  48  69 100 143 176 232 292 342 418
#     4  11  24  48  68 100 141 180 234 295 339 419
#     4  11  25  42  69 104 136 184 232 277 358 415
#     4   9  20  39  66 101 135 177 237 288 337 415
#
# _framework density 21.237286000000001
#
# number of rings (size 3 to 8) (size 9 to 14) (size 15 to 20)
#    0.000    2.154    3.077    1.846    4.308    1.846 
#    0.000    1.538    0.000   11.077    0.000    0.000 
#    0.000    0.000    0.000    0.000    0.000    0.000 
#
# Total GULP energy -144776.279610 kJ/mol
# GULP energy per Si atom -5568.318447 kJ/mol
# Density = 2.118895 g / cm^3
# Si number density = 21.237286 Si / 1000 Ang^3
#
#
#
# Elastic Constant Matrix: (Units=GPa)
#
#
# Indices 1 2 3 4 5 6 
#
# 1 78.5955 43.6991 36.9143 0.0000 0.0000 0.0000
# 2 43.6991 152.2972 76.8108 0.0000 0.0000 0.0000
# 3 36.9143 76.8108 216.5295 0.0000 0.0000 0.0000
# 4 0.0000 0.0000 0.0000 -12.3760 0.0000 0.0000
# 5 0.0000 0.0000 0.0000 0.0000 15.0636 0.0000
# 6 0.0000 0.0000 0.0000 0.0000 0.0000 22.1725
#
#
#
# Elastic Compliance Matrix: (Units=1/GPa)
#
#
# Indices 1 2 3 4 5 6 
#
# 1 0.015429 -0.003776 -0.001291 0.000000 0.000000 0.000000
# 2 -0.003776 0.008921 -0.002521 0.000000 0.000000 0.000000
# 3 -0.001291 -0.002521 0.005733 0.000000 0.000000 0.000000
# 4 0.000000 0.000000 0.000000 -0.080801 0.000000 0.000000
# 5 0.000000 0.000000 0.000000 0.000000 0.066385 0.000000
# 6 0.000000 0.000000 0.000000 0.000000 0.000000 0.045101
#
#
# Mechanical properties :
#
#
# Convention : Reuss Voigt Hill
#
# Bulk Modulus (GPa) = 67.08186 84.69672 75.88929
# Shear Modulus (GPa) = 61.79526 24.30521 43.05024
#
# Velocity S-wave (km/s) = 5.40006 3.38666 4.50722
# Velocity P-wave (km/s) = 8.39859 7.43373 7.93085
#
# Compressibility (1/GPa) = 0.01490716
#
# Stress axis : x y z
#
# Youngs Moduli (GPa) = 64.81228 112.09543 174.44063
#
# Poissons Ratio (x) = 0.42328 0.22518
# Poissons Ratio (y) = 0.24474 0.43974
# Poissons Ratio (z) = 0.08366 0.28257
#
# Static dielectric constant tensor:
#      x y z
#    x 1.788610 0.000000 0.000000 
#    y 0.000000 1.810400 0.000000 
#    z 0.000000 0.000000 1.757550 
# 
# From -- ./inp_files/16545.got.cif
#   From: 2010.05.17/outbox.cif.g08.bks.cpg/sg72_9_cif.got.tgz:16545.got - 2010.06.03 17:03:01.
