data_PCOD9529979
_publ_section_title
;
Structure prediction by ZEFSAII (Michael W. Deem and Ramdas Pophale) SiO2 
 PCOD9529979
Probable space group: I B C A 
;
_chemical_formula_sum "Si O2"
_cell_formula_units_Z 104
_cell_length_a 18.806862
_cell_length_b 19.173848
_cell_length_c 13.808105
_cell_angle_alpha 90.000000
_cell_angle_beta 90.000000
_cell_angle_gamma 90.000000
_cell_volume 4979.201466
_symmetry_space_group_name_H-M "I B C A "
_symmetry_group_IT_number 73
_symmetry_cell_setting 'orthorhombic'
loop_
_space_group_symop_operation_xyz
x,y,z
-x,1/2-y,z
x,-y,1/2-z
1/2-x,y,-z
-x,-y,-z
x,1/2+y,-z
-x,y,1/2+z
1/2+x,-y,z
1/2+x,1/2+y,1/2+z
1/2-x,-y,1/2+z
1/2+x,1/2-y,-z
-x,1/2+y,1/2-z
1/2-x,1/2-y,1/2-z
1/2+x,y,1/2-z
1/2-x,1/2+y,z
x,1/2-y,1/2+z
loop_
_atom_site_type_symbol
_atom_site_label
_atom_site_fract_x
_atom_site_fract_y
_atom_site_fract_z
Si Si1 0.750000 0.107670 0.500000
Si Si2 0.904350 0.572553 0.278810
Si Si3 0.371382 0.853029 0.148748
Si Si4 0.522764 0.136442 0.449252
Si Si5 0.350170 0.698541 0.135815
Si Si6 0.824404 0.502968 0.860040
Si Si7 0.049321 0.090500 0.836456
O O1 0.802276 0.158466 0.558170
O O2 0.711691 0.055093 0.574180
O O3 0.868890 0.500000 0.250000
O O4 0.937850 0.573933 0.388028
O O5 0.856769 0.642460 0.276663
O O6 0.972782 0.579957 0.210871
O O7 0.441355 0.856746 0.080781
O O8 0.333012 0.778495 0.153394
O O9 0.321775 0.916183 0.112761
O O10 0.401707 0.870073 0.256969
O O11 0.569275 0.199485 0.405946
O O12 0.537518 0.128492 0.561977
O O13 0.798123 0.500000 0.750000
O O14 0.907910 0.480723 0.857126
#
# Coordination Sequence:
#
# PCOD9529979 Si02
#       7
#     8  16  16  16  16  16  16
#     4  12  24  46  64  84 134 182 212 262 314 384
#     4   9  19  34  56  91 127 156 204 259 311 372
#     4  10  21  40  62  96 127 158 216 274 313 384
#     4   9  19  36  62  92 133 159 204 253 340 370
#     4  10  23  41  60  93 133 165 208 266 320 376
#     4  10  22  41  67  89 122 175 221 254 322 379
#     4  10  18  37  63  92 128 167 197 265 330 368
#
# _framework density 20.886883000000001
#
# number of rings (size 3 to 8) (size 9 to 14) (size 15 to 20)
#    0.923    1.231    1.538    2.769    0.000    4.923 
#    5.538    3.077    0.000    0.000    0.000    0.000 
#    0.000    0.000    0.000    0.000    0.000    0.000 
#
# Total GULP energy -289670.154156 kJ/mol
# GULP energy per Si atom -5570.579888 kJ/mol
# Density = 2.083934 g / cm^3
# Si number density = 20.886883 Si / 1000 Ang^3
#
#
#
# Elastic Constant Matrix: (Units=GPa)
#
#
# Indices 1 2 3 4 5 6 
#
# 1 43.2292 32.2670 -2.9778 0.0000 0.0000 0.0000
# 2 32.2670 189.5037 24.8378 0.0000 0.0000 0.0000
# 3 -2.9778 24.8378 65.6934 0.0000 0.0000 0.0000
# 4 0.0000 0.0000 0.0000 12.8524 0.0000 0.0000
# 5 0.0000 0.0000 0.0000 0.0000 23.9908 0.0000
# 6 0.0000 0.0000 0.0000 0.0000 0.0000 7.2225
#
#
#
# Elastic Compliance Matrix: (Units=1/GPa)
#
#
# Indices 1 2 3 4 5 6 
#
# 1 0.027098 -0.005024 0.003128 0.000000 0.000000 0.000000
# 2 -0.005024 0.006484 -0.002679 0.000000 0.000000 0.000000
# 3 0.003128 -0.002679 0.016377 0.000000 0.000000 0.000000
# 4 0.000000 0.000000 0.000000 0.077806 0.000000 0.000000
# 5 0.000000 0.000000 0.000000 0.000000 0.041683 0.000000
# 6 0.000000 0.000000 0.000000 0.000000 0.000000 0.138457
#
#
# Mechanical properties :
#
#
# Convention : Reuss Voigt Hill
#
# Bulk Modulus (GPa) = 24.50504 45.18672 34.84588
# Shear Modulus (GPa) = 15.12141 25.09976 20.11059
#
# Velocity S-wave (km/s) = 2.69358 3.47032 3.10632
# Velocity P-wave (km/s) = 4.62942 6.14316 5.43921
#
# Compressibility (1/GPa) = 0.04080793
#
# Stress axis : x y z
#
# Youngs Moduli (GPa) = 36.90321 154.23739 61.06152
#
# Poissons Ratio (x) = 0.77488 -0.19099
# Poissons Ratio (y) = 0.18540 0.16359
# Poissons Ratio (z) = -0.11543 0.41321
#
# Static dielectric constant tensor:
#      x y z
#    x 1.769160 0.000000 0.000000 
#    y 0.000000 1.812030 0.000000 
#    z 0.000000 0.000000 1.759320 
# 
# From -- ./inp_files/18778.got.cif
#   From: 2010.05.17/outbox.cif.g08.bks.cpg/sg73_10_cif.got.tgz:18778.got - 2010.06.03 17:35:07.
