data_PCOD9529842
_publ_section_title
;
Structure prediction by ZEFSAII (Michael W. Deem and Ramdas Pophale) SiO2 
 PCOD9529842
Probable space group: I B C A 
;
_chemical_formula_sum "Si O2"
_cell_formula_units_Z 72
_cell_length_a 5.665064
_cell_length_b 22.122638
_cell_length_c 23.991102
_cell_angle_alpha 90.000000
_cell_angle_beta 90.000000
_cell_angle_gamma 90.000000
_cell_volume 3006.712691
_symmetry_space_group_name_H-M "I B C A "
_symmetry_group_IT_number 73
_symmetry_cell_setting 'orthorhombic'
loop_
_space_group_symop_operation_xyz
x,y,z
-x,1/2-y,z
x,-y,1/2-z
1/2-x,y,-z
-x,-y,-z
x,1/2+y,-z
-x,y,1/2+z
1/2+x,-y,z
1/2+x,1/2+y,1/2+z
1/2-x,-y,1/2+z
1/2+x,1/2-y,-z
-x,1/2+y,1/2-z
1/2-x,1/2-y,1/2-z
1/2+x,y,1/2-z
1/2-x,1/2+y,z
x,1/2-y,1/2+z
loop_
_atom_site_type_symbol
_atom_site_label
_atom_site_fract_x
_atom_site_fract_y
_atom_site_fract_z
Si Si1 0.019573 0.181538 0.730547
Si Si2 0.138950 0.436820 0.946207
Si Si3 0.533866 0.354447 0.890011
Si Si4 0.250000 0.148672 0.000000
Si Si5 0.133499 0.480165 0.658255
O O1 0.767670 0.153248 0.749152
O O2 0.030483 0.183958 0.663741
O O3 0.000000 0.250000 0.754092
O O4 0.312909 0.389319 0.916401
O O5 0.080515 0.484789 0.899629
O O6 0.250000 0.468927 0.000000
O O7 0.941536 0.395307 0.973079
O O8 0.674340 0.410747 0.860595
O O9 0.650660 0.320995 0.943313
O O10 0.370809 0.509322 0.685169
#
# Coordination Sequence:
#
# PCOD9529842 Si02
#       5
#    16  16  16   8  16
#     4  10  24  46  73  92 107 149 214 271 309 352
#     4   9  19  30  49  85 126 169 203 231 275 355
#     4  10  21  34  60  88 125 156 203 251 304 359
#     4  10  18  32  54  92 126 170 192 238 298 364
#     4  10  19  30  48  81 122 160 198 235 273 348
#
# _framework density 23.946418999999999
#
# number of rings (size 3 to 8) (size 9 to 14) (size 15 to 20)
#    0.000    2.222    2.222    0.000    4.667    2.667 
#    0.000    0.000    7.333   16.000    0.000    0.000 
#    0.000    0.000    0.000    0.000    0.000    0.000 
#
# Total GULP energy -200541.975558 kJ/mol
# GULP energy per Si atom -5570.610432 kJ/mol
# Density = 2.389192 g / cm^3
# Si number density = 23.946419 Si / 1000 Ang^3
#
#
#
# Elastic Constant Matrix: (Units=GPa)
#
#
# Indices 1 2 3 4 5 6 
#
# 1 140.2428 1.6466 46.8051 0.0000 0.0000 0.0000
# 2 1.6466 20.9827 10.8918 0.0000 0.0000 0.0000
# 3 46.8051 10.8918 159.7923 0.0000 0.0000 0.0000
# 4 0.0000 0.0000 0.0000 30.5477 0.0000 0.0000
# 5 0.0000 0.0000 0.0000 0.0000 8.1270 0.0000
# 6 0.0000 0.0000 0.0000 0.0000 0.0000 -0.7872
#
#
#
# Elastic Compliance Matrix: (Units=1/GPa)
#
#
# Indices 1 2 3 4 5 6 
#
# 1 0.007910 0.000603 -0.002358 0.000000 0.000000 0.000000
# 2 0.000603 0.049452 -0.003548 0.000000 0.000000 0.000000
# 3 -0.002358 -0.003548 0.007191 0.000000 0.000000 0.000000
# 4 0.000000 0.000000 0.000000 0.032736 0.000000 0.000000
# 5 0.000000 0.000000 0.000000 0.000000 0.123047 0.000000
# 6 0.000000 0.000000 0.000000 0.000000 0.000000 -1.270333
#
#
# Mechanical properties :
#
#
# Convention : Reuss Voigt Hill
#
# Bulk Modulus (GPa) = 18.53607 48.85609 33.69608
# Shear Modulus (GPa) = -4.89520 25.02245 10.06363
#
# Velocity S-wave (km/s) = -1.43132 3.23605 2.05224
# Velocity P-wave (km/s) = 2.24185 5.86594 4.44045
#
# Compressibility (1/GPa) = 0.05394886
#
# Stress axis : x y z
#
# Youngs Moduli (GPa) = 126.41529 20.22143 139.06908
#
# Poissons Ratio (x) = -0.01220 0.32795
# Poissons Ratio (y) = -0.07627 0.49335
# Poissons Ratio (z) = 0.29811 0.07174
#
# Static dielectric constant tensor:
#      x y z
#    x 2.118680 0.000000 0.000000 
#    y 0.000000 1.949080 0.000000 
#    z 0.000000 0.000000 2.017620 
# 
# From -- ./inp_files/1689.got.cif
#   From: 2010.05.17/outbox.cif.g08.bks.cpg/sg73_1_cif.got.tgz:1689.got - 2010.06.03 17:35:07.
