data_PCOD9529928
_publ_section_title
;
Structure prediction by ZEFSAII (Michael W. Deem and Ramdas Pophale) SiO2 
 PCOD9529928
Probable space group: I B C A 
;
_chemical_formula_sum "Si O2"
_cell_formula_units_Z 112
_cell_length_a 17.580919
_cell_length_b 16.557489
_cell_length_c 17.840618
_cell_angle_alpha 90.000000
_cell_angle_beta 90.000000
_cell_angle_gamma 90.000000
_cell_volume 5193.330271
_symmetry_space_group_name_H-M "I B C A "
_symmetry_group_IT_number 73
_symmetry_cell_setting 'orthorhombic'
loop_
_space_group_symop_operation_xyz
x,y,z
-x,1/2-y,z
x,-y,1/2-z
1/2-x,y,-z
-x,-y,-z
x,1/2+y,-z
-x,y,1/2+z
1/2+x,-y,z
1/2+x,1/2+y,1/2+z
1/2-x,-y,1/2+z
1/2+x,1/2-y,-z
-x,1/2+y,1/2-z
1/2-x,1/2-y,1/2-z
1/2+x,y,1/2-z
1/2-x,1/2+y,z
x,1/2-y,1/2+z
loop_
_atom_site_type_symbol
_atom_site_label
_atom_site_fract_x
_atom_site_fract_y
_atom_site_fract_z
Si Si1 0.220048 0.377089 0.114684
Si Si2 0.176306 0.533798 0.169603
Si Si3 0.822354 0.694479 0.735403
Si Si4 0.891385 0.775749 0.472559
Si Si5 0.509037 0.455066 0.117246
Si Si6 0.462439 0.115731 0.951477
Si Si7 0.608454 0.681458 0.858703
O O1 0.208741 0.473162 0.107266
O O2 0.167710 0.351362 0.186380
O O3 0.184552 0.322871 0.049698
O O4 0.307303 0.357584 0.132987
O O5 0.204238 0.500000 0.250000
O O6 0.195949 0.628193 0.171720
O O7 0.085173 0.531238 0.163885
O O8 0.750000 0.750000 0.750000
O O9 0.888533 0.752325 0.706451
O O10 0.898342 0.684410 0.443025
O O11 0.903850 0.774208 0.561919
O O12 0.959638 0.833060 0.443507
O O13 0.465003 0.539082 0.102973
O O14 0.453505 0.387806 0.150707
O O15 0.535980 0.421553 0.035529
#
# Coordination Sequence:
#
# PCOD9529928 Si02
#       7
#    16  16  16  16  16  16  16
#     4  10  20  38  59  82 118 153 193 244 299 348
#     4  10  20  37  60  83 114 155 194 240 295 352
#     4   9  20  39  58  81 112 153 192 231 294 354
#     4  10  18  35  59  84 113 152 198 239 291 346
#     4  10  19  37  56  86 118 148 201 237 295 357
#     4   9  19  33  58  82 115 154 185 243 298 345
#     4  10  21  37  58  84 116 155 193 242 290 355
#
# _framework density 21.566123999999999
#
# number of rings (size 3 to 8) (size 9 to 14) (size 15 to 20)
#    0.000    2.286    1.429    1.286    0.000    1.714 
#    7.714    2.143    0.000    0.000    0.000    0.000 
#    0.000    0.000    0.000    0.000    0.000    0.000 
#
# Total GULP energy -312352.440759 kJ/mol
# GULP energy per Si atom -5577.722156 kJ/mol
# Density = 2.151704 g / cm^3
# Si number density = 21.566124 Si / 1000 Ang^3
#
#
#
# Elastic Constant Matrix: (Units=GPa)
#
#
# Indices 1 2 3 4 5 6 
#
# 1 49.1819 15.8296 -6.5988 0.0000 0.0000 0.0000
# 2 15.8296 140.1883 10.8125 0.0000 0.0000 0.0000
# 3 -6.5988 10.8125 23.5410 0.0000 0.0000 0.0000
# 4 0.0000 0.0000 0.0000 24.4449 0.0000 0.0000
# 5 0.0000 0.0000 0.0000 0.0000 21.3245 0.0000
# 6 0.0000 0.0000 0.0000 0.0000 0.0000 22.4726
#
#
#
# Elastic Compliance Matrix: (Units=1/GPa)
#
#
# Indices 1 2 3 4 5 6 
#
# 1 0.022371 -0.003120 0.007704 0.000000 0.000000 0.000000
# 2 -0.003120 0.007830 -0.004471 0.000000 0.000000 0.000000
# 3 0.007704 -0.004471 0.046692 0.000000 0.000000 0.000000
# 4 0.000000 0.000000 0.000000 0.040908 0.000000 0.000000
# 5 0.000000 0.000000 0.000000 0.000000 0.046894 0.000000
# 6 0.000000 0.000000 0.000000 0.000000 0.000000 0.044499
#
#
# Mechanical properties :
#
#
# Convention : Reuss Voigt Hill
#
# Bulk Modulus (GPa) = 12.96709 28.11086 20.53898
# Shear Modulus (GPa) = 21.30600 26.50628 23.90614
#
# Velocity S-wave (km/s) = 3.14656 3.50961 3.33303
# Velocity P-wave (km/s) = 4.38485 5.43012 4.93523
#
# Compressibility (1/GPa) = 0.07711828
#
# Stress axis : x y z
#
# Youngs Moduli (GPa) = 44.70155 127.70673 21.41681
#
# Poissons Ratio (x) = 0.39847 -0.16499
# Poissons Ratio (y) = 0.13948 0.09576
# Poissons Ratio (z) = -0.34438 0.57100
#
# Static dielectric constant tensor:
#      x y z
#    x 1.774570 0.000000 0.000000 
#    y 0.000000 1.859390 0.000000 
#    z 0.000000 0.000000 1.856280 
# 
# From -- ./inp_files/22758.got.cif
#   From: 2010.05.17/outbox.cif.g08.bks.cpg/sg73_12_cif.got.tgz:22758.got - 2010.06.03 17:35:07.
