data_PCOD9529353
_publ_section_title
;
Structure prediction by ZEFSAII (Michael W. Deem and Ramdas Pophale) SiO2 
 PCOD9529353
Probable space group: I B A M
;
_chemical_formula_sum "Si O2"
_cell_formula_units_Z 56
_cell_length_a 9.544355
_cell_length_b 10.262817
_cell_length_c 25.654933
_cell_angle_alpha 90.000000
_cell_angle_beta 90.000000
_cell_angle_gamma 90.000000
_cell_volume 2512.951195
_symmetry_space_group_name_H-M "I B A M"
_symmetry_group_IT_number 72
_symmetry_cell_setting 'orthorhombic'
loop_
_space_group_symop_operation_xyz
x,y,z
-x,-y,z
x,-y,1/2-z
-x,y,1/2-z
-x,-y,-z
x,y,-z
-x,y,1/2+z
x,-y,1/2+z
1/2+x,1/2+y,1/2+z
1/2-x,1/2-y,1/2+z
1/2+x,1/2-y,-z
1/2-x,1/2+y,-z
1/2-x,1/2-y,1/2-z
1/2+x,1/2+y,1/2-z
1/2-x,1/2+y,z
1/2+x,1/2-y,z
loop_
_atom_site_type_symbol
_atom_site_label
_atom_site_fract_x
_atom_site_fract_y
_atom_site_fract_z
Si Si1 0.500000 0.000000 0.656304
Si Si2 0.500951 0.345375 0.558561
Si Si3 0.616381 0.742404 0.286982
Si Si4 0.722922 0.829034 0.889377
O O1 0.450614 0.121132 0.692185
O O2 0.629041 0.042580 0.619449
O O3 0.500000 0.500000 0.564547
O O4 0.546113 0.309499 0.500000
O O5 0.604475 0.279817 0.600308
O O6 0.338166 0.310843 0.566250
O O7 0.500000 0.677342 0.250000
O O8 0.750000 0.750000 0.250000
O O9 0.680069 0.677016 0.338170
#
# Coordination Sequence:
#
# PCOD9529353 Si02
#       4
#     8  16  16  16
#     4  12  25  44  71  98 148 174 237 284 349 418
#     4  11  25  46  71 101 136 179 236 293 352 423
#     4  12  24  42  68  99 137 183 222 279 338 410
#     4  12  24  46  71 103 138 185 228 294 354 421
#
# _framework density 22.284555999999998
#
# number of rings (size 3 to 8) (size 9 to 14) (size 15 to 20)
#    0.000    0.286    5.714    3.000    0.000    0.000 
#    0.000    2.857    0.000    0.000    0.000    0.000 
#    0.000    0.000    0.000    0.000    0.000    0.000 
#
# Total GULP energy -156256.590487 kJ/mol
# GULP energy per Si atom -5580.592517 kJ/mol
# Density = 2.223383 g / cm^3
# Si number density = 22.284556 Si / 1000 Ang^3
#
#
#
# Elastic Constant Matrix: (Units=GPa)
#
#
# Indices 1 2 3 4 5 6 
#
# 1 173.6277 27.9511 33.8458 0.0000 0.0000 0.0000
# 2 27.9511 30.8407 11.3690 0.0000 0.0000 0.0000
# 3 33.8458 11.3690 87.7675 0.0000 0.0000 0.0000
# 4 0.0000 0.0000 0.0000 10.6408 0.0000 0.0000
# 5 0.0000 0.0000 0.0000 0.0000 38.9492 0.0000
# 6 0.0000 0.0000 0.0000 0.0000 0.0000 49.3418
#
#
#
# Elastic Compliance Matrix: (Units=1/GPa)
#
#
# Indices 1 2 3 4 5 6 
#
# 1 0.007059 -0.005665 -0.001988 0.000000 0.000000 0.000000
# 2 -0.005665 0.038596 -0.002815 0.000000 0.000000 0.000000
# 3 -0.001988 -0.002815 0.012525 0.000000 0.000000 0.000000
# 4 0.000000 0.000000 0.000000 0.093978 0.000000 0.000000
# 5 0.000000 0.000000 0.000000 0.000000 0.025674 0.000000
# 6 0.000000 0.000000 0.000000 0.000000 0.000000 0.020267
#
#
# Mechanical properties :
#
#
# Convention : Reuss Voigt Hill
#
# Bulk Modulus (GPa) = 26.84982 48.72976 37.78979
# Shear Modulus (GPa) = 21.60284 34.39100 27.99692
#
# Velocity S-wave (km/s) = 3.11691 3.93270 3.54833
# Velocity P-wave (km/s) = 5.00283 6.52197 5.81224
#
# Compressibility (1/GPa) = 0.03724420
#
# Stress axis : x y z
#
# Youngs Moduli (GPa) = 141.66408 25.90919 79.83917
#
# Poissons Ratio (x) = 0.14676 0.15875
# Poissons Ratio (y) = 0.80247 0.22476
# Poissons Ratio (z) = 0.28168 0.07294
#
# Static dielectric constant tensor:
#      x y z
#    x 1.816740 0.000000 0.000000 
#    y 0.000000 1.842520 0.000000 
#    z 0.000000 0.000000 1.896180 
# 
# From -- ./inp_files/46875.got.cif
#   From: 2010.05.17/outbox.cif.g08.bks.cpg/sg72_24_cif.got.tgz:46875.got - 2010.06.03 17:03:01.
