data_PCOD9529002
_publ_section_title
;
Structure prediction by ZEFSAII (Michael W. Deem and Ramdas Pophale) SiO2 
 PCOD9529002
Probable space group: I B A M
;
_chemical_formula_sum "Si O2"
_cell_formula_units_Z 64
_cell_length_a 13.720752
_cell_length_b 7.805820
_cell_length_c 23.849081
_cell_angle_alpha 90.000000
_cell_angle_beta 90.000000
_cell_angle_gamma 90.000000
_cell_volume 2554.277605
_symmetry_space_group_name_H-M "I B A M"
_symmetry_group_IT_number 72
_symmetry_cell_setting 'orthorhombic'
loop_
_space_group_symop_operation_xyz
x,y,z
-x,-y,z
x,-y,1/2-z
-x,y,1/2-z
-x,-y,-z
x,y,-z
-x,y,1/2+z
x,-y,1/2+z
1/2+x,1/2+y,1/2+z
1/2-x,1/2-y,1/2+z
1/2+x,1/2-y,-z
1/2-x,1/2+y,-z
1/2-x,1/2-y,1/2-z
1/2+x,1/2+y,1/2-z
1/2-x,1/2+y,z
1/2+x,1/2-y,z
loop_
_atom_site_type_symbol
_atom_site_label
_atom_site_fract_x
_atom_site_fract_y
_atom_site_fract_z
Si Si1 0.627260 0.351166 0.060980
Si Si2 0.348467 0.259106 0.088545
Si Si3 0.293268 0.380290 0.206031
Si Si4 0.405306 0.061824 0.640025
O O1 0.620997 0.557834 0.063347
O O2 0.739753 0.287477 0.067036
O O3 0.582384 0.251642 0.114008
O O4 0.589573 0.296941 0.000000
O O5 0.351409 0.304484 0.154777
O O6 0.398804 0.073551 0.088066
O O7 0.349259 0.500000 0.250000
O O8 0.250000 0.250000 0.250000
O O9 0.196070 0.450595 0.173862
O O10 0.500000 0.000000 0.673302
#
# Coordination Sequence:
#
# PCOD9529002 Si02
#       4
#    16  16  16  16
#     4  11  22  39  66  94 120 166 220 263 318 389
#     4  11  21  39  64  93 124 163 217 270 311 387
#     4  11  19  38  64  89 119 162 215 258 313 380
#     4  11  25  42  61  94 136 164 207 273 333 382
#
# _framework density 25.056009
#
# number of rings (size 3 to 8) (size 9 to 14) (size 15 to 20)
#    0.000    1.000    7.500    2.250    0.000    3.000 
#    0.000    1.250    0.000    0.000    0.000    0.000 
#    0.000    0.000    0.000    0.000    0.000    0.000 
#
# Total GULP energy -178349.497840 kJ/mol
# GULP energy per Si atom -5573.421808 kJ/mol
# Density = 2.499898 g / cm^3
# Si number density = 25.056009 Si / 1000 Ang^3
#
#
#
# Elastic Constant Matrix: (Units=GPa)
#
#
# Indices 1 2 3 4 5 6 
#
# 1 70.9127 9.8095 -12.1586 0.0000 0.0000 0.0000
# 2 9.8095 132.1063 35.2694 0.0000 0.0000 0.0000
# 3 -12.1586 35.2694 128.9121 0.0000 0.0000 0.0000
# 4 0.0000 0.0000 0.0000 38.6536 0.0000 0.0000
# 5 0.0000 0.0000 0.0000 0.0000 1.0967 0.0000
# 6 0.0000 0.0000 0.0000 0.0000 0.0000 33.0414
#
#
#
# Elastic Compliance Matrix: (Units=1/GPa)
#
#
# Indices 1 2 3 4 5 6 
#
# 1 0.014629 -0.001569 0.001809 0.000000 0.000000 0.000000
# 2 -0.001569 0.008334 -0.002428 0.000000 0.000000 0.000000
# 3 0.001809 -0.002428 0.008592 0.000000 0.000000 0.000000
# 4 0.000000 0.000000 0.000000 0.025871 0.000000 0.000000
# 5 0.000000 0.000000 0.000000 0.000000 0.911840 0.000000
# 6 0.000000 0.000000 0.000000 0.000000 0.000000 0.030265
#
#
# Mechanical properties :
#
#
# Convention : Reuss Voigt Hill
#
# Bulk Modulus (GPa) = 36.79318 44.19687 40.49503
# Shear Modulus (GPa) = 4.93599 34.49238 19.71419
#
# Velocity S-wave (km/s) = 1.40508 3.71430 2.80805
# Velocity P-wave (km/s) = 4.16516 6.00601 5.16821
#
# Compressibility (1/GPa) = 0.02717895
#
# Stress axis : x y z
#
# Youngs Moduli (GPa) = 68.35687 119.98355 116.38453
#
# Poissons Ratio (x) = 0.18829 -0.21055
# Poissons Ratio (y) = 0.10727 0.28261
# Poissons Ratio (z) = -0.12367 0.29135
#
# Static dielectric constant tensor:
#      x y z
#    x 2.103880 0.000000 0.000000 
#    y 0.000000 2.019540 0.000000 
#    z 0.000000 0.000000 1.865390 
# 
# From -- ./inp_files/41908.got.cif
#   From: 2010.05.17/outbox.cif.g08.bks.cpg/sg72_21_cif.got.tgz:41908.got - 2010.06.03 17:03:01.
