data_PCOD9529913
_publ_section_title
;
Structure prediction by ZEFSAII (Michael W. Deem and Ramdas Pophale) SiO2 
 PCOD9529913
Probable space group: I B C A 
;
_chemical_formula_sum "Si O2"
_cell_formula_units_Z 88
_cell_length_a 13.496262
_cell_length_b 13.989928
_cell_length_c 24.584067
_cell_angle_alpha 90.000000
_cell_angle_beta 90.000000
_cell_angle_gamma 90.000000
_cell_volume 4641.760310
_symmetry_space_group_name_H-M "I B C A "
_symmetry_group_IT_number 73
_symmetry_cell_setting 'orthorhombic'
loop_
_space_group_symop_operation_xyz
x,y,z
-x,1/2-y,z
x,-y,1/2-z
1/2-x,y,-z
-x,-y,-z
x,1/2+y,-z
-x,y,1/2+z
1/2+x,-y,z
1/2+x,1/2+y,1/2+z
1/2-x,-y,1/2+z
1/2+x,1/2-y,-z
-x,1/2+y,1/2-z
1/2-x,1/2-y,1/2-z
1/2+x,y,1/2-z
1/2-x,1/2+y,z
x,1/2-y,1/2+z
loop_
_atom_site_type_symbol
_atom_site_label
_atom_site_fract_x
_atom_site_fract_y
_atom_site_fract_z
Si Si1 0.970070 0.360784 0.373858
Si Si2 0.383275 0.495862 0.685564
Si Si3 0.808981 0.998565 0.882621
Si Si4 0.499701 0.134699 0.888328
Si Si5 0.031246 0.140133 0.992074
Si Si6 0.250000 0.561218 0.000000
O O1 0.038349 0.415015 0.331186
O O2 0.995263 0.399348 0.434566
O O3 0.000000 0.250000 0.371536
O O4 0.858514 0.399393 0.367283
O O5 0.376468 0.500000 0.750000
O O6 0.278718 0.474257 0.658060
O O7 0.424581 0.590235 0.654804
O O8 0.767262 0.997410 0.944381
O O9 0.893869 0.916867 0.877908
O O10 0.500000 0.250000 0.885186
O O11 0.519499 0.106897 0.951814
O O12 0.000000 0.250000 0.989535
O O13 0.149270 0.123313 0.994821
#
# Coordination Sequence:
#
# PCOD9529913 Si02
#       6
#    16  16  16  16  16   8
#     4  10  22  41  61  91 124 157 199 251 303 358
#     4  11  24  41  61  87 122 161 208 248 296 361
#     4  10  22  36  61  89 121 159 203 249 300 360
#     4   9  21  40  62  89 122 159 197 249 305 360
#     4   9  18  36  60  94 127 152 192 249 301 366
#     4  10  18  34  62  88 126 162 194 248 306 358
#
# _framework density 18.958324999999999
#
# number of rings (size 3 to 8) (size 9 to 14) (size 15 to 20)
#    0.000    2.182    1.818    0.000    2.545    7.273 
#    9.818    1.818    0.000    0.000    0.000    0.000 
#    0.000    0.000    0.000    0.000    0.000    0.000 
#
# Total GULP energy -245199.873650 kJ/mol
# GULP energy per Si atom -5572.724401 kJ/mol
# Density = 1.891517 g / cm^3
# Si number density = 18.958325 Si / 1000 Ang^3
#
#
#
# Elastic Constant Matrix: (Units=GPa)
#
#
# Indices 1 2 3 4 5 6 
#
# 1 73.7210 0.2408 33.2753 0.0000 0.0000 0.0000
# 2 0.2408 92.6662 1.7678 0.0000 0.0000 0.0000
# 3 33.2753 1.7678 131.8769 0.0000 0.0000 0.0000
# 4 0.0000 0.0000 0.0000 21.3605 0.0000 0.0000
# 5 0.0000 0.0000 0.0000 0.0000 25.8814 0.0000
# 6 0.0000 0.0000 0.0000 0.0000 0.0000 15.6058
#
#
#
# Elastic Compliance Matrix: (Units=1/GPa)
#
#
# Indices 1 2 3 4 5 6 
#
# 1 0.015308 0.000034 -0.003863 0.000000 0.000000 0.000000
# 2 0.000034 0.010794 -0.000153 0.000000 0.000000 0.000000
# 3 -0.003863 -0.000153 0.008560 0.000000 0.000000 0.000000
# 4 0.000000 0.000000 0.000000 0.046815 0.000000 0.000000
# 5 0.000000 0.000000 0.000000 0.000000 0.038638 0.000000
# 6 0.000000 0.000000 0.000000 0.000000 0.000000 0.064079
#
#
# Mechanical properties :
#
#
# Convention : Reuss Voigt Hill
#
# Bulk Modulus (GPa) = 37.45695 40.98132 39.21913
# Shear Modulus (GPa) = 24.86848 30.10157 27.48502
#
# Velocity S-wave (km/s) = 3.62573 3.98901 3.81170
# Velocity P-wave (km/s) = 6.10969 6.54826 6.33277
#
# Compressibility (1/GPa) = 0.02669732
#
# Stress axis : x y z
#
# Youngs Moduli (GPa) = 65.32451 92.64187 116.82783
#
# Poissons Ratio (x) = -0.00314 0.45131
# Poissons Ratio (y) = -0.00222 0.01790
# Poissons Ratio (z) = 0.25235 0.01420
#
# Static dielectric constant tensor:
#      x y z
#    x 1.685780 0.000000 0.000000 
#    y 0.000000 1.686450 0.000000 
#    z 0.000000 0.000000 1.658180 
# 
# From -- ./inp_files/16230.got.cif
#   From: 2010.05.17/outbox.cif.g08.bks.cpg/sg73_9_cif.got.tgz:16230.got - 2010.06.03 17:35:07.
