data_PCOD9529234
_publ_section_title
;
Structure prediction by ZEFSAII (Michael W. Deem and Ramdas Pophale) SiO2 
 PCOD9529234
Probable space group: I B A M
;
_chemical_formula_sum "Si O2"
_cell_formula_units_Z 112
_cell_length_a 25.826865
_cell_length_b 12.760555
_cell_length_c 16.112177
_cell_angle_alpha 90.000000
_cell_angle_beta 90.000000
_cell_angle_gamma 90.000000
_cell_volume 5310.011729
_symmetry_space_group_name_H-M "I B A M"
_symmetry_group_IT_number 72
_symmetry_cell_setting 'orthorhombic'
loop_
_space_group_symop_operation_xyz
x,y,z
-x,-y,z
x,-y,1/2-z
-x,y,1/2-z
-x,-y,-z
x,y,-z
-x,y,1/2+z
x,-y,1/2+z
1/2+x,1/2+y,1/2+z
1/2-x,1/2-y,1/2+z
1/2+x,1/2-y,-z
1/2-x,1/2+y,-z
1/2-x,1/2-y,1/2-z
1/2+x,1/2+y,1/2-z
1/2-x,1/2+y,z
1/2+x,1/2-y,z
loop_
_atom_site_type_symbol
_atom_site_label
_atom_site_fract_x
_atom_site_fract_y
_atom_site_fract_z
Si Si1 0.636816 0.520246 0.407759
Si Si2 0.177146 0.658495 0.745932
Si Si3 0.949149 0.180569 0.644308
Si Si4 0.400011 0.109344 0.404160
Si Si5 0.205808 0.106831 0.786683
Si Si6 0.108014 0.376395 0.594888
Si Si7 0.063976 0.162128 0.342610
O O1 0.644631 0.481812 0.500000
O O2 0.594602 0.612354 0.399475
O O3 0.690381 0.577883 0.380238
O O4 0.607785 0.422543 0.363432
O O5 0.145539 0.621700 0.664800
O O6 0.179998 0.784480 0.738973
O O7 0.235729 0.617648 0.754860
O O8 0.149867 0.626296 0.831297
O O9 0.941547 0.300785 0.616492
O O10 0.939330 0.175807 0.743291
O O11 0.005935 0.134091 0.628736
O O12 0.382302 0.124198 0.500000
O O13 0.419456 0.989532 0.397784
O O14 0.182747 0.000000 0.750000
O O15 0.128180 0.370034 0.500000
O O16 0.075367 0.273189 0.614390
#
# Coordination Sequence:
#
# PCOD9529234 Si02
#       7
#    16  16  16  16  16  16  16
#     4  12  24  40  64  95 136 175 223 282 334 405
#     4  11  23  43  67  93 132 175 219 279 343 405
#     4  11  23  41  66  93 132 176 230 277 342 412
#     4  11  23  41  67  95 130 177 228 280 343 412
#     4  11  23  40  66  94 126 172 221 274 339 403
#     4  11  23  40  63  92 130 172 221 279 335 403
#     4  11  24  41  65  97 131 180 223 280 344 409
#
# _framework density 21.092231999999999
#
# number of rings (size 3 to 8) (size 9 to 14) (size 15 to 20)
#    0.000    0.857    2.857    4.714    0.000    5.143 
#    0.000    5.714    0.000    0.000    0.000    0.000 
#    0.000    0.000    0.000    0.000    0.000    0.000 
#
# Total GULP energy -312282.790988 kJ/mol
# GULP energy per Si atom -5576.478411 kJ/mol
# Density = 2.104423 g / cm^3
# Si number density = 21.092232 Si / 1000 Ang^3
#
#
#
# Elastic Constant Matrix: (Units=GPa)
#
#
# Indices 1 2 3 4 5 6 
#
# 1 59.9584 11.4872 11.3895 0.0000 0.0000 0.0000
# 2 11.4872 154.8895 20.8920 0.0000 0.0000 0.0000
# 3 11.3895 20.8920 94.9883 0.0000 0.0000 0.0000
# 4 0.0000 0.0000 0.0000 26.5734 0.0000 0.0000
# 5 0.0000 0.0000 0.0000 0.0000 21.9804 0.0000
# 6 0.0000 0.0000 0.0000 0.0000 0.0000 4.2489
#
#
#
# Elastic Compliance Matrix: (Units=1/GPa)
#
#
# Indices 1 2 3 4 5 6 
#
# 1 0.017225 -0.001029 -0.001839 0.000000 0.000000 0.000000
# 2 -0.001029 0.006715 -0.001354 0.000000 0.000000 0.000000
# 3 -0.001839 -0.001354 0.011046 0.000000 0.000000 0.000000
# 4 0.000000 0.000000 0.000000 0.037632 0.000000 0.000000
# 5 0.000000 0.000000 0.000000 0.000000 0.045495 0.000000
# 6 0.000000 0.000000 0.000000 0.000000 0.000000 0.235355
#
#
# Mechanical properties :
#
#
# Convention : Reuss Voigt Hill
#
# Bulk Modulus (GPa) = 37.67611 44.15262 40.91436
# Shear Modulus (GPa) = 13.48587 28.29836 20.89212
#
# Velocity S-wave (km/s) = 2.53133 3.66683 3.15066
# Velocity P-wave (km/s) = 5.14246 6.23747 5.71624
#
# Compressibility (1/GPa) = 0.02654202
#
# Stress axis : x y z
#
# Youngs Moduli (GPa) = 58.05593 148.91744 90.53211
#
# Poissons Ratio (x) = 0.15330 0.16648
# Poissons Ratio (y) = 0.05976 0.12254
# Poissons Ratio (z) = 0.10676 0.20156
#
# Static dielectric constant tensor:
#      x y z
#    x 1.780190 0.000000 0.000000 
#    y 0.000000 1.767780 0.000000 
#    z 0.000000 0.000000 2.008620 
# 
# From -- ./inp_files/26415.got.cif
#   From: 2010.05.17/outbox.cif.g08.bks.cpg/sg72_14_cif.got.tgz:26415.got - 2010.06.03 17:03:01.
