data_PCOD9529590
_publ_section_title
;
Structure prediction by ZEFSAII (Michael W. Deem and Ramdas Pophale) SiO2 
 PCOD9529590
Probable space group: I B A M
;
_chemical_formula_sum "Si O2"
_cell_formula_units_Z 48
_cell_length_a 15.000000
_cell_length_b 15.000000
_cell_length_c 21.000000
_cell_angle_alpha 90.000000
_cell_angle_beta 90.000000
_cell_angle_gamma 90.000000
_cell_volume 4725.000000
_symmetry_space_group_name_H-M "I B A M"
_symmetry_group_IT_number 72
_symmetry_cell_setting 'orthorhombic'
loop_
_space_group_symop_operation_xyz
x,y,z
-x,-y,z
x,-y,1/2-z
-x,y,1/2-z
-x,-y,-z
x,y,-z
-x,y,1/2+z
x,-y,1/2+z
1/2+x,1/2+y,1/2+z
1/2-x,1/2-y,1/2+z
1/2+x,1/2-y,-z
1/2-x,1/2+y,-z
1/2-x,1/2-y,1/2-z
1/2+x,1/2+y,1/2-z
1/2-x,1/2+y,z
1/2+x,1/2-y,z
loop_
_atom_site_type_symbol
_atom_site_label
_atom_site_fract_x
_atom_site_fract_y
_atom_site_fract_z
Si Si1 0.835183 0.303670 0.379440
Si Si2 0.679946 0.818627 0.123174
Si Si3 0.899494 0.234573 0.751336
Si Si4 0.070559 0.077250 0.331866
Si Si5 0.265479 0.989530 0.171793
Si Si6 0.515786 0.265851 0.570236
O O1 0.749575 0.252040 0.406503
O O2 0.853649 0.250028 0.314538
O O3 0.820689 0.405003 0.356200
O O4 0.921621 0.282386 0.420430
O O5 0.654835 0.779601 0.192619
O O6 0.590617 0.808401 0.082721
O O7 0.709739 0.918683 0.136822
O O8 0.907778 0.130761 0.767225
O O9 0.000000 0.272243 0.750000
O O10 0.165059 0.034981 0.348314
O O11 0.034821 0.154890 0.379096
O O12 0.000000 0.000000 0.327519
O O13 0.274020 0.000000 0.250000
O O14 0.522707 0.304219 0.500000
#
# Coordination Sequence:
#
# PCOD9529590 Si02
#       6
#    16  16  16  16  16  16
#     4  12  22  43  64  99 139 176 218 271 338 409
#     4  11  23  42  64  98 137 169 218 272 339 404
#     4  11  20  38  63  95 139 173 203 264 334 413
#     4  11  24  39  65 103 135 168 220 274 341 403
#     4  12  24  35  68 106 137 172 209 266 348 426
#     4  11  26  48  68  86 128 185 234 285 328 380
#
# _framework density 10.15873
#
# number of rings (size 3 to 8) (size 9 to 14) (size 15 to 20)
#    0.000    0.667    8.333    2.500    2.333    1.667 
#    0.000    4.167    0.000    0.000    0.000    0.000 
#    0.000    0.000    0.000    0.000    0.000    0.000 
#
# Total GULP energy -267912.214163 kJ/mol
# GULP energy per Si atom -5581.504462 kJ/mol
# Density = 1.013561 g / cm^3
# Si number density = 10.158730 Si / 1000 Ang^3
#
#
#
# Elastic Constant Matrix: (Units=GPa)
#
#
# Indices 1 2 3 4 5 6 
#
# 1 118.1013 42.8297 3.4885 0.0000 0.0000 0.0000
# 2 42.8297 153.9041 9.8941 0.0000 0.0000 0.0000
# 3 3.4885 9.8941 34.3150 0.0000 0.0000 0.0000
# 4 0.0000 0.0000 0.0000 7.4536 0.0000 0.0000
# 5 0.0000 0.0000 0.0000 0.0000 -34.2751 0.0000
# 6 0.0000 0.0000 0.0000 0.0000 0.0000 37.3167
#
#
#
# Elastic Compliance Matrix: (Units=1/GPa)
#
#
# Indices 1 2 3 4 5 6 
#
# 1 0.009419 -0.002608 -0.000206 0.000000 0.000000 0.000000
# 2 -0.002608 0.007342 -0.001852 0.000000 0.000000 0.000000
# 3 -0.000206 -0.001852 0.029697 0.000000 0.000000 0.000000
# 4 0.000000 0.000000 0.000000 0.134163 0.000000 0.000000
# 5 0.000000 0.000000 0.000000 0.000000 -0.029176 0.000000
# 6 0.000000 0.000000 0.000000 0.000000 0.000000 0.026798
#
#
# Mechanical properties :
#
#
# Convention : Reuss Voigt Hill
#
# Bulk Modulus (GPa) = 26.93446 46.52721 36.73084
# Shear Modulus (GPa) = 25.00622 18.77293 21.88958
#
# Velocity S-wave (km/s) = 3.51205 3.04300 3.28590
# Velocity P-wave (km/s) = 5.45266 5.94107 5.70210
#
# Compressibility (1/GPa) = 0.03712715
#
# Stress axis : x y z
#
# Youngs Moduli (GPa) = 106.16627 136.19544 33.67389
#
# Poissons Ratio (x) = 0.35520 0.00692
# Poissons Ratio (y) = 0.27688 0.06236
# Poissons Ratio (z) = 0.02183 0.25222
#
# Static dielectric constant tensor:
#      x y z
#    x 1.897050 0.000000 0.000000 
#    y 0.000000 1.708690 0.000000 
#    z 0.000000 0.000000 1.738260 
# 
# From -- ./inp_files/38004.got.cif
#   From: 2010.05.17/outbox.ucp.g08.bks.cvg/sg72_20_cif.got.tgz:38004.got - 2010.06.11 16:33:07.
