data_PCOD9529894
_publ_section_title
;
Structure prediction by ZEFSAII (Michael W. Deem and Ramdas Pophale) SiO2 
 PCOD9529894
Probable space group: I B C A 
;
_chemical_formula_sum "Si O2"
_cell_formula_units_Z 96
_cell_length_a 21.265213
_cell_length_b 22.604083
_cell_length_c 10.272640
_cell_angle_alpha 90.000000
_cell_angle_beta 90.000000
_cell_angle_gamma 90.000000
_cell_volume 4937.859166
_symmetry_space_group_name_H-M "I B C A "
_symmetry_group_IT_number 73
_symmetry_cell_setting 'orthorhombic'
loop_
_space_group_symop_operation_xyz
x,y,z
-x,1/2-y,z
x,-y,1/2-z
1/2-x,y,-z
-x,-y,-z
x,1/2+y,-z
-x,y,1/2+z
1/2+x,-y,z
1/2+x,1/2+y,1/2+z
1/2-x,-y,1/2+z
1/2+x,1/2-y,-z
-x,1/2+y,1/2-z
1/2-x,1/2-y,1/2-z
1/2+x,y,1/2-z
1/2-x,1/2+y,z
x,1/2-y,1/2+z
loop_
_atom_site_type_symbol
_atom_site_label
_atom_site_fract_x
_atom_site_fract_y
_atom_site_fract_z
Si Si1 0.790685 0.257502 0.620107
Si Si2 0.865124 0.642681 0.001245
Si Si3 0.594077 0.791899 0.244507
Si Si4 0.959265 0.163745 0.220838
Si Si5 0.903970 0.520872 0.104275
Si Si6 0.052453 0.453303 0.366015
O O1 0.750000 0.236467 0.500000
O O2 0.750000 0.250000 0.750000
O O3 0.812561 0.325248 0.587990
O O4 0.854169 0.219553 0.634976
O O5 0.871910 0.681802 0.130265
O O6 0.862386 0.574904 0.048045
O O7 0.929170 0.650362 0.918942
O O8 0.534546 0.832479 0.210653
O O9 0.565995 0.726685 0.269849
O O10 0.936657 0.112105 0.314575
O O11 0.886312 0.500000 0.250000
O O12 0.977091 0.542035 0.111698
O O13 0.909301 0.470014 0.995118
O O14 0.067081 0.500000 0.250000
#
# Coordination Sequence:
#
# PCOD9529894 Si02
#       6
#    16  16  16  16  16  16
#     4  11  23  44  65  90 121 168 227 272 327 383
#     4  11  21  40  60  91 135 168 205 274 325 387
#     4  10  22  36  59  93 129 171 200 263 330 394
#     4  10  21  36  56  91 137 170 202 246 330 397
#     4  10  21  34  54  89 123 173 216 249 310 378
#     4  10  18  34  56  80 130 178 213 243 294 396
#
# _framework density 19.441623
#
# number of rings (size 3 to 8) (size 9 to 14) (size 15 to 20)
#    0.000    1.667    5.000    0.000    0.000    5.333 
#    6.000    0.000    0.000    0.000    8.667    0.000 
#    0.000    0.000    0.000    0.000    0.000    0.000 
#
# Total GULP energy -267816.041285 kJ/mol
# GULP energy per Si atom -5579.500860 kJ/mol
# Density = 1.939737 g / cm^3
# Si number density = 19.441623 Si / 1000 Ang^3
#
#
#
# Elastic Constant Matrix: (Units=GPa)
#
#
# Indices 1 2 3 4 5 6 
#
# 1 67.9494 31.3625 44.1631 0.0000 0.0000 0.0000
# 2 31.3625 105.7713 58.2452 0.0000 0.0000 0.0000
# 3 44.1631 58.2452 115.8813 0.0000 0.0000 0.0000
# 4 0.0000 0.0000 0.0000 36.7259 0.0000 0.0000
# 5 0.0000 0.0000 0.0000 0.0000 31.8175 0.0000
# 6 0.0000 0.0000 0.0000 0.0000 0.0000 14.6488
#
#
#
# Elastic Compliance Matrix: (Units=1/GPa)
#
#
# Indices 1 2 3 4 5 6 
#
# 1 0.019992 -0.002395 -0.006415 0.000000 0.000000 0.000000
# 2 -0.002395 0.013360 -0.005802 0.000000 0.000000 0.000000
# 3 -0.006415 -0.005802 0.013991 0.000000 0.000000 0.000000
# 4 0.000000 0.000000 0.000000 0.027229 0.000000 0.000000
# 5 0.000000 0.000000 0.000000 0.000000 0.031429 0.000000
# 6 0.000000 0.000000 0.000000 0.000000 0.000000 0.068265
#
#
# Mechanical properties :
#
#
# Convention : Reuss Voigt Hill
#
# Bulk Modulus (GPa) = 55.19597 61.90483 58.55040
# Shear Modulus (GPa) = 23.86306 27.02719 25.44512
#
# Velocity S-wave (km/s) = 3.50726 3.73255 3.62165
# Velocity P-wave (km/s) = 6.69727 7.10538 6.90434
#
# Compressibility (1/GPa) = 0.01811727
#
# Stress axis : x y z
#
# Youngs Moduli (GPa) = 50.02053 74.85243 71.47625
#
# Poissons Ratio (x) = 0.17929 0.45853
# Poissons Ratio (y) = 0.11981 0.41471
# Poissons Ratio (z) = 0.32089 0.43430
#
# Static dielectric constant tensor:
#      x y z
#    x 1.705590 0.000000 0.000000 
#    y 0.000000 1.697210 0.000000 
#    z 0.000000 0.000000 1.707230 
# 
# From -- ./inp_files/7180.got.cif
#   From: 2010.05.17/outbox.cif.g08.bks.cpg/sg73_4_cif.got.tgz:7180.got - 2010.06.03 17:35:07.
