data_PCOD9529567
_publ_section_title
;
Structure prediction by ZEFSAII (Michael W. Deem and Ramdas Pophale) SiO2 
 PCOD9529567
Probable space group: I B A M
;
_chemical_formula_sum "Si O2"
_cell_formula_units_Z 58
_cell_length_a 12.000000
_cell_length_b 27.000000
_cell_length_c 18.000000
_cell_angle_alpha 90.000000
_cell_angle_beta 90.000000
_cell_angle_gamma 90.000000
_cell_volume 5832.000000
_symmetry_space_group_name_H-M "I B A M"
_symmetry_group_IT_number 72
_symmetry_cell_setting 'orthorhombic'
loop_
_space_group_symop_operation_xyz
x,y,z
-x,-y,z
x,-y,1/2-z
-x,y,1/2-z
-x,-y,-z
x,y,-z
-x,y,1/2+z
x,-y,1/2+z
1/2+x,1/2+y,1/2+z
1/2-x,1/2-y,1/2+z
1/2+x,1/2-y,-z
1/2-x,1/2+y,-z
1/2-x,1/2-y,1/2-z
1/2+x,1/2+y,1/2-z
1/2-x,1/2+y,z
1/2+x,1/2-y,z
loop_
_atom_site_type_symbol
_atom_site_label
_atom_site_fract_x
_atom_site_fract_y
_atom_site_fract_z
Si Si1 0.000000 0.000000 0.750000
Si Si2 0.434171 0.051131 0.181705
Si Si3 0.529556 0.869752 0.587442
Si Si4 0.304067 0.434977 0.745864
Si Si5 0.278535 0.596202 0.410340
Si Si6 0.839283 0.178242 0.300889
Si Si7 0.411213 0.309910 0.859803
Si Si8 0.354542 0.792786 0.414261
O O1 0.088358 0.037083 0.786773
O O2 0.500000 0.077128 0.250000
O O3 0.451083 0.084788 0.110726
O O4 0.308787 0.045594 0.208476
O O5 0.500000 0.000000 0.170254
O O6 0.535918 0.864230 0.500000
O O7 0.655413 0.882484 0.609317
O O8 0.464455 0.821694 0.615204
O O9 0.302035 0.438523 0.837008
O O10 0.314858 0.378372 0.721686
O O11 0.279215 0.580852 0.500000
O O12 0.364787 0.640626 0.397800
O O13 0.849511 0.202132 0.218897
O O14 0.746211 0.196134 0.358318
O O15 0.959743 0.183440 0.339158
O O16 0.385262 0.264393 0.912356
O O17 0.329393 0.807808 0.500000
#
# Coordination Sequence:
#
# PCOD9529567 Si02
#       8
#     4  16  16  16  16  16  16  16
#     4  12  24  40  68  92 116 152 208 264 300 368
#     4  11  21  38  63  92 114 153 205 252 312 368
#     4  10  22  39  59  89 125 157 197 250 311 364
#     4  11  22  41  66  90 123 159 205 254 307 369
#     4  10  21  39  62  89 125 163 197 246 305 365
#     4  10  22  43  61  88 124 166 206 252 303 356
#     4  10  22  39  61  91 123 162 213 249 293 355
#     4  11  23  38  60  90 125 165 205 251 303 355
#
# _framework density 9.9451300000000007
#
# number of rings (size 3 to 8) (size 9 to 14) (size 15 to 20)
#    0.000    1.517    2.759    3.310    1.931    1.379 
#    4.966    0.345    0.000    1.241    0.000    0.000 
#    0.000    0.000    0.000    0.000    0.000    0.000 
#
# Total GULP energy -323050.216150 kJ/mol
# GULP energy per Si atom -5569.831313 kJ/mol
# Density = 0.992249 g / cm^3
# Si number density = 9.945130 Si / 1000 Ang^3
#
#
#
# Elastic Constant Matrix: (Units=GPa)
#
#
# Indices 1 2 3 4 5 6 
#
# 1 108.9192 26.3788 31.0497 0.0000 0.0000 0.0000
# 2 26.3788 67.9760 8.2890 0.0000 0.0000 0.0000
# 3 31.0497 8.2890 50.1736 0.0001 0.0000 -0.0001
# 4 0.0000 0.0000 0.0001 29.9562 0.0000 0.0000
# 5 0.0000 0.0000 0.0000 0.0000 51.7234 0.0000
# 6 0.0000 0.0000 -0.0001 0.0000 0.0000 18.7853
#
#
#
# Elastic Compliance Matrix: (Units=1/GPa)
#
#
# Indices 1 2 3 4 5 6 
#
# 1 0.012059 -0.003847 -0.006827 0.000000 0.000000 0.000000
# 2 -0.003847 0.016241 -0.000302 0.000000 0.000000 0.000000
# 3 -0.006827 -0.000302 0.024206 0.000000 0.000000 0.000000
# 4 0.000000 0.000000 0.000000 0.033382 0.000000 0.000000
# 5 0.000000 0.000000 0.000000 0.000000 0.019334 0.000000
# 6 0.000000 0.000000 0.000000 0.000000 0.000000 0.053233
#
#
# Mechanical properties :
#
#
# Convention : Reuss Voigt Hill
#
# Bulk Modulus (GPa) = 32.73058 39.83376 36.28217
# Shear Modulus (GPa) = 26.23406 30.84972 28.54189
#
# Velocity S-wave (km/s) = 3.63566 3.94254 3.79221
# Velocity P-wave (km/s) = 5.84083 6.38710 6.12007
#
# Compressibility (1/GPa) = 0.03055247
#
# Stress axis : x y z
#
# Youngs Moduli (GPa) = 82.92512 61.57305 41.31257
#
# Poissons Ratio (x) = 0.23688 0.28205
# Poissons Ratio (y) = 0.31903 0.01249
# Poissons Ratio (z) = 0.56614 0.01861
#
# Static dielectric constant tensor:
#      x y z
#    x 1.704900 0.000000 0.000000 
#    y 0.000000 1.752650 0.000000 
#    z 0.000000 0.000000 1.696870 
# 
# From -- ./inp_files/29715.got.cif
#   From: 2010.05.17/outbox.ucp.g08.bks.cvg/sg72_15_cif.got.tgz:29715.got - 2010.06.11 16:33:07.
