data_PCOD9529308
_publ_section_title
;
Structure prediction by ZEFSAII (Michael W. Deem and Ramdas Pophale) SiO2 
 PCOD9529308
Probable space group: I B A M
;
_chemical_formula_sum "Si O2"
_cell_formula_units_Z 64
_cell_length_a 8.068776
_cell_length_b 10.933213
_cell_length_c 32.118532
_cell_angle_alpha 90.000000
_cell_angle_beta 90.000000
_cell_angle_gamma 90.000000
_cell_volume 2833.421307
_symmetry_space_group_name_H-M "I B A M"
_symmetry_group_IT_number 72
_symmetry_cell_setting 'orthorhombic'
loop_
_space_group_symop_operation_xyz
x,y,z
-x,-y,z
x,-y,1/2-z
-x,y,1/2-z
-x,-y,-z
x,y,-z
-x,y,1/2+z
x,-y,1/2+z
1/2+x,1/2+y,1/2+z
1/2-x,1/2-y,1/2+z
1/2+x,1/2-y,-z
1/2-x,1/2+y,-z
1/2-x,1/2-y,1/2-z
1/2+x,1/2+y,1/2-z
1/2-x,1/2+y,z
1/2+x,1/2-y,z
loop_
_atom_site_type_symbol
_atom_site_label
_atom_site_fract_x
_atom_site_fract_y
_atom_site_fract_z
Si Si1 0.351316 0.877412 0.952353
Si Si2 0.625116 0.184373 0.282198
Si Si3 0.288657 0.134355 0.922162
Si Si4 0.096603 0.875346 0.337215
O O1 0.511055 0.868738 0.922041
O O2 0.253518 0.751352 0.949860
O O3 0.248464 0.998326 0.939291
O O4 0.407674 0.891769 0.000000
O O5 0.500000 0.126690 0.250000
O O6 0.750000 0.250000 0.250000
O O7 0.745326 0.098575 0.307936
O O8 0.524009 0.276158 0.313904
O O9 0.186476 0.160026 0.880158
O O10 0.000000 0.000000 0.343777
#
# Coordination Sequence:
#
# PCOD9529308 Si02
#       4
#    16  16  16  16
#     4  11  24  46  70 101 142 186 237 294 350 421
#     4   9  21  44  70  97 133 174 226 280 348 423
#     4  11  25  42  71 102 141 184 238 290 356 418
#     4  11  24  43  69 100 141 179 229 293 352 418
#
# _framework density 22.587534000000002
#
# number of rings (size 3 to 8) (size 9 to 14) (size 15 to 20)
#    0.000    1.500    0.000    4.500    7.000    4.500 
#    4.500    6.250    0.000    0.000    0.000    0.000 
#    0.000    0.000    0.000    0.000    0.000    0.000 
#
# Total GULP energy -178368.723501 kJ/mol
# GULP energy per Si atom -5574.022609 kJ/mol
# Density = 2.253612 g / cm^3
# Si number density = 22.587534 Si / 1000 Ang^3
#
#
#
# Elastic Constant Matrix: (Units=GPa)
#
#
# Indices 1 2 3 4 5 6 
#
# 1 78.6569 50.2604 19.7646 0.0000 0.0000 0.0000
# 2 50.2604 130.4487 44.6385 0.0000 0.0000 0.0000
# 3 19.7646 44.6385 88.2012 0.0000 0.0000 0.0000
# 4 0.0000 0.0000 0.0000 7.6130 0.0000 0.0000
# 5 0.0000 0.0000 0.0000 0.0000 27.9038 0.0000
# 6 0.0000 0.0000 0.0000 0.0000 0.0000 37.4697
#
#
#
# Elastic Compliance Matrix: (Units=1/GPa)
#
#
# Indices 1 2 3 4 5 6 
#
# 1 0.016891 -0.006305 -0.000594 0.000000 0.000000 0.000000
# 2 -0.006305 0.011625 -0.004470 0.000000 0.000000 0.000000
# 3 -0.000594 -0.004470 0.013733 0.000000 0.000000 0.000000
# 4 0.000000 0.000000 0.000000 0.131355 0.000000 0.000000
# 5 0.000000 0.000000 0.000000 0.000000 0.035837 0.000000
# 6 0.000000 0.000000 0.000000 0.000000 0.000000 0.026688
#
#
# Mechanical properties :
#
#
# Convention : Reuss Voigt Hill
#
# Bulk Modulus (GPa) = 51.25435 58.51486 54.88461
# Shear Modulus (GPa) = 18.84143 26.77350 22.80746
#
# Velocity S-wave (km/s) = 2.89130 3.44659 3.18108
# Velocity P-wave (km/s) = 5.82124 6.46534 6.15173
#
# Compressibility (1/GPa) = 0.01951054
#
# Stress axis : x y z
#
# Youngs Moduli (GPa) = 59.20187 86.02359 72.81528
#
# Poissons Ratio (x) = 0.54235 0.04328
# Poissons Ratio (y) = 0.37325 0.32552
# Poissons Ratio (z) = 0.03519 0.38457
#
# Static dielectric constant tensor:
#      x y z
#    x 2.171780 0.000000 0.000000 
#    y 0.000000 1.826240 0.000000 
#    z 0.000000 0.000000 1.780950 
# 
# From -- ./inp_files/50582.got.cif
#   From: 2010.05.17/outbox.cif.g08.bks.cpg/sg72_26_cif.got.tgz:50582.got - 2010.06.03 17:03:01.
