data_PCOD9529265
_publ_section_title
;
Structure prediction by ZEFSAII (Michael W. Deem and Ramdas Pophale) SiO2 
 PCOD9529265
Probable space group: I B A M
;
_chemical_formula_sum "Si O2"
_cell_formula_units_Z 92
_cell_length_a 8.811610
_cell_length_b 19.110027
_cell_length_c 24.631364
_cell_angle_alpha 90.000000
_cell_angle_beta 90.000000
_cell_angle_gamma 90.000000
_cell_volume 4147.677971
_symmetry_space_group_name_H-M "I B A M"
_symmetry_group_IT_number 72
_symmetry_cell_setting 'orthorhombic'
loop_
_space_group_symop_operation_xyz
x,y,z
-x,-y,z
x,-y,1/2-z
-x,y,1/2-z
-x,-y,-z
x,y,-z
-x,y,1/2+z
x,-y,1/2+z
1/2+x,1/2+y,1/2+z
1/2-x,1/2-y,1/2+z
1/2+x,1/2-y,-z
1/2-x,1/2+y,-z
1/2-x,1/2-y,1/2-z
1/2+x,1/2+y,1/2-z
1/2-x,1/2+y,z
1/2+x,1/2-y,z
loop_
_atom_site_type_symbol
_atom_site_label
_atom_site_fract_x
_atom_site_fract_y
_atom_site_fract_z
Si Si1 0.450656 0.118232 0.000000
Si Si2 0.337511 0.474806 0.882705
Si Si3 0.538273 0.204707 0.387490
Si Si4 0.000000 0.847473 0.750000
Si Si5 0.256176 0.982240 0.000000
Si Si6 0.500000 0.000000 0.250000
Si Si7 0.704908 0.321120 0.653734
Si Si8 0.777369 0.404379 0.179890
O O1 0.458695 0.165372 0.054607
O O2 0.595748 0.067023 0.000000
O O3 0.309675 0.063574 0.000000
O O4 0.500000 0.500000 0.863703
O O5 0.289592 0.404771 0.852496
O O6 0.233975 0.540632 0.869378
O O7 0.335000 0.463436 0.946384
O O8 0.598687 0.283829 0.390954
O O9 0.374397 0.203657 0.358782
O O10 0.652383 0.164926 0.346286
O O11 0.882900 0.807143 0.710296
O O12 0.881231 0.889009 0.789058
O O13 0.609228 0.053736 0.281334
#
# Coordination Sequence:
#
# PCOD9529265 Si02
#       8
#     8  16  16   8   8   4  16  16
#     4  11  24  45  79 103 148 193 236 303 371 447
#     4  12  24  44  75 110 141 184 245 306 362 437
#     4  12  27  49  73 110 149 197 246 302 374 445
#     4  12  26  50  74 103 146 203 244 312 368 430
#     4  11  23  43  75 111 138 191 237 302 378 432
#     4  12  28  36  68 108 144 190 238 316 360 426
#     4  12  28  46  74 107 149 195 247 307 362 445
#     4  12  25  45  73 105 146 191 249 304 369 435
#
# _framework density 22.181087000000002
#
# number of rings (size 3 to 8) (size 9 to 14) (size 15 to 20)
#    0.000    0.174    5.217    4.435    0.000    5.565 
#    0.000    0.000    0.000    0.000    0.000    0.000 
#    0.000    0.000    0.000    0.000    0.000    0.000 
#
# Total GULP energy -256985.242657 kJ/mol
# GULP energy per Si atom -5586.635710 kJ/mol
# Density = 2.213060 g / cm^3
# Si number density = 22.181087 Si / 1000 Ang^3
#
#
#
# Elastic Constant Matrix: (Units=GPa)
#
#
# Indices 1 2 3 4 5 6 
#
# 1 104.7862 21.1175 28.8597 0.0000 0.0000 0.0000
# 2 21.1175 72.5900 20.4354 0.0000 0.0000 0.0000
# 3 28.8597 20.4354 115.0946 0.0000 0.0000 0.0000
# 4 0.0000 0.0000 0.0000 44.1801 0.0000 0.0000
# 5 0.0000 0.0000 0.0000 0.0000 32.0573 0.0000
# 6 0.0000 0.0000 0.0000 0.0000 0.0000 33.9808
#
#
#
# Elastic Compliance Matrix: (Units=1/GPa)
#
#
# Indices 1 2 3 4 5 6 
#
# 1 0.010656 -0.002471 -0.002233 0.000000 0.000000 0.000000
# 2 -0.002471 0.015074 -0.002057 0.000000 0.000000 0.000000
# 3 -0.002233 -0.002057 0.009614 0.000000 0.000000 0.000000
# 4 0.000000 0.000000 0.000000 0.022635 0.000000 0.000000
# 5 0.000000 0.000000 0.000000 0.000000 0.031194 0.000000
# 6 0.000000 0.000000 0.000000 0.000000 0.000000 0.029428
#
#
# Mechanical properties :
#
#
# Convention : Reuss Voigt Hill
#
# Bulk Modulus (GPa) = 45.82689 48.14399 46.98544
# Shear Modulus (GPa) = 35.86862 36.84754 36.35808
#
# Velocity S-wave (km/s) = 4.02566 4.08022 4.05303
# Velocity P-wave (km/s) = 6.50485 6.62946 6.56745
#
# Compressibility (1/GPa) = 0.02182125
#
# Stress axis : x y z
#
# Youngs Moduli (GPa) = 93.84056 66.33953 104.01857
#
# Poissons Ratio (x) = 0.16395 0.23230
# Poissons Ratio (y) = 0.23192 0.21394
# Poissons Ratio (z) = 0.20957 0.13644
#
# Static dielectric constant tensor:
#      x y z
#    x -0.606240 0.000000 0.000000 
#    y 0.000000 1.801590 0.000000 
#    z 0.000000 0.000000 1.819620 
# 
# From -- ./inp_files/42333.got.cif
#   From: 2010.05.17/outbox.cif.g08.bks.cpg/sg72_22_cif.got.tgz:42333.got - 2010.06.03 17:03:01.
