data_PCOD9529191
_publ_section_title
;
Structure prediction by ZEFSAII (Michael W. Deem and Ramdas Pophale) SiO2 
 PCOD9529191
Probable space group: I B A M
;
_chemical_formula_sum "Si O2"
_cell_formula_units_Z 64
_cell_length_a 8.022204
_cell_length_b 19.610021
_cell_length_c 15.649424
_cell_angle_alpha 90.000000
_cell_angle_beta 90.000000
_cell_angle_gamma 90.000000
_cell_volume 2461.898353
_symmetry_space_group_name_H-M "I B A M"
_symmetry_group_IT_number 72
_symmetry_cell_setting 'orthorhombic'
loop_
_space_group_symop_operation_xyz
x,y,z
-x,-y,z
x,-y,1/2-z
-x,y,1/2-z
-x,-y,-z
x,y,-z
-x,y,1/2+z
x,-y,1/2+z
1/2+x,1/2+y,1/2+z
1/2-x,1/2-y,1/2+z
1/2+x,1/2-y,-z
1/2-x,1/2+y,-z
1/2-x,1/2-y,1/2-z
1/2+x,1/2+y,1/2-z
1/2-x,1/2+y,z
1/2+x,1/2-y,z
loop_
_atom_site_type_symbol
_atom_site_label
_atom_site_fract_x
_atom_site_fract_y
_atom_site_fract_z
Si Si1 0.318792 0.336927 0.096253
Si Si2 0.624479 0.286469 0.168563
Si Si3 0.134954 0.603887 0.902763
Si Si4 0.288323 0.032731 0.656587
O O1 0.497149 0.301560 0.092808
O O2 0.200800 0.287539 0.151548
O O3 0.346057 0.409001 0.142785
O O4 0.256348 0.347024 0.000000
O O5 0.500000 0.289766 0.250000
O O6 0.773476 0.341450 0.157819
O O7 0.235331 0.532591 0.902808
O O8 0.957100 0.575203 0.867790
O O9 0.123006 0.629848 0.000000
O O10 0.296214 0.000000 0.750000
#
# Coordination Sequence:
#
# PCOD9529191 Si02
#       4
#    16  16  16  16
#     4  12  25  46  72 104 143 190 238 292 352 420
#     4  12  27  45  71 108 145 187 236 292 353 419
#     4  11  22  42  68 100 138 185 234 286 346 416
#     4  11  24  43  70 102 139 184 234 290 350 417
#
# _framework density 25.996200000000002
#
# number of rings (size 3 to 8) (size 9 to 14) (size 15 to 20)
#    0.000    0.500    0.000   10.500    0.000    5.000 
#    0.000    6.250    0.000    0.000    0.000    0.000 
#    0.000    0.000    0.000    0.000    0.000    0.000 
#
# Total GULP energy -179080.215709 kJ/mol
# GULP energy per Si atom -5596.256741 kJ/mol
# Density = 2.593703 g / cm^3
# Si number density = 25.996200 Si / 1000 Ang^3
#
#
#
# Elastic Constant Matrix: (Units=GPa)
#
#
# Indices 1 2 3 4 5 6 
#
# 1 63.8442 22.4647 36.8468 0.0000 0.0000 0.0000
# 2 22.4647 162.7891 42.6834 0.0000 0.0000 0.0000
# 3 36.8468 42.6834 191.7902 0.0000 0.0000 0.0000
# 4 0.0000 0.0000 0.0000 33.0378 0.0000 0.0000
# 5 0.0000 0.0000 0.0000 0.0000 33.7129 0.0000
# 6 0.0000 0.0000 0.0000 0.0000 0.0000 43.0140
#
#
#
# Elastic Compliance Matrix: (Units=1/GPa)
#
#
# Indices 1 2 3 4 5 6 
#
# 1 0.018038 -0.001679 -0.003092 0.000000 0.000000 0.000000
# 2 -0.001679 0.006680 -0.001164 0.000000 0.000000 0.000000
# 3 -0.003092 -0.001164 0.006067 0.000000 0.000000 0.000000
# 4 0.000000 0.000000 0.000000 0.030268 0.000000 0.000000
# 5 0.000000 0.000000 0.000000 0.000000 0.029662 0.000000
# 6 0.000000 0.000000 0.000000 0.000000 0.000000 0.023248
#
#
# Mechanical properties :
#
#
# Convention : Reuss Voigt Hill
#
# Bulk Modulus (GPa) = 52.86549 69.15704 61.01126
# Shear Modulus (GPa) = 37.83907 43.04818 40.44362
#
# Velocity S-wave (km/s) = 3.81932 4.07374 3.94858
# Velocity P-wave (km/s) = 6.31107 6.98482 6.65647
#
# Compressibility (1/GPa) = 0.01891593
#
# Stress axis : x y z
#
# Youngs Moduli (GPa) = 55.43778 149.70540 164.82235
#
# Poissons Ratio (x) = 0.25129 0.50962
# Poissons Ratio (y) = 0.09305 0.19187
# Poissons Ratio (z) = 0.17141 0.17428
#
# Static dielectric constant tensor:
#      x y z
#    x 2.139790 0.000000 0.000000 
#    y 0.000000 2.030480 0.000000 
#    z 0.000000 0.000000 2.126160 
# 
# From -- ./inp_files/19682.got.cif
#   From: 2010.05.17/outbox.cif.g08.bks.cpg/sg72_10_cif.got.tgz:19682.got - 2010.06.03 17:03:01.
