data_PCOD9529395
_publ_section_title
;
Structure prediction by ZEFSAII (Michael W. Deem and Ramdas Pophale) SiO2 
 PCOD9529395
Probable space group: I B A M
;
_chemical_formula_sum "Si O2"
_cell_formula_units_Z 88
_cell_length_a 15.534891
_cell_length_b 18.636927
_cell_length_c 14.062487
_cell_angle_alpha 90.000000
_cell_angle_beta 90.000000
_cell_angle_gamma 90.000000
_cell_volume 4071.408214
_symmetry_space_group_name_H-M "I B A M"
_symmetry_group_IT_number 72
_symmetry_cell_setting 'orthorhombic'
loop_
_space_group_symop_operation_xyz
x,y,z
-x,-y,z
x,-y,1/2-z
-x,y,1/2-z
-x,-y,-z
x,y,-z
-x,y,1/2+z
x,-y,1/2+z
1/2+x,1/2+y,1/2+z
1/2-x,1/2-y,1/2+z
1/2+x,1/2-y,-z
1/2-x,1/2+y,-z
1/2-x,1/2-y,1/2-z
1/2+x,1/2+y,1/2-z
1/2-x,1/2+y,z
1/2+x,1/2-y,z
loop_
_atom_site_type_symbol
_atom_site_label
_atom_site_fract_x
_atom_site_fract_y
_atom_site_fract_z
Si Si1 0.992468 0.916848 0.884473
Si Si2 0.139102 0.642697 0.614683
Si Si3 0.828169 0.136160 0.891314
Si Si4 0.161560 0.811882 0.385327
Si Si5 0.648037 0.193233 0.609902
Si Si6 0.500000 0.139208 0.250000
O O1 0.911316 0.868210 0.856263
O O2 0.082660 0.886859 0.847278
O O3 0.990983 0.911841 0.000000
O O4 0.000000 0.000000 0.860331
O O5 0.129199 0.636989 0.500000
O O6 0.233857 0.616039 0.643484
O O7 0.137286 0.729056 0.638674
O O8 0.065628 0.603826 0.675019
O O9 0.834092 0.221935 0.893811
O O10 0.829424 0.109044 0.000000
O O11 0.166556 0.811586 0.500000
O O12 0.258183 0.833776 0.354355
O O13 0.631367 0.169767 0.500000
O O14 0.567265 0.178156 0.677558
#
# Coordination Sequence:
#
# PCOD9529395 Si02
#       6
#    16  16  16  16  16   8
#     4   9  15  24  45  76 101 125 160 197 239 292
#     4   9  18  31  46  68  99 131 162 196 238 288
#     4   8  15  29  45  64  98 134 159 194 240 287
#     4   8  15  29  45  64  98 134 159 194 240 287
#     4   9  18  31  46  68  99 131 162 196 238 288
#     4  12  20  26  46  74  92 120 160 204 254 278
#
# _framework density 21.614142999999999
#
# number of rings (size 3 to 8) (size 9 to 14) (size 15 to 20)
#    0.000    3.091    0.000    3.818    0.000    5.818 
#    0.000    0.000    0.000    0.000    0.000   25.455 
#    0.000    8.727    0.000    0.000    0.000    0.364 
#
# Total GULP energy -245016.426898 kJ/mol
# GULP energy per Si atom -5568.555157 kJ/mol
# Density = 2.156495 g / cm^3
# Si number density = 21.614143 Si / 1000 Ang^3
#
#
#
# Elastic Constant Matrix: (Units=GPa)
#
#
# Indices 1 2 3 4 5 6 
#
# 1 216.4115 38.5347 40.3801 0.0000 0.0000 0.0000
# 2 38.5347 28.0277 -3.2641 0.0000 0.0000 0.0000
# 3 40.3801 -3.2641 121.5274 0.0000 0.0000 0.0000
# 4 0.0000 0.0000 0.0000 -15.7219 0.0000 0.0000
# 5 0.0000 0.0000 0.0000 0.0000 -25.6832 0.0000
# 6 0.0000 0.0000 0.0000 0.0000 0.0000 -3.5546
#
#
#
# Elastic Compliance Matrix: (Units=1/GPa)
#
#
# Indices 1 2 3 4 5 6 
#
# 1 0.006811 -0.009659 -0.002523 0.000000 0.000000 0.000000
# 2 -0.009659 0.049487 0.004538 0.000000 0.000000 0.000000
# 3 -0.002523 0.004538 0.009189 0.000000 0.000000 0.000000
# 4 0.000000 0.000000 0.000000 -0.063606 0.000000 0.000000
# 5 0.000000 0.000000 0.000000 0.000000 -0.038936 0.000000
# 6 0.000000 0.000000 0.000000 0.000000 0.000000 -0.281329
#
#
# Mechanical properties :
#
#
# Convention : Reuss Voigt Hill
#
# Bulk Modulus (GPa) = 19.91978 57.47425 38.69701
# Shear Modulus (GPa) = -17.46029 10.36247 -3.54891
#
# Velocity S-wave (km/s) = -2.84530 2.19197 -1.28277
# Velocity P-wave (km/s) = 1.24828 5.74935 3.96843
#
# Compressibility (1/GPa) = 0.05020136
#
# Stress axis : x y z
#
# Youngs Moduli (GPa) = 146.81372 20.20739 108.82937
#
# Poissons Ratio (x) = 0.19517 0.27454
# Poissons Ratio (y) = 1.41801 -0.49392
# Poissons Ratio (z) = 0.37036 -0.09171
#
# Static dielectric constant tensor:
#      x y z
#    x 1.854610 0.000000 0.000000 
#    y 0.000000 3.512500 0.000000 
#    z 0.000000 0.000000 1.871920 
# 
# From -- ./inp_files/21678.got.cif
#   From: 2010.05.17/outbox.cif.g08.bks.cpg/sg72_11_cif.got.tgz:21678.got - 2010.06.03 17:03:01.
