data_PCOD9529317
_publ_section_title
;
Structure prediction by ZEFSAII (Michael W. Deem and Ramdas Pophale) SiO2 
 PCOD9529317
Probable space group: I B A M
;
_chemical_formula_sum "Si O2"
_cell_formula_units_Z 56
_cell_length_a 17.901896
_cell_length_b 5.425894
_cell_length_c 26.492937
_cell_angle_alpha 90.000000
_cell_angle_beta 90.000000
_cell_angle_gamma 90.000000
_cell_volume 2573.359382
_symmetry_space_group_name_H-M "I B A M"
_symmetry_group_IT_number 72
_symmetry_cell_setting 'orthorhombic'
loop_
_space_group_symop_operation_xyz
x,y,z
-x,-y,z
x,-y,1/2-z
-x,y,1/2-z
-x,-y,-z
x,y,-z
-x,y,1/2+z
x,-y,1/2+z
1/2+x,1/2+y,1/2+z
1/2-x,1/2-y,1/2+z
1/2+x,1/2-y,-z
1/2-x,1/2+y,-z
1/2-x,1/2-y,1/2-z
1/2+x,1/2+y,1/2-z
1/2-x,1/2+y,z
1/2+x,1/2-y,z
loop_
_atom_site_type_symbol
_atom_site_label
_atom_site_fract_x
_atom_site_fract_y
_atom_site_fract_z
Si Si1 0.080786 0.099545 0.693555
Si Si2 0.702499 0.513973 0.888936
Si Si3 0.569495 0.684723 0.445204
Si Si4 0.000000 0.500000 0.143042
O O1 0.061810 0.382586 0.681056
O O2 0.088149 0.000000 0.750000
O O3 0.151028 0.017328 0.661181
O O4 0.000000 0.000000 0.674446
O O5 0.744460 0.774973 0.890555
O O6 0.643055 0.473726 0.933657
O O7 0.500000 0.500000 0.446810
O O8 0.575866 0.810644 0.500000
O O9 0.552540 0.859888 0.397944
#
# Coordination Sequence:
#
# PCOD9529317 Si02
#       4
#    16  16  16   8
#     4  11  25  45  72 107 136 193 254 310 365 444
#     4  12  26  47  71 104 156 197 238 305 378 450
#     4  11  24  44  74 107 138 191 253 306 363 439
#     4  12  19  47  76 104 146 182 248 322 374 420
#
# _framework density 21.761437000000001
#
# number of rings (size 3 to 8) (size 9 to 14) (size 15 to 20)
#    0.000    0.571    5.714    2.143    0.000    4.571 
#    0.000    0.000    0.000    0.000    0.000    0.000 
#    0.000    0.000    0.000    0.000    0.000    0.000 
#
# Total GULP energy -156110.530922 kJ/mol
# GULP energy per Si atom -5575.376104 kJ/mol
# Density = 2.171191 g / cm^3
# Si number density = 21.761437 Si / 1000 Ang^3
#
#
#
# Elastic Constant Matrix: (Units=GPa)
#
#
# Indices 1 2 3 4 5 6 
#
# 1 123.0823 40.6869 28.6755 0.0000 0.0000 0.0000
# 2 40.6869 80.8207 40.3038 0.0000 0.0000 0.0000
# 3 28.6755 40.3038 162.6246 0.0000 0.0000 0.0000
# 4 0.0000 0.0000 0.0000 30.7541 0.0000 0.0000
# 5 0.0000 0.0000 0.0000 0.0000-1311.7100 0.0000
# 6 0.0000 0.0000 0.0000 0.0000 0.0000 53.4241
#
#
#
# Elastic Compliance Matrix: (Units=1/GPa)
#
#
# Indices 1 2 3 4 5 6 
#
# 1 0.009794 -0.004643 -0.000576 0.000000 0.000000 0.000000
# 2 -0.004643 0.016319 -0.003226 0.000000 0.000000 0.000000
# 3 -0.000576 -0.003226 0.007050 0.000000 0.000000 0.000000
# 4 0.000000 0.000000 0.000000 0.032516 0.000000 0.000000
# 5 0.000000 0.000000 0.000000 0.000000 -0.000762 0.000000
# 6 0.000000 0.000000 0.000000 0.000000 0.000000 0.018718
#
#
# Mechanical properties :
#
#
# Convention : Reuss Voigt Hill
#
# Bulk Modulus (GPa) = 61.45130 65.09557 63.27344
# Shear Modulus (GPa) = 47.19250 -228.38228 -90.59489
#
# Velocity S-wave (km/s) = 4.66191 -10.25553 -6.45920
# Velocity P-wave (km/s) = 7.56821 10.50031 5.14678
#
# Compressibility (1/GPa) = 0.01627305
#
# Stress axis : x y z
#
# Youngs Moduli (GPa) = 102.10618 61.27800 141.84047
#
# Poissons Ratio (x) = 0.28452 0.08173
# Poissons Ratio (y) = 0.47408 0.45754
# Poissons Ratio (z) = 0.05884 0.19767
#
# Static dielectric constant tensor:
#      x y z
#    x 1.777180 0.000000 0.000000 
#    y 0.000000 2.420080 0.000000 
#    z 0.000000 0.000000 1.794210 
# 
# From -- ./inp_files/51623.got.cif
#   From: 2010.05.17/outbox.cif.g08.bks.cpg/sg72_26_cif.got.tgz:51623.got - 2010.06.03 17:03:01.
