data_PCOD9529800
_publ_section_title
;
Structure prediction by ZEFSAII (Michael W. Deem and Ramdas Pophale) SiO2 
 PCOD9529800
Probable space group: I B C A 
;
_chemical_formula_sum "Si O2"
_cell_formula_units_Z 128
_cell_length_a 27.179951
_cell_length_b 20.937463
_cell_length_c 11.012398
_cell_angle_alpha 90.000000
_cell_angle_beta 90.000000
_cell_angle_gamma 90.000000
_cell_volume 6266.926847
_symmetry_space_group_name_H-M "I B C A "
_symmetry_group_IT_number 73
_symmetry_cell_setting 'orthorhombic'
loop_
_space_group_symop_operation_xyz
x,y,z
-x,1/2-y,z
x,-y,1/2-z
1/2-x,y,-z
-x,-y,-z
x,1/2+y,-z
-x,y,1/2+z
1/2+x,-y,z
1/2+x,1/2+y,1/2+z
1/2-x,-y,1/2+z
1/2+x,1/2-y,-z
-x,1/2+y,1/2-z
1/2-x,1/2-y,1/2-z
1/2+x,y,1/2-z
1/2-x,1/2+y,z
x,1/2-y,1/2+z
loop_
_atom_site_type_symbol
_atom_site_label
_atom_site_fract_x
_atom_site_fract_y
_atom_site_fract_z
Si Si1 0.370381 0.675811 0.008667
Si Si2 0.878791 0.558308 0.184217
Si Si3 0.198314 0.187030 0.790006
Si Si4 0.306165 0.665970 0.255481
Si Si5 0.044392 0.292041 0.806195
Si Si6 0.955580 0.894646 0.887050
Si Si7 0.889879 0.295980 0.640526
Si Si8 0.442749 0.098596 0.489699
O O1 0.335764 0.661948 0.896923
O O2 0.337492 0.669603 0.130776
O O3 0.416669 0.628994 0.013394
O O4 0.390643 0.748004 0.025548
O O5 0.851326 0.500000 0.250000
O O6 0.839910 0.616420 0.170661
O O7 0.922184 0.570872 0.284892
O O8 0.906433 0.548765 0.055858
O O9 0.249803 0.151250 0.778175
O O10 0.201636 0.263861 0.814812
O O11 0.166188 0.185901 0.668384
O O12 0.027821 0.330301 0.684554
O O13 0.087179 0.245661 0.752514
O O14 0.053196 0.347125 0.904646
O O15 0.000000 0.250000 0.853332
O O16 0.004062 0.924794 0.945143
O O17 0.918257 0.361252 0.618119
#
# Coordination Sequence:
#
# PCOD9529800 Si02
#       8
#    16  16  16  16  16  16  16  16
#     4   9  17  29  48  75 110 141 167 205 266 333
#     4  10  22  41  58  72 101 143 192 239 271 321
#     4  10  18  30  54  77 110 136 165 227 277 339
#     4   9  19  35  50  78 102 137 183 215 278 338
#     4  10  19  28  45  75 119 151 171 200 268 333
#     4   9  20  33  49  80 103 137 186 218 257 331
#     4  10  19  29  44  79 114 145 177 205 264 336
#     4  11  21  32  51  76 111 146 181 221 265 329
#
# _framework density 20.424683999999999
#
# number of rings (size 3 to 8) (size 9 to 14) (size 15 to 20)
#    0.000    2.250    1.250    4.125    5.250    0.500 
#    0.000    1.875    0.000    6.000    0.000    0.000 
#    0.000    0.000    0.000    0.000    0.000    0.000 
#
# Total GULP energy -356344.400841 kJ/mol
# GULP energy per Si atom -5567.881263 kJ/mol
# Density = 2.037820 g / cm^3
# Si number density = 20.424684 Si / 1000 Ang^3
#
#
#
# Elastic Constant Matrix: (Units=GPa)
#
#
# Indices 1 2 3 4 5 6 
#
# 1 89.9396 9.5456 -5.2344 0.0000 0.0000 0.0000
# 2 9.5456 23.6054 -5.6266 0.0000 0.0000 0.0000
# 3 -5.2344 -5.6266 26.3741 0.0000 0.0000 0.0000
# 4 0.0000 0.0000 0.0000 14.0004 0.0000 0.0000
# 5 0.0000 0.0000 0.0000 0.0000 21.8566 0.0000
# 6 0.0000 0.0000 0.0000 0.0000 0.0000 10.7914
#
#
#
# Elastic Compliance Matrix: (Units=1/GPa)
#
#
# Indices 1 2 3 4 5 6 
#
# 1 0.011665 -0.004388 0.001379 0.000000 0.000000 0.000000
# 2 -0.004388 0.046284 0.009003 0.000000 0.000000 0.000000
# 3 0.001379 0.009003 0.040110 0.000000 0.000000 0.000000
# 4 0.000000 0.000000 0.000000 0.071426 0.000000 0.000000
# 5 0.000000 0.000000 0.000000 0.000000 0.045753 0.000000
# 6 0.000000 0.000000 0.000000 0.000000 0.000000 0.092666
#
#
# Mechanical properties :
#
#
# Convention : Reuss Voigt Hill
#
# Bulk Modulus (GPa) = 9.08711 15.25424 12.17067
# Shear Modulus (GPa) = 15.03315 18.74534 16.88925
#
# Velocity S-wave (km/s) = 2.71593 3.03277 2.87871
# Velocity P-wave (km/s) = 3.78071 4.44391 4.12566
#
# Compressibility (1/GPa) = 0.11004605
#
# Stress axis : x y z
#
# Youngs Moduli (GPa) = 85.72971 21.60587 24.93123
#
# Poissons Ratio (x) = 0.09481 -0.03438
# Poissons Ratio (y) = 0.37620 -0.22446
# Poissons Ratio (z) = -0.11821 -0.19452
#
# Static dielectric constant tensor:
#      x y z
#    x 1.763410 0.000000 0.000000 
#    y 0.000000 1.851210 0.000000 
#    z 0.000000 0.000000 1.768820 
# 
# From -- ./inp_files/14472.got.cif
#   From: 2010.05.17/outbox.cif.g08.bks.cpg/sg73_8_cif.got.tgz:14472.got - 2010.06.03 17:35:07.
