data_PCOD9529545
_publ_section_title
;
Structure prediction by ZEFSAII (Michael W. Deem and Ramdas Pophale) SiO2 
 PCOD9529545
Probable space group: I B A M
;
_chemical_formula_sum "Si O2"
_cell_formula_units_Z 56
_cell_length_a 30.000000
_cell_length_b 12.000000
_cell_length_c 15.000000
_cell_angle_alpha 90.000000
_cell_angle_beta 90.000000
_cell_angle_gamma 90.000000
_cell_volume 5400.000000
_symmetry_space_group_name_H-M "I B A M"
_symmetry_group_IT_number 72
_symmetry_cell_setting 'orthorhombic'
loop_
_space_group_symop_operation_xyz
x,y,z
-x,-y,z
x,-y,1/2-z
-x,y,1/2-z
-x,-y,-z
x,y,-z
-x,y,1/2+z
x,-y,1/2+z
1/2+x,1/2+y,1/2+z
1/2-x,1/2-y,1/2+z
1/2+x,1/2-y,-z
1/2-x,1/2+y,-z
1/2-x,1/2-y,1/2-z
1/2+x,1/2+y,1/2-z
1/2-x,1/2+y,z
1/2+x,1/2-y,z
loop_
_atom_site_type_symbol
_atom_site_label
_atom_site_fract_x
_atom_site_fract_y
_atom_site_fract_z
Si Si1 0.420052 0.675355 0.898697
Si Si2 0.889929 0.943641 0.393502
Si Si3 0.541680 0.083497 0.393670
Si Si4 0.296292 0.121675 0.302926
Si Si5 0.111851 0.591214 0.606464
Si Si6 0.982358 0.172004 0.154237
Si Si7 0.695262 0.370986 0.708129
O O1 0.394323 0.570882 0.856797
O O2 0.411139 0.795870 0.856924
O O3 0.472881 0.655578 0.902598
O O4 0.403202 0.682321 0.000000
O O5 0.884035 0.948035 0.500000
O O6 0.938195 0.891133 0.374921
O O7 0.848833 0.876679 0.352275
O O8 0.545616 0.109361 0.500000
O O9 0.530798 0.198283 0.346121
O O10 0.500000 0.000000 0.383789
O O11 0.585823 0.018756 0.361203
O O12 0.336361 0.102641 0.371868
O O13 0.305655 0.247439 0.258919
O O14 0.244971 0.131302 0.335065
O O15 0.297591 0.000000 0.250000
O O16 0.104497 0.587903 0.500000
O O17 0.000000 0.135913 0.250000
O O18 0.694751 0.500000 0.750000
#
# Coordination Sequence:
#
# PCOD9529545 Si02
#       7
#    16  16  16  16  16  16  16
#     4  10  21  41  61  85 123 166 206 250 309 375
#     4  11  25  41  65  93 124 165 212 264 314 376
#     4  10  20  38  59  81 119 164 205 253 311 369
#     4  10  23  42  65  96 128 164 210 272 331 383
#     4  10  21  37  64  92 121 165 211 258 316 384
#     4  12  26  37  57  90 125 164 207 257 306 377
#     4  10  23  44  68  90 128 172 209 263 333 391
#
# _framework density 10.370369999999999
#
# number of rings (size 3 to 8) (size 9 to 14) (size 15 to 20)
#    0.000    1.571    1.429    2.571    6.000    2.571 
#    0.000    0.000    0.000    5.143    0.000    0.000 
#    0.000    0.000    0.000    0.000    0.000    0.000 
#
# Total GULP energy -312055.570217 kJ/mol
# GULP energy per Si atom -5572.420897 kJ/mol
# Density = 1.034677 g / cm^3
# Si number density = 10.370370 Si / 1000 Ang^3
#
#
#
# Elastic Constant Matrix: (Units=GPa)
#
#
# Indices 1 2 3 4 5 6 
#
# 1 129.2760 23.9016 15.5091 0.0000 0.0000 0.0000
# 2 23.9016 123.9882 10.6204 0.0000 0.0000 0.0000
# 3 15.5091 10.6204 34.4174 0.0000 0.0000 0.0000
# 4 0.0000 0.0000 0.0000 88.7451 0.0000 0.0000
# 5 0.0000 0.0000 0.0000 0.0000 30.8572 0.0000
# 6 0.0000 0.0000 0.0000 0.0000 0.0000 42.3272
#
#
#
# Elastic Compliance Matrix: (Units=1/GPa)
#
#
# Indices 1 2 3 4 5 6 
#
# 1 0.008385 -0.001328 -0.003369 0.000000 0.000000 0.000000
# 2 -0.001328 0.008495 -0.002023 0.000000 0.000000 0.000000
# 3 -0.003369 -0.002023 0.031197 0.000000 0.000000 0.000000
# 4 0.000000 0.000000 0.000000 0.011268 0.000000 0.000000
# 5 0.000000 0.000000 0.000000 0.000000 0.032407 0.000000
# 6 0.000000 0.000000 0.000000 0.000000 0.000000 0.023625
#
#
# Mechanical properties :
#
#
# Convention : Reuss Voigt Hill
#
# Bulk Modulus (GPa) = 28.87005 43.08266 35.97636
# Shear Modulus (GPa) = 35.62202 48.22928 41.92565
#
# Velocity S-wave (km/s) = 4.14876 4.82741 4.50089
# Velocity P-wave (km/s) = 6.07448 7.20340 6.66289
#
# Compressibility (1/GPa) = 0.03463797
#
# Stress axis : x y z
#
# Youngs Moduli (GPa) = 119.26017 117.72274 32.05413
#
# Poissons Ratio (x) = 0.15632 0.10798
# Poissons Ratio (y) = 0.15836 0.06484
# Poissons Ratio (z) = 0.40175 0.23814
#
# Static dielectric constant tensor:
#      x y z
#    x 1.712970 0.000000 0.000000 
#    y 0.000000 1.805920 0.000000 
#    z 0.000000 0.000000 1.821120 
# 
# From -- ./inp_files/26418.got.cif
#   From: 2010.05.17/outbox.ucp.g08.bks.cvg/sg72_14_cif.got.tgz:26418.got - 2010.06.11 16:33:07.
