data_PCOD9529601
_publ_section_title
;
Structure prediction by ZEFSAII (Michael W. Deem and Ramdas Pophale) SiO2 
 PCOD9529601
Probable space group: I B C A 
;
_chemical_formula_sum "Si O2"
_cell_formula_units_Z 120
_cell_length_a 19.350774
_cell_length_b 13.931672
_cell_length_c 19.605503
_cell_angle_alpha 90.000000
_cell_angle_beta 90.000000
_cell_angle_gamma 90.000000
_cell_volume 5285.420818
_symmetry_space_group_name_H-M "I B C A "
_symmetry_group_IT_number 73
_symmetry_cell_setting 'orthorhombic'
loop_
_space_group_symop_operation_xyz
x,y,z
-x,1/2-y,z
x,-y,1/2-z
1/2-x,y,-z
-x,-y,-z
x,1/2+y,-z
-x,y,1/2+z
1/2+x,-y,z
1/2+x,1/2+y,1/2+z
1/2-x,-y,1/2+z
1/2+x,1/2-y,-z
-x,1/2+y,1/2-z
1/2-x,1/2-y,1/2-z
1/2+x,y,1/2-z
1/2-x,1/2+y,z
x,1/2-y,1/2+z
loop_
_atom_site_type_symbol
_atom_site_label
_atom_site_fract_x
_atom_site_fract_y
_atom_site_fract_z
Si Si1 0.279962 0.429653 0.810937
Si Si2 0.826866 0.838855 0.476685
Si Si3 0.525787 0.580580 0.581767
Si Si4 0.619187 0.484710 0.086146
Si Si5 0.929805 0.707789 0.549501
Si Si6 0.648157 0.020703 0.328780
Si Si7 0.000000 0.250000 0.685645
Si Si8 0.345757 0.744636 0.175016
O O1 0.264903 0.500000 0.750000
O O2 0.348512 0.473147 0.845088
O O3 0.208954 0.447946 0.851996
O O4 0.293886 0.320683 0.792079
O O5 0.750000 0.814499 0.500000
O O6 0.882838 0.795966 0.527388
O O7 0.845087 0.786741 0.403506
O O8 0.835915 0.953417 0.467463
O O9 0.458610 0.517330 0.569908
O O10 0.548243 0.646688 0.518317
O O11 0.586714 0.519867 0.616236
O O12 0.503445 0.655978 0.639301
O O13 0.616428 0.370461 0.088484
O O14 0.000000 0.750000 0.581594
O O15 0.672306 0.132685 0.328841
O O16 0.624334 0.000000 0.250000
O O17 0.079123 0.248018 0.712854
#
# Coordination Sequence:
#
# PCOD9529601 Si02
#       8
#    16  16  16  16  16  16   8  16
#     4  10  23  43  64  90 126 172 208 262 339 385
#     4  11  23  38  62  99 126 174 216 256 322 396
#     4  11  18  39  64  86 121 169 211 256 314 389
#     4  11  24  41  63  94 128 168 218 265 324 389
#     4  12  22  39  65  93 134 171 208 265 330 388
#     4  10  23  39  63  97 119 163 221 266 317 378
#     4  10  14  36  66  86 108 162 220 234 302 376
#     4  10  20  41  65  87 127 166 212 264 313 391
#
# _framework density 22.703962000000001
#
# number of rings (size 3 to 8) (size 9 to 14) (size 15 to 20)
#    0.000    1.333    7.333    0.400    1.867    5.333 
#    0.000    1.333    0.000    0.000    0.000    0.000 
#    0.000    0.000    0.000    0.000    0.000    0.000 
#
# Total GULP energy -334469.828423 kJ/mol
# GULP energy per Si atom -5574.497140 kJ/mol
# Density = 2.265229 g / cm^3
# Si number density = 22.703962 Si / 1000 Ang^3
#
#
#
# Elastic Constant Matrix: (Units=GPa)
#
#
# Indices 1 2 3 4 5 6 
#
# 1 121.1821 21.1181 5.6403 0.0000 0.0000 0.0000
# 2 21.1181 91.2465 -0.6180 0.0000 0.0000 0.0000
# 3 5.6403 -0.6180 11.2262 0.0000 0.0000 0.0000
# 4 0.0000 0.0000 0.0000 11.8684 0.0000 0.0000
# 5 0.0000 0.0000 0.0000 0.0000 15.6099 0.0000
# 6 0.0000 0.0000 0.0000 0.0000 0.0000 39.9629
#
#
#
# Elastic Compliance Matrix: (Units=1/GPa)
#
#
# Indices 1 2 3 4 5 6 
#
# 1 0.008825 -0.002073 -0.004548 0.000000 0.000000 0.000000
# 2 -0.002073 0.011450 0.001672 0.000000 0.000000 0.000000
# 3 -0.004548 0.001672 0.091454 0.000000 0.000000 0.000000
# 4 0.000000 0.000000 0.000000 0.084257 0.000000 0.000000
# 5 0.000000 0.000000 0.000000 0.000000 0.064062 0.000000
# 6 0.000000 0.000000 0.000000 0.000000 0.000000 0.025023
#
#
# Mechanical properties :
#
#
# Convention : Reuss Voigt Hill
#
# Bulk Modulus (GPa) = 9.82019 30.65950 20.23984
# Shear Modulus (GPa) = 15.20153 26.65587 20.92870
#
# Velocity S-wave (km/s) = 2.59038 3.43018 3.03942
# Velocity P-wave (km/s) = 3.64438 5.40569 4.60993
#
# Compressibility (1/GPa) = 0.10183107
#
# Stress axis : x y z
#
# Youngs Moduli (GPa) = 113.31403 87.33248 10.93446
#
# Poissons Ratio (x) = 0.18106 0.04973
# Poissons Ratio (y) = 0.23493 -0.01828
# Poissons Ratio (z) = 0.51535 -0.14602
#
# Static dielectric constant tensor:
#      x y z
#    x 1.964410 0.000000 0.000000 
#    y 0.000000 1.849140 0.000000 
#    z 0.000000 0.000000 1.925940 
# 
# From -- ./inp_files/29890.got.cif
#   From: 2010.05.17/outbox.cif.g08.bks.cpg/sg73_15_cif.got.tgz:29890.got - 2010.06.03 17:35:07.
