data_PCOD9529604
_publ_section_title
;
Structure prediction by ZEFSAII (Michael W. Deem and Ramdas Pophale) SiO2 
 PCOD9529604
Probable space group: I B C A 
;
_chemical_formula_sum "Si O2"
_cell_formula_units_Z 64
_cell_length_a 30.398529
_cell_length_b 5.462682
_cell_length_c 18.546994
_cell_angle_alpha 90.000000
_cell_angle_beta 90.000000
_cell_angle_gamma 90.000000
_cell_volume 3079.867404
_symmetry_space_group_name_H-M "I B C A "
_symmetry_group_IT_number 73
_symmetry_cell_setting 'orthorhombic'
loop_
_space_group_symop_operation_xyz
x,y,z
-x,1/2-y,z
x,-y,1/2-z
1/2-x,y,-z
-x,-y,-z
x,1/2+y,-z
-x,y,1/2+z
1/2+x,-y,z
1/2+x,1/2+y,1/2+z
1/2-x,-y,1/2+z
1/2+x,1/2-y,-z
-x,1/2+y,1/2-z
1/2-x,1/2-y,1/2-z
1/2+x,y,1/2-z
1/2-x,1/2+y,z
x,1/2-y,1/2+z
loop_
_atom_site_type_symbol
_atom_site_label
_atom_site_fract_x
_atom_site_fract_y
_atom_site_fract_z
Si Si1 0.768158 0.752460 0.834008
Si Si2 0.948784 0.275405 0.968775
Si Si3 0.541683 0.582637 0.167365
Si Si4 0.367297 0.752503 0.703802
O O1 0.750000 0.750000 0.750000
O O2 0.750944 0.500342 0.866477
O O3 0.820693 0.759147 0.835756
O O4 0.951135 0.351664 0.885029
O O5 0.000000 0.250000 0.991003
O O6 0.929199 0.513556 0.009358
O O7 0.500000 0.750000 0.147752
O O8 0.535587 0.500000 0.250000
O O9 0.586894 0.733880 0.161944
O O10 0.365826 0.500000 0.750000
O O11 0.368917 0.000000 0.750000
#
# Coordination Sequence:
#
# PCOD9529604 Si02
#       4
#    16  16  16  16
#     4  10  15  27  47  66  94 137 171 218 263 320
#     4  10  21  39  61  78 100 146 201 236 264 318
#     4  11  23  36  54  81 119 152 181 226 284 336
#     4  11  20  31  47  73 105 144 176 214 272 334
#
# _framework density 20.780116
#
# number of rings (size 3 to 8) (size 9 to 14) (size 15 to 20)
#    0.000    1.500    5.000    3.750    0.000    6.000 
#    0.000    0.000    0.000    0.000    0.000    0.000 
#    0.000    6.000    0.000    0.000    0.000    0.000 
#
# Total GULP energy -178532.179737 kJ/mol
# GULP energy per Si atom -5579.130617 kJ/mol
# Density = 2.073282 g / cm^3
# Si number density = 20.780116 Si / 1000 Ang^3
#
#
#
# Elastic Constant Matrix: (Units=GPa)
#
#
# Indices 1 2 3 4 5 6 
#
# 1 166.2799 42.4450 -2.7626 0.0000 0.0000 0.0000
# 2 42.4450 200.9062 34.8895 0.0000 0.0000 0.0000
# 3 -2.7626 34.8895 99.3469 0.0000 0.0000 0.0000
# 4 0.0000 0.0000 0.0000 19.8035 0.0000 0.0000
# 5 0.0000 0.0000 0.0000 0.0000 -1.4620 0.0000
# 6 0.0000 0.0000 0.0000 0.0000 0.0000 26.9640
#
#
#
# Elastic Compliance Matrix: (Units=1/GPa)
#
#
# Indices 1 2 3 4 5 6 
#
# 1 0.006402 -0.001473 0.000695 0.000000 0.000000 0.000000
# 2 -0.001473 0.005640 -0.002022 0.000000 0.000000 0.000000
# 3 0.000695 -0.002022 0.010795 0.000000 0.000000 0.000000
# 4 0.000000 0.000000 0.000000 0.050496 0.000000 0.000000
# 5 0.000000 0.000000 0.000000 0.000000 -0.684013 0.000000
# 6 0.000000 0.000000 0.000000 0.000000 0.000000 0.037087
#
#
# Mechanical properties :
#
#
# Convention : Reuss Voigt Hill
#
# Bulk Modulus (GPa) = 58.01290 68.40853 63.21071
# Shear Modulus (GPa) = -8.89284 35.19184 13.14950
#
# Velocity S-wave (km/s) = -2.07094 4.11972 2.51827
# Velocity P-wave (km/s) = 4.71802 7.45796 6.24023
#
# Compressibility (1/GPa) = 0.01723755
#
# Stress axis : x y z
#
# Youngs Moduli (GPa) = 156.21186 177.31255 92.63519
#
# Poissons Ratio (x) = 0.26122 -0.06442
# Poissons Ratio (y) = 0.23013 0.18727
# Poissons Ratio (z) = -0.10863 0.35845
#
# Static dielectric constant tensor:
#      x y z
#    x 1.747170 0.000000 0.000000 
#    y 0.000000 1.741020 0.000000 
#    z 0.000000 0.000000 1.811510 
# 
# From -- ./inp_files/24047.got.cif
#   From: 2010.05.17/outbox.cif.g08.bks.cpg/sg73_13_cif.got.tgz:24047.got - 2010.06.03 17:35:07.
