data_PCOD9529522
_publ_section_title
;
Structure prediction by ZEFSAII (Michael W. Deem and Ramdas Pophale) SiO2 
 PCOD9529522
Probable space group: I B A M
;
_chemical_formula_sum "Si O2"
_cell_formula_units_Z 58
_cell_length_a 27.000000
_cell_length_b 24.000000
_cell_length_c 9.000000
_cell_angle_alpha 90.000000
_cell_angle_beta 90.000000
_cell_angle_gamma 90.000000
_cell_volume 5832.000000
_symmetry_space_group_name_H-M "I B A M"
_symmetry_group_IT_number 72
_symmetry_cell_setting 'orthorhombic'
loop_
_space_group_symop_operation_xyz
x,y,z
-x,-y,z
x,-y,1/2-z
-x,y,1/2-z
-x,-y,-z
x,y,-z
-x,y,1/2+z
x,-y,1/2+z
1/2+x,1/2+y,1/2+z
1/2-x,1/2-y,1/2+z
1/2+x,1/2-y,-z
1/2-x,1/2+y,-z
1/2-x,1/2-y,1/2-z
1/2+x,1/2+y,1/2-z
1/2-x,1/2+y,z
1/2+x,1/2-y,z
loop_
_atom_site_type_symbol
_atom_site_label
_atom_site_fract_x
_atom_site_fract_y
_atom_site_fract_z
Si Si1 0.811218 0.554257 0.677395
Si Si2 0.946279 0.712595 0.320280
Si Si3 0.000000 0.500000 0.250000
Si Si4 0.399521 0.333376 0.174923
Si Si5 0.083091 0.589027 0.827070
Si Si6 0.707341 0.821418 0.165806
Si Si7 0.554882 0.442725 0.820611
Si Si8 0.819146 0.219169 0.335407
O O1 0.787992 0.500000 0.750000
O O2 0.811221 0.545997 0.500000
O O3 0.867301 0.562157 0.738435
O O4 0.787867 0.614380 0.707759
O O5 0.948040 0.710611 0.500000
O O6 0.921799 0.772439 0.282773
O O7 0.926071 0.651725 0.268336
O O8 0.000000 0.715441 0.250000
O O9 0.961878 0.454988 0.179604
O O10 0.419043 0.385942 0.267058
O O11 0.342816 0.322554 0.217359
O O12 0.407868 0.342622 0.000000
O O13 0.093925 0.597077 0.000000
O O14 0.761619 0.795779 0.154931
O O15 0.677359 0.782340 0.276900
O O16 0.684109 0.818220 0.000000
O O17 0.576768 0.500000 0.750000
O O18 0.500000 0.439221 0.750000
O O19 0.553201 0.446452 0.000000
O O20 0.841213 0.212680 0.500000
#
# Coordination Sequence:
#
# PCOD9529522 Si02
#       8
#    16  16   4  16  16  16  16  16
#     4  10  20  36  55  77 105 141 182 225 276 330
#     4  10  21  36  53  76 108 147 188 230 277 325
#     4  12  18  32  52  70 104 144 192 228 266 316
#     4  11  22  37  58  84 117 154 188 231 290 342
#     4  10  20  33  50  73 105 145 186 228 275 321
#     4   9  19  37  59  80 109 144 180 230 290 347
#     4  11  22  39  62  88 119 154 195 235 279 340
#     4  10  20  35  58  86 110 140 184 233 284 343
#
# _framework density 9.9451300000000007
#
# number of rings (size 3 to 8) (size 9 to 14) (size 15 to 20)
#    0.000    1.793    1.379    3.931    0.000    5.517 
#    0.000    1.379    0.000    1.655    0.000    0.000 
#    0.000    0.000    0.000    0.000    0.000    0.000 
#
# Total GULP energy -323018.225710 kJ/mol
# GULP energy per Si atom -5569.279754 kJ/mol
# Density = 0.992249 g / cm^3
# Si number density = 9.945130 Si / 1000 Ang^3
#
#
#
# Elastic Constant Matrix: (Units=GPa)
#
#
# Indices 1 2 3 4 5 6 
#
# 1 31.4381 29.4380 18.5011 0.0000 0.0000 0.0000
# 2 29.4380 173.6976 64.6137 0.0000 0.0000 0.0000
# 3 18.5011 64.6137 65.4421 0.0000 0.0000 0.0000
# 4 0.0000 0.0000 0.0000 22.9593 0.0000 0.0000
# 5 0.0000 0.0000 0.0000 0.0000 8.2008 0.0000
# 6 0.0000 0.0000 0.0000 0.0000 0.0000 26.4495
#
#
#
# Elastic Compliance Matrix: (Units=1/GPa)
#
#
# Indices 1 2 3 4 5 6 
#
# 1 0.039885 -0.004054 -0.007273 0.000000 0.000000 0.000000
# 2 -0.004054 0.009511 -0.008245 0.000000 0.000000 0.000000
# 3 -0.007273 -0.008245 0.025477 0.000000 0.000000 0.000000
# 4 0.000000 0.000000 0.000000 0.043555 0.000000 0.000000
# 5 0.000000 0.000000 0.000000 0.000000 0.121939 0.000000
# 6 0.000000 0.000000 0.000000 0.000000 0.000000 0.037808
#
#
# Mechanical properties :
#
#
# Convention : Reuss Voigt Hill
#
# Bulk Modulus (GPa) = 27.98798 55.07592 41.53195
# Shear Modulus (GPa) = 15.18703 22.05694 18.62198
#
# Velocity S-wave (km/s) = 2.76622 3.33368 3.06312
# Velocity P-wave (km/s) = 4.92995 6.52440 5.78240
#
# Compressibility (1/GPa) = 0.03572962
#
# Stress axis : x y z
#
# Youngs Moduli (GPa) = 25.07214 105.14009 39.25107
#
# Poissons Ratio (x) = 0.42625 0.28547
# Poissons Ratio (y) = 0.10165 0.32361
# Poissons Ratio (z) = 0.18235 0.86684
#
# Static dielectric constant tensor:
#      x y z
#    x 1.754400 0.000000 0.000000 
#    y 0.000000 1.718490 0.000000 
#    z 0.000000 0.000000 1.716060 
# 
# From -- ./inp_files/8449.got.cif
#   From: 2010.05.17/outbox.ucp.g08.bks.cvg/sg72_5_cif.got.tgz:8449.got - 2010.06.11 16:33:07.
