data_PCOD9529549
_publ_section_title
;
Structure prediction by ZEFSAII (Michael W. Deem and Ramdas Pophale) SiO2 
 PCOD9529549
Probable space group: I B A M
;
_chemical_formula_sum "Si O2"
_cell_formula_units_Z 52
_cell_length_a 9.000000
_cell_length_b 21.000000
_cell_length_c 27.000000
_cell_angle_alpha 90.000000
_cell_angle_beta 90.000000
_cell_angle_gamma 90.000000
_cell_volume 5103.000000
_symmetry_space_group_name_H-M "I B A M"
_symmetry_group_IT_number 72
_symmetry_cell_setting 'orthorhombic'
loop_
_space_group_symop_operation_xyz
x,y,z
-x,-y,z
x,-y,1/2-z
-x,y,1/2-z
-x,-y,-z
x,y,-z
-x,y,1/2+z
x,-y,1/2+z
1/2+x,1/2+y,1/2+z
1/2-x,1/2-y,1/2+z
1/2+x,1/2-y,-z
1/2-x,1/2+y,-z
1/2-x,1/2-y,1/2-z
1/2+x,1/2+y,1/2-z
1/2-x,1/2+y,z
1/2+x,1/2-y,z
loop_
_atom_site_type_symbol
_atom_site_label
_atom_site_fract_x
_atom_site_fract_y
_atom_site_fract_z
Si Si1 0.500000 0.230823 0.250000
Si Si2 0.835872 0.346845 0.177284
Si Si3 0.855840 0.336052 0.554152
Si Si4 0.980068 0.843115 0.175222
Si Si5 0.602380 0.256007 0.405237
Si Si6 0.081316 0.439491 0.132634
Si Si7 0.642798 0.534114 0.197293
O O1 0.627268 0.184909 0.270229
O O2 0.456634 0.278585 0.293476
O O3 0.676553 0.378466 0.175481
O O4 0.829273 0.288189 0.138245
O O5 0.965288 0.394957 0.162239
O O6 0.866773 0.363702 0.500000
O O7 0.721467 0.287339 0.559655
O O8 0.845081 0.392006 0.593739
O O9 0.995837 0.292029 0.566791
O O10 0.025226 0.815735 0.122138
O O11 0.098840 0.890824 0.198857
O O12 0.204901 0.467934 0.168370
O O13 0.000000 0.500000 0.108904
O O14 0.500000 0.500000 0.172505
O O15 0.658802 0.500000 0.250000
#
# Coordination Sequence:
#
# PCOD9529549 Si02
#       7
#     8  16  16  16  16  16  16
#     4  10  22  30  56  90 122 162 210 252 312 374
#     4  10  22  37  60  86 126 166 203 254 312 376
#     4  11  22  41  69  98 126 159 203 263 330 394
#     4  11  20  38  58  85 128 162 209 259 313 373
#     4  10  20  38  64  96 126 159 196 255 325 387
#     4  11  25  43  61  88 124 171 216 261 315 370
#     4  11  24  40  61  87 120 171 223 264 306 366
#
# _framework density 10.190084000000001
#
# number of rings (size 3 to 8) (size 9 to 14) (size 15 to 20)
#    0.000    1.385    3.077    2.769    0.000    5.538 
#    0.000    0.769    0.000    0.462    0.000    0.000 
#    0.000    0.000    0.000    0.000    0.000    0.000 
#
# Total GULP energy -290166.025831 kJ/mol
# GULP energy per Si atom -5580.115881 kJ/mol
# Density = 1.016689 g / cm^3
# Si number density = 10.190084 Si / 1000 Ang^3
#
#
#
# Elastic Constant Matrix: (Units=GPa)
#
#
# Indices 1 2 3 4 5 6 
#
# 1 69.9902 11.4768 28.3728 0.0000 0.0000 0.0000
# 2 11.4768 80.2520 11.8065 0.0000 0.0000 0.0000
# 3 28.3728 11.8065 44.7924 0.0000 0.0000 0.0000
# 4 0.0000 0.0000 0.0000 -10.2144 0.0000 0.0000
# 5 0.0000 0.0000 0.0000 0.0000 39.9244 0.0000
# 6 0.0000 0.0000 0.0000 0.0000 0.0000 24.1704
#
#
#
# Elastic Compliance Matrix: (Units=1/GPa)
#
#
# Indices 1 2 3 4 5 6 
#
# 1 0.019301 -0.001000 -0.011962 0.000000 0.000000 0.000000
# 2 -0.001000 0.013015 -0.002797 0.000000 0.000000 0.000000
# 3 -0.011962 -0.002797 0.030640 0.000000 0.000000 0.000000
# 4 0.000000 0.000000 0.000000 -0.097901 0.000000 0.000000
# 5 0.000000 0.000000 0.000000 0.000000 0.025047 0.000000
# 6 0.000000 0.000000 0.000000 0.000000 0.000000 0.041373
#
#
# Mechanical properties :
#
#
# Convention : Reuss Voigt Hill
#
# Bulk Modulus (GPa) = 31.80966 33.14965 32.47965
# Shear Modulus (GPa) = 68.05237 20.33465 44.19351
#
# Velocity S-wave (km/s) = 5.78480 3.16217 4.66172
# Velocity P-wave (km/s) = 7.76277 5.44366 6.70425
#
# Compressibility (1/GPa) = 0.03143699
#
# Stress axis : x y z
#
# Youngs Moduli (GPa) = 51.81082 76.83266 32.63750
#
# Poissons Ratio (x) = 0.07686 0.39041
# Poissons Ratio (y) = 0.05183 0.09128
# Poissons Ratio (z) = 0.61977 0.21490
#
# Static dielectric constant tensor:
#      x y z
#    x 1.780720 0.000000 0.000000 
#    y 0.000000 1.710080 0.000000 
#    z 0.000000 0.000000 1.572400 
# 
# From -- ./inp_files/47395.got.cif
#   From: 2010.05.17/outbox.ucp.g08.bks.cvg/sg72_24_cif.got.tgz:47395.got - 2010.06.11 16:33:07.
