data_PCOD9529335
_publ_section_title
;
Structure prediction by ZEFSAII (Michael W. Deem and Ramdas Pophale) SiO2 
 PCOD9529335
Probable space group: I B A M
;
_chemical_formula_sum "Si O2"
_cell_formula_units_Z 56
_cell_length_a 11.339243
_cell_length_b 10.055714
_cell_length_c 20.835901
_cell_angle_alpha 90.000000
_cell_angle_beta 90.000000
_cell_angle_gamma 90.000000
_cell_volume 2375.796622
_symmetry_space_group_name_H-M "I B A M"
_symmetry_group_IT_number 72
_symmetry_cell_setting 'orthorhombic'
loop_
_space_group_symop_operation_xyz
x,y,z
-x,-y,z
x,-y,1/2-z
-x,y,1/2-z
-x,-y,-z
x,y,-z
-x,y,1/2+z
x,-y,1/2+z
1/2+x,1/2+y,1/2+z
1/2-x,1/2-y,1/2+z
1/2+x,1/2-y,-z
1/2-x,1/2+y,-z
1/2-x,1/2-y,1/2-z
1/2+x,1/2+y,1/2-z
1/2-x,1/2+y,z
1/2+x,1/2-y,z
loop_
_atom_site_type_symbol
_atom_site_label
_atom_site_fract_x
_atom_site_fract_y
_atom_site_fract_z
Si Si1 0.805974 0.264090 0.572568
Si Si2 0.929364 0.359332 0.305798
Si Si3 0.790211 0.000000 0.250000
Si Si4 0.366603 0.490413 0.109551
O O1 0.839338 0.297493 0.500000
O O2 0.906142 0.297134 0.625371
O O3 0.787675 0.106472 0.578360
O O4 0.192966 0.149450 0.592896
O O5 0.802836 0.387845 0.273290
O O6 0.000000 0.500000 0.315048
O O7 0.000000 0.282846 0.250000
O O8 0.861941 0.022449 0.314485
O O9 0.500000 0.500000 0.085991
#
# Coordination Sequence:
#
# PCOD9529335 Si02
#       4
#    16  16   8  16
#     4  11  25  43  64  95 135 176 221 273 330 397
#     4   8  17  36  63  96 132 170 221 279 329 388
#     4   8  18  38  64  96 130 170 220 276 330 386
#     4  11  25  44  69  99 134 175 223 275 331 393
#
# _framework density 23.571041000000001
#
# number of rings (size 3 to 8) (size 9 to 14) (size 15 to 20)
#    0.000    2.571    0.000    1.286    0.000   16.571 
#    0.000    0.000    0.000    0.000    0.000    0.000 
#    0.000    0.000    0.000    0.000    0.000    0.000 
#
# Total GULP energy -156405.618175 kJ/mol
# GULP energy per Si atom -5585.914935 kJ/mol
# Density = 2.351739 g / cm^3
# Si number density = 23.571041 Si / 1000 Ang^3
#
#
#
# Elastic Constant Matrix: (Units=GPa)
#
#
# Indices 1 2 3 4 5 6 
#
# 1 94.2408 48.6572 25.4859 0.0000 0.0000 0.0000
# 2 48.6572 95.6940 3.7923 0.0000 0.0000 0.0000
# 3 25.4859 3.7923 171.7651 0.0000 0.0000 0.0000
# 4 0.0000 0.0000 0.0000 22.2317 0.0000 0.0000
# 5 0.0000 0.0000 0.0000 0.0000 19.6253 0.0000
# 6 0.0000 0.0000 0.0000 0.0000 0.0000 26.2050
#
#
#
# Elastic Compliance Matrix: (Units=1/GPa)
#
#
# Indices 1 2 3 4 5 6 
#
# 1 0.015091 -0.007591 -0.002071 0.000000 0.000000 0.000000
# 2 -0.007591 0.014278 0.000811 0.000000 0.000000 0.000000
# 3 -0.002071 0.000811 0.006111 0.000000 0.000000 0.000000
# 4 0.000000 0.000000 0.000000 0.044981 0.000000 0.000000
# 5 0.000000 0.000000 0.000000 0.000000 0.050955 0.000000
# 6 0.000000 0.000000 0.000000 0.000000 0.000000 0.038161
#
#
# Mechanical properties :
#
#
# Convention : Reuss Voigt Hill
#
# Bulk Modulus (GPa) = 56.25308 57.50785 56.88046
# Shear Modulus (GPa) = 25.87939 32.53004 29.20472
#
# Velocity S-wave (km/s) = 3.31710 3.71898 3.52377
# Velocity P-wave (km/s) = 6.21193 6.54918 6.38278
#
# Compressibility (1/GPa) = 0.01777680
#
# Stress axis : x y z
#
# Youngs Moduli (GPa) = 66.26651 70.03984 163.62983
#
# Poissons Ratio (x) = 0.53167 0.33896
# Poissons Ratio (y) = 0.50303 -0.13272
# Poissons Ratio (z) = 0.13727 -0.05681
#
# Static dielectric constant tensor:
#      x y z
#    x 1.867020 0.000000 0.000000 
#    y 0.000000 1.996450 0.000000 
#    z 0.000000 0.000000 1.884240 
# 
# From -- ./inp_files/36449.got.cif
#   From: 2010.05.17/outbox.cif.g08.bks.cpg/sg72_19_cif.got.tgz:36449.got - 2010.06.03 17:03:01.
