data_PCOD9529584
_publ_section_title
;
Structure prediction by ZEFSAII (Michael W. Deem and Ramdas Pophale) SiO2 
 PCOD9529584
Probable space group: I B A M
;
_chemical_formula_sum "Si O2"
_cell_formula_units_Z 46
_cell_length_a 9.000000
_cell_length_b 21.000000
_cell_length_c 24.000000
_cell_angle_alpha 90.000000
_cell_angle_beta 90.000000
_cell_angle_gamma 90.000000
_cell_volume 4536.000000
_symmetry_space_group_name_H-M "I B A M"
_symmetry_group_IT_number 72
_symmetry_cell_setting 'orthorhombic'
loop_
_space_group_symop_operation_xyz
x,y,z
-x,-y,z
x,-y,1/2-z
-x,y,1/2-z
-x,-y,-z
x,y,-z
-x,y,1/2+z
x,-y,1/2+z
1/2+x,1/2+y,1/2+z
1/2-x,1/2-y,1/2+z
1/2+x,1/2-y,-z
1/2-x,1/2+y,-z
1/2-x,1/2-y,1/2-z
1/2+x,1/2+y,1/2-z
1/2-x,1/2+y,z
1/2+x,1/2-y,z
loop_
_atom_site_type_symbol
_atom_site_label
_atom_site_fract_x
_atom_site_fract_y
_atom_site_fract_z
Si Si1 0.494866 0.169041 0.000000
Si Si2 0.658376 0.187071 0.645013
Si Si3 0.719567 0.597453 0.185409
Si Si4 0.369290 0.309620 0.500000
Si Si5 0.525457 0.073641 0.100503
Si Si6 0.000000 0.660941 0.750000
Si Si7 0.000000 0.000000 0.750000
Si Si8 0.000937 0.190826 0.882736
O O1 0.541888 0.123672 0.051007
O O2 0.310856 0.177724 0.000000
O O3 0.590497 0.234103 0.000000
O O4 0.606727 0.113398 0.633303
O O5 0.572803 0.202409 0.701871
O O6 0.582904 0.241536 0.606458
O O7 0.835147 0.195990 0.645607
O O8 0.610672 0.546159 0.214546
O O9 0.611697 0.649374 0.155199
O O10 0.825579 0.570502 0.137047
O O11 0.852218 0.623679 0.226665
O O12 0.448498 0.335451 0.443754
O O13 0.500000 0.000000 0.084323
#
# Coordination Sequence:
#
# PCOD9529584 Si02
#       8
#     8  16  16   8  16   8   4  16
#     4  12  25  44  73 109 136 202 240 304 376 435
#     4  11  23  42  69 101 144 184 245 296 377 429
#     4  11  28  43  74 103 143 189 249 300 359 446
#     4  12  24  42  79 102 151 184 244 302 377 429
#     4  11  25  44  69 101 146 192 243 297 365 447
#     4  10  24  44  66 100 133 195 228 302 362 434
#     4  12  28  48  72 110 142 206 238 300 380 432
#     4  12  24  44  70 109 142 185 240 310 362 442
#
# _framework density 10.141093
#
# number of rings (size 3 to 8) (size 9 to 14) (size 15 to 20)
#    0.000    0.696    3.478    3.391    9.739    3.478 
#    0.000    0.000    0.000    2.087    0.000    0.000 
#    0.000    0.000    0.000    0.000    0.000    0.000 
#
# Total GULP energy -256363.848557 kJ/mol
# GULP energy per Si atom -5573.127143 kJ/mol
# Density = 1.011801 g / cm^3
# Si number density = 10.141093 Si / 1000 Ang^3
#
#
#
# Elastic Constant Matrix: (Units=GPa)
#
#
# Indices 1 2 3 4 5 6 
#
# 1 147.4976 36.2648 31.2121 0.0000 0.0000 0.0000
# 2 36.2648 110.6375 13.4513 0.0000 0.0000 0.0000
# 3 31.2121 13.4513 93.1030 0.0000 0.0000 0.0000
# 4 0.0000 0.0000 0.0000 24.9977 0.0000 0.0000
# 5 0.0000 0.0000 0.0000 0.0000 41.2263 0.0000
# 6 0.0000 0.0000 0.0000 0.0000 0.0000 26.1885
#
#
#
# Elastic Compliance Matrix: (Units=1/GPa)
#
#
# Indices 1 2 3 4 5 6 
#
# 1 0.007827 -0.002287 -0.002294 0.000000 0.000000 0.000000
# 2 -0.002287 0.009868 -0.000659 0.000000 0.000000 0.000000
# 3 -0.002294 -0.000659 0.011605 0.000000 0.000000 0.000000
# 4 0.000000 0.000000 0.000000 0.040004 0.000000 0.000000
# 5 0.000000 0.000000 0.000000 0.000000 0.024256 0.000000
# 6 0.000000 0.000000 0.000000 0.000000 0.000000 0.038185
#
#
# Mechanical properties :
#
#
# Convention : Reuss Voigt Hill
#
# Bulk Modulus (GPa) = 53.13103 57.01053 55.07078
# Shear Modulus (GPa) = 33.67039 36.50314 35.08676
#
# Velocity S-wave (km/s) = 4.07885 4.24696 4.16375
# Velocity P-wave (km/s) = 6.95956 7.22625 7.09416
#
# Compressibility (1/GPa) = 0.01882139
#
# Stress axis : x y z
#
# Youngs Moduli (GPa) = 127.75651 101.33528 86.17005
#
# Poissons Ratio (x) = 0.23173 0.19765
# Poissons Ratio (y) = 0.29215 0.05680
# Poissons Ratio (z) = 0.29303 0.06679
#
# Static dielectric constant tensor:
#      x y z
#    x 1.674410 0.000000 0.000000 
#    y 0.000000 1.701010 0.000000 
#    z 0.000000 0.000000 1.899200 
# 
# From -- ./inp_files/42332.got.cif
#   From: 2010.05.17/outbox.ucp.g08.bks.cvg/sg72_22_cif.got.tgz:42332.got - 2010.06.11 16:33:07.
