data_PCOD9529911
_publ_section_title
;
Structure prediction by ZEFSAII (Michael W. Deem and Ramdas Pophale) SiO2 
 PCOD9529911
Probable space group: I B C A 
;
_chemical_formula_sum "Si O2"
_cell_formula_units_Z 112
_cell_length_a 15.041771
_cell_length_b 26.945681
_cell_length_c 11.140922
_cell_angle_alpha 90.000000
_cell_angle_beta 90.000000
_cell_angle_gamma 90.000000
_cell_volume 4515.535597
_symmetry_space_group_name_H-M "I B C A "
_symmetry_group_IT_number 73
_symmetry_cell_setting 'orthorhombic'
loop_
_space_group_symop_operation_xyz
x,y,z
-x,1/2-y,z
x,-y,1/2-z
1/2-x,y,-z
-x,-y,-z
x,1/2+y,-z
-x,y,1/2+z
1/2+x,-y,z
1/2+x,1/2+y,1/2+z
1/2-x,-y,1/2+z
1/2+x,1/2-y,-z
-x,1/2+y,1/2-z
1/2-x,1/2-y,1/2-z
1/2+x,y,1/2-z
1/2-x,1/2+y,z
x,1/2-y,1/2+z
loop_
_atom_site_type_symbol
_atom_site_label
_atom_site_fract_x
_atom_site_fract_y
_atom_site_fract_z
Si Si1 0.455581 0.124477 0.749135
Si Si2 0.966075 0.845314 0.496694
Si Si3 0.626856 0.459574 0.881875
Si Si4 0.170009 0.270911 0.091234
Si Si5 0.250000 0.390762 0.500000
Si Si6 0.295066 0.000000 0.250000
Si Si7 0.645238 0.945328 0.527975
Si Si8 0.780665 0.326220 0.225882
O O1 0.506627 0.143860 0.630136
O O2 0.477235 0.152421 0.873861
O O3 0.443212 0.067491 0.795292
O O4 0.355023 0.139684 0.714688
O O5 0.911816 0.793578 0.483549
O O6 0.904317 0.893912 0.479698
O O7 0.659205 0.422557 0.986530
O O8 0.723067 0.465561 0.817756
O O9 0.605427 0.512779 0.938414
O O10 0.168617 0.222900 0.176850
O O11 0.204576 0.313435 0.180698
O O12 0.250000 0.260601 0.000000
O O13 0.256745 0.355633 0.614037
O O14 0.353772 0.031181 0.340375
O O15 0.750000 0.940131 0.500000
#
# Coordination Sequence:
#
# PCOD9529911 Si02
#       8
#    16  16  16  16   8   8  16  16
#     4  11  26  45  63  96 139 185 223 273 337 407
#     4  12  27  44  67  96 141 185 224 273 338 406
#     4  10  20  38  62  92 137 168 223 272 341 387
#     4  11  22  44  72 103 127 166 223 281 337 398
#     4  10  18  34  62 100 128 166 206 274 332 390
#     4  10  18  34  62 100 126 164 222 288 334 386
#     4  10  21  37  64  99 128 175 227 288 329 392
#     4  10  23  41  71 100 132 165 216 285 339 399
#
# _framework density 24.803259000000001
#
# number of rings (size 3 to 8) (size 9 to 14) (size 15 to 20)
#    0.000    1.429    4.286    2.143    4.000    4.571 
#    0.000    2.143    0.000    0.000    0.000    0.000 
#    0.000    0.000    0.000    0.000    0.000    0.000 
#
# Total GULP energy -312782.635236 kJ/mol
# GULP energy per Si atom -5585.404201 kJ/mol
# Density = 2.474681 g / cm^3
# Si number density = 24.803259 Si / 1000 Ang^3
#
#
#
# Elastic Constant Matrix: (Units=GPa)
#
#
# Indices 1 2 3 4 5 6 
#
# 1 43.7984 13.9943 17.7781 0.0000 0.0000 0.0000
# 2 13.9943 49.0304 -6.7079 0.0001 0.0000 0.0000
# 3 17.7781 -6.7079 117.1324 0.0003 0.0001 0.0001
# 4 0.0000 0.0001 0.0003 43.5633 0.0000 0.0000
# 5 0.0000 0.0000 0.0001 0.0000 21.5079 0.0000
# 6 0.0000 0.0000 0.0001 0.0000 0.0000 12.4720
#
#
#
# Elastic Compliance Matrix: (Units=1/GPa)
#
#
# Indices 1 2 3 4 5 6 
#
# 1 0.027422 -0.008463 -0.004647 0.000000 0.000000 0.000000
# 2 -0.008463 0.023168 0.002611 0.000000 0.000000 0.000000
# 3 -0.004647 0.002611 0.009392 0.000000 0.000000 0.000000
# 4 0.000000 0.000000 0.000000 0.022955 0.000000 0.000000
# 5 0.000000 0.000000 0.000000 0.000000 0.046495 0.000000
# 6 0.000000 0.000000 0.000000 0.000000 0.000000 0.080180
#
#
# Mechanical properties :
#
#
# Convention : Reuss Voigt Hill
#
# Bulk Modulus (GPa) = 25.65007 28.89890 27.27448
# Shear Modulus (GPa) = 20.52520 27.83509 24.18014
#
# Velocity S-wave (km/s) = 2.87979 3.35361 3.12569
# Velocity P-wave (km/s) = 4.62833 5.16451 4.90375
#
# Compressibility (1/GPa) = 0.03898625
#
# Stress axis : x y z
#
# Youngs Moduli (GPa) = 36.46720 43.16273 106.47189
#
# Poissons Ratio (x) = 0.36527 0.49474
# Poissons Ratio (y) = 0.30860 -0.27802
# Poissons Ratio (z) = 0.16945 -0.11271
#
# Static dielectric constant tensor:
#      x y z
#    x 1.963960 0.000000 0.000000 
#    y 0.000000 2.019110 0.000000 
#    z 0.000000 0.000000 2.127360 
# 
# From -- ./inp_files/11278.got.cif
#   From: 2010.05.17/outbox.cif.g08.bks.cpg/sg73_6_cif.got.tgz:11278.got - 2010.06.03 17:35:07.
