data_PCOD9529877
_publ_section_title
;
Structure prediction by ZEFSAII (Michael W. Deem and Ramdas Pophale) SiO2 
 PCOD9529877
Probable space group: I B C A 
;
_chemical_formula_sum "Si O2"
_cell_formula_units_Z 104
_cell_length_a 22.283062
_cell_length_b 24.644925
_cell_length_c 8.540821
_cell_angle_alpha 90.000000
_cell_angle_beta 90.000000
_cell_angle_gamma 90.000000
_cell_volume 4690.314770
_symmetry_space_group_name_H-M "I B C A "
_symmetry_group_IT_number 73
_symmetry_cell_setting 'orthorhombic'
loop_
_space_group_symop_operation_xyz
x,y,z
-x,1/2-y,z
x,-y,1/2-z
1/2-x,y,-z
-x,-y,-z
x,1/2+y,-z
-x,y,1/2+z
1/2+x,-y,z
1/2+x,1/2+y,1/2+z
1/2-x,-y,1/2+z
1/2+x,1/2-y,-z
-x,1/2+y,1/2-z
1/2-x,1/2-y,1/2-z
1/2+x,y,1/2-z
1/2-x,1/2+y,z
x,1/2-y,1/2+z
loop_
_atom_site_type_symbol
_atom_site_label
_atom_site_fract_x
_atom_site_fract_y
_atom_site_fract_z
Si Si1 0.370137 0.810912 0.688302
Si Si2 0.807208 0.528655 0.081523
Si Si3 0.855665 0.500000 0.750000
Si Si4 0.548141 0.906365 0.705330
Si Si5 0.378780 0.189788 0.180116
Si Si6 0.745571 0.188444 0.814784
Si Si7 0.430229 0.907135 0.850147
O O1 0.368383 0.806760 0.503437
O O2 0.383237 0.750976 0.754996
O O3 0.306185 0.835535 0.744809
O O4 0.417641 0.852955 0.753269
O O5 0.791237 0.500000 0.250000
O O6 0.868263 0.560296 0.126481
O O7 0.750000 0.560140 0.000000
O O8 0.823761 0.494367 0.922454
O O9 0.897807 0.552383 0.763747
O O10 0.565978 0.849681 0.786361
O O11 0.486319 0.933229 0.761393
O O12 0.546447 0.894537 0.522359
O O13 0.318184 0.165847 0.260218
O O14 0.750000 0.250000 0.750000
O O15 0.750000 0.190267 0.000000
#
# Coordination Sequence:
#
# PCOD9529877 Si02
#       7
#    16  16   8  16  16  16  16
#     4  11  22  39  62  98 134 183 233 289 354 419
#     4  11  25  47  76 105 144 179 233 294 365 425
#     4  10  26  46  72 106 140 180 234 298 344 428
#     4  11  25  45  67  98 137 180 235 283 355 414
#     4  11  22  39  65  92 139 182 234 291 349 420
#     4  10  18  33  57  88 127 169 223 278 341 406
#     4  11  26  43  69 102 137 182 233 290 354 431
#
# _framework density 22.173351
#
# number of rings (size 3 to 8) (size 9 to 14) (size 15 to 20)
#    0.000    1.231    0.769    6.923    5.385    4.923 
#    0.000    3.077    0.000    0.000    0.000    0.000 
#    0.000    0.000    0.000    0.000    0.000    0.000 
#
# Total GULP energy -290193.092844 kJ/mol
# GULP energy per Si atom -5580.636401 kJ/mol
# Density = 2.212288 g / cm^3
# Si number density = 22.173351 Si / 1000 Ang^3
#
#
#
# Elastic Constant Matrix: (Units=GPa)
#
#
# Indices 1 2 3 4 5 6 
#
# 1 105.6083 23.1237 56.3365 0.0000 0.0000 0.0000
# 2 23.1237 47.3502 42.1913 0.0000 0.0000 0.0000
# 3 56.3365 42.1913 222.3619 0.0000 0.0000 0.0000
# 4 0.0000 0.0000 0.0000 21.4646 0.0000 0.0000
# 5 0.0000 0.0000 0.0000 0.0000 49.5173 0.0000
# 6 0.0000 0.0000 0.0000 0.0000 0.0000 26.3620
#
#
#
# Elastic Compliance Matrix: (Units=1/GPa)
#
#
# Indices 1 2 3 4 5 6 
#
# 1 0.011441 -0.003616 -0.002213 0.000000 0.000000 0.000000
# 2 -0.003616 0.026559 -0.004123 0.000000 0.000000 0.000000
# 3 -0.002213 -0.004123 0.005840 0.000000 0.000000 0.000000
# 4 0.000000 0.000000 0.000000 0.046588 0.000000 0.000000
# 5 0.000000 0.000000 0.000000 0.000000 0.020195 0.000000
# 6 0.000000 0.000000 0.000000 0.000000 0.000000 0.037933
#
#
# Mechanical properties :
#
#
# Convention : Reuss Voigt Hill
#
# Bulk Modulus (GPa) = 41.77647 68.73592 55.25620
# Shear Modulus (GPa) = 28.33841 36.38003 32.35922
#
# Velocity S-wave (km/s) = 3.57885 4.05496 3.82432
# Velocity P-wave (km/s) = 5.99660 7.27944 6.66894
#
# Compressibility (1/GPa) = 0.02393692
#
# Stress axis : x y z
#
# Youngs Moduli (GPa) = 87.40555 37.65192 171.23006
#
# Poissons Ratio (x) = 0.13614 0.37886
# Poissons Ratio (y) = 0.31603 0.70603
# Poissons Ratio (z) = 0.19339 0.15525
#
# Static dielectric constant tensor:
#      x y z
#    x 1.935960 0.000000 0.000000 
#    y 0.000000 1.742840 0.000000 
#    z 0.000000 0.000000 1.772550 
# 
# From -- ./inp_files/6536.got.cif
#   From: 2010.05.17/outbox.cif.g08.bks.cpg/sg73_4_cif.got.tgz:6536.got - 2010.06.03 17:35:07.
