data_PCOD9529384
_publ_section_title
;
Structure prediction by ZEFSAII (Michael W. Deem and Ramdas Pophale) SiO2 
 PCOD9529384
Probable space group: I B A M
;
_chemical_formula_sum "Si O2"
_cell_formula_units_Z 48
_cell_length_a 13.888133
_cell_length_b 7.269112
_cell_length_c 19.163139
_cell_angle_alpha 90.000000
_cell_angle_beta 90.000000
_cell_angle_gamma 90.000000
_cell_volume 1934.603090
_symmetry_space_group_name_H-M "I B A M"
_symmetry_group_IT_number 72
_symmetry_cell_setting 'orthorhombic'
loop_
_space_group_symop_operation_xyz
x,y,z
-x,-y,z
x,-y,1/2-z
-x,y,1/2-z
-x,-y,-z
x,y,-z
-x,y,1/2+z
x,-y,1/2+z
1/2+x,1/2+y,1/2+z
1/2-x,1/2-y,1/2+z
1/2+x,1/2-y,-z
1/2-x,1/2+y,-z
1/2-x,1/2-y,1/2-z
1/2+x,1/2+y,1/2-z
1/2-x,1/2+y,z
1/2+x,1/2-y,z
loop_
_atom_site_type_symbol
_atom_site_label
_atom_site_fract_x
_atom_site_fract_y
_atom_site_fract_z
Si Si1 0.894830 0.409362 0.817128
Si Si2 0.609036 0.533159 0.877502
Si Si3 0.194176 0.670390 0.578628
O O1 0.843418 0.500000 0.750000
O O2 0.899743 0.187874 0.816691
O O3 0.849368 0.487467 0.887778
O O4 0.000000 0.500000 0.818149
O O5 0.500000 0.500000 0.903432
O O6 0.692272 0.628837 0.923291
O O7 0.655305 0.330810 0.870123
O O8 0.160620 0.709739 0.500000
#
# Coordination Sequence:
#
# PCOD9529384 Si02
#       3
#    16  16  16
#     4  11  26  51  77 112 154 205 266 322 390 464
#     4  12  26  49  78 114 155 205 258 324 387 460
#     4  12  27  47  74 114 157 204 262 321 389 462
#
# _framework density 24.811292000000002
#
# number of rings (size 3 to 8) (size 9 to 14) (size 15 to 20)
#    0.000    0.333    6.667    1.000    0.000    7.333 
#    0.000    0.000    0.000    0.000    0.000    0.000 
#    0.000    0.000    0.000    0.000    0.000    0.000 
#
# Total GULP energy -133717.814338 kJ/mol
# GULP energy per Si atom -5571.575597 kJ/mol
# Density = 2.475482 g / cm^3
# Si number density = 24.811292 Si / 1000 Ang^3
#
#
#
# Elastic Constant Matrix: (Units=GPa)
#
#
# Indices 1 2 3 4 5 6 
#
# 1 150.7114 31.3211 23.7296 0.0000 0.0000 0.0000
# 2 31.3211 191.8467 31.0356 0.0000 0.0000 0.0000
# 3 23.7296 31.0356 74.5415 0.0000 0.0000 0.0000
# 4 0.0000 0.0000 0.0000 2.6795 0.0000 0.0000
# 5 0.0000 0.0000 0.0000 0.0000 13.4636 0.0000
# 6 0.0000 0.0000 0.0000 0.0000 0.0000 51.1849
#
#
#
# Elastic Compliance Matrix: (Units=1/GPa)
#
#
# Indices 1 2 3 4 5 6 
#
# 1 0.007113 -0.000852 -0.001909 0.000000 0.000000 0.000000
# 2 -0.000852 0.005691 -0.002098 0.000000 0.000000 0.000000
# 3 -0.001909 -0.002098 0.014897 0.000000 0.000000 0.000000
# 4 0.000000 0.000000 0.000000 0.373201 0.000000 0.000000
# 5 0.000000 0.000000 0.000000 0.000000 0.074274 0.000000
# 6 0.000000 0.000000 0.000000 0.000000 0.000000 0.019537
#
#
# Mechanical properties :
#
#
# Convention : Reuss Voigt Hill
#
# Bulk Modulus (GPa) = 55.61470 65.47469 60.54469
# Shear Modulus (GPa) = 9.79571 35.53315 22.66443
#
# Velocity S-wave (km/s) = 1.98914 3.78846 3.02565
# Velocity P-wave (km/s) = 5.26681 6.75152 6.05484
#
# Compressibility (1/GPa) = 0.01798086
#
# Stress axis : x y z
#
# Youngs Moduli (GPa) = 140.58792 175.71354 67.12860
#
# Poissons Ratio (x) = 0.14977 0.12818
# Poissons Ratio (y) = 0.11983 0.14085
# Poissons Ratio (z) = 0.26845 0.36867
#
# Static dielectric constant tensor:
#      x y z
#    x 2.020660 0.000000 0.000000 
#    y 0.000000 1.975910 0.000000 
#    z 0.000000 0.000000 2.084070 
# 
# From -- ./inp_files/37544.got.cif
#   From: 2010.05.17/outbox.cif.g08.bks.cpg/sg72_19_cif.got.tgz:37544.got - 2010.06.03 17:03:01.
