data_PCOD9529537
_publ_section_title
;
Structure prediction by ZEFSAII (Michael W. Deem and Ramdas Pophale) SiO2 
 PCOD9529537
Probable space group: I B A M
;
_chemical_formula_sum "Si O2"
_cell_formula_units_Z 56
_cell_length_a 30.000000
_cell_length_b 12.000000
_cell_length_c 15.000000
_cell_angle_alpha 90.000000
_cell_angle_beta 90.000000
_cell_angle_gamma 90.000000
_cell_volume 5400.000000
_symmetry_space_group_name_H-M "I B A M"
_symmetry_group_IT_number 72
_symmetry_cell_setting 'orthorhombic'
loop_
_space_group_symop_operation_xyz
x,y,z
-x,-y,z
x,-y,1/2-z
-x,y,1/2-z
-x,-y,-z
x,y,-z
-x,y,1/2+z
x,-y,1/2+z
1/2+x,1/2+y,1/2+z
1/2-x,1/2-y,1/2+z
1/2+x,1/2-y,-z
1/2-x,1/2+y,-z
1/2-x,1/2-y,1/2-z
1/2+x,1/2+y,1/2-z
1/2-x,1/2+y,z
1/2+x,1/2-y,z
loop_
_atom_site_type_symbol
_atom_site_label
_atom_site_fract_x
_atom_site_fract_y
_atom_site_fract_z
Si Si1 0.427676 0.671399 0.890983
Si Si2 0.887331 0.949100 0.392971
Si Si3 0.542957 0.056176 0.346950
Si Si4 0.295509 0.123513 0.298532
Si Si5 0.113852 0.603597 0.602396
Si Si6 0.972913 0.192259 0.108512
Si Si7 0.697226 0.372636 0.705229
O O1 0.392785 0.577254 0.861292
O O2 0.414690 0.794045 0.857549
O O3 0.478493 0.649082 0.864479
O O4 0.427963 0.668007 0.000000
O O5 0.884335 0.950808 0.500000
O O6 0.933213 0.889472 0.367522
O O7 0.845805 0.882062 0.355894
O O8 0.536096 0.186737 0.350602
O O9 0.500000 0.000000 0.393662
O O10 0.544267 0.000000 0.250000
O O11 0.588958 0.013320 0.387281
O O12 0.337237 0.108220 0.361103
O O13 0.303474 0.248719 0.253783
O O14 0.246109 0.131183 0.339349
O O15 0.295120 0.000000 0.250000
O O16 0.115827 0.629850 0.500000
O O17 0.972897 0.204728 0.000000
O O18 0.696721 0.500000 0.750000
#
# Coordination Sequence:
#
# PCOD9529537 Si02
#       7
#    16  16  16  16  16  16  16
#     4   9  18  35  57  84 119 157 193 235 291 353
#     4  10  21  36  61  91 116 151 202 252 296 352
#     4  11  23  37  54  82 120 161 199 243 291 352
#     4  10  23  42  64  88 120 157 200 250 313 371
#     4  11  22  36  61  88 117 157 199 245 298 357
#     4  10  20  36  58  84 120 159 198 239 290 354
#     4  10  22  43  65  86 118 164 198 245 315 374
#
# _framework density 10.370369999999999
#
# number of rings (size 3 to 8) (size 9 to 14) (size 15 to 20)
#    0.000    1.857    1.429    2.143    4.000    2.857 
#    0.000    0.000    0.000    6.000    0.000    0.000 
#    0.000    0.000    0.000    0.000    0.000    0.000 
#
# Total GULP energy -311836.244673 kJ/mol
# GULP energy per Si atom -5568.504369 kJ/mol
# Density = 1.034677 g / cm^3
# Si number density = 10.370370 Si / 1000 Ang^3
#
#
#
# Elastic Constant Matrix: (Units=GPa)
#
#
# Indices 1 2 3 4 5 6 
#
# 1 107.8974 9.2465 31.8098 0.0000 0.0000 0.0000
# 2 9.2465 103.2029 6.4706 0.0000 0.0000 0.0000
# 3 31.8098 6.4706 20.5467 0.0000 0.0000 0.0000
# 4 0.0000 0.0000 0.0000 18.1730 0.0000 0.0000
# 5 0.0000 0.0000 0.0000 0.0000 26.9893 0.0000
# 6 0.0000 0.0000 0.0000 0.0000 0.0000 47.0407
#
#
#
# Elastic Compliance Matrix: (Units=1/GPa)
#
#
# Indices 1 2 3 4 5 6 
#
# 1 0.017052 0.000130 -0.026440 0.000000 0.000000 0.000000
# 2 0.000130 0.009886 -0.003315 0.000000 0.000000 0.000000
# 3 -0.026440 -0.003315 0.090647 0.000000 0.000000 0.000000
# 4 0.000000 0.000000 0.000000 0.055027 0.000000 0.000000
# 5 0.000000 0.000000 0.000000 0.000000 0.037052 0.000000
# 6 0.000000 0.000000 0.000000 0.000000 0.000000 0.021258
#
#
# Mechanical properties :
#
#
# Convention : Reuss Voigt Hill
#
# Bulk Modulus (GPa) = 17.14221 36.30011 26.72116
# Shear Modulus (GPa) = 16.14903 30.71527 23.43215
#
# Velocity S-wave (km/s) = 2.79339 3.85244 3.36484
# Velocity P-wave (km/s) = 4.32285 6.10968 5.29222
#
# Compressibility (1/GPa) = 0.05833554
#
# Stress axis : x y z
#
# Youngs Moduli (GPa) = 58.64451 101.15506 11.03178
#
# Poissons Ratio (x) = -0.01315 0.29168
# Poissons Ratio (y) = -0.00762 0.03656
# Poissons Ratio (z) = 1.55057 0.33528
#
# Static dielectric constant tensor:
#      x y z
#    x 1.967790 0.000000 0.000000 
#    y 0.000000 1.779930 0.000000 
#    z 0.000000 0.000000 1.804040 
# 
# From -- ./inp_files/26422.got.cif
#   From: 2010.05.17/outbox.ucp.g08.bks.cvg/sg72_14_cif.got.tgz:26422.got - 2010.06.11 16:33:07.
