data_PCOD9529879
_publ_section_title
;
Structure prediction by ZEFSAII (Michael W. Deem and Ramdas Pophale) SiO2 
 PCOD9529879
Probable space group: I B C A 
;
_chemical_formula_sum "Si O2"
_cell_formula_units_Z 104
_cell_length_a 18.282038
_cell_length_b 10.575840
_cell_length_c 24.861458
_cell_angle_alpha 90.000000
_cell_angle_beta 90.000000
_cell_angle_gamma 90.000000
_cell_volume 4806.910913
_symmetry_space_group_name_H-M "I B C A "
_symmetry_group_IT_number 73
_symmetry_cell_setting 'orthorhombic'
loop_
_space_group_symop_operation_xyz
x,y,z
-x,1/2-y,z
x,-y,1/2-z
1/2-x,y,-z
-x,-y,-z
x,1/2+y,-z
-x,y,1/2+z
1/2+x,-y,z
1/2+x,1/2+y,1/2+z
1/2-x,-y,1/2+z
1/2+x,1/2-y,-z
-x,1/2+y,1/2-z
1/2-x,1/2-y,1/2-z
1/2+x,y,1/2-z
1/2-x,1/2+y,z
x,1/2-y,1/2+z
loop_
_atom_site_type_symbol
_atom_site_label
_atom_site_fract_x
_atom_site_fract_y
_atom_site_fract_z
Si Si1 0.750000 0.258009 0.000000
Si Si2 0.030304 0.075360 0.329560
Si Si3 0.566717 0.148854 0.398808
Si Si4 0.895570 0.925757 0.012488
Si Si5 0.500000 0.750000 0.918364
Si Si6 0.324658 0.868661 0.087241
Si Si7 0.617256 0.950133 0.692409
Si Si8 0.000000 0.750000 0.266076
O O1 0.820308 0.346908 0.993671
O O2 0.745141 0.166685 0.948014
O O3 0.049598 0.170073 0.377218
O O4 0.038804 0.145560 0.272897
O O5 0.063334 0.941436 0.347062
O O6 0.942842 0.048341 0.330286
O O7 0.500000 0.250000 0.401655
O O8 0.570274 0.063925 0.452862
O O9 0.637599 0.235469 0.399981
O O10 0.951638 0.840711 0.045600
O O11 0.876095 0.050856 0.046410
O O12 0.323541 0.933417 0.145498
O O13 0.565325 0.826816 0.704199
O O14 0.644208 0.000000 0.750000
#
# Coordination Sequence:
#
# PCOD9529879 Si02
#       8
#     8  16  16  16   8  16  16   8
#     4  10  26  42  60  90 124 176 210 266 328 408
#     4  10  20  33  53  93 131 164 199 260 323 373
#     4  11  20  31  57  90 128 163 203 257 317 385
#     4  11  23  38  60  90 126 167 218 261 329 395
#     4  11  20  34  59  92 124 163 204 268 315 378
#     4  11  22  41  61  86 128 169 214 260 328 390
#     4  10  18  33  58  89 122 171 208 256 313 385
#     4   9  20  34  57  88 136 169 206 258 327 376
#
# _framework density 21.635515000000002
#
# number of rings (size 3 to 8) (size 9 to 14) (size 15 to 20)
#    0.000    1.538    3.846    1.385    4.308    1.231 
#    0.000    0.000    0.000    0.923    0.000    0.000 
#    0.000    0.000    0.000    0.000    0.000    0.000 
#
# Total GULP energy -290098.121630 kJ/mol
# GULP energy per Si atom -5578.810031 kJ/mol
# Density = 2.158627 g / cm^3
# Si number density = 21.635515 Si / 1000 Ang^3
#
#
#
# Elastic Constant Matrix: (Units=GPa)
#
#
# Indices 1 2 3 4 5 6 
#
# 1 35.4213 10.0871 21.4766 0.0000 0.0000 0.0000
# 2 10.0871 101.6577 43.6645 0.0000 0.0000 0.0000
# 3 21.4766 43.6645 161.3527 0.0000 0.0000 0.0000
# 4 0.0000 0.0000 0.0000 44.8579 0.0000 0.0000
# 5 0.0000 0.0000 0.0000 0.0000 5.8703 0.0000
# 6 0.0000 0.0000 0.0000 0.0000 0.0000 19.1730
#
#
#
# Elastic Compliance Matrix: (Units=1/GPa)
#
#
# Indices 1 2 3 4 5 6 
#
# 1 0.030903 -0.001471 -0.003715 0.000000 0.000000 0.000000
# 2 -0.001471 0.011201 -0.002835 0.000000 0.000000 0.000000
# 3 -0.003715 -0.002835 0.007459 0.000000 0.000000 0.000000
# 4 0.000000 0.000000 0.000000 0.022293 0.000000 0.000000
# 5 0.000000 0.000000 0.000000 0.000000 0.170350 0.000000
# 6 0.000000 0.000000 0.000000 0.000000 0.000000 0.052157
#
#
# Mechanical properties :
#
#
# Convention : Reuss Voigt Hill
#
# Bulk Modulus (GPa) = 29.83232 49.87644 39.85438
# Shear Modulus (GPa) = 15.54830 28.86047 22.20439
#
# Velocity S-wave (km/s) = 2.68367 3.65628 3.20706
# Velocity P-wave (km/s) = 4.83955 6.39747 5.67225
#
# Compressibility (1/GPa) = 0.03352069
#
# Stress axis : x y z
#
# Youngs Moduli (GPa) = 32.35924 89.28011 134.05876
#
# Poissons Ratio (x) = 0.13129 0.49807
# Poissons Ratio (y) = 0.04759 0.38010
# Poissons Ratio (z) = 0.12023 0.25314
#
# Static dielectric constant tensor:
#      x y z
#    x 1.763380 0.000000 0.000000 
#    y 0.000000 1.864310 0.000000 
#    z 0.000000 0.000000 1.873540 
# 
# From -- ./inp_files/32439.got.cif
#   From: 2010.05.17/outbox.cif.g08.bks.cpg/sg73_17_cif.got.tgz:32439.got - 2010.06.03 17:35:07.
