data_PCOD9529141
_publ_section_title
;
Structure prediction by ZEFSAII (Michael W. Deem and Ramdas Pophale) SiO2 
 PCOD9529141
Probable space group: I B A M
;
_chemical_formula_sum "Si O2"
_cell_formula_units_Z 96
_cell_length_a 23.642116
_cell_length_b 8.351307
_cell_length_c 26.096763
_cell_angle_alpha 90.000000
_cell_angle_beta 90.000000
_cell_angle_gamma 90.000000
_cell_volume 5152.611925
_symmetry_space_group_name_H-M "I B A M"
_symmetry_group_IT_number 72
_symmetry_cell_setting 'orthorhombic'
loop_
_space_group_symop_operation_xyz
x,y,z
-x,-y,z
x,-y,1/2-z
-x,y,1/2-z
-x,-y,-z
x,y,-z
-x,y,1/2+z
x,-y,1/2+z
1/2+x,1/2+y,1/2+z
1/2-x,1/2-y,1/2+z
1/2+x,1/2-y,-z
1/2-x,1/2+y,-z
1/2-x,1/2-y,1/2-z
1/2+x,1/2+y,1/2-z
1/2-x,1/2+y,z
1/2+x,1/2-y,z
loop_
_atom_site_type_symbol
_atom_site_label
_atom_site_fract_x
_atom_site_fract_y
_atom_site_fract_z
Si Si1 0.810581 0.185080 0.308871
Si Si2 0.170531 0.329177 0.500000
Si Si3 0.294009 0.198203 0.500000
Si Si4 0.183877 0.798903 0.193162
Si Si5 0.392985 0.301040 0.098666
Si Si6 0.006733 0.309055 0.058845
Si Si7 0.871573 0.819786 0.910118
O O1 0.826590 0.248288 0.252371
O O2 0.746116 0.234523 0.320376
O O3 0.851298 0.238303 0.354410
O O4 0.813105 0.992115 0.307586
O O5 0.227091 0.222647 0.500000
O O6 0.189685 0.512516 0.500000
O O7 0.134672 0.291058 0.550676
O O8 0.322721 0.278635 0.450557
O O9 0.137510 0.749525 0.151355
O O10 0.459724 0.269142 0.095263
O O11 0.381110 0.489485 0.091338
O O12 0.070134 0.261208 0.073128
O O13 0.000000 0.500000 0.060877
O O14 0.996032 0.256500 0.000000
#
# Coordination Sequence:
#
# PCOD9529141 Si02
#       7
#    16   8   8  16  16  16  16
#     4   9  19  36  58  85 115 147 184 227 278 332
#     4  12  24  37  54  81 116 148 182 230 282 334
#     4  12  24  37  54  81 116 148 182 230 282 334
#     4   9  19  36  58  85 115 147 184 227 278 332
#     4  11  22  37  59  84 111 147 189 232 279 335
#     4  11  23  39  58  81 111 151 190 233 281 334
#     4  11  22  37  59  84 111 147 189 232 279 335
#
# _framework density 18.631326999999999
#
# number of rings (size 3 to 8) (size 9 to 14) (size 15 to 20)
#    0.000    1.500    1.667    4.000    0.000    6.000 
#    0.000    0.833    0.000    5.000    0.000    0.000 
#    0.000    0.000    0.000    0.000    0.000    0.000 
#
# Total GULP energy -268233.690279 kJ/mol
# GULP energy per Si atom -5588.201881 kJ/mol
# Density = 1.858892 g / cm^3
# Si number density = 18.631327 Si / 1000 Ang^3
#
#
#
# Elastic Constant Matrix: (Units=GPa)
#
#
# Indices 1 2 3 4 5 6 
#
# 1 57.1823 -20.4723 32.3077 0.0000 0.0000 0.0000
# 2 -20.4723 21.5390 0.3386 0.0000 0.0000 0.0000
# 3 32.3077 0.3386 98.4961 0.0000 0.0000 0.0000
# 4 0.0000 0.0000 0.0000 -10.4475 0.0000 0.0000
# 5 0.0000 0.0000 0.0000 0.0000 31.2084 0.0000
# 6 0.0000 0.0000 0.0000 0.0000 0.0000 33.1897
#
#
#
# Elastic Compliance Matrix: (Units=1/GPa)
#
#
# Indices 1 2 3 4 5 6 
#
# 1 0.037156 0.035509 -0.012309 0.000000 0.000000 0.000000
# 2 0.035509 0.080365 -0.011924 0.000000 0.000000 0.000000
# 3 -0.012309 -0.011924 0.014231 0.000000 0.000000 0.000000
# 4 0.000000 0.000000 0.000000 -0.095716 0.000000 0.000000
# 5 0.000000 0.000000 0.000000 0.000000 0.032043 0.000000
# 6 0.000000 0.000000 0.000000 0.000000 0.000000 0.030130
#
#
# Mechanical properties :
#
#
# Convention : Reuss Voigt Hill
#
# Bulk Modulus (GPa) = 6.48070 22.39616 14.43843
# Shear Modulus (GPa) = 39.34184 21.79301 30.56742
#
# Velocity S-wave (km/s) = 4.60020 3.42379 4.05488
# Velocity P-wave (km/s) = 5.63042 5.26086 5.44877
#
# Compressibility (1/GPa) = 0.15430428
#
# Stress axis : x y z
#
# Youngs Moduli (GPa) = 26.91381 12.44317 70.26758
#
# Poissons Ratio (x) = -0.44185 0.86496
# Poissons Ratio (y) = -0.95568 0.83784
# Poissons Ratio (z) = 0.33130 0.14837
#
# Static dielectric constant tensor:
#      x y z
#    x 1.607500 0.000000 0.000000 
#    y 0.000000 1.641930 0.000000 
#    z 0.000000 0.000000 1.652860 
# 
# From -- ./inp_files/45636.got.cif
#   From: 2010.05.17/outbox.cif.g08.bks.cpg/sg72_23_cif.got.tgz:45636.got - 2010.06.03 17:03:01.
