data_PCOD9529495
_publ_section_title
;
Structure prediction by ZEFSAII (Michael W. Deem and Ramdas Pophale) SiO2 
 PCOD9529495
Probable space group: I B A M
;
_chemical_formula_sum "Si O2"
_cell_formula_units_Z 48
_cell_length_a 15.000000
_cell_length_b 21.000000
_cell_length_c 15.000000
_cell_angle_alpha 90.000000
_cell_angle_beta 90.000000
_cell_angle_gamma 90.000000
_cell_volume 4725.000000
_symmetry_space_group_name_H-M "I B A M"
_symmetry_group_IT_number 72
_symmetry_cell_setting 'orthorhombic'
loop_
_space_group_symop_operation_xyz
x,y,z
-x,-y,z
x,-y,1/2-z
-x,y,1/2-z
-x,-y,-z
x,y,-z
-x,y,1/2+z
x,-y,1/2+z
1/2+x,1/2+y,1/2+z
1/2-x,1/2-y,1/2+z
1/2+x,1/2-y,-z
1/2-x,1/2+y,-z
1/2-x,1/2-y,1/2-z
1/2+x,1/2+y,1/2-z
1/2-x,1/2+y,z
1/2+x,1/2-y,z
loop_
_atom_site_type_symbol
_atom_site_label
_atom_site_fract_x
_atom_site_fract_y
_atom_site_fract_z
Si Si1 0.637178 0.972488 0.844872
Si Si2 0.940667 0.725266 0.898136
Si Si3 0.348726 0.746587 0.601158
Si Si4 0.031872 0.409784 0.101336
Si Si5 0.772195 0.871578 0.099566
Si Si6 0.102743 0.165948 0.761665
O O1 0.550974 0.926575 0.836329
O O2 0.708311 0.931716 0.895966
O O3 0.665910 0.000000 0.750000
O O4 0.598089 0.031611 0.898316
O O5 0.917733 0.653773 0.872569
O O6 0.902652 0.772817 0.826660
O O7 0.048202 0.730321 0.895243
O O8 0.912709 0.738101 0.000000
O O9 0.330540 0.724859 0.500000
O O10 0.285597 0.807307 0.618221
O O11 0.348036 0.689850 0.672765
O O12 0.997426 0.399595 0.000000
O O13 0.841807 0.881721 0.178515
O O14 0.810572 0.865886 0.000000
O O15 0.000000 0.146147 0.750000
#
# Coordination Sequence:
#
# PCOD9529495 Si02
#       6
#    16  16  16  16  16  16
#     4  11  22  31  51  79 111 150 194 232 276 329
#     4   9  17  30  51  81 117 156 191 226 270 329
#     4   9  18  32  52  77 112 151 184 224 276 331
#     4  10  18  32  52  78 116 159 194 224 265 332
#     4  11  21  37  56  79 112 151 187 229 285 342
#     4  10  21  34  56  82 112 144 190 236 280 335
#
# _framework density 10.15873
#
# number of rings (size 3 to 8) (size 9 to 14) (size 15 to 20)
#    0.000    2.000    1.667    4.000    2.333    2.000 
#    0.000    0.000    0.000    2.500    0.000    1.167 
#    0.000    0.000    0.000    0.000    0.000    0.000 
#
# Total GULP energy -267727.561230 kJ/mol
# GULP energy per Si atom -5577.657526 kJ/mol
# Density = 1.013561 g / cm^3
# Si number density = 10.158730 Si / 1000 Ang^3
#
#
#
# Elastic Constant Matrix: (Units=GPa)
#
#
# Indices 1 2 3 4 5 6 
#
# 1 41.1143 42.7899 33.5496 0.0000 0.0000 0.0000
# 2 42.7899 27.4163 8.3457 0.0000 0.0000 0.0000
# 3 33.5496 8.3457 82.6284 0.0001 0.0000 0.0000
# 4 0.0000 0.0000 0.0001 24.2517 0.0000 0.0000
# 5 0.0000 0.0000 0.0000 0.0000 20.7248 0.0000
# 6 0.0000 0.0000 0.0000 0.0000 0.0000 19.5170
#
#
#
# Elastic Compliance Matrix: (Units=1/GPa)
#
#
# Indices 1 2 3 4 5 6 
#
# 1 -0.032331 0.047939 0.008286 0.000000 0.000000 0.000000
# 2 0.047939 -0.033449 -0.016086 0.000000 0.000000 0.000000
# 3 0.008286 -0.016086 0.010363 0.000000 0.000000 0.000000
# 4 0.000000 0.000000 0.000000 0.041234 0.000000 0.000000
# 5 0.000000 0.000000 0.000000 0.000000 0.048251 0.000000
# 6 0.000000 0.000000 0.000000 0.000000 0.000000 0.051237
#
#
# Mechanical properties :
#
#
# Convention : Reuss Voigt Hill
#
# Bulk Modulus (GPa) = 40.22694 35.61439 37.92066
# Shear Modulus (GPa) = 375.51144 17.33028 196.42086
#
# Velocity S-wave (km/s) = 13.60968 2.92374 9.84306
# Velocity P-wave (km/s) = 16.33421 5.38189 12.16082
#
# Compressibility (1/GPa) = 0.02485896
#
# Stress axis : x y z
#
# Youngs Moduli (GPa) = -30.92974 -29.89608 96.49757
#
# Poissons Ratio (x) = 1.43319 -0.79953
# Poissons Ratio (y) = 1.48274 1.55228
# Poissons Ratio (z) = 0.25627 -0.48091
#
# Static dielectric constant tensor:
#      x y z
#    x 1.779850 0.000000 0.000000 
#    y 0.000000 1.740970 0.000000 
#    z 0.000000 0.000000 1.801520 
# 
# From -- ./inp_files/21877.got.cif
#   From: 2010.05.17/outbox.ucp.g08.bks.cvg/sg72_11_cif.got.tgz:21877.got - 2010.06.11 16:33:07.
