data_PCOD9529445
_publ_section_title
;
Structure prediction by ZEFSAII (Michael W. Deem and Ramdas Pophale) SiO2 
 PCOD9529445
Probable space group: I B A M
;
_chemical_formula_sum "Si O2"
_cell_formula_units_Z 88
_cell_length_a 17.259271
_cell_length_b 11.956831
_cell_length_c 17.871092
_cell_angle_alpha 90.000000
_cell_angle_beta 90.000000
_cell_angle_gamma 90.000000
_cell_volume 3687.989105
_symmetry_space_group_name_H-M "I B A M"
_symmetry_group_IT_number 72
_symmetry_cell_setting 'orthorhombic'
loop_
_space_group_symop_operation_xyz
x,y,z
-x,-y,z
x,-y,1/2-z
-x,y,1/2-z
-x,-y,-z
x,y,-z
-x,y,1/2+z
x,-y,1/2+z
1/2+x,1/2+y,1/2+z
1/2-x,1/2-y,1/2+z
1/2+x,1/2-y,-z
1/2-x,1/2+y,-z
1/2-x,1/2-y,1/2-z
1/2+x,1/2+y,1/2-z
1/2-x,1/2+y,z
1/2+x,1/2-y,z
loop_
_atom_site_type_symbol
_atom_site_label
_atom_site_fract_x
_atom_site_fract_y
_atom_site_fract_z
Si Si1 0.911039 0.294300 0.000000
Si Si2 0.640884 0.441270 0.332178
Si Si3 0.091199 0.714464 0.234793
Si Si4 0.379725 0.529237 0.500000
Si Si5 0.919887 0.456069 0.874564
Si Si6 0.766682 0.169128 0.500000
Si Si7 0.689887 0.153676 0.874338
O O1 0.947134 0.357423 0.929916
O O2 0.824346 0.341127 0.000000
O O3 0.899697 0.161629 0.000000
O O4 0.636143 0.500000 0.250000
O O5 0.601520 0.322544 0.316109
O O6 0.602198 0.493454 0.408858
O O7 0.730300 0.408722 0.351439
O O8 0.124473 0.607763 0.190370
O O9 0.143528 0.714955 0.308064
O O10 0.000000 0.704313 0.250000
O O11 0.302653 0.453638 0.500000
O O12 0.868308 0.557421 0.904177
O O13 0.000000 0.500000 0.842751
O O14 0.790147 0.247302 0.430889
#
# Coordination Sequence:
#
# PCOD9529445 Si02
#       7
#     8  16  16   8  16   8  16
#     4  12  24  45  72 110 149 195 250 315 395 454
#     4  12  25  47  76 111 150 207 260 313 397 467
#     4  12  25  44  69 107 153 197 253 324 390 465
#     4  12  24  47  71 105 155 190 251 328 375 469
#     4  12  24  44  75 107 154 194 251 321 396 465
#     4  12  25  46  72 108 148 198 253 322 389 462
#     4  12  24  44  73 113 148 198 257 321 384 471
#
# _framework density 23.861242000000001
#
# number of rings (size 3 to 8) (size 9 to 14) (size 15 to 20)
#    0.000    0.000    5.455    5.182    0.000    0.364 
#    0.000    0.909    0.000    4.364    0.000    0.000 
#    0.000    0.000    0.000    0.000    0.000    0.000 
#
# Total GULP energy -245249.423184 kJ/mol
# GULP energy per Si atom -5573.850527 kJ/mol
# Density = 2.380693 g / cm^3
# Si number density = 23.861242 Si / 1000 Ang^3
#
#
#
# Elastic Constant Matrix: (Units=GPa)
#
#
# Indices 1 2 3 4 5 6 
#
# 1 55.3071 11.0580 10.4164 0.0000 0.0000 0.0000
# 2 11.0580 52.6528 11.8977 0.0000 0.0000 0.0000
# 3 10.4164 11.8977 151.2299 0.0000 0.0000 0.0000
# 4 0.0000 0.0000 0.0000 61.6553 0.0000 0.0000
# 5 0.0000 0.0000 0.0000 0.0000 7.5604 0.0000
# 6 0.0000 0.0000 0.0000 0.0000 0.0000 20.4301
#
#
#
# Elastic Compliance Matrix: (Units=1/GPa)
#
#
# Indices 1 2 3 4 5 6 
#
# 1 0.019025 -0.003766 -0.001014 0.000000 0.000000 0.000000
# 2 -0.003766 0.020082 -0.001320 0.000000 0.000000 0.000000
# 3 -0.001014 -0.001320 0.006786 0.000000 0.000000 0.000000
# 4 0.000000 0.000000 0.000000 0.016219 0.000000 0.000000
# 5 0.000000 0.000000 0.000000 0.000000 0.132268 0.000000
# 6 0.000000 0.000000 0.000000 0.000000 0.000000 0.048947
#
#
# Mechanical properties :
#
#
# Convention : Reuss Voigt Hill
#
# Bulk Modulus (GPa) = 29.68159 36.21487 32.94823
# Shear Modulus (GPa) = 18.74344 32.98368 25.86356
#
# Velocity S-wave (km/s) = 2.80575 3.72198 3.29586
# Velocity P-wave (km/s) = 4.79193 5.80354 5.32182
#
# Compressibility (1/GPa) = 0.03369092
#
# Stress axis : x y z
#
# Youngs Moduli (GPa) = 52.56268 49.79655 147.35835
#
# Poissons Ratio (x) = 0.18755 0.14943
# Poissons Ratio (y) = 0.19797 0.19458
# Poissons Ratio (z) = 0.05330 0.06575
#
# Static dielectric constant tensor:
#      x y z
#    x 1.835640 0.000000 0.000000 
#    y 0.000000 1.884560 0.000000 
#    z 0.000000 0.000000 2.034750 
# 
# From -- ./inp_files/32531.got.cif
#   From: 2010.05.17/outbox.cif.g08.bks.cpg/sg72_17_cif.got.tgz:32531.got - 2010.06.03 17:03:01.
