data_PCOD9529863
_publ_section_title
;
Structure prediction by ZEFSAII (Michael W. Deem and Ramdas Pophale) SiO2 
 PCOD9529863
Probable space group: I B C A 
;
_chemical_formula_sum "Si O2"
_cell_formula_units_Z 72
_cell_length_a 25.817188
_cell_length_b 13.782086
_cell_length_c 7.634097
_cell_angle_alpha 90.000000
_cell_angle_beta 90.000000
_cell_angle_gamma 90.000000
_cell_volume 2716.323974
_symmetry_space_group_name_H-M "I B C A "
_symmetry_group_IT_number 73
_symmetry_cell_setting 'orthorhombic'
loop_
_space_group_symop_operation_xyz
x,y,z
-x,1/2-y,z
x,-y,1/2-z
1/2-x,y,-z
-x,-y,-z
x,1/2+y,-z
-x,y,1/2+z
1/2+x,-y,z
1/2+x,1/2+y,1/2+z
1/2-x,-y,1/2+z
1/2+x,1/2-y,-z
-x,1/2+y,1/2-z
1/2-x,1/2-y,1/2-z
1/2+x,y,1/2-z
1/2-x,1/2+y,z
x,1/2-y,1/2+z
loop_
_atom_site_type_symbol
_atom_site_label
_atom_site_fract_x
_atom_site_fract_y
_atom_site_fract_z
Si Si1 0.530964 0.381404 0.761830
Si Si2 0.079694 0.148075 0.600608
Si Si3 0.250000 0.826672 0.000000
Si Si4 0.318723 0.168325 0.197544
Si Si5 0.121238 0.045935 0.058193
O O1 0.525168 0.500000 0.750000
O O2 0.558371 0.334189 0.595165
O O3 0.473658 0.345768 0.794476
O O4 0.573880 0.378069 0.914515
O O5 0.128371 0.194913 0.699028
O O6 0.100131 0.038247 0.567085
O O7 0.282213 0.877656 0.152507
O O8 0.209555 0.759717 0.108775
O O9 0.332496 0.098241 0.038347
O O10 0.366214 0.000000 0.750000
#
# Coordination Sequence:
#
# PCOD9529863 Si02
#       5
#    16  16   8  16  16
#     4   9  16  28  54  99 138 159 180 220 318 415
#     4  10  18  32  61  96 129 158 188 246 317 386
#     4  10  28  46  64  78 106 180 236 272 296 342
#     4  11  22  44  65  84 116 162 225 265 309 367
#     4   9  19  34  63 101 132 157 188 251 326 391
#
# _framework density 26.506409000000001
#
# number of rings (size 3 to 8) (size 9 to 14) (size 15 to 20)
#    0.000    2.667    0.000    6.000    0.000    7.111 
#    0.000    6.667    0.000   16.000    0.000    0.000 
#    0.000    0.000    0.000    0.000    0.000    0.000 
#
# Total GULP energy -201381.361033 kJ/mol
# GULP energy per Si atom -5593.926695 kJ/mol
# Density = 2.644608 g / cm^3
# Si number density = 26.506409 Si / 1000 Ang^3
#
#
#
# Elastic Constant Matrix: (Units=GPa)
#
#
# Indices 1 2 3 4 5 6 
#
# 1 176.7327 50.3423 96.1805 0.0000 0.0000 0.0000
# 2 50.3423 59.8595 46.9446 0.0000 0.0000 0.0000
# 3 96.1805 46.9446 175.1666 0.0000 0.0000 0.0000
# 4 0.0000 0.0000 0.0000 27.1240 0.0000 0.0000
# 5 0.0000 0.0000 0.0000 0.0000 70.4952 0.0000
# 6 0.0000 0.0000 0.0000 0.0000 0.0000 39.7658
#
#
#
# Elastic Compliance Matrix: (Units=1/GPa)
#
#
# Indices 1 2 3 4 5 6 
#
# 1 0.008996 -0.004674 -0.003687 0.000000 0.000000 0.000000
# 2 -0.004674 0.023580 -0.003753 0.000000 0.000000 0.000000
# 3 -0.003687 -0.003753 0.008739 0.000000 0.000000 0.000000
# 4 0.000000 0.000000 0.000000 0.036868 0.000000 0.000000
# 5 0.000000 0.000000 0.000000 0.000000 0.014185 0.000000
# 6 0.000000 0.000000 0.000000 0.000000 0.000000 0.025147
#
#
# Mechanical properties :
#
#
# Convention : Reuss Voigt Hill
#
# Bulk Modulus (GPa) = 58.52386 88.74372 73.63379
# Shear Modulus (GPa) = 33.91214 42.02977 37.97096
#
# Velocity S-wave (km/s) = 3.58074 3.98634 3.78897
# Velocity P-wave (km/s) = 6.26280 7.39869 6.85432
#
# Compressibility (1/GPa) = 0.01708705
#
# Stress axis : x y z
#
# Youngs Moduli (GPa) = 111.15736 42.40850 114.42938
#
# Poissons Ratio (x) = 0.19824 0.42189
# Poissons Ratio (y) = 0.51960 0.42943
# Poissons Ratio (z) = 0.40983 0.15915
#
# Static dielectric constant tensor:
#      x y z
#    x 2.059950 0.000000 0.000000 
#    y 0.000000 2.150240 0.000000 
#    z 0.000000 0.000000 2.114860 
# 
# From -- ./inp_files/6002.got.cif
#   From: 2010.05.17/outbox.cif.g08.bks.cpg/sg73_4_cif.got.tgz:6002.got - 2010.06.03 17:35:07.
