data_PCOD9529755
_publ_section_title
;
Structure prediction by ZEFSAII (Michael W. Deem and Ramdas Pophale) SiO2 
 PCOD9529755
Probable space group: I B C A 
;
_chemical_formula_sum "Si O2"
_cell_formula_units_Z 80
_cell_length_a 23.667202
_cell_length_b 27.979358
_cell_length_c 5.352662
_cell_angle_alpha 90.000000
_cell_angle_beta 90.000000
_cell_angle_gamma 90.000000
_cell_volume 3544.495937
_symmetry_space_group_name_H-M "I B C A "
_symmetry_group_IT_number 73
_symmetry_cell_setting 'orthorhombic'
loop_
_space_group_symop_operation_xyz
x,y,z
-x,1/2-y,z
x,-y,1/2-z
1/2-x,y,-z
-x,-y,-z
x,1/2+y,-z
-x,y,1/2+z
1/2+x,-y,z
1/2+x,1/2+y,1/2+z
1/2-x,-y,1/2+z
1/2+x,1/2-y,-z
-x,1/2+y,1/2-z
1/2-x,1/2-y,1/2-z
1/2+x,y,1/2-z
1/2-x,1/2+y,z
x,1/2-y,1/2+z
loop_
_atom_site_type_symbol
_atom_site_label
_atom_site_fract_x
_atom_site_fract_y
_atom_site_fract_z
Si Si1 0.535461 0.880092 0.009456
Si Si2 0.927877 0.773536 0.142730
Si Si3 0.250000 0.627947 0.500000
Si Si4 0.338693 0.101914 0.863813
Si Si5 0.250000 0.469270 0.500000
Si Si6 0.805144 0.698593 0.601697
O O1 0.492447 0.890736 0.238256
O O2 0.594898 0.904527 0.090889
O O3 0.551958 0.824097 0.968122
O O4 0.944884 0.764876 0.430863
O O5 0.859733 0.771747 0.166446
O O6 0.301509 0.596702 0.387677
O O7 0.217827 0.663802 0.314609
O O8 0.303565 0.066111 0.038399
O O9 0.327364 0.158300 0.909105
O O10 0.242382 0.500000 0.750000
O O11 0.750000 0.725425 0.500000
#
# Coordination Sequence:
#
# PCOD9529755 Si02
#       6
#    16  16   8  16   8  16
#     4  11  26  43  69  92 120 179 235 270 317 380
#     4  11  25  39  57  86 128 165 216 285 337 372
#     4  10  17  36  68  87 126 172 214 282 321 378
#     4  10  22  40  65  98 135 167 219 269 318 395
#     4  12  25  40  70 111 140 166 194 256 349 404
#     4   9  20  34  59  85 120 177 214 265 322 395
#
# _framework density 22.570205999999999
#
# number of rings (size 3 to 8) (size 9 to 14) (size 15 to 20)
#    0.000    1.600    3.000    1.800   14.000    3.200 
#    0.000    0.000    0.000    3.600    0.000    0.000 
#    0.000    0.000    0.000    0.000    0.000    0.000 
#
# Total GULP energy -222887.081291 kJ/mol
# GULP energy per Si atom -5572.177032 kJ/mol
# Density = 2.251884 g / cm^3
# Si number density = 22.570206 Si / 1000 Ang^3
#
#
#
# Elastic Constant Matrix: (Units=GPa)
#
#
# Indices 1 2 3 4 5 6 
#
# 1 164.7708 5.1193 -0.4162 0.0000 0.0000 0.0000
# 2 5.1193 39.2207 -7.9064 0.0000 0.0000 0.0000
# 3 -0.4162 -7.9064 78.3853 0.0000 0.0000 0.0000
# 4 0.0000 0.0000 0.0000 26.6968 0.0000 0.0000
# 5 0.0000 0.0000 0.0000 0.0000 20.1961 0.0000
# 6 0.0000 0.0000 0.0000 0.0000 0.0000 13.6824
#
#
#
# Elastic Compliance Matrix: (Units=1/GPa)
#
#
# Indices 1 2 3 4 5 6 
#
# 1 0.006094 -0.000805 -0.000049 0.000000 0.000000 0.000000
# 2 -0.000805 0.026132 0.002632 0.000000 0.000000 0.000000
# 3 -0.000049 0.002632 0.013023 0.000000 0.000000 0.000000
# 4 0.000000 0.000000 0.000000 0.037458 0.000000 0.000000
# 5 0.000000 0.000000 0.000000 0.000000 0.049515 0.000000
# 6 0.000000 0.000000 0.000000 0.000000 0.000000 0.073086
#
#
# Mechanical properties :
#
#
# Convention : Reuss Voigt Hill
#
# Bulk Modulus (GPa) = 20.49020 30.66337 25.57678
# Shear Modulus (GPa) = 22.93361 31.15374 27.04367
#
# Velocity S-wave (km/s) = 3.19109 3.71927 3.46526
# Velocity P-wave (km/s) = 4.76189 5.66209 5.23139
#
# Compressibility (1/GPa) = 0.04880381
#
# Stress axis : x y z
#
# Youngs Moduli (GPa) = 164.09765 38.26679 76.78919
#
# Poissons Ratio (x) = 0.03081 0.00375
# Poissons Ratio (y) = 0.13214 -0.20208
# Poissons Ratio (z) = 0.00802 -0.10070
#
# Static dielectric constant tensor:
#      x y z
#    x 1.889770 0.000000 0.000000 
#    y 0.000000 1.829660 0.000000 
#    z 0.000000 0.000000 1.967500 
# 
# From -- ./inp_files/2222.got.cif
#   From: 2010.05.17/outbox.cif.g08.bks.cpg/sg73_2_cif.got.tgz:2222.got - 2010.06.03 17:35:07.
