data_PCOD9529685
_publ_section_title
;
Structure prediction by ZEFSAII (Michael W. Deem and Ramdas Pophale) SiO2 
 PCOD9529685
Probable space group: I B C A 
;
_chemical_formula_sum "Si O2"
_cell_formula_units_Z 88
_cell_length_a 21.518033
_cell_length_b 13.851741
_cell_length_c 13.381807
_cell_angle_alpha 90.000000
_cell_angle_beta 90.000000
_cell_angle_gamma 90.000000
_cell_volume 3988.611101
_symmetry_space_group_name_H-M "I B C A "
_symmetry_group_IT_number 73
_symmetry_cell_setting 'orthorhombic'
loop_
_space_group_symop_operation_xyz
x,y,z
-x,1/2-y,z
x,-y,1/2-z
1/2-x,y,-z
-x,-y,-z
x,1/2+y,-z
-x,y,1/2+z
1/2+x,-y,z
1/2+x,1/2+y,1/2+z
1/2-x,-y,1/2+z
1/2+x,1/2-y,-z
-x,1/2+y,1/2-z
1/2-x,1/2-y,1/2-z
1/2+x,y,1/2-z
1/2-x,1/2+y,z
x,1/2-y,1/2+z
loop_
_atom_site_type_symbol
_atom_site_label
_atom_site_fract_x
_atom_site_fract_y
_atom_site_fract_z
Si Si1 0.870319 0.869884 0.485494
Si Si2 0.234945 0.352948 0.387132
Si Si3 0.371081 0.313016 0.351438
Si Si4 0.750000 0.037648 0.000000
Si Si5 0.598208 0.733394 0.349439
Si Si6 0.561804 0.440399 0.026443
O O1 0.861635 0.790727 0.401904
O O2 0.805922 0.897922 0.537021
O O3 0.911293 0.815355 0.567057
O O4 0.895943 0.969195 0.443977
O O5 0.250000 0.314047 0.500000
O O6 0.300088 0.345290 0.328397
O O7 0.227904 0.466361 0.412031
O O8 0.170711 0.305359 0.351847
O O9 0.411241 0.287694 0.254591
O O10 0.404911 0.385109 0.431135
O O11 0.559741 0.640274 0.386802
O O12 0.500000 0.500000 0.000000
#
# Coordination Sequence:
#
# PCOD9529685 Si02
#       6
#    16  16  16   8  16  16
#     4  11  20  40  66  87 134 174 215 272 347 400
#     4  10  16  38  61  94 143 168 206 272 338 414
#     4  11  23  40  65  99 132 172 226 276 336 405
#     4  10  16  34  66  90 132 184 204 256 344 422
#     4  11  23  40  65  99 132 172 226 276 336 405
#     4  11  24  46  65  90 128 177 227 281 339 391
#
# _framework density 22.062818
#
# number of rings (size 3 to 8) (size 9 to 14) (size 15 to 20)
#    0.545    0.727    7.273    1.636    0.000    4.364 
#    0.000    7.273    0.000    0.000    0.000    0.000 
#    0.000    0.000    0.000    0.000    0.000    0.000 
#
# Total GULP energy -245055.626275 kJ/mol
# GULP energy per Si atom -5569.446052 kJ/mol
# Density = 2.201260 g / cm^3
# Si number density = 22.062818 Si / 1000 Ang^3
#
#
#
# Elastic Constant Matrix: (Units=GPa)
#
#
# Indices 1 2 3 4 5 6 
#
# 1 89.2297 21.0945 -8.0073 0.0000 0.0000 0.0000
# 2 21.0945 128.5013 3.2368 0.0000 0.0000 0.0000
# 3 -8.0073 3.2368 21.6553 0.0000 0.0000 0.0000
# 4 0.0000 0.0000 0.0000 4.4429 0.0000 0.0000
# 5 0.0000 0.0000 0.0000 0.0000 10.8290 0.0000
# 6 0.0000 0.0000 0.0000 0.0000 0.0000 28.8813
#
#
#
# Elastic Compliance Matrix: (Units=1/GPa)
#
#
# Indices 1 2 3 4 5 6 
#
# 1 0.012138 -0.002114 0.004804 0.000000 0.000000 0.000000
# 2 -0.002114 0.008179 -0.002004 0.000000 0.000000 0.000000
# 3 0.004804 -0.002004 0.048254 0.000000 0.000000 0.000000
# 4 0.000000 0.000000 0.000000 0.225078 0.000000 0.000000
# 5 0.000000 0.000000 0.000000 0.000000 0.092345 0.000000
# 6 0.000000 0.000000 0.000000 0.000000 0.000000 0.034624
#
#
# Mechanical properties :
#
#
# Convention : Reuss Voigt Hill
#
# Bulk Modulus (GPa) = 14.29718 30.22602 22.26160
# Shear Modulus (GPa) = 11.29792 23.70147 17.49969
#
# Velocity S-wave (km/s) = 2.26537 3.28117 2.81939
# Velocity P-wave (km/s) = 3.65196 5.29948 4.55089
#
# Compressibility (1/GPa) = 0.06994384
#
# Stress axis : x y z
#
# Youngs Moduli (GPa) = 82.38741 122.25757 20.72374
#
# Poissons Ratio (x) = 0.25839 -0.09956
# Poissons Ratio (y) = 0.17413 0.04153
# Poissons Ratio (z) = -0.39579 0.24501
#
# Static dielectric constant tensor:
#      x y z
#    x 2.022080 0.000000 0.000000 
#    y 0.000000 1.774660 0.000000 
#    z 0.000000 0.000000 1.864340 
# 
# From -- ./inp_files/19237.got.cif
#   From: 2010.05.17/outbox.cif.g08.bks.cpg/sg73_10_cif.got.tgz:19237.got - 2010.06.03 17:35:07.
