data_PCOD9529320
_publ_section_title
;
Structure prediction by ZEFSAII (Michael W. Deem and Ramdas Pophale) SiO2 
 PCOD9529320
Probable space group: I B A M
;
_chemical_formula_sum "Si O2"
_cell_formula_units_Z 108
_cell_length_a 27.075734
_cell_length_b 13.946019
_cell_length_c 14.306207
_cell_angle_alpha 90.000000
_cell_angle_beta 90.000000
_cell_angle_gamma 90.000000
_cell_volume 5402.005177
_symmetry_space_group_name_H-M "I B A M"
_symmetry_group_IT_number 72
_symmetry_cell_setting 'orthorhombic'
loop_
_space_group_symop_operation_xyz
x,y,z
-x,-y,z
x,-y,1/2-z
-x,y,1/2-z
-x,-y,-z
x,y,-z
-x,y,1/2+z
x,-y,1/2+z
1/2+x,1/2+y,1/2+z
1/2-x,1/2-y,1/2+z
1/2+x,1/2-y,-z
1/2-x,1/2+y,-z
1/2-x,1/2-y,1/2-z
1/2+x,1/2+y,1/2-z
1/2-x,1/2+y,z
1/2+x,1/2-y,z
loop_
_atom_site_type_symbol
_atom_site_label
_atom_site_fract_x
_atom_site_fract_y
_atom_site_fract_z
Si Si1 0.057459 0.730402 0.229664
Si Si2 0.000000 0.000000 0.250000
Si Si3 0.655760 0.954121 0.648385
Si Si4 0.236909 0.508813 0.000000
Si Si5 0.445991 0.045718 0.106357
Si Si6 0.923834 0.903291 0.392234
Si Si7 0.865292 0.755437 0.888742
Si Si8 0.673047 0.530371 0.644092
O O1 0.061298 0.624882 0.186126
O O2 0.082723 0.798174 0.151637
O O3 0.085797 0.748252 0.326126
O O4 0.000000 0.749899 0.250000
O O5 0.964118 0.945098 0.320946
O O6 0.693633 0.005483 0.580337
O O7 0.665110 0.839727 0.640365
O O8 0.660715 0.000000 0.750000
O O9 0.599231 0.971936 0.615446
O O10 0.280382 0.508727 0.919624
O O11 0.500000 0.000000 0.118727
O O12 0.444822 0.085905 0.000000
O O13 0.940228 0.899743 0.500000
O O14 0.875130 0.968867 0.386064
O O15 0.839771 0.856735 0.865568
O O16 0.874130 0.751885 0.000000
O O17 0.682959 0.500000 0.750000
#
# Coordination Sequence:
#
# PCOD9529320 Si02
#       8
#    16   4  16   8  16  16  16  16
#     4  12  25  42  70 108 151 195 256 298 369 462
#     4  12  22  44  68  98 138 192 246 292 366 438
#     4  12  25  47  76 109 149 192 248 311 366 450
#     4  12  26  50  77 105 140 198 251 299 384 442
#     4  11  24  45  73 108 152 201 241 305 387 447
#     4  12  24  44  69 104 149 194 241 308 368 438
#     4  12  24  46  76 109 149 194 248 309 380 448
#     4  12  25  49  76 104 147 197 246 312 379 440
#
# _framework density 19.992576
#
# number of rings (size 3 to 8) (size 9 to 14) (size 15 to 20)
#    0.000    0.148    7.407    2.000    0.000    2.370 
#    0.000    7.407    0.000    0.444    0.000    0.000 
#    0.000    0.000    0.000    0.000    0.000    0.000 
#
# Total GULP energy -300774.215873 kJ/mol
# GULP energy per Si atom -5569.892887 kJ/mol
# Density = 1.994707 g / cm^3
# Si number density = 19.992576 Si / 1000 Ang^3
#
#
#
# Elastic Constant Matrix: (Units=GPa)
#
#
# Indices 1 2 3 4 5 6 
#
# 1 118.5995 31.4575 56.3820 0.0000 0.0000 0.0000
# 2 31.4575 91.8920 50.9988 0.0000 0.0000 0.0000
# 3 56.3820 50.9988 220.7645 0.0000 0.0000 0.0000
# 4 0.0000 0.0000 0.0000 -3.4094 0.0000 0.0000
# 5 0.0000 0.0000 0.0000 0.0000 42.8988 0.0000
# 6 0.0000 0.0000 0.0000 0.0000 0.0000 -2.0962
#
#
#
# Elastic Compliance Matrix: (Units=1/GPa)
#
#
# Indices 1 2 3 4 5 6 
#
# 1 0.010004 -0.002302 -0.002023 0.000000 0.000000 0.000000
# 2 -0.002302 0.013012 -0.002418 0.000000 0.000000 0.000000
# 3 -0.002023 -0.002418 0.005605 0.000000 0.000000 0.000000
# 4 0.000000 0.000000 0.000000 -0.293304 0.000000 0.000000
# 5 0.000000 0.000000 0.000000 0.000000 0.023311 0.000000
# 6 0.000000 0.000000 0.000000 0.000000 0.000000 -0.477050
#
#
# Mechanical properties :
#
#
# Convention : Reuss Voigt Hill
#
# Bulk Modulus (GPa) = 66.07147 78.77027 72.42087
# Shear Modulus (GPa) = -7.14399 26.97316 9.91459
#
# Velocity S-wave (km/s) = -1.89237 3.67707 2.22933
# Velocity P-wave (km/s) = 5.32400 7.58374 6.55203
#
# Compressibility (1/GPa) = 0.01513512
#
# Stress axis : x y z
#
# Youngs Moduli (GPa) = 99.95876 76.85013 178.41072
#
# Poissons Ratio (x) = 0.17690 0.36097
# Poissons Ratio (y) = 0.23009 0.43142
# Poissons Ratio (z) = 0.20224 0.18583
#
# Static dielectric constant tensor:
#      x y z
#    x 1.684500 0.000000 0.000000 
#    y 0.000000 1.778890 0.000000 
#    z 0.000000 0.000000 1.690190 
# 
# From -- ./inp_files/25243.got.cif
#   From: 2010.05.17/outbox.cif.g08.bks.cpg/sg72_13_cif.got.tgz:25243.got - 2010.06.03 17:03:01.
