data_PCOD9529733
_publ_section_title
;
Structure prediction by ZEFSAII (Michael W. Deem and Ramdas Pophale) SiO2 
 PCOD9529733
Probable space group: I B C A 
;
_chemical_formula_sum "Si O2"
_cell_formula_units_Z 120
_cell_length_a 12.978737
_cell_length_b 22.853749
_cell_length_c 19.404651
_cell_angle_alpha 90.000000
_cell_angle_beta 90.000000
_cell_angle_gamma 90.000000
_cell_volume 5755.667822
_symmetry_space_group_name_H-M "I B C A "
_symmetry_group_IT_number 73
_symmetry_cell_setting 'orthorhombic'
loop_
_space_group_symop_operation_xyz
x,y,z
-x,1/2-y,z
x,-y,1/2-z
1/2-x,y,-z
-x,-y,-z
x,1/2+y,-z
-x,y,1/2+z
1/2+x,-y,z
1/2+x,1/2+y,1/2+z
1/2-x,-y,1/2+z
1/2+x,1/2-y,-z
-x,1/2+y,1/2-z
1/2-x,1/2-y,1/2-z
1/2+x,y,1/2-z
1/2-x,1/2+y,z
x,1/2-y,1/2+z
loop_
_atom_site_type_symbol
_atom_site_label
_atom_site_fract_x
_atom_site_fract_y
_atom_site_fract_z
Si Si1 0.576894 0.514854 0.063339
Si Si2 0.443865 0.688406 0.256846
Si Si3 0.421627 0.621310 0.647633
Si Si4 0.216114 0.205794 0.136724
Si Si5 0.968160 0.188848 0.528330
Si Si6 0.300201 0.664146 0.369270
Si Si7 0.750000 0.598177 0.000000
Si Si8 0.835049 0.392122 0.938378
O O1 0.537766 0.557255 0.124623
O O2 0.667716 0.555555 0.034290
O O3 0.625762 0.454200 0.087888
O O4 0.500000 0.500000 0.000000
O O5 0.500000 0.750000 0.270560
O O6 0.517636 0.647758 0.211632
O O7 0.344016 0.701209 0.208661
O O8 0.401928 0.657103 0.324499
O O9 0.448733 0.662770 0.581608
O O10 0.299971 0.629616 0.660252
O O11 0.128887 0.204146 0.077513
O O12 0.274898 0.266944 0.131671
O O13 0.287295 0.150427 0.119042
O O14 0.929186 0.141524 0.474695
O O15 0.000000 0.250000 0.495120
O O16 0.307737 0.639166 0.445621
O O17 0.750000 0.401204 0.000000
#
# Coordination Sequence:
#
# PCOD9529733 Si02
#       8
#    16  16  16  16  16  16   8  16
#     4  11  21  41  65  91 131 177 224 274 330 391
#     4  11  22  41  67  97 130 175 223 263 336 417
#     4  10  20  37  66  93 126 178 221 267 335 397
#     4  10  20  35  61  92 131 168 210 265 328 391
#     4  10  17  32  57  94 135 162 209 265 330 398
#     4  11  22  41  65  95 135 169 209 280 341 401
#     4  10  26  40  64  98 130 164 220 278 344 388
#     4  10  21  34  59  96 130 171 220 271 324 392
#
# _framework density 20.849015000000001
#
# number of rings (size 3 to 8) (size 9 to 14) (size 15 to 20)
#    0.000    1.600    4.667    1.200    2.800    0.000 
#    2.400    0.000    0.000   10.400    0.000    0.000 
#    0.000    0.000    0.000    0.000    0.000    0.000 
#
# Total GULP energy -335375.664033 kJ/mol
# GULP energy per Si atom -5589.594401 kJ/mol
# Density = 2.080156 g / cm^3
# Si number density = 20.849015 Si / 1000 Ang^3
#
#
#
# Elastic Constant Matrix: (Units=GPa)
#
#
# Indices 1 2 3 4 5 6 
#
# 1 58.6577 25.9837 35.1406 0.0000 0.0000 0.0000
# 2 25.9837 138.1538 38.3670 0.0000 0.0000 0.0000
# 3 35.1406 38.3670 80.5029 0.0000 0.0000 0.0000
# 4 0.0000 0.0000 0.0000 6.3360 0.0000 0.0000
# 5 0.0000 0.0000 0.0000 0.0000 28.9894 0.0000
# 6 0.0000 0.0000 0.0000 0.0000 0.0000 30.6563
#
#
#
# Elastic Compliance Matrix: (Units=1/GPa)
#
#
# Indices 1 2 3 4 5 6 
#
# 1 0.023470 -0.001808 -0.009383 0.000000 0.000000 0.000000
# 2 -0.001808 0.008482 -0.003253 0.000000 0.000000 0.000000
# 3 -0.009383 -0.003253 0.018068 0.000000 0.000000 0.000000
# 4 0.000000 0.000000 0.000000 0.157828 0.000000 0.000000
# 5 0.000000 0.000000 0.000000 0.000000 0.034495 0.000000
# 6 0.000000 0.000000 0.000000 0.000000 0.000000 0.032620
#
#
# Mechanical properties :
#
#
# Convention : Reuss Voigt Hill
#
# Bulk Modulus (GPa) = 47.32359 52.92189 50.12274
# Shear Modulus (GPa) = 16.08254 25.05122 20.56688
#
# Velocity S-wave (km/s) = 2.78039 3.47010 3.14422
# Velocity P-wave (km/s) = 5.74934 6.44158 6.10528
#
# Compressibility (1/GPa) = 0.02113111
#
# Stress axis : x y z
#
# Youngs Moduli (GPa) = 42.60676 117.89922 55.34591
#
# Poissons Ratio (x) = 0.21321 0.51933
# Poissons Ratio (y) = 0.07705 0.18004
# Poissons Ratio (z) = 0.39979 0.38352
#
# Static dielectric constant tensor:
#      x y z
#    x 1.792100 0.000000 0.000000 
#    y 0.000000 1.736910 0.000000 
#    z 0.000000 0.000000 1.788570 
# 
# From -- ./inp_files/26222.got.cif
#   From: 2010.05.17/outbox.cif.g08.bks.cpg/sg73_14_cif.got.tgz:26222.got - 2010.06.03 17:35:07.
