data_PCOD9529079
_publ_section_title
;
Structure prediction by ZEFSAII (Michael W. Deem and Ramdas Pophale) SiO2 
 PCOD9529079
Probable space group: I B A M
;
_chemical_formula_sum "Si O2"
_cell_formula_units_Z 52
_cell_length_a 13.150801
_cell_length_b 18.749642
_cell_length_c 8.550659
_cell_angle_alpha 90.000000
_cell_angle_beta 90.000000
_cell_angle_gamma 90.000000
_cell_volume 2108.360024
_symmetry_space_group_name_H-M "I B A M"
_symmetry_group_IT_number 72
_symmetry_cell_setting 'orthorhombic'
loop_
_space_group_symop_operation_xyz
x,y,z
-x,-y,z
x,-y,1/2-z
-x,y,1/2-z
-x,-y,-z
x,y,-z
-x,y,1/2+z
x,-y,1/2+z
1/2+x,1/2+y,1/2+z
1/2-x,1/2-y,1/2+z
1/2+x,1/2-y,-z
1/2-x,1/2+y,-z
1/2-x,1/2-y,1/2-z
1/2+x,1/2+y,1/2-z
1/2-x,1/2+y,z
1/2+x,1/2-y,z
loop_
_atom_site_type_symbol
_atom_site_label
_atom_site_fract_x
_atom_site_fract_y
_atom_site_fract_z
Si Si1 0.500000 0.500000 0.250000
Si Si2 0.682944 0.606996 0.674847
Si Si3 0.610929 0.101722 0.815402
Si Si4 0.396839 0.741321 0.318313
O O1 0.415072 0.445469 0.321944
O O2 0.689669 0.636862 0.500000
O O3 0.791475 0.573313 0.720279
O O4 0.674352 0.673823 0.791786
O O5 0.500000 0.079833 0.750000
O O6 0.615322 0.187120 0.781201
O O7 0.618102 0.087408 0.000000
O O8 0.500000 0.709511 0.250000
O O9 0.402321 0.760553 0.500000
#
# Coordination Sequence:
#
# PCOD9529079 Si02
#       4
#     4  16  16  16
#     4  12  30  48  74  98 138 184 242 280 342 404
#     4  12  25  44  68  97 137 181 231 285 340 408
#     4  11  23  42  69 102 138 177 225 283 349 412
#     4  11  21  37  64 100 139 179 225 282 347 410
#
# _framework density 24.663720000000001
#
# number of rings (size 3 to 8) (size 9 to 14) (size 15 to 20)
#    0.000    0.615    1.538    9.692    0.000    3.692 
#    0.000    0.769    0.000    3.692    0.000    0.000 
#    0.000    0.000    0.000    0.000    0.000    0.000 
#
# Total GULP energy -145115.259321 kJ/mol
# GULP energy per Si atom -5581.356128 kJ/mol
# Density = 2.460758 g / cm^3
# Si number density = 24.663720 Si / 1000 Ang^3
#
#
#
# Elastic Constant Matrix: (Units=GPa)
#
#
# Indices 1 2 3 4 5 6 
#
# 1 209.6877 -2.4287 16.7553 0.0000 0.0000 0.0000
# 2 -2.4287 99.9532 -14.7166 0.0000 0.0000 0.0000
# 3 16.7553 -14.7166 126.7715 0.0000 0.0000 0.0000
# 4 0.0000 0.0000 0.0000 -16.2261 0.0000 0.0000
# 5 0.0000 0.0000 0.0000 0.0000 23.3885 0.0000
# 6 0.0000 0.0000 0.0000 0.0000 0.0000 16.7101
#
#
#
# Elastic Compliance Matrix: (Units=1/GPa)
#
#
# Indices 1 2 3 4 5 6 
#
# 1 0.004820 0.000024 -0.000634 0.000000 0.000000 0.000000
# 2 0.000024 0.010179 0.001178 0.000000 0.000000 0.000000
# 3 -0.000634 0.001178 0.008109 0.000000 0.000000 0.000000
# 4 0.000000 0.000000 0.000000 -0.061629 0.000000 0.000000
# 5 0.000000 0.000000 0.000000 0.000000 0.042756 0.000000
# 6 0.000000 0.000000 0.000000 0.000000 0.000000 0.059844
#
#
# Mechanical properties :
#
#
# Convention : Reuss Voigt Hill
#
# Bulk Modulus (GPa) = 41.24830 48.40360 44.82595
# Shear Modulus (GPa) = 70.39892 33.89466 52.14679
#
# Velocity S-wave (km/s) = 5.34841 3.71114 4.60315
# Velocity P-wave (km/s) = 7.40954 6.16696 6.81662
#
# Compressibility (1/GPa) = 0.02424343
#
# Stress axis : x y z
#
# Youngs Moduli (GPa) = 207.47078 98.24366 123.32208
#
# Poissons Ratio (x) = -0.00233 0.07822
# Poissons Ratio (y) = -0.00492 -0.14533
# Poissons Ratio (z) = 0.13160 -0.11578
#
# Static dielectric constant tensor:
#      x y z
#    x 2.334670 0.000000 0.000000 
#    y 0.000000 1.941460 0.000000 
#    z 0.000000 0.000000 1.818230 
# 
# From -- ./inp_files/3121.got.cif
#   From: 2010.05.17/outbox.cif.g08.bks.cpg/sg72_2_cif.got.tgz:3121.got - 2010.06.03 17:03:01.
