data_PCOD9529932
_publ_section_title
;
Structure prediction by ZEFSAII (Michael W. Deem and Ramdas Pophale) SiO2 
 PCOD9529932
Probable space group: I B C A 
;
_chemical_formula_sum "Si O2"
_cell_formula_units_Z 104
_cell_length_a 16.270054
_cell_length_b 14.554099
_cell_length_c 20.181194
_cell_angle_alpha 90.000000
_cell_angle_beta 90.000000
_cell_angle_gamma 90.000000
_cell_volume 4778.825543
_symmetry_space_group_name_H-M "I B C A "
_symmetry_group_IT_number 73
_symmetry_cell_setting 'orthorhombic'
loop_
_space_group_symop_operation_xyz
x,y,z
-x,1/2-y,z
x,-y,1/2-z
1/2-x,y,-z
-x,-y,-z
x,1/2+y,-z
-x,y,1/2+z
1/2+x,-y,z
1/2+x,1/2+y,1/2+z
1/2-x,-y,1/2+z
1/2+x,1/2-y,-z
-x,1/2+y,1/2-z
1/2-x,1/2-y,1/2-z
1/2+x,y,1/2-z
1/2-x,1/2+y,z
x,1/2-y,1/2+z
loop_
_atom_site_type_symbol
_atom_site_label
_atom_site_fract_x
_atom_site_fract_y
_atom_site_fract_z
Si Si1 0.987877 0.142716 0.848057
Si Si2 0.044071 0.149341 0.203519
Si Si3 0.159007 0.341011 0.575518
Si Si4 0.750000 0.513490 0.500000
Si Si5 0.500391 0.890543 0.996477
Si Si6 0.891334 0.985418 0.321033
Si Si7 0.654566 0.863531 0.566925
O O1 0.963319 0.130486 0.924325
O O2 0.000000 0.250000 0.842499
O O3 0.935278 0.124017 0.780834
O O4 0.072227 0.082705 0.844999
O O5 0.114157 0.147788 0.146938
O O6 0.000000 0.250000 0.201590
O O7 0.974632 0.074474 0.186812
O O8 0.226205 0.418853 0.559973
O O9 0.091193 0.356488 0.516787
O O10 0.193048 0.237043 0.569794
O O11 0.679002 0.439354 0.487099
O O12 0.441272 0.847756 0.051918
O O13 0.500000 0.000000 0.000000
O O14 0.835586 0.922894 0.367061
O O15 0.852153 0.000000 0.250000
#
# Coordination Sequence:
#
# PCOD9529932 Si02
#       7
#    16  16  16   8  16  16  16
#     4  10  20  31  54  98 133 151 192 260 325 370
#     4  10  18  35  62  97 122 156 202 262 318 372
#     4  12  22  41  66  94 126 170 217 263 316 383
#     4  12  28  40  60  92 134 172 216 264 316 380
#     4  12  20  38  66  97 126 157 206 269 319 371
#     4  10  19  34  61  93 124 155 200 257 324 370
#     4  12  23  41  67  91 125 170 213 262 321 380
#
# _framework density 21.762668999999999
#
# number of rings (size 3 to 8) (size 9 to 14) (size 15 to 20)
#    0.000    0.923    6.154    1.846    0.000    0.000 
#    0.000    0.000    3.385    0.923    0.000    0.000 
#    0.000    0.000    0.000    0.000    0.000    0.000 
#
# Total GULP energy -289665.607519 kJ/mol
# GULP energy per Si atom -5570.492452 kJ/mol
# Density = 2.171314 g / cm^3
# Si number density = 21.762669 Si / 1000 Ang^3
#
#
#
# Elastic Constant Matrix: (Units=GPa)
#
#
# Indices 1 2 3 4 5 6 
#
# 1 25.6976 12.1281 5.3865 0.0000 0.0000 0.0000
# 2 12.1281 164.9092 21.2910 0.0000 0.0000 0.0000
# 3 5.3865 21.2910 152.1693 0.0000 0.0000 0.0000
# 4 0.0000 0.0000 0.0000 37.1712 0.0000 0.0000
# 5 0.0000 0.0000 0.0000 0.0000 7.7440 0.0000
# 6 0.0000 0.0000 0.0000 0.0000 0.0000 22.0045
#
#
#
# Elastic Compliance Matrix: (Units=1/GPa)
#
#
# Indices 1 2 3 4 5 6 
#
# 1 0.040473 -0.002843 -0.001035 0.000000 0.000000 0.000000
# 2 -0.002843 0.006375 -0.000791 0.000000 0.000000 0.000000
# 3 -0.001035 -0.000791 0.006719 0.000000 0.000000 0.000000
# 4 0.000000 0.000000 0.000000 0.026903 0.000000 0.000000
# 5 0.000000 0.000000 0.000000 0.000000 0.129131 0.000000
# 6 0.000000 0.000000 0.000000 0.000000 0.000000 0.045445
#
#
# Mechanical properties :
#
#
# Convention : Reuss Voigt Hill
#
# Bulk Modulus (GPa) = 22.60981 46.70970 34.65976
# Shear Modulus (GPa) = 17.91297 33.64865 25.78081
#
# Velocity S-wave (km/s) = 2.87209 3.93639 3.44559
# Velocity P-wave (km/s) = 4.62714 6.49385 5.63828
#
# Compressibility (1/GPa) = 0.04422859
#
# Stress axis : x y z
#
# Youngs Moduli (GPa) = 24.70798 156.85796 148.83202
#
# Poissons Ratio (x) = 0.44593 0.15402
# Poissons Ratio (y) = 0.07024 0.11778
# Poissons Ratio (z) = 0.02557 0.12413
#
# Static dielectric constant tensor:
#      x y z
#    x 1.972240 0.000000 0.000000 
#    y 0.000000 1.813050 0.000000 
#    z 0.000000 0.000000 1.927300 
# 
# From -- ./inp_files/26524.got.cif
#   From: 2010.05.17/outbox.cif.g08.bks.cpg/sg73_14_cif.got.tgz:26524.got - 2010.06.03 17:35:07.
