data_PCOD9529490
_publ_section_title
;
Structure prediction by ZEFSAII (Michael W. Deem and Ramdas Pophale) SiO2 
 PCOD9529490
Probable space group: I B A M
;
_chemical_formula_sum "Si O2"
_cell_formula_units_Z 48
_cell_length_a 27.000000
_cell_length_b 21.000000
_cell_length_c 9.000000
_cell_angle_alpha 90.000000
_cell_angle_beta 90.000000
_cell_angle_gamma 90.000000
_cell_volume 5103.000000
_symmetry_space_group_name_H-M "I B A M"
_symmetry_group_IT_number 72
_symmetry_cell_setting 'orthorhombic'
loop_
_space_group_symop_operation_xyz
x,y,z
-x,-y,z
x,-y,1/2-z
-x,y,1/2-z
-x,-y,-z
x,y,-z
-x,y,1/2+z
x,-y,1/2+z
1/2+x,1/2+y,1/2+z
1/2-x,1/2-y,1/2+z
1/2+x,1/2-y,-z
1/2-x,1/2+y,-z
1/2-x,1/2-y,1/2-z
1/2+x,1/2+y,1/2-z
1/2-x,1/2+y,z
1/2+x,1/2-y,z
loop_
_atom_site_type_symbol
_atom_site_label
_atom_site_fract_x
_atom_site_fract_y
_atom_site_fract_z
Si Si1 0.052168 0.187677 0.671586
Si Si2 0.706686 0.291520 0.176860
Si Si3 0.345906 0.065414 0.176191
Si Si4 0.272403 0.433559 0.322767
Si Si5 0.372351 0.205276 0.827884
Si Si6 0.944154 0.063929 0.320734
O O1 0.047748 0.166443 0.500000
O O2 0.076649 0.256830 0.670821
O O3 0.078722 0.130263 0.762303
O O4 0.000000 0.195069 0.750000
O O5 0.750000 0.250000 0.250000
O O6 0.706040 0.365383 0.228678
O O7 0.659746 0.250682 0.224057
O O8 0.713414 0.293347 0.000000
O O9 0.286902 0.071792 0.205792
O O10 0.370974 0.132058 0.221934
O O11 0.363456 0.000000 0.250000
O O12 0.352172 0.058931 0.000000
O O13 0.289481 0.500000 0.250000
O O14 0.280093 0.438659 0.500000
O O15 0.353019 0.205902 0.000000
O O16 0.945472 0.060833 0.500000
O O17 0.000000 0.065305 0.250000
O O18 0.921088 0.000000 0.250000
#
# Coordination Sequence:
#
# PCOD9529490 Si02
#       6
#    16  16  16  16  16  16
#     4  10  20  35  55  77 105 139 176 221 273 319
#     4  11  21  34  53  78 108 140 175 216 259 311
#     4   9  17  32  51  75 105 133 171 214 256 306
#     4   9  18  32  50  73 104 139 176 213 254 303
#     4  10  21  37  55  78 108 140 174 218 268 316
#     4  10  17  28  48  73 101 130 169 214 258 310
#
# _framework density 9.4062319999999993
#
# number of rings (size 3 to 8) (size 9 to 14) (size 15 to 20)
#    0.000    2.167    1.667    4.000    0.000    3.333 
#    0.000    0.833    0.000    2.500    0.000    3.500 
#    0.000    0.000    0.000    0.000    0.000    0.000 
#
# Total GULP energy -267448.833061 kJ/mol
# GULP energy per Si atom -5571.850689 kJ/mol
# Density = 0.938482 g / cm^3
# Si number density = 9.406232 Si / 1000 Ang^3
#
#
#
# Elastic Constant Matrix: (Units=GPa)
#
#
# Indices 1 2 3 4 5 6 
#
# 1 31.5034 38.0848 21.0891 0.0000 0.0000 0.0000
# 2 38.0848 225.5144 64.7925 0.0000 0.0000 0.0000
# 3 21.0891 64.7925 90.9852 0.0000 0.0000 0.0000
# 4 0.0000 0.0000 0.0000 35.8740 0.0000 0.0000
# 5 0.0000 0.0000 0.0000 0.0000 7.9393 0.0000
# 6 0.0000 0.0000 0.0000 0.0000 0.0000 20.9085
#
#
#
# Elastic Compliance Matrix: (Units=1/GPa)
#
#
# Indices 1 2 3 4 5 6 
#
# 1 0.042285 -0.005438 -0.005929 0.000000 0.000000 0.000000
# 2 -0.005438 0.006274 -0.003208 0.000000 0.000000 0.000000
# 3 -0.005929 -0.003208 0.014649 0.000000 0.000000 0.000000
# 4 0.000000 0.000000 0.000000 0.027875 0.000000 0.000000
# 5 0.000000 0.000000 0.000000 0.000000 0.125955 0.000000
# 6 0.000000 0.000000 0.000000 0.000000 0.000000 0.047828
#
#
# Mechanical properties :
#
#
# Convention : Reuss Voigt Hill
#
# Bulk Modulus (GPa) = 29.35961 66.21508 47.78734
# Shear Modulus (GPa) = 16.37365 27.88013 22.12689
#
# Velocity S-wave (km/s) = 2.95339 3.85386 3.43327
# Velocity P-wave (km/s) = 5.22210 7.42137 6.41666
#
# Compressibility (1/GPa) = 0.03406040
#
# Stress axis : x y z
#
# Youngs Moduli (GPa) = 23.64890 159.38279 68.26307
#
# Poissons Ratio (x) = 0.86668 0.40472
# Poissons Ratio (y) = 0.12860 0.21896
# Poissons Ratio (z) = 0.14021 0.51124
#
# Static dielectric constant tensor:
#      x y z
#    x 1.772170 0.000000 0.000000 
#    y 0.000000 1.709560 0.000000 
#    z 0.000000 0.000000 1.642310 
# 
# From -- ./inp_files/8041.got.cif
#   From: 2010.05.17/outbox.ucp.g08.bks.cvg/sg72_5_cif.got.tgz:8041.got - 2010.06.11 16:33:07.
