data_PCOD9529654
_publ_section_title
;
Structure prediction by ZEFSAII (Michael W. Deem and Ramdas Pophale) SiO2 
 PCOD9529654
Probable space group: I B C A 
;
_chemical_formula_sum "Si O2"
_cell_formula_units_Z 120
_cell_length_a 18.053498
_cell_length_b 17.790230
_cell_length_c 19.264461
_cell_angle_alpha 90.000000
_cell_angle_beta 90.000000
_cell_angle_gamma 90.000000
_cell_volume 6187.280248
_symmetry_space_group_name_H-M "I B C A "
_symmetry_group_IT_number 73
_symmetry_cell_setting 'orthorhombic'
loop_
_space_group_symop_operation_xyz
x,y,z
-x,1/2-y,z
x,-y,1/2-z
1/2-x,y,-z
-x,-y,-z
x,1/2+y,-z
-x,y,1/2+z
1/2+x,-y,z
1/2+x,1/2+y,1/2+z
1/2-x,-y,1/2+z
1/2+x,1/2-y,-z
-x,1/2+y,1/2-z
1/2-x,1/2-y,1/2-z
1/2+x,y,1/2-z
1/2-x,1/2+y,z
x,1/2-y,1/2+z
loop_
_atom_site_type_symbol
_atom_site_label
_atom_site_fract_x
_atom_site_fract_y
_atom_site_fract_z
Si Si1 0.744134 0.594157 0.417717
Si Si2 0.322524 0.229615 0.846102
Si Si3 0.840664 0.795861 0.687217
Si Si4 0.401241 0.214042 0.470587
Si Si5 0.750000 0.350791 0.500000
Si Si6 0.414341 0.673326 0.909773
Si Si7 0.311558 0.553709 0.384268
Si Si8 0.463151 0.430323 0.038896
O O1 0.750000 0.576353 0.500000
O O2 0.800399 0.659269 0.394356
O O3 0.660978 0.624548 0.407037
O O4 0.769630 0.523722 0.370630
O O5 0.350447 0.213478 0.769079
O O6 0.242711 0.269644 0.834313
O O7 0.385135 0.271834 0.890342
O O8 0.898416 0.742417 0.644496
O O9 0.839013 0.884553 0.670525
O O10 0.320216 0.201215 0.503259
O O11 0.427083 0.284325 0.516432
O O12 0.440341 0.135282 0.485180
O O13 0.746905 0.402826 0.566668
O O14 0.482578 0.614040 0.907041
O O15 0.386687 0.540119 0.427787
O O16 0.500000 0.500000 0.000000
#
# Coordination Sequence:
#
# PCOD9529654 Si02
#       8
#    16  16  16  16   8  16  16  16
#     4  11  20  33  62  92 120 152 205 266 316 361
#     4  10  21  36  59  94 122 152 213 268 311 376
#     4  10  21  37  60  89 123 163 206 258 321 380
#     4  11  19  35  63  87 120 155 205 261 305 357
#     4  10  16  30  56  92 108 146 200 254 296 356
#     4  11  21  38  62  88 121 159 208 256 311 372
#     4  11  21  35  60  86 124 164 200 254 323 370
#     4  11  25  37  58  94 126 158 207 262 315 379
#
# _framework density 19.394628999999998
#
# number of rings (size 3 to 8) (size 9 to 14) (size 15 to 20)
#    0.000    1.333    6.000    2.000    1.867    0.533 
#    0.000    0.000    5.867    0.800    0.000    0.000 
#    0.000    0.000    0.000    0.000    0.000    0.000 
#
# Total GULP energy -334198.558390 kJ/mol
# GULP energy per Si atom -5569.975973 kJ/mol
# Density = 1.935049 g / cm^3
# Si number density = 19.394629 Si / 1000 Ang^3
#
#
#
# Elastic Constant Matrix: (Units=GPa)
#
#
# Indices 1 2 3 4 5 6 
#
# 1 65.2029 39.0231 11.3312 0.0000 0.0000 0.0000
# 2 39.0231 102.4936 30.2760 0.0000 0.0000 0.0000
# 3 11.3312 30.2760 92.2510 0.0000 0.0000 0.0000
# 4 0.0000 0.0000 0.0000 5.5706 0.0000 0.0000
# 5 0.0000 0.0000 0.0000 0.0000 11.5025 0.0000
# 6 0.0000 0.0000 0.0000 0.0000 0.0000 27.8998
#
#
#
# Elastic Compliance Matrix: (Units=1/GPa)
#
#
# Indices 1 2 3 4 5 6 
#
# 1 0.019863 -0.007576 0.000047 0.000000 0.000000 0.000000
# 2 -0.007576 0.013694 -0.003564 0.000000 0.000000 0.000000
# 3 0.000047 -0.003564 0.012004 0.000000 0.000000 0.000000
# 4 0.000000 0.000000 0.000000 0.179513 0.000000 0.000000
# 5 0.000000 0.000000 0.000000 0.000000 0.086938 0.000000
# 6 0.000000 0.000000 0.000000 0.000000 0.000000 0.035843
#
#
# Mechanical properties :
#
#
# Convention : Reuss Voigt Hill
#
# Bulk Modulus (GPa) = 42.78221 46.80090 44.79155
# Shear Modulus (GPa) = 13.23338 20.94906 17.09122
#
# Velocity S-wave (km/s) = 2.61496 3.29013 2.97178
# Velocity P-wave (km/s) = 5.58785 6.21422 5.90934
#
# Compressibility (1/GPa) = 0.02337420
#
# Stress axis : x y z
#
# Youngs Moduli (GPa) = 50.34492 73.02473 83.30691
#
# Poissons Ratio (x) = 0.55326 -0.00389
# Poissons Ratio (y) = 0.38143 0.29688
# Poissons Ratio (z) = -0.00235 0.26023
#
# Static dielectric constant tensor:
#      x y z
#    x 1.701680 0.000000 0.000000 
#    y 0.000000 1.754880 0.000000 
#    z 0.000000 0.000000 1.625590 
# 
# From -- ./inp_files/26651.got.cif
#   From: 2010.05.17/outbox.cif.g08.bks.cpg/sg73_14_cif.got.tgz:26651.got - 2010.06.03 17:35:07.
