data_PCOD9529438
_publ_section_title
;
Structure prediction by ZEFSAII (Michael W. Deem and Ramdas Pophale) SiO2 
 PCOD9529438
Probable space group: I B A M
;
_chemical_formula_sum "Si O2"
_cell_formula_units_Z 80
_cell_length_a 13.234353
_cell_length_b 8.617121
_cell_length_c 30.130478
_cell_angle_alpha 90.000000
_cell_angle_beta 90.000000
_cell_angle_gamma 90.000000
_cell_volume 3436.140610
_symmetry_space_group_name_H-M "I B A M"
_symmetry_group_IT_number 72
_symmetry_cell_setting 'orthorhombic'
loop_
_space_group_symop_operation_xyz
x,y,z
-x,-y,z
x,-y,1/2-z
-x,y,1/2-z
-x,-y,-z
x,y,-z
-x,y,1/2+z
x,-y,1/2+z
1/2+x,1/2+y,1/2+z
1/2-x,1/2-y,1/2+z
1/2+x,1/2-y,-z
1/2-x,1/2+y,-z
1/2-x,1/2-y,1/2-z
1/2+x,1/2+y,1/2-z
1/2-x,1/2+y,z
1/2+x,1/2-y,z
loop_
_atom_site_type_symbol
_atom_site_label
_atom_site_fract_x
_atom_site_fract_y
_atom_site_fract_z
Si Si1 0.162885 0.069671 0.952793
Si Si2 0.315395 0.134566 0.218674
Si Si3 0.958226 0.755426 0.355730
Si Si4 0.551887 0.752889 0.951993
Si Si5 0.160438 0.918975 0.357974
O O1 0.212931 0.106228 0.905770
O O2 0.057329 0.165020 0.951428
O O3 0.132405 0.888467 0.953391
O O4 0.213357 0.106069 0.000000
O O5 0.250000 0.250000 0.250000
O O6 0.407099 0.194666 0.188712
O O7 0.236801 0.071786 0.182053
O O8 0.353242 0.000000 0.250000
O O9 0.942441 0.670532 0.403297
O O10 0.077236 0.785983 0.349842
O O11 0.902720 0.922204 0.361704
O O12 0.557427 0.835821 0.000000
#
# Coordination Sequence:
#
# PCOD9529438 Si02
#       5
#    16  16  16  16  16
#     4   7  10  20  44  78 109 138 176 224 271 330
#     4  12  24  40  57  82 114 148 195 249 291 329
#     4   9  18  35  58  83 109 151 191 230 285 345
#     4   7  10  20  44  78 111 138 176 225 272 328
#     4   9  18  35  58  81 111 149 190 229 287 351
#
# _framework density 23.281934
#
# number of rings (size 3 to 8) (size 9 to 14) (size 15 to 20)
#    0.000    3.200    2.000    3.600    0.000    0.800 
#    0.000    3.000    0.000    0.000    0.000    0.000 
#    0.000    6.400    0.000    0.000    0.000    0.400 
#
# Total GULP energy -222996.081952 kJ/mol
# GULP energy per Si atom -5574.902049 kJ/mol
# Density = 2.322894 g / cm^3
# Si number density = 23.281934 Si / 1000 Ang^3
#
#
#
# Elastic Constant Matrix: (Units=GPa)
#
#
# Indices 1 2 3 4 5 6 
#
# 1 42.6877 18.9229 34.3617 0.0000 0.0000 0.0000
# 2 18.9229 36.0335 45.5716 0.0000 0.0000 0.0000
# 3 34.3617 45.5716 243.8652 0.0000 0.0000 0.0000
# 4 0.0000 0.0000 0.0000 -3.5851 0.0000 0.0000
# 5 0.0000 0.0000 0.0000 0.0000 -250.9672 0.0000
# 6 0.0000 0.0000 0.0000 0.0000 0.0000 15.2249
#
#
#
# Elastic Compliance Matrix: (Units=1/GPa)
#
#
# Indices 1 2 3 4 5 6 
#
# 1 0.031088 -0.014124 -0.001741 0.000000 0.000000 0.000000
# 2 -0.014124 0.042757 -0.006000 0.000000 0.000000 0.000000
# 3 -0.001741 -0.006000 0.005467 0.000000 0.000000 0.000000
# 4 0.000000 0.000000 0.000000 -0.278935 0.000000 0.000000
# 5 0.000000 0.000000 0.000000 0.000000 -0.003985 0.000000
# 6 0.000000 0.000000 0.000000 0.000000 0.000000 0.065682
#
#
# Mechanical properties :
#
#
# Convention : Reuss Voigt Hill
#
# Bulk Modulus (GPa) = 28.10357 57.81098 42.95728
# Shear Modulus (GPa) = -60.72871 -32.95012 -46.83942
#
# Velocity S-wave (km/s) = -5.11280 -3.76608 -4.49021
# Velocity P-wave (km/s) = 4.77043 2.44409 2.89685
#
# Compressibility (1/GPa) = 0.03558266
#
# Stress axis : x y z
#
# Youngs Moduli (GPa) = 32.16626 23.38779 182.90921
#
# Poissons Ratio (x) = 0.33033 0.31846
# Poissons Ratio (y) = 0.45432 1.09746
# Poissons Ratio (z) = 0.05600 0.14033
#
# Static dielectric constant tensor:
#      x y z
#    x 1.886360 0.000000 0.000000 
#    y 0.000000 1.932130 0.000000 
#    z 0.000000 0.000000 1.934900 
# 
# From -- ./inp_files/48531.got.cif
#   From: 2010.05.17/outbox.cif.g08.bks.cpg/sg72_25_cif.got.tgz:48531.got - 2010.06.03 17:03:01.
