data_PCOD9529681
_publ_section_title
;
Structure prediction by ZEFSAII (Michael W. Deem and Ramdas Pophale) SiO2 
 PCOD9529681
Probable space group: I B C A 
;
_chemical_formula_sum "Si O2"
_cell_formula_units_Z 96
_cell_length_a 17.040415
_cell_length_b 16.685560
_cell_length_c 15.772449
_cell_angle_alpha 90.000000
_cell_angle_beta 90.000000
_cell_angle_gamma 90.000000
_cell_volume 4484.562553
_symmetry_space_group_name_H-M "I B C A "
_symmetry_group_IT_number 73
_symmetry_cell_setting 'orthorhombic'
loop_
_space_group_symop_operation_xyz
x,y,z
-x,1/2-y,z
x,-y,1/2-z
1/2-x,y,-z
-x,-y,-z
x,1/2+y,-z
-x,y,1/2+z
1/2+x,-y,z
1/2+x,1/2+y,1/2+z
1/2-x,-y,1/2+z
1/2+x,1/2-y,-z
-x,1/2+y,1/2-z
1/2-x,1/2-y,1/2-z
1/2+x,y,1/2-z
1/2-x,1/2+y,z
x,1/2-y,1/2+z
loop_
_atom_site_type_symbol
_atom_site_label
_atom_site_fract_x
_atom_site_fract_y
_atom_site_fract_z
Si Si1 0.317013 0.067457 0.321656
Si Si2 0.835331 0.866246 0.644583
Si Si3 0.514373 0.923237 0.607987
Si Si4 0.000000 0.250000 0.690883
Si Si5 0.591971 0.500000 0.750000
Si Si6 0.132220 0.796718 0.693775
Si Si7 0.496093 0.155473 0.059557
O O1 0.243211 0.086498 0.381812
O O2 0.395349 0.052459 0.376384
O O3 0.328716 0.144781 0.260584
O O4 0.306476 0.000000 0.250000
O O5 0.814255 0.771480 0.652174
O O6 0.915922 0.863760 0.591530
O O7 0.858279 0.921460 0.726006
O O8 0.511126 0.831558 0.641520
O O9 0.482310 0.909806 0.513515
O O10 0.462019 0.976985 0.669891
O O11 0.073536 0.258982 0.752387
O O12 0.073767 0.843669 0.629397
O O13 0.500000 0.250000 0.032659
#
# Coordination Sequence:
#
# PCOD9529681 Si02
#       7
#    16  16  16   8   8  16  16
#     4  11  23  38  60  92 129 164 217 259 317 390
#     4  11  21  39  61  91 124 166 208 266 320 391
#     4  11  22  37  63  93 121 164 212 271 318 378
#     4  10  16  34  62  86 112 152 216 256 292 374
#     4  12  22  38  64  90 122 166 228 252 318 388
#     4  10  19  39  64  90 119 161 217 263 315 377
#     4  10  21  39  66  93 124 159 213 272 328 373
#
# _framework density 21.406770000000002
#
# number of rings (size 3 to 8) (size 9 to 14) (size 15 to 20)
#    0.000    1.333    6.667    1.500    0.000    1.333 
#    0.000    0.000    0.000    1.000    0.000    0.000 
#    0.000    0.000    0.000    0.000    0.000    0.000 
#
# Total GULP energy -267408.846371 kJ/mol
# GULP energy per Si atom -5571.017633 kJ/mol
# Density = 2.135805 g / cm^3
# Si number density = 21.406770 Si / 1000 Ang^3
#
#
#
# Elastic Constant Matrix: (Units=GPa)
#
#
# Indices 1 2 3 4 5 6 
#
# 1 91.5928 21.8148 22.3131 0.0000 0.0000 0.0000
# 2 21.8148 90.4734 8.5822 0.0000 0.0000 0.0000
# 3 22.3131 8.5822 63.1578 0.0000 0.0000 0.0000
# 4 0.0000 0.0000 0.0000 27.7691 0.0000 0.0000
# 5 0.0000 0.0000 0.0000 0.0000 4.8203 0.0000
# 6 0.0000 0.0000 0.0000 0.0000 0.0000 22.1987
#
#
#
# Elastic Compliance Matrix: (Units=1/GPa)
#
#
# Indices 1 2 3 4 5 6 
#
# 1 0.012538 -0.002637 -0.004071 0.000000 0.000000 0.000000
# 2 -0.002637 0.011752 -0.000665 0.000000 0.000000 0.000000
# 3 -0.004071 -0.000665 0.017362 0.000000 0.000000 0.000000
# 4 0.000000 0.000000 0.000000 0.036011 0.000000 0.000000
# 5 0.000000 0.000000 0.000000 0.000000 0.207456 0.000000
# 6 0.000000 0.000000 0.000000 0.000000 0.000000 0.045048
#
#
# Mechanical properties :
#
#
# Convention : Reuss Voigt Hill
#
# Bulk Modulus (GPa) = 37.16787 38.96046 38.06417
# Shear Modulus (GPa) = 14.12904 23.79189 18.96046
#
# Velocity S-wave (km/s) = 2.57189 3.33741 2.97934
# Velocity P-wave (km/s) = 5.12053 5.75245 5.44566
#
# Compressibility (1/GPa) = 0.02690496
#
# Stress axis : x y z
#
# Youngs Moduli (GPa) = 79.75945 85.09275 57.59683
#
# Poissons Ratio (x) = 0.22438 0.23448
# Poissons Ratio (y) = 0.21032 0.03832
# Poissons Ratio (z) = 0.32471 0.05661
#
# Static dielectric constant tensor:
#      x y z
#    x 1.794290 0.000000 0.000000 
#    y 0.000000 1.851030 0.000000 
#    z 0.000000 0.000000 1.856690 
# 
# From -- ./inp_files/22566.got.cif
#   From: 2010.05.17/outbox.cif.g08.bks.cpg/sg73_12_cif.got.tgz:22566.got - 2010.06.03 17:35:07.
