data_PCOD9529103
_publ_section_title
;
Structure prediction by ZEFSAII (Michael W. Deem and Ramdas Pophale) SiO2 
 PCOD9529103
Probable space group: I B A M
;
_chemical_formula_sum "Si O2"
_cell_formula_units_Z 68
_cell_length_a 8.612285
_cell_length_b 13.460673
_cell_length_c 26.363082
_cell_angle_alpha 90.000000
_cell_angle_beta 90.000000
_cell_angle_gamma 90.000000
_cell_volume 3056.197019
_symmetry_space_group_name_H-M "I B A M"
_symmetry_group_IT_number 72
_symmetry_cell_setting 'orthorhombic'
loop_
_space_group_symop_operation_xyz
x,y,z
-x,-y,z
x,-y,1/2-z
-x,y,1/2-z
-x,-y,-z
x,y,-z
-x,y,1/2+z
x,-y,1/2+z
1/2+x,1/2+y,1/2+z
1/2-x,1/2-y,1/2+z
1/2+x,1/2-y,-z
1/2-x,1/2+y,-z
1/2-x,1/2-y,1/2-z
1/2+x,1/2+y,1/2-z
1/2-x,1/2+y,z
1/2+x,1/2-y,z
loop_
_atom_site_type_symbol
_atom_site_label
_atom_site_fract_x
_atom_site_fract_y
_atom_site_fract_z
Si Si1 0.633952 0.883425 0.840648
Si Si2 0.160991 0.719515 0.608856
Si Si3 0.338664 0.473716 0.104140
Si Si4 0.000000 0.500000 0.250000
Si Si5 0.948085 0.327297 0.500000
Si Si6 0.241501 0.537789 0.000000
O O1 0.772525 0.809141 0.857468
O O2 0.479271 0.831195 0.860697
O O3 0.684822 0.981268 0.870885
O O4 0.603613 0.926283 0.784708
O O5 0.304578 0.642552 0.601908
O O6 0.096222 0.730928 0.551256
O O7 0.500000 0.500000 0.130975
O O8 0.340685 0.529761 0.050454
O O9 0.855364 0.433078 0.500000
O O10 0.124898 0.368474 0.500000
#
# Coordination Sequence:
#
# PCOD9529103 Si02
#       6
#    16  16  16   4   8   8
#     4  12  25  47  73 104 147 192 256 323 385 445
#     4  11  23  42  70 105 144 190 241 306 381 462
#     4  11  21  40  67 106 147 191 241 301 370 459
#     4  12  28  52  78  98 142 204 270 336 400 430
#     4   9  18  35  65 105 142 192 235 281 371 463
#     4   9  17  33  65  98 147 197 229 280 368 453
#
# _framework density 22.249873999999998
#
# number of rings (size 3 to 8) (size 9 to 14) (size 15 to 20)
#    0.000    1.176    4.706    1.765    0.000    2.824 
#    0.000    2.941    0.000    0.000    0.000    0.000 
#    0.000    0.000    0.000    0.000    0.000    0.000 
#
# Total GULP energy -189779.737517 kJ/mol
# GULP energy per Si atom -5581.756986 kJ/mol
# Density = 2.219923 g / cm^3
# Si number density = 22.249874 Si / 1000 Ang^3
#
#
#
# Elastic Constant Matrix: (Units=GPa)
#
#
# Indices 1 2 3 4 5 6 
#
# 1 117.3913 49.0000 37.8454 0.0000 0.0000 0.0000
# 2 49.0000 114.9793 51.5740 0.0000 0.0000 0.0000
# 3 37.8454 51.5740 143.6061 0.0000 0.0000 0.0000
# 4 0.0000 0.0000 0.0000 8.8688 0.0000 0.0000
# 5 0.0000 0.0000 0.0000 0.0000 122.9665 0.0000
# 6 0.0000 0.0000 0.0000 0.0000 0.0000 58.0492
#
#
#
# Elastic Compliance Matrix: (Units=1/GPa)
#
#
# Indices 1 2 3 4 5 6 
#
# 1 0.010591 -0.003888 -0.001395 0.000000 0.000000 0.000000
# 2 -0.003888 0.011794 -0.003211 0.000000 0.000000 0.000000
# 3 -0.001395 -0.003211 0.008484 0.000000 0.000000 0.000000
# 4 0.000000 0.000000 0.000000 0.112755 0.000000 0.000000
# 5 0.000000 0.000000 0.000000 0.000000 0.008132 0.000000
# 6 0.000000 0.000000 0.000000 0.000000 0.000000 0.017227
#
#
# Mechanical properties :
#
#
# Convention : Reuss Voigt Hill
#
# Bulk Modulus (GPa) = 72.03574 72.53505 72.28539
# Shear Modulus (GPa) = 26.23314 53.81406 40.02360
#
# Velocity S-wave (km/s) = 3.43742 4.92329 4.24586
# Velocity P-wave (km/s) = 6.94266 8.06159 7.52296
#
# Compressibility (1/GPa) = 0.01388200
#
# Stress axis : x y z
#
# Youngs Moduli (GPa) = 94.41967 84.78550 117.86411
#
# Poissons Ratio (x) = 0.32963 0.16440
# Poissons Ratio (y) = 0.36709 0.37849
# Poissons Ratio (z) = 0.13170 0.27226
#
# Static dielectric constant tensor:
#      x y z
#    x 1.920050 0.000000 0.000000 
#    y 0.000000 1.887960 0.000000 
#    z 0.000000 0.000000 1.806210 
# 
# From -- ./inp_files/46996.got.cif
#   From: 2010.05.17/outbox.cif.g08.bks.cpg/sg72_24_cif.got.tgz:46996.got - 2010.06.03 17:03:01.
