data_PCOD9529507
_publ_section_title
;
Structure prediction by ZEFSAII (Michael W. Deem and Ramdas Pophale) SiO2 
 PCOD9529507
Probable space group: I B A M
;
_chemical_formula_sum "Si O2"
_cell_formula_units_Z 56
_cell_length_a 30.000000
_cell_length_b 12.000000
_cell_length_c 15.000000
_cell_angle_alpha 90.000000
_cell_angle_beta 90.000000
_cell_angle_gamma 90.000000
_cell_volume 5400.000000
_symmetry_space_group_name_H-M "I B A M"
_symmetry_group_IT_number 72
_symmetry_cell_setting 'orthorhombic'
loop_
_space_group_symop_operation_xyz
x,y,z
-x,-y,z
x,-y,1/2-z
-x,y,1/2-z
-x,-y,-z
x,y,-z
-x,y,1/2+z
x,-y,1/2+z
1/2+x,1/2+y,1/2+z
1/2-x,1/2-y,1/2+z
1/2+x,1/2-y,-z
1/2-x,1/2+y,-z
1/2-x,1/2-y,1/2-z
1/2+x,1/2+y,1/2-z
1/2-x,1/2+y,z
1/2+x,1/2-y,z
loop_
_atom_site_type_symbol
_atom_site_label
_atom_site_fract_x
_atom_site_fract_y
_atom_site_fract_z
Si Si1 0.251729 0.091302 0.826854
Si Si2 0.459605 0.243918 0.603930
Si Si3 0.182978 0.244451 0.271788
Si Si4 0.063952 0.226674 0.396359
Si Si5 0.674295 0.460223 0.599216
Si Si6 0.579908 0.526187 0.394004
Si Si7 0.898511 0.629841 0.760953
O O1 0.218685 0.188489 0.793500
O O2 0.296751 0.160726 0.837803
O O3 0.260342 0.000000 0.750000
O O4 0.221699 0.021463 0.894858
O O5 0.445435 0.233570 0.500000
O O6 0.512482 0.238958 0.606538
O O7 0.445636 0.366344 0.640050
O O8 0.436401 0.154814 0.666897
O O9 0.169714 0.139761 0.331883
O O10 0.146095 0.304733 0.213118
O O11 0.078537 0.230455 0.500000
O O12 0.089399 0.310542 0.332236
O O13 0.067869 0.098182 0.363308
O O14 0.667618 0.417208 0.500000
O O15 0.632799 0.541177 0.619141
O O16 0.570025 0.523733 0.500000
O O17 0.891298 0.500000 0.750000
#
# Coordination Sequence:
#
# PCOD9529507 Si02
#       7
#    16  16  16  16  16  16  16
#     4   9  19  35  57  81 108 145 185 238 295 349
#     4  10  22  39  60  87 119 153 199 260 315 361
#     4  10  20  37  57  79 113 152 195 239 291 354
#     4  10  21  39  61  87 119 156 197 250 313 374
#     4  10  19  33  57  87 116 148 187 238 301 363
#     4   9  17  34  60  88 118 149 188 243 312 372
#     4  12  25  39  59  84 117 164 213 249 293 367
#
# _framework density 10.370369999999999
#
# number of rings (size 3 to 8) (size 9 to 14) (size 15 to 20)
#    0.000    2.000    1.429    2.143    0.000    4.571 
#    0.000    2.857    0.000   10.286    0.000    0.000 
#    0.000    0.000    0.000    0.000    0.000    0.000 
#
# Total GULP energy -312105.960573 kJ/mol
# GULP energy per Si atom -5573.320725 kJ/mol
# Density = 1.034677 g / cm^3
# Si number density = 10.370370 Si / 1000 Ang^3
#
#
#
# Elastic Constant Matrix: (Units=GPa)
#
#
# Indices 1 2 3 4 5 6 
#
# 1 33.8314 0.0786 0.9254 0.0000 0.0000 0.0000
# 2 0.0786 54.7520 -0.2201 0.0000 0.0000 0.0000
# 3 0.9254 -0.2201 35.5568 0.0000 0.0000 0.0000
# 4 0.0000 0.0000 0.0000 13.3021 0.0000 0.0000
# 5 0.0000 0.0000 0.0000 0.0000 4.0837 0.0000
# 6 0.0000 0.0000 0.0000 0.0000 0.0000 23.8380
#
#
#
# Elastic Compliance Matrix: (Units=1/GPa)
#
#
# Indices 1 2 3 4 5 6 
#
# 1 0.029580 -0.000046 -0.000770 0.000000 0.000000 0.000000
# 2 -0.000046 0.018265 0.000114 0.000000 0.000000 0.000000
# 3 -0.000770 0.000114 0.028145 0.000000 0.000000 0.000000
# 4 0.000000 0.000000 0.000000 0.075176 0.000000 0.000000
# 5 0.000000 0.000000 0.000000 0.000000 0.244879 0.000000
# 6 0.000000 0.000000 0.000000 0.000000 0.000000 0.041950
#
#
# Mechanical properties :
#
#
# Convention : Reuss Voigt Hill
#
# Bulk Modulus (GPa) = 13.40734 13.96757 13.68745
# Shear Modulus (GPa) = 10.76986 16.46850 13.61918
#
# Velocity S-wave (km/s) = 2.28120 2.82089 2.56528
# Velocity P-wave (km/s) = 3.66289 4.16640 3.92273
#
# Compressibility (1/GPa) = 0.07458604
#
# Stress axis : x y z
#
# Youngs Moduli (GPa) = 33.80715 54.75038 35.53062
#
# Poissons Ratio (x) = 0.00249 0.02736
# Poissons Ratio (y) = 0.00154 -0.00406
# Poissons Ratio (z) = 0.02604 -0.00625
#
# Static dielectric constant tensor:
#      x y z
#    x 1.844140 0.000000 0.000000 
#    y 0.000000 1.723120 0.000000 
#    z 0.000000 0.000000 1.753070 
# 
# From -- ./inp_files/20735.got.cif
#   From: 2010.05.17/outbox.ucp.g08.bks.cvg/sg72_11_cif.got.tgz:20735.got - 2010.06.11 16:33:07.
