data_PCOD9529415
_publ_section_title
;
Structure prediction by ZEFSAII (Michael W. Deem and Ramdas Pophale) SiO2 
 PCOD9529415
Probable space group: I B A M
;
_chemical_formula_sum "Si O2"
_cell_formula_units_Z 48
_cell_length_a 19.049612
_cell_length_b 17.061297
_cell_length_c 5.477293
_cell_angle_alpha 90.000000
_cell_angle_beta 90.000000
_cell_angle_gamma 90.000000
_cell_volume 1780.180958
_symmetry_space_group_name_H-M "I B A M"
_symmetry_group_IT_number 72
_symmetry_cell_setting 'orthorhombic'
loop_
_space_group_symop_operation_xyz
x,y,z
-x,-y,z
x,-y,1/2-z
-x,y,1/2-z
-x,-y,-z
x,y,-z
-x,y,1/2+z
x,-y,1/2+z
1/2+x,1/2+y,1/2+z
1/2-x,1/2-y,1/2+z
1/2+x,1/2-y,-z
1/2-x,1/2+y,-z
1/2-x,1/2-y,1/2-z
1/2+x,1/2+y,1/2-z
1/2-x,1/2+y,z
1/2+x,1/2-y,z
loop_
_atom_site_type_symbol
_atom_site_label
_atom_site_fract_x
_atom_site_fract_y
_atom_site_fract_z
Si Si1 0.078449 0.276515 0.000000
Si Si2 0.837590 0.272094 0.000000
Si Si3 0.404102 0.038415 0.500000
Si Si4 0.527434 0.631048 0.000000
Si Si5 0.765051 0.562539 0.500000
Si Si6 0.194777 0.885308 0.000000
O O1 0.120740 0.259661 0.247424
O O2 0.072585 0.371105 0.000000
O O3 0.011482 0.218208 0.000000
O O4 0.778081 0.204911 0.000000
O O5 0.815799 0.362073 0.000000
O O6 0.428382 0.000000 0.250000
O O7 0.320316 0.011743 0.500000
O O8 0.500000 0.594793 0.250000
O O9 0.610910 0.621487 0.000000
O O10 0.718044 0.577116 0.742744
#
# Coordination Sequence:
#
# PCOD9529415 Si02
#       6
#     8   8   8   8   8   8
#     4  12  22  41  70  99 133 199 236 297 363 400
#     4  12  22  39  66  99 137 186 232 298 383 430
#     4  12  23  43  68  96 141 194 241 293 351 439
#     4  12  23  43  68  96 141 194 241 293 351 439
#     4  12  24  40  63 100 142 188 237 299 373 432
#     4  12  24  40  63 100 142 188 237 299 373 432
#
# _framework density 26.963550999999999
#
# number of rings (size 3 to 8) (size 9 to 14) (size 15 to 20)
#    0.000    0.000    6.667    5.000    0.000    0.000 
#    0.000    0.000    0.000    8.000    0.000    0.000 
#    0.000   46.667    0.000    0.000    0.000    0.000 
#
# Total GULP energy -134177.759852 kJ/mol
# GULP energy per Si atom -5590.739994 kJ/mol
# Density = 2.690218 g / cm^3
# Si number density = 26.963551 Si / 1000 Ang^3
#
#
#
# Elastic Constant Matrix: (Units=GPa)
#
#
# Indices 1 2 3 4 5 6 
#
# 1 181.0818 22.0921 93.7165 0.0000 0.0000 0.0000
# 2 22.0921 140.5633 22.2450 0.0000 0.0000 0.0000
# 3 93.7165 22.2450 293.6059 0.0000 0.0000 0.0000
# 4 0.0000 0.0000 0.0000 82.3976 0.0000 0.0000
# 5 0.0000 0.0000 0.0000 0.0000 93.4228 0.0000
# 6 0.0000 0.0000 0.0000 0.0000 0.0000 29.4473
#
#
#
# Elastic Compliance Matrix: (Units=1/GPa)
#
#
# Indices 1 2 3 4 5 6 
#
# 1 0.006687 -0.000722 -0.002080 0.000000 0.000000 0.000000
# 2 -0.000722 0.007278 -0.000321 0.000000 0.000000 0.000000
# 3 -0.002080 -0.000321 0.004094 0.000000 0.000000 0.000000
# 4 0.000000 0.000000 0.000000 0.012136 0.000000 0.000000
# 5 0.000000 0.000000 0.000000 0.000000 0.010704 0.000000
# 6 0.000000 0.000000 0.000000 0.000000 0.000000 0.033959
#
#
# Mechanical properties :
#
#
# Convention : Reuss Voigt Hill
#
# Bulk Modulus (GPa) = 84.64384 99.03979 91.84182
# Shear Modulus (GPa) = 58.79469 72.86670 65.83070
#
# Velocity S-wave (km/s) = 4.67467 5.20412 4.94648
# Velocity P-wave (km/s) = 7.78440 8.53939 8.17062
#
# Compressibility (1/GPa) = 0.01181421
#
# Stress axis : x y z
#
# Youngs Moduli (GPa) = 149.54995 137.39111 244.25632
#
# Poissons Ratio (x) = 0.09917 0.50797
# Poissons Ratio (y) = 0.10795 0.07842
# Poissons Ratio (z) = 0.31101 0.04411
#
# Static dielectric constant tensor:
#      x y z
#    x 2.155790 0.000000 0.000000 
#    y 0.000000 2.288810 0.000000 
#    z 0.000000 0.000000 2.210580 
# 
# From -- ./inp_files/622.got.cif
#   From: 2010.05.17/outbox.cif.g08.bks.cpg/sg72_1_cif.got.tgz:622.got - 2010.06.03 17:03:01.
