data_PCOD9529087
_publ_section_title
;
Structure prediction by ZEFSAII (Michael W. Deem and Ramdas Pophale) SiO2 
 PCOD9529087
Probable space group: I B A M
;
_chemical_formula_sum "Si O2"
_cell_formula_units_Z 120
_cell_length_a 19.326754
_cell_length_b 21.319234
_cell_length_c 16.029898
_cell_angle_alpha 90.000000
_cell_angle_beta 90.000000
_cell_angle_gamma 90.000000
_cell_volume 6604.824376
_symmetry_space_group_name_H-M "I B A M"
_symmetry_group_IT_number 72
_symmetry_cell_setting 'orthorhombic'
loop_
_space_group_symop_operation_xyz
x,y,z
-x,-y,z
x,-y,1/2-z
-x,y,1/2-z
-x,-y,-z
x,y,-z
-x,y,1/2+z
x,-y,1/2+z
1/2+x,1/2+y,1/2+z
1/2-x,1/2-y,1/2+z
1/2+x,1/2-y,-z
1/2-x,1/2+y,-z
1/2-x,1/2-y,1/2-z
1/2+x,1/2+y,1/2-z
1/2-x,1/2+y,z
1/2+x,1/2-y,z
loop_
_atom_site_type_symbol
_atom_site_label
_atom_site_fract_x
_atom_site_fract_y
_atom_site_fract_z
Si Si1 0.995657 0.300034 0.651151
Si Si2 0.355933 0.262156 0.401294
Si Si3 0.736833 0.361888 0.174954
Si Si4 0.701899 0.060691 0.000000
Si Si5 0.530173 0.068338 0.400486
Si Si6 0.150440 0.726361 0.905127
Si Si7 0.258415 0.340039 0.865812
Si Si8 0.828982 0.527550 0.344413
O O1 0.983474 0.372863 0.626403
O O2 0.070000 0.281420 0.614020
O O3 0.000000 0.295204 0.750000
O O4 0.934110 0.256765 0.618101
O O5 0.344094 0.261165 0.500000
O O6 0.329342 0.328211 0.365541
O O7 0.306744 0.207969 0.363739
O O8 0.800499 0.315049 0.153740
O O9 0.728255 0.364921 0.273664
O O10 0.760901 0.429587 0.142989
O O11 0.738681 0.105119 0.071945
O O12 0.666396 0.018729 0.076199
O O13 0.539195 0.072948 0.500000
O O14 0.603209 0.071355 0.353317
O O15 0.500000 0.000000 0.380248
O O16 0.177400 0.797259 0.894805
O O17 0.163980 0.705597 0.000000
O O18 0.828354 0.500000 0.250000
#
# Coordination Sequence:
#
# PCOD9529087 Si02
#       8
#    16  16  16   8  16  16  16  16
#     4  12  25  38  57  87 122 164 208 252 301 373
#     4  11  23  37  60  88 121 160 200 264 319 357
#     4  11  22  39  61  89 118 157 207 257 306 363
#     4  12  24  40  57  88 119 154 203 248 306 357
#     4  11  26  40  56  81 121 170 208 245 293 363
#     4  11  21  38  62  87 117 158 202 252 312 363
#     4  11  21  40  60  86 120 157 198 256 312 369
#     4  12  26  39  62  88 122 166 208 252 301 369
#
# _framework density 18.168538000000002
#
# number of rings (size 3 to 8) (size 9 to 14) (size 15 to 20)
#    0.000    0.667    4.667    5.600    5.600    0.000 
#    0.000    0.000    0.000    0.000    0.000    1.867 
#    0.000    0.000    0.000    0.000    0.000    0.000 
#
# Total GULP energy -334212.700194 kJ/mol
# GULP energy per Si atom -5570.211670 kJ/mol
# Density = 1.812719 g / cm^3
# Si number density = 18.168538 Si / 1000 Ang^3
#
#
#
# Elastic Constant Matrix: (Units=GPa)
#
#
# Indices 1 2 3 4 5 6 
#
# 1 72.2647 23.6696 -2.1017 0.0000 0.0000 0.0000
# 2 23.6696 28.7247 4.6242 0.0000 0.0000 0.0000
# 3 -2.1017 4.6242 65.5012 0.0000 0.0000 0.0000
# 4 0.0000 0.0000 0.0000 18.9429 0.0000 0.0000
# 5 0.0000 0.0000 0.0000 0.0000 21.4172 0.0000
# 6 0.0000 0.0000 0.0000 0.0000 0.0000 24.2373
#
#
#
# Elastic Compliance Matrix: (Units=1/GPa)
#
#
# Indices 1 2 3 4 5 6 
#
# 1 0.019149 -0.016061 0.001748 0.000000 0.000000 0.000000
# 2 -0.016061 0.048684 -0.003952 0.000000 0.000000 0.000000
# 3 0.001748 -0.003952 0.015602 0.000000 0.000000 0.000000
# 4 0.000000 0.000000 0.000000 0.052790 0.000000 0.000000
# 5 0.000000 0.000000 0.000000 0.000000 0.046691 0.000000
# 6 0.000000 0.000000 0.000000 0.000000 0.000000 0.041259
#
#
# Mechanical properties :
#
#
# Convention : Reuss Voigt Hill
#
# Bulk Modulus (GPa) = 21.31939 24.31941 22.81940
# Shear Modulus (GPa) = 18.09362 22.27273 20.18318
#
# Velocity S-wave (km/s) = 3.15917 3.50508 3.33661
# Velocity P-wave (km/s) = 5.00668 5.45850 5.23747
#
# Compressibility (1/GPa) = 0.04690565
#
# Stress axis : x y z
#
# Youngs Moduli (GPa) = 52.22082 20.54067 64.09435
#
# Poissons Ratio (x) = 0.32990 -0.11206
# Poissons Ratio (y) = 0.83871 0.25332
# Poissons Ratio (z) = -0.09130 0.08118
#
# Static dielectric constant tensor:
#      x y z
#    x 1.645800 0.000000 0.000000 
#    y 0.000000 1.661770 0.000000 
#    z 0.000000 0.000000 1.629660 
# 
# From -- ./inp_files/24491.got.cif
#   From: 2010.05.17/outbox.cif.g08.bks.cpg/sg72_13_cif.got.tgz:24491.got - 2010.06.03 17:03:01.
