data_PCOD9529607
_publ_section_title
;
Structure prediction by ZEFSAII (Michael W. Deem and Ramdas Pophale) SiO2 
 PCOD9529607
Probable space group: I B C A 
;
_chemical_formula_sum "Si O2"
_cell_formula_units_Z 112
_cell_length_a 17.648577
_cell_length_b 19.085084
_cell_length_c 14.187320
_cell_angle_alpha 90.000000
_cell_angle_beta 90.000000
_cell_angle_gamma 90.000000
_cell_volume 4778.638023
_symmetry_space_group_name_H-M "I B C A "
_symmetry_group_IT_number 73
_symmetry_cell_setting 'orthorhombic'
loop_
_space_group_symop_operation_xyz
x,y,z
-x,1/2-y,z
x,-y,1/2-z
1/2-x,y,-z
-x,-y,-z
x,1/2+y,-z
-x,y,1/2+z
1/2+x,-y,z
1/2+x,1/2+y,1/2+z
1/2-x,-y,1/2+z
1/2+x,1/2-y,-z
-x,1/2+y,1/2-z
1/2-x,1/2-y,1/2-z
1/2+x,y,1/2-z
1/2-x,1/2+y,z
x,1/2-y,1/2+z
loop_
_atom_site_type_symbol
_atom_site_label
_atom_site_fract_x
_atom_site_fract_y
_atom_site_fract_z
Si Si1 0.595059 0.331263 0.892383
Si Si2 0.080660 0.664653 0.419317
Si Si3 0.961865 0.674810 0.135368
Si Si4 0.682854 0.286012 0.694120
Si Si5 0.117633 0.146630 0.886566
Si Si6 0.730223 0.414884 0.390544
Si Si7 0.237142 0.569760 0.885680
O O1 0.607539 0.245426 0.896117
O O2 0.504248 0.342412 0.877681
O O3 0.667723 0.379091 0.858237
O O4 0.600667 0.356446 0.003110
O O5 0.073950 0.654969 0.533931
O O6 0.142214 0.608754 0.382420
O O7 0.901892 0.684886 0.220196
O O8 0.000000 0.750000 0.116734
O O9 0.036563 0.631445 0.160584
O O10 0.750000 0.250000 0.750000
O O11 0.653782 0.223509 0.627647
O O12 0.721965 0.351951 0.649905
O O13 0.183291 0.098121 0.847466
O O14 0.750000 0.416171 0.500000
O O15 0.763044 0.488999 0.356127
O O16 0.250000 0.573111 0.000000
#
# Coordination Sequence:
#
# PCOD9529607 Si02
#       7
#    16  16  16  16  16  16  16
#     4   9  15  29  52  83 113 148 186 233 283 345
#     4  10  15  28  55  81 111 147 188 237 288 331
#     4   9  15  31  54  80 103 142 194 225 277 344
#     4  11  21  34  56  82 106 145 196 240 281 328
#     4   9  16  33  55  74 104 149 194 223 271 351
#     4  11  20  33  50  84 122 147 184 240 296 349
#     4   9  19  31  48  83 120 150 184 227 291 347
#
# _framework density 23.437639999999998
#
# number of rings (size 3 to 8) (size 9 to 14) (size 15 to 20)
#    0.000    2.286    5.714    0.857    0.000    1.143 
#    2.571    3.571   18.857    0.000    0.000    6.000 
#    0.000    0.000    0.000    0.000    0.000    0.143 
#
# Total GULP energy -311940.988735 kJ/mol
# GULP energy per Si atom -5570.374799 kJ/mol
# Density = 2.338430 g / cm^3
# Si number density = 23.437640 Si / 1000 Ang^3
#
#
#
# Elastic Constant Matrix: (Units=GPa)
#
#
# Indices 1 2 3 4 5 6 
#
# 1 209.9319 71.5259 47.1593 0.0000 0.0000 0.0000
# 2 71.5259 122.2185 20.5157 0.0000 0.0000 0.0000
# 3 47.1593 20.5157 36.3274 0.0000 0.0000 0.0000
# 4 0.0000 0.0000 0.0000 13.4481 0.0000 0.0000
# 5 0.0000 0.0000 0.0000 0.0000 39.7771 0.0000
# 6 0.0000 0.0000 0.0000 0.0000 0.0000 18.7685
#
#
#
# Elastic Compliance Matrix: (Units=1/GPa)
#
#
# Indices 1 2 3 4 5 6 
#
# 1 0.007663 -0.003110 -0.008192 0.000000 0.000000 0.000000
# 2 -0.003110 0.010301 -0.001780 0.000000 0.000000 0.000000
# 3 -0.008192 -0.001780 0.039168 0.000000 0.000000 0.000000
# 4 0.000000 0.000000 0.000000 0.074360 0.000000 0.000000
# 5 0.000000 0.000000 0.000000 0.000000 0.025140 0.000000
# 6 0.000000 0.000000 0.000000 0.000000 0.000000 0.053281
#
#
# Mechanical properties :
#
#
# Convention : Reuss Voigt Hill
#
# Bulk Modulus (GPa) = 32.29211 71.87552 52.08381
# Shear Modulus (GPa) = 20.29229 29.68386 24.98808
#
# Velocity S-wave (km/s) = 2.94564 3.56266 3.26874
# Velocity P-wave (km/s) = 5.03754 6.90338 6.04291
#
# Compressibility (1/GPa) = 0.03096732
#
# Stress axis : x y z
#
# Youngs Moduli (GPa) = 130.49407 97.08008 25.53132
#
# Poissons Ratio (x) = 0.30188 0.20915
# Poissons Ratio (y) = 0.40579 0.04546
# Poissons Ratio (z) = 1.06901 0.17285
#
# Static dielectric constant tensor:
#      x y z
#    x 1.995640 0.000000 0.000000 
#    y 0.000000 1.906780 0.000000 
#    z 0.000000 0.000000 2.138020 
# 
# From -- ./inp_files/26625.got.cif
#   From: 2010.05.17/outbox.cif.g08.bks.cpg/sg73_14_cif.got.tgz:26625.got - 2010.06.03 17:35:07.
