data_PCOD9529851
_publ_section_title
;
Structure prediction by ZEFSAII (Michael W. Deem and Ramdas Pophale) SiO2 
 PCOD9529851
Probable space group: I B C A 
;
_chemical_formula_sum "Si O2"
_cell_formula_units_Z 112
_cell_length_a 24.871321
_cell_length_b 13.818563
_cell_length_c 13.977437
_cell_angle_alpha 90.000000
_cell_angle_beta 90.000000
_cell_angle_gamma 90.000000
_cell_volume 4803.848241
_symmetry_space_group_name_H-M "I B C A "
_symmetry_group_IT_number 73
_symmetry_cell_setting 'orthorhombic'
loop_
_space_group_symop_operation_xyz
x,y,z
-x,1/2-y,z
x,-y,1/2-z
1/2-x,y,-z
-x,-y,-z
x,1/2+y,-z
-x,y,1/2+z
1/2+x,-y,z
1/2+x,1/2+y,1/2+z
1/2-x,-y,1/2+z
1/2+x,1/2-y,-z
-x,1/2+y,1/2-z
1/2-x,1/2-y,1/2-z
1/2+x,y,1/2-z
1/2-x,1/2+y,z
x,1/2-y,1/2+z
loop_
_atom_site_type_symbol
_atom_site_label
_atom_site_fract_x
_atom_site_fract_y
_atom_site_fract_z
Si Si1 0.703768 0.368551 0.575388
Si Si2 0.878043 0.863342 0.429641
Si Si3 0.779224 0.854988 0.272602
Si Si4 0.991959 0.567585 0.881390
Si Si5 0.019622 0.355577 0.328551
Si Si6 0.801075 0.866567 0.062648
Si Si7 0.911604 0.345908 0.995919
O O1 0.750000 0.391215 0.500000
O O2 0.649118 0.399802 0.527426
O O3 0.728678 0.404142 0.673834
O O4 0.698354 0.250965 0.573157
O O5 0.831114 0.851936 0.346603
O O6 0.903101 0.758611 0.455163
O O7 0.929132 0.929770 0.408948
O O8 0.750000 0.750000 0.250000
O O9 0.797261 0.900729 0.172224
O O10 0.988398 0.630160 0.784035
O O11 0.006825 0.455318 0.865045
O O12 0.036191 0.610707 0.952260
O O13 0.000000 0.250000 0.357624
O O14 0.077152 0.349648 0.381141
O O15 0.853160 0.893064 0.001555
O O16 0.750000 0.892390 0.000000
#
# Coordination Sequence:
#
# PCOD9529851 Si02
#       7
#    16  16  16  16  16  16  16
#     4   7  13  24  43  75 115 158 205 253 308 375
#     4  10  18  32  56  91 132 171 213 267 331 397
#     4   9  15  28  52  86 128 176 225 268 320 389
#     4  11  24  40  62  95 132 171 219 273 334 405
#     4  11  24  43  65  92 126 170 221 272 331 402
#     4   9  17  30  51  84 126 171 217 263 316 383
#     4  11  21  37  62  93 131 172 215 268 327 395
#
# _framework density 23.314641000000002
#
# number of rings (size 3 to 8) (size 9 to 14) (size 15 to 20)
#    0.000    2.286    0.000    6.000    0.000    0.000 
#    0.000    4.286    0.000    2.571    0.000    9.000 
#    0.000    0.000    0.000    0.286    0.000    0.000 
#
# Total GULP energy -311871.910559 kJ/mol
# GULP energy per Si atom -5569.141260 kJ/mol
# Density = 2.326158 g / cm^3
# Si number density = 23.314641 Si / 1000 Ang^3
#
#
#
# Elastic Constant Matrix: (Units=GPa)
#
#
# Indices 1 2 3 4 5 6 
#
# 1 149.5451 28.4424 53.3314 0.0000 0.0000 0.0000
# 2 28.4424 120.1332 15.2885 0.0000 0.0000 0.0000
# 3 53.3314 15.2885 118.8684 0.0000 0.0000 0.0000
# 4 0.0000 0.0000 0.0000 -10.5648 0.0000 0.0000
# 5 0.0000 0.0000 0.0000 0.0000 43.2434 0.0000
# 6 0.0000 0.0000 0.0000 0.0000 0.0000 -0.9831
#
#
#
# Elastic Compliance Matrix: (Units=1/GPa)
#
#
# Indices 1 2 3 4 5 6 
#
# 1 0.008219 -0.001501 -0.003494 0.000000 0.000000 0.000000
# 2 -0.001501 0.008737 -0.000450 0.000000 0.000000 0.000000
# 3 -0.003494 -0.000450 0.010038 0.000000 0.000000 0.000000
# 4 0.000000 0.000000 0.000000 -0.094654 0.000000 0.000000
# 5 0.000000 0.000000 0.000000 0.000000 0.023125 0.000000
# 6 0.000000 0.000000 0.000000 0.000000 0.000000 -1.017219
#
#
# Mechanical properties :
#
#
# Convention : Reuss Voigt Hill
#
# Bulk Modulus (GPa) = 62.10225 64.74127 63.42176
# Shear Modulus (GPa) = -4.78242 25.77139 10.49449
#
# Velocity S-wave (km/s) = -1.43377 3.32832 2.12391
# Velocity P-wave (km/s) = 4.89423 6.52680 5.76856
#
# Compressibility (1/GPa) = 0.01610248
#
# Stress axis : x y z
#
# Youngs Moduli (GPa) = 121.67533 114.45854 99.61837
#
# Poissons Ratio (x) = 0.17182 0.34809
# Poissons Ratio (y) = 0.18265 0.04485
# Poissons Ratio (z) = 0.42517 0.05153
#
# Static dielectric constant tensor:
#      x y z
#    x 1.911750 0.000000 0.000000 
#    y 0.000000 1.983820 0.000000 
#    z 0.000000 0.000000 1.940010 
# 
# From -- ./inp_files/19417.got.cif
#   From: 2010.05.17/outbox.cif.g08.bks.cpg/sg73_10_cif.got.tgz:19417.got - 2010.06.03 17:35:07.
