data_PCOD9529457
_publ_section_title
;
Structure prediction by ZEFSAII (Michael W. Deem and Ramdas Pophale) SiO2 
 PCOD9529457
Probable space group: I B A M
;
_chemical_formula_sum "Si O2"
_cell_formula_units_Z 56
_cell_length_a 8.401071
_cell_length_b 13.719330
_cell_length_c 19.669274
_cell_angle_alpha 90.000000
_cell_angle_beta 90.000000
_cell_angle_gamma 90.000000
_cell_volume 2267.022800
_symmetry_space_group_name_H-M "I B A M"
_symmetry_group_IT_number 72
_symmetry_cell_setting 'orthorhombic'
loop_
_space_group_symop_operation_xyz
x,y,z
-x,-y,z
x,-y,1/2-z
-x,y,1/2-z
-x,-y,-z
x,y,-z
-x,y,1/2+z
x,-y,1/2+z
1/2+x,1/2+y,1/2+z
1/2-x,1/2-y,1/2+z
1/2+x,1/2-y,-z
1/2-x,1/2+y,-z
1/2-x,1/2-y,1/2-z
1/2+x,1/2+y,1/2-z
1/2-x,1/2+y,z
1/2+x,1/2-y,z
loop_
_atom_site_type_symbol
_atom_site_label
_atom_site_fract_x
_atom_site_fract_y
_atom_site_fract_z
Si Si1 0.622945 0.221291 0.888224
Si Si2 0.164180 0.055939 0.650399
Si Si3 0.181465 0.399679 0.426483
Si Si4 0.500000 0.316529 0.750000
O O1 0.775784 0.150049 0.890980
O O2 0.676305 0.321536 0.921835
O O3 0.478811 0.161414 0.919371
O O4 0.569228 0.252213 0.811393
O O5 0.133173 0.108244 0.722323
O O6 0.296772 0.975452 0.634818
O O7 0.000000 0.000000 0.632537
O O8 0.187531 0.450015 0.500000
#
# Coordination Sequence:
#
# PCOD9529457 Si02
#       4
#    16  16  16   8
#     4  12  26  48  77 110 150 200 245 317 371 445
#     4  12  26  46  75 108 150 193 243 316 372 445
#     4  12  27  48  76 111 150 201 253 303 378 450
#     4  12  25  48  77 108 152 194 259 302 383 446
#
# _framework density 24.702000999999999
#
# number of rings (size 3 to 8) (size 9 to 14) (size 15 to 20)
#    0.000    0.000    5.714    3.000    0.000    4.000 
#    0.000    1.429    0.000    0.000    0.000    0.000 
#    0.000    0.000    0.000    0.000    0.000    0.000 
#
# Total GULP energy -156479.601341 kJ/mol
# GULP energy per Si atom -5588.557191 kJ/mol
# Density = 2.464578 g / cm^3
# Si number density = 24.702001 Si / 1000 Ang^3
#
#
#
# Elastic Constant Matrix: (Units=GPa)
#
#
# Indices 1 2 3 4 5 6 
#
# 1 90.0281 23.3022 35.1791 0.0000 0.0000 0.0000
# 2 23.3022 108.2958 35.2927 0.0000 0.0000 0.0000
# 3 35.1791 35.2927 105.3225 0.0000 0.0000 0.0000
# 4 0.0000 0.0000 0.0000 28.8101 0.0000 0.0000
# 5 0.0000 0.0000 0.0000 0.0000 6.7835 0.0000
# 6 0.0000 0.0000 0.0000 0.0000 0.0000 62.0953
#
#
#
# Elastic Compliance Matrix: (Units=1/GPa)
#
#
# Indices 1 2 3 4 5 6 
#
# 1 0.013003 -0.001552 -0.003823 0.000000 0.000000 0.000000
# 2 -0.001552 0.010551 -0.003017 0.000000 0.000000 0.000000
# 3 -0.003823 -0.003017 0.011783 0.000000 0.000000 0.000000
# 4 0.000000 0.000000 0.000000 0.034710 0.000000 0.000000
# 5 0.000000 0.000000 0.000000 0.000000 0.147416 0.000000
# 6 0.000000 0.000000 0.000000 0.000000 0.000000 0.016104
#
#
# Mechanical properties :
#
#
# Convention : Reuss Voigt Hill
#
# Bulk Modulus (GPa) = 53.90160 54.57715 54.23938
# Shear Modulus (GPa) = 19.49040 33.52928 26.50984
#
# Velocity S-wave (km/s) = 2.81200 3.68822 3.27951
# Velocity P-wave (km/s) = 5.69309 6.34661 6.02871
#
# Compressibility (1/GPa) = 0.01855232
#
# Stress axis : x y z
#
# Youngs Moduli (GPa) = 76.90360 94.77588 84.87023
#
# Poissons Ratio (x) = 0.14709 0.32448
# Poissons Ratio (y) = 0.11935 0.25607
# Poissons Ratio (z) = 0.29402 0.28596
#
# Static dielectric constant tensor:
#      x y z
#    x 1.991900 0.000000 0.000000 
#    y 0.000000 1.921930 0.000000 
#    z 0.000000 0.000000 1.962670 
# 
# From -- ./inp_files/35247.got.cif
#   From: 2010.05.17/outbox.cif.g08.bks.cpg/sg72_18_cif.got.tgz:35247.got - 2010.06.03 17:03:01.
