data_PCOD9529153
_publ_section_title
;
Structure prediction by ZEFSAII (Michael W. Deem and Ramdas Pophale) SiO2 
 PCOD9529153
Probable space group: I B A M
;
_chemical_formula_sum "Si O2"
_cell_formula_units_Z 64
_cell_length_a 15.683957
_cell_length_b 9.047634
_cell_length_c 20.008287
_cell_angle_alpha 90.000000
_cell_angle_beta 90.000000
_cell_angle_gamma 90.000000
_cell_volume 2839.230000
_symmetry_space_group_name_H-M "I B A M"
_symmetry_group_IT_number 72
_symmetry_cell_setting 'orthorhombic'
loop_
_space_group_symop_operation_xyz
x,y,z
-x,-y,z
x,-y,1/2-z
-x,y,1/2-z
-x,-y,-z
x,y,-z
-x,y,1/2+z
x,-y,1/2+z
1/2+x,1/2+y,1/2+z
1/2-x,1/2-y,1/2+z
1/2+x,1/2-y,-z
1/2-x,1/2+y,-z
1/2-x,1/2-y,1/2-z
1/2+x,1/2+y,1/2-z
1/2-x,1/2+y,z
1/2+x,1/2-y,z
loop_
_atom_site_type_symbol
_atom_site_label
_atom_site_fract_x
_atom_site_fract_y
_atom_site_fract_z
Si Si1 0.380560 0.372850 0.575814
Si Si2 0.579340 0.717687 0.074520
Si Si3 0.668028 0.334377 0.777262
Si Si4 0.916385 0.395549 0.800456
O O1 0.350165 0.336948 0.500000
O O2 0.384664 0.551640 0.581286
O O3 0.477037 0.308075 0.581330
O O4 0.333524 0.321487 0.642490
O O5 0.611308 0.835276 0.128277
O O6 0.597126 0.770807 0.000000
O O7 0.665656 0.500000 0.750000
O O8 0.750000 0.250000 0.750000
O O9 0.586897 0.252489 0.744131
O O10 0.863492 0.500000 0.750000
O O11 0.000000 0.500000 0.812886
#
# Coordination Sequence:
#
# PCOD9529153 Si02
#       4
#    16  16  16  16
#     4   9  18  37  64  96 128 168 225 278 337 405
#     4   9  18  35  63  95 129 170 219 281 342 398
#     4  12  25  44  66  94 137 183 225 276 345 421
#     4  11  22  38  59  96 133 169 224 281 334 402
#
# _framework density 22.541323999999999
#
# number of rings (size 3 to 8) (size 9 to 14) (size 15 to 20)
#    0.000    1.750    2.500    5.250    0.000    0.500 
#    0.000    3.750    0.000    0.750    0.000    0.000 
#    0.000    0.000    0.000    0.000    0.000    0.000 
#
# Total GULP energy -178247.213988 kJ/mol
# GULP energy per Si atom -5570.225437 kJ/mol
# Density = 2.249002 g / cm^3
# Si number density = 22.541324 Si / 1000 Ang^3
#
#
#
# Elastic Constant Matrix: (Units=GPa)
#
#
# Indices 1 2 3 4 5 6 
#
# 1 77.8541 33.4855 39.5713 0.0000 0.0000 0.0000
# 2 33.4855 109.5685 54.9422 0.0000 0.0000 0.0000
# 3 39.5713 54.9422 264.8961 0.0000 0.0000 0.0000
# 4 0.0000 0.0000 0.0000 51.4895 0.0000 0.0000
# 5 0.0000 0.0000 0.0000 0.0000 22.0260 0.0000
# 6 0.0000 0.0000 0.0000 0.0000 0.0000 10.4554
#
#
#
# Elastic Compliance Matrix: (Units=1/GPa)
#
#
# Indices 1 2 3 4 5 6 
#
# 1 0.015283 -0.003935 -0.001467 0.000000 0.000000 0.000000
# 2 -0.003935 0.011199 -0.001735 0.000000 0.000000 0.000000
# 3 -0.001467 -0.001735 0.004354 0.000000 0.000000 0.000000
# 4 0.000000 0.000000 0.000000 0.019421 0.000000 0.000000
# 5 0.000000 0.000000 0.000000 0.000000 0.045401 0.000000
# 6 0.000000 0.000000 0.000000 0.000000 0.000000 0.095644
#
#
# Mechanical properties :
#
#
# Convention : Reuss Voigt Hill
#
# Bulk Modulus (GPa) = 60.37842 78.70185 69.54013
# Shear Modulus (GPa) = 23.68578 38.41548 31.05063
#
# Velocity S-wave (km/s) = 3.24508 4.13270 3.71549
# Velocity P-wave (km/s) = 6.39410 7.60017 7.02307
#
# Compressibility (1/GPa) = 0.01656221
#
# Stress axis : x y z
#
# Youngs Moduli (GPa) = 65.43411 89.29116 229.67144
#
# Poissons Ratio (x) = 0.35136 0.33688
# Poissons Ratio (y) = 0.25748 0.39849
# Poissons Ratio (z) = 0.09598 0.15492
#
# Static dielectric constant tensor:
#      x y z
#    x 2.007650 0.000000 0.000000 
#    y 0.000000 1.667230 0.000000 
#    z 0.000000 0.000000 1.868680 
# 
# From -- ./inp_files/32199.got.cif
#   From: 2010.05.17/outbox.cif.g08.bks.cpg/sg72_17_cif.got.tgz:32199.got - 2010.06.03 17:03:01.
