data_PCOD9529922
_publ_section_title
;
Structure prediction by ZEFSAII (Michael W. Deem and Ramdas Pophale) SiO2 
 PCOD9529922
Probable space group: I B C A 
;
_chemical_formula_sum "Si O2"
_cell_formula_units_Z 120
_cell_length_a 18.607481
_cell_length_b 22.188335
_cell_length_c 15.950173
_cell_angle_alpha 90.000000
_cell_angle_beta 90.000000
_cell_angle_gamma 90.000000
_cell_volume 6585.332326
_symmetry_space_group_name_H-M "I B C A "
_symmetry_group_IT_number 73
_symmetry_cell_setting 'orthorhombic'
loop_
_space_group_symop_operation_xyz
x,y,z
-x,1/2-y,z
x,-y,1/2-z
1/2-x,y,-z
-x,-y,-z
x,1/2+y,-z
-x,y,1/2+z
1/2+x,-y,z
1/2+x,1/2+y,1/2+z
1/2-x,-y,1/2+z
1/2+x,1/2-y,-z
-x,1/2+y,1/2-z
1/2-x,1/2-y,1/2-z
1/2+x,y,1/2-z
1/2-x,1/2+y,z
x,1/2-y,1/2+z
loop_
_atom_site_type_symbol
_atom_site_label
_atom_site_fract_x
_atom_site_fract_y
_atom_site_fract_z
Si Si1 0.330985 0.833623 0.502403
Si Si2 0.470024 0.547893 0.382944
Si Si3 0.903220 0.118959 0.170192
Si Si4 0.409025 0.698910 0.835257
Si Si5 0.829491 0.196233 0.032203
Si Si6 0.458387 0.918073 0.561980
Si Si7 0.583514 0.000000 0.750000
Si Si8 0.571568 0.173831 0.127004
O O1 0.250000 0.858118 0.500000
O O2 0.352834 0.820978 0.405680
O O3 0.331173 0.768156 0.547569
O O4 0.390669 0.875706 0.544609
O O5 0.503171 0.568575 0.472398
O O6 0.435134 0.482910 0.400338
O O7 0.532879 0.534857 0.316394
O O8 0.422488 0.603582 0.349811
O O9 0.909280 0.160170 0.251934
O O10 0.850751 0.153958 0.108415
O O11 0.980275 0.109121 0.123537
O O12 0.877244 0.052537 0.198800
O O13 0.401010 0.770360 0.816769
O O14 0.486476 0.686558 0.877910
O O15 0.750000 0.182014 0.000000
O O16 0.887972 0.183605 0.960126
#
# Coordination Sequence:
#
# PCOD9529922 Si02
#       8
#    16  16  16  16  16  16   8  16
#     4  10  20  38  56  82 124 157 196 240 299 362
#     4  10  18  35  56  83 116 147 188 239 299 341
#     4  11  20  37  60  89 114 150 204 248 297 363
#     4  10  20  33  59  87 111 149 189 251 303 332
#     4  10  22  38  58  82 117 163 199 239 295 361
#     4  10  20  33  60  86 108 155 200 239 288 357
#     4  10  20  32  58  86 118 146 184 248 304 342
#     4  10  18  36  57  80 115 146 191 247 285 346
#
# _framework density 18.222314000000001
#
# number of rings (size 3 to 8) (size 9 to 14) (size 15 to 20)
#    0.000    1.867    4.000    0.000    0.000    2.667 
#    0.000    8.000    0.000    0.000    0.000    0.000 
#    0.000    0.000    0.000    0.000    0.000    0.000 
#
# Total GULP energy -334328.890916 kJ/mol
# GULP energy per Si atom -5572.148182 kJ/mol
# Density = 1.818084 g / cm^3
# Si number density = 18.222314 Si / 1000 Ang^3
#
#
#
# Elastic Constant Matrix: (Units=GPa)
#
#
# Indices 1 2 3 4 5 6 
#
# 1 89.8483 49.3648 36.7752 0.0000 0.0000 0.0000
# 2 49.3648 162.9011 56.3562 0.0000 0.0000 0.0000
# 3 36.7752 56.3562 81.4313 0.0000 0.0000 0.0000
# 4 0.0000 0.0000 0.0000 37.8626 0.0000 0.0000
# 5 0.0000 0.0000 0.0000 0.0000 7.3601 0.0000
# 6 0.0000 0.0000 0.0000 0.0000 0.0000 14.5123
#
#
#
# Elastic Compliance Matrix: (Units=1/GPa)
#
#
# Indices 1 2 3 4 5 6 
#
# 1 0.014572 -0.002813 -0.004634 0.000000 0.000000 0.000000
# 2 -0.002813 0.008614 -0.004691 0.000000 0.000000 0.000000
# 3 -0.004634 -0.004691 0.017620 0.000000 0.000000 0.000000
# 4 0.000000 0.000000 0.000000 0.026411 0.000000 0.000000
# 5 0.000000 0.000000 0.000000 0.000000 0.135868 0.000000
# 6 0.000000 0.000000 0.000000 0.000000 0.000000 0.068907
#
#
# Mechanical properties :
#
#
# Convention : Reuss Voigt Hill
#
# Bulk Modulus (GPa) = 60.49808 68.79701 64.64754
# Shear Modulus (GPa) = 16.56844 24.72596 20.64720
#
# Velocity S-wave (km/s) = 3.01863 3.68762 3.36977
# Velocity P-wave (km/s) = 6.73955 7.48115 7.12001
#
# Compressibility (1/GPa) = 0.01652945
#
# Stress axis : x y z
#
# Youngs Moduli (GPa) = 68.62467 116.09049 56.75388
#
# Poissons Ratio (x) = 0.32651 0.26302
# Poissons Ratio (y) = 0.19301 0.26625
# Poissons Ratio (z) = 0.31803 0.54462
#
# Static dielectric constant tensor:
#      x y z
#    x 1.589300 0.000000 0.000000 
#    y 0.000000 1.699040 0.000000 
#    z 0.000000 0.000000 1.605060 
# 
# From -- ./inp_files/18262.got.cif
#   From: 2010.05.17/outbox.cif.g08.bks.cpg/sg73_10_cif.got.tgz:18262.got - 2010.06.03 17:35:07.
