data_PCOD9529391
_publ_section_title
;
Structure prediction by ZEFSAII (Michael W. Deem and Ramdas Pophale) SiO2 
 PCOD9529391
Probable space group: I B A M
;
_chemical_formula_sum "Si O2"
_cell_formula_units_Z 52
_cell_length_a 7.379951
_cell_length_b 15.742251
_cell_length_c 20.033241
_cell_angle_alpha 90.000000
_cell_angle_beta 90.000000
_cell_angle_gamma 90.000000
_cell_volume 2327.402661
_symmetry_space_group_name_H-M "I B A M"
_symmetry_group_IT_number 72
_symmetry_cell_setting 'orthorhombic'
loop_
_space_group_symop_operation_xyz
x,y,z
-x,-y,z
x,-y,1/2-z
-x,y,1/2-z
-x,-y,-z
x,y,-z
-x,y,1/2+z
x,-y,1/2+z
1/2+x,1/2+y,1/2+z
1/2-x,1/2-y,1/2+z
1/2+x,1/2-y,-z
1/2-x,1/2+y,-z
1/2-x,1/2-y,1/2-z
1/2+x,1/2+y,1/2-z
1/2-x,1/2+y,z
1/2+x,1/2-y,z
loop_
_atom_site_type_symbol
_atom_site_label
_atom_site_fract_x
_atom_site_fract_y
_atom_site_fract_z
Si Si1 0.202299 0.178204 0.422656
Si Si2 0.000000 0.500000 0.500000
Si Si3 0.064299 0.902693 0.679921
Si Si4 0.096902 0.366953 0.608575
O O1 0.224539 0.148212 0.500000
O O2 0.173802 0.279069 0.421891
O O3 0.383693 0.151877 0.383514
O O4 0.034245 0.138755 0.383671
O O5 0.105628 0.444628 0.557771
O O6 0.278422 0.890457 0.670909
O O7 0.000000 0.863663 0.750000
O O8 0.000000 0.000000 0.679687
#
# Coordination Sequence:
#
# PCOD9529391 Si02
#       4
#    16   4  16  16
#     4  12  24  45  75 109 148 190 246 318 371 448
#     4  12  24  40  74 114 142 190 232 320 376 426
#     4  11  28  50  73 105 150 200 248 308 379 457
#     4  12  25  45  72 110 148 188 250 303 381 441
#
# _framework density 22.342502
#
# number of rings (size 3 to 8) (size 9 to 14) (size 15 to 20)
#    0.000    0.308    6.154    1.846    2.154    3.077 
#    0.000    3.077    0.000    0.000    0.000    0.000 
#    0.000    0.000    0.000    0.000    0.000    0.000 
#
# Total GULP energy -144833.844013 kJ/mol
# GULP energy per Si atom -5570.532462 kJ/mol
# Density = 2.229165 g / cm^3
# Si number density = 22.342502 Si / 1000 Ang^3
#
#
#
# Elastic Constant Matrix: (Units=GPa)
#
#
# Indices 1 2 3 4 5 6 
#
# 1 94.9287 18.4202 19.9098 0.0000 0.0000 0.0000
# 2 18.4202 70.8468 30.6791 0.0000 0.0000 0.0000
# 3 19.9098 30.6791 73.4957 0.0000 0.0000 0.0000
# 4 0.0000 0.0000 0.0000 -4.0829 0.0000 0.0000
# 5 0.0000 0.0000 0.0000 0.0000 -210.4959 0.0000
# 6 0.0000 0.0000 0.0000 0.0000 0.0000 43.8487
#
#
#
# Elastic Compliance Matrix: (Units=1/GPa)
#
#
# Indices 1 2 3 4 5 6 
#
# 1 0.011393 -0.001984 -0.002258 0.000000 0.000000 0.000000
# 2 -0.001984 0.017575 -0.006799 0.000000 0.000000 0.000000
# 3 -0.002258 -0.006799 0.017056 0.000000 0.000000 0.000000
# 4 0.000000 0.000000 0.000000 -0.244925 0.000000 0.000000
# 5 0.000000 0.000000 0.000000 0.000000 -0.004751 0.000000
# 6 0.000000 0.000000 0.000000 0.000000 0.000000 0.022806
#
#
# Mechanical properties :
#
#
# Convention : Reuss Voigt Hill
#
# Bulk Modulus (GPa) = 41.76827 41.92104 41.84465
# Shear Modulus (GPa) = -33.16019 -22.79519 -27.97769
#
# Velocity S-wave (km/s) = -3.85668 -3.19762 -3.54251
# Velocity P-wave (km/s) = 1.04730 2.27390 1.42720
#
# Compressibility (1/GPa) = 0.02394162
#
# Stress axis : x y z
#
# Youngs Moduli (GPa) = 87.77442 56.89910 58.63087
#
# Poissons Ratio (x) = 0.11291 0.13239
# Poissons Ratio (y) = 0.17418 0.39861
# Poissons Ratio (z) = 0.19819 0.38684
#
# Static dielectric constant tensor:
#      x y z
#    x 1.820430 0.000000 0.000000 
#    y 0.000000 1.903300 0.000000 
#    z 0.000000 0.000000 1.804720 
# 
# From -- ./inp_files/27423.got.cif
#   From: 2010.05.17/outbox.cif.g08.bks.cpg/sg72_14_cif.got.tgz:27423.got - 2010.06.03 17:03:01.
