data_PCOD9529461
_publ_section_title
;
Structure prediction by ZEFSAII (Michael W. Deem and Ramdas Pophale) SiO2 
 PCOD9529461
Probable space group: I B A M
;
_chemical_formula_sum "Si O2"
_cell_formula_units_Z 68
_cell_length_a 8.261987
_cell_length_b 15.729600
_cell_length_c 21.394026
_cell_angle_alpha 90.000000
_cell_angle_beta 90.000000
_cell_angle_gamma 90.000000
_cell_volume 2780.319498
_symmetry_space_group_name_H-M "I B A M"
_symmetry_group_IT_number 72
_symmetry_cell_setting 'orthorhombic'
loop_
_space_group_symop_operation_xyz
x,y,z
-x,-y,z
x,-y,1/2-z
-x,y,1/2-z
-x,-y,-z
x,y,-z
-x,y,1/2+z
x,-y,1/2+z
1/2+x,1/2+y,1/2+z
1/2-x,1/2-y,1/2+z
1/2+x,1/2-y,-z
1/2-x,1/2+y,-z
1/2-x,1/2-y,1/2-z
1/2+x,1/2+y,1/2-z
1/2-x,1/2+y,z
1/2+x,1/2-y,z
loop_
_atom_site_type_symbol
_atom_site_label
_atom_site_fract_x
_atom_site_fract_y
_atom_site_fract_z
Si Si1 0.146141 0.881463 0.640158
Si Si2 0.869267 0.707845 0.797971
Si Si3 0.445268 0.628319 0.000000
Si Si4 0.500000 0.500000 0.250000
Si Si5 0.480683 0.901684 0.113690
Si Si6 0.183194 0.688764 0.500000
O O1 0.080816 0.786087 0.656465
O O2 0.340866 0.873596 0.635359
O O3 0.089450 0.910516 0.569861
O O4 0.096828 0.939730 0.699886
O O5 0.750000 0.750000 0.750000
O O6 0.000000 0.675965 0.750000
O O7 0.838267 0.623278 0.837273
O O8 0.632791 0.656418 0.000000
O O9 0.327741 0.710155 0.000000
O O10 0.418822 0.848639 0.056354
O O11 0.500000 0.000000 0.100324
#
# Coordination Sequence:
#
# PCOD9529461 Si02
#       6
#    16  16   8   4  16   8
#     4  12  28  51  81 117 161 213 272 338 416 486
#     4  12  26  46  74 110 155 212 266 324 403 483
#     4  12  28  50  88 115 164 217 278 335 411 498
#     4  12  32  50  86 120 166 198 282 340 408 486
#     4  12  29  49  80 115 163 207 275 341 405 486
#     4  12  27  49  80 121 157 216 272 336 404 497
#
# _framework density 24.457619999999999
#
# number of rings (size 3 to 8) (size 9 to 14) (size 15 to 20)
#    0.000    0.000    5.882    2.471    9.882    0.941 
#    0.000    0.000    0.000    0.000    0.000    0.000 
#    0.000    0.000    0.000    0.000    0.000    0.000 
#
# Total GULP energy -189659.181262 kJ/mol
# GULP energy per Si atom -5578.211214 kJ/mol
# Density = 2.440195 g / cm^3
# Si number density = 24.457620 Si / 1000 Ang^3
#
#
#
# Elastic Constant Matrix: (Units=GPa)
#
#
# Indices 1 2 3 4 5 6 
#
# 1 91.2890 -0.1067 53.9276 0.0000 0.0000 0.0000
# 2 -0.1067 57.4980 31.7402 0.0000 0.0000 0.0000
# 3 53.9276 31.7402 204.5305 0.0000 0.0000 0.0000
# 4 0.0000 0.0000 0.0000 16.4503 0.0000 0.0000
# 5 0.0000 0.0000 0.0000 0.0000 32.4986 0.0000
# 6 0.0000 0.0000 0.0000 0.0000 0.0000 20.5698
#
#
#
# Elastic Compliance Matrix: (Units=1/GPa)
#
#
# Indices 1 2 3 4 5 6 
#
# 1 0.013209 0.002130 -0.003813 0.000000 0.000000 0.000000
# 2 0.002130 0.019365 -0.003567 0.000000 0.000000 0.000000
# 3 -0.003813 -0.003567 0.006448 0.000000 0.000000 0.000000
# 4 0.000000 0.000000 0.000000 0.060789 0.000000 0.000000
# 5 0.000000 0.000000 0.000000 0.000000 0.030771 0.000000
# 6 0.000000 0.000000 0.000000 0.000000 0.000000 0.048615
#
#
# Mechanical properties :
#
#
# Convention : Reuss Voigt Hill
#
# Bulk Modulus (GPa) = 35.06126 58.27107 46.66617
# Shear Modulus (GPa) = 25.09975 31.75415 28.42695
#
# Velocity S-wave (km/s) = 3.20700 3.60715 3.41294
# Velocity P-wave (km/s) = 5.29903 6.42073 5.88666
#
# Compressibility (1/GPa) = 0.02852150
#
# Stress axis : x y z
#
# Youngs Moduli (GPa) = 75.70376 51.64028 155.08259
#
# Poissons Ratio (x) = -0.10997 0.59138
# Poissons Ratio (y) = -0.16122 0.55312
# Poissons Ratio (z) = 0.28868 0.18418
#
# Static dielectric constant tensor:
#      x y z
#    x 1.924130 0.000000 0.000000 
#    y 0.000000 1.952560 0.000000 
#    z 0.000000 0.000000 -2.492580 
# 
# From -- ./inp_files/35511.got.cif
#   From: 2010.05.17/outbox.cif.g08.bks.cpg/sg72_18_cif.got.tgz:35511.got - 2010.06.03 17:03:01.
