data_PCOD9529605
_publ_section_title
;
Structure prediction by ZEFSAII (Michael W. Deem and Ramdas Pophale) SiO2 
 PCOD9529605
Probable space group: I B C A 
;
_chemical_formula_sum "Si O2"
_cell_formula_units_Z 88
_cell_length_a 16.019094
_cell_length_b 29.525207
_cell_length_c 8.372118
_cell_angle_alpha 90.000000
_cell_angle_beta 90.000000
_cell_angle_gamma 90.000000
_cell_volume 3959.736089
_symmetry_space_group_name_H-M "I B C A "
_symmetry_group_IT_number 73
_symmetry_cell_setting 'orthorhombic'
loop_
_space_group_symop_operation_xyz
x,y,z
-x,1/2-y,z
x,-y,1/2-z
1/2-x,y,-z
-x,-y,-z
x,1/2+y,-z
-x,y,1/2+z
1/2+x,-y,z
1/2+x,1/2+y,1/2+z
1/2-x,-y,1/2+z
1/2+x,1/2-y,-z
-x,1/2+y,1/2-z
1/2-x,1/2-y,1/2-z
1/2+x,y,1/2-z
1/2-x,1/2+y,z
x,1/2-y,1/2+z
loop_
_atom_site_type_symbol
_atom_site_label
_atom_site_fract_x
_atom_site_fract_y
_atom_site_fract_z
Si Si1 0.692029 0.607924 0.259241
Si Si2 0.250000 0.460387 0.500000
Si Si3 0.345331 0.733941 0.292231
Si Si4 0.534745 0.500000 0.750000
Si Si5 0.648031 0.317453 0.021789
Si Si6 0.890319 0.536084 0.966579
Si Si7 0.750000 0.175731 0.000000
O O1 0.753160 0.573336 0.349797
O O2 0.636607 0.633081 0.396278
O O3 0.647131 0.578816 0.122404
O O4 0.736728 0.646584 0.158071
O O5 0.172896 0.493347 0.460310
O O6 0.250000 0.750000 0.250000
O O7 0.385516 0.780872 0.349379
O O8 0.330128 0.705797 0.455495
O O9 0.380232 0.702139 0.151168
O O10 0.474301 0.474758 0.871537
O O11 0.587775 0.463347 0.652742
O O12 0.750000 0.316530 0.000000
#
# Coordination Sequence:
#
# PCOD9529605 Si02
#       7
#    16   8  16   8  16  16   8
#     4  12  22  33  53  87 118 150 201 251 307 353
#     4  12  23  41  58  90 124 154 200 265 323 360
#     4  10  15  28  44  68 115 172 182 212 302 374
#     4  10  24  48  64  78 114 170 216 244 326 384
#     4  10  16  29  45  72 114 161 187 228 285 380
#     4  11  25  43  64  86 116 167 204 265 312 387
#     4  12  19  27  48  80 120 160 190 241 297 374
#
# _framework density 22.223704000000001
#
# number of rings (size 3 to 8) (size 9 to 14) (size 15 to 20)
#    0.000    1.091    9.091    0.545    5.091    0.000 
#    0.000    0.000    0.000    0.000    0.000    0.000 
#    0.000   17.455    0.000    0.000    0.000    0.000 
#
# Total GULP energy -245035.302965 kJ/mol
# GULP energy per Si atom -5568.984158 kJ/mol
# Density = 2.217312 g / cm^3
# Si number density = 22.223704 Si / 1000 Ang^3
#
#
#
# Elastic Constant Matrix: (Units=GPa)
#
#
# Indices 1 2 3 4 5 6 
#
# 1 9.5307 23.5069 30.6227 -0.0002 0.0002 -0.0001
# 2 23.5069 123.1755 56.1130 -0.0005 -0.0005 -0.0002
# 3 30.6227 56.1130 135.6313 -0.0003 -0.0028 -0.0024
# 4 -0.0002 -0.0005 -0.0003 64.6921 -0.0024 -0.0012
# 5 0.0002 -0.0005 -0.0028 -0.0024 29.1008 0.0004
# 6 -0.0001 -0.0002 -0.0024 -0.0012 0.0004 3.4224
#
#
#
# Elastic Compliance Matrix: (Units=1/GPa)
#
#
# Indices 1 2 3 4 5 6 
#
# 1 0.693622 -0.075203 -0.125493 0.000001 -0.000018 -0.000070
# 2 -0.075203 0.018157 0.009467 0.000000 0.000002 0.000005
# 3 -0.125493 0.009467 0.031790 0.000000 0.000004 0.000019
# 4 0.000001 0.000000 0.000000 0.015458 0.000001 0.000005
# 5 -0.000018 0.000002 0.000004 0.000001 0.034363 -0.000004
# 6 -0.000070 0.000005 0.000019 0.000005 -0.000004 0.292196
#
#
# Mechanical properties :
#
#
# Convention : Reuss Voigt Hill
#
# Bulk Modulus (GPa) = 2.76922 54.31364 28.54143
# Shear Modulus (GPa) = 3.14780 29.98271 16.56525
#
# Velocity S-wave (km/s) = 1.19142 3.67704 2.73314
# Velocity P-wave (km/s) = 1.77241 6.52074 4.77815
#
# Compressibility (1/GPa) = 0.36111245
#
# Stress axis : x y z
#
# Youngs Moduli (GPa) = 1.44171 55.07384 31.45658
#
# Poissons Ratio (x) = 4.14170 3.94757
# Poissons Ratio (y) = 0.10842 -0.29780
# Poissons Ratio (z) = 0.18092 -0.52139
#
# Static dielectric constant tensor:
#      x y z
#    x 1.830210 0.000000 0.000000 
#    y 0.000000 1.927860 0.000000 
#    z 0.000000 0.000000 1.950450 
# 
# From -- ./inp_files/5757.got.cif
#   From: 2010.05.17/outbox.cif.g08.bks.cpg/sg73_3_cif.got.tgz:5757.got - 2010.06.03 17:35:07.
