data_PCOD9529059
_publ_section_title
;
Structure prediction by ZEFSAII (Michael W. Deem and Ramdas Pophale) SiO2 
 PCOD9529059
Probable space group: I B A M
;
_chemical_formula_sum "Si O2"
_cell_formula_units_Z 116
_cell_length_a 9.992421
_cell_length_b 35.012399
_cell_length_c 17.586544
_cell_angle_alpha 90.000000
_cell_angle_beta 90.000000
_cell_angle_gamma 90.000000
_cell_volume 6152.804208
_symmetry_space_group_name_H-M "I B A M"
_symmetry_group_IT_number 72
_symmetry_cell_setting 'orthorhombic'
loop_
_space_group_symop_operation_xyz
x,y,z
-x,-y,z
x,-y,1/2-z
-x,y,1/2-z
-x,-y,-z
x,y,-z
-x,y,1/2+z
x,-y,1/2+z
1/2+x,1/2+y,1/2+z
1/2-x,1/2-y,1/2+z
1/2+x,1/2-y,-z
1/2-x,1/2+y,-z
1/2-x,1/2-y,1/2-z
1/2+x,1/2+y,1/2-z
1/2-x,1/2+y,z
1/2+x,1/2-y,z
loop_
_atom_site_type_symbol
_atom_site_label
_atom_site_fract_x
_atom_site_fract_y
_atom_site_fract_z
Si Si1 0.491370 0.713539 0.592474
Si Si2 0.818824 0.562282 0.669925
Si Si3 0.338785 0.500650 0.084631
Si Si4 0.701646 0.780983 0.093085
Si Si5 0.000000 0.500000 0.750000
Si Si6 0.825649 0.365773 0.911343
Si Si7 0.502006 0.372857 0.089192
Si Si8 0.123326 0.936383 0.198572
O O1 0.492444 0.714347 0.500000
O O2 0.388532 0.745727 0.618795
O O3 0.643543 0.722040 0.617010
O O4 0.455975 0.669861 0.611877
O O5 0.718649 0.541314 0.610606
O O6 0.913708 0.528597 0.698365
O O7 0.888360 0.598722 0.632602
O O8 0.732383 0.577128 0.741060
O O9 0.500000 0.500000 0.082039
O O10 0.309070 0.469126 0.147987
O O11 0.289279 0.491426 0.000000
O O12 0.647495 0.822754 0.116221
O O13 0.701787 0.781254 0.000000
O O14 0.663879 0.371523 0.905637
O O15 0.861130 0.367901 0.000000
O O16 0.436965 0.404145 0.143740
O O17 0.469789 0.380203 0.000000
O O18 0.000000 0.951893 0.250000
#
# Coordination Sequence:
#
# PCOD9529059 Si02
#       8
#    16  16  16  16   4  16  16  16
#     4   8  14  26  46  74 109 145 179 219 271 323
#     4  12  23  39  57  74 104 146 190 222 273 331
#     4  11  21  34  57  87 110 128 165 231 291 329
#     4   8  14  26  48  78 109 140 177 223 272 324
#     4  12  28  44  56  68 104 160 198 226 256 332
#     4   9  17  32  55  83 109 137 178 227 275 329
#     4   9  17  30  51  85 118 138 166 223 286 328
#     4  12  20  32  56  84 107 134 174 225 280 343
#
# _framework density 18.853193000000001
#
# number of rings (size 3 to 8) (size 9 to 14) (size 15 to 20)
#    0.000    2.069    4.138    2.483    0.000    2.207 
#    0.000    2.759    0.000    2.483    1.793    0.000 
#    0.000    0.000    0.000    0.000    0.000    0.000 
#
# Total GULP energy -323448.384409 kJ/mol
# GULP energy per Si atom -5576.696283 kJ/mol
# Density = 1.881028 g / cm^3
# Si number density = 18.853193 Si / 1000 Ang^3
#
#
#
# Elastic Constant Matrix: (Units=GPa)
#
#
# Indices 1 2 3 4 5 6 
#
# 1 27.1660 22.7238 7.0569 0.0000 0.0000 0.0000
# 2 22.7238 127.5154 37.6294 -0.0001 0.0000 0.0000
# 3 7.0569 37.6294 64.7529 -0.0003 -0.0001 -0.0001
# 4 0.0000 -0.0001 -0.0003 -24.1164 0.0001 0.0001
# 5 0.0000 0.0000 -0.0001 0.0001 3.4503 0.0000
# 6 0.0000 0.0000 -0.0001 0.0001 0.0000 26.7056
#
#
#
# Elastic Compliance Matrix: (Units=1/GPa)
#
#
# Indices 1 2 3 4 5 6 
#
# 1 0.043263 -0.007626 -0.000283 0.000000 0.000000 0.000000
# 2 -0.007626 0.010810 -0.005451 0.000000 0.000000 0.000000
# 3 -0.000283 -0.005451 0.018642 0.000000 0.000001 0.000000
# 4 0.000000 0.000000 0.000000 -0.041466 0.000001 0.000000
# 5 0.000000 0.000000 0.000001 0.000001 0.289828 0.000000
# 6 0.000000 0.000000 0.000000 0.000000 0.000000 0.037445
#
#
# Mechanical properties :
#
#
# Convention : Reuss Voigt Hill
#
# Bulk Modulus (GPa) = 21.74160 39.36159 30.55160
# Shear Modulus (GPa) = 12.48208 11.34285 11.91246
#
# Velocity S-wave (km/s) = 2.57586 2.45550 2.51640
# Velocity P-wave (km/s) = 4.51706 5.38169 4.96822
#
# Compressibility (1/GPa) = 0.04599477
#
# Stress axis : x y z
#
# Youngs Moduli (GPa) = 23.11426 92.50980 53.64326
#
# Poissons Ratio (x) = 0.70549 0.01519
# Poissons Ratio (y) = 0.17627 0.29239
# Poissons Ratio (z) = 0.00655 0.50424
#
# Static dielectric constant tensor:
#      x y z
#    x 1.665560 0.000000 0.000000 
#    y 0.000000 1.674000 0.000000 
#    z 0.000000 0.000000 1.672380 
# 
# From -- ./inp_files/29799.got.cif
#   From: 2010.05.17/outbox.cif.g08.bks.cpg/sg72_15_cif.got.tgz:29799.got - 2010.06.03 17:03:01.
