data_PCOD9529828
_publ_section_title
;
Structure prediction by ZEFSAII (Michael W. Deem and Ramdas Pophale) SiO2 
 PCOD9529828
Probable space group: I B C A 
;
_chemical_formula_sum "Si O2"
_cell_formula_units_Z 96
_cell_length_a 26.542008
_cell_length_b 8.946284
_cell_length_c 22.021999
_cell_angle_alpha 90.000000
_cell_angle_beta 90.000000
_cell_angle_gamma 90.000000
_cell_volume 5229.175227
_symmetry_space_group_name_H-M "I B C A "
_symmetry_group_IT_number 73
_symmetry_cell_setting 'orthorhombic'
loop_
_space_group_symop_operation_xyz
x,y,z
-x,1/2-y,z
x,-y,1/2-z
1/2-x,y,-z
-x,-y,-z
x,1/2+y,-z
-x,y,1/2+z
1/2+x,-y,z
1/2+x,1/2+y,1/2+z
1/2-x,-y,1/2+z
1/2+x,1/2-y,-z
-x,1/2+y,1/2-z
1/2-x,1/2-y,1/2-z
1/2+x,y,1/2-z
1/2-x,1/2+y,z
x,1/2-y,1/2+z
loop_
_atom_site_type_symbol
_atom_site_label
_atom_site_fract_x
_atom_site_fract_y
_atom_site_fract_z
Si Si1 0.111462 0.710375 0.648542
Si Si2 0.000000 0.750000 0.168240
Si Si3 0.142367 0.039265 0.685812
Si Si4 0.250000 0.930339 0.500000
Si Si5 0.156015 0.000000 0.250000
Si Si6 0.203378 0.310826 0.923237
Si Si7 0.452885 0.000000 0.250000
Si Si8 0.223580 0.775403 0.315629
O O1 0.124055 0.622587 0.711734
O O2 0.147212 0.648439 0.596411
O O3 0.052161 0.710175 0.635171
O O4 0.129853 0.883227 0.654223
O O5 0.014825 0.610482 0.210285
O O6 0.086793 0.092741 0.707707
O O7 0.180514 0.159555 0.660676
O O8 0.168643 0.000000 0.750000
O O9 0.207761 0.817823 0.525794
O O10 0.269772 0.040874 0.552015
O O11 0.191962 0.075694 0.199315
O O12 0.233161 0.240708 0.865615
O O13 0.250000 0.750000 0.250000
#
# Coordination Sequence:
#
# PCOD9529828 Si02
#       8
#    16   8  16   8   8  16   8  16
#     4  11  21  33  54  76 112 143 185 220 273 321
#     4  10  18  32  48  74 102 146 184 220 260 322
#     4   9  17  32  43  70 110 155 165 201 257 331
#     4  10  24  42  58  74 106 146 194 216 272 322
#     4  12  21  29  48  86 120 148 168 214 262 350
#     4  11  22  39  57  79 106 147 181 230 262 326
#     4   8  17  29  48  62 112 154 180 200 252 336
#     4  12  22  30  54  85 120 139 172 218 279 337
#
# _framework density 18.358536999999998
#
# number of rings (size 3 to 8) (size 9 to 14) (size 15 to 20)
#    0.500    1.000    3.333    2.500    3.500    0.000 
#    0.000    0.000    0.000    1.000    0.000    0.000 
#    0.000    0.000    0.000    0.000    0.000    0.000 
#
# Total GULP energy -267208.359790 kJ/mol
# GULP energy per Si atom -5566.840829 kJ/mol
# Density = 1.831675 g / cm^3
# Si number density = 18.358537 Si / 1000 Ang^3
#
#
#
# Elastic Constant Matrix: (Units=GPa)
#
#
# Indices 1 2 3 4 5 6 
#
# 1 142.6698 36.3923 23.4764 0.0000 0.0000 0.0000
# 2 36.3923 71.4244 9.4030 0.0000 0.0000 0.0000
# 3 23.4764 9.4030 44.5830 0.0000 0.0000 0.0000
# 4 0.0000 0.0000 0.0000 12.4582 0.0000 0.0000
# 5 0.0000 0.0000 0.0000 0.0000 47.7365 0.0000
# 6 0.0000 0.0000 0.0000 0.0000 0.0000 26.6267
#
#
#
# Elastic Compliance Matrix: (Units=1/GPa)
#
#
# Indices 1 2 3 4 5 6 
#
# 1 0.008615 -0.003901 -0.003714 0.000000 0.000000 0.000000
# 2 -0.003901 0.016167 -0.001356 0.000000 0.000000 0.000000
# 3 -0.003714 -0.001356 0.024672 0.000000 0.000000 0.000000
# 4 0.000000 0.000000 0.000000 0.080268 0.000000 0.000000
# 5 0.000000 0.000000 0.000000 0.000000 0.020948 0.000000
# 6 0.000000 0.000000 0.000000 0.000000 0.000000 0.037556
#
#
# Mechanical properties :
#
#
# Convention : Reuss Voigt Hill
#
# Bulk Modulus (GPa) = 31.73286 44.13563 37.93424
# Shear Modulus (GPa) = 23.07634 29.99130 26.53382
#
# Velocity S-wave (km/s) = 3.54924 4.04622 3.80585
# Velocity P-wave (km/s) = 5.84112 6.77660 6.32618
#
# Compressibility (1/GPa) = 0.03151307
#
# Stress axis : x y z
#
# Youngs Moduli (GPa) = 116.07210 61.85505 40.53227
#
# Poissons Ratio (x) = 0.24128 0.15053
# Poissons Ratio (y) = 0.45277 0.05495
# Poissons Ratio (z) = 0.43109 0.08386
#
# Static dielectric constant tensor:
#      x y z
#    x 1.662770 0.000000 0.000000 
#    y 0.000000 1.540310 0.000000 
#    z 0.000000 0.000000 1.674010 
# 
# From -- ./inp_files/6520.got.cif
#   From: 2010.05.17/outbox.cif.g08.bks.cpg/sg73_4_cif.got.tgz:6520.got - 2010.06.03 17:35:07.
