data_PCOD9529131
_publ_section_title
;
Structure prediction by ZEFSAII (Michael W. Deem and Ramdas Pophale) SiO2 
 PCOD9529131
Probable space group: I B A M
;
_chemical_formula_sum "Si O2"
_cell_formula_units_Z 128
_cell_length_a 18.477064
_cell_length_b 21.510236
_cell_length_c 14.716742
_cell_angle_alpha 90.000000
_cell_angle_beta 90.000000
_cell_angle_gamma 90.000000
_cell_volume 5849.110347
_symmetry_space_group_name_H-M "I B A M"
_symmetry_group_IT_number 72
_symmetry_cell_setting 'orthorhombic'
loop_
_space_group_symop_operation_xyz
x,y,z
-x,-y,z
x,-y,1/2-z
-x,y,1/2-z
-x,-y,-z
x,y,-z
-x,y,1/2+z
x,-y,1/2+z
1/2+x,1/2+y,1/2+z
1/2-x,1/2-y,1/2+z
1/2+x,1/2-y,-z
1/2-x,1/2+y,-z
1/2-x,1/2-y,1/2-z
1/2+x,1/2+y,1/2-z
1/2-x,1/2+y,z
1/2+x,1/2-y,z
loop_
_atom_site_type_symbol
_atom_site_label
_atom_site_fract_x
_atom_site_fract_y
_atom_site_fract_z
Si Si1 0.842650 0.135972 0.640344
Si Si2 0.836450 0.129069 0.136875
Si Si3 0.274762 0.238089 0.147112
Si Si4 0.506405 0.650744 0.149860
Si Si5 0.994203 0.598080 0.140512
Si Si6 0.566891 0.221792 0.603775
Si Si7 0.614159 0.000623 0.860359
Si Si8 0.223463 0.004380 0.139430
O O1 0.839509 0.135168 0.751911
O O2 0.786382 0.190366 0.610137
O O3 0.819538 0.066339 0.612362
O O4 0.925640 0.147749 0.611037
O O5 0.793777 0.192397 0.108447
O O6 0.920315 0.124770 0.105736
O O7 0.801257 0.064037 0.110030
O O8 0.250000 0.250000 0.250000
O O9 0.353911 0.205580 0.143087
O O10 0.500000 0.621358 0.250000
O O11 0.531020 0.722301 0.157968
O O12 0.918440 0.567426 0.114155
O O13 0.000000 0.600706 0.250000
O O14 0.012639 0.664923 0.105098
O O15 0.057100 0.551034 0.109951
O O16 0.577740 0.241778 0.500000
O O17 0.694139 0.987096 0.890512
O O18 0.614095 0.000000 0.750000
O O19 0.221287 0.000000 0.250000
#
# Coordination Sequence:
#
# PCOD9529131 Si02
#       8
#    16  16  16  16  16  16  16  16
#     4   9  16  27  48  72  98 132 173 218 262 310
#     4   8  16  27  43  72 105 131 163 213 269 314
#     4   9  18  33  52  74 100 136 178 216 262 324
#     4   9  18  33  50  73 103 137 176 215 260 321
#     4   9  17  30  50  75 104 141 181 224 269 324
#     4  11  22  35  52  78 108 139 175 224 281 330
#     4   8  15  27  45  73 105 137 181 227 266 316
#     4   9  15  24  42  73 106 132 165 221 276 308
#
# _framework density 21.883669999999999
#
# number of rings (size 3 to 8) (size 9 to 14) (size 15 to 20)
#    0.000    3.000    0.000    2.625    0.000    4.500 
#    0.000    4.375    0.000    0.000    0.000   21.000 
#    0.000    0.000    0.000    0.000    0.000    0.000 
#
# Total GULP energy -356667.034864 kJ/mol
# GULP energy per Si atom -5572.922420 kJ/mol
# Density = 2.183386 g / cm^3
# Si number density = 21.883670 Si / 1000 Ang^3
#
#
#
# Elastic Constant Matrix: (Units=GPa)
#
#
# Indices 1 2 3 4 5 6 
#
# 1 159.0155 49.8805 1.8144 0.0000 0.0000 0.0000
# 2 49.8805 93.6775 -8.8089 0.0000 0.0000 0.0000
# 3 1.8144 -8.8089 81.5923 0.0000 0.0000 0.0000
# 4 0.0000 0.0000 0.0000 46.4148 0.0000 0.0000
# 5 0.0000 0.0000 0.0000 0.0000 -14.5559 0.0000
# 6 0.0000 0.0000 0.0000 0.0000 0.0000 29.7848
#
#
#
# Elastic Compliance Matrix: (Units=1/GPa)
#
#
# Indices 1 2 3 4 5 6 
#
# 1 0.007580 -0.004093 -0.000610 0.000000 0.000000 0.000000
# 2 -0.004093 0.012995 0.001494 0.000000 0.000000 0.000000
# 3 -0.000610 0.001494 0.012431 0.000000 0.000000 0.000000
# 4 0.000000 0.000000 0.000000 0.021545 0.000000 0.000000
# 5 0.000000 0.000000 0.000000 0.000000 -0.068701 0.000000
# 6 0.000000 0.000000 0.000000 0.000000 0.000000 0.033574
#
#
# Mechanical properties :
#
#
# Convention : Reuss Voigt Hill
#
# Bulk Modulus (GPa) = 37.61388 46.67302 42.14345
# Shear Modulus (GPa) = 144.06925 31.75537 87.91231
#
# Velocity S-wave (km/s) = 8.12263 3.81346 6.34506
# Velocity P-wave (km/s) = 10.25645 6.38467 8.54280
#
# Compressibility (1/GPa) = 0.02658593
#
# Stress axis : x y z
#
# Youngs Moduli (GPa) = 131.93175 76.95268 80.44451
#
# Poissons Ratio (x) = 0.31499 0.04911
# Poissons Ratio (y) = 0.54004 -0.12018
# Poissons Ratio (z) = 0.08054 -0.11497
#
# Static dielectric constant tensor:
#      x y z
#    x 1.798520 0.000000 0.000000 
#    y 0.000000 1.800460 0.000000 
#    z 0.000000 0.000000 1.901850 
# 
# From -- ./inp_files/39366.got.cif
#   From: 2010.05.17/outbox.cif.g08.bks.cpg/sg72_20_cif.got.tgz:39366.got - 2010.06.03 17:03:01.
