data_PCOD9529689
_publ_section_title
;
Structure prediction by ZEFSAII (Michael W. Deem and Ramdas Pophale) SiO2 
 PCOD9529689
Probable space group: I B C A 
;
_chemical_formula_sum "Si O2"
_cell_formula_units_Z 120
_cell_length_a 15.202130
_cell_length_b 22.187848
_cell_length_c 16.953890
_cell_angle_alpha 90.000000
_cell_angle_beta 90.000000
_cell_angle_gamma 90.000000
_cell_volume 5718.590325
_symmetry_space_group_name_H-M "I B C A "
_symmetry_group_IT_number 73
_symmetry_cell_setting 'orthorhombic'
loop_
_space_group_symop_operation_xyz
x,y,z
-x,1/2-y,z
x,-y,1/2-z
1/2-x,y,-z
-x,-y,-z
x,1/2+y,-z
-x,y,1/2+z
1/2+x,-y,z
1/2+x,1/2+y,1/2+z
1/2-x,-y,1/2+z
1/2+x,1/2-y,-z
-x,1/2+y,1/2-z
1/2-x,1/2-y,1/2-z
1/2+x,y,1/2-z
1/2-x,1/2+y,z
x,1/2-y,1/2+z
loop_
_atom_site_type_symbol
_atom_site_label
_atom_site_fract_x
_atom_site_fract_y
_atom_site_fract_z
Si Si1 0.500000 0.750000 0.318045
Si Si2 0.367376 0.447819 0.805083
Si Si3 0.511350 0.562117 0.043374
Si Si4 0.589305 0.348052 0.584509
Si Si5 0.607976 0.741359 0.043405
Si Si6 0.668056 0.564571 0.780270
Si Si7 0.578183 0.822061 0.699148
Si Si8 0.614108 0.140025 0.365485
O O1 0.480408 0.691459 0.367778
O O2 0.419849 0.768508 0.261349
O O3 0.403424 0.500000 0.750000
O O4 0.418425 0.445917 0.886857
O O5 0.263496 0.454827 0.812019
O O6 0.383366 0.382799 0.766889
O O7 0.420859 0.585712 0.080442
O O8 0.500000 0.500000 0.000000
O O9 0.545911 0.612320 0.983524
O O10 0.639885 0.294268 0.534986
O O11 0.628734 0.395024 0.648202
O O12 0.500000 0.750000 0.035238
O O13 0.622528 0.697355 0.117906
O O14 0.643535 0.805701 0.076014
O O15 0.626483 0.500000 0.750000
O O16 0.670342 0.609834 0.704511
O O17 0.476188 0.835601 0.676392
#
# Coordination Sequence:
#
# PCOD9529689 Si02
#       8
#     8  16  16  16  16  16  16  16
#     4  12  20  32  62 100 118 158 206 262 310 374
#     4  10  24  43  61  84 125 170 210 257 312 375
#     4  11  23  37  62  98 121 157 206 272 316 363
#     4  12  21  35  61  96 125 157 207 258 332 379
#     4  10  16  35  57  88 127 156 192 262 326 353
#     4  11  24  41  62  89 126 173 215 258 317 390
#     4  10  18  36  61  85 118 159 204 258 299 357
#     4  10  18  37  60  90 126 157 208 261 305 368
#
# _framework density 20.984192
#
# number of rings (size 3 to 8) (size 9 to 14) (size 15 to 20)
#    0.000    1.333    8.000    0.800    1.867    2.667 
#    0.000    2.667    0.000    0.000    0.000    0.000 
#    0.000    0.000    0.000    0.000    0.000    0.000 
#
# Total GULP energy -334246.032661 kJ/mol
# GULP energy per Si atom -5570.767211 kJ/mol
# Density = 2.093643 g / cm^3
# Si number density = 20.984192 Si / 1000 Ang^3
#
#
#
# Elastic Constant Matrix: (Units=GPa)
#
#
# Indices 1 2 3 4 5 6 
#
# 1 22.2687 14.9763 17.3444 0.0000 0.0000 0.0000
# 2 14.9763 129.7137 62.3713 0.0004 0.0000 0.0000
# 3 17.3444 62.3713 130.1044 0.0006 -0.0001 0.0000
# 4 0.0000 0.0004 0.0006 67.2290 0.0000 0.0000
# 5 0.0000 0.0000 -0.0001 0.0000 5.0716 0.0000
# 6 0.0000 0.0000 0.0000 0.0000 0.0000 9.6988
#
#
#
# Elastic Compliance Matrix: (Units=1/GPa)
#
#
# Indices 1 2 3 4 5 6 
#
# 1 0.051251 -0.003420 -0.005193 0.000000 0.000000 0.000000
# 2 -0.003420 0.010247 -0.004456 0.000000 0.000000 0.000000
# 3 -0.005193 -0.004456 0.010515 0.000000 0.000000 0.000000
# 4 0.000000 0.000000 0.000000 0.014875 0.000000 0.000000
# 5 0.000000 0.000000 0.000000 0.000000 0.197178 0.000000
# 6 0.000000 0.000000 0.000000 0.000000 0.000000 0.103106
#
#
# Mechanical properties :
#
#
# Convention : Reuss Voigt Hill
#
# Bulk Modulus (GPa) = 21.79897 52.38562 37.09230
# Shear Modulus (GPa) = 11.66587 28.89285 20.27936
#
# Velocity S-wave (km/s) = 2.36039 3.71467 3.11209
# Velocity P-wave (km/s) = 4.22367 6.58915 5.53427
#
# Compressibility (1/GPa) = 0.04587373
#
# Stress axis : x y z
#
# Youngs Moduli (GPa) = 19.51190 97.58961 95.10483
#
# Poissons Ratio (x) = 0.33380 0.49384
# Poissons Ratio (y) = 0.06674 0.42382
# Poissons Ratio (z) = 0.10132 0.43489
#
# Static dielectric constant tensor:
#      x y z
#    x 1.801680 0.000000 0.000000 
#    y 0.000000 1.817080 0.000000 
#    z 0.000000 0.000000 1.788340 
# 
# From -- ./inp_files/22803.got.cif
#   From: 2010.05.17/outbox.cif.g08.bks.cpg/sg73_12_cif.got.tgz:22803.got - 2010.06.03 17:35:07.
