data_PCOD9529694
_publ_section_title
;
Structure prediction by ZEFSAII (Michael W. Deem and Ramdas Pophale) SiO2 
 PCOD9529694
Probable space group: I B C A 
;
_chemical_formula_sum "Si O2"
_cell_formula_units_Z 64
_cell_length_a 11.606414
_cell_length_b 13.995884
_cell_length_c 17.904079
_cell_angle_alpha 90.000000
_cell_angle_beta 90.000000
_cell_angle_gamma 90.000000
_cell_volume 2908.374831
_symmetry_space_group_name_H-M "I B C A "
_symmetry_group_IT_number 73
_symmetry_cell_setting 'orthorhombic'
loop_
_space_group_symop_operation_xyz
x,y,z
-x,1/2-y,z
x,-y,1/2-z
1/2-x,y,-z
-x,-y,-z
x,1/2+y,-z
-x,y,1/2+z
1/2+x,-y,z
1/2+x,1/2+y,1/2+z
1/2-x,-y,1/2+z
1/2+x,1/2-y,-z
-x,1/2+y,1/2-z
1/2-x,1/2-y,1/2-z
1/2+x,y,1/2-z
1/2-x,1/2+y,z
x,1/2-y,1/2+z
loop_
_atom_site_type_symbol
_atom_site_label
_atom_site_fract_x
_atom_site_fract_y
_atom_site_fract_z
Si Si1 0.578924 0.665205 0.342860
Si Si2 0.820971 0.898308 0.877517
Si Si3 0.750000 0.057555 0.000000
Si Si4 0.467115 0.000000 0.750000
Si Si5 0.506760 0.115183 0.993762
O O1 0.500000 0.750000 0.310325
O O2 0.716957 0.669560 0.351021
O O3 0.546931 0.571543 0.296384
O O4 0.533811 0.652240 0.426977
O O5 0.919423 0.852297 0.929916
O O6 0.885946 0.943834 0.807554
O O7 0.770066 0.985308 0.929606
O O8 0.857738 0.125834 0.016774
O O9 0.500000 0.000000 0.000000
#
# Coordination Sequence:
#
# PCOD9529694 Si02
#       5
#    16  16   8   8  16
#     4  12  25  43  66 103 141 178 239 303 348 424
#     4  11  20  40  70  96 134 184 235 283 351 427
#     4  10  16  36  70  96 128 176 240 272 336 424
#     4  12  24  42  70  98 136 196 228 292 376 416
#     4  10  18  39  70  96 127 181 223 276 348 415
#
# _framework density 22.005416
#
# number of rings (size 3 to 8) (size 9 to 14) (size 15 to 20)
#    0.000    1.000   10.000    0.750    0.000    1.000 
#    4.500    1.250    0.000    0.000    0.000    0.000 
#    0.000    0.000    0.000    0.000    0.000    0.000 
#
# Total GULP energy -178773.638962 kJ/mol
# GULP energy per Si atom -5586.676218 kJ/mol
# Density = 2.195533 g / cm^3
# Si number density = 22.005416 Si / 1000 Ang^3
#
#
#
# Elastic Constant Matrix: (Units=GPa)
#
#
# Indices 1 2 3 4 5 6 
#
# 1 199.7004 33.1307 38.9113 0.0000 0.0000 0.0000
# 2 33.1307 64.4274 12.9071 0.0000 0.0000 0.0000
# 3 38.9113 12.9071 108.7021 0.0000 0.0000 0.0000
# 4 0.0000 0.0000 0.0000 -78.6717 0.0000 0.0000
# 5 0.0000 0.0000 0.0000 0.0000 107.0120 0.0000
# 6 0.0000 0.0000 0.0000 0.0000 0.0000 6.7566
#
#
#
# Elastic Compliance Matrix: (Units=1/GPa)
#
#
# Indices 1 2 3 4 5 6 
#
# 1 0.005785 -0.002623 -0.001760 0.000000 0.000000 0.000000
# 2 -0.002623 0.017088 -0.001090 0.000000 0.000000 0.000000
# 3 -0.001760 -0.001090 0.009959 0.000000 0.000000 0.000000
# 4 0.000000 0.000000 0.000000 -0.012711 0.000000 0.000000
# 5 0.000000 0.000000 0.000000 0.000000 0.009345 0.000000
# 6 0.000000 0.000000 0.000000 0.000000 0.000000 0.148003
#
#
# Mechanical properties :
#
#
# Convention : Reuss Voigt Hill
#
# Bulk Modulus (GPa) = 45.68757 60.30312 52.99535
# Shear Modulus (GPa) = 25.54806 26.21144 25.87975
#
# Velocity S-wave (km/s) = 3.41103 3.45503 3.43310
# Velocity P-wave (km/s) = 6.02665 6.58632 6.31269
#
# Compressibility (1/GPa) = 0.02188779
#
# Stress axis : x y z
#
# Youngs Moduli (GPa) = 172.84764 58.51928 100.41395
#
# Poissons Ratio (x) = 0.15347 0.17669
# Poissons Ratio (y) = 0.45330 0.10948
# Poissons Ratio (z) = 0.30414 0.06380
#
# Static dielectric constant tensor:
#      x y z
#    x 1.898400 0.000000 0.000000 
#    y 0.000000 1.846100 0.000000 
#    z 0.000000 0.000000 1.766740 
# 
# From -- ./inp_files/10474.got.cif
#   From: 2010.05.17/outbox.cif.g08.bks.cpg/sg73_6_cif.got.tgz:10474.got - 2010.06.03 17:35:07.
