data_PCOD9529406
_publ_section_title
;
Structure prediction by ZEFSAII (Michael W. Deem and Ramdas Pophale) SiO2 
 PCOD9529406
Probable space group: I B A M
;
_chemical_formula_sum "Si O2"
_cell_formula_units_Z 64
_cell_length_a 16.734984
_cell_length_b 7.325304
_cell_length_c 22.190709
_cell_angle_alpha 90.000000
_cell_angle_beta 90.000000
_cell_angle_gamma 90.000000
_cell_volume 2720.333391
_symmetry_space_group_name_H-M "I B A M"
_symmetry_group_IT_number 72
_symmetry_cell_setting 'orthorhombic'
loop_
_space_group_symop_operation_xyz
x,y,z
-x,-y,z
x,-y,1/2-z
-x,y,1/2-z
-x,-y,-z
x,y,-z
-x,y,1/2+z
x,-y,1/2+z
1/2+x,1/2+y,1/2+z
1/2-x,1/2-y,1/2+z
1/2+x,1/2-y,-z
1/2-x,1/2+y,-z
1/2-x,1/2-y,1/2-z
1/2+x,1/2+y,1/2-z
1/2-x,1/2+y,z
1/2+x,1/2-y,z
loop_
_atom_site_type_symbol
_atom_site_label
_atom_site_fract_x
_atom_site_fract_y
_atom_site_fract_z
Si Si1 0.844468 0.214966 0.244510
Si Si2 0.675703 0.815690 0.890510
Si Si3 0.850282 0.082081 0.430625
Si Si4 0.423775 0.871359 0.863214
O O1 0.750000 0.250000 0.250000
O O2 0.858166 0.276510 0.176379
O O3 0.890089 0.323155 0.296822
O O4 0.861313 0.000000 0.250000
O O5 0.770686 0.850873 0.894419
O O6 0.651764 0.637019 0.926968
O O7 0.863813 0.508618 0.904835
O O8 0.843869 0.136513 0.500000
O O9 0.925052 0.177931 0.397848
O O10 0.500000 0.000000 0.859102
#
# Coordination Sequence:
#
# PCOD9529406 Si02
#       4
#    16  16  16  16
#     4  12  21  42  75 109 145 190 252 317 381 464
#     4  12  23  43  76 108 146 194 263 317 379 459
#     4  12  25  45  74 110 147 202 269 321 370 457
#     4  12  28  47  72 115 161 199 245 323 405 464
#
# _framework density 23.526527999999999
#
# number of rings (size 3 to 8) (size 9 to 14) (size 15 to 20)
#    0.000    0.000    7.500    3.000    0.000    4.500 
#    0.000    2.500    0.000    0.000    0.000    0.000 
#    0.000    0.000    0.000    0.000    0.000    0.000 
#
# Total GULP energy -178949.358212 kJ/mol
# GULP energy per Si atom -5592.167444 kJ/mol
# Density = 2.347298 g / cm^3
# Si number density = 23.526528 Si / 1000 Ang^3
#
#
#
# Elastic Constant Matrix: (Units=GPa)
#
#
# Indices 1 2 3 4 5 6 
#
# 1 87.4027 36.0589 17.6412 0.0000 0.0000 0.0000
# 2 36.0589 144.3525 35.2681 0.0000 0.0000 0.0000
# 3 17.6412 35.2681 117.2717 0.0000 0.0000 0.0000
# 4 0.0000 0.0000 0.0000 43.7832 0.0000 0.0000
# 5 0.0000 0.0000 0.0000 0.0000 5.5619 0.0000
# 6 0.0000 0.0000 0.0000 0.0000 0.0000 43.1133
#
#
#
# Elastic Compliance Matrix: (Units=1/GPa)
#
#
# Indices 1 2 3 4 5 6 
#
# 1 0.012874 -0.002960 -0.001046 0.000000 0.000000 0.000000
# 2 -0.002960 0.008158 -0.002008 0.000000 0.000000 0.000000
# 3 -0.001046 -0.002008 0.009288 0.000000 0.000000 0.000000
# 4 0.000000 0.000000 0.000000 0.022840 0.000000 0.000000
# 5 0.000000 0.000000 0.000000 0.000000 0.179794 0.000000
# 6 0.000000 0.000000 0.000000 0.000000 0.000000 0.023195
#
#
# Mechanical properties :
#
#
# Convention : Reuss Voigt Hill
#
# Bulk Modulus (GPa) = 54.67259 58.55150 56.61205
# Shear Modulus (GPa) = 18.22994 35.82893 27.02944
#
# Velocity S-wave (km/s) = 2.78666 3.90669 3.39321
# Velocity P-wave (km/s) = 5.80027 6.72987 6.28229
#
# Compressibility (1/GPa) = 0.01829070
#
# Stress axis : x y z
#
# Youngs Moduli (GPa) = 77.67749 122.58631 107.66021
#
# Poissons Ratio (x) = 0.36288 0.11265
# Poissons Ratio (y) = 0.22994 0.21618
# Poissons Ratio (z) = 0.08128 0.24615
#
# Static dielectric constant tensor:
#      x y z
#    x 1.937860 0.000000 0.000000 
#    y 0.000000 1.948660 0.000000 
#    z 0.000000 0.000000 1.882010 
# 
# From -- ./inp_files/43924.got.cif
#   From: 2010.05.17/outbox.cif.g08.bks.cpg/sg72_22_cif.got.tgz:43924.got - 2010.06.03 17:03:01.
