data_PCOD9529600
_publ_section_title
;
Structure prediction by ZEFSAII (Michael W. Deem and Ramdas Pophale) SiO2 
 PCOD9529600
Probable space group: I B A M
;
_chemical_formula_sum "Si O2"
_cell_formula_units_Z 48
_cell_length_a 21.000000
_cell_length_b 15.000000
_cell_length_c 15.000000
_cell_angle_alpha 90.000000
_cell_angle_beta 90.000000
_cell_angle_gamma 90.000000
_cell_volume 4725.000000
_symmetry_space_group_name_H-M "I B A M"
_symmetry_group_IT_number 72
_symmetry_cell_setting 'orthorhombic'
loop_
_space_group_symop_operation_xyz
x,y,z
-x,-y,z
x,-y,1/2-z
-x,y,1/2-z
-x,-y,-z
x,y,-z
-x,y,1/2+z
x,-y,1/2+z
1/2+x,1/2+y,1/2+z
1/2-x,1/2-y,1/2+z
1/2+x,1/2-y,-z
1/2-x,1/2+y,-z
1/2-x,1/2-y,1/2-z
1/2+x,1/2+y,1/2-z
1/2-x,1/2+y,z
1/2+x,1/2-y,z
loop_
_atom_site_type_symbol
_atom_site_label
_atom_site_fract_x
_atom_site_fract_y
_atom_site_fract_z
Si Si1 0.051104 0.871884 0.391867
Si Si2 0.279298 0.305772 0.836475
Si Si3 0.427370 0.808671 0.221673
Si Si4 0.402723 0.574758 0.391977
Si Si5 0.661985 0.067530 0.106112
Si Si6 0.651341 0.855060 0.100982
O O1 0.057951 0.856721 0.500000
O O2 0.074618 0.786742 0.332732
O O3 0.974480 0.885818 0.374730
O O4 0.087306 0.967298 0.371946
O O5 0.250000 0.250000 0.750000
O O6 0.344953 0.369387 0.843235
O O7 0.224168 0.375465 0.864719
O O8 0.293243 0.220032 0.899331
O O9 0.500000 0.824545 0.250000
O O10 0.396183 0.885349 0.159067
O O11 0.390062 0.817836 0.316045
O O12 0.391533 0.581744 0.500000
O O13 0.667822 0.959606 0.121577
O O14 0.653332 0.078188 0.000000
O O15 0.622932 0.854451 0.000000
#
# Coordination Sequence:
#
# PCOD9529600 Si02
#       6
#    16  16  16  16  16  16
#     4   9  20  41  73 110 147 187 236 295 362 432
#     4  12  24  43  73 105 138 184 233 288 361 438
#     4  12  25  43  69 104 140 182 235 299 352 425
#     4   9  19  41  72 108 149 190 232 289 363 442
#     4  11  26  47  71 100 137 179 233 292 348 426
#     4  11  26  49  70  95 135 184 232 285 351 422
#
# _framework density 10.15873
#
# number of rings (size 3 to 8) (size 9 to 14) (size 15 to 20)
#    0.000    1.333    1.667    4.500    0.000    5.333 
#    3.000    8.333    0.000    0.000    0.000    2.333 
#    0.000    0.000    0.000    0.000    0.000    0.000 
#
# Total GULP energy -267734.709540 kJ/mol
# GULP energy per Si atom -5577.806449 kJ/mol
# Density = 1.013561 g / cm^3
# Si number density = 10.158730 Si / 1000 Ang^3
#
#
#
# Elastic Constant Matrix: (Units=GPa)
#
#
# Indices 1 2 3 4 5 6 
#
# 1 111.6869 77.6574 55.9468 0.0000 0.0000 0.0000
# 2 77.6574 209.1012 71.3057 0.0000 0.0000 0.0000
# 3 55.9468 71.3057 140.5125 0.0000 0.0000 0.0000
# 4 0.0000 0.0000 0.0000 51.6572 0.0000 0.0000
# 5 0.0000 0.0000 0.0000 0.0000 35.9363 0.0000
# 6 0.0000 0.0000 0.0000 0.0000 0.0000 46.4631
#
#
#
# Elastic Compliance Matrix: (Units=1/GPa)
#
#
# Indices 1 2 3 4 5 6 
#
# 1 0.013267 -0.003780 -0.003364 0.000000 0.000000 0.000000
# 2 -0.003780 0.006860 -0.001976 0.000000 0.000000 0.000000
# 3 -0.003364 -0.001976 0.009459 0.000000 0.000000 0.000000
# 4 0.000000 0.000000 0.000000 0.019358 0.000000 0.000000
# 5 0.000000 0.000000 0.000000 0.000000 0.027827 0.000000
# 6 0.000000 0.000000 0.000000 0.000000 0.000000 0.021522
#
#
# Mechanical properties :
#
#
# Convention : Reuss Voigt Hill
#
# Bulk Modulus (GPa) = 88.14075 96.79113 92.46594
# Shear Modulus (GPa) = 41.55684 43.90402 42.73043
#
# Velocity S-wave (km/s) = 4.52749 4.65359 4.59097
# Velocity P-wave (km/s) = 8.41468 8.75313 8.58558
#
# Compressibility (1/GPa) = 0.01134549
#
# Stress axis : x y z
#
# Youngs Moduli (GPa) = 75.37433 145.76976 105.71707
#
# Poissons Ratio (x) = 0.55101 0.35566
# Poissons Ratio (y) = 0.28491 0.20892
# Poissons Ratio (z) = 0.25358 0.28808
#
# Static dielectric constant tensor:
#      x y z
#    x 1.768540 0.000000 0.000000 
#    y 0.000000 1.732920 0.000000 
#    z 0.000000 0.000000 1.771550 
# 
# From -- ./inp_files/24168.got.cif
#   From: 2010.05.17/outbox.ucp.g08.bks.cvg/sg72_13_cif.got.tgz:24168.got - 2010.06.11 16:33:07.
