data_PCOD9529753
_publ_section_title
;
Structure prediction by ZEFSAII (Michael W. Deem and Ramdas Pophale) SiO2 
 PCOD9529753
Probable space group: I B C A 
;
_chemical_formula_sum "Si O2"
_cell_formula_units_Z 112
_cell_length_a 5.681633
_cell_length_b 31.434258
_cell_length_c 31.245274
_cell_angle_alpha 90.000000
_cell_angle_beta 90.000000
_cell_angle_gamma 90.000000
_cell_volume 5580.340871
_symmetry_space_group_name_H-M "I B C A "
_symmetry_group_IT_number 73
_symmetry_cell_setting 'orthorhombic'
loop_
_space_group_symop_operation_xyz
x,y,z
-x,1/2-y,z
x,-y,1/2-z
1/2-x,y,-z
-x,-y,-z
x,1/2+y,-z
-x,y,1/2+z
1/2+x,-y,z
1/2+x,1/2+y,1/2+z
1/2-x,-y,1/2+z
1/2+x,1/2-y,-z
-x,1/2+y,1/2-z
1/2-x,1/2-y,1/2-z
1/2+x,y,1/2-z
1/2-x,1/2+y,z
x,1/2-y,1/2+z
loop_
_atom_site_type_symbol
_atom_site_label
_atom_site_fract_x
_atom_site_fract_y
_atom_site_fract_z
Si Si1 0.516886 0.330049 0.420691
Si Si2 0.750000 0.648012 0.500000
Si Si3 0.376249 0.696141 0.730105
Si Si4 0.861288 0.371886 0.860033
Si Si5 0.107646 0.097590 0.440363
Si Si6 0.316979 0.211707 0.641012
Si Si7 0.750000 0.524901 0.000000
Si Si8 0.846523 0.400624 0.762639
O O1 0.357837 0.323467 0.462208
O O2 0.364427 0.350412 0.382277
O O3 0.696125 0.366717 0.434438
O O4 0.665787 0.291283 0.402043
O O5 0.568433 0.616791 0.475925
O O6 0.629667 0.709904 0.748005
O O7 0.352682 0.710235 0.681527
O O8 0.368263 0.644840 0.737436
O O9 0.823689 0.391109 0.813275
O O10 0.969058 0.404171 0.895274
O O11 0.039764 0.332414 0.855190
O O12 0.225158 0.055289 0.458499
O O13 0.500000 0.250000 0.642177
O O14 0.500000 0.500000 0.000000
O O15 0.602226 0.421347 0.746585
#
# Coordination Sequence:
#
# PCOD9529753 Si02
#       8
#    16   8  16  16  16  16   8  16
#     4  10  20  35  59  81 108 150 211 252 303 378
#     4  10  17  36  64  86 109 146 214 242 305 378
#     4  10  19  34  51  73 115 154 202 246 321 380
#     4  10  21  35  57  81 113 165 206 260 299 379
#     4  10  21  37  60  94 120 161 196 227 300 377
#     4  11  23  35  49  81 113 156 209 274 329 370
#     4  12  25  40  66 102 145 160 182 232 301 390
#     4  10  18  32  52  77 117 153 206 257 309 351
#
# _framework density 20.070459
#
# number of rings (size 3 to 8) (size 9 to 14) (size 15 to 20)
#    0.000    1.714    4.286    2.143    4.000    1.143 
#    0.000    0.000    0.000    0.000  133.714    0.000 
#    0.000    3.429    0.000    0.000    0.000    0.000 
#
# Total GULP energy -312618.016135 kJ/mol
# GULP energy per Si atom -5582.464574 kJ/mol
# Density = 2.002478 g / cm^3
# Si number density = 20.070459 Si / 1000 Ang^3
#
#
#
# Elastic Constant Matrix: (Units=GPa)
#
#
# Indices 1 2 3 4 5 6 
#
# 1 127.8477 13.4926 41.0879 0.0000 0.0000 0.0000
# 2 13.4926 36.2363 20.2665 0.0000 0.0000 0.0000
# 3 41.0879 20.2665 139.0366 0.0000 0.0000 0.0000
# 4 0.0000 0.0000 0.0000 2.7936 0.0000 0.0000
# 5 0.0000 0.0000 0.0000 0.0000 45.6657 0.0000
# 6 0.0000 0.0000 0.0000 0.0000 0.0000 15.5944
#
#
#
# Elastic Compliance Matrix: (Units=1/GPa)
#
#
# Indices 1 2 3 4 5 6 
#
# 1 0.008771 -0.001977 -0.002304 0.000000 0.000000 0.000000
# 2 -0.001977 0.030492 -0.003860 0.000000 0.000000 0.000000
# 3 -0.002304 -0.003860 0.008436 0.000000 0.000000 0.000000
# 4 0.000000 0.000000 0.000000 0.357964 0.000000 0.000000
# 5 0.000000 0.000000 0.000000 0.000000 0.021898 0.000000
# 6 0.000000 0.000000 0.000000 0.000000 0.000000 0.064125
#
#
# Mechanical properties :
#
#
# Convention : Reuss Voigt Hill
#
# Bulk Modulus (GPa) = 31.83107 50.31272 41.07190
# Shear Modulus (GPa) = 9.64429 28.02899 18.83664
#
# Velocity S-wave (km/s) = 2.19446 3.74107 3.06686
# Velocity P-wave (km/s) = 4.72387 6.61689 5.74884
#
# Compressibility (1/GPa) = 0.03141584
#
# Stress axis : x y z
#
# Youngs Moduli (GPa) = 114.01389 32.79563 118.54201
#
# Poissons Ratio (x) = 0.06485 0.27309
# Poissons Ratio (y) = 0.22545 0.45760
# Poissons Ratio (z) = 0.26266 0.12660
#
# Static dielectric constant tensor:
#      x y z
#    x 1.906280 0.000000 0.000000 
#    y 0.000000 1.698820 0.000000 
#    z 0.000000 0.000000 1.744180 
# 
# From -- ./inp_files/33384.got.cif
#   From: 2010.05.17/outbox.cif.g08.bks.cpg/sg73_17_cif.got.tgz:33384.got - 2010.06.03 17:35:07.
