data_PCOD9529035
_publ_section_title
;
Structure prediction by ZEFSAII (Michael W. Deem and Ramdas Pophale) SiO2 
 PCOD9529035
Probable space group: I B A M
;
_chemical_formula_sum "Si O2"
_cell_formula_units_Z 80
_cell_length_a 17.009054
_cell_length_b 12.853714
_cell_length_c 17.743362
_cell_angle_alpha 90.000000
_cell_angle_beta 90.000000
_cell_angle_gamma 90.000000
_cell_volume 3879.222638
_symmetry_space_group_name_H-M "I B A M"
_symmetry_group_IT_number 72
_symmetry_cell_setting 'orthorhombic'
loop_
_space_group_symop_operation_xyz
x,y,z
-x,-y,z
x,-y,1/2-z
-x,y,1/2-z
-x,-y,-z
x,y,-z
-x,y,1/2+z
x,-y,1/2+z
1/2+x,1/2+y,1/2+z
1/2-x,1/2-y,1/2+z
1/2+x,1/2-y,-z
1/2-x,1/2+y,-z
1/2-x,1/2-y,1/2-z
1/2+x,1/2+y,1/2-z
1/2-x,1/2+y,z
1/2+x,1/2-y,z
loop_
_atom_site_type_symbol
_atom_site_label
_atom_site_fract_x
_atom_site_fract_y
_atom_site_fract_z
Si Si1 0.166070 0.823333 0.192921
Si Si2 0.459421 0.388488 0.915634
Si Si3 0.675590 0.943173 0.322869
Si Si4 0.769534 0.641655 0.412099
Si Si5 0.607610 0.731555 0.357376
O O1 0.248463 0.879932 0.208682
O O2 0.184870 0.724042 0.140757
O O3 0.121937 0.796106 0.269652
O O4 0.111606 0.895235 0.142212
O O5 0.500000 0.500000 0.917852
O O6 0.523827 0.306093 0.886594
O O7 0.432805 0.361322 0.000000
O O8 0.622154 0.855403 0.361514
O O9 0.638924 0.000000 0.250000
O O10 0.707569 0.028338 0.381174
O O11 0.789071 0.651971 0.500000
O O12 0.677572 0.671077 0.400941
#
# Coordination Sequence:
#
# PCOD9529035 Si02
#       5
#    16  16  16  16  16
#     4  11  22  38  63  88 120 162 204 256 305 376
#     4  11  25  41  59  89 129 163 201 255 320 379
#     4  11  20  39  65  92 119 160 215 257 308 370
#     4  11  22  37  61  92 124 156 202 263 317 363
#     4  11  22  39  64  89 122 164 211 255 308 380
#
# _framework density 20.622688
#
# number of rings (size 3 to 8) (size 9 to 14) (size 15 to 20)
#    0.000    1.000    4.000    4.200    0.000    7.200 
#    0.000    1.000    0.000    2.400    0.000    0.000 
#    0.000    0.000    0.000    0.000    0.000    0.000 
#
# Total GULP energy -223716.981993 kJ/mol
# GULP energy per Si atom -5592.924550 kJ/mol
# Density = 2.057575 g / cm^3
# Si number density = 20.622688 Si / 1000 Ang^3
#
#
#
# Elastic Constant Matrix: (Units=GPa)
#
#
# Indices 1 2 3 4 5 6 
#
# 1 19.4898 -5.9796 -5.7037 0.0000 0.0000 0.0000
# 2 -5.9796 91.9232 20.6435 0.0000 0.0000 0.0000
# 3 -5.7037 20.6435 119.4838 0.0000 0.0000 0.0000
# 4 0.0000 0.0000 0.0000 19.4458 0.0000 0.0000
# 5 0.0000 0.0000 0.0000 0.0000 16.3037 0.0000
# 6 0.0000 0.0000 0.0000 0.0000 0.0000 21.7703
#
#
#
# Elastic Compliance Matrix: (Units=1/GPa)
#
#
# Indices 1 2 3 4 5 6 
#
# 1 0.052811 0.002985 0.002005 0.000000 0.000000 0.000000
# 2 0.002985 0.011487 -0.001842 0.000000 0.000000 0.000000
# 3 0.002005 -0.001842 0.008783 0.000000 0.000000 0.000000
# 4 0.000000 0.000000 0.000000 0.051425 0.000000 0.000000
# 5 0.000000 0.000000 0.000000 0.000000 0.061336 0.000000
# 6 0.000000 0.000000 0.000000 0.000000 0.000000 0.045934
#
#
# Mechanical properties :
#
#
# Convention : Reuss Voigt Hill
#
# Bulk Modulus (GPa) = 12.59797 27.64634 20.12216
# Shear Modulus (GPa) = 19.84610 26.29975 23.07293
#
# Velocity S-wave (km/s) = 3.10553 3.57498 3.34849
# Velocity P-wave (km/s) = 4.35674 5.52047 4.97276
#
# Compressibility (1/GPa) = 0.07937787
#
# Stress axis : x y z
#
# Youngs Moduli (GPa) = 18.93528 87.05868 113.85220
#
# Poissons Ratio (x) = -0.25988 -0.22831
# Poissons Ratio (y) = -0.05652 0.20972
# Poissons Ratio (z) = -0.03797 0.16037
#
# Static dielectric constant tensor:
#      x y z
#    x 1.718380 0.000000 0.000000 
#    y 0.000000 1.766770 0.000000 
#    z 0.000000 0.000000 1.731850 
# 
# From -- ./inp_files/31371.got.cif
#   From: 2010.05.17/outbox.cif.g08.bks.cpg/sg72_16_cif.got.tgz:31371.got - 2010.06.03 17:03:01.
