data_PCOD9529830
_publ_section_title
;
Structure prediction by ZEFSAII (Michael W. Deem and Ramdas Pophale) SiO2 
 PCOD9529830
Probable space group: I B C A 
;
_chemical_formula_sum "Si O2"
_cell_formula_units_Z 96
_cell_length_a 25.674738
_cell_length_b 17.972775
_cell_length_c 10.499963
_cell_angle_alpha 90.000000
_cell_angle_beta 90.000000
_cell_angle_gamma 90.000000
_cell_volume 4845.168964
_symmetry_space_group_name_H-M "I B C A "
_symmetry_group_IT_number 73
_symmetry_cell_setting 'orthorhombic'
loop_
_space_group_symop_operation_xyz
x,y,z
-x,1/2-y,z
x,-y,1/2-z
1/2-x,y,-z
-x,-y,-z
x,1/2+y,-z
-x,y,1/2+z
1/2+x,-y,z
1/2+x,1/2+y,1/2+z
1/2-x,-y,1/2+z
1/2+x,1/2-y,-z
-x,1/2+y,1/2-z
1/2-x,1/2-y,1/2-z
1/2+x,y,1/2-z
1/2-x,1/2+y,z
x,1/2-y,1/2+z
loop_
_atom_site_type_symbol
_atom_site_label
_atom_site_fract_x
_atom_site_fract_y
_atom_site_fract_z
Si Si1 0.417300 0.853847 0.981351
Si Si2 0.695448 0.318888 0.535676
Si Si3 0.482061 0.918742 0.457957
Si Si4 0.159860 0.736446 0.269539
Si Si5 0.607780 0.418009 0.249930
Si Si6 0.552943 0.787275 0.134419
O O1 0.357249 0.866282 0.946354
O O2 0.465382 0.882115 0.899840
O O3 0.419751 0.897857 0.116339
O O4 0.429810 0.768342 0.017964
O O5 0.750000 0.356598 0.500000
O O6 0.682607 0.267856 0.412086
O O7 0.696830 0.272586 0.665418
O O8 0.436253 0.920302 0.356600
O O9 0.461787 0.865987 0.572980
O O10 0.500000 0.000000 0.500000
O O11 0.146366 0.651451 0.231338
O O12 0.103888 0.779688 0.276696
O O13 0.632655 0.500000 0.250000
O O14 0.500000 0.750000 0.188138
#
# Coordination Sequence:
#
# PCOD9529830 Si02
#       6
#    16  16  16  16  16  16
#     4   9  20  34  49  81 108 151 186 232 285 334
#     4  10  20  37  60  85 108 143 197 250 296 331
#     4  11  19  31  53  81 116 153 190 230 280 350
#     4  10  21  36  58  86 112 148 190 245 292 344
#     4  10  18  32  51  77 113 151 188 225 286 353
#     4   8  17  32  50  77 115 143 186 225 283 342
#
# _framework density 19.813549999999999
#
# number of rings (size 3 to 8) (size 9 to 14) (size 15 to 20)
#    0.000    2.667    1.667    2.500    0.000    4.000 
#    0.000    5.000    0.000    4.000   17.333    0.000 
#    0.000    0.000    0.000    0.000    0.000    0.000 
#
# Total GULP energy -267432.532533 kJ/mol
# GULP energy per Si atom -5571.511094 kJ/mol
# Density = 1.976845 g / cm^3
# Si number density = 19.813550 Si / 1000 Ang^3
#
#
#
# Elastic Constant Matrix: (Units=GPa)
#
#
# Indices 1 2 3 4 5 6 
#
# 1 82.6520 -0.6605 -0.2631 0.0000 0.0000 0.0000
# 2 -0.6605 94.1044 6.4840 0.0000 0.0000 0.0000
# 3 -0.2631 6.4840 62.7255 0.0000 0.0000 0.0000
# 4 0.0000 0.0000 0.0000 13.4538 0.0000 0.0000
# 5 0.0000 0.0000 0.0000 0.0000 19.3716 0.0000
# 6 0.0000 0.0000 0.0000 0.0000 0.0000 16.6679
#
#
#
# Elastic Compliance Matrix: (Units=1/GPa)
#
#
# Indices 1 2 3 4 5 6 
#
# 1 0.012100 0.000082 0.000042 0.000000 0.000000 0.000000
# 2 0.000082 0.010703 -0.001106 0.000000 0.000000 0.000000
# 3 0.000042 -0.001106 0.016057 0.000000 0.000000 0.000000
# 4 0.000000 0.000000 0.000000 0.074329 0.000000 0.000000
# 5 0.000000 0.000000 0.000000 0.000000 0.051622 0.000000
# 6 0.000000 0.000000 0.000000 0.000000 0.000000 0.059996
#
#
# Mechanical properties :
#
#
# Convention : Reuss Voigt Hill
#
# Bulk Modulus (GPa) = 27.10291 27.84476 27.47384
# Shear Modulus (GPa) = 20.91451 25.49342 23.20396
#
# Velocity S-wave (km/s) = 3.25247 3.59090 3.42587
# Velocity P-wave (km/s) = 5.27384 5.59256 5.43554
#
# Compressibility (1/GPa) = 0.03689640
#
# Stress axis : x y z
#
# Youngs Moduli (GPa) = 82.64663 93.42927 62.27818
#
# Poissons Ratio (x) = -0.00766 -0.00263
# Poissons Ratio (y) = -0.00678 0.06888
# Poissons Ratio (z) = -0.00349 0.10334
#
# Static dielectric constant tensor:
#      x y z
#    x 1.760610 0.000000 0.000000 
#    y 0.000000 1.717790 0.000000 
#    z 0.000000 0.000000 1.767710 
# 
# From -- ./inp_files/14286.got.cif
#   From: 2010.05.17/outbox.cif.g08.bks.cpg/sg73_8_cif.got.tgz:14286.got - 2010.06.03 17:35:07.
