data_PCOD9529884
_publ_section_title
;
Structure prediction by ZEFSAII (Michael W. Deem and Ramdas Pophale) SiO2 
 PCOD9529884
Probable space group: I B C A 
;
_chemical_formula_sum "Si O2"
_cell_formula_units_Z 80
_cell_length_a 14.052488
_cell_length_b 15.359160
_cell_length_c 18.807597
_cell_angle_alpha 90.000000
_cell_angle_beta 90.000000
_cell_angle_gamma 90.000000
_cell_volume 4059.326632
_symmetry_space_group_name_H-M "I B C A "
_symmetry_group_IT_number 73
_symmetry_cell_setting 'orthorhombic'
loop_
_space_group_symop_operation_xyz
x,y,z
-x,1/2-y,z
x,-y,1/2-z
1/2-x,y,-z
-x,-y,-z
x,1/2+y,-z
-x,y,1/2+z
1/2+x,-y,z
1/2+x,1/2+y,1/2+z
1/2-x,-y,1/2+z
1/2+x,1/2-y,-z
-x,1/2+y,1/2-z
1/2-x,1/2-y,1/2-z
1/2+x,y,1/2-z
1/2-x,1/2+y,z
x,1/2-y,1/2+z
loop_
_atom_site_type_symbol
_atom_site_label
_atom_site_fract_x
_atom_site_fract_y
_atom_site_fract_z
Si Si1 0.306783 0.687277 0.663996
Si Si2 0.500000 0.750000 0.887349
Si Si3 0.841014 0.494390 0.830897
Si Si4 0.803118 0.830298 0.073120
Si Si5 0.976678 0.500000 0.250000
Si Si6 0.614397 0.323826 0.742716
O O1 0.333652 0.591448 0.636893
O O2 0.258952 0.752654 0.608234
O O3 0.224289 0.670103 0.721497
O O4 0.389562 0.739748 0.705625
O O5 0.585684 0.798110 0.929998
O O6 0.558503 0.691394 0.830819
O O7 0.801035 0.500000 0.750000
O O8 0.801362 0.415686 0.876865
O O9 0.951661 0.475907 0.813851
O O10 0.750000 0.850668 0.000000
O O11 0.919278 0.415347 0.227130
#
# Coordination Sequence:
#
# PCOD9529884 Si02
#       6
#    16   8  16  16   8  16
#     4  10  22  34  62  91 133 167 218 273 331 399
#     4  10  18  42  62  88 132 170 220 274 346 388
#     4  10  20  39  61  97 126 170 220 279 340 393
#     4  11  24  42  66  93 135 188 226 278 336 415
#     4  10  20  30  62  96 132 156 208 282 332 398
#     4  10  18  33  60  98 122 165 207 276 334 390
#
# _framework density 19.707702000000001
#
# number of rings (size 3 to 8) (size 9 to 14) (size 15 to 20)
#    0.600    1.200    2.000    4.800    4.200    0.800 
#    0.000    3.000    0.000    4.800    0.000    0.000 
#    0.000    0.000    0.000    0.000    0.000    0.000 
#
# Total GULP energy -222681.147892 kJ/mol
# GULP energy per Si atom -5567.028697 kJ/mol
# Density = 1.966285 g / cm^3
# Si number density = 19.707702 Si / 1000 Ang^3
#
#
#
# Elastic Constant Matrix: (Units=GPa)
#
#
# Indices 1 2 3 4 5 6 
#
# 1 95.8677 51.6756 44.5211 0.0000 0.0000 0.0000
# 2 51.6756 167.5684 53.9678 0.0000 0.0000 0.0000
# 3 44.5211 53.9678 88.1870 0.0000 0.0000 0.0000
# 4 0.0000 0.0000 0.0000 16.1427 0.0000 0.0000
# 5 0.0000 0.0000 0.0000 0.0000 15.8469 0.0000
# 6 0.0000 0.0000 0.0000 0.0000 0.0000 36.1411
#
#
#
# Elastic Compliance Matrix: (Units=1/GPa)
#
#
# Indices 1 2 3 4 5 6 
#
# 1 0.014502 -0.002633 -0.005710 0.000000 0.000000 0.000000
# 2 -0.002633 0.007911 -0.003512 0.000000 0.000000 0.000000
# 3 -0.005710 -0.003512 0.016371 0.000000 0.000000 0.000000
# 4 0.000000 0.000000 0.000000 0.061947 0.000000 0.000000
# 5 0.000000 0.000000 0.000000 0.000000 0.063104 0.000000
# 6 0.000000 0.000000 0.000000 0.000000 0.000000 0.027669
#
#
# Mechanical properties :
#
#
# Convention : Reuss Voigt Hill
#
# Bulk Modulus (GPa) = 66.33800 72.43912 69.38856
# Shear Modulus (GPa) = 22.70256 27.05672 24.87964
#
# Velocity S-wave (km/s) = 3.39774 3.70929 3.55693
# Velocity P-wave (km/s) = 7.00906 7.42843 7.22179
#
# Compressibility (1/GPa) = 0.01507432
#
# Stress axis : x y z
#
# Youngs Moduli (GPa) = 68.95528 126.40968 61.08268
#
# Poissons Ratio (x) = 0.33287 0.34878
# Poissons Ratio (y) = 0.18158 0.21451
# Poissons Ratio (z) = 0.39373 0.44392
#
# Static dielectric constant tensor:
#      x y z
#    x 1.754770 0.000000 0.000000 
#    y 0.000000 1.734440 0.000000 
#    z 0.000000 0.000000 1.680650 
# 
# From -- ./inp_files/25906.got.cif
#   From: 2010.05.17/outbox.cif.g08.bks.cpg/sg73_13_cif.got.tgz:25906.got - 2010.06.03 17:35:07.
