data_PCOD9529657
_publ_section_title
;
Structure prediction by ZEFSAII (Michael W. Deem and Ramdas Pophale) SiO2 
 PCOD9529657
Probable space group: I B C A 
;
_chemical_formula_sum "Si O2"
_cell_formula_units_Z 96
_cell_length_a 23.137258
_cell_length_b 14.107030
_cell_length_c 16.058429
_cell_angle_alpha 90.000000
_cell_angle_beta 90.000000
_cell_angle_gamma 90.000000
_cell_volume 5241.438992
_symmetry_space_group_name_H-M "I B C A "
_symmetry_group_IT_number 73
_symmetry_cell_setting 'orthorhombic'
loop_
_space_group_symop_operation_xyz
x,y,z
-x,1/2-y,z
x,-y,1/2-z
1/2-x,y,-z
-x,-y,-z
x,1/2+y,-z
-x,y,1/2+z
1/2+x,-y,z
1/2+x,1/2+y,1/2+z
1/2-x,-y,1/2+z
1/2+x,1/2-y,-z
-x,1/2+y,1/2-z
1/2-x,1/2-y,1/2-z
1/2+x,y,1/2-z
1/2-x,1/2+y,z
x,1/2-y,1/2+z
loop_
_atom_site_type_symbol
_atom_site_label
_atom_site_fract_x
_atom_site_fract_y
_atom_site_fract_z
Si Si1 0.127782 0.866626 0.394024
Si Si2 0.810347 0.553082 0.046566
Si Si3 0.653660 0.891581 0.279652
Si Si4 0.497770 0.962582 0.596137
Si Si5 0.586621 0.671049 0.031164
Si Si6 0.529868 0.157221 0.147659
O O1 0.160094 0.838010 0.307930
O O2 0.111224 0.772439 0.443240
O O3 0.065576 0.920602 0.382817
O O4 0.167879 0.945470 0.437680
O O5 0.808462 0.607594 0.136338
O O6 0.750000 0.555836 0.000000
O O7 0.860395 0.603285 0.993226
O O8 0.589926 0.864163 0.308568
O O9 0.654949 0.000000 0.250000
O O10 0.545942 0.880926 0.599081
O O11 0.500000 0.000000 0.500000
O O12 0.506128 0.059411 0.647938
O O13 0.547991 0.680049 0.947790
O O14 0.500000 0.250000 0.183450
#
# Coordination Sequence:
#
# PCOD9529657 Si02
#       6
#    16  16  16  16  16  16
#     4  11  19  35  60  83 110 150 189 229 301 350
#     4  10  21  38  58  80 107 147 204 246 282 337
#     4   9  18  37  53  81 112 153 187 231 290 349
#     4  10  16  31  50  85 119 147 181 232 278 348
#     4  10  20  32  54  85 117 147 189 240 281 346
#     4  10  18  29  52  80 120 153 182 222 279 342
#
# _framework density 18.315581000000002
#
# number of rings (size 3 to 8) (size 9 to 14) (size 15 to 20)
#    0.000    2.000    6.667    2.500    0.000    2.000 
#    0.000    0.833    0.000    6.000   13.000    0.000 
#    0.000    0.000    0.000    0.000    0.000    0.000 
#
# Total GULP energy -267232.403805 kJ/mol
# GULP energy per Si atom -5567.341746 kJ/mol
# Density = 1.827389 g / cm^3
# Si number density = 18.315581 Si / 1000 Ang^3
#
#
#
# Elastic Constant Matrix: (Units=GPa)
#
#
# Indices 1 2 3 4 5 6 
#
# 1 89.8477 13.2029 30.1602 0.0000 0.0000 0.0000
# 2 13.2029 60.2903 20.3419 0.0000 0.0000 0.0000
# 3 30.1602 20.3419 57.3862 0.0000 0.0000 0.0000
# 4 0.0000 0.0000 0.0000 9.6546 0.0000 0.0000
# 5 0.0000 0.0000 0.0000 0.0000 11.2459 0.0000
# 6 0.0000 0.0000 0.0000 0.0000 0.0000 14.6495
#
#
#
# Elastic Compliance Matrix: (Units=1/GPa)
#
#
# Indices 1 2 3 4 5 6 
#
# 1 0.013536 -0.000641 -0.006887 0.000000 0.000000 0.000000
# 2 -0.000641 0.018870 -0.006352 0.000000 0.000000 0.000000
# 3 -0.006887 -0.006352 0.023297 0.000000 0.000000 0.000000
# 4 0.000000 0.000000 0.000000 0.103578 0.000000 0.000000
# 5 0.000000 0.000000 0.000000 0.000000 0.088922 0.000000
# 6 0.000000 0.000000 0.000000 0.000000 0.000000 0.068262
#
#
# Mechanical properties :
#
#
# Convention : Reuss Voigt Hill
#
# Bulk Modulus (GPa) = 35.78665 37.21491 36.50078
# Shear Modulus (GPa) = 14.14274 16.69793 15.42033
#
# Velocity S-wave (km/s) = 2.78181 3.02268 2.90474
# Velocity P-wave (km/s) = 5.46802 5.70482 5.58767
#
# Compressibility (1/GPa) = 0.02794338
#
# Stress axis : x y z
#
# Youngs Moduli (GPa) = 73.87772 52.99433 42.92393
#
# Poissons Ratio (x) = 0.03395 0.29561
# Poissons Ratio (y) = 0.04732 0.27266
# Poissons Ratio (z) = 0.50879 0.33663
#
# Static dielectric constant tensor:
#      x y z
#    x 1.602170 0.000000 0.000000 
#    y 0.000000 1.658160 0.000000 
#    z 0.000000 0.000000 1.731530 
# 
# From -- ./inp_files/13623.got.cif
#   From: 2010.05.17/outbox.cif.g08.bks.cpg/sg73_7_cif.got.tgz:13623.got - 2010.06.03 17:35:07.
