data_PCOD9529969
_publ_section_title
;
Structure prediction by ZEFSAII (Michael W. Deem and Ramdas Pophale) SiO2 
 PCOD9529969
Probable space group: I B C A 
;
_chemical_formula_sum "Si O2"
_cell_formula_units_Z 120
_cell_length_a 26.454463
_cell_length_b 9.864612
_cell_length_c 26.797678
_cell_angle_alpha 90.000000
_cell_angle_beta 90.000000
_cell_angle_gamma 90.000000
_cell_volume 6993.202797
_symmetry_space_group_name_H-M "I B C A "
_symmetry_group_IT_number 73
_symmetry_cell_setting 'orthorhombic'
loop_
_space_group_symop_operation_xyz
x,y,z
-x,1/2-y,z
x,-y,1/2-z
1/2-x,y,-z
-x,-y,-z
x,1/2+y,-z
-x,y,1/2+z
1/2+x,-y,z
1/2+x,1/2+y,1/2+z
1/2-x,-y,1/2+z
1/2+x,1/2-y,-z
-x,1/2+y,1/2-z
1/2-x,1/2-y,1/2-z
1/2+x,y,1/2-z
1/2-x,1/2+y,z
x,1/2-y,1/2+z
loop_
_atom_site_type_symbol
_atom_site_label
_atom_site_fract_x
_atom_site_fract_y
_atom_site_fract_z
Si Si1 0.111877 0.409149 0.637531
Si Si2 0.897400 0.797534 0.672574
Si Si3 0.061054 0.254888 0.048522
Si Si4 0.185098 0.625650 0.217571
Si Si5 0.799145 0.880094 0.789135
Si Si6 0.457467 0.638435 0.231033
Si Si7 0.957357 0.945290 0.036720
Si Si8 0.500000 0.750000 0.883290
O O1 0.117241 0.572664 0.639116
O O2 0.093970 0.332402 0.587820
O O3 0.164149 0.365610 0.663722
O O4 0.067524 0.378868 0.677416
O O5 0.854267 0.684687 0.677602
O O6 0.912367 0.835773 0.729478
O O7 0.950601 0.754820 0.650123
O O8 0.073484 0.416753 0.048916
O O9 0.000000 0.250000 0.060349
O O10 0.067480 0.179228 0.994635
O O11 0.164995 0.500000 0.250000
O O12 0.195883 0.744142 0.257275
O O13 0.240775 0.591714 0.196317
O O14 0.813466 0.000000 0.750000
O O15 0.500000 0.750000 0.230998
O O16 0.482145 0.500000 0.250000
O O17 0.988232 0.879657 0.082231
O O18 0.000000 0.000000 0.000000
#
# Coordination Sequence:
#
# PCOD9529969 Si02
#       8
#    16  16  16  16  16  16  16   8
#     4  11  20  34  57  77 106 151 193 219 281 337
#     4  11  21  35  50  81 113 155 179 227 275 332
#     4  10  20  34  56  81 109 143 187 230 281 337
#     4  10  21  34  55  79 111 150 192 233 272 311
#     4  10  18  37  57  75 108 153 191 231 269 330
#     4  10  20  34  46  69 111 150 179 207 257 326
#     4  10  19  37  55  77 110 144 185 234 275 340
#     4  12  22  34  58  80 120 146 190 226 292 340
#
# _framework density 17.159520000000001
#
# number of rings (size 3 to 8) (size 9 to 14) (size 15 to 20)
#    0.000    1.600    5.333    2.400    0.000    2.667 
#    0.000    0.000    0.000    0.000    0.000    0.933 
#    4.000    0.000    0.000    0.000    0.000    0.000 
#
# Total GULP energy -334081.701084 kJ/mol
# GULP energy per Si atom -5568.028351 kJ/mol
# Density = 1.712046 g / cm^3
# Si number density = 17.159520 Si / 1000 Ang^3
#
#
#
# Elastic Constant Matrix: (Units=GPa)
#
#
# Indices 1 2 3 4 5 6 
#
# 1 95.0779 35.3297 32.1137 0.0000 0.0000 0.0000
# 2 35.3297 103.7473 23.1685 0.0000 0.0000 0.0000
# 3 32.1137 23.1685 55.4333 0.0000 0.0000 0.0000
# 4 0.0000 0.0000 0.0000 28.0803 0.0000 0.0000
# 5 0.0000 0.0000 0.0000 0.0000 7.3191 0.0000
# 6 0.0000 0.0000 0.0000 0.0000 0.0000 23.4443
#
#
#
# Elastic Compliance Matrix: (Units=1/GPa)
#
#
# Indices 1 2 3 4 5 6 
#
# 1 0.014011 -0.003263 -0.006753 0.000000 0.000000 0.000000
# 2 -0.003263 0.011391 -0.002870 0.000000 0.000000 0.000000
# 3 -0.006753 -0.002870 0.023152 0.000000 0.000000 0.000000
# 4 0.000000 0.000000 0.000000 0.035612 0.000000 0.000000
# 5 0.000000 0.000000 0.000000 0.000000 0.136629 0.000000
# 6 0.000000 0.000000 0.000000 0.000000 0.000000 0.042654
#
#
# Mechanical properties :
#
#
# Convention : Reuss Voigt Hill
#
# Bulk Modulus (GPa) = 43.89758 48.38690 46.14224
# Shear Modulus (GPa) = 16.84544 22.67852 19.76198
#
# Velocity S-wave (km/s) = 3.13660 3.63937 3.39730
# Velocity P-wave (km/s) = 6.22537 6.77639 6.50672
#
# Compressibility (1/GPa) = 0.02278030
#
# Stress axis : x y z
#
# Youngs Moduli (GPa) = 71.37141 87.78801 43.19348
#
# Poissons Ratio (x) = 0.28647 0.29169
# Poissons Ratio (y) = 0.23290 0.12399
# Poissons Ratio (z) = 0.48198 0.25199
#
# Static dielectric constant tensor:
#      x y z
#    x 1.580070 0.000000 0.000000 
#    y 0.000000 1.662600 0.000000 
#    z 0.000000 0.000000 1.783440 
# 
# From -- ./inp_files/33004.got.cif
#   From: 2010.05.17/outbox.cif.g08.bks.cpg/sg73_17_cif.got.tgz:33004.got - 2010.06.03 17:35:07.
