data_PCOD9529688
_publ_section_title
;
Structure prediction by ZEFSAII (Michael W. Deem and Ramdas Pophale) SiO2 
 PCOD9529688
Probable space group: I B C A 
;
_chemical_formula_sum "Si O2"
_cell_formula_units_Z 88
_cell_length_a 13.474920
_cell_length_b 17.288633
_cell_length_c 17.991907
_cell_angle_alpha 90.000000
_cell_angle_beta 90.000000
_cell_angle_gamma 90.000000
_cell_volume 4191.447669
_symmetry_space_group_name_H-M "I B C A "
_symmetry_group_IT_number 73
_symmetry_cell_setting 'orthorhombic'
loop_
_space_group_symop_operation_xyz
x,y,z
-x,1/2-y,z
x,-y,1/2-z
1/2-x,y,-z
-x,-y,-z
x,1/2+y,-z
-x,y,1/2+z
1/2+x,-y,z
1/2+x,1/2+y,1/2+z
1/2-x,-y,1/2+z
1/2+x,1/2-y,-z
-x,1/2+y,1/2-z
1/2-x,1/2-y,1/2-z
1/2+x,y,1/2-z
1/2-x,1/2+y,z
x,1/2-y,1/2+z
loop_
_atom_site_type_symbol
_atom_site_label
_atom_site_fract_x
_atom_site_fract_y
_atom_site_fract_z
Si Si1 0.790356 0.101166 0.370734
Si Si2 0.993510 0.657655 0.139048
Si Si3 0.000000 0.250000 0.142215
Si Si4 0.750000 0.979834 0.500000
Si Si5 0.414900 0.649372 0.518521
Si Si6 0.830722 0.680019 0.254964
Si Si7 0.750000 0.722342 0.500000
O O1 0.722003 0.111131 0.299191
O O2 0.767756 0.173257 0.425966
O O3 0.904717 0.111956 0.342209
O O4 0.757195 0.031734 0.425290
O O5 0.889949 0.644939 0.183669
O O6 0.000000 0.750000 0.148683
O O7 0.986001 0.642691 0.051432
O O8 0.028791 0.324899 0.092525
O O9 0.086972 0.220185 0.194026
O O10 0.655048 0.924812 0.512038
O O11 0.344074 0.722974 0.507616
O O12 0.750000 0.750000 0.250000
#
# Coordination Sequence:
#
# PCOD9529688 Si02
#       7
#    16  16   8   8  16  16   8
#     4  11  22  43  65 100 137 185 224 284 361 415
#     4  12  22  40  70 104 135 172 233 303 346 418
#     4  12  22  38  74 104 124 176 244 300 338 416
#     4  10  28  44  70  98 154 184 228 298 364 440
#     4  11  22  41  68 105 130 179 240 292 347 408
#     4  12  23  40  69 105 141 173 233 302 355 408
#     4  10  16  34  68  94 126 166 228 292 328 388
#
# _framework density 20.995134
#
# number of rings (size 3 to 8) (size 9 to 14) (size 15 to 20)
#    0.000    0.727    7.273    0.000    5.091    0.727 
#    0.000    0.909    0.000    0.000    0.000    0.000 
#    0.000    0.000    0.000    0.000    0.000    0.000 
#
# Total GULP energy -245332.175967 kJ/mol
# GULP energy per Si atom -5575.731272 kJ/mol
# Density = 2.094735 g / cm^3
# Si number density = 20.995134 Si / 1000 Ang^3
#
#
#
# Elastic Constant Matrix: (Units=GPa)
#
#
# Indices 1 2 3 4 5 6 
#
# 1 86.8745 13.8111 4.3572 0.0000 0.0000 0.0000
# 2 13.8111 77.0870 7.5973 0.0000 0.0000 0.0000
# 3 4.3572 7.5973 40.1407 0.0000 0.0000 0.0000
# 4 0.0000 0.0000 0.0000 -3.6649 0.0000 0.0000
# 5 0.0000 0.0000 0.0000 0.0000 56.1507 0.0000
# 6 0.0000 0.0000 0.0000 0.0000 0.0000 27.6999
#
#
#
# Elastic Compliance Matrix: (Units=1/GPa)
#
#
# Indices 1 2 3 4 5 6 
#
# 1 0.011880 -0.002039 -0.000904 0.000000 0.000000 0.000000
# 2 -0.002039 0.013569 -0.002347 0.000000 0.000000 0.000000
# 3 -0.000904 -0.002347 0.025455 0.000000 0.000000 0.000000
# 4 0.000000 0.000000 0.000000 -0.272859 0.000000 0.000000
# 5 0.000000 0.000000 0.000000 0.000000 0.017809 0.000000
# 6 0.000000 0.000000 0.000000 0.000000 0.000000 0.036101
#
#
# Mechanical properties :
#
#
# Convention : Reuss Voigt Hill
#
# Bulk Modulus (GPa) = 24.79889 28.40370 26.60130
# Shear Modulus (GPa) = -34.71669 27.92624 -3.39523
#
# Velocity S-wave (km/s) = -4.07081 3.65105 -1.27305
# Velocity P-wave (km/s) = 3.20280 5.59747 3.24605
#
# Compressibility (1/GPa) = 0.04032438
#
# Stress axis : x y z
#
# Youngs Moduli (GPa) = 84.17218 73.69717 39.28558
#
# Poissons Ratio (x) = 0.15030 0.03550
# Poissons Ratio (y) = 0.17167 0.09219
# Poissons Ratio (z) = 0.07606 0.17295
#
# Static dielectric constant tensor:
#      x y z
#    x 1.987870 0.000000 0.000000 
#    y 0.000000 1.782820 0.000000 
#    z 0.000000 0.000000 1.783530 
# 
# From -- ./inp_files/21974.got.cif
#   From: 2010.05.17/outbox.cif.g08.bks.cpg/sg73_11_cif.got.tgz:21974.got - 2010.06.03 17:35:07.
