data_PCOD9529652
_publ_section_title
;
Structure prediction by ZEFSAII (Michael W. Deem and Ramdas Pophale) SiO2 
 PCOD9529652
Probable space group: I B C A 
;
_chemical_formula_sum "Si O2"
_cell_formula_units_Z 88
_cell_length_a 5.415020
_cell_length_b 30.911799
_cell_length_c 24.366073
_cell_angle_alpha 90.000000
_cell_angle_beta 90.000000
_cell_angle_gamma 90.000000
_cell_volume 4078.588467
_symmetry_space_group_name_H-M "I B C A "
_symmetry_group_IT_number 73
_symmetry_cell_setting 'orthorhombic'
loop_
_space_group_symop_operation_xyz
x,y,z
-x,1/2-y,z
x,-y,1/2-z
1/2-x,y,-z
-x,-y,-z
x,1/2+y,-z
-x,y,1/2+z
1/2+x,-y,z
1/2+x,1/2+y,1/2+z
1/2-x,-y,1/2+z
1/2+x,1/2-y,-z
-x,1/2+y,1/2-z
1/2-x,1/2-y,1/2-z
1/2+x,y,1/2-z
1/2-x,1/2+y,z
x,1/2-y,1/2+z
loop_
_atom_site_type_symbol
_atom_site_label
_atom_site_fract_x
_atom_site_fract_y
_atom_site_fract_z
Si Si1 0.877175 0.680938 0.776737
Si Si2 0.250000 0.274968 0.000000
Si Si3 0.625825 0.837101 0.599165
Si Si4 0.529459 0.516789 0.437599
Si Si5 0.641911 0.917902 0.768531
Si Si6 0.130836 0.608059 0.104276
O O1 0.619978 0.698207 0.753348
O O2 0.899100 0.685424 0.841604
O O3 0.869410 0.628929 0.763272
O O4 0.500000 0.250000 0.017703
O O5 0.157394 0.303763 0.050384
O O6 0.378881 0.865540 0.590959
O O7 0.878909 0.864656 0.600964
O O8 0.500000 0.500000 0.500000
O O9 0.260585 0.508705 0.411572
O O10 0.599390 0.566709 0.434442
O O11 0.387765 0.940347 0.752649
O O12 0.654686 0.908235 0.832962
#
# Coordination Sequence:
#
# PCOD9529652 Si02
#       6
#    16   8  16  16  16  16
#     4  10  16  32  59 100 129 145 188 276 342 360
#     4  12  30  52  64  88 142 186 206 250 322 390
#     4  12  23  40  71 101 119 167 224 272 308 383
#     4  10  23  41  57  80 129 178 201 263 334 369
#     4  10  16  30  54  96 129 147 183 273 346 360
#     4  12  21  36  68 101 119 160 226 276 312 384
#
# _framework density 21.576094000000001
#
# number of rings (size 3 to 8) (size 9 to 14) (size 15 to 20)
#    0.000    1.091    7.273    2.182    0.000    4.364 
#    0.000    0.000    0.000    6.545    0.000    0.000 
#    0.000    0.000    0.000    0.000    0.000    0.000 
#
# Total GULP energy -245852.430613 kJ/mol
# GULP energy per Si atom -5587.555241 kJ/mol
# Density = 2.152699 g / cm^3
# Si number density = 21.576094 Si / 1000 Ang^3
#
#
#
# Elastic Constant Matrix: (Units=GPa)
#
#
# Indices 1 2 3 4 5 6 
#
# 1 250.2478 50.7507 17.0780 0.0000 0.0000 0.0000
# 2 50.7507 44.8227 35.1752 0.0000 0.0000 0.0000
# 3 17.0780 35.1752 78.8201 0.0000 0.0000 0.0000
# 4 0.0000 0.0000 0.0000 79.0379 0.0000 0.0000
# 5 0.0000 0.0000 0.0000 0.0000 20.1337 0.0000
# 6 0.0000 0.0000 0.0000 0.0000 0.0000 13.3445
#
#
#
# Elastic Compliance Matrix: (Units=1/GPa)
#
#
# Indices 1 2 3 4 5 6 
#
# 1 0.005474 -0.008106 0.002431 0.000000 0.000000 0.000000
# 2 -0.008106 0.046339 -0.018923 0.000000 0.000000 0.000000
# 3 0.002431 -0.018923 0.020605 0.000000 0.000000 0.000000
# 4 0.000000 0.000000 0.000000 0.012652 0.000000 0.000000
# 5 0.000000 0.000000 0.000000 0.000000 0.049668 0.000000
# 6 0.000000 0.000000 0.000000 0.000000 0.000000 0.074937
#
#
# Mechanical properties :
#
#
# Convention : Reuss Voigt Hill
#
# Bulk Modulus (GPa) = 43.06259 64.43316 53.74788
# Shear Modulus (GPa) = 18.75388 40.56236 29.65812
#
# Velocity S-wave (km/s) = 2.95141 4.34056 3.71156
# Velocity P-wave (km/s) = 5.62283 7.41948 6.58274
#
# Compressibility (1/GPa) = 0.02322201
#
# Stress axis : x y z
#
# Youngs Moduli (GPa) = 182.68030 21.58027 48.53143
#
# Poissons Ratio (x) = 0.17493 -0.11800
# Poissons Ratio (y) = 1.48083 0.91837
# Poissons Ratio (z) = -0.44418 0.40837
#
# Static dielectric constant tensor:
#      x y z
#    x 1.908320 0.000000 0.000000 
#    y 0.000000 1.790490 0.000000 
#    z 0.000000 0.000000 1.749050 
# 
# From -- ./inp_files/28076.got.cif
#   From: 2010.05.17/outbox.cif.g08.bks.cpg/sg73_15_cif.got.tgz:28076.got - 2010.06.03 17:35:07.
