data_PCOD9529071
_publ_section_title
;
Structure prediction by ZEFSAII (Michael W. Deem and Ramdas Pophale) SiO2 
 PCOD9529071
Probable space group: I B A M
;
_chemical_formula_sum "Si O2"
_cell_formula_units_Z 76
_cell_length_a 33.858131
_cell_length_b 5.346038
_cell_length_c 25.624619
_cell_angle_alpha 90.000000
_cell_angle_beta 90.000000
_cell_angle_gamma 90.000000
_cell_volume 4638.231694
_symmetry_space_group_name_H-M "I B A M"
_symmetry_group_IT_number 72
_symmetry_cell_setting 'orthorhombic'
loop_
_space_group_symop_operation_xyz
x,y,z
-x,-y,z
x,-y,1/2-z
-x,y,1/2-z
-x,-y,-z
x,y,-z
-x,y,1/2+z
x,-y,1/2+z
1/2+x,1/2+y,1/2+z
1/2-x,1/2-y,1/2+z
1/2+x,1/2-y,-z
1/2-x,1/2+y,-z
1/2-x,1/2-y,1/2-z
1/2+x,1/2+y,1/2-z
1/2-x,1/2+y,z
1/2+x,1/2-y,z
loop_
_atom_site_type_symbol
_atom_site_label
_atom_site_fract_x
_atom_site_fract_y
_atom_site_fract_z
Si Si1 0.272463 0.729237 0.563496
Si Si2 0.456423 0.112183 0.306205
Si Si3 0.136613 0.845004 0.062078
Si Si4 0.500000 0.500000 0.750000
Si Si5 0.473419 0.751625 0.000000
Si Si6 0.090601 0.336043 0.089847
O O1 0.271845 0.732022 0.500000
O O2 0.246859 0.490178 0.580654
O O3 0.318080 0.697792 0.578568
O O4 0.468781 0.388450 0.290840
O O5 0.426997 0.100436 0.353559
O O6 0.500000 0.000000 0.318594
O O7 0.443773 0.000000 0.250000
O O8 0.112936 0.586280 0.070623
O O9 0.117936 0.088598 0.089493
O O10 0.135951 0.900920 0.000000
O O11 0.500000 0.500000 0.000000
O O12 0.445072 0.767498 0.050440
O O13 0.500000 0.000000 0.000000
#
# Coordination Sequence:
#
# PCOD9529071 Si02
#       6
#    16  16  16   4   8  16
#     4   9  17  30  51  74 102 142 178 207 242 314
#     4   9  21  37  55  75  97 137 187 238 280 309
#     4  11  21  36  51  79 115 145 174 209 275 315
#     4   8  18  36  56  72  92 132 182 244 286 302
#     4  12  24  36  50  74 104 148 190 208 252 324
#     4  12  23  36  54  76 111 144 177 228 269 318
#
# _framework density 16.385555
#
# number of rings (size 3 to 8) (size 9 to 14) (size 15 to 20)
#    0.000    1.895    2.105    3.158    7.368    3.368 
#    0.000    0.000    0.000    0.000    0.000    0.000 
#    0.000   16.842    0.000    0.000    0.000    0.000 
#
# Total GULP energy -211565.198294 kJ/mol
# GULP energy per Si atom -5567.505218 kJ/mol
# Density = 1.634826 g / cm^3
# Si number density = 16.385555 Si / 1000 Ang^3
#
#
#
# Elastic Constant Matrix: (Units=GPa)
#
#
# Indices 1 2 3 4 5 6 
#
# 1 82.6017 28.0240 32.8324 0.0000 0.0000 0.0000
# 2 28.0240 77.3918 10.0089 0.0000 0.0000 0.0000
# 3 32.8324 10.0089 67.9461 0.0000 0.0000 0.0000
# 4 0.0000 0.0000 0.0000 33.5101 0.0000 0.0000
# 5 0.0000 0.0000 0.0000 0.0000 14.6994 0.0000
# 6 0.0000 0.0000 0.0000 0.0000 0.0000 37.0826
#
#
#
# Elastic Compliance Matrix: (Units=1/GPa)
#
#
# Indices 1 2 3 4 5 6 
#
# 1 0.016763 -0.005120 -0.007346 0.000000 0.000000 0.000000
# 2 -0.005120 0.014736 0.000303 0.000000 0.000000 0.000000
# 3 -0.007346 0.000303 0.018223 0.000000 0.000000 0.000000
# 4 0.000000 0.000000 0.000000 0.029842 0.000000 0.000000
# 5 0.000000 0.000000 0.000000 0.000000 0.068030 0.000000
# 6 0.000000 0.000000 0.000000 0.000000 0.000000 0.026967
#
#
# Mechanical properties :
#
#
# Convention : Reuss Voigt Hill
#
# Bulk Modulus (GPa) = 39.37556 41.07446 40.22501
# Shear Modulus (GPa) = 24.11368 27.53004 25.82186
#
# Velocity S-wave (km/s) = 3.84036 4.10340 3.97406
# Velocity P-wave (km/s) = 6.61418 6.89728 6.75721
#
# Compressibility (1/GPa) = 0.02539647
#
# Stress axis : x y z
#
# Youngs Moduli (GPa) = 59.65449 67.86093 54.87714
#
# Poissons Ratio (x) = 0.34745 0.40313
# Poissons Ratio (y) = 0.30543 -0.01665
# Poissons Ratio (z) = 0.43822 -0.02059
#
# Static dielectric constant tensor:
#      x y z
#    x 1.543700 0.000000 0.000000 
#    y 0.000000 1.614920 0.000000 
#    z 0.000000 0.000000 1.513520 
# 
# From -- ./inp_files/41581.got.cif
#   From: 2010.05.17/outbox.cif.g08.bks.cpg/sg72_21_cif.got.tgz:41581.got - 2010.06.03 17:03:01.
