data_PCOD9529853
_publ_section_title
;
Structure prediction by ZEFSAII (Michael W. Deem and Ramdas Pophale) SiO2 
 PCOD9529853
Probable space group: I B C A 
;
_chemical_formula_sum "Si O2"
_cell_formula_units_Z 104
_cell_length_a 16.178909
_cell_length_b 11.663282
_cell_length_c 30.606221
_cell_angle_alpha 90.000000
_cell_angle_beta 90.000000
_cell_angle_gamma 90.000000
_cell_volume 5775.368748
_symmetry_space_group_name_H-M "I B C A "
_symmetry_group_IT_number 73
_symmetry_cell_setting 'orthorhombic'
loop_
_space_group_symop_operation_xyz
x,y,z
-x,1/2-y,z
x,-y,1/2-z
1/2-x,y,-z
-x,-y,-z
x,1/2+y,-z
-x,y,1/2+z
1/2+x,-y,z
1/2+x,1/2+y,1/2+z
1/2-x,-y,1/2+z
1/2+x,1/2-y,-z
-x,1/2+y,1/2-z
1/2-x,1/2-y,1/2-z
1/2+x,y,1/2-z
1/2-x,1/2+y,z
x,1/2-y,1/2+z
loop_
_atom_site_type_symbol
_atom_site_label
_atom_site_fract_x
_atom_site_fract_y
_atom_site_fract_z
Si Si1 0.944723 0.991415 0.698175
Si Si2 0.551808 0.360371 0.035023
Si Si3 0.152381 0.881401 0.614613
Si Si4 0.000000 0.250000 0.839743
Si Si5 0.043092 0.088434 0.063388
Si Si6 0.163070 0.138466 0.140402
Si Si7 0.580655 0.118685 0.860899
O O1 0.961591 0.859137 0.685637
O O2 0.946385 0.000000 0.750000
O O3 0.861661 0.045846 0.677277
O O4 0.016001 0.069058 0.674705
O O5 0.500000 0.250000 0.047503
O O6 0.635619 0.372450 0.062720
O O7 0.492755 0.464782 0.049742
O O8 0.563872 0.356044 0.982996
O O9 0.076388 0.807973 0.634384
O O10 0.240888 0.842709 0.631352
O O11 0.141713 0.013419 0.629474
O O12 0.120439 0.090729 0.095975
O O13 0.969011 0.136812 0.093603
O O14 0.121888 0.261521 0.151360
#
# Coordination Sequence:
#
# PCOD9529853 Si02
#       7
#    16  16  16   8  16  16  16
#     4  10  22  39  66  88 110 153 198 237 300 360
#     4  10  18  32  57  79 117 154 203 235 281 351
#     4  10  22  36  58  88 114 163 192 243 295 348
#     4  10  22  42  60  84 120 152 198 238 296 368
#     4   9  19  34  53  85 110 159 197 238 289 348
#     4  11  22  36  61  84 125 149 197 247 298 345
#     4   9  20  39  58  82 119 154 196 237 298 351
#
# _framework density 18.007508000000001
#
# number of rings (size 3 to 8) (size 9 to 14) (size 15 to 20)
#    0.000    2.154    0.769    3.692    4.308    0.615 
#    0.000    3.846    0.000    5.538    0.000    0.000 
#    0.000    0.000    0.000    0.000    0.000    0.000 
#
# Total GULP energy -289702.311602 kJ/mol
# GULP energy per Si atom -5571.198300 kJ/mol
# Density = 1.796652 g / cm^3
# Si number density = 18.007508 Si / 1000 Ang^3
#
#
#
# Elastic Constant Matrix: (Units=GPa)
#
#
# Indices 1 2 3 4 5 6 
#
# 1 75.1295 27.6042 32.7755 0.0000 0.0000 0.0000
# 2 27.6042 110.0569 48.9186 0.0000 0.0000 0.0000
# 3 32.7755 48.9186 118.2917 0.0000 0.0000 0.0000
# 4 0.0000 0.0000 0.0000 11.3493 0.0000 0.0000
# 5 0.0000 0.0000 0.0000 0.0000 6.7408 0.0000
# 6 0.0000 0.0000 0.0000 0.0000 0.0000 16.5884
#
#
#
# Elastic Compliance Matrix: (Units=1/GPa)
#
#
# Indices 1 2 3 4 5 6 
#
# 1 0.015662 -0.002450 -0.003326 0.000000 0.000000 0.000000
# 2 -0.002450 0.011516 -0.004083 0.000000 0.000000 0.000000
# 3 -0.003326 -0.004083 0.011064 0.000000 0.000000 0.000000
# 4 0.000000 0.000000 0.000000 0.088111 0.000000 0.000000
# 5 0.000000 0.000000 0.000000 0.000000 0.148351 0.000000
# 6 0.000000 0.000000 0.000000 0.000000 0.000000 0.060283
#
#
# Mechanical properties :
#
#
# Convention : Reuss Voigt Hill
#
# Bulk Modulus (GPa) = 53.98923 58.00832 55.99878
# Shear Modulus (GPa) = 13.85502 19.88101 16.86801
#
# Velocity S-wave (km/s) = 2.77682 3.32631 3.06391
# Velocity P-wave (km/s) = 6.35040 6.85827 6.60921
#
# Compressibility (1/GPa) = 0.01852221
#
# Stress axis : x y z
#
# Youngs Moduli (GPa) = 63.85059 86.83821 90.38316
#
# Poissons Ratio (x) = 0.21273 0.30065
# Poissons Ratio (y) = 0.15641 0.36908
# Poissons Ratio (z) = 0.21239 0.35460
#
# Static dielectric constant tensor:
#      x y z
#    x 1.611490 0.000000 0.000000 
#    y 0.000000 1.657830 0.000000 
#    z 0.000000 0.000000 1.629000 
# 
# From -- ./inp_files/34554.got.cif
#   From: 2010.05.17/outbox.cif.g08.bks.cpg/sg73_18_cif.got.tgz:34554.got - 2010.06.03 17:35:07.
