data_PCOD9529277
_publ_section_title
;
Structure prediction by ZEFSAII (Michael W. Deem and Ramdas Pophale) SiO2 
 PCOD9529277
Probable space group: I B A M
;
_chemical_formula_sum "Si O2"
_cell_formula_units_Z 88
_cell_length_a 5.015963
_cell_length_b 31.317373
_cell_length_c 27.538404
_cell_angle_alpha 90.000000
_cell_angle_beta 90.000000
_cell_angle_gamma 90.000000
_cell_volume 4325.919327
_symmetry_space_group_name_H-M "I B A M"
_symmetry_group_IT_number 72
_symmetry_cell_setting 'orthorhombic'
loop_
_space_group_symop_operation_xyz
x,y,z
-x,-y,z
x,-y,1/2-z
-x,y,1/2-z
-x,-y,-z
x,y,-z
-x,y,1/2+z
x,-y,1/2+z
1/2+x,1/2+y,1/2+z
1/2-x,1/2-y,1/2+z
1/2+x,1/2-y,-z
1/2-x,1/2+y,-z
1/2-x,1/2-y,1/2-z
1/2+x,1/2+y,1/2-z
1/2-x,1/2+y,z
1/2+x,1/2-y,z
loop_
_atom_site_type_symbol
_atom_site_label
_atom_site_fract_x
_atom_site_fract_y
_atom_site_fract_z
Si Si1 0.500000 0.173821 0.250000
Si Si2 0.250244 0.603213 0.500000
Si Si3 0.500000 0.611195 0.250000
Si Si4 0.494174 0.221338 0.148188
Si Si5 0.509045 0.414679 0.143498
Si Si6 0.976218 0.633000 0.898588
Si Si7 0.267911 0.045870 0.000000
Si Si8 0.000000 0.000000 0.586553
O O1 0.249002 0.142835 0.255885
O O2 0.465310 0.202817 0.202528
O O3 0.149383 0.627144 0.548042
O O4 0.554750 0.586027 0.500000
O O5 0.067766 0.561282 0.500000
O O6 0.448237 0.584056 0.201255
O O7 0.285369 0.259194 0.141165
O O8 0.446929 0.181413 0.112881
O O9 0.267586 0.381883 0.135216
O O10 0.424637 0.459818 0.120038
O O11 0.770167 0.396486 0.115528
O O12 0.210500 0.019576 0.048647
#
# Coordination Sequence:
#
# PCOD9529277 Si02
#       8
#     8   8   8  16  16  16   8   8
#     4  12  22  41  68  97 125 166 223 263 326 375
#     4  12  22  45  68  97 121 178 213 263 330 389
#     4  12  22  42  66  92 131 180 217 252 312 404
#     4  12  24  41  65  99 130 162 214 273 322 381
#     4  12  24  42  65  93 136 175 212 262 324 381
#     4  12  24  44  66  95 131 172 211 263 333 388
#     4  11  24  38  68  99 129 158 227 281 318 362
#     4  11  24  41  64 104 128 171 218 277 316 372
#
# _framework density 20.342497000000002
#
# number of rings (size 3 to 8) (size 9 to 14) (size 15 to 20)
#    0.000    0.182    7.273    2.727    0.000    4.000 
#    0.000    0.909    0.000    3.273    0.000    0.000 
#    0.000    0.000    0.000    0.000    0.000    0.000 
#
# Total GULP energy -246027.615062 kJ/mol
# GULP energy per Si atom -5591.536706 kJ/mol
# Density = 2.029620 g / cm^3
# Si number density = 20.342497 Si / 1000 Ang^3
#
#
#
# Elastic Constant Matrix: (Units=GPa)
#
#
# Indices 1 2 3 4 5 6 
#
# 1 73.3401 -8.1497 -5.3817 0.0000 0.0000 0.0000
# 2 -8.1497 83.3530 46.2303 0.0000 0.0000 0.0000
# 3 -5.3817 46.2303 118.8328 0.0000 0.0000 0.0000
# 4 0.0000 0.0000 0.0000 32.7187 0.0000 0.0000
# 5 0.0000 0.0000 0.0000 0.0000 -214.2539 0.0000
# 6 0.0000 0.0000 0.0000 0.0000 0.0000 32.9140
#
#
#
# Elastic Compliance Matrix: (Units=1/GPa)
#
#
# Indices 1 2 3 4 5 6 
#
# 1 0.013786 0.001277 0.000127 0.000000 0.000000 0.000000
# 2 0.001277 0.015416 -0.005940 0.000000 0.000000 0.000000
# 3 0.000127 -0.005940 0.010732 0.000000 0.000000 0.000000
# 4 0.000000 0.000000 0.000000 0.030564 0.000000 0.000000
# 5 0.000000 0.000000 0.000000 0.000000 -0.004667 0.000000
# 6 0.000000 0.000000 0.000000 0.000000 0.000000 0.030382
#
#
# Mechanical properties :
#
#
# Convention : Reuss Voigt Hill
#
# Bulk Modulus (GPa) = 32.39965 37.88041 35.14003
# Shear Modulus (GPa) = 43.26341 -13.53578 14.86382
#
# Velocity S-wave (km/s) = 4.61667 -2.58232 2.70604
# Velocity P-wave (km/s) = 6.66182 3.12579 5.20339
#
# Compressibility (1/GPa) = 0.03086453
#
# Stress axis : x y z
#
# Youngs Moduli (GPa) = 72.53532 64.86593 93.18170
#
# Poissons Ratio (x) = -0.08285 -0.01188
# Poissons Ratio (y) = -0.09265 0.55347
# Poissons Ratio (z) = -0.00925 0.38528
#
# Static dielectric constant tensor:
#      x y z
#    x 1.714170 0.000000 0.000000 
#    y 0.000000 1.717670 0.000000 
#    z 0.000000 0.000000 1.747690 
# 
# From -- ./inp_files/46791.got.cif
#   From: 2010.05.17/outbox.cif.g08.bks.cpg/sg72_24_cif.got.tgz:46791.got - 2010.06.03 17:03:01.
