data_PCOD9529128
_publ_section_title
;
Structure prediction by ZEFSAII (Michael W. Deem and Ramdas Pophale) SiO2 
 PCOD9529128
Probable space group: I B A M
;
_chemical_formula_sum "Si O2"
_cell_formula_units_Z 96
_cell_length_a 23.226702
_cell_length_b 19.821958
_cell_length_c 9.628993
_cell_angle_alpha 90.000000
_cell_angle_beta 90.000000
_cell_angle_gamma 90.000000
_cell_volume 4433.175970
_symmetry_space_group_name_H-M "I B A M"
_symmetry_group_IT_number 72
_symmetry_cell_setting 'orthorhombic'
loop_
_space_group_symop_operation_xyz
x,y,z
-x,-y,z
x,-y,1/2-z
-x,y,1/2-z
-x,-y,-z
x,y,-z
-x,y,1/2+z
x,-y,1/2+z
1/2+x,1/2+y,1/2+z
1/2-x,1/2-y,1/2+z
1/2+x,1/2-y,-z
1/2-x,1/2+y,-z
1/2-x,1/2-y,1/2-z
1/2+x,1/2+y,1/2-z
1/2-x,1/2+y,z
1/2+x,1/2-y,z
loop_
_atom_site_type_symbol
_atom_site_label
_atom_site_fract_x
_atom_site_fract_y
_atom_site_fract_z
Si Si1 0.911044 0.564750 0.346095
Si Si2 0.089978 0.711427 0.160977
Si Si3 0.297592 0.785805 0.843459
Si Si4 0.554233 0.359712 0.337187
Si Si5 0.221199 0.578613 0.219176
Si Si6 0.349418 0.430734 0.339650
O O1 0.920695 0.500000 0.250000
O O2 0.931027 0.547683 0.500000
O O3 0.935901 0.637853 0.304676
O O4 0.841864 0.580198 0.350333
O O5 0.141837 0.723262 0.267292
O O6 0.051898 0.778260 0.163092
O O7 0.110955 0.706642 0.000000
O O8 0.250000 0.750000 0.750000
O O9 0.284840 0.866257 0.840032
O O10 0.297679 0.760659 0.000000
O O11 0.500000 0.386831 0.250000
O O12 0.555799 0.380970 0.500000
O O13 0.610592 0.381660 0.251135
O O14 0.226622 0.500000 0.250000
O O15 0.283148 0.594539 0.153081
O O16 0.350991 0.500000 0.250000
O O17 0.369136 0.439391 0.500000
#
# Coordination Sequence:
#
# PCOD9529128 Si02
#       6
#    16  16  16  16  16  16
#     4   9  17  31  52  82 118 154 187 220 260 312
#     4   9  20  37  56  79 110 145 182 226 278 332
#     4  11  22  34  52  79 113 150 188 227 270 324
#     4  11  24  43  64  84 107 139 183 238 294 346
#     4   9  20  34  52  79 115 154 190 224 261 312
#     4  11  23  39  60  86 115 149 188 232 281 335
#
# _framework density 21.654903999999998
#
# number of rings (size 3 to 8) (size 9 to 14) (size 15 to 20)
#    0.000    2.000    0.000    3.000    0.000   15.667 
#    0.000    1.667    0.000    0.500    0.000    3.500 
#    0.000    0.000    0.000    0.000    0.000    0.000 
#
# Total GULP energy -267471.617256 kJ/mol
# GULP energy per Si atom -5572.325360 kJ/mol
# Density = 2.160562 g / cm^3
# Si number density = 21.654904 Si / 1000 Ang^3
#
#
#
# Elastic Constant Matrix: (Units=GPa)
#
#
# Indices 1 2 3 4 5 6 
#
# 1 60.5459 4.9813 39.8079 0.0000 0.0000 0.0000
# 2 4.9813 82.9006 32.4460 0.0000 0.0000 0.0000
# 3 39.8079 32.4460 161.6083 0.0000 0.0000 0.0000
# 4 0.0000 0.0000 0.0000 30.1432 0.0000 0.0000
# 5 0.0000 0.0000 0.0000 0.0000 6.4135 0.0000
# 6 0.0000 0.0000 0.0000 0.0000 0.0000 -0.7933
#
#
#
# Elastic Compliance Matrix: (Units=1/GPa)
#
#
# Indices 1 2 3 4 5 6 
#
# 1 0.019754 0.000779 -0.005022 0.000000 0.000000 0.000000
# 2 0.000779 0.013122 -0.002826 0.000000 0.000000 0.000000
# 3 -0.005022 -0.002826 0.007992 0.000000 0.000000 0.000000
# 4 0.000000 0.000000 0.000000 0.033175 0.000000 0.000000
# 5 0.000000 0.000000 0.000000 0.000000 0.155922 0.000000
# 6 0.000000 0.000000 0.000000 0.000000 0.000000 -1.260565
#
#
# Mechanical properties :
#
#
# Convention : Reuss Voigt Hill
#
# Bulk Modulus (GPa) = 37.41269 51.05835 44.23552
# Shear Modulus (GPa) = -4.96253 22.34065 8.68906
#
# Velocity S-wave (km/s) = -1.51546 3.21544 2.00530
# Velocity P-wave (km/s) = 3.77520 6.11676 5.08266
#
# Compressibility (1/GPa) = 0.02672890
#
# Stress axis : x y z
#
# Youngs Moduli (GPa) = 50.62158 76.20776 125.11971
#
# Poissons Ratio (x) = -0.05934 0.62839
# Poissons Ratio (y) = -0.03942 0.35363
# Poissons Ratio (z) = 0.25424 0.21539
#
# Static dielectric constant tensor:
#      x y z
#    x 1.801770 0.000000 0.000000 
#    y 0.000000 1.688550 0.000000 
#    z 0.000000 0.000000 1.756560 
# 
# From -- ./inp_files/6989.got.cif
#   From: 2010.05.17/outbox.cif.g08.bks.cpg/sg72_4_cif.got.tgz:6989.got - 2010.06.03 17:03:01.
