data_PCOD9529261
_publ_section_title
;
Structure prediction by ZEFSAII (Michael W. Deem and Ramdas Pophale) SiO2 
 PCOD9529261
Probable space group: I B A M
;
_chemical_formula_sum "Si O2"
_cell_formula_units_Z 64
_cell_length_a 10.396288
_cell_length_b 19.277044
_cell_length_c 15.623507
_cell_angle_alpha 90.000000
_cell_angle_beta 90.000000
_cell_angle_gamma 90.000000
_cell_volume 3131.102370
_symmetry_space_group_name_H-M "I B A M"
_symmetry_group_IT_number 72
_symmetry_cell_setting 'orthorhombic'
loop_
_space_group_symop_operation_xyz
x,y,z
-x,-y,z
x,-y,1/2-z
-x,y,1/2-z
-x,-y,-z
x,y,-z
-x,y,1/2+z
x,-y,1/2+z
1/2+x,1/2+y,1/2+z
1/2-x,1/2-y,1/2+z
1/2+x,1/2-y,-z
1/2-x,1/2+y,-z
1/2-x,1/2-y,1/2-z
1/2+x,1/2+y,1/2-z
1/2-x,1/2+y,z
1/2+x,1/2-y,z
loop_
_atom_site_type_symbol
_atom_site_label
_atom_site_fract_x
_atom_site_fract_y
_atom_site_fract_z
Si Si1 0.295280 0.520663 0.500000
Si Si2 0.146965 0.475747 0.660244
Si Si3 0.476985 0.614523 0.000000
Si Si4 0.336080 0.815741 0.603981
Si Si5 0.061405 0.216713 0.842645
O O1 0.211774 0.516264 0.583769
O O2 0.385784 0.452487 0.500000
O O3 0.378688 0.588658 0.500000
O O4 0.206000 0.500000 0.750000
O O5 0.161273 0.394074 0.640625
O O6 0.000000 0.500000 0.661162
O O7 0.456756 0.657453 0.086042
O O8 0.318434 0.816395 0.500000
O O9 0.216826 0.774956 0.649636
O O10 0.472820 0.780617 0.625893
O O11 0.000000 0.198519 0.750000
#
# Coordination Sequence:
#
# PCOD9529261 Si02
#       5
#     8  16   8  16  16
#     4  11  23  43  71  95 139 182 230 277 350 409
#     4  11  25  43  68  99 139 179 231 283 340 417
#     4  11  24  43  67 107 131 179 232 286 342 415
#     4  12  24  49  71 102 142 184 234 289 349 412
#     4  12  26  45  72 103 142 183 231 293 347 415
#
# _framework density 20.440085
#
# number of rings (size 3 to 8) (size 9 to 14) (size 15 to 20)
#    0.000    0.500    6.250    1.125    7.000    2.000 
#    0.000    2.500    0.000    0.000    0.000    0.000 
#    0.000    0.000    0.000    0.000    0.000    0.000 
#
# Total GULP energy -178712.969646 kJ/mol
# GULP energy per Si atom -5584.780301 kJ/mol
# Density = 2.039356 g / cm^3
# Si number density = 20.440085 Si / 1000 Ang^3
#
#
#
# Elastic Constant Matrix: (Units=GPa)
#
#
# Indices 1 2 3 4 5 6 
#
# 1 101.1558 21.9495 25.6841 0.0000 0.0000 0.0000
# 2 21.9495 33.1136 15.7599 0.0000 0.0000 0.0000
# 3 25.6841 15.7599 173.1052 0.0000 0.0000 0.0000
# 4 0.0000 0.0000 0.0000 15.0429 0.0000 0.0000
# 5 0.0000 0.0000 0.0000 0.0000 19.7033 0.0000
# 6 0.0000 0.0000 0.0000 0.0000 0.0000 39.2367
#
#
#
# Elastic Compliance Matrix: (Units=1/GPa)
#
#
# Indices 1 2 3 4 5 6 
#
# 1 0.011736 -0.007266 -0.001080 0.000000 0.000000 0.000000
# 2 -0.007266 0.036065 -0.002205 0.000000 0.000000 0.000000
# 3 -0.001080 -0.002205 0.006138 0.000000 0.000000 0.000000
# 4 0.000000 0.000000 0.000000 0.066476 0.000000 0.000000
# 5 0.000000 0.000000 0.000000 0.000000 0.050753 0.000000
# 6 0.000000 0.000000 0.000000 0.000000 0.000000 0.025486
#
#
# Mechanical properties :
#
#
# Convention : Reuss Voigt Hill
#
# Bulk Modulus (GPa) = 30.45324 48.24018 39.34671
# Shear Modulus (GPa) = 21.86250 31.06201 26.46225
#
# Velocity S-wave (km/s) = 3.27401 3.90251 3.60199
# Velocity P-wave (km/s) = 5.40586 6.63009 6.04903
#
# Compressibility (1/GPa) = 0.03283723
#
# Stress axis : x y z
#
# Youngs Moduli (GPa) = 85.20451 27.72795 162.92370
#
# Poissons Ratio (x) = 0.20146 0.17594
# Poissons Ratio (y) = 0.61906 0.35931
# Poissons Ratio (z) = 0.09201 0.06115
#
# Static dielectric constant tensor:
#      x y z
#    x 2.146910 0.000000 0.000000 
#    y 0.000000 1.700790 0.000000 
#    z 0.000000 0.000000 1.713130 
# 
# From -- ./inp_files/19767.got.cif
#   From: 2010.05.17/outbox.cif.g08.bks.cpg/sg72_10_cif.got.tgz:19767.got - 2010.06.03 17:03:01.
