data_PCOD9529021
_publ_section_title
;
Structure prediction by ZEFSAII (Michael W. Deem and Ramdas Pophale) SiO2 
 PCOD9529021
Probable space group: I B A M
;
_chemical_formula_sum "Si O2"
_cell_formula_units_Z 80
_cell_length_a 12.199545
_cell_length_b 23.180866
_cell_length_c 14.359446
_cell_angle_alpha 90.000000
_cell_angle_beta 90.000000
_cell_angle_gamma 90.000000
_cell_volume 4060.794148
_symmetry_space_group_name_H-M "I B A M"
_symmetry_group_IT_number 72
_symmetry_cell_setting 'orthorhombic'
loop_
_space_group_symop_operation_xyz
x,y,z
-x,-y,z
x,-y,1/2-z
-x,y,1/2-z
-x,-y,-z
x,y,-z
-x,y,1/2+z
x,-y,1/2+z
1/2+x,1/2+y,1/2+z
1/2-x,1/2-y,1/2+z
1/2+x,1/2-y,-z
1/2-x,1/2+y,-z
1/2-x,1/2-y,1/2-z
1/2+x,1/2+y,1/2-z
1/2-x,1/2+y,z
1/2+x,1/2-y,z
loop_
_atom_site_type_symbol
_atom_site_label
_atom_site_fract_x
_atom_site_fract_y
_atom_site_fract_z
Si Si1 0.031813 0.828370 0.149516
Si Si2 0.133062 0.594072 0.000000
Si Si3 0.839480 0.493082 0.644466
Si Si4 0.790186 0.795921 0.500000
Si Si5 0.404642 0.545054 0.612091
Si Si6 0.895457 0.604918 0.000000
Si Si7 0.340858 0.322806 0.500000
O O1 0.128332 0.798556 0.089271
O O2 0.073970 0.894031 0.160172
O O3 0.000000 0.803530 0.250000
O O4 0.921922 0.829796 0.087576
O O5 0.134307 0.550617 0.912696
O O6 0.243097 0.631103 0.000000
O O7 0.019105 0.629467 0.000000
O O8 0.875322 0.500000 0.750000
O O9 0.709366 0.482753 0.640525
O O10 0.885177 0.437872 0.588557
O O11 0.704052 0.849550 0.500000
O O12 0.716925 0.739086 0.500000
O O13 0.500000 0.500000 0.631367
O O14 0.402836 0.555915 0.500000
#
# Coordination Sequence:
#
# PCOD9529021 Si02
#       7
#    16   8  16   8  16   8   8
#     4  11  24  43  68  98 130 160 209 271 323 379
#     4  11  25  40  63  93 127 170 226 255 309 384
#     4  11  22  38  61  92 132 167 204 262 319 381
#     4  11  24  47  69  92 126 175 218 264 329 368
#     4  11  20  34  60  94 132 165 202 249 322 384
#     4  11  23  43  62  90 129 175 216 261 307 393
#     4  11  26  44  70  93 126 171 219 272 319 378
#
# _framework density 19.700579000000001
#
# number of rings (size 3 to 8) (size 9 to 14) (size 15 to 20)
#    0.000    1.000    6.000    2.400    8.400    2.400 
#    0.000    0.000    0.000    0.000    0.000    0.000 
#    0.000    0.000    0.000    0.000    0.000    0.000 
#
# Total GULP energy -223581.827501 kJ/mol
# GULP energy per Si atom -5589.545688 kJ/mol
# Density = 1.965574 g / cm^3
# Si number density = 19.700579 Si / 1000 Ang^3
#
#
#
# Elastic Constant Matrix: (Units=GPa)
#
#
# Indices 1 2 3 4 5 6 
#
# 1 178.9409 27.1361 36.0052 0.0000 0.0000 0.0000
# 2 27.1361 48.4351 9.3407 0.0002 0.0001 0.0000
# 3 36.0052 9.3407 139.6443 0.0002 0.0001 0.0000
# 4 0.0000 0.0002 0.0002 2.8726 0.0001 0.0000
# 5 0.0000 0.0001 0.0001 0.0001 56.9496 0.0000
# 6 0.0000 0.0000 0.0000 0.0000 0.0000 19.7358
#
#
#
# Elastic Compliance Matrix: (Units=1/GPa)
#
#
# Indices 1 2 3 4 5 6 
#
# 1 0.006375 -0.003297 -0.001423 0.000000 0.000000 0.000000
# 2 -0.003297 0.022621 -0.000663 -0.000001 0.000000 0.000000
# 3 -0.001423 -0.000663 0.007572 0.000000 0.000000 0.000000
# 4 0.000000 -0.000001 0.000000 0.348115 -0.000001 0.000000
# 5 0.000000 0.000000 0.000000 -0.000001 0.017559 0.000000
# 6 0.000000 0.000000 0.000000 0.000000 0.000000 0.050669
#
#
# Mechanical properties :
#
#
# Convention : Reuss Voigt Hill
#
# Bulk Modulus (GPa) = 38.75674 56.88713 47.82194
# Shear Modulus (GPa) = 10.58697 35.54751 23.06724
#
# Velocity S-wave (km/s) = 2.32069 4.25242 3.42554
# Velocity P-wave (km/s) = 5.18617 7.28350 6.32241
#
# Compressibility (1/GPa) = 0.02580196
#
# Stress axis : x y z
#
# Youngs Moduli (GPa) = 156.86820 44.20626 132.05988
#
# Poissons Ratio (x) = 0.14575 0.18793
# Poissons Ratio (y) = 0.51720 0.08756
# Poissons Ratio (z) = 0.22324 0.02931
#
# Static dielectric constant tensor:
#      x y z
#    x 1.702130 0.000000 0.000000 
#    y 0.000000 1.660400 0.000000 
#    z 0.000000 0.000000 1.708830 
# 
# From -- ./inp_files/20274.got.cif
#   From: 2010.05.17/outbox.cif.g08.bks.cpg/sg72_11_cif.got.tgz:20274.got - 2010.06.03 17:03:01.
