data_PCOD9529228
_publ_section_title
;
Structure prediction by ZEFSAII (Michael W. Deem and Ramdas Pophale) SiO2 
 PCOD9529228
Probable space group: I B A M
;
_chemical_formula_sum "Si O2"
_cell_formula_units_Z 68
_cell_length_a 21.852714
_cell_length_b 9.089226
_cell_length_c 16.285859
_cell_angle_alpha 90.000000
_cell_angle_beta 90.000000
_cell_angle_gamma 90.000000
_cell_volume 3234.766631
_symmetry_space_group_name_H-M "I B A M"
_symmetry_group_IT_number 72
_symmetry_cell_setting 'orthorhombic'
loop_
_space_group_symop_operation_xyz
x,y,z
-x,-y,z
x,-y,1/2-z
-x,y,1/2-z
-x,-y,-z
x,y,-z
-x,y,1/2+z
x,-y,1/2+z
1/2+x,1/2+y,1/2+z
1/2-x,1/2-y,1/2+z
1/2+x,1/2-y,-z
1/2-x,1/2+y,-z
1/2-x,1/2-y,1/2-z
1/2+x,1/2+y,1/2-z
1/2-x,1/2+y,z
1/2+x,1/2-y,z
loop_
_atom_site_type_symbol
_atom_site_label
_atom_site_fract_x
_atom_site_fract_y
_atom_site_fract_z
Si Si1 0.610565 0.348730 0.908709
Si Si2 0.779524 0.967177 0.658822
Si Si3 0.179743 0.338046 0.594042
Si Si4 0.568984 0.970020 0.399284
Si Si5 0.000000 0.000000 0.500000
O O1 0.658379 0.441690 0.857008
O O2 0.593869 0.189207 0.873438
O O3 0.639689 0.324936 0.000000
O O4 0.548221 0.436072 0.929835
O O5 0.727473 0.028321 0.598750
O O6 0.757186 0.000000 0.750000
O O7 0.793651 0.797413 0.644186
O O8 0.171440 0.287543 0.500000
O O9 0.115147 0.400767 0.624618
O O10 0.568294 0.966395 0.500000
O O11 0.500000 0.000000 0.372253
#
# Coordination Sequence:
#
# PCOD9529228 Si02
#       5
#    16  16  16  16   4
#     4   9  19  36  62  89 121 159 211 259 310 373
#     4  12  25  41  62  90 128 164 205 263 331 385
#     4  11  23  39  65  92 120 165 213 263 313 385
#     4   9  19  34  61  92 122 150 201 261 315 362
#     4   8  20  32  68  88 128 160 210 276 304 368
#
# _framework density 21.021609000000002
#
# number of rings (size 3 to 8) (size 9 to 14) (size 15 to 20)
#    0.706    1.176    0.000    4.235    3.294    1.882 
#    0.000    0.588    0.000    4.941    0.000    0.000 
#    0.000    0.000    0.000    0.000    0.000    0.000 
#
# Total GULP energy -189324.215483 kJ/mol
# GULP energy per Si atom -5568.359279 kJ/mol
# Density = 2.097376 g / cm^3
# Si number density = 21.021609 Si / 1000 Ang^3
#
#
#
# Elastic Constant Matrix: (Units=GPa)
#
#
# Indices 1 2 3 4 5 6 
#
# 1 87.7357 43.8298 -4.2871 0.0000 0.0000 0.0000
# 2 43.8298 82.1914 0.2870 0.0000 0.0000 0.0000
# 3 -4.2871 0.2870 28.6291 0.0000 0.0000 0.0000
# 4 0.0000 0.0000 0.0000 15.9526 0.0000 0.0000
# 5 0.0000 0.0000 0.0000 0.0000 -4.8172 0.0000
# 6 0.0000 0.0000 0.0000 0.0000 0.0000 29.8530
#
#
#
# Elastic Compliance Matrix: (Units=1/GPa)
#
#
# Indices 1 2 3 4 5 6 
#
# 1 0.015705 -0.008383 0.002436 0.000000 0.000000 0.000000
# 2 -0.008383 0.016642 -0.001422 0.000000 0.000000 0.000000
# 3 0.002436 -0.001422 0.035309 0.000000 0.000000 0.000000
# 4 0.000000 0.000000 0.000000 0.062686 0.000000 0.000000
# 5 0.000000 0.000000 0.000000 0.000000 -0.207588 0.000000
# 6 0.000000 0.000000 0.000000 0.000000 0.000000 0.033497
#
#
# Mechanical properties :
#
#
# Convention : Reuss Voigt Hill
#
# Bulk Modulus (GPa) = 18.89783 30.91284 24.90534
# Shear Modulus (GPa) = -439.71047 18.77945 -210.46551
#
# Velocity S-wave (km/s) = -14.47843 2.99212 -10.01679
# Velocity P-wave (km/s) = 16.44660 5.16471 11.04120
#
# Compressibility (1/GPa) = 0.05291613
#
# Stress axis : x y z
#
# Youngs Moduli (GPa) = 63.67410 60.08797 28.32176
#
# Poissons Ratio (x) = 0.50374 -0.06899
# Poissons Ratio (y) = 0.53381 0.04028
# Poissons Ratio (z) = -0.15510 0.08546
#
# Static dielectric constant tensor:
#      x y z
#    x 1.732660 0.000000 0.000000 
#    y 0.000000 1.755310 0.000000 
#    z 0.000000 0.000000 1.789270 
# 
# From -- ./inp_files/27788.got.cif
#   From: 2010.05.17/outbox.cif.g08.bks.cpg/sg72_14_cif.got.tgz:27788.got - 2010.06.03 17:03:01.
