data_PCOD9529314
_publ_section_title
;
Structure prediction by ZEFSAII (Michael W. Deem and Ramdas Pophale) SiO2 
 PCOD9529314
Probable space group: I B A M
;
_chemical_formula_sum "Si O2"
_cell_formula_units_Z 80
_cell_length_a 10.548122
_cell_length_b 19.033267
_cell_length_c 15.221729
_cell_angle_alpha 90.000000
_cell_angle_beta 90.000000
_cell_angle_gamma 90.000000
_cell_volume 3055.993808
_symmetry_space_group_name_H-M "I B A M"
_symmetry_group_IT_number 72
_symmetry_cell_setting 'orthorhombic'
loop_
_space_group_symop_operation_xyz
x,y,z
-x,-y,z
x,-y,1/2-z
-x,y,1/2-z
-x,-y,-z
x,y,-z
-x,y,1/2+z
x,-y,1/2+z
1/2+x,1/2+y,1/2+z
1/2-x,1/2-y,1/2+z
1/2+x,1/2-y,-z
1/2-x,1/2+y,-z
1/2-x,1/2-y,1/2-z
1/2+x,1/2+y,1/2-z
1/2-x,1/2+y,z
1/2+x,1/2-y,z
loop_
_atom_site_type_symbol
_atom_site_label
_atom_site_fract_x
_atom_site_fract_y
_atom_site_fract_z
Si Si1 0.425725 0.709694 0.598886
Si Si2 0.988100 0.414863 0.400394
Si Si3 0.232454 0.085443 0.107197
Si Si4 0.677108 0.731903 0.661264
Si Si5 0.708870 0.426056 0.607796
O O1 0.475574 0.701829 0.500000
O O2 0.531989 0.756069 0.648134
O O3 0.285994 0.744214 0.594200
O O4 0.390601 0.632395 0.635562
O O5 0.985929 0.385533 0.500000
O O6 0.849569 0.403119 0.361008
O O7 0.000000 0.500000 0.408109
O O8 0.123925 0.398490 0.360718
O O9 0.156239 0.149203 0.146634
O O10 0.189968 0.007114 0.132920
O O11 0.231943 0.086971 0.000000
O O12 0.750000 0.750000 0.750000
O O13 0.711510 0.425103 0.500000
#
# Coordination Sequence:
#
# PCOD9529314 Si02
#       5
#    16  16  16  16  16
#     4  11  24  44  70 100 133 180 239 293 349 419
#     4   7  11  23  49  90 130 160 200 268 345 399
#     4   9  17  34  64  98 132 176 229 284 344 411
#     4  12  27  45  63  94 142 189 229 280 352 425
#     4   8  16  32  61 102 136 161 218 300 352 395
#
# _framework density 26.178066000000001
#
# number of rings (size 3 to 8) (size 9 to 14) (size 15 to 20)
#    0.000    2.600    0.000    4.800    2.800    0.800 
#    0.000    4.000    0.000    2.400    0.000    0.000 
#    0.000    0.000    0.000    0.000    0.000    0.000 
#
# Total GULP energy -223438.718954 kJ/mol
# GULP energy per Si atom -5585.967974 kJ/mol
# Density = 2.611848 g / cm^3
# Si number density = 26.178066 Si / 1000 Ang^3
#
#
#
# Elastic Constant Matrix: (Units=GPa)
#
#
# Indices 1 2 3 4 5 6 
#
# 1 180.8150 49.2034 22.9049 0.0000 0.0000 0.0000
# 2 49.2034 136.2493 9.1649 0.0000 0.0000 0.0000
# 3 22.9049 9.1649 91.5282 0.0000 0.0000 0.0000
# 4 0.0000 0.0000 0.0000 -18.1831 0.0000 0.0000
# 5 0.0000 0.0000 0.0000 0.0000 19.8996 0.0000
# 6 0.0000 0.0000 0.0000 0.0000 0.0000 47.1577
#
#
#
# Elastic Compliance Matrix: (Units=1/GPa)
#
#
# Indices 1 2 3 4 5 6 
#
# 1 0.006296 -0.002182 -0.001357 0.000000 0.000000 0.000000
# 2 -0.002182 0.008146 -0.000269 0.000000 0.000000 0.000000
# 3 -0.001357 -0.000269 0.011292 0.000000 0.000000 0.000000
# 4 0.000000 0.000000 0.000000 -0.054996 0.000000 0.000000
# 5 0.000000 0.000000 0.000000 0.000000 0.050252 0.000000
# 6 0.000000 0.000000 0.000000 0.000000 0.000000 0.021205
#
#
# Mechanical properties :
#
#
# Convention : Reuss Voigt Hill
#
# Bulk Modulus (GPa) = 55.19947 63.45986 59.32966
# Shear Modulus (GPa) = 89.52077 31.59611 60.55844
#
# Velocity S-wave (km/s) = 5.85415 3.47791 4.81492
# Velocity P-wave (km/s) = 8.17476 6.35784 7.32287
#
# Compressibility (1/GPa) = 0.01811612
#
# Stress axis : x y z
#
# Youngs Moduli (GPa) = 158.82269 122.76312 88.55670
#
# Poissons Ratio (x) = 0.26793 0.12018
# Poissons Ratio (y) = 0.34663 0.02386
# Poissons Ratio (z) = 0.21554 0.03308
#
# Static dielectric constant tensor:
#      x y z
#    x 2.154260 0.000000 0.000000 
#    y 0.000000 2.116620 0.000000 
#    z 0.000000 0.000000 2.178920 
# 
# From -- ./inp_files/23257.got.cif
#   From: 2010.05.17/outbox.cif.g08.bks.cpg/sg72_12_cif.got.tgz:23257.got - 2010.06.03 17:03:01.
