data_PCOD9529174
_publ_section_title
;
Structure prediction by ZEFSAII (Michael W. Deem and Ramdas Pophale) SiO2 
 PCOD9529174
Probable space group: I B A M
;
_chemical_formula_sum "Si O2"
_cell_formula_units_Z 68
_cell_length_a 18.956181
_cell_length_b 4.873426
_cell_length_c 29.467520
_cell_angle_alpha 90.000000
_cell_angle_beta 90.000000
_cell_angle_gamma 90.000000
_cell_volume 2722.255035
_symmetry_space_group_name_H-M "I B A M"
_symmetry_group_IT_number 72
_symmetry_cell_setting 'orthorhombic'
loop_
_space_group_symop_operation_xyz
x,y,z
-x,-y,z
x,-y,1/2-z
-x,y,1/2-z
-x,-y,-z
x,y,-z
-x,y,1/2+z
x,-y,1/2+z
1/2+x,1/2+y,1/2+z
1/2-x,1/2-y,1/2+z
1/2+x,1/2-y,-z
1/2-x,1/2+y,-z
1/2-x,1/2-y,1/2-z
1/2+x,1/2+y,1/2-z
1/2-x,1/2+y,z
1/2+x,1/2-y,z
loop_
_atom_site_type_symbol
_atom_site_label
_atom_site_fract_x
_atom_site_fract_y
_atom_site_fract_z
Si Si1 0.704492 0.880699 0.363663
Si Si2 0.299425 0.231099 0.000000
Si Si3 0.500000 0.500000 0.648494
Si Si4 0.603719 0.755663 0.283179
Si Si5 0.500000 0.500000 0.000000
Si Si6 0.607477 0.485214 0.924775
O O1 0.775517 0.697928 0.367582
O O2 0.670260 0.821065 0.315015
O O3 0.654036 0.751200 0.401739
O O4 0.346053 0.315042 0.956473
O O5 0.270145 0.924475 0.000000
O O6 0.459525 0.297347 0.681847
O O7 0.561370 0.380771 0.615880
O O8 0.615821 0.500000 0.250000
O O9 0.587475 0.000000 0.250000
O O10 0.550669 0.367192 0.960239
#
# Coordination Sequence:
#
# PCOD9529174 Si02
#       6
#    16   8   8  16   4  16
#     4  11  23  40  64  93 128 167 211 265 326 391
#     4  11  22  39  66  97 132 169 212 262 316 385
#     4   9  21  41  65  92 128 170 217 269 325 387
#     4  11  24  42  64  91 124 165 215 270 326 387
#     4   8  16  36  66  94 130 172 218 268 320 384
#     4   9  19  38  65  95 130 171 216 265 323 386
#
# _framework density 24.979289999999999
#
# number of rings (size 3 to 8) (size 9 to 14) (size 15 to 20)
#    0.000    1.882    0.000    3.176    0.000    4.706 
#    0.000    7.059    0.000   57.882    0.000    0.000 
#    0.000    0.000    0.000    0.000    0.000    0.000 
#
# Total GULP energy -189992.944418 kJ/mol
# GULP energy per Si atom -5588.027777 kJ/mol
# Density = 2.492244 g / cm^3
# Si number density = 24.979290 Si / 1000 Ang^3
#
#
#
# Elastic Constant Matrix: (Units=GPa)
#
#
# Indices 1 2 3 4 5 6 
#
# 1 101.1823 0.9795 65.6637 0.0000 0.0000 0.0000
# 2 0.9795 61.7938 32.7777 0.0000 0.0000 0.0000
# 3 65.6637 32.7777 210.1375 0.0000 0.0000 0.0000
# 4 0.0000 0.0000 0.0000 20.8705 0.0000 0.0000
# 5 0.0000 0.0000 0.0000 0.0000 44.9345 0.0000
# 6 0.0000 0.0000 0.0000 0.0000 0.0000 13.3359
#
#
#
# Elastic Compliance Matrix: (Units=1/GPa)
#
#
# Indices 1 2 3 4 5 6 
#
# 1 0.012634 0.002065 -0.004270 0.000000 0.000000 0.000000
# 2 0.002065 0.017980 -0.003450 0.000000 0.000000 0.000000
# 3 -0.004270 -0.003450 0.006631 0.000000 0.000000 0.000000
# 4 0.000000 0.000000 0.000000 0.047915 0.000000 0.000000
# 5 0.000000 0.000000 0.000000 0.000000 0.022255 0.000000
# 6 0.000000 0.000000 0.000000 0.000000 0.000000 0.074986
#
#
# Mechanical properties :
#
#
# Convention : Reuss Voigt Hill
#
# Bulk Modulus (GPa) = 38.55745 63.55060 51.05403
# Shear Modulus (GPa) = 24.70902 34.07436 29.39169
#
# Velocity S-wave (km/s) = 3.14854 3.69739 3.43394
# Velocity P-wave (km/s) = 5.35602 6.61242 6.01710
#
# Compressibility (1/GPa) = 0.02593533
#
# Stress axis : x y z
#
# Youngs Moduli (GPa) = 79.15005 55.61737 150.80298
#
# Poissons Ratio (x) = -0.11483 0.64393
# Poissons Ratio (y) = -0.16342 0.52023
# Poissons Ratio (z) = 0.33797 0.19186
#
# Static dielectric constant tensor:
#      x y z
#    x 2.070260 0.000000 0.000000 
#    y 0.000000 1.910980 0.000000 
#    z 0.000000 0.000000 1.907550 
# 
# From -- ./inp_files/49295.got.cif
#   From: 2010.05.17/outbox.cif.g08.bks.cpg/sg72_25_cif.got.tgz:49295.got - 2010.06.03 17:03:01.
