data_PCOD9529740
_publ_section_title
;
Structure prediction by ZEFSAII (Michael W. Deem and Ramdas Pophale) SiO2 
 PCOD9529740
Probable space group: I B C A 
;
_chemical_formula_sum "Si O2"
_cell_formula_units_Z 128
_cell_length_a 17.432795
_cell_length_b 17.518555
_cell_length_c 22.576256
_cell_angle_alpha 90.000000
_cell_angle_beta 90.000000
_cell_angle_gamma 90.000000
_cell_volume 6894.729388
_symmetry_space_group_name_H-M "I B C A "
_symmetry_group_IT_number 73
_symmetry_cell_setting 'orthorhombic'
loop_
_space_group_symop_operation_xyz
x,y,z
-x,1/2-y,z
x,-y,1/2-z
1/2-x,y,-z
-x,-y,-z
x,1/2+y,-z
-x,y,1/2+z
1/2+x,-y,z
1/2+x,1/2+y,1/2+z
1/2-x,-y,1/2+z
1/2+x,1/2-y,-z
-x,1/2+y,1/2-z
1/2-x,1/2-y,1/2-z
1/2+x,y,1/2-z
1/2-x,1/2+y,z
x,1/2-y,1/2+z
loop_
_atom_site_type_symbol
_atom_site_label
_atom_site_fract_x
_atom_site_fract_y
_atom_site_fract_z
Si Si1 0.465465 0.877593 0.139419
Si Si2 0.868881 0.780997 0.269884
Si Si3 0.146664 0.293880 0.050609
Si Si4 0.552201 0.818502 0.330414
Si Si5 0.682706 0.707090 0.914678
Si Si6 0.796567 0.639938 0.662107
Si Si7 0.940390 0.461977 0.815401
Si Si8 0.142164 0.837175 0.369017
O O1 0.424470 0.840641 0.197177
O O2 0.422060 0.837405 0.084247
O O3 0.555643 0.860829 0.141965
O O4 0.457167 0.968011 0.141081
O O5 0.915657 0.722993 0.228263
O O6 0.808158 0.822572 0.227589
O O7 0.836845 0.730867 0.323049
O O8 0.229548 0.320737 0.076503
O O9 0.143530 0.204317 0.067979
O O10 0.147471 0.297935 0.980207
O O11 0.500000 0.750000 0.358461
O O12 0.625908 0.836654 0.370521
O O13 0.502022 0.893223 0.318230
O O14 0.685878 0.792624 0.885760
O O15 0.860856 0.575593 0.664446
O O16 0.712914 0.607836 0.644730
O O17 0.937754 0.500000 0.750000
#
# Coordination Sequence:
#
# PCOD9529740 Si02
#       8
#    16  16  16  16  16  16  16  16
#     4  11  22  36  56  85 123 159 187 238 307 360
#     4  10  17  34  57  83 114 149 191 239 291 345
#     4   9  19  38  63  86 115 151 191 257 297 339
#     4  11  19  34  59  86 111 153 197 246 284 342
#     4   9  19  37  64  90 108 143 209 245 289 347
#     4  10  20  35  57  83 113 150 194 248 290 345
#     4  12  22  38  55  82 129 161 188 238 309 359
#     4  10  20  34  57  87 112 148 201 240 290 352
#
# _framework density 18.564906000000001
#
# number of rings (size 3 to 8) (size 9 to 14) (size 15 to 20)
#    0.000    1.750    3.750    3.375    0.000    2.000 
#    2.250    1.250    0.000    1.500    0.000    0.000 
#    0.000    0.000    0.000    0.000    0.000    0.000 
#
# Total GULP energy -356554.584960 kJ/mol
# GULP energy per Si atom -5571.165390 kJ/mol
# Density = 1.852265 g / cm^3
# Si number density = 18.564906 Si / 1000 Ang^3
#
#
#
# Elastic Constant Matrix: (Units=GPa)
#
#
# Indices 1 2 3 4 5 6 
#
# 1 125.4097 41.1462 43.6291 0.0000 0.0000 0.0000
# 2 41.1462 72.3094 21.7016 0.0000 0.0000 0.0000
# 3 43.6291 21.7016 84.4355 0.0000 0.0000 0.0000
# 4 0.0000 0.0000 0.0000 7.8825 0.0000 0.0000
# 5 0.0000 0.0000 0.0000 0.0000 21.4146 0.0000
# 6 0.0000 0.0000 0.0000 0.0000 0.0000 21.1194
#
#
#
# Elastic Compliance Matrix: (Units=1/GPa)
#
#
# Indices 1 2 3 4 5 6 
#
# 1 0.011181 -0.005015 -0.004488 0.000000 0.000000 0.000000
# 2 -0.005015 0.017235 -0.001838 0.000000 0.000000 0.000000
# 3 -0.004488 -0.001838 0.014635 0.000000 0.000000 0.000000
# 4 0.000000 0.000000 0.000000 0.126864 0.000000 0.000000
# 5 0.000000 0.000000 0.000000 0.000000 0.046697 0.000000
# 6 0.000000 0.000000 0.000000 0.000000 0.000000 0.047350
#
#
# Mechanical properties :
#
#
# Convention : Reuss Voigt Hill
#
# Bulk Modulus (GPa) = 49.09848 55.01204 52.05526
# Shear Modulus (GPa) = 17.03958 21.79513 19.41736
#
# Velocity S-wave (km/s) = 3.03287 3.43008 3.23757
# Velocity P-wave (km/s) = 6.22646 6.73675 6.48663
#
# Compressibility (1/GPa) = 0.02036723
#
# Stress axis : x y z
#
# Youngs Moduli (GPa) = 89.43950 58.02164 68.32932
#
# Poissons Ratio (x) = 0.29099 0.30668
# Poissons Ratio (y) = 0.44855 0.12561
# Poissons Ratio (z) = 0.40143 0.10666
#
# Static dielectric constant tensor:
#      x y z
#    x 1.720110 0.000000 0.000000 
#    y 0.000000 1.650880 0.000000 
#    z 0.000000 0.000000 1.651390 
# 
# From -- ./inp_files/29936.got.cif
#   From: 2010.05.17/outbox.cif.g08.bks.cpg/sg73_15_cif.got.tgz:29936.got - 2010.06.03 17:35:07.
