data_PCOD9529472
_publ_section_title
;
Structure prediction by ZEFSAII (Michael W. Deem and Ramdas Pophale) SiO2 
 PCOD9529472
Probable space group: I B A M
;
_chemical_formula_sum "Si O2"
_cell_formula_units_Z 96
_cell_length_a 24.816746
_cell_length_b 7.027615
_cell_length_c 20.737814
_cell_angle_alpha 90.000000
_cell_angle_beta 90.000000
_cell_angle_gamma 90.000000
_cell_volume 3616.727362
_symmetry_space_group_name_H-M "I B A M"
_symmetry_group_IT_number 72
_symmetry_cell_setting 'orthorhombic'
loop_
_space_group_symop_operation_xyz
x,y,z
-x,-y,z
x,-y,1/2-z
-x,y,1/2-z
-x,-y,-z
x,y,-z
-x,y,1/2+z
x,-y,1/2+z
1/2+x,1/2+y,1/2+z
1/2-x,1/2-y,1/2+z
1/2+x,1/2-y,-z
1/2-x,1/2+y,-z
1/2-x,1/2-y,1/2-z
1/2+x,1/2+y,1/2-z
1/2-x,1/2+y,z
1/2+x,1/2-y,z
loop_
_atom_site_type_symbol
_atom_site_label
_atom_site_fract_x
_atom_site_fract_y
_atom_site_fract_z
Si Si1 0.488173 0.226914 0.074050
Si Si2 0.908302 0.317854 0.822931
Si Si3 0.566136 0.728506 0.690245
Si Si4 0.826053 0.860757 0.141755
Si Si5 0.297261 0.930673 0.500000
Si Si6 0.326632 0.630696 0.000000
Si Si7 0.798037 0.583982 0.357414
O O1 0.429814 0.243910 0.107365
O O2 0.528818 0.311066 0.128216
O O3 0.500000 0.000000 0.071263
O O4 0.492021 0.293862 0.000000
O O5 0.922133 0.543724 0.817986
O O6 0.944070 0.220450 0.767116
O O7 0.843209 0.308226 0.815562
O O8 0.621645 0.612181 0.683965
O O9 0.846185 0.919315 0.070463
O O10 0.815854 0.633990 0.140335
O O11 0.765481 0.927119 0.158977
O O12 0.233238 0.955582 0.500000
O O13 0.305815 0.838050 0.569620
O O14 0.324410 0.137755 0.500000
#
# Coordination Sequence:
#
# PCOD9529472 Si02
#       7
#    16  16  16  16   8   8  16
#     4   9  17  27  43  65  88 117 154 194 235 278
#     4   9  17  28  42  62  91 123 152 188 234 279
#     4   9  17  28  42  62  91 123 152 188 234 279
#     4   9  17  28  44  66  94 125 156 189 229 275
#     4   8  14  24  38  57  83 115 149 184 219 258
#     4   8  14  24  38  57  83 115 149 184 219 258
#     4   9  17  28  44  66  94 125 156 189 229 275
#
# _framework density 26.543334000000002
#
# number of rings (size 3 to 8) (size 9 to 14) (size 15 to 20)
#    0.000    3.167    0.000    0.500    2.333    2.667 
#    0.000    0.000    0.000    0.000    0.000    1.167 
#    0.000    4.000    0.000    0.000    0.000    0.000 
#
# Total GULP energy -267741.915293 kJ/mol
# GULP energy per Si atom -5577.956569 kJ/mol
# Density = 2.648292 g / cm^3
# Si number density = 26.543334 Si / 1000 Ang^3
#
#
#
# Elastic Constant Matrix: (Units=GPa)
#
#
# Indices 1 2 3 4 5 6 
#
# 1 125.2507 10.1510 70.9975 0.0000 0.0000 0.0000
# 2 10.1510 91.0427 15.0482 0.0000 0.0000 0.0000
# 3 70.9975 15.0482 175.1921 0.0000 0.0000 0.0000
# 4 0.0000 0.0000 0.0000 1.5833 0.0000 0.0000
# 5 0.0000 0.0000 0.0000 0.0000 37.2951 0.0000
# 6 0.0000 0.0000 0.0000 0.0000 0.0000 26.5891
#
#
#
# Elastic Compliance Matrix: (Units=1/GPa)
#
#
# Indices 1 2 3 4 5 6 
#
# 1 0.010385 -0.000469 -0.004168 0.000000 0.000000 0.000000
# 2 -0.000469 0.011163 -0.000769 0.000000 0.000000 0.000000
# 3 -0.004168 -0.000769 0.007463 0.000000 0.000000 0.000000
# 4 0.000000 0.000000 0.000000 0.631593 0.000000 0.000000
# 5 0.000000 0.000000 0.000000 0.000000 0.026813 0.000000
# 6 0.000000 0.000000 0.000000 0.000000 0.000000 0.037609
#
#
# Mechanical properties :
#
#
# Convention : Reuss Voigt Hill
#
# Bulk Modulus (GPa) = 54.94723 64.87546 59.91134
# Shear Modulus (GPa) = 6.73941 32.77942 19.75942
#
# Velocity S-wave (km/s) = 1.59516 3.51798 2.73137
# Velocity P-wave (km/s) = 4.91311 6.40281 5.70678
#
# Compressibility (1/GPa) = 0.01819928
#
# Stress axis : x y z
#
# Youngs Moduli (GPa) = 96.29557 89.57990 133.99012
#
# Poissons Ratio (x) = 0.04201 0.55849
# Poissons Ratio (y) = 0.04515 0.10302
# Poissons Ratio (z) = 0.40138 0.06887
#
# Static dielectric constant tensor:
#      x y z
#    x 2.063520 0.000000 0.000000 
#    y 0.000000 2.158500 0.000000 
#    z 0.000000 0.000000 2.112660 
# 
# From -- ./inp_files/39734.got.cif
#   From: 2010.05.17/outbox.cif.g08.bks.cpg/sg72_20_cif.got.tgz:39734.got - 2010.06.03 17:03:01.
