data_PCOD9529596
_publ_section_title
;
Structure prediction by ZEFSAII (Michael W. Deem and Ramdas Pophale) SiO2 
 PCOD9529596
Probable space group: I B A M
;
_chemical_formula_sum "Si O2"
_cell_formula_units_Z 50
_cell_length_a 15.000000
_cell_length_b 24.000000
_cell_length_c 15.000000
_cell_angle_alpha 90.000000
_cell_angle_beta 90.000000
_cell_angle_gamma 90.000000
_cell_volume 5400.000000
_symmetry_space_group_name_H-M "I B A M"
_symmetry_group_IT_number 72
_symmetry_cell_setting 'orthorhombic'
loop_
_space_group_symop_operation_xyz
x,y,z
-x,-y,z
x,-y,1/2-z
-x,y,1/2-z
-x,-y,-z
x,y,-z
-x,y,1/2+z
x,-y,1/2+z
1/2+x,1/2+y,1/2+z
1/2-x,1/2-y,1/2+z
1/2+x,1/2-y,-z
1/2-x,1/2+y,-z
1/2-x,1/2-y,1/2-z
1/2+x,1/2+y,1/2-z
1/2-x,1/2+y,z
1/2+x,1/2-y,z
loop_
_atom_site_type_symbol
_atom_site_label
_atom_site_fract_x
_atom_site_fract_y
_atom_site_fract_z
Si Si1 0.148554 0.778754 0.246585
Si Si2 0.007682 0.375444 0.646066
Si Si3 0.167873 0.087704 0.738447
Si Si4 0.496700 0.248424 0.397311
Si Si5 0.302391 0.069796 0.101194
Si Si6 0.000000 0.000000 0.250000
Si Si7 0.826906 0.561270 0.100592
O O1 0.250000 0.750000 0.250000
O O2 0.151301 0.845929 0.238867
O O3 0.086788 0.760182 0.161623
O O4 0.088771 0.765681 0.335553
O O5 0.992524 0.318082 0.595900
O O6 0.107153 0.397891 0.627794
O O7 0.000000 0.362283 0.750000
O O8 0.925025 0.416203 0.625137
O O9 0.219019 0.075736 0.832091
O O10 0.245677 0.077441 0.665337
O O11 0.079382 0.047894 0.724298
O O12 0.497661 0.271125 0.500000
O O13 0.329901 0.005307 0.102659
O O14 0.277594 0.085584 0.000000
O O15 0.806450 0.580054 0.000000
#
# Coordination Sequence:
#
# PCOD9529596 Si02
#       7
#    16  16  16  16  16   4  16
#     4  11  24  43  68  98 128 172 219 275 332 393
#     4  12  21  37  68  98 135 171 197 249 325 402
#     4  12  24  44  66  90 129 170 226 277 323 378
#     4  11  24  44  64  96 132 166 216 266 328 391
#     4  11  23  40  63  99 134 165 208 254 319 395
#     4  12  24  44  66  90 120 186 224 270 334 350
#     4  11  23  40  63  99 134 165 208 254 319 395
#
# _framework density 9.2592590000000001
#
# number of rings (size 3 to 8) (size 9 to 14) (size 15 to 20)
#    0.000    0.640    4.800    4.800    0.000    3.840 
#    0.000    1.600    0.000    0.000    0.000    0.000 
#    0.000    0.000    0.000    0.000    0.000    0.000 
#
# Total GULP energy -278481.628939 kJ/mol
# GULP energy per Si atom -5569.632579 kJ/mol
# Density = 0.923818 g / cm^3
# Si number density = 9.259259 Si / 1000 Ang^3
#
#
#
# Elastic Constant Matrix: (Units=GPa)
#
#
# Indices 1 2 3 4 5 6 
#
# 1 104.6681 8.4509 26.1423 0.0001 0.0000 0.0000
# 2 8.4509 85.5594 5.2988 0.0001 0.0000 0.0000
# 3 26.1423 5.2988 143.0452 0.0003 0.0000 0.0000
# 4 0.0001 0.0001 0.0003 20.2256 0.0000 0.0000
# 5 0.0000 0.0000 0.0000 0.0000 12.4637 0.0000
# 6 0.0000 0.0000 0.0000 0.0000 0.0000 41.7068
#
#
#
# Elastic Compliance Matrix: (Units=1/GPa)
#
#
# Indices 1 2 3 4 5 6 
#
# 1 0.010077 -0.000883 -0.001809 0.000000 0.000000 0.000000
# 2 -0.000883 0.011792 -0.000275 0.000000 0.000000 0.000000
# 3 -0.001809 -0.000275 0.007332 0.000000 0.000000 0.000000
# 4 0.000000 0.000000 0.000000 0.049442 0.000000 0.000000
# 5 0.000000 0.000000 0.000000 0.000000 0.080233 0.000000
# 6 0.000000 0.000000 0.000000 0.000000 0.000000 0.023977
#
#
# Mechanical properties :
#
#
# Convention : Reuss Voigt Hill
#
# Bulk Modulus (GPa) = 42.98200 45.89520 44.43860
# Shear Modulus (GPa) = 25.43967 34.43792 29.93879
#
# Velocity S-wave (km/s) = 3.71042 4.31704 4.02518
# Velocity P-wave (km/s) = 6.45112 7.04885 6.75660
#
# Compressibility (1/GPa) = 0.02326555
#
# Stress axis : x y z
#
# Youngs Moduli (GPa) = 99.23453 84.80265 136.39600
#
# Poissons Ratio (x) = 0.07491 0.24673
# Poissons Ratio (y) = 0.08766 0.03756
# Poissons Ratio (z) = 0.17951 0.02335
#
# Static dielectric constant tensor:
#      x y z
#    x 1.642310 0.000000 0.000000 
#    y 0.000000 1.665960 0.000000 
#    z 0.000000 0.000000 1.700130 
# 
# From -- ./inp_files/22046.got.cif
#   From: 2010.05.17/outbox.ucp.g08.bks.cvg/sg72_12_cif.got.tgz:22046.got - 2010.06.11 16:33:07.
