data_PCOD9529649
_publ_section_title
;
Structure prediction by ZEFSAII (Michael W. Deem and Ramdas Pophale) SiO2 
 PCOD9529649
Probable space group: I B C A 
;
_chemical_formula_sum "Si O2"
_cell_formula_units_Z 72
_cell_length_a 18.756178
_cell_length_b 18.631917
_cell_length_c 10.432578
_cell_angle_alpha 90.000000
_cell_angle_beta 90.000000
_cell_angle_gamma 90.000000
_cell_volume 3645.805762
_symmetry_space_group_name_H-M "I B C A "
_symmetry_group_IT_number 73
_symmetry_cell_setting 'orthorhombic'
loop_
_space_group_symop_operation_xyz
x,y,z
-x,1/2-y,z
x,-y,1/2-z
1/2-x,y,-z
-x,-y,-z
x,1/2+y,-z
-x,y,1/2+z
1/2+x,-y,z
1/2+x,1/2+y,1/2+z
1/2-x,-y,1/2+z
1/2+x,1/2-y,-z
-x,1/2+y,1/2-z
1/2-x,1/2-y,1/2-z
1/2+x,y,1/2-z
1/2-x,1/2+y,z
x,1/2-y,1/2+z
loop_
_atom_site_type_symbol
_atom_site_label
_atom_site_fract_x
_atom_site_fract_y
_atom_site_fract_z
Si Si1 0.250000 0.023942 0.000000
Si Si2 0.743165 0.138953 0.288930
Si Si3 0.630245 0.940653 0.645047
Si Si4 0.344569 0.259763 0.132480
Si Si5 0.927885 0.793977 0.377587
O O1 0.274881 0.075813 0.885478
O O2 0.178965 0.980413 0.960708
O O3 0.808833 0.108253 0.209055
O O4 0.682059 0.165714 0.194315
O O5 0.776424 0.207222 0.362181
O O6 0.570807 0.881205 0.610522
O O7 0.606454 0.000000 0.750000
O O8 0.400788 0.227963 0.235394
O O9 0.374598 0.268794 0.990706
O O10 0.000000 0.750000 0.399738
#
# Coordination Sequence:
#
# PCOD9529649 Si02
#       5
#     8  16  16  16  16
#     4  10  16  30  54  86 122 148 180 234 308 364
#     4   9  18  31  55  85 113 144 182 242 301 347
#     4   9  19  33  54  83 118 151 184 234 299 352
#     4  10  20  35  57  85 112 144 195 243 287 336
#     4  11  22  37  57  80 113 157 200 236 274 334
#
# _framework density 19.748721
#
# number of rings (size 3 to 8) (size 9 to 14) (size 15 to 20)
#    0.000    2.222    0.000    3.333    0.000    6.222 
#    0.000    0.000    0.000   40.000    0.000    0.000 
#    0.000    0.000    0.000    0.000    0.000    0.000 
#
# Total GULP energy -200618.189060 kJ/mol
# GULP energy per Si atom -5572.727474 kJ/mol
# Density = 1.970377 g / cm^3
# Si number density = 19.748721 Si / 1000 Ang^3
#
#
#
# Elastic Constant Matrix: (Units=GPa)
#
#
# Indices 1 2 3 4 5 6 
#
# 1 55.5730 42.8188 17.1669 0.0000 0.0000 0.0000
# 2 42.8188 115.9471 23.2894 0.0000 0.0000 0.0000
# 3 17.1669 23.2894 65.2326 0.0000 0.0000 0.0000
# 4 0.0000 0.0000 0.0000 16.2556 0.0000 0.0000
# 5 0.0000 0.0000 0.0000 0.0000 24.1848 0.0000
# 6 0.0000 0.0000 0.0000 0.0000 0.0000 37.3345
#
#
#
# Elastic Compliance Matrix: (Units=1/GPa)
#
#
# Indices 1 2 3 4 5 6 
#
# 1 0.025941 -0.008843 -0.003670 0.000000 0.000000 0.000000
# 2 -0.008843 0.012305 -0.002066 0.000000 0.000000 0.000000
# 3 -0.003670 -0.002066 0.017033 0.000000 0.000000 0.000000
# 4 0.000000 0.000000 0.000000 0.061517 0.000000 0.000000
# 5 0.000000 0.000000 0.000000 0.000000 0.041348 0.000000
# 6 0.000000 0.000000 0.000000 0.000000 0.000000 0.026785
#
#
# Mechanical properties :
#
#
# Convention : Reuss Voigt Hill
#
# Bulk Modulus (GPa) = 38.28151 44.81143 41.54647
# Shear Modulus (GPa) = 22.44213 25.78683 24.11448
#
# Velocity S-wave (km/s) = 3.37469 3.61743 3.49817
# Velocity P-wave (km/s) = 5.88312 6.33939 6.11551
#
# Compressibility (1/GPa) = 0.02612227
#
# Stress axis : x y z
#
# Youngs Moduli (GPa) = 38.54842 81.26583 58.70908
#
# Poissons Ratio (x) = 0.71863 0.21545
# Poissons Ratio (y) = 0.34088 0.12130
# Poissons Ratio (z) = 0.14146 0.16790
#
# Static dielectric constant tensor:
#      x y z
#    x 1.702910 0.000000 0.000000 
#    y 0.000000 1.785780 0.000000 
#    z 0.000000 0.000000 1.813220 
# 
# From -- ./inp_files/6029.got.cif
#   From: 2010.05.17/outbox.cif.g08.bks.cpg/sg73_4_cif.got.tgz:6029.got - 2010.06.03 17:35:07.
