data_PCOD9529508
_publ_section_title
;
Structure prediction by ZEFSAII (Michael W. Deem and Ramdas Pophale) SiO2 
 PCOD9529508
Probable space group: I B A M
;
_chemical_formula_sum "Si O2"
_cell_formula_units_Z 40
_cell_length_a 9.000000
_cell_length_b 27.000000
_cell_length_c 18.000000
_cell_angle_alpha 90.000000
_cell_angle_beta 90.000000
_cell_angle_gamma 90.000000
_cell_volume 4374.000000
_symmetry_space_group_name_H-M "I B A M"
_symmetry_group_IT_number 72
_symmetry_cell_setting 'orthorhombic'
loop_
_space_group_symop_operation_xyz
x,y,z
-x,-y,z
x,-y,1/2-z
-x,y,1/2-z
-x,-y,-z
x,y,-z
-x,y,1/2+z
x,-y,1/2+z
1/2+x,1/2+y,1/2+z
1/2-x,1/2-y,1/2+z
1/2+x,1/2-y,-z
1/2-x,1/2+y,-z
1/2-x,1/2-y,1/2-z
1/2+x,1/2+y,1/2-z
1/2-x,1/2+y,z
1/2+x,1/2-y,z
loop_
_atom_site_type_symbol
_atom_site_label
_atom_site_fract_x
_atom_site_fract_y
_atom_site_fract_z
Si Si1 0.938284 0.117360 0.664230
Si Si2 0.247911 0.911399 0.088924
Si Si3 0.265333 0.291359 0.590635
Si Si4 0.419754 0.812571 0.910323
Si Si5 0.824802 0.989067 0.164001
O O1 0.862337 0.167608 0.634538
O O2 0.000000 0.118618 0.750000
O O3 0.084512 0.106135 0.615230
O O4 0.823455 0.070687 0.653814
O O5 0.358211 0.866625 0.115171
O O6 0.263986 0.968159 0.119215
O O7 0.255432 0.913655 0.000000
O O8 0.283939 0.296948 0.500000
O O9 0.318988 0.235393 0.610616
O O10 0.091520 0.300960 0.608806
O O11 0.413298 0.814500 0.000000
O O12 0.793520 0.000000 0.250000
O O13 0.000000 0.000000 0.150620
#
# Coordination Sequence:
#
# PCOD9529508 Si02
#       5
#    16  16  16  16  16
#     4  11  20  34  56  83 117 155 188 238 283 340
#     4  10  19  33  59  86 110 146 197 240 281 341
#     4  10  20  36  59  83 116 154 191 235 291 346
#     4   9  19  37  58  85 116 148 189 244 292 337
#     4   9  16  33  54  77 112 150 181 232 289 327
#
# _framework density 9.1449470000000002
#
# number of rings (size 3 to 8) (size 9 to 14) (size 15 to 20)
#    0.000    2.200    4.000    1.800    0.000    7.600 
#    0.000    6.000    0.000    4.800    0.000    0.000 
#    0.000    0.000    0.000    0.000    0.000    0.000 
#
# Total GULP energy -222799.554152 kJ/mol
# GULP energy per Si atom -5569.988854 kJ/mol
# Density = 0.912413 g / cm^3
# Si number density = 9.144947 Si / 1000 Ang^3
#
#
#
# Elastic Constant Matrix: (Units=GPa)
#
#
# Indices 1 2 3 4 5 6 
#
# 1 69.2652 42.2638 19.8017 0.0000 0.0000 0.0000
# 2 42.2638 149.5221 45.1900 0.0000 0.0000 0.0000
# 3 19.8017 45.1900 41.2859 -0.0001 0.0000 0.0000
# 4 0.0000 0.0000 -0.0001 33.7264 0.0000 0.0000
# 5 0.0000 0.0000 0.0000 0.0000 14.0889 0.0000
# 6 0.0000 0.0000 0.0000 0.0000 0.0000 36.7917
#
#
#
# Elastic Compliance Matrix: (Units=1/GPa)
#
#
# Indices 1 2 3 4 5 6 
#
# 1 0.018008 -0.003706 -0.004581 0.000000 0.000000 0.000000
# 2 -0.003706 0.010757 -0.009997 0.000000 0.000000 0.000000
# 3 -0.004581 -0.009997 0.037360 0.000000 0.000000 0.000000
# 4 0.000000 0.000000 0.000000 0.029650 0.000000 0.000000
# 5 0.000000 0.000000 0.000000 0.000000 0.070978 0.000000
# 6 0.000000 0.000000 0.000000 0.000000 0.000000 0.027180
#
#
# Mechanical properties :
#
#
# Convention : Reuss Voigt Hill
#
# Bulk Modulus (GPa) = 33.83108 52.73156 43.28132
# Shear Modulus (GPa) = 20.80280 27.10925 23.95602
#
# Velocity S-wave (km/s) = 3.37618 3.85411 3.62304
# Velocity P-wave (km/s) = 5.80822 6.97848 6.42007
#
# Compressibility (1/GPa) = 0.02955862
#
# Stress axis : x y z
#
# Youngs Moduli (GPa) = 55.53095 92.96588 26.76636
#
# Poissons Ratio (x) = 0.34449 0.12262
# Poissons Ratio (y) = 0.20578 0.26757
# Poissons Ratio (z) = 0.25439 0.92933
#
# Static dielectric constant tensor:
#      x y z
#    x 1.627080 0.000000 0.000000 
#    y 0.000000 1.672440 0.000000 
#    z 0.000000 0.000000 1.627170 
# 
# From -- ./inp_files/28137.got.cif
#   From: 2010.05.17/outbox.ucp.g08.bks.cvg/sg72_15_cif.got.tgz:28137.got - 2010.06.11 16:33:07.
