data_PCOD9529668
_publ_section_title
;
Structure prediction by ZEFSAII (Michael W. Deem and Ramdas Pophale) SiO2 
 PCOD9529668
Probable space group: I B C A 
;
_chemical_formula_sum "Si O2"
_cell_formula_units_Z 80
_cell_length_a 33.292064
_cell_length_b 26.035498
_cell_length_c 5.548253
_cell_angle_alpha 90.000000
_cell_angle_beta 90.000000
_cell_angle_gamma 90.000000
_cell_volume 4809.089578
_symmetry_space_group_name_H-M "I B C A "
_symmetry_group_IT_number 73
_symmetry_cell_setting 'orthorhombic'
loop_
_space_group_symop_operation_xyz
x,y,z
-x,1/2-y,z
x,-y,1/2-z
1/2-x,y,-z
-x,-y,-z
x,1/2+y,-z
-x,y,1/2+z
1/2+x,-y,z
1/2+x,1/2+y,1/2+z
1/2-x,-y,1/2+z
1/2+x,1/2-y,-z
-x,1/2+y,1/2-z
1/2-x,1/2-y,1/2-z
1/2+x,y,1/2-z
1/2-x,1/2+y,z
x,1/2-y,1/2+z
loop_
_atom_site_type_symbol
_atom_site_label
_atom_site_fract_x
_atom_site_fract_y
_atom_site_fract_z
Si Si1 0.315491 0.145841 0.645440
Si Si2 0.016448 0.308774 0.809682
Si Si3 0.290824 0.047148 0.383345
Si Si4 0.750000 0.281353 0.500000
Si Si5 0.890362 0.717445 0.193097
Si Si6 0.250000 0.621233 0.000000
O O1 0.314607 0.086103 0.560175
O O2 0.289176 0.182257 0.471635
O O3 0.358148 0.171587 0.683882
O O4 0.286821 0.150067 0.877883
O O5 0.064361 0.304310 0.808935
O O6 0.000000 0.250000 0.809951
O O7 0.999917 0.332183 0.559872
O O8 0.250000 0.024348 0.500000
O O9 0.312623 0.000000 0.250000
O O10 0.271786 0.085725 0.192699
O O11 0.750000 0.250000 0.750000
O O12 0.885398 0.749023 0.445547
#
# Coordination Sequence:
#
# PCOD9529668 Si02
#       6
#    16  16  16   8  16   8
#     4  11  24  34  50  75 103 142 181 225 257 320
#     4  10  16  33  53  75  99 135 176 225 257 306
#     4  10  19  34  57  74  91 129 182 234 282 312
#     4  12  23  35  48  64 102 148 181 201 242 298
#     4  12  23  35  53  78 110 147 183 214 264 313
#     4  10  19  37  52  68 102 130 177 223 266 306
#
# _framework density 16.635166000000002
#
# number of rings (size 3 to 8) (size 9 to 14) (size 15 to 20)
#    0.000    1.200    8.000    1.800    2.800    0.000 
#    0.000    0.000    0.000    0.000    0.000    0.000 
#    0.000    1.600    0.000    0.000    0.000    0.000 
#
# Total GULP energy -222670.154931 kJ/mol
# GULP energy per Si atom -5566.753873 kJ/mol
# Density = 1.659730 g / cm^3
# Si number density = 16.635166 Si / 1000 Ang^3
#
#
#
# Elastic Constant Matrix: (Units=GPa)
#
#
# Indices 1 2 3 4 5 6 
#
# 1 135.2834 47.4206 32.0857 0.0000 0.0000 0.0000
# 2 47.4206 69.6587 35.1961 0.0000 0.0000 0.0000
# 3 32.0857 35.1961 123.5918 0.0000 0.0000 0.0000
# 4 0.0000 0.0000 0.0000 2.8827 0.0000 0.0000
# 5 0.0000 0.0000 0.0000 0.0000 20.7664 0.0000
# 6 0.0000 0.0000 0.0000 0.0000 0.0000 19.1859
#
#
#
# Elastic Compliance Matrix: (Units=1/GPa)
#
#
# Indices 1 2 3 4 5 6 
#
# 1 0.009768 -0.006270 -0.000750 0.000000 0.000000 0.000000
# 2 -0.006270 0.020794 -0.004294 0.000000 0.000000 0.000000
# 3 -0.000750 -0.004294 0.009509 0.000000 0.000000 0.000000
# 4 0.000000 0.000000 0.000000 0.346902 0.000000 0.000000
# 5 0.000000 0.000000 0.000000 0.000000 0.048155 0.000000
# 6 0.000000 0.000000 0.000000 0.000000 0.000000 0.052122
#
#
# Mechanical properties :
#
#
# Convention : Reuss Voigt Hill
#
# Bulk Modulus (GPa) = 57.33415 61.99321 59.66368
# Shear Modulus (GPa) = 9.69572 22.82242 16.25907
#
# Velocity S-wave (km/s) = 2.41684 3.70799 3.12972
# Velocity P-wave (km/s) = 6.50604 7.46187 7.00029
#
# Compressibility (1/GPa) = 0.01744161
#
# Stress axis : x y z
#
# Youngs Moduli (GPa) = 102.37750 48.09118 105.16742
#
# Poissons Ratio (x) = 0.30155 0.07889
# Poissons Ratio (y) = 0.64195 0.45156
# Poissons Ratio (z) = 0.07680 0.20649
#
# Static dielectric constant tensor:
#      x y z
#    x 1.548550 0.000000 0.000000 
#    y 0.000000 1.684260 0.000000 
#    z 0.000000 0.000000 1.745220 
# 
# From -- ./inp_files/2228.got.cif
#   From: 2010.05.17/outbox.cif.g08.bks.cpg/sg73_2_cif.got.tgz:2228.got - 2010.06.03 17:35:07.
