data_PCOD9529306
_publ_section_title
;
Structure prediction by ZEFSAII (Michael W. Deem and Ramdas Pophale) SiO2 
 PCOD9529306
Probable space group: I B A M
;
_chemical_formula_sum "Si O2"
_cell_formula_units_Z 80
_cell_length_a 28.783669
_cell_length_b 7.734988
_cell_length_c 17.145441
_cell_angle_alpha 90.000000
_cell_angle_beta 90.000000
_cell_angle_gamma 90.000000
_cell_volume 3817.283862
_symmetry_space_group_name_H-M "I B A M"
_symmetry_group_IT_number 72
_symmetry_cell_setting 'orthorhombic'
loop_
_space_group_symop_operation_xyz
x,y,z
-x,-y,z
x,-y,1/2-z
-x,y,1/2-z
-x,-y,-z
x,y,-z
-x,y,1/2+z
x,-y,1/2+z
1/2+x,1/2+y,1/2+z
1/2-x,1/2-y,1/2+z
1/2+x,1/2-y,-z
1/2-x,1/2+y,-z
1/2-x,1/2-y,1/2-z
1/2+x,1/2+y,1/2-z
1/2-x,1/2+y,z
1/2+x,1/2-y,z
loop_
_atom_site_type_symbol
_atom_site_label
_atom_site_fract_x
_atom_site_fract_y
_atom_site_fract_z
Si Si1 0.889804 0.232617 0.321820
Si Si2 0.945901 0.478238 0.089648
Si Si3 0.897200 0.143394 0.139566
Si Si4 0.204078 0.250852 0.588808
Si Si5 0.707078 0.898793 0.667724
O O1 0.915349 0.401587 0.354005
O O2 0.897138 0.201575 0.230103
O O3 0.834668 0.261802 0.333105
O O4 0.908087 0.059594 0.363801
O O5 0.930437 0.279281 0.097595
O O6 0.000000 0.500000 0.108771
O O7 0.938389 0.533090 0.000000
O O8 0.845211 0.166181 0.107264
O O9 0.218085 0.215400 0.500000
O O10 0.243777 0.185656 0.647521
O O11 0.197900 0.454559 0.603260
O O12 0.706588 0.000000 0.750000
#
# Coordination Sequence:
#
# PCOD9529306 Si02
#       5
#    16  16  16  16  16
#     4  11  24  43  70  99 133 177 226 282 346 405
#     4  11  25  46  71  99 136 179 224 283 349 415
#     4  11  24  43  68 100 134 173 226 285 339 409
#     4  12  25  39  61  95 136 178 229 283 337 401
#     4  12  23  41  66  94 137 188 229 282 338 412
#
# _framework density 20.95731
#
# number of rings (size 3 to 8) (size 9 to 14) (size 15 to 20)
#    0.000    0.600    4.000    3.600    2.800    4.800 
#    0.000    4.000    0.000    0.000    0.000    0.000 
#    0.000    0.000    0.000    0.000    0.000    0.000 
#
# Total GULP energy -223810.196637 kJ/mol
# GULP energy per Si atom -5595.254916 kJ/mol
# Density = 2.090961 g / cm^3
# Si number density = 20.957310 Si / 1000 Ang^3
#
#
#
# Elastic Constant Matrix: (Units=GPa)
#
#
# Indices 1 2 3 4 5 6 
#
# 1 86.9174 21.3811 28.4871 0.0000 0.0000 0.0000
# 2 21.3811 104.9017 20.2333 0.0000 0.0000 0.0000
# 3 28.4871 20.2333 58.2722 0.0000 0.0000 0.0000
# 4 0.0000 0.0000 0.0000 12.8193 0.0000 0.0000
# 5 0.0000 0.0000 0.0000 0.0000 23.8019 0.0000
# 6 0.0000 0.0000 0.0000 0.0000 0.0000 19.9425
#
#
#
# Elastic Compliance Matrix: (Units=1/GPa)
#
#
# Indices 1 2 3 4 5 6 
#
# 1 0.013958 -0.001639 -0.006255 0.000000 0.000000 0.000000
# 2 -0.001639 0.010409 -0.002813 0.000000 0.000000 0.000000
# 3 -0.006255 -0.002813 0.021195 0.000000 0.000000 0.000000
# 4 0.000000 0.000000 0.000000 0.078007 0.000000 0.000000
# 5 0.000000 0.000000 0.000000 0.000000 0.042013 0.000000
# 6 0.000000 0.000000 0.000000 0.000000 0.000000 0.050144
#
#
# Mechanical properties :
#
#
# Convention : Reuss Voigt Hill
#
# Bulk Modulus (GPa) = 41.40825 43.36602 42.38713
# Shear Modulus (GPa) = 20.39230 23.31209 21.85220
#
# Velocity S-wave (km/s) = 3.12274 3.33883 3.23259
# Velocity P-wave (km/s) = 5.72742 5.96667 5.84827
#
# Compressibility (1/GPa) = 0.02414978
#
# Stress axis : x y z
#
# Youngs Moduli (GPa) = 71.64232 96.06763 47.18012
#
# Poissons Ratio (x) = 0.15741 0.29510
# Poissons Ratio (y) = 0.11739 0.13273
# Poissons Ratio (z) = 0.44810 0.27027
#
# Static dielectric constant tensor:
#      x y z
#    x 1.732930 0.000000 0.000000 
#    y 0.000000 1.763850 0.000000 
#    z 0.000000 0.000000 1.743360 
# 
# From -- ./inp_files/34191.got.cif
#   From: 2010.05.17/outbox.cif.g08.bks.cpg/sg72_18_cif.got.tgz:34191.got - 2010.06.03 17:03:01.
