data_PCOD9529843
_publ_section_title
;
Structure prediction by ZEFSAII (Michael W. Deem and Ramdas Pophale) SiO2 
 PCOD9529843
Probable space group: I B C A 
;
_chemical_formula_sum "Si O2"
_cell_formula_units_Z 72
_cell_length_a 23.517129
_cell_length_b 5.591533
_cell_length_c 20.946002
_cell_angle_alpha 90.000000
_cell_angle_beta 90.000000
_cell_angle_gamma 90.000000
_cell_volume 2754.332296
_symmetry_space_group_name_H-M "I B C A "
_symmetry_group_IT_number 73
_symmetry_cell_setting 'orthorhombic'
loop_
_space_group_symop_operation_xyz
x,y,z
-x,1/2-y,z
x,-y,1/2-z
1/2-x,y,-z
-x,-y,-z
x,1/2+y,-z
-x,y,1/2+z
1/2+x,-y,z
1/2+x,1/2+y,1/2+z
1/2-x,-y,1/2+z
1/2+x,1/2-y,-z
-x,1/2+y,1/2-z
1/2-x,1/2-y,1/2-z
1/2+x,y,1/2-z
1/2-x,1/2+y,z
x,1/2-y,1/2+z
loop_
_atom_site_type_symbol
_atom_site_label
_atom_site_fract_x
_atom_site_fract_y
_atom_site_fract_z
Si Si1 0.228120 0.295265 0.678404
Si Si2 0.946736 0.366501 0.560487
Si Si3 0.162390 0.120922 0.477184
Si Si4 0.611367 0.982115 0.348592
Si Si5 0.000000 0.750000 0.654902
O O1 0.250000 0.250000 0.750000
O O2 0.260307 0.529973 0.648971
O O3 0.162317 0.373250 0.684502
O O4 0.897232 0.434169 0.513154
O O5 0.000000 0.250000 0.524477
O O6 0.971782 0.560067 0.607872
O O7 0.920329 0.175428 0.608540
O O8 0.188957 0.353908 0.512182
O O9 0.145801 0.169547 0.403152
O O10 0.558557 0.851137 0.312716
#
# Coordination Sequence:
#
# PCOD9529843 Si02
#       5
#    16  16  16  16   8
#     4  10  24  46  73  98 112 162 232 298 336 392
#     4   9  19  30  49  87 135 186 218 254 317 406
#     4  10  19  30  48  81 131 178 214 254 307 399
#     4  10  21  34  60  93 135 166 226 276 333 393
#     4  10  18  32  54  98 136 182 206 270 330 410
#
# _framework density 26.140637000000002
#
# number of rings (size 3 to 8) (size 9 to 14) (size 15 to 20)
#    0.000    2.222    2.222    0.000    4.667    2.667 
#    0.000    0.000    0.000   16.000   34.667    0.000 
#    0.000    0.000    0.000    0.000    0.000    0.000 
#
# Total GULP energy -200720.442213 kJ/mol
# GULP energy per Si atom -5575.567839 kJ/mol
# Density = 2.608114 g / cm^3
# Si number density = 26.140637 Si / 1000 Ang^3
#
#
#
# Elastic Constant Matrix: (Units=GPa)
#
#
# Indices 1 2 3 4 5 6 
#
# 1 212.8968 52.0182 28.8840 0.0000 0.0000 0.0000
# 2 52.0182 174.7470 11.6362 0.0000 0.0000 0.0000
# 3 28.8840 11.6362 35.6639 0.0000 0.0000 0.0000
# 4 0.0000 0.0000 0.0000 33.5492 0.0000 0.0000
# 5 0.0000 0.0000 0.0000 0.0000 39.6559 0.0000
# 6 0.0000 0.0000 0.0000 0.0000 0.0000 38.5609
#
#
#
# Elastic Compliance Matrix: (Units=1/GPa)
#
#
# Indices 1 2 3 4 5 6 
#
# 1 0.005590 -0.001393 -0.004073 0.000000 0.000000 0.000000
# 2 -0.001393 0.006197 -0.000894 0.000000 0.000000 0.000000
# 3 -0.004073 -0.000894 0.031630 0.000000 0.000000 0.000000
# 4 0.000000 0.000000 0.000000 0.029807 0.000000 0.000000
# 5 0.000000 0.000000 0.000000 0.000000 0.025217 0.000000
# 6 0.000000 0.000000 0.000000 0.000000 0.000000 0.025933
#
#
# Mechanical properties :
#
#
# Convention : Reuss Voigt Hill
#
# Bulk Modulus (GPa) = 32.57590 67.59826 50.08708
# Shear Modulus (GPa) = 33.93861 44.40448 39.17155
#
# Velocity S-wave (km/s) = 3.60711 4.12597 3.87524
# Velocity P-wave (km/s) = 5.46234 6.97236 6.26303
#
# Compressibility (1/GPa) = 0.03069754
#
# Stress axis : x y z
#
# Youngs Moduli (GPa) = 178.89102 161.37667 31.61577
#
# Poissons Ratio (x) = 0.22477 0.12877
# Poissons Ratio (y) = 0.24916 0.02826
# Poissons Ratio (z) = 0.72860 0.14424
#
# Static dielectric constant tensor:
#      x y z
#    x 2.105750 0.000000 0.000000 
#    y 0.000000 2.066450 0.000000 
#    z 0.000000 0.000000 2.674520 
# 
# From -- ./inp_files/30426.got.cif
#   From: 2010.05.17/outbox.cif.g08.bks.cpg/sg73_16_cif.got.tgz:30426.got - 2010.06.03 17:35:07.
