data_PCOD9529280
_publ_section_title
;
Structure prediction by ZEFSAII (Michael W. Deem and Ramdas Pophale) SiO2 
 PCOD9529280
Probable space group: I B A M
;
_chemical_formula_sum "Si O2"
_cell_formula_units_Z 64
_cell_length_a 13.844308
_cell_length_b 27.006607
_cell_length_c 9.746678
_cell_angle_alpha 90.000000
_cell_angle_beta 90.000000
_cell_angle_gamma 90.000000
_cell_volume 3644.163852
_symmetry_space_group_name_H-M "I B A M"
_symmetry_group_IT_number 72
_symmetry_cell_setting 'orthorhombic'
loop_
_space_group_symop_operation_xyz
x,y,z
-x,-y,z
x,-y,1/2-z
-x,y,1/2-z
-x,-y,-z
x,y,-z
-x,y,1/2+z
x,-y,1/2+z
1/2+x,1/2+y,1/2+z
1/2-x,1/2-y,1/2+z
1/2+x,1/2-y,-z
1/2-x,1/2+y,-z
1/2-x,1/2-y,1/2-z
1/2+x,1/2+y,1/2-z
1/2-x,1/2+y,z
1/2+x,1/2-y,z
loop_
_atom_site_type_symbol
_atom_site_label
_atom_site_fract_x
_atom_site_fract_y
_atom_site_fract_z
Si Si1 0.223558 0.715474 0.500000
Si Si2 0.500000 0.295557 0.750000
Si Si3 0.006519 0.725108 0.000000
Si Si4 0.099793 0.953152 0.164194
Si Si5 0.193591 0.328032 0.500000
Si Si6 0.192662 0.148070 0.258804
O O1 0.260516 0.772153 0.500000
O O2 0.263416 0.686043 0.631167
O O3 0.107252 0.714387 0.500000
O O4 0.530092 0.259485 0.628807
O O5 0.408948 0.328591 0.708063
O O6 0.078783 0.679173 0.000000
O O7 0.165869 0.904769 0.177892
O O8 0.000000 0.943393 0.250000
O O9 0.140875 0.000000 0.250000
O O10 0.084250 0.962476 0.000000
O O11 0.234012 0.354824 0.633571
#
# Coordination Sequence:
#
# PCOD9529280 Si02
#       6
#     8   8   8  16   8  16
#     4  12  22  40  55  85 119 163 207 247 290 357
#     4  12  20  34  57  82 120 164 191 242 284 354
#     4  12  24  36  56  80 122 160 208 244 286 332
#     4  11  24  40  63  91 122 155 197 249 301 362
#     4  12  24  36  57  87 117 165 201 247 288 355
#     4  12  23  37  60  87 122 162 204 234 301 363
#
# _framework density 17.562327
#
# number of rings (size 3 to 8) (size 9 to 14) (size 15 to 20)
#    0.000    0.250    7.500    3.750    3.500    0.000 
#    0.000    0.000    0.000    0.000    0.000    5.250 
#    0.000    0.000    0.000    0.000    0.000    0.000 
#
# Total GULP energy -178720.623391 kJ/mol
# GULP energy per Si atom -5585.019481 kJ/mol
# Density = 1.752235 g / cm^3
# Si number density = 17.562327 Si / 1000 Ang^3
#
#
#
# Elastic Constant Matrix: (Units=GPa)
#
#
# Indices 1 2 3 4 5 6 
#
# 1 89.1604 16.5604 -1.2589 -0.0113 -0.0001 0.0000
# 2 16.5604 75.7195 22.7886 -0.0978 0.0000 0.0000
# 3 -1.2589 22.7886 120.5520 1.4080 -0.0001 0.0002
# 4 -0.0113 -0.0978 1.4080 8901.7445 0.1913 -0.2172
# 5 -0.0001 0.0000 -0.0001 0.1913 12.4098 0.0000
# 6 0.0000 0.0000 0.0002 -0.2172 0.0000 25.8179
#
#
#
# Elastic Compliance Matrix: (Units=1/GPa)
#
#
# Indices 1 2 3 4 5 6 
#
# 1 0.011738 -0.002761 0.000645 0.000000 0.000000 0.000000
# 2 -0.002761 0.014653 -0.002799 0.000001 0.000000 0.000000
# 3 0.000645 -0.002799 0.008831 -0.000001 0.000000 0.000000
# 4 0.000000 0.000001 -0.000001 0.000112 -0.000002 0.000001
# 5 0.000000 0.000000 0.000000 -0.000002 0.080582 0.000000
# 6 0.000000 0.000000 0.000000 0.000001 0.000000 0.038733
#
#
# Mechanical properties :
#
#
# Convention : Reuss Voigt Hill
#
# Bulk Modulus (GPa) = 39.38426 40.17913 39.78169
# Shear Modulus (GPa) = 28.91131 1804.48389 916.69760
#
# Velocity S-wave (km/s) = 4.06176 32.08901 22.87141
# Velocity P-wave (km/s) = 6.66868 37.36131 26.83597
#
# Compressibility (1/GPa) = 0.02539085
#
# Stress axis : x y z
#
# Youngs Moduli (GPa) = 85.19567 68.24629 113.23773
#
# Poissons Ratio (x) = 0.18843 -0.07298
# Poissons Ratio (y) = 0.23523 0.31692
# Poissons Ratio (z) = -0.05491 0.19100
#
# Static dielectric constant tensor:
#      x y z
#    x 1.603040 0.000000 0.000000 
#    y 0.000000 1.590610 0.000000 
#    z 0.000000 0.000000 1.631800 
# 
# From -- ./inp_files/2690.got.cif
#   From: 2010.05.17/outbox.cif.g08.bks.cpg/sg72_2_cif.got.tgz:2690.got - 2010.06.03 17:03:01.
