data_PCOD9529273
_publ_section_title
;
Structure prediction by ZEFSAII (Michael W. Deem and Ramdas Pophale) SiO2 
 PCOD9529273
Probable space group: I B A M
;
_chemical_formula_sum "Si O2"
_cell_formula_units_Z 112
_cell_length_a 15.762283
_cell_length_b 14.116546
_cell_length_c 26.973673
_cell_angle_alpha 90.000000
_cell_angle_beta 90.000000
_cell_angle_gamma 90.000000
_cell_volume 6001.884818
_symmetry_space_group_name_H-M "I B A M"
_symmetry_group_IT_number 72
_symmetry_cell_setting 'orthorhombic'
loop_
_space_group_symop_operation_xyz
x,y,z
-x,-y,z
x,-y,1/2-z
-x,y,1/2-z
-x,-y,-z
x,y,-z
-x,y,1/2+z
x,-y,1/2+z
1/2+x,1/2+y,1/2+z
1/2-x,1/2-y,1/2+z
1/2+x,1/2-y,-z
1/2-x,1/2+y,-z
1/2-x,1/2-y,1/2-z
1/2+x,1/2+y,1/2-z
1/2-x,1/2+y,z
1/2+x,1/2-y,z
loop_
_atom_site_type_symbol
_atom_site_label
_atom_site_fract_x
_atom_site_fract_y
_atom_site_fract_z
Si Si1 0.861579 0.995056 0.444131
Si Si2 0.584746 0.044666 0.805718
Si Si3 0.497136 0.335278 0.556820
Si Si4 0.325902 0.724903 0.313970
Si Si5 0.669741 0.358216 0.796730
Si Si6 0.479613 0.755594 0.839786
Si Si7 0.766410 0.029884 0.150712
O O1 0.828935 0.986836 0.500000
O O2 0.790482 0.006901 0.403106
O O3 0.919901 0.901796 0.434337
O O4 0.922108 0.086819 0.441524
O O5 0.566836 0.156094 0.812609
O O6 0.668975 0.022511 0.835090
O O7 0.500000 0.000000 0.827621
O O8 0.593379 0.000000 0.750000
O O9 0.501471 0.298504 0.500000
O O10 0.482640 0.258909 0.600426
O O11 0.327332 0.678675 0.259245
O O12 0.253663 0.805139 0.318721
O O13 0.421922 0.756827 0.324100
O O14 0.295926 0.638112 0.347545
O O15 0.579553 0.329775 0.820324
O O16 0.683837 0.467848 0.808567
#
# Coordination Sequence:
#
# PCOD9529273 Si02
#       7
#    16  16  16  16  16  16  16
#     4   9  18  35  61  93 127 162 200 255 331 399
#     4  11  26  42  63  85 124 180 220 237 299 395
#     4   9  18  36  61  92 127 162 203 258 327 389
#     4  11  24  38  58  88 128 165 211 260 316 376
#     4  11  24  37  58  88 126 167 203 261 316 379
#     4  12  22  39  63  92 123 162 214 268 308 379
#     4  12  21  40  62  90 128 161 209 269 320 374
#
# _framework density 18.660805
#
# number of rings (size 3 to 8) (size 9 to 14) (size 15 to 20)
#    0.000    1.286    4.286    3.429    6.000    0.571 
#    0.000    2.143    0.000    6.000    0.000    0.000 
#    0.000    0.000    0.000    0.000    0.000    0.000 
#
# Total GULP energy -312212.280549 kJ/mol
# GULP energy per Si atom -5575.219296 kJ/mol
# Density = 1.861833 g / cm^3
# Si number density = 18.660805 Si / 1000 Ang^3
#
#
#
# Elastic Constant Matrix: (Units=GPa)
#
#
# Indices 1 2 3 4 5 6 
#
# 1 103.4856 1.3537 38.2789 0.0000 0.0000 0.0000
# 2 1.3537 53.2043 18.3230 0.0000 0.0000 0.0000
# 3 38.2789 18.3230 112.4618 0.0000 0.0000 0.0000
# 4 0.0000 0.0000 0.0000 17.8763 0.0000 0.0000
# 5 0.0000 0.0000 0.0000 0.0000 21.2440 0.0000
# 6 0.0000 0.0000 0.0000 0.0000 0.0000 22.9428
#
#
#
# Elastic Compliance Matrix: (Units=1/GPa)
#
#
# Indices 1 2 3 4 5 6 
#
# 1 0.011113 0.001081 -0.003959 0.000000 0.000000 0.000000
# 2 0.001081 0.020018 -0.003629 0.000000 0.000000 0.000000
# 3 -0.003959 -0.003629 0.010831 0.000000 0.000000 0.000000
# 4 0.000000 0.000000 0.000000 0.055940 0.000000 0.000000
# 5 0.000000 0.000000 0.000000 0.000000 0.047072 0.000000
# 6 0.000000 0.000000 0.000000 0.000000 0.000000 0.043587
#
#
# Mechanical properties :
#
#
# Convention : Reuss Voigt Hill
#
# Bulk Modulus (GPa) = 34.54578 42.78477 38.66528
# Shear Modulus (GPa) = 23.67150 26.49236 25.08193
#
# Velocity S-wave (km/s) = 3.56548 3.77195 3.67017
# Velocity P-wave (km/s) = 5.95843 6.47669 6.22296
#
# Compressibility (1/GPa) = 0.02894709
#
# Stress axis : x y z
#
# Youngs Moduli (GPa) = 89.98174 49.95539 92.33054
#
# Poissons Ratio (x) = -0.05398 0.36551
# Poissons Ratio (y) = -0.09723 0.33509
# Poissons Ratio (z) = 0.35621 0.18130
#
# Static dielectric constant tensor:
#      x y z
#    x 1.642520 0.000000 0.000000 
#    y 0.000000 1.240000 0.000000 
#    z 0.000000 0.000000 1.661070 
# 
# From -- ./inp_files/48748.got.cif
#   From: 2010.05.17/outbox.cif.g08.bks.cpg/sg72_25_cif.got.tgz:48748.got - 2010.06.03 17:03:01.
