data_PCOD9529936
_publ_section_title
;
Structure prediction by ZEFSAII (Michael W. Deem and Ramdas Pophale) SiO2 
 PCOD9529936
Probable space group: I B C A 
;
_chemical_formula_sum "Si O2"
_cell_formula_units_Z 104
_cell_length_a 9.447023
_cell_length_b 26.830597
_cell_length_c 16.790675
_cell_angle_alpha 90.000000
_cell_angle_beta 90.000000
_cell_angle_gamma 90.000000
_cell_volume 4255.920084
_symmetry_space_group_name_H-M "I B C A "
_symmetry_group_IT_number 73
_symmetry_cell_setting 'orthorhombic'
loop_
_space_group_symop_operation_xyz
x,y,z
-x,1/2-y,z
x,-y,1/2-z
1/2-x,y,-z
-x,-y,-z
x,1/2+y,-z
-x,y,1/2+z
1/2+x,-y,z
1/2+x,1/2+y,1/2+z
1/2-x,-y,1/2+z
1/2+x,1/2-y,-z
-x,1/2+y,1/2-z
1/2-x,1/2-y,1/2-z
1/2+x,y,1/2-z
1/2-x,1/2+y,z
x,1/2-y,1/2+z
loop_
_atom_site_type_symbol
_atom_site_label
_atom_site_fract_x
_atom_site_fract_y
_atom_site_fract_z
Si Si1 0.937021 0.357894 0.300309
Si Si2 0.083064 0.057766 0.898401
Si Si3 0.250000 0.621790 0.000000
Si Si4 0.386701 0.206563 0.090721
Si Si5 0.679582 0.843807 0.585846
Si Si6 0.611900 0.046472 0.946790
Si Si7 0.421141 0.205684 0.844916
O O1 0.990663 0.411607 0.333964
O O2 0.060227 0.322034 0.331303
O O3 0.905485 0.343467 0.209849
O O4 0.800475 0.339314 0.348591
O O5 0.229959 0.085583 0.922925
O O6 0.094689 0.998767 0.885181
O O7 0.005830 0.056237 0.985341
O O8 0.371166 0.662144 0.974945
O O9 0.500000 0.250000 0.072377
O O10 0.274243 0.221356 0.886309
O O11 0.750000 0.837752 0.500000
O O12 0.631854 0.901001 0.594399
O O13 0.548063 0.808318 0.596458
O O14 0.750000 0.034477 0.000000
O O15 0.500000 0.250000 0.797150
#
# Coordination Sequence:
#
# PCOD9529936 Si02
#       7
#    16  16   8  16  16  16  16
#     4  11  23  43  70  99 142 189 245 299 367 454
#     4  10  19  36  65 104 141 185 231 292 367 459
#     4  10  22  38  62  96 140 172 230 306 368 436
#     4  11  25  43  64  98 134 181 238 308 369 441
#     4  11  23  45  74 108 144 193 254 313 368 455
#     4  10  18  35  67 105 143 182 232 293 374 448
#     4  12  27  48  71  99 140 199 249 303 385 453
#
# _framework density 24.43655
#
# number of rings (size 3 to 8) (size 9 to 14) (size 15 to 20)
#    0.000    1.231    3.846    3.231    2.154    2.462 
#    2.769    1.538    0.000    1.846    0.000    0.000 
#    0.000    0.000    0.000    0.000    0.000    0.000 
#
# Total GULP energy -290009.032028 kJ/mol
# GULP energy per Si atom -5577.096770 kJ/mol
# Density = 2.438093 g / cm^3
# Si number density = 24.436550 Si / 1000 Ang^3
#
#
#
# Elastic Constant Matrix: (Units=GPa)
#
#
# Indices 1 2 3 4 5 6 
#
# 1 134.9231 53.8016 28.7295 0.0000 0.0000 0.0000
# 2 53.8016 130.4647 27.9088 0.0000 0.0000 0.0000
# 3 28.7295 27.9088 47.2427 -0.0004 0.0000 0.0000
# 4 0.0000 0.0000 -0.0004 37.8120 0.0000 0.0000
# 5 0.0000 0.0000 0.0000 0.0000 29.5909 -0.0001
# 6 0.0000 0.0000 0.0000 0.0000 -0.0001 33.8196
#
#
#
# Elastic Compliance Matrix: (Units=1/GPa)
#
#
# Indices 1 2 3 4 5 6 
#
# 1 0.009474 -0.003061 -0.003953 0.000000 0.000000 0.000000
# 2 -0.003061 0.009763 -0.003906 0.000000 0.000000 0.000000
# 3 -0.003953 -0.003906 0.025878 0.000000 0.000000 0.000000
# 4 0.000000 0.000000 0.000000 0.026447 0.000000 0.000000
# 5 0.000000 0.000000 0.000000 0.000000 0.033794 0.000000
# 6 0.000000 0.000000 0.000000 0.000000 0.000000 0.029569
#
#
# Mechanical properties :
#
#
# Convention : Reuss Voigt Hill
#
# Bulk Modulus (GPa) = 42.96389 59.27894 51.12142
# Shear Modulus (GPa) = 30.39081 33.72388 32.05735
#
# Velocity S-wave (km/s) = 3.53039 3.71894 3.62589
# Velocity P-wave (km/s) = 5.85134 6.53848 6.20443
#
# Compressibility (1/GPa) = 0.02327536
#
# Stress axis : x y z
#
# Youngs Moduli (GPa) = 105.55125 102.42874 38.64213
#
# Poissons Ratio (x) = 0.31357 0.15275
# Poissons Ratio (y) = 0.32313 0.15093
# Poissons Ratio (z) = 0.41724 0.40006
#
# Static dielectric constant tensor:
#      x y z
#    x 2.152970 0.000000 0.000000 
#    y 0.000000 2.040830 0.000000 
#    z 0.000000 0.000000 1.952800 
# 
# From -- ./inp_files/21467.got.cif
#   From: 2010.05.17/outbox.cif.g08.bks.cpg/sg73_11_cif.got.tgz:21467.got - 2010.06.03 17:35:07.
