data_PCOD9529226
_publ_section_title
;
Structure prediction by ZEFSAII (Michael W. Deem and Ramdas Pophale) SiO2 
 PCOD9529226
Probable space group: I B A M
;
_chemical_formula_sum "Si O2"
_cell_formula_units_Z 56
_cell_length_a 9.920149
_cell_length_b 16.863965
_cell_length_c 15.975587
_cell_angle_alpha 90.000000
_cell_angle_beta 90.000000
_cell_angle_gamma 90.000000
_cell_volume 2672.604603
_symmetry_space_group_name_H-M "I B A M"
_symmetry_group_IT_number 72
_symmetry_cell_setting 'orthorhombic'
loop_
_space_group_symop_operation_xyz
x,y,z
-x,-y,z
x,-y,1/2-z
-x,y,1/2-z
-x,-y,-z
x,y,-z
-x,y,1/2+z
x,-y,1/2+z
1/2+x,1/2+y,1/2+z
1/2-x,1/2-y,1/2+z
1/2+x,1/2-y,-z
1/2-x,1/2+y,-z
1/2-x,1/2-y,1/2-z
1/2+x,1/2+y,1/2-z
1/2-x,1/2+y,z
1/2+x,1/2-y,z
loop_
_atom_site_type_symbol
_atom_site_label
_atom_site_fract_x
_atom_site_fract_y
_atom_site_fract_z
Si Si1 0.022950 0.836445 0.500000
Si Si2 0.134036 0.047923 0.140510
Si Si3 0.982562 0.347607 0.000000
Si Si4 0.261417 0.568214 0.500000
Si Si5 0.915039 0.582972 0.674900
O O1 0.031223 0.742735 0.500000
O O2 0.865857 0.859936 0.500000
O O3 0.085485 0.879224 0.418151
O O4 0.257280 0.073189 0.200205
O O5 0.000000 0.000000 0.167110
O O6 0.207288 0.986061 0.079028
O O7 0.910572 0.369876 0.912835
O O8 0.112064 0.402980 0.000000
O O9 0.000000 0.500000 0.662783
O O10 0.000000 0.623178 0.750000
#
# Coordination Sequence:
#
# PCOD9529226 Si02
#       5
#     8  16   8   8  16
#     4   9  21  32  62  94 121 165 208 248 313 376
#     4   9  18  39  62  86 121 163 210 252 297 371
#     4  12  21  36  64  92 126 165 197 264 321 350
#     4   9  17  33  59  91 116 159 217 244 297 374
#     4  11  23  39  62  94 121 158 212 260 304 370
#
# _framework density 20.953343
#
# number of rings (size 3 to 8) (size 9 to 14) (size 15 to 20)
#    0.000    2.000    2.857    3.857    4.000    0.000 
#    0.000    4.286    0.000    0.000    0.000    0.000 
#    0.000    0.000    0.000    0.000    0.000    0.000 
#
# Total GULP energy -156126.689677 kJ/mol
# GULP energy per Si atom -5575.953203 kJ/mol
# Density = 2.090565 g / cm^3
# Si number density = 20.953343 Si / 1000 Ang^3
#
#
#
# Elastic Constant Matrix: (Units=GPa)
#
#
# Indices 1 2 3 4 5 6 
#
# 1 159.0466 6.5855 28.4341 0.0000 0.0000 0.0000
# 2 6.5855 88.5162 29.7020 0.0000 0.0000 0.0000
# 3 28.4341 29.7020 101.6000 0.0000 0.0000 0.0000
# 4 0.0000 0.0000 0.0000 -13.3380 0.0000 0.0000
# 5 0.0000 0.0000 0.0000 0.0000 69.6512 0.0000
# 6 0.0000 0.0000 0.0000 0.0000 0.0000 12.5764
#
#
#
# Elastic Compliance Matrix: (Units=1/GPa)
#
#
# Indices 1 2 3 4 5 6 
#
# 1 0.006620 0.000143 -0.001895 0.000000 0.000000 0.000000
# 2 0.000143 0.012529 -0.003703 0.000000 0.000000 0.000000
# 3 -0.001895 -0.003703 0.011455 0.000000 0.000000 0.000000
# 4 0.000000 0.000000 0.000000 -0.074974 0.000000 0.000000
# 5 0.000000 0.000000 0.000000 0.000000 0.014357 0.000000
# 6 0.000000 0.000000 0.000000 0.000000 0.000000 0.079514
#
#
# Mechanical properties :
#
#
# Convention : Reuss Voigt Hill
#
# Bulk Modulus (GPa) = 50.77147 53.17847 51.97497
# Shear Modulus (GPa) = 74.65294 32.74066 53.69680
#
# Velocity S-wave (km/s) = 5.97541 3.95720 5.06779
# Velocity P-wave (km/s) = 8.47884 6.80542 7.68780
#
# Compressibility (1/GPa) = 0.01969610
#
# Stress axis : x y z
#
# Youngs Moduli (GPa) = 151.05157 79.81335 87.29605
#
# Poissons Ratio (x) = -0.01143 0.16539
# Poissons Ratio (y) = -0.02163 0.32325
# Poissons Ratio (z) = 0.28619 0.29554
#
# Static dielectric constant tensor:
#      x y z
#    x 1.833170 0.000000 0.000000 
#    y 0.000000 1.726710 0.000000 
#    z 0.000000 0.000000 1.862410 
# 
# From -- ./inp_files/27542.got.cif
#   From: 2010.05.17/outbox.cif.g08.bks.cpg/sg72_14_cif.got.tgz:27542.got - 2010.06.03 17:03:01.
