data_PCOD9529938
_publ_section_title
;
Structure prediction by ZEFSAII (Michael W. Deem and Ramdas Pophale) SiO2 
 PCOD9529938
Probable space group: I B C A 
;
_chemical_formula_sum "Si O2"
_cell_formula_units_Z 104
_cell_length_a 29.796742
_cell_length_b 20.446652
_cell_length_c 7.502815
_cell_angle_alpha 90.000000
_cell_angle_beta 90.000000
_cell_angle_gamma 90.000000
_cell_volume 4571.042129
_symmetry_space_group_name_H-M "I B C A "
_symmetry_group_IT_number 73
_symmetry_cell_setting 'orthorhombic'
loop_
_space_group_symop_operation_xyz
x,y,z
-x,1/2-y,z
x,-y,1/2-z
1/2-x,y,-z
-x,-y,-z
x,1/2+y,-z
-x,y,1/2+z
1/2+x,-y,z
1/2+x,1/2+y,1/2+z
1/2-x,-y,1/2+z
1/2+x,1/2-y,-z
-x,1/2+y,1/2-z
1/2-x,1/2-y,1/2-z
1/2+x,y,1/2-z
1/2-x,1/2+y,z
x,1/2-y,1/2+z
loop_
_atom_site_type_symbol
_atom_site_label
_atom_site_fract_x
_atom_site_fract_y
_atom_site_fract_z
Si Si1 0.379298 0.500000 0.750000
Si Si2 0.459422 0.073138 0.681022
Si Si3 0.192610 0.392374 0.156290
Si Si4 0.375893 0.292940 0.901585
Si Si5 0.556364 0.893540 0.726563
Si Si6 0.875138 0.149582 0.698102
Si Si7 0.787130 0.921996 0.749558
O O1 0.344685 0.449942 0.841912
O O2 0.413066 0.554095 0.832656
O O3 0.506478 0.110821 0.700219
O O4 0.446409 0.076023 0.473362
O O5 0.419446 0.105514 0.793809
O O6 0.467001 0.000000 0.750000
O O7 0.168316 0.323517 0.191815
O O8 0.234680 0.406215 0.286322
O O9 0.207480 0.395433 0.951228
O O10 0.418123 0.325393 0.800789
O O11 0.378552 0.215655 0.913058
O O12 0.373539 0.322584 0.099442
O O13 0.829712 0.110070 0.651644
O O14 0.791828 0.000000 0.750000
#
# Coordination Sequence:
#
# PCOD9529938 Si02
#       7
#     8  16  16  16  16  16  16
#     4  10  18  36  56  82 112 152 180 234 288 348
#     4  11  22  39  59  91 118 153 190 248 293 349
#     4   9  19  36  61  80 122 147 187 244 292 343
#     4   9  21  41  55  84 111 162 193 238 291 340
#     4  10  22  37  61  84 122 149 196 237 297 342
#     4  10  22  39  58  81 122 153 199 238 287 345
#     4  10  19  37  59  89 115 152 189 243 296 349
#
# _framework density 22.751923000000001
#
# number of rings (size 3 to 8) (size 9 to 14) (size 15 to 20)
#    0.000    2.154    1.538    1.846    0.000    2.462 
#    8.308    3.077    0.000    0.000    0.000    0.000 
#    0.000    0.000    0.000    0.000    0.000    0.000 
#
# Total GULP energy -290240.126906 kJ/mol
# GULP energy per Si atom -5581.540902 kJ/mol
# Density = 2.270014 g / cm^3
# Si number density = 22.751923 Si / 1000 Ang^3
#
#
#
# Elastic Constant Matrix: (Units=GPa)
#
#
# Indices 1 2 3 4 5 6 
#
# 1 162.9137 32.1341 34.9007 0.0000 0.0000 0.0000
# 2 32.1341 51.7971 24.5085 0.0000 0.0000 0.0000
# 3 34.9007 24.5085 34.2573 0.0000 0.0000 0.0000
# 4 0.0000 0.0000 0.0000 25.4148 0.0000 0.0000
# 5 0.0000 0.0000 0.0000 0.0000 23.8869 0.0000
# 6 0.0000 0.0000 0.0000 0.0000 0.0000 21.8892
#
#
#
# Elastic Compliance Matrix: (Units=1/GPa)
#
#
# Indices 1 2 3 4 5 6 
#
# 1 0.007945 -0.001662 -0.006906 0.000000 0.000000 0.000000
# 2 -0.001662 0.029533 -0.019436 0.000000 0.000000 0.000000
# 3 -0.006906 -0.019436 0.050131 0.000000 0.000000 0.000000
# 4 0.000000 0.000000 0.000000 0.039347 0.000000 0.000000
# 5 0.000000 0.000000 0.000000 0.000000 0.041864 0.000000
# 6 0.000000 0.000000 0.000000 0.000000 0.000000 0.045685
#
#
# Mechanical properties :
#
#
# Convention : Reuss Voigt Hill
#
# Bulk Modulus (GPa) = 31.64243 48.00608 39.82425
# Shear Modulus (GPa) = 17.79060 24.73318 21.26189
#
# Velocity S-wave (km/s) = 2.79935 3.30067 3.06029
# Velocity P-wave (km/s) = 4.93824 5.97256 5.47986
#
# Compressibility (1/GPa) = 0.03160313
#
# Stress axis : x y z
#
# Youngs Moduli (GPa) = 125.85905 33.86000 19.94755
#
# Poissons Ratio (x) = 0.05626 0.13776
# Poissons Ratio (y) = 0.20912 0.38770
# Poissons Ratio (z) = 0.86917 0.65811
#
# Static dielectric constant tensor:
#      x y z
#    x 1.908970 0.000000 0.000000 
#    y 0.000000 1.812120 0.000000 
#    z 0.000000 0.000000 1.935730 
# 
# From -- ./inp_files/7894.got.cif
#   From: 2010.05.17/outbox.cif.g08.bks.cpg/sg73_4_cif.got.tgz:7894.got - 2010.06.03 17:35:07.
