data_PCOD9529062
_publ_section_title
;
Structure prediction by ZEFSAII (Michael W. Deem and Ramdas Pophale) SiO2 
 PCOD9529062
Probable space group: I B A M
;
_chemical_formula_sum "Si O2"
_cell_formula_units_Z 64
_cell_length_a 27.905029
_cell_length_b 14.987738
_cell_length_c 8.559061
_cell_angle_alpha 90.000000
_cell_angle_beta 90.000000
_cell_angle_gamma 90.000000
_cell_volume 3579.684015
_symmetry_space_group_name_H-M "I B A M"
_symmetry_group_IT_number 72
_symmetry_cell_setting 'orthorhombic'
loop_
_space_group_symop_operation_xyz
x,y,z
-x,-y,z
x,-y,1/2-z
-x,y,1/2-z
-x,-y,-z
x,y,-z
-x,y,1/2+z
x,-y,1/2+z
1/2+x,1/2+y,1/2+z
1/2-x,1/2-y,1/2+z
1/2+x,1/2-y,-z
1/2-x,1/2+y,-z
1/2-x,1/2-y,1/2-z
1/2+x,1/2+y,1/2-z
1/2-x,1/2+y,z
1/2+x,1/2-y,z
loop_
_atom_site_type_symbol
_atom_site_label
_atom_site_fract_x
_atom_site_fract_y
_atom_site_fract_z
Si Si1 0.781612 0.098589 0.187386
Si Si2 0.325591 0.902684 0.313228
Si Si3 0.135328 0.225150 0.813392
Si Si4 0.553793 0.597219 0.187136
O O1 0.727489 0.116039 0.244348
O O2 0.818273 0.169945 0.256000
O O3 0.794549 0.000000 0.250000
O O4 0.783373 0.099572 0.000000
O O5 0.322509 0.904592 0.500000
O O6 0.359839 0.824075 0.255767
O O7 0.339831 0.000000 0.250000
O O8 0.089517 0.172119 0.749616
O O9 0.134534 0.228162 0.000000
O O10 0.569628 0.500000 0.250000
O O11 0.500000 0.611396 0.250000
O O12 0.553669 0.595464 0.000000
#
# Coordination Sequence:
#
# PCOD9529062 Si02
#       4
#    16  16  16  16
#     4  11  21  35  53  79 112 148 185 227 273 326
#     4  11  22  38  56  79 109 146 186 229 274 323
#     4  12  23  37  56  81 110 146 186 228 272 324
#     4  11  22  39  60  86 115 146 179 221 272 328
#
# _framework density 17.878672999999999
#
# number of rings (size 3 to 8) (size 9 to 14) (size 15 to 20)
#    0.000    0.750    0.000   12.750    0.000    0.000 
#    0.000    0.000    0.000    0.750    0.000    5.250 
#    0.000    0.000    0.000    0.000    0.000    0.000 
#
# Total GULP energy -179103.672435 kJ/mol
# GULP energy per Si atom -5596.989764 kJ/mol
# Density = 1.783798 g / cm^3
# Si number density = 17.878673 Si / 1000 Ang^3
#
#
#
# Elastic Constant Matrix: (Units=GPa)
#
#
# Indices 1 2 3 4 5 6 
#
# 1 65.1622 77.0845 30.5187 0.0000 0.0000 0.0000
# 2 77.0845 137.7303 51.0152 0.0000 0.0000 0.0000
# 3 30.5187 51.0152 186.2702 0.0000 0.0000 0.0000
# 4 0.0000 0.0000 0.0000 33.3308 0.0000 0.0000
# 5 0.0000 0.0000 0.0000 0.0000 29.4165 0.0000
# 6 0.0000 0.0000 0.0000 0.0000 0.0000 33.1111
#
#
#
# Elastic Compliance Matrix: (Units=1/GPa)
#
#
# Indices 1 2 3 4 5 6 
#
# 1 0.045461 -0.025246 -0.000534 0.000000 0.000000 0.000000
# 2 -0.025246 0.022100 -0.001916 0.000000 0.000000 0.000000
# 3 -0.000534 -0.001916 0.005981 0.000000 0.000000 0.000000
# 4 0.000000 0.000000 0.000000 0.030002 0.000000 0.000000
# 5 0.000000 0.000000 0.000000 0.000000 0.033995 0.000000
# 6 0.000000 0.000000 0.000000 0.000000 0.000000 0.030201
#
#
# Mechanical properties :
#
#
# Convention : Reuss Voigt Hill
#
# Bulk Modulus (GPa) = 55.09806 78.48882 66.79344
# Shear Modulus (GPa) = 21.81665 34.54133 28.17899
#
# Velocity S-wave (km/s) = 3.49701 4.40020 3.97435
# Velocity P-wave (km/s) = 6.86951 8.35535 7.64859
#
# Compressibility (1/GPa) = 0.01814946
#
# Stress axis : x y z
#
# Youngs Moduli (GPa) = 21.99669 45.24912 167.19860
#
# Poissons Ratio (x) = 1.14235 0.08931
# Poissons Ratio (y) = 0.55532 0.32041
# Poissons Ratio (z) = 0.01175 0.08671
#
# Static dielectric constant tensor:
#      x y z
#    x 1.593850 0.000000 0.000000 
#    y 0.000000 1.614450 0.000000 
#    z 0.000000 0.000000 1.589760 
# 
# From -- ./inp_files/2623.got.cif
#   From: 2010.05.17/outbox.cif.g08.bks.cpg/sg72_2_cif.got.tgz:2623.got - 2010.06.03 17:03:01.
