data_PCOD9529408
_publ_section_title
;
Structure prediction by ZEFSAII (Michael W. Deem and Ramdas Pophale) SiO2 
 PCOD9529408
Probable space group: I B A M
;
_chemical_formula_sum "Si O2"
_cell_formula_units_Z 104
_cell_length_a 9.108908
_cell_length_b 27.227131
_cell_length_c 19.413638
_cell_angle_alpha 90.000000
_cell_angle_beta 90.000000
_cell_angle_gamma 90.000000
_cell_volume 4814.765321
_symmetry_space_group_name_H-M "I B A M"
_symmetry_group_IT_number 72
_symmetry_cell_setting 'orthorhombic'
loop_
_space_group_symop_operation_xyz
x,y,z
-x,-y,z
x,-y,1/2-z
-x,y,1/2-z
-x,-y,-z
x,y,-z
-x,y,1/2+z
x,-y,1/2+z
1/2+x,1/2+y,1/2+z
1/2-x,1/2-y,1/2+z
1/2+x,1/2-y,-z
1/2-x,1/2+y,-z
1/2-x,1/2-y,1/2-z
1/2+x,1/2+y,1/2-z
1/2-x,1/2+y,z
1/2+x,1/2-y,z
loop_
_atom_site_type_symbol
_atom_site_label
_atom_site_fract_x
_atom_site_fract_y
_atom_site_fract_z
Si Si1 0.110012 0.686288 0.629381
Si Si2 0.641428 0.378554 0.865391
Si Si3 0.599700 0.453083 0.648594
Si Si4 0.771447 0.579867 0.500000
Si Si5 0.581147 0.877798 0.500000
Si Si6 0.733126 0.528836 0.000000
Si Si7 0.338841 0.901404 0.233986
Si Si8 0.282002 0.780820 0.415299
O O1 0.137114 0.650137 0.565913
O O2 0.135699 0.650784 0.694290
O O3 0.220824 0.731362 0.619485
O O4 0.942518 0.705355 0.615726
O O5 0.486691 0.401202 0.843149
O O6 0.681531 0.410707 0.931591
O O7 0.753544 0.389341 0.804044
O O8 0.667197 0.323379 0.892259
O O9 0.500000 0.500000 0.670853
O O10 0.639694 0.463133 0.569129
O O11 0.746784 0.441621 0.691170
O O12 0.809605 0.523512 0.500000
O O13 0.905990 0.617645 0.500000
O O14 0.641297 0.931498 0.500000
O O15 0.500000 0.921083 0.250000
O O16 0.287551 0.776421 0.500000
#
# Coordination Sequence:
#
# PCOD9529408 Si02
#       8
#    16  16  16   8   8   8  16  16
#     4  12  25  46  74 111 148 197 255 311 377 455
#     4  12  25  46  76 104 155 196 247 314 381 448
#     4  12  27  49  77 115 152 193 255 318 380 459
#     4  12  22  47  76 108 146 200 249 317 376 451
#     4  12  21  44  72 109 155 194 246 316 367 458
#     4  12  25  44  81 114 147 190 255 313 393 442
#     4  12  27  52  75 103 154 210 251 304 383 455
#     4  12  24  44  75 112 150 194 255 315 380 448
#
# _framework density 21.600223
#
# number of rings (size 3 to 8) (size 9 to 14) (size 15 to 20)
#    0.000    0.000    8.462    1.385    2.154    1.846 
#    0.000    1.538    0.000    0.000    0.000    0.000 
#    0.000    0.000    0.000    0.000    0.000    0.000 
#
# Total GULP energy -290723.711289 kJ/mol
# GULP energy per Si atom -5590.840602 kJ/mol
# Density = 2.155106 g / cm^3
# Si number density = 21.600223 Si / 1000 Ang^3
#
#
#
# Elastic Constant Matrix: (Units=GPa)
#
#
# Indices 1 2 3 4 5 6 
#
# 1 102.0912 41.0236 52.5733 0.0000 0.0000 0.0000
# 2 41.0236 102.5486 26.6032 0.0000 0.0000 0.0000
# 3 52.5733 26.6032 129.7428 -0.0001 0.0000 0.0000
# 4 0.0000 0.0000 -0.0001 44.0913 0.0000 0.0000
# 5 0.0000 0.0000 0.0000 0.0000 37.2398 0.0000
# 6 0.0000 0.0000 0.0000 0.0000 0.0000 42.9703
#
#
#
# Elastic Compliance Matrix: (Units=1/GPa)
#
#
# Indices 1 2 3 4 5 6 
#
# 1 0.014012 -0.004365 -0.004783 0.000000 0.000000 0.000000
# 2 -0.004365 0.011659 -0.000622 0.000000 0.000000 0.000000
# 3 -0.004783 -0.000622 0.009773 0.000000 0.000000 0.000000
# 4 0.000000 0.000000 0.000000 0.022680 0.000000 0.000000
# 5 0.000000 0.000000 0.000000 0.000000 0.026853 0.000000
# 6 0.000000 0.000000 0.000000 0.000000 0.000000 0.023272
#
#
# Mechanical properties :
#
#
# Convention : Reuss Voigt Hill
#
# Bulk Modulus (GPa) = 62.87312 63.86477 63.36894
# Shear Modulus (GPa) = 37.56861 39.13911 38.35386
#
# Velocity S-wave (km/s) = 4.17498 4.26135 4.21839
# Velocity P-wave (km/s) = 7.23957 7.33778 7.28884
#
# Compressibility (1/GPa) = 0.01590505
#
# Stress axis : x y z
#
# Youngs Moduli (GPa) = 71.36729 85.77173 102.32078
#
# Poissons Ratio (x) = 0.37436 0.48939
# Poissons Ratio (y) = 0.31149 0.06364
# Poissons Ratio (z) = 0.34134 0.05335
#
# Static dielectric constant tensor:
#      x y z
#    x 1.824090 0.000000 0.000000 
#    y 0.000000 1.783700 0.000000 
#    z 0.000000 0.000000 1.481150 
# 
# From -- ./inp_files/36202.got.cif
#   From: 2010.05.17/outbox.cif.g08.bks.cpg/sg72_19_cif.got.tgz:36202.got - 2010.06.03 17:03:01.
