data_PCOD9529385
_publ_section_title
;
Structure prediction by ZEFSAII (Michael W. Deem and Ramdas Pophale) SiO2 
 PCOD9529385
Probable space group: I B A M
;
_chemical_formula_sum "Si O2"
_cell_formula_units_Z 48
_cell_length_a 7.678046
_cell_length_b 19.071279
_cell_length_c 14.296902
_cell_angle_alpha 90.000000
_cell_angle_beta 90.000000
_cell_angle_gamma 90.000000
_cell_volume 2093.497611
_symmetry_space_group_name_H-M "I B A M"
_symmetry_group_IT_number 72
_symmetry_cell_setting 'orthorhombic'
loop_
_space_group_symop_operation_xyz
x,y,z
-x,-y,z
x,-y,1/2-z
-x,y,1/2-z
-x,-y,-z
x,y,-z
-x,y,1/2+z
x,-y,1/2+z
1/2+x,1/2+y,1/2+z
1/2-x,1/2-y,1/2+z
1/2+x,1/2-y,-z
1/2-x,1/2+y,-z
1/2-x,1/2-y,1/2-z
1/2+x,1/2+y,1/2-z
1/2-x,1/2+y,z
1/2+x,1/2-y,z
loop_
_atom_site_type_symbol
_atom_site_label
_atom_site_fract_x
_atom_site_fract_y
_atom_site_fract_z
Si Si1 0.832770 0.052291 0.186601
Si Si2 0.808432 0.323434 0.792817
Si Si3 0.731454 0.363458 0.500000
Si Si4 0.399692 0.213390 0.000000
O O1 0.825378 0.118769 0.256667
O O2 0.779340 0.086737 0.089778
O O3 0.715928 0.000000 0.250000
O O4 0.000000 0.000000 0.165787
O O5 0.750000 0.250000 0.750000
O O6 0.000000 0.339401 0.750000
O O7 0.814469 0.313993 0.904142
O O8 0.595045 0.298538 0.500000
O O9 0.909222 0.319767 0.500000
#
# Coordination Sequence:
#
# PCOD9529385 Si02
#       4
#    16  16   8   8
#     4  11  27  47  70 101 147 192 239 297 354 435
#     4  12  23  42  69 106 139 182 239 296 356 419
#     4  12  26  46  73 108 142 191 244 290 378 421
#     4  12  24  41  73 109 141 185 233 300 358 419
#
# _framework density 22.928135999999999
#
# number of rings (size 3 to 8) (size 9 to 14) (size 15 to 20)
#    0.000    0.333    6.667    1.000    4.667    4.667 
#    0.000    1.667    0.000    0.000    0.000    0.000 
#    0.000    0.000    0.000    0.000    0.000    0.000 
#
# Total GULP energy -133782.830188 kJ/mol
# GULP energy per Si atom -5574.284591 kJ/mol
# Density = 2.287595 g / cm^3
# Si number density = 22.928136 Si / 1000 Ang^3
#
#
#
# Elastic Constant Matrix: (Units=GPa)
#
#
# Indices 1 2 3 4 5 6 
#
# 1 134.7487 72.1936 55.2067 0.0000 0.0000 0.0000
# 2 72.1936 217.1508 98.5448 0.0000 0.0000 0.0000
# 3 55.2067 98.5448 267.7211 0.0000 0.0000 0.0000
# 4 0.0000 0.0000 0.0000 27.2439 0.0000 0.0000
# 5 0.0000 0.0000 0.0000 0.0000 25.1115 0.0000
# 6 0.0000 0.0000 0.0000 0.0000 0.0000 34.2815
#
#
#
# Elastic Compliance Matrix: (Units=1/GPa)
#
#
# Indices 1 2 3 4 5 6 
#
# 1 0.009218 -0.002643 -0.000928 0.000000 0.000000 0.000000
# 2 -0.002643 0.006287 -0.001769 0.000000 0.000000 0.000000
# 3 -0.000928 -0.001769 0.004578 0.000000 0.000000 0.000000
# 4 0.000000 0.000000 0.000000 0.036705 0.000000 0.000000
# 5 0.000000 0.000000 0.000000 0.000000 0.039822 0.000000
# 6 0.000000 0.000000 0.000000 0.000000 0.000000 0.029170
#
#
# Mechanical properties :
#
#
# Convention : Reuss Voigt Hill
#
# Bulk Modulus (GPa) = 106.36398 119.05675 112.71037
# Shear Modulus (GPa) = 35.81811 43.57241 39.69526
#
# Velocity S-wave (km/s) = 3.95674 4.36408 4.16539
# Velocity P-wave (km/s) = 8.20764 8.79956 8.50875
#
# Compressibility (1/GPa) = 0.00940168
#
# Stress axis : x y z
#
# Youngs Moduli (GPa) = 108.48830 159.06609 218.45192
#
# Poissons Ratio (x) = 0.42048 0.20267
# Poissons Ratio (y) = 0.28678 0.38643
# Poissons Ratio (z) = 0.10065 0.28138
#
# Static dielectric constant tensor:
#      x y z
#    x 2.421040 0.000000 0.000000 
#    y 0.000000 1.883000 0.000000 
#    z 0.000000 0.000000 1.859030 
# 
# From -- ./inp_files/18045.got.cif
#   From: 2010.05.17/outbox.cif.g08.bks.cpg/sg72_10_cif.got.tgz:18045.got - 2010.06.03 17:03:01.
