data_PCOD9529078
_publ_section_title
;
Structure prediction by ZEFSAII (Michael W. Deem and Ramdas Pophale) SiO2 
 PCOD9529078
Probable space group: I B A M
;
_chemical_formula_sum "Si O2"
_cell_formula_units_Z 88
_cell_length_a 9.670971
_cell_length_b 19.458935
_cell_length_c 23.786508
_cell_angle_alpha 90.000000
_cell_angle_beta 90.000000
_cell_angle_gamma 90.000000
_cell_volume 4476.306730
_symmetry_space_group_name_H-M "I B A M"
_symmetry_group_IT_number 72
_symmetry_cell_setting 'orthorhombic'
loop_
_space_group_symop_operation_xyz
x,y,z
-x,-y,z
x,-y,1/2-z
-x,y,1/2-z
-x,-y,-z
x,y,-z
-x,y,1/2+z
x,-y,1/2+z
1/2+x,1/2+y,1/2+z
1/2-x,1/2-y,1/2+z
1/2+x,1/2-y,-z
1/2-x,1/2+y,-z
1/2-x,1/2-y,1/2-z
1/2+x,1/2+y,1/2-z
1/2-x,1/2+y,z
1/2+x,1/2-y,z
loop_
_atom_site_type_symbol
_atom_site_label
_atom_site_fract_x
_atom_site_fract_y
_atom_site_fract_z
Si Si1 0.492942 0.206564 0.893545
Si Si2 0.265351 0.500000 0.250000
Si Si3 0.300932 0.325238 0.563841
Si Si4 0.064958 0.069416 0.149774
Si Si5 0.894964 0.810017 0.300716
Si Si6 0.386055 0.873737 0.202554
O O1 0.610206 0.256719 0.919549
O O2 0.363945 0.187247 0.932553
O O3 0.418751 0.249855 0.844317
O O4 0.560925 0.143062 0.859970
O O5 0.355042 0.454495 0.293550
O O6 0.173018 0.550377 0.287599
O O7 0.338774 0.343715 0.500000
O O8 0.342563 0.385040 0.607933
O O9 0.941786 0.119547 0.168729
O O10 0.000000 0.000000 0.124570
O O11 0.737153 0.820330 0.284750
O O12 0.000000 0.801251 0.250000
O O13 0.500000 0.864125 0.250000
#
# Coordination Sequence:
#
# PCOD9529078 Si02
#       6
#    16   8  16  16  16  16
#     4  11  24  42  63  93 126 165 213 275 329 385
#     4  12  22  42  60 100 134 174 206 254 320 406
#     4  11  25  44  68  92 122 168 224 282 329 378
#     4  11  21  38  68  92 129 170 214 260 322 393
#     4  11  21  37  62  91 129 167 206 256 324 394
#     4  12  24  36  60  95 133 171 202 256 323 398
#
# _framework density 19.659064000000001
#
# number of rings (size 3 to 8) (size 9 to 14) (size 15 to 20)
#    0.000    0.727    5.455    2.727    2.545    1.818 
#    0.000    0.000    0.000    3.273    0.000    0.000 
#    0.000    0.000    0.000    0.000    0.000    0.000 
#
# Total GULP energy -245938.500156 kJ/mol
# GULP energy per Si atom -5589.511367 kJ/mol
# Density = 1.961432 g / cm^3
# Si number density = 19.659064 Si / 1000 Ang^3
#
#
#
# Elastic Constant Matrix: (Units=GPa)
#
#
# Indices 1 2 3 4 5 6 
#
# 1 103.4946 15.1300 26.2416 0.0000 0.0000 0.0000
# 2 15.1300 93.1257 25.6892 0.0000 0.0000 0.0000
# 3 26.2416 25.6892 93.7779 0.0000 0.0000 0.0000
# 4 0.0000 0.0000 0.0000 13.1129 0.0000 0.0000
# 5 0.0000 0.0000 0.0000 0.0000 23.2909 0.0000
# 6 0.0000 0.0000 0.0000 0.0000 0.0000 21.1833
#
#
#
# Elastic Compliance Matrix: (Units=1/GPa)
#
#
# Indices 1 2 3 4 5 6 
#
# 1 0.010480 -0.000967 -0.002668 0.000000 0.000000 0.000000
# 2 -0.000967 0.011705 -0.002936 0.000000 0.000000 0.000000
# 3 -0.002668 -0.002936 0.012214 0.000000 0.000000 0.000000
# 4 0.000000 0.000000 0.000000 0.076261 0.000000 0.000000
# 5 0.000000 0.000000 0.000000 0.000000 0.042935 0.000000
# 6 0.000000 0.000000 0.000000 0.000000 0.000000 0.047207
#
#
# Mechanical properties :
#
#
# Convention : Reuss Voigt Hill
#
# Bulk Modulus (GPa) = 47.03991 47.16884 47.10438
# Shear Modulus (GPa) = 22.62139 26.40659 24.51399
#
# Velocity S-wave (km/s) = 3.39585 3.66898 3.53506
# Velocity P-wave (km/s) = 6.27340 6.48029 6.37768
#
# Compressibility (1/GPa) = 0.02125855
#
# Stress axis : x y z
#
# Youngs Moduli (GPa) = 95.41895 85.43260 81.87149
#
# Poissons Ratio (x) = 0.08259 0.21842
# Poissons Ratio (y) = 0.09225 0.24037
# Poissons Ratio (z) = 0.25456 0.25082
#
# Static dielectric constant tensor:
#      x y z
#    x 1.753340 0.000000 0.000000 
#    y 0.000000 1.733100 0.000000 
#    z 0.000000 0.000000 1.669850 
# 
# From -- ./inp_files/42270.got.cif
#   From: 2010.05.17/outbox.cif.g08.bks.cpg/sg72_22_cif.got.tgz:42270.got - 2010.06.03 17:03:01.
