data_PCOD9529956
_publ_section_title
;
Structure prediction by ZEFSAII (Michael W. Deem and Ramdas Pophale) SiO2 
 PCOD9529956
Probable space group: I B C A 
;
_chemical_formula_sum "Si O2"
_cell_formula_units_Z 88
_cell_length_a 5.437243
_cell_length_b 33.249714
_cell_length_c 18.519006
_cell_angle_alpha 90.000000
_cell_angle_beta 90.000000
_cell_angle_gamma 90.000000
_cell_volume 3347.991365
_symmetry_space_group_name_H-M "I B C A "
_symmetry_group_IT_number 73
_symmetry_cell_setting 'orthorhombic'
loop_
_space_group_symop_operation_xyz
x,y,z
-x,1/2-y,z
x,-y,1/2-z
1/2-x,y,-z
-x,-y,-z
x,1/2+y,-z
-x,y,1/2+z
1/2+x,-y,z
1/2+x,1/2+y,1/2+z
1/2-x,-y,1/2+z
1/2+x,1/2-y,-z
-x,1/2+y,1/2-z
1/2-x,1/2-y,1/2-z
1/2+x,y,1/2-z
1/2-x,1/2+y,z
x,1/2-y,1/2+z
loop_
_atom_site_type_symbol
_atom_site_label
_atom_site_fract_x
_atom_site_fract_y
_atom_site_fract_z
Si Si1 0.643487 0.333093 0.208288
Si Si2 0.611998 0.166168 0.923406
Si Si3 0.798303 0.015359 0.167624
Si Si4 0.500000 0.750000 0.798321
Si Si5 0.948359 0.097828 0.868088
Si Si6 0.000000 0.750000 0.953149
Si Si7 0.750000 0.610210 0.500000
O O1 0.927796 0.328893 0.231588
O O2 0.551992 0.293200 0.161625
O O3 0.637343 0.380275 0.184779
O O4 0.773047 0.136290 0.877310
O O5 0.551882 0.211357 0.904667
O O6 0.750000 0.170240 0.000000
O O7 0.374867 0.140438 0.943736
O O8 0.695693 0.060198 0.162694
O O9 0.830406 0.000000 0.250000
O O10 0.571676 0.989254 0.135026
O O11 0.250000 0.750000 0.750000
O O12 0.059351 0.087453 0.947694
O O13 0.750000 0.757723 0.000000
#
# Coordination Sequence:
#
# PCOD9529956 Si02
#       7
#    16  16  16   8  16   8   8
#     4  10  23  39  66  96 134 180 232 292 352 419
#     4   9  20  39  62  96 138 196 235 290 335 407
#     4  10  25  46  73 106 138 168 224 304 370 440
#     4   8  16  38  56  88 132 174 228 284 344 412
#     4  11  25  42  73 102 142 187 240 292 374 431
#     4  10  18  36  62  94 140 190 248 290 324 386
#     4  10  22  44  66  98 148 194 238 286 340 440
#
# _framework density 26.284419
#
# number of rings (size 3 to 8) (size 9 to 14) (size 15 to 20)
#    0.000    2.182    0.909    0.000   10.182    0.000 
#    3.273    1.818    0.000    0.000    0.000    0.000 
#    0.000    0.000    0.000    0.000    0.000    0.000 
#
# Total GULP energy -245522.375919 kJ/mol
# GULP energy per Si atom -5580.053998 kJ/mol
# Density = 2.622459 g / cm^3
# Si number density = 26.284419 Si / 1000 Ang^3
#
#
#
# Elastic Constant Matrix: (Units=GPa)
#
#
# Indices 1 2 3 4 5 6 
#
# 1 142.7001 -17.5457 16.0968 0.0000 0.0000 0.0000
# 2 -17.5457 101.2558 22.8375 0.0000 0.0000 0.0000
# 3 16.0968 22.8375 37.3685 0.0000 0.0000 0.0000
# 4 0.0000 0.0000 0.0000 31.6366 0.0000 0.0000
# 5 0.0000 0.0000 0.0000 0.0000 38.8246 0.0000
# 6 0.0000 0.0000 0.0000 0.0000 0.0000 -31.8479
#
#
#
# Elastic Compliance Matrix: (Units=1/GPa)
#
#
# Indices 1 2 3 4 5 6 
#
# 1 0.007863 0.002466 -0.004894 0.000000 0.000000 0.000000
# 2 0.002466 0.012229 -0.008536 0.000000 0.000000 0.000000
# 3 -0.004894 -0.008536 0.034085 0.000000 0.000000 0.000000
# 4 0.000000 0.000000 0.000000 0.031609 0.000000 0.000000
# 5 0.000000 0.000000 0.000000 0.000000 0.025757 0.000000
# 6 0.000000 0.000000 0.000000 0.000000 0.000000 -0.031399
#
#
# Mechanical properties :
#
#
# Convention : Reuss Voigt Hill
#
# Bulk Modulus (GPa) = 31.00833 36.01129 33.50981
# Shear Modulus (GPa) = 44.31799 25.05173 34.68486
#
# Velocity S-wave (km/s) = 4.11066 3.09058 3.63657
# Velocity P-wave (km/s) = 5.86113 5.14451 5.51448
#
# Compressibility (1/GPa) = 0.03224939
#
# Stress axis : x y z
#
# Youngs Moduli (GPa) = 127.17692 81.77579 29.33805
#
# Poissons Ratio (x) = -0.20169 0.14359
# Poissons Ratio (y) = -0.31367 0.25042
# Poissons Ratio (z) = 0.62246 0.69802
#
# Static dielectric constant tensor:
#      x y z
#    x 2.535600 0.000000 0.000000 
#    y 0.000000 2.097340 0.000000 
#    z 0.000000 0.000000 -0.933960 
# 
# From -- ./inp_files/3123.got.cif
#   From: 2010.05.17/outbox.cif.g08.bks.cpg/sg73_2_cif.got.tgz:3123.got - 2010.06.03 17:35:07.
