data_PCOD9529737
_publ_section_title
;
Structure prediction by ZEFSAII (Michael W. Deem and Ramdas Pophale) SiO2 
 PCOD9529737
Probable space group: I B C A 
;
_chemical_formula_sum "Si O2"
_cell_formula_units_Z 120
_cell_length_a 22.085302
_cell_length_b 14.380709
_cell_length_c 16.346716
_cell_angle_alpha 90.000000
_cell_angle_beta 90.000000
_cell_angle_gamma 90.000000
_cell_volume 5191.754619
_symmetry_space_group_name_H-M "I B C A "
_symmetry_group_IT_number 73
_symmetry_cell_setting 'orthorhombic'
loop_
_space_group_symop_operation_xyz
x,y,z
-x,1/2-y,z
x,-y,1/2-z
1/2-x,y,-z
-x,-y,-z
x,1/2+y,-z
-x,y,1/2+z
1/2+x,-y,z
1/2+x,1/2+y,1/2+z
1/2-x,-y,1/2+z
1/2+x,1/2-y,-z
-x,1/2+y,1/2-z
1/2-x,1/2-y,1/2-z
1/2+x,y,1/2-z
1/2-x,1/2+y,z
x,1/2-y,1/2+z
loop_
_atom_site_type_symbol
_atom_site_label
_atom_site_fract_x
_atom_site_fract_y
_atom_site_fract_z
Si Si1 0.804628 0.164520 0.603211
Si Si2 0.224939 0.915659 0.809732
Si Si3 0.661658 0.691182 0.429563
Si Si4 0.070705 0.500000 0.750000
Si Si5 0.339698 0.048186 0.607018
Si Si6 0.860709 0.736853 0.744089
Si Si7 0.044969 0.089158 0.699191
Si Si8 0.620392 0.478392 0.432829
O O1 0.733229 0.183289 0.592733
O O2 0.837110 0.216437 0.526428
O O3 0.810802 0.054182 0.592361
O O4 0.837960 0.187898 0.689124
O O5 0.194603 0.836480 0.756017
O O6 0.241326 0.000000 0.750000
O O7 0.283863 0.890797 0.861406
O O8 0.173799 0.944098 0.873581
O O9 0.632284 0.748383 0.353972
O O10 0.628087 0.590125 0.430250
O O11 0.111290 0.463041 0.822736
O O12 0.025477 0.418294 0.720134
O O13 0.369314 0.067191 0.520515
O O14 0.920233 0.681997 0.775842
O O15 0.072110 0.000000 0.750000
O O16 0.058938 0.059509 0.606895
#
# Coordination Sequence:
#
# PCOD9529737 Si02
#       8
#    16  16  16   8  16  16  16  16
#     4  10  22  32  51  85 121 152 184 225 299 366
#     4  11  18  32  59  88 115 146 187 227 287 362
#     4  10  17  34  52  77 119 154 181 217 290 370
#     4  10  22  38  56  82 110 146 198 258 274 334
#     4  11  21  35  55  85 122 147 188 240 299 343
#     4  11  19  36  59  81 114 157 191 235 287 355
#     4   9  19  38  60  82 104 145 208 239 281 340
#     4  10  17  33  59  83 109 155 186 233 286 362
#
# _framework density 23.113572000000001
#
# number of rings (size 3 to 8) (size 9 to 14) (size 15 to 20)
#    0.400    1.333    4.667    1.600    0.000    0.533 
#    9.600    0.667    0.000    0.000    0.000    3.733 
#    0.000    0.000    0.000    0.000    0.000    0.000 
#
# Total GULP energy -335151.116436 kJ/mol
# GULP energy per Si atom -5585.851941 kJ/mol
# Density = 2.306096 g / cm^3
# Si number density = 23.113572 Si / 1000 Ang^3
#
#
#
# Elastic Constant Matrix: (Units=GPa)
#
#
# Indices 1 2 3 4 5 6 
#
# 1 54.4143 -5.0997 -3.1863 0.0000 0.0000 0.0000
# 2 -5.0997 47.5910 -12.0185 0.0000 0.0000 0.0000
# 3 -3.1863 -12.0185 145.3768 0.0000 0.0000 0.0000
# 4 0.0000 0.0000 0.0000 17.3408 0.0000 0.0000
# 5 0.0000 0.0000 0.0000 0.0000 5.1752 0.0000
# 6 0.0000 0.0000 0.0000 0.0000 0.0000 15.6106
#
#
#
# Elastic Compliance Matrix: (Units=1/GPa)
#
#
# Indices 1 2 3 4 5 6 
#
# 1 0.018613 0.002142 0.000585 0.000000 0.000000 0.000000
# 2 0.002142 0.021707 0.001842 0.000000 0.000000 0.000000
# 3 0.000585 0.001842 0.007044 0.000000 0.000000 0.000000
# 4 0.000000 0.000000 0.000000 0.057668 0.000000 0.000000
# 5 0.000000 0.000000 0.000000 0.000000 0.193230 0.000000
# 6 0.000000 0.000000 0.000000 0.000000 0.000000 0.064059
#
#
# Mechanical properties :
#
#
# Convention : Reuss Voigt Hill
#
# Bulk Modulus (GPa) = 17.69888 22.97479 20.33684
# Shear Modulus (GPa) = 13.44028 25.47108 19.45568
#
# Velocity S-wave (km/s) = 2.41402 3.32324 2.90443
# Velocity P-wave (km/s) = 3.92988 4.96857 4.47944
#
# Compressibility (1/GPa) = 0.05650074
#
# Stress axis : x y z
#
# Youngs Moduli (GPa) = 53.72718 46.06814 141.97005
#
# Poissons Ratio (x) = -0.09869 -0.08306
# Poissons Ratio (y) = -0.11509 -0.26144
# Poissons Ratio (z) = -0.03143 -0.08483
#
# Static dielectric constant tensor:
#      x y z
#    x 1.821050 0.000000 0.000000 
#    y 0.000000 1.988090 0.000000 
#    z 0.000000 0.000000 1.913850 
# 
# From -- ./inp_files/23336.got.cif
#   From: 2010.05.17/outbox.cif.g08.bks.cpg/sg73_12_cif.got.tgz:23336.got - 2010.06.03 17:35:07.
