data_PCOD9529906
_publ_section_title
;
Structure prediction by ZEFSAII (Michael W. Deem and Ramdas Pophale) SiO2 
 PCOD9529906
Probable space group: I B C A 
;
_chemical_formula_sum "Si O2"
_cell_formula_units_Z 96
_cell_length_a 17.271473
_cell_length_b 11.843805
_cell_length_c 21.615942
_cell_angle_alpha 90.000000
_cell_angle_beta 90.000000
_cell_angle_gamma 90.000000
_cell_volume 4421.756194
_symmetry_space_group_name_H-M "I B C A "
_symmetry_group_IT_number 73
_symmetry_cell_setting 'orthorhombic'
loop_
_space_group_symop_operation_xyz
x,y,z
-x,1/2-y,z
x,-y,1/2-z
1/2-x,y,-z
-x,-y,-z
x,1/2+y,-z
-x,y,1/2+z
1/2+x,-y,z
1/2+x,1/2+y,1/2+z
1/2-x,-y,1/2+z
1/2+x,1/2-y,-z
-x,1/2+y,1/2-z
1/2-x,1/2-y,1/2-z
1/2+x,y,1/2-z
1/2-x,1/2+y,z
x,1/2-y,1/2+z
loop_
_atom_site_type_symbol
_atom_site_label
_atom_site_fract_x
_atom_site_fract_y
_atom_site_fract_z
Si Si1 0.384685 0.500000 0.250000
Si Si2 0.385531 0.483626 0.445029
Si Si3 0.500000 0.750000 0.873248
Si Si4 0.410000 0.457490 0.581707
Si Si5 0.502589 0.383579 0.850128
Si Si6 0.837861 0.333816 0.346087
Si Si7 0.254526 0.809628 0.431698
O O1 0.442412 0.561013 0.201696
O O2 0.331115 0.586939 0.287135
O O3 0.405162 0.514951 0.514846
O O4 0.455673 0.415339 0.414414
O O5 0.360255 0.590341 0.405242
O O6 0.315538 0.395564 0.437150
O O7 0.476810 0.638896 0.912196
O O8 0.420495 0.769202 0.835070
O O9 0.423447 0.545482 0.637928
O O10 0.331378 0.384539 0.579507
O O11 0.500000 0.250000 0.841433
O O12 0.762339 0.269262 0.371266
O O13 0.250000 0.750708 0.500000
#
# Coordination Sequence:
#
# PCOD9529906 Si02
#       7
#     8  16   8  16  16  16  16
#     4  10  22  42  58  90 124 168 224 274 326 376
#     4  10  21  38  55  91 129 154 205 267 331 392
#     4  10  18  34  60  88 114 164 204 260 322 392
#     4  10  20  36  59  92 121 162 205 262 332 394
#     4  11  24  36  60  90 122 163 212 274 322 387
#     4  10  21  37  62  86 124 168 213 266 325 390
#     4   9  21  37  61  90 123 170 212 256 328 395
#
# _framework density 21.710830000000001
#
# number of rings (size 3 to 8) (size 9 to 14) (size 15 to 20)
#    0.000    2.000    3.333    0.500    2.333    6.000 
#    0.000    3.333    0.000    5.000    0.000    0.000 
#    0.000    0.000    0.000    0.000    0.000    0.000 
#
# Total GULP energy -267271.315184 kJ/mol
# GULP energy per Si atom -5568.152400 kJ/mol
# Density = 2.166142 g / cm^3
# Si number density = 21.710830 Si / 1000 Ang^3
#
#
#
# Elastic Constant Matrix: (Units=GPa)
#
#
# Indices 1 2 3 4 5 6 
#
# 1 61.8652 9.4564 10.5515 0.0000 0.0000 0.0000
# 2 9.4564 73.3945 26.1290 0.0000 0.0000 0.0000
# 3 10.5515 26.1290 71.5314 0.0000 0.0000 0.0000
# 4 0.0000 0.0000 0.0000 1.3355 0.0000 0.0000
# 5 0.0000 0.0000 0.0000 0.0000 21.6570 0.0000
# 6 0.0000 0.0000 0.0000 0.0000 0.0000 30.1999
#
#
#
# Elastic Compliance Matrix: (Units=1/GPa)
#
#
# Indices 1 2 3 4 5 6 
#
# 1 0.016718 -0.001467 -0.001930 0.000000 0.000000 0.000000
# 2 -0.001467 0.015790 -0.005552 0.000000 0.000000 0.000000
# 3 -0.001930 -0.005552 0.016292 0.000000 0.000000 0.000000
# 4 0.000000 0.000000 0.000000 0.748800 0.000000 0.000000
# 5 0.000000 0.000000 0.000000 0.000000 0.046174 0.000000
# 6 0.000000 0.000000 0.000000 0.000000 0.000000 0.033113
#
#
# Mechanical properties :
#
#
# Convention : Reuss Voigt Hill
#
# Bulk Modulus (GPa) = 32.35895 33.22944 32.79420
# Shear Modulus (GPa) = 5.52434 21.34877 13.43655
#
# Velocity S-wave (km/s) = 1.59688 3.13920 2.49044
# Velocity P-wave (km/s) = 4.28216 5.33649 4.83813
#
# Compressibility (1/GPa) = 0.03090335
#
# Stress axis : x y z
#
# Youngs Moduli (GPa) = 59.81727 63.32974 61.37808
#
# Poissons Ratio (x) = 0.09289 0.11847
# Poissons Ratio (y) = 0.08774 0.34074
# Poissons Ratio (z) = 0.11546 0.35158
#
# Static dielectric constant tensor:
#      x y z
#    x 1.934320 0.000000 0.000000 
#    y 0.000000 1.964200 0.000000 
#    z 0.000000 0.000000 1.818930 
# 
# From -- ./inp_files/29814.got.cif
#   From: 2010.05.17/outbox.cif.g08.bks.cpg/sg73_15_cif.got.tgz:29814.got - 2010.06.03 17:35:07.
