data_PCOD9529005
_publ_section_title
;
Structure prediction by ZEFSAII (Michael W. Deem and Ramdas Pophale) SiO2 
 PCOD9529005
Probable space group: I B A M
;
_chemical_formula_sum "Si O2"
_cell_formula_units_Z 80
_cell_length_a 23.544764
_cell_length_b 29.966922
_cell_length_c 8.595035
_cell_angle_alpha 90.000000
_cell_angle_beta 90.000000
_cell_angle_gamma 90.000000
_cell_volume 6064.348188
_symmetry_space_group_name_H-M "I B A M"
_symmetry_group_IT_number 72
_symmetry_cell_setting 'orthorhombic'
loop_
_space_group_symop_operation_xyz
x,y,z
-x,-y,z
x,-y,1/2-z
-x,y,1/2-z
-x,-y,-z
x,y,-z
-x,y,1/2+z
x,-y,1/2+z
1/2+x,1/2+y,1/2+z
1/2-x,1/2-y,1/2+z
1/2+x,1/2-y,-z
1/2-x,1/2+y,-z
1/2-x,1/2-y,1/2-z
1/2+x,1/2+y,1/2-z
1/2-x,1/2+y,z
1/2+x,1/2-y,z
loop_
_atom_site_type_symbol
_atom_site_label
_atom_site_fract_x
_atom_site_fract_y
_atom_site_fract_z
Si Si1 0.768102 0.679186 0.315323
Si Si2 0.062778 0.549258 0.814058
Si Si3 0.436407 0.218571 0.186220
Si Si4 0.869822 0.631824 0.184830
Si Si5 0.834180 0.234437 0.312931
O O1 0.772858 0.672464 0.500000
O O2 0.804298 0.641490 0.229391
O O3 0.800826 0.724750 0.268643
O O4 0.702415 0.690098 0.276749
O O5 0.076328 0.500000 0.750000
O O6 0.106501 0.586217 0.755043
O O7 0.000000 0.560930 0.750000
O O8 0.060824 0.548280 0.000000
O O9 0.500000 0.220636 0.250000
O O10 0.406949 0.172705 0.245310
O O11 0.397785 0.259001 0.252317
O O12 0.435756 0.218893 0.000000
O O13 0.876433 0.632163 0.000000
O O14 0.832512 0.240752 0.500000
#
# Coordination Sequence:
#
# PCOD9529005 Si02
#       5
#    16  16  16  16  16
#     4   9  16  26  40  57  75  96 122 154 190 226
#     4  11  21  34  47  60  77  98 126 158 197 238
#     4  11  20  29  40  55  76 101 130 162 196 230
#     4  11  20  30  43  59  77  98 127 161 196 231
#     4   9  16  26  39  55  75  97 123 154 189 227
#
# _framework density 13.191853999999999
#
# number of rings (size 3 to 8) (size 9 to 14) (size 15 to 20)
#    0.000    1.800    0.000   10.200    0.000    2.400 
#    0.000    0.000    0.000    0.000    0.000    0.000 
#    0.000    0.000    0.000    0.000    0.000    1.000 
#
# Total GULP energy -222969.439479 kJ/mol
# GULP energy per Si atom -5574.235987 kJ/mol
# Density = 1.316183 g / cm^3
# Si number density = 13.191854 Si / 1000 Ang^3
#
#
#
# Elastic Constant Matrix: (Units=GPa)
#
#
# Indices 1 2 3 4 5 6 
#
# 1 67.7048 38.2517 28.2393 0.0000 0.0000 0.0000
# 2 38.2517 56.2603 25.8996 0.0000 0.0000 0.0000
# 3 28.2393 25.8996 88.9742 0.0000 0.0000 0.0000
# 4 0.0000 0.0000 0.0000 18.1329 0.0000 0.0000
# 5 0.0000 0.0000 0.0000 0.0000 21.8168 0.0000
# 6 0.0000 0.0000 0.0000 0.0000 0.0000 20.0684
#
#
#
# Elastic Compliance Matrix: (Units=1/GPa)
#
#
# Indices 1 2 3 4 5 6 
#
# 1 0.024857 -0.015322 -0.003429 0.000000 0.000000 0.000000
# 2 -0.015322 0.029969 -0.003861 0.000000 0.000000 0.000000
# 3 -0.003429 -0.003861 0.013451 0.000000 0.000000 0.000000
# 4 0.000000 0.000000 0.000000 0.055148 0.000000 0.000000
# 5 0.000000 0.000000 0.000000 0.000000 0.045836 0.000000
# 6 0.000000 0.000000 0.000000 0.000000 0.000000 0.049829
#
#
# Mechanical properties :
#
#
# Convention : Reuss Voigt Hill
#
# Bulk Modulus (GPa) = 43.37649 44.19114 43.78382
# Shear Modulus (GPa) = 18.38241 20.04021 19.21131
#
# Velocity S-wave (km/s) = 3.73697 3.90184 3.82029
# Velocity P-wave (km/s) = 7.18140 7.33966 7.26096
#
# Compressibility (1/GPa) = 0.02305396
#
# Stress axis : x y z
#
# Youngs Moduli (GPa) = 40.23071 33.36774 74.34130
#
# Poissons Ratio (x) = 0.51124 0.25493
# Poissons Ratio (y) = 0.61639 0.28702
# Poissons Ratio (z) = 0.13796 0.12883
#
# Static dielectric constant tensor:
#      x y z
#    x 1.464100 0.000000 0.000000 
#    y 0.000000 1.416910 0.000000 
#    z 0.000000 0.000000 1.440330 
# 
# From -- ./inp_files/6237.got.cif
#   From: 2010.05.17/outbox.cif.g08.bks.cpg/sg72_4_cif.got.tgz:6237.got - 2010.06.03 17:03:01.
