data_PCOD9529750
_publ_section_title
;
Structure prediction by ZEFSAII (Michael W. Deem and Ramdas Pophale) SiO2 
 PCOD9529750
Probable space group: I B C A 
;
_chemical_formula_sum "Si O2"
_cell_formula_units_Z 104
_cell_length_a 18.378860
_cell_length_b 15.380254
_cell_length_c 14.505961
_cell_angle_alpha 90.000000
_cell_angle_beta 90.000000
_cell_angle_gamma 90.000000
_cell_volume 4100.422263
_symmetry_space_group_name_H-M "I B C A "
_symmetry_group_IT_number 73
_symmetry_cell_setting 'orthorhombic'
loop_
_space_group_symop_operation_xyz
x,y,z
-x,1/2-y,z
x,-y,1/2-z
1/2-x,y,-z
-x,-y,-z
x,1/2+y,-z
-x,y,1/2+z
1/2+x,-y,z
1/2+x,1/2+y,1/2+z
1/2-x,-y,1/2+z
1/2+x,1/2-y,-z
-x,1/2+y,1/2-z
1/2-x,1/2-y,1/2-z
1/2+x,y,1/2-z
1/2-x,1/2+y,z
x,1/2-y,1/2+z
loop_
_atom_site_type_symbol
_atom_site_label
_atom_site_fract_x
_atom_site_fract_y
_atom_site_fract_z
Si Si1 0.965145 0.610810 0.907198
Si Si2 0.262885 0.602629 0.142239
Si Si3 0.309291 0.578674 0.352289
Si Si4 0.604789 0.722240 0.581987
Si Si5 0.500000 0.750000 0.789079
Si Si6 0.859265 0.738373 0.620814
Si Si7 0.977408 0.433749 0.375503
O O1 0.898812 0.676296 0.889637
O O2 0.034830 0.670147 0.878991
O O3 0.972959 0.518001 0.860684
O O4 0.972496 0.589379 0.015626
O O5 0.279787 0.594787 0.250201
O O6 0.267126 0.503827 0.105798
O O7 0.324431 0.665533 0.099528
O O8 0.188217 0.652947 0.129462
O O9 0.311431 0.674419 0.396944
O O10 0.393714 0.547812 0.349221
O O11 0.593050 0.728288 0.471399
O O12 0.590900 0.741945 0.790573
O O13 0.506533 0.850608 0.823120
#
# Coordination Sequence:
#
# PCOD9529750 Si02
#       7
#    16  16  16  16   8  16  16
#     4  10  18  32  64  91 130 166 217 280 334 386
#     4  11  24  40  64  92 137 176 224 276 350 431
#     4  10  22  43  65  88 127 186 221 269 351 420
#     4  11  19  37  58 100 129 169 224 285 336 403
#     4  10  18  36  64  92 114 164 224 276 326 396
#     4  11  21  42  65  91 127 172 226 280 350 408
#     4  10  17  35  64  92 119 175 219 270 338 398
#
# _framework density 25.363240999999999
#
# number of rings (size 3 to 8) (size 9 to 14) (size 15 to 20)
#    0.000    1.538    6.154    0.923    0.000    0.000 
#    2.769    7.692    0.000    3.692    0.000    0.000 
#    0.000    0.000    0.000    0.000    0.000    0.000 
#
# Total GULP energy -290104.318895 kJ/mol
# GULP energy per Si atom -5578.929210 kJ/mol
# Density = 2.530551 g / cm^3
# Si number density = 25.363241 Si / 1000 Ang^3
#
#
#
# Elastic Constant Matrix: (Units=GPa)
#
#
# Indices 1 2 3 4 5 6 
#
# 1 52.4843 29.4555 1.0309 0.0000 0.0000 0.0000
# 2 29.4555 221.4146 29.3173 0.0000 0.0000 0.0000
# 3 1.0309 29.3173 71.5846 0.0000 0.0000 0.0000
# 4 0.0000 0.0000 0.0000 8.0832 0.0000 0.0000
# 5 0.0000 0.0000 0.0000 0.0000 31.9019 0.0000
# 6 0.0000 0.0000 0.0000 0.0000 0.0000 52.8232
#
#
#
# Elastic Compliance Matrix: (Units=1/GPa)
#
#
# Indices 1 2 3 4 5 6 
#
# 1 0.020642 -0.002862 0.000875 0.000000 0.000000 0.000000
# 2 -0.002862 0.005172 -0.002077 0.000000 0.000000 0.000000
# 3 0.000875 -0.002077 0.014808 0.000000 0.000000 0.000000
# 4 0.000000 0.000000 0.000000 0.123713 0.000000 0.000000
# 5 0.000000 0.000000 0.000000 0.000000 0.031346 0.000000
# 6 0.000000 0.000000 0.000000 0.000000 0.000000 0.018931
#
#
# Mechanical properties :
#
#
# Convention : Reuss Voigt Hill
#
# Bulk Modulus (GPa) = 30.77516 51.67678 41.22597
# Shear Modulus (GPa) = 21.40671 37.60698 29.50685
#
# Velocity S-wave (km/s) = 2.90833 3.85481 3.41452
# Velocity P-wave (km/s) = 4.84127 6.34284 5.64223
#
# Compressibility (1/GPa) = 0.03249374
#
# Stress axis : x y z
#
# Youngs Moduli (GPa) = 48.44415 193.34249 67.53316
#
# Poissons Ratio (x) = 0.55334 -0.05908
# Poissons Ratio (y) = 0.13865 0.14027
# Poissons Ratio (z) = -0.04238 0.40158
#
# Static dielectric constant tensor:
#      x y z
#    x 1.959380 0.000000 0.000000 
#    y 0.000000 2.089700 0.000000 
#    z 0.000000 0.000000 2.211140 
# 
# From -- ./inp_files/26518.got.cif
#   From: 2010.05.17/outbox.cif.g08.bks.cpg/sg73_14_cif.got.tgz:26518.got - 2010.06.03 17:35:07.
