data_PCOD9529864
_publ_section_title
;
Structure prediction by ZEFSAII (Michael W. Deem and Ramdas Pophale) SiO2 
 PCOD9529864
Probable space group: I B C A 
;
_chemical_formula_sum "Si O2"
_cell_formula_units_Z 88
_cell_length_a 11.024450
_cell_length_b 11.200335
_cell_length_c 25.258025
_cell_angle_alpha 90.000000
_cell_angle_beta 90.000000
_cell_angle_gamma 90.000000
_cell_volume 3118.798620
_symmetry_space_group_name_H-M "I B C A "
_symmetry_group_IT_number 73
_symmetry_cell_setting 'orthorhombic'
loop_
_space_group_symop_operation_xyz
x,y,z
-x,1/2-y,z
x,-y,1/2-z
1/2-x,y,-z
-x,-y,-z
x,1/2+y,-z
-x,y,1/2+z
1/2+x,-y,z
1/2+x,1/2+y,1/2+z
1/2-x,-y,1/2+z
1/2+x,1/2-y,-z
-x,1/2+y,1/2-z
1/2-x,1/2-y,1/2-z
1/2+x,y,1/2-z
1/2-x,1/2+y,z
x,1/2-y,1/2+z
loop_
_atom_site_type_symbol
_atom_site_label
_atom_site_fract_x
_atom_site_fract_y
_atom_site_fract_z
Si Si1 0.500000 0.250000 0.445744
Si Si2 0.759109 0.815679 0.097881
Si Si3 0.880914 0.389301 0.715609
Si Si4 0.637425 0.311758 0.697393
Si Si5 0.865693 0.898094 0.529464
Si Si6 0.972965 0.027430 0.375367
O O1 0.619008 0.204590 0.415311
O O2 0.457450 0.142912 0.484220
O O3 0.785419 0.768148 0.156622
O O4 0.822113 0.726237 0.056142
O O5 0.842372 0.934430 0.100302
O O6 0.929248 0.500000 0.750000
O O7 0.737563 0.412945 0.707572
O O8 0.884122 0.267049 0.749768
O O9 0.949161 0.410070 0.659937
O O10 0.473642 0.128825 0.665230
O O11 0.750000 0.955590 0.500000
O O12 0.070650 0.035160 0.422159
#
# Coordination Sequence:
#
# PCOD9529864 Si02
#       6
#     8  16  16  16  16  16
#     4  10  18  32  62 114 150 202 262 324 414 482
#     4  10  19  36  65 103 149 201 259 329 401 474
#     4  11  24  42  71 105 147 211 262 330 416 482
#     4  10  23  46  65 105 156 197 269 336 404 490
#     4   9  17  32  65 112 154 200 261 333 406 478
#     4  11  21  42  74 107 150 212 271 334 408 494
#
# _framework density 28.215992
#
# number of rings (size 3 to 8) (size 9 to 14) (size 15 to 20)
#    0.000    1.818    3.636    1.636    0.000    0.727 
#    3.273    3.636    0.000    9.818    9.455    0.000 
#    0.000    0.000    0.000   22.545    0.000    2.364 
#
# Total GULP energy -246181.154143 kJ/mol
# GULP energy per Si atom -5595.026231 kJ/mol
# Density = 2.815177 g / cm^3
# Si number density = 28.215992 Si / 1000 Ang^3
#
#
#
# Elastic Constant Matrix: (Units=GPa)
#
#
# Indices 1 2 3 4 5 6 
#
# 1 212.0309 37.8303 139.3941 0.0000 0.0000 0.0000
# 2 37.8303 91.8460 77.5901 0.0000 0.0000 0.0000
# 3 139.3941 77.5901 204.2602 0.0000 0.0000 0.0000
# 4 0.0000 0.0000 0.0000 70.3651 0.0000 0.0000
# 5 0.0000 0.0000 0.0000 0.0000 78.4765 0.0000
# 6 0.0000 0.0000 0.0000 0.0000 0.0000 30.9388
#
#
#
# Elastic Compliance Matrix: (Units=1/GPa)
#
#
# Indices 1 2 3 4 5 6 
#
# 1 0.008831 0.002141 -0.006840 0.000000 0.000000 0.000000
# 2 0.002141 0.016552 -0.007748 0.000000 0.000000 0.000000
# 3 -0.006840 -0.007748 0.012507 0.000000 0.000000 0.000000
# 4 0.000000 0.000000 0.000000 0.014212 0.000000 0.000000
# 5 0.000000 0.000000 0.000000 0.000000 0.012743 0.000000
# 6 0.000000 0.000000 0.000000 0.000000 0.000000 0.032322
#
#
# Mechanical properties :
#
#
# Convention : Reuss Voigt Hill
#
# Bulk Modulus (GPa) = 76.95395 113.08511 95.01953
# Shear Modulus (GPa) = 39.55975 52.84425 46.20200
#
# Velocity S-wave (km/s) = 3.74844 4.33234 4.05092
# Velocity P-wave (km/s) = 6.78725 8.07409 7.45847
#
# Compressibility (1/GPa) = 0.01299479
#
# Stress axis : x y z
#
# Youngs Moduli (GPa) = 113.23836 60.41722 79.95798
#
# Poissons Ratio (x) = -0.12934 0.54689
# Poissons Ratio (y) = -0.24241 0.61953
# Poissons Ratio (z) = 0.77452 0.46812
#
# Static dielectric constant tensor:
#      x y z
#    x 2.307360 0.000000 0.000000 
#    y 0.000000 2.299110 0.000000 
#    z 0.000000 0.000000 2.179830 
# 
# From -- ./inp_files/32483.got.cif
#   From: 2010.05.17/outbox.cif.g08.bks.cpg/sg73_17_cif.got.tgz:32483.got - 2010.06.03 17:35:07.
