data_PCOD9529809
_publ_section_title
;
Structure prediction by ZEFSAII (Michael W. Deem and Ramdas Pophale) SiO2 
 PCOD9529809
Probable space group: I B C A 
;
_chemical_formula_sum "Si O2"
_cell_formula_units_Z 80
_cell_length_a 14.004848
_cell_length_b 14.945136
_cell_length_c 16.507440
_cell_angle_alpha 90.000000
_cell_angle_beta 90.000000
_cell_angle_gamma 90.000000
_cell_volume 3455.079132
_symmetry_space_group_name_H-M "I B C A "
_symmetry_group_IT_number 73
_symmetry_cell_setting 'orthorhombic'
loop_
_space_group_symop_operation_xyz
x,y,z
-x,1/2-y,z
x,-y,1/2-z
1/2-x,y,-z
-x,-y,-z
x,1/2+y,-z
-x,y,1/2+z
1/2+x,-y,z
1/2+x,1/2+y,1/2+z
1/2-x,-y,1/2+z
1/2+x,1/2-y,-z
-x,1/2+y,1/2-z
1/2-x,1/2-y,1/2-z
1/2+x,y,1/2-z
1/2-x,1/2+y,z
x,1/2-y,1/2+z
loop_
_atom_site_type_symbol
_atom_site_label
_atom_site_fract_x
_atom_site_fract_y
_atom_site_fract_z
Si Si1 0.843695 0.221975 0.666567
Si Si2 0.865435 0.240556 0.489619
Si Si3 0.655477 0.339059 0.670455
Si Si4 0.599917 0.961675 0.968742
Si Si5 0.726363 0.976788 0.127700
O O1 0.896581 0.249195 0.583378
O O2 0.760759 0.294868 0.674765
O O3 0.896471 0.204166 0.751763
O O4 0.791709 0.125185 0.654124
O O5 0.750000 0.236197 0.500000
O O6 0.883726 0.311563 0.418340
O O7 0.903424 0.145324 0.459687
O O8 0.675216 0.444262 0.676438
O O9 0.669715 0.980291 0.043417
O O10 0.500000 0.000000 0.000000
O O11 0.661210 0.995261 0.890898
#
# Coordination Sequence:
#
# PCOD9529809 Si02
#       5
#    16  16  16  16  16
#     4   9  18  32  53  87 120 145 194 247 297 339
#     4   9  16  34  54  80 125 142 189 251 285 348
#     4  10  18  30  60  87 107 158 196 239 299 354
#     4  10  19  34  56  85 117 155 193 240 297 355
#     4  10  19  35  58  83 114 154 201 242 291 365
#
# _framework density 23.154318
#
# number of rings (size 3 to 8) (size 9 to 14) (size 15 to 20)
#    0.000    2.400    6.000    0.600    8.400    0.000 
#    0.000    1.000    0.000    9.600   10.400    0.000 
#    0.000    0.000    0.000    0.000    0.000    0.000 
#
# Total GULP energy -222710.582944 kJ/mol
# GULP energy per Si atom -5567.764574 kJ/mol
# Density = 2.310162 g / cm^3
# Si number density = 23.154318 Si / 1000 Ang^3
#
#
#
# Elastic Constant Matrix: (Units=GPa)
#
#
# Indices 1 2 3 4 5 6 
#
# 1 115.1360 5.3498 13.7490 0.0000 0.0000 0.0000
# 2 5.3498 84.5703 44.1835 0.0000 0.0000 0.0000
# 3 13.7490 44.1835 149.1781 0.0000 0.0000 0.0000
# 4 0.0000 0.0000 0.0000 34.4793 0.0000 0.0000
# 5 0.0000 0.0000 0.0000 0.0000 -7.2024 0.0000
# 6 0.0000 0.0000 0.0000 0.0000 0.0000 6.6388
#
#
#
# Elastic Compliance Matrix: (Units=1/GPa)
#
#
# Indices 1 2 3 4 5 6 
#
# 1 0.008784 -0.000157 -0.000763 0.000000 0.000000 0.000000
# 2 -0.000157 0.013992 -0.004130 0.000000 0.000000 0.000000
# 3 -0.000763 -0.004130 0.007997 0.000000 0.000000 0.000000
# 4 0.000000 0.000000 0.000000 0.029003 0.000000 0.000000
# 5 0.000000 0.000000 0.000000 0.000000 -0.138843 0.000000
# 6 0.000000 0.000000 0.000000 0.000000 0.000000 0.150631
#
#
# Mechanical properties :
#
#
# Convention : Reuss Voigt Hill
#
# Bulk Modulus (GPa) = 48.37191 52.82768 50.59979
# Shear Modulus (GPa) = 56.46292 25.82327 41.14309
#
# Velocity S-wave (km/s) = 4.94352 3.34319 4.21991
# Velocity P-wave (km/s) = 7.31581 6.14553 6.75605
#
# Compressibility (1/GPa) = 0.02067315
#
# Stress axis : x y z
#
# Youngs Moduli (GPa) = 113.84602 71.46971 125.04934
#
# Poissons Ratio (x) = 0.01122 0.09542
# Poissons Ratio (y) = 0.01787 0.51641
# Poissons Ratio (z) = 0.08687 0.29515
#
# Static dielectric constant tensor:
#      x y z
#    x 1.866080 0.000000 0.000000 
#    y 0.000000 1.877740 0.000000 
#    z 0.000000 0.000000 1.988720 
# 
# From -- ./inp_files/21864.got.cif
#   From: 2010.05.17/outbox.cif.g08.bks.cpg/sg73_11_cif.got.tgz:21864.got - 2010.06.03 17:35:07.
