data_PCOD9529371
_publ_section_title
;
Structure prediction by ZEFSAII (Michael W. Deem and Ramdas Pophale) SiO2 
 PCOD9529371
Probable space group: I B A M
;
_chemical_formula_sum "Si O2"
_cell_formula_units_Z 96
_cell_length_a 15.767492
_cell_length_b 15.010556
_cell_length_c 17.320024
_cell_angle_alpha 90.000000
_cell_angle_beta 90.000000
_cell_angle_gamma 90.000000
_cell_volume 4099.282871
_symmetry_space_group_name_H-M "I B A M"
_symmetry_group_IT_number 72
_symmetry_cell_setting 'orthorhombic'
loop_
_space_group_symop_operation_xyz
x,y,z
-x,-y,z
x,-y,1/2-z
-x,y,1/2-z
-x,-y,-z
x,y,-z
-x,y,1/2+z
x,-y,1/2+z
1/2+x,1/2+y,1/2+z
1/2-x,1/2-y,1/2+z
1/2+x,1/2-y,-z
1/2-x,1/2+y,-z
1/2-x,1/2-y,1/2-z
1/2+x,1/2+y,1/2-z
1/2-x,1/2+y,z
1/2+x,1/2-y,z
loop_
_atom_site_type_symbol
_atom_site_label
_atom_site_fract_x
_atom_site_fract_y
_atom_site_fract_z
Si Si1 0.142053 0.019964 0.343015
Si Si2 0.334366 0.172143 0.798701
Si Si3 0.840199 0.179442 0.375736
Si Si4 0.592431 0.027711 0.585998
Si Si5 0.806651 0.636918 0.124839
Si Si6 0.970808 0.175568 0.162926
O O1 0.220347 0.085501 0.357374
O O2 0.063663 0.081834 0.367914
O O3 0.136158 0.000000 0.250000
O O4 0.154705 0.927076 0.388609
O O5 0.231712 0.180288 0.806865
O O6 0.360443 0.090085 0.853179
O O7 0.350751 0.153505 0.708822
O O8 0.395265 0.252001 0.829144
O O9 0.800546 0.267014 0.415631
O O10 0.940327 0.204100 0.374399
O O11 0.587323 0.069203 0.500000
O O12 0.500000 0.000000 0.614159
O O13 0.639736 0.934655 0.580290
O O14 0.000000 0.156714 0.250000
#
# Coordination Sequence:
#
# PCOD9529371 Si02
#       6
#    16  16  16  16  16  16
#     4  12  20  33  56  89 132 172 203 257 320 381
#     4  12  22  40  64  97 132 164 213 271 319 378
#     4  12  23  36  58  96 135 166 212 263 319 387
#     4  11  26  44  64  91 126 170 220 265 323 388
#     4  12  21  40  65  94 128 166 211 266 324 380
#     4  12  22  33  58  96 134 172 207 258 323 384
#
# _framework density 23.418731999999999
#
# number of rings (size 3 to 8) (size 9 to 14) (size 15 to 20)
#    0.000    0.167    8.333    2.500    0.000    0.667 
#    0.000    0.833    0.000    1.000    0.000    1.167 
#    0.000    0.000    0.000    0.000    0.000    0.000 
#
# Total GULP energy -267382.089648 kJ/mol
# GULP energy per Si atom -5570.460201 kJ/mol
# Density = 2.336543 g / cm^3
# Si number density = 23.418732 Si / 1000 Ang^3
#
#
#
# Elastic Constant Matrix: (Units=GPa)
#
#
# Indices 1 2 3 4 5 6 
#
# 1 127.1006 41.3636 7.0150 0.0000 0.0000 0.0000
# 2 41.3636 187.1477 21.8456 0.0000 0.0000 0.0000
# 3 7.0150 21.8456 55.6888 0.0000 0.0000 0.0000
# 4 0.0000 0.0000 0.0000 -6.9428 0.0000 0.0000
# 5 0.0000 0.0000 0.0000 0.0000 -40.2946 0.0000
# 6 0.0000 0.0000 0.0000 0.0000 0.0000 50.1608
#
#
#
# Elastic Compliance Matrix: (Units=1/GPa)
#
#
# Indices 1 2 3 4 5 6 
#
# 1 0.008484 -0.001834 -0.000349 0.000000 0.000000 0.000000
# 2 -0.001834 0.005996 -0.002121 0.000000 0.000000 0.000000
# 3 -0.000349 -0.002121 0.018833 0.000000 0.000000 0.000000
# 4 0.000000 0.000000 0.000000 -0.144034 0.000000 0.000000
# 5 0.000000 0.000000 0.000000 0.000000 -0.024817 0.000000
# 6 0.000000 0.000000 0.000000 0.000000 0.000000 0.019936
#
#
# Mechanical properties :
#
#
# Convention : Reuss Voigt Hill
#
# Bulk Modulus (GPa) = 40.47921 56.70950 48.59435
# Shear Modulus (GPa) = -50.62897 20.56556 -15.03170
#
# Velocity S-wave (km/s) = -4.65467 2.96660 -2.53626
# Velocity P-wave (km/s) = 3.40080 6.00019 3.49549
#
# Compressibility (1/GPa) = 0.02470404
#
# Stress axis : x y z
#
# Youngs Moduli (GPa) = 117.86843 166.76623 53.09826
#
# Poissons Ratio (x) = 0.30592 0.01854
# Poissons Ratio (y) = 0.21622 0.11263
# Poissons Ratio (z) = 0.04115 0.35374
#
# Static dielectric constant tensor:
#      x y z
#    x 1.707510 0.000000 0.000000 
#    y 0.000000 1.970080 0.000000 
#    z 0.000000 0.000000 1.894240 
# 
# From -- ./inp_files/38045.got.cif
#   From: 2010.05.17/outbox.cif.g08.bks.cpg/sg72_20_cif.got.tgz:38045.got - 2010.06.03 17:03:01.
