data_PCOD9529565
_publ_section_title
;
Structure prediction by ZEFSAII (Michael W. Deem and Ramdas Pophale) SiO2 
 PCOD9529565
Probable space group: I B A M
;
_chemical_formula_sum "Si O2"
_cell_formula_units_Z 52
_cell_length_a 15.000000
_cell_length_b 18.000000
_cell_length_c 21.000000
_cell_angle_alpha 90.000000
_cell_angle_beta 90.000000
_cell_angle_gamma 90.000000
_cell_volume 5670.000000
_symmetry_space_group_name_H-M "I B A M"
_symmetry_group_IT_number 72
_symmetry_cell_setting 'orthorhombic'
loop_
_space_group_symop_operation_xyz
x,y,z
-x,-y,z
x,-y,1/2-z
-x,y,1/2-z
-x,-y,-z
x,y,-z
-x,y,1/2+z
x,-y,1/2+z
1/2+x,1/2+y,1/2+z
1/2-x,1/2-y,1/2+z
1/2+x,1/2-y,-z
1/2-x,1/2+y,-z
1/2-x,1/2-y,1/2-z
1/2+x,1/2+y,1/2-z
1/2-x,1/2+y,z
1/2+x,1/2-y,z
loop_
_atom_site_type_symbol
_atom_site_label
_atom_site_fract_x
_atom_site_fract_y
_atom_site_fract_z
Si Si1 0.089240 0.956132 0.619093
Si Si2 0.449239 0.656404 0.000000
Si Si3 0.768092 0.077887 0.924285
Si Si4 0.490707 0.768369 0.118128
Si Si5 0.314262 0.722405 0.343150
Si Si6 0.852113 0.182416 0.301530
Si Si7 0.060848 0.431333 0.076173
O O1 0.066414 0.906902 0.556590
O O2 0.125127 0.899231 0.672442
O O3 0.163928 0.016586 0.601543
O O4 0.000000 0.000000 0.638860
O O5 0.464315 0.720106 0.943829
O O6 0.784946 0.156202 0.889822
O O7 0.665717 0.054594 0.913467
O O8 0.782875 0.086931 0.000000
O O9 0.595288 0.758109 0.130698
O O10 0.434143 0.734210 0.176401
O O11 0.465977 0.853927 0.107988
O O12 0.235475 0.782517 0.335390
O O13 0.334679 0.688119 0.273534
O O14 0.000000 0.500000 0.097742
O O15 0.047762 0.422905 0.000000
#
# Coordination Sequence:
#
# PCOD9529565 Si02
#       7
#    16   8  16  16  16  16  16
#     4  11  23  39  66  93 134 164 204 263 321 385
#     4  10  21  38  61  98 129 156 207 254 318 378
#     4  11  23  39  64  97 128 164 202 263 321 376
#     4  11  21  39  66  92 127 166 210 261 319 372
#     4  11  24  41  68  89 128 168 215 265 307 379
#     4  10  24  45  61  94 124 170 220 259 312 378
#     4  10  22  40  60  91 132 164 205 257 315 377
#
# _framework density 9.1710759999999993
#
# number of rings (size 3 to 8) (size 9 to 14) (size 15 to 20)
#    0.000    1.385    3.077    2.538    5.385    0.615 
#    0.000    2.308    0.000    1.846    0.000    0.000 
#    0.000    0.000    0.000    0.000    0.000    0.000 
#
# Total GULP energy -289554.152649 kJ/mol
# GULP energy per Si atom -5568.349089 kJ/mol
# Density = 0.915020 g / cm^3
# Si number density = 9.171076 Si / 1000 Ang^3
#
#
#
# Elastic Constant Matrix: (Units=GPa)
#
#
# Indices 1 2 3 4 5 6 
#
# 1 121.0467 74.5838 39.5010 0.0000 0.0000 0.0000
# 2 74.5838 134.2329 46.1861 0.0000 0.0000 0.0000
# 3 39.5010 46.1861 54.7181 0.0000 0.0000 0.0000
# 4 0.0000 0.0000 0.0000 20.2034 0.0000 0.0000
# 5 0.0000 0.0000 0.0000 0.0000 15.2441 0.0000
# 6 0.0000 0.0000 0.0000 0.0000 0.0000 34.0838
#
#
#
# Elastic Compliance Matrix: (Units=1/GPa)
#
#
# Indices 1 2 3 4 5 6 
#
# 1 0.013392 -0.005799 -0.004773 0.000000 0.000000 0.000000
# 2 -0.005799 0.013010 -0.006795 0.000000 0.000000 0.000000
# 3 -0.004773 -0.006795 0.027457 0.000000 0.000000 0.000000
# 4 0.000000 0.000000 0.000000 0.049497 0.000000 0.000000
# 5 0.000000 0.000000 0.000000 0.000000 0.065599 0.000000
# 6 0.000000 0.000000 0.000000 0.000000 0.000000 0.029339
#
#
# Mechanical properties :
#
#
# Convention : Reuss Voigt Hill
#
# Bulk Modulus (GPa) = 52.28866 70.05994 61.17430
# Shear Modulus (GPa) = 20.88541 23.88804 22.38673
#
# Velocity S-wave (km/s) = 3.37806 3.61273 3.49737
# Velocity P-wave (km/s) = 6.61697 7.46201 7.05216
#
# Compressibility (1/GPa) = 0.01912460
#
# Stress axis : x y z
#
# Youngs Moduli (GPa) = 74.67334 76.86642 36.42103
#
# Poissons Ratio (x) = 0.44571 0.17384
# Poissons Ratio (y) = 0.43300 0.24748
# Poissons Ratio (z) = 0.35642 0.52231
#
# Static dielectric constant tensor:
#      x y z
#    x 1.646860 0.000000 0.000000 
#    y 0.000000 1.598900 0.000000 
#    z 0.000000 0.000000 1.615630 
# 
# From -- ./inp_files/38260.got.cif
#   From: 2010.05.17/outbox.ucp.g08.bks.cvg/sg72_20_cif.got.tgz:38260.got - 2010.06.11 16:33:07.
