data_PCOD9529112
_publ_section_title
;
Structure prediction by ZEFSAII (Michael W. Deem and Ramdas Pophale) SiO2 
 PCOD9529112
Probable space group: I B A M
;
_chemical_formula_sum "Si O2"
_cell_formula_units_Z 96
_cell_length_a 14.149922
_cell_length_b 20.814556
_cell_length_c 17.284091
_cell_angle_alpha 90.000000
_cell_angle_beta 90.000000
_cell_angle_gamma 90.000000
_cell_volume 5090.585561
_symmetry_space_group_name_H-M "I B A M"
_symmetry_group_IT_number 72
_symmetry_cell_setting 'orthorhombic'
loop_
_space_group_symop_operation_xyz
x,y,z
-x,-y,z
x,-y,1/2-z
-x,y,1/2-z
-x,-y,-z
x,y,-z
-x,y,1/2+z
x,-y,1/2+z
1/2+x,1/2+y,1/2+z
1/2-x,1/2-y,1/2+z
1/2+x,1/2-y,-z
1/2-x,1/2+y,-z
1/2-x,1/2-y,1/2-z
1/2+x,1/2+y,1/2-z
1/2-x,1/2+y,z
1/2+x,1/2-y,z
loop_
_atom_site_type_symbol
_atom_site_label
_atom_site_fract_x
_atom_site_fract_y
_atom_site_fract_z
Si Si1 0.033537 0.928637 0.339176
Si Si2 0.067120 0.439596 0.592368
Si Si3 0.022414 0.309607 0.158427
Si Si4 0.250644 0.436825 0.696581
Si Si5 0.582372 0.314080 0.590537
Si Si6 0.766378 0.687616 0.803471
O O1 0.146663 0.925388 0.340676
O O2 0.000000 0.918184 0.250000
O O3 0.983543 0.874754 0.389820
O O4 0.000000 0.000000 0.361123
O O5 0.079153 0.436900 0.500000
O O6 0.167340 0.445898 0.635048
O O7 0.000000 0.500000 0.611427
O O8 0.017091 0.375114 0.622571
O O9 0.135231 0.305181 0.151580
O O10 0.000000 0.308127 0.250000
O O11 0.971465 0.249653 0.118764
O O12 0.257868 0.500000 0.750000
O O13 0.227396 0.375204 0.749442
O O14 0.602405 0.310554 0.500000
O O15 0.678165 0.319911 0.639619
O O16 0.750000 0.750000 0.750000
#
# Coordination Sequence:
#
# PCOD9529112 Si02
#       6
#    16  16  16  16  16  16
#     4  11  21  42  68  96 127 169 220 268 311 384
#     4  11  26  44  64  99 140 168 209 274 332 380
#     4  12  23  42  70  95 125 172 222 264 312 388
#     4  12  22  39  71  97 124 173 225 260 314 387
#     4  12  26  42  63  97 137 166 207 273 335 379
#     4  12  23  40  67  96 122 169 222 264 310 387
#
# _framework density 18.858340999999999
#
# number of rings (size 3 to 8) (size 9 to 14) (size 15 to 20)
#    0.000    0.333    6.667    3.000    0.000    2.333 
#    0.000    4.167    0.000    0.000    0.000    0.000 
#    0.000    0.000    0.000    0.000    0.000    0.000 
#
# Total GULP energy -268651.614902 kJ/mol
# GULP energy per Si atom -5596.908644 kJ/mol
# Density = 1.881542 g / cm^3
# Si number density = 18.858341 Si / 1000 Ang^3
#
#
#
# Elastic Constant Matrix: (Units=GPa)
#
#
# Indices 1 2 3 4 5 6 
#
# 1 179.4543 27.1258 63.3223 0.0000 0.0000 0.0000
# 2 27.1258 105.5816 56.0986 0.0000 0.0000 0.0000
# 3 63.3223 56.0986 110.9984 0.0001 0.0000 0.0000
# 4 0.0000 0.0000 0.0001 -6.9619 0.0000 0.0000
# 5 0.0000 0.0000 0.0000 0.0000 28.4617 0.0000
# 6 0.0000 0.0000 0.0000 0.0000 0.0000 31.0208
#
#
#
# Elastic Compliance Matrix: (Units=1/GPa)
#
#
# Indices 1 2 3 4 5 6 
#
# 1 0.006992 0.000442 -0.004212 0.000000 0.000000 0.000000
# 2 0.000442 0.012976 -0.006810 0.000000 0.000000 0.000000
# 3 -0.004212 -0.006810 0.014854 0.000000 0.000000 0.000000
# 4 0.000000 0.000000 0.000000 -0.143639 0.000000 0.000000
# 5 0.000000 0.000000 0.000000 0.000000 0.035135 0.000000
# 6 0.000000 0.000000 0.000000 0.000000 0.000000 0.032236
#
#
# Mechanical properties :
#
#
# Convention : Reuss Voigt Hill
#
# Bulk Modulus (GPa) = 73.20075 76.56975 74.88525
# Shear Modulus (GPa) = -317.84804 27.13663 -145.35571
#
# Velocity S-wave (km/s) = -12.99658 3.79749 -8.78891
# Velocity P-wave (km/s) = 13.64970 7.74072 7.94970
#
# Compressibility (1/GPa) = 0.01366106
#
# Stress axis : x y z
#
# Youngs Moduli (GPa) = 143.02223 77.06333 67.32282
#
# Poissons Ratio (x) = -0.03403 0.28356
# Poissons Ratio (y) = -0.06315 0.45848
# Poissons Ratio (z) = 0.60240 0.52481
#
# Static dielectric constant tensor:
#      x y z
#    x 1.644220 0.000000 0.000000 
#    y 0.000000 1.630770 0.000000 
#    z 0.000000 0.000000 1.624970 
# 
# From -- ./inp_files/21824.got.cif
#   From: 2010.05.17/outbox.cif.g08.bks.cpg/sg72_11_cif.got.tgz:21824.got - 2010.06.03 17:03:01.
