data_PCOD9529964
_publ_section_title
;
Structure prediction by ZEFSAII (Michael W. Deem and Ramdas Pophale) SiO2 
 PCOD9529964
Probable space group: I B C A 
;
_chemical_formula_sum "Si O2"
_cell_formula_units_Z 72
_cell_length_a 14.119957
_cell_length_b 9.559234
_cell_length_c 23.831123
_cell_angle_alpha 90.000000
_cell_angle_beta 90.000000
_cell_angle_gamma 90.000000
_cell_volume 3216.629015
_symmetry_space_group_name_H-M "I B C A "
_symmetry_group_IT_number 73
_symmetry_cell_setting 'orthorhombic'
loop_
_space_group_symop_operation_xyz
x,y,z
-x,1/2-y,z
x,-y,1/2-z
1/2-x,y,-z
-x,-y,-z
x,1/2+y,-z
-x,y,1/2+z
1/2+x,-y,z
1/2+x,1/2+y,1/2+z
1/2-x,-y,1/2+z
1/2+x,1/2-y,-z
-x,1/2+y,1/2-z
1/2-x,1/2-y,1/2-z
1/2+x,y,1/2-z
1/2-x,1/2+y,z
x,1/2-y,1/2+z
loop_
_atom_site_type_symbol
_atom_site_label
_atom_site_fract_x
_atom_site_fract_y
_atom_site_fract_z
Si Si1 0.603662 0.769751 0.867924
Si Si2 0.566218 0.014217 0.946549
Si Si3 0.123657 0.553506 0.895214
Si Si4 0.762121 0.625551 0.292471
Si Si5 0.250000 0.998158 0.000000
O O1 0.500000 0.750000 0.841987
O O2 0.590803 0.859191 0.924434
O O3 0.639166 0.613186 0.881116
O O4 0.666701 0.868598 0.829134
O O5 0.488752 0.077345 0.904075
O O6 0.500000 0.000000 0.000000
O O7 0.666022 0.080090 0.965381
O O8 0.159639 0.635201 0.840959
O O9 0.188484 0.576436 0.951078
O O10 0.779058 0.500000 0.250000
O O11 0.750000 0.750000 0.250000
#
# Coordination Sequence:
#
# PCOD9529964 Si02
#       5
#    16  16  16  16   8
#     4  10  21  42  65  94 136 182 239 301 372 441
#     4   9  19  36  65  98 137 181 227 289 358 456
#     4  10  21  39  64  99 137 183 236 295 374 441
#     4  12  24  44  70  97 136 193 255 312 373 440
#     4  10  18  36  66  98 136 178 220 290 370 444
#
# _framework density 22.383682
#
# number of rings (size 3 to 8) (size 9 to 14) (size 15 to 20)
#    0.000    1.778    4.444    0.000    0.000    0.889 
#    8.000    0.000   14.667    0.000    0.000    0.000 
#    0.000    0.000    0.000    0.000    0.000    0.000 
#
# Total GULP energy -200535.188790 kJ/mol
# GULP energy per Si atom -5570.421911 kJ/mol
# Density = 2.233274 g / cm^3
# Si number density = 22.383682 Si / 1000 Ang^3
#
#
#
# Elastic Constant Matrix: (Units=GPa)
#
#
# Indices 1 2 3 4 5 6 
#
# 1 178.2206 -3.8964 48.8520 0.0000 0.0000 0.0000
# 2 -3.8964 36.8862 27.4346 0.0000 0.0000 0.0000
# 3 48.8520 27.4346 129.8249 0.0000 0.0000 0.0000
# 4 0.0000 0.0000 0.0000 21.3612 0.0000 0.0000
# 5 0.0000 0.0000 0.0000 0.0000 32.0137 0.0000
# 6 0.0000 0.0000 0.0000 0.0000 0.0000 18.6897
#
#
#
# Elastic Compliance Matrix: (Units=1/GPa)
#
#
# Indices 1 2 3 4 5 6 
#
# 1 0.006522 0.002983 -0.003084 0.000000 0.000000 0.000000
# 2 0.002983 0.033530 -0.008208 0.000000 0.000000 0.000000
# 3 -0.003084 -0.008208 0.010598 0.000000 0.000000 0.000000
# 4 0.000000 0.000000 0.000000 0.046814 0.000000 0.000000
# 5 0.000000 0.000000 0.000000 0.000000 0.031237 0.000000
# 6 0.000000 0.000000 0.000000 0.000000 0.000000 0.053506
#
#
# Mechanical properties :
#
#
# Convention : Reuss Voigt Hill
#
# Bulk Modulus (GPa) = 29.38509 54.41246 41.89877
# Shear Modulus (GPa) = 23.79042 32.58235 28.18639
#
# Velocity S-wave (km/s) = 3.26367 3.81941 3.55242
# Velocity P-wave (km/s) = 5.23053 6.61909 5.96535
#
# Compressibility (1/GPa) = 0.03403087
#
# Stress axis : x y z
#
# Youngs Moduli (GPa) = 153.33399 29.82369 94.35863
#
# Poissons Ratio (x) = -0.08896 0.29104
# Poissons Ratio (y) = -0.45739 0.77451
# Poissons Ratio (z) = 0.47295 0.24480
#
# Static dielectric constant tensor:
#      x y z
#    x 1.844190 0.000000 0.000000 
#    y 0.000000 1.882040 0.000000 
#    z 0.000000 0.000000 1.730300 
# 
# From -- ./inp_files/10636.got.cif
#   From: 2010.05.17/outbox.cif.g08.bks.cpg/sg73_6_cif.got.tgz:10636.got - 2010.06.03 17:35:07.
