data_PCOD9529398
_publ_section_title
;
Structure prediction by ZEFSAII (Michael W. Deem and Ramdas Pophale) SiO2 
 PCOD9529398
Probable space group: I B A M
;
_chemical_formula_sum "Si O2"
_cell_formula_units_Z 96
_cell_length_a 22.583238
_cell_length_b 15.039748
_cell_length_c 14.032938
_cell_angle_alpha 90.000000
_cell_angle_beta 90.000000
_cell_angle_gamma 90.000000
_cell_volume 4766.234186
_symmetry_space_group_name_H-M "I B A M"
_symmetry_group_IT_number 72
_symmetry_cell_setting 'orthorhombic'
loop_
_space_group_symop_operation_xyz
x,y,z
-x,-y,z
x,-y,1/2-z
-x,y,1/2-z
-x,-y,-z
x,y,-z
-x,y,1/2+z
x,-y,1/2+z
1/2+x,1/2+y,1/2+z
1/2-x,1/2-y,1/2+z
1/2+x,1/2-y,-z
1/2-x,1/2+y,-z
1/2-x,1/2-y,1/2-z
1/2+x,1/2+y,1/2-z
1/2-x,1/2+y,z
1/2+x,1/2-y,z
loop_
_atom_site_type_symbol
_atom_site_label
_atom_site_fract_x
_atom_site_fract_y
_atom_site_fract_z
Si Si1 0.337635 0.528546 0.000000
Si Si2 0.061351 0.761014 0.804727
Si Si3 0.905799 0.841859 0.500000
Si Si4 0.138279 0.909821 0.289914
Si Si5 0.226383 0.228264 0.500000
Si Si6 0.206058 0.436227 0.500000
Si Si7 0.132350 0.420148 0.307999
Si Si8 0.256321 0.844855 0.800071
O O1 0.350451 0.580336 0.098040
O O2 0.380393 0.442166 0.000000
O O3 0.266960 0.507389 0.000000
O O4 0.102805 0.822014 0.737881
O O5 0.091193 0.665427 0.823689
O O6 0.000000 0.750592 0.750000
O O7 0.059277 0.814389 0.904902
O O8 0.844362 0.786583 0.500000
O O9 0.199780 0.901787 0.231824
O O10 0.108396 0.000000 0.250000
O O11 0.231679 0.334784 0.500000
O O12 0.253858 0.181151 0.590800
O O13 0.165307 0.446745 0.406434
O O14 0.101622 0.500000 0.250000
O O15 0.185044 0.390165 0.237534
O O16 0.250000 0.750000 0.750000
#
# Coordination Sequence:
#
# PCOD9529398 Si02
#       8
#     8  16   8  16   8   8  16  16
#     4  12  24  35  69 111 147 177 221 276 359 436
#     4  12  27  49  72  93 135 190 244 296 346 399
#     4  12  22  47  72  98 137 188 232 284 353 420
#     4  12  22  41  64 103 143 175 223 286 349 426
#     4  12  20  36  70  96 143 189 223 261 354 434
#     4  12  22  40  67 105 144 186 216 278 359 444
#     4  12  26  44  68 104 142 178 236 289 352 423
#     4  12  20  37  65 102 141 179 217 279 358 428
#
# _framework density 20.141687999999998
#
# number of rings (size 3 to 8) (size 9 to 14) (size 15 to 20)
#    0.000    0.000   10.000    0.500    2.333    1.333 
#    0.000    3.333    0.000    2.000    0.000    0.000 
#    0.000    0.000    0.000    0.000    0.000    0.000 
#
# Total GULP energy -268470.828945 kJ/mol
# GULP energy per Si atom -5593.142270 kJ/mol
# Density = 2.009584 g / cm^3
# Si number density = 20.141688 Si / 1000 Ang^3
#
#
#
# Elastic Constant Matrix: (Units=GPa)
#
#
# Indices 1 2 3 4 5 6 
#
# 1 61.5445 -2.5507 27.5665 0.0000 0.0000 0.0000
# 2 -2.5507 89.2577 36.8358 0.0000 0.0000 0.0000
# 3 27.5665 36.8358 198.2624 0.0000 0.0000 0.0000
# 4 0.0000 0.0000 0.0000 -0.3652 0.0000 0.0000
# 5 0.0000 0.0000 0.0000 0.0000 27.7178 0.0000
# 6 0.0000 0.0000 0.0000 0.0000 0.0000 2.5515
#
#
#
# Elastic Compliance Matrix: (Units=1/GPa)
#
#
# Indices 1 2 3 4 5 6 
#
# 1 0.017545 0.001633 -0.002743 0.000000 0.000000 0.000000
# 2 0.001633 0.012286 -0.002510 0.000000 0.000000 0.000000
# 3 -0.002743 -0.002510 0.005891 0.000000 0.000000 0.000000
# 4 0.000000 0.000000 0.000000 -2.738176 0.000000 0.000000
# 5 0.000000 0.000000 0.000000 0.000000 0.036078 0.000000
# 6 0.000000 0.000000 0.000000 0.000000 0.000000 0.391919
#
#
# Mechanical properties :
#
#
# Convention : Reuss Voigt Hill
#
# Bulk Modulus (GPa) = 35.10805 52.52977 43.81891
# Shear Modulus (GPa) = -2.21462 25.12835 11.45686
#
# Velocity S-wave (km/s) = -1.04972 3.53594 2.38757
# Velocity P-wave (km/s) = 3.99990 6.54272 5.42247
#
# Compressibility (1/GPa) = 0.02848350
#
# Stress axis : x y z
#
# Youngs Moduli (GPa) = 56.99736 81.39384 169.73650
#
# Poissons Ratio (x) = -0.13294 0.46557
# Poissons Ratio (y) = -0.09310 0.42600
# Poissons Ratio (z) = 0.15634 0.20428
#
# Static dielectric constant tensor:
#      x y z
#    x 1.707510 0.000000 0.000000 
#    y 0.000000 1.792360 0.000000 
#    z 0.000000 0.000000 1.683630 
# 
# From -- ./inp_files/24231.got.cif
#   From: 2010.05.17/outbox.cif.g08.bks.cpg/sg72_13_cif.got.tgz:24231.got - 2010.06.03 17:03:01.
