data_PCOD9529152
_publ_section_title
;
Structure prediction by ZEFSAII (Michael W. Deem and Ramdas Pophale) SiO2 
 PCOD9529152
Probable space group: I B A M
;
_chemical_formula_sum "Si O2"
_cell_formula_units_Z 64
_cell_length_a 12.094302
_cell_length_b 11.427772
_cell_length_c 21.447627
_cell_angle_alpha 90.000000
_cell_angle_beta 90.000000
_cell_angle_gamma 90.000000
_cell_volume 2964.296383
_symmetry_space_group_name_H-M "I B A M"
_symmetry_group_IT_number 72
_symmetry_cell_setting 'orthorhombic'
loop_
_space_group_symop_operation_xyz
x,y,z
-x,-y,z
x,-y,1/2-z
-x,y,1/2-z
-x,-y,-z
x,y,-z
-x,y,1/2+z
x,-y,1/2+z
1/2+x,1/2+y,1/2+z
1/2-x,1/2-y,1/2+z
1/2+x,1/2-y,-z
1/2-x,1/2+y,-z
1/2-x,1/2-y,1/2-z
1/2+x,1/2+y,1/2-z
1/2-x,1/2+y,z
1/2+x,1/2-y,z
loop_
_atom_site_type_symbol
_atom_site_label
_atom_site_fract_x
_atom_site_fract_y
_atom_site_fract_z
Si Si1 0.969687 0.310756 0.866906
Si Si2 0.690000 0.528054 0.500000
Si Si3 0.819484 0.475858 0.374613
Si Si4 0.980177 0.187445 0.000000
Si Si5 0.090797 0.925675 0.186156
O O1 0.086507 0.377163 0.871180
O O2 0.877755 0.406894 0.849629
O O3 0.955505 0.258868 0.936738
O O4 0.957308 0.204327 0.818547
O O5 0.770709 0.514020 0.441297
O O6 0.608059 0.640900 0.500000
O O7 0.604230 0.420551 0.500000
O O8 0.712564 0.428014 0.340122
O O9 0.100645 0.000000 0.250000
O O10 0.000000 0.000000 0.146840
#
# Coordination Sequence:
#
# PCOD9529152 Si02
#       5
#    16   8  16   8  16
#     4  11  25  44  69 106 143 182 236 294 347 426
#     4  11  22  37  68 105 143 188 230 277 355 429
#     4  11  25  44  70 106 142 185 235 291 357 416
#     4  11  22  37  68 105 147 184 228 283 349 429
#     4  11  26  47  71  99 134 185 240 291 353 416
#
# _framework density 21.590282999999999
#
# number of rings (size 3 to 8) (size 9 to 14) (size 15 to 20)
#    0.000    1.000    2.500    3.000    7.000    5.000 
#    4.500    1.250    0.000    0.000    0.000    0.000 
#    0.000    0.000    0.000    0.000    0.000    0.000 
#
# Total GULP energy -178611.095716 kJ/mol
# GULP energy per Si atom -5581.596741 kJ/mol
# Density = 2.154114 g / cm^3
# Si number density = 21.590283 Si / 1000 Ang^3
#
#
#
# Elastic Constant Matrix: (Units=GPa)
#
#
# Indices 1 2 3 4 5 6 
#
# 1 117.4042 47.4701 -5.2109 0.0000 0.0000 0.0000
# 2 47.4701 145.7581 25.2519 0.0000 0.0000 0.0000
# 3 -5.2109 25.2519 57.9446 0.0000 0.0000 0.0000
# 4 0.0000 0.0000 0.0000 28.1394 0.0000 0.0000
# 5 0.0000 0.0000 0.0000 0.0000 7.5186 0.0000
# 6 0.0000 0.0000 0.0000 0.0000 0.0000 21.7203
#
#
#
# Elastic Compliance Matrix: (Units=1/GPa)
#
#
# Indices 1 2 3 4 5 6 
#
# 1 0.010145 -0.003745 0.002544 0.000000 0.000000 0.000000
# 2 -0.003745 0.008803 -0.004173 0.000000 0.000000 0.000000
# 3 0.002544 -0.004173 0.019305 0.000000 0.000000 0.000000
# 4 0.000000 0.000000 0.000000 0.035537 0.000000 0.000000
# 5 0.000000 0.000000 0.000000 0.000000 0.133003 0.000000
# 6 0.000000 0.000000 0.000000 0.000000 0.000000 0.046040
#
#
# Mechanical properties :
#
#
# Convention : Reuss Voigt Hill
#
# Bulk Modulus (GPa) = 36.35581 50.68101 43.51841
# Shear Modulus (GPa) = 18.33183 28.38204 23.35694
#
# Velocity S-wave (km/s) = 2.91706 3.62964 3.29268
# Velocity P-wave (km/s) = 5.31236 6.41020 5.88693
#
# Compressibility (1/GPa) = 0.02750592
#
# Stress axis : x y z
#
# Youngs Moduli (GPa) = 98.57491 113.59506 51.79924
#
# Poissons Ratio (x) = 0.42537 -0.13179
# Poissons Ratio (y) = 0.36913 0.21617
# Poissons Ratio (z) = -0.25079 0.47405
#
# Static dielectric constant tensor:
#      x y z
#    x 1.829940 0.000000 0.000000 
#    y 0.000000 1.795830 0.000000 
#    z 0.000000 0.000000 1.897030 
# 
# From -- ./inp_files/42960.got.cif
#   From: 2010.05.17/outbox.cif.g08.bks.cpg/sg72_22_cif.got.tgz:42960.got - 2010.06.03 17:03:01.
