data_PCOD9529143
_publ_section_title
;
Structure prediction by ZEFSAII (Michael W. Deem and Ramdas Pophale) SiO2 
 PCOD9529143
Probable space group: I B A M
;
_chemical_formula_sum "Si O2"
_cell_formula_units_Z 96
_cell_length_a 19.883617
_cell_length_b 12.420679
_cell_length_c 19.721459
_cell_angle_alpha 90.000000
_cell_angle_beta 90.000000
_cell_angle_gamma 90.000000
_cell_volume 4870.569762
_symmetry_space_group_name_H-M "I B A M"
_symmetry_group_IT_number 72
_symmetry_cell_setting 'orthorhombic'
loop_
_space_group_symop_operation_xyz
x,y,z
-x,-y,z
x,-y,1/2-z
-x,y,1/2-z
-x,-y,-z
x,y,-z
-x,y,1/2+z
x,-y,1/2+z
1/2+x,1/2+y,1/2+z
1/2-x,1/2-y,1/2+z
1/2+x,1/2-y,-z
1/2-x,1/2+y,-z
1/2-x,1/2-y,1/2-z
1/2+x,1/2+y,1/2-z
1/2-x,1/2+y,z
1/2+x,1/2-y,z
loop_
_atom_site_type_symbol
_atom_site_label
_atom_site_fract_x
_atom_site_fract_y
_atom_site_fract_z
Si Si1 0.797834 0.548190 0.175842
Si Si2 0.122437 0.744520 0.379632
Si Si3 0.833380 0.156043 0.125752
Si Si4 0.396812 0.554617 0.500000
Si Si5 0.034472 0.819862 0.500000
Si Si6 0.579993 0.624386 0.752227
Si Si7 0.759615 0.358110 0.924551
O O1 0.812480 0.500000 0.250000
O O2 0.855281 0.624637 0.143441
O O3 0.729963 0.620584 0.172194
O O4 0.779068 0.448359 0.128620
O O5 0.061936 0.757299 0.433600
O O6 0.106338 0.810488 0.311763
O O7 0.187503 0.802414 0.412385
O O8 0.854111 0.070156 0.068518
O O9 0.893913 0.172662 0.177552
O O10 0.812255 0.261635 0.085567
O O11 0.455950 0.646019 0.500000
O O12 0.429616 0.437175 0.500000
O O13 0.603436 0.500000 0.750000
O O14 0.500000 0.624166 0.750000
O O15 0.762235 0.402893 0.000000
#
# Coordination Sequence:
#
# PCOD9529143 Si02
#       7
#    16  16  16   8   8  16  16
#     4  11  24  39  63  91 124 163 205 257 312 367
#     4  11  23  39  62  91 126 160 205 253 310 366
#     4  11  22  37  60  88 125 157 200 250 306 367
#     4  11  22  37  59  89 125 161 205 248 310 365
#     4  11  22  37  59  91 123 163 203 256 302 373
#     4  11  22  38  61  89 120 161 201 247 304 362
#     4  11  22  37  61  91 124 161 199 246 309 367
#
# _framework density 19.710218999999999
#
# number of rings (size 3 to 8) (size 9 to 14) (size 15 to 20)
#    0.000    1.000    1.667    6.500    2.333    5.333 
#    0.000    0.000    0.000   10.500    0.000    0.000 
#    0.000    0.000    0.000    0.000    0.000    0.000 
#
# Total GULP energy -268309.695404 kJ/mol
# GULP energy per Si atom -5589.785321 kJ/mol
# Density = 1.966536 g / cm^3
# Si number density = 19.710219 Si / 1000 Ang^3
#
#
#
# Elastic Constant Matrix: (Units=GPa)
#
#
# Indices 1 2 3 4 5 6 
#
# 1 52.9245 5.9187 11.4831 0.0000 0.0000 0.0000
# 2 5.9187 55.6188 11.7588 0.0000 0.0000 0.0000
# 3 11.4831 11.7588 124.1431 0.0000 0.0000 0.0000
# 4 0.0000 0.0000 0.0000 18.2306 0.0000 0.0000
# 5 0.0000 0.0000 0.0000 0.0000 25.7896 0.0000
# 6 0.0000 0.0000 0.0000 0.0000 0.0000 33.7658
#
#
#
# Elastic Compliance Matrix: (Units=1/GPa)
#
#
# Indices 1 2 3 4 5 6 
#
# 1 0.019442 -0.001723 -0.001635 0.000000 0.000000 0.000000
# 2 -0.001723 0.018500 -0.001593 0.000000 0.000000 0.000000
# 3 -0.001635 -0.001593 0.008357 0.000000 0.000000 0.000000
# 4 0.000000 0.000000 0.000000 0.054853 0.000000 0.000000
# 5 0.000000 0.000000 0.000000 0.000000 0.038775 0.000000
# 6 0.000000 0.000000 0.000000 0.000000 0.000000 0.029616
#
#
# Mechanical properties :
#
#
# Convention : Reuss Voigt Hill
#
# Bulk Modulus (GPa) = 27.47500 32.33420 29.90460
# Shear Modulus (GPa) = 26.09899 29.12557 27.61228
#
# Velocity S-wave (km/s) = 3.64281 3.84824 3.74694
# Velocity P-wave (km/s) = 5.62701 6.01545 5.82447
#
# Compressibility (1/GPa) = 0.03639672
#
# Stress axis : x y z
#
# Youngs Moduli (GPa) = 51.43413 54.05496 119.65520
#
# Poissons Ratio (x) = 0.09315 0.19566
# Poissons Ratio (y) = 0.08863 0.19060
# Poissons Ratio (z) = 0.08410 0.08610
#
# Static dielectric constant tensor:
#      x y z
#    x 1.707100 0.000000 0.000000 
#    y 0.000000 1.703150 0.000000 
#    z 0.000000 0.000000 1.692080 
# 
# From -- ./inp_files/29517.got.cif
#   From: 2010.05.17/outbox.cif.g08.bks.cpg/sg72_15_cif.got.tgz:29517.got - 2010.06.03 17:03:01.
