data_PCOD9529177
_publ_section_title
;
Structure prediction by ZEFSAII (Michael W. Deem and Ramdas Pophale) SiO2 
 PCOD9529177
Probable space group: I B A M
;
_chemical_formula_sum "Si O2"
_cell_formula_units_Z 96
_cell_length_a 18.998196
_cell_length_b 9.266425
_cell_length_c 26.823200
_cell_angle_alpha 90.000000
_cell_angle_beta 90.000000
_cell_angle_gamma 90.000000
_cell_volume 4722.099857
_symmetry_space_group_name_H-M "I B A M"
_symmetry_group_IT_number 72
_symmetry_cell_setting 'orthorhombic'
loop_
_space_group_symop_operation_xyz
x,y,z
-x,-y,z
x,-y,1/2-z
-x,y,1/2-z
-x,-y,-z
x,y,-z
-x,y,1/2+z
x,-y,1/2+z
1/2+x,1/2+y,1/2+z
1/2-x,1/2-y,1/2+z
1/2+x,1/2-y,-z
1/2-x,1/2+y,-z
1/2-x,1/2-y,1/2-z
1/2+x,1/2+y,1/2-z
1/2-x,1/2+y,z
1/2+x,1/2-y,z
loop_
_atom_site_type_symbol
_atom_site_label
_atom_site_fract_x
_atom_site_fract_y
_atom_site_fract_z
Si Si1 0.277616 0.190880 0.119973
Si Si2 0.382718 0.338117 0.804819
Si Si3 0.809327 0.410126 0.442813
Si Si4 0.527641 0.835452 0.446232
Si Si5 0.012030 0.671718 0.336913
Si Si6 0.645897 0.664785 0.693603
O O1 0.338471 0.270153 0.150410
O O2 0.245296 0.293045 0.077477
O O3 0.304813 0.045632 0.094201
O O4 0.214962 0.163094 0.159650
O O5 0.456614 0.255681 0.802912
O O6 0.341706 0.317948 0.752589
O O7 0.391102 0.508871 0.812457
O O8 0.794355 0.452494 0.500000
O O9 0.887925 0.344819 0.442177
O O10 0.508526 0.768223 0.500000
O O11 0.499905 0.775411 0.394100
O O12 0.500000 0.000000 0.447803
O O13 0.091494 0.712366 0.323006
O O14 0.000000 0.500000 0.334180
#
# Coordination Sequence:
#
# PCOD9529177 Si02
#       6
#    16  16  16  16  16  16
#     4  12  22  43  62  94 126 166 211 266 314 381
#     4  11  25  41  64  88 128 172 212 260 320 379
#     4  11  23  40  66  93 126 166 206 259 324 382
#     4   9  18  35  60  89 120 156 198 250 310 369
#     4  11  22  40  65  95 125 163 211 263 313 378
#     4  11  24  43  61  90 129 172 211 259 322 375
#
# _framework density 20.329937999999999
#
# number of rings (size 3 to 8) (size 9 to 14) (size 15 to 20)
#    0.000    1.167    3.333    4.000    0.000    2.667 
#    0.000    0.833    0.000    1.000    0.000    0.000 
#    0.000    0.000    0.000    0.000    0.000    0.000 
#
# Total GULP energy -268178.539638 kJ/mol
# GULP energy per Si atom -5587.052909 kJ/mol
# Density = 2.028367 g / cm^3
# Si number density = 20.329938 Si / 1000 Ang^3
#
#
#
# Elastic Constant Matrix: (Units=GPa)
#
#
# Indices 1 2 3 4 5 6 
#
# 1 52.5807 6.6220 16.4606 0.0000 0.0000 0.0000
# 2 6.6220 62.3176 15.4502 0.0000 0.0000 0.0000
# 3 16.4606 15.4502 103.4793 0.0000 0.0000 0.0000
# 4 0.0000 0.0000 0.0000 31.3754 0.0000 0.0000
# 5 0.0000 0.0000 0.0000 0.0000 43.6304 0.0000
# 6 0.0000 0.0000 0.0000 0.0000 0.0000 16.7152
#
#
#
# Elastic Compliance Matrix: (Units=1/GPa)
#
#
# Indices 1 2 3 4 5 6 
#
# 1 0.020132 -0.001397 -0.002994 0.000000 0.000000 0.000000
# 2 -0.001397 0.016761 -0.002280 0.000000 0.000000 0.000000
# 3 -0.002994 -0.002280 0.010480 0.000000 0.000000 0.000000
# 4 0.000000 0.000000 0.000000 0.031872 0.000000 0.000000
# 5 0.000000 0.000000 0.000000 0.000000 0.022920 0.000000
# 6 0.000000 0.000000 0.000000 0.000000 0.000000 0.059826
#
#
# Mechanical properties :
#
#
# Convention : Reuss Voigt Hill
#
# Bulk Modulus (GPa) = 29.38532 32.82701 31.10616
# Shear Modulus (GPa) = 26.78439 30.33386 28.55913
#
# Velocity S-wave (km/s) = 3.63366 3.86693 3.75211
# Velocity P-wave (km/s) = 5.66482 6.00997 5.83995
#
# Compressibility (1/GPa) = 0.03403060
#
# Stress axis : x y z
#
# Youngs Moduli (GPa) = 49.67330 59.66363 95.41577
#
# Poissons Ratio (x) = 0.08335 0.28565
# Poissons Ratio (y) = 0.06939 0.21757
# Poissons Ratio (z) = 0.14871 0.13605
#
# Static dielectric constant tensor:
#      x y z
#    x 1.738890 0.000000 0.000000 
#    y 0.000000 1.729920 0.000000 
#    z 0.000000 0.000000 1.756390 
# 
# From -- ./inp_files/49345.got.cif
#   From: 2010.05.17/outbox.cif.g08.bks.cpg/sg72_25_cif.got.tgz:49345.got - 2010.06.03 17:03:01.
