data_PCOD9529905
_publ_section_title
;
Structure prediction by ZEFSAII (Michael W. Deem and Ramdas Pophale) SiO2 
 PCOD9529905
Probable space group: I B C A 
;
_chemical_formula_sum "Si O2"
_cell_formula_units_Z 112
_cell_length_a 13.471199
_cell_length_b 29.419001
_cell_length_c 14.098208
_cell_angle_alpha 90.000000
_cell_angle_beta 90.000000
_cell_angle_gamma 90.000000
_cell_volume 5587.249771
_symmetry_space_group_name_H-M "I B C A "
_symmetry_group_IT_number 73
_symmetry_cell_setting 'orthorhombic'
loop_
_space_group_symop_operation_xyz
x,y,z
-x,1/2-y,z
x,-y,1/2-z
1/2-x,y,-z
-x,-y,-z
x,1/2+y,-z
-x,y,1/2+z
1/2+x,-y,z
1/2+x,1/2+y,1/2+z
1/2-x,-y,1/2+z
1/2+x,1/2-y,-z
-x,1/2+y,1/2-z
1/2-x,1/2-y,1/2-z
1/2+x,y,1/2-z
1/2-x,1/2+y,z
x,1/2-y,1/2+z
loop_
_atom_site_type_symbol
_atom_site_label
_atom_site_fract_x
_atom_site_fract_y
_atom_site_fract_z
Si Si1 0.289525 0.802967 0.328712
Si Si2 0.483868 0.431832 0.871868
Si Si3 0.119420 0.000000 0.250000
Si Si4 0.788496 0.523306 0.894708
Si Si5 0.094690 0.722631 0.714161
Si Si6 0.916550 0.433023 0.936362
Si Si7 0.031559 0.861531 0.726084
Si Si8 0.250000 0.368670 0.500000
O O1 0.355719 0.758941 0.358199
O O2 0.187384 0.787096 0.281886
O O3 0.365195 0.833508 0.265629
O O4 0.259988 0.836254 0.411585
O O5 0.550908 0.465947 0.809885
O O6 0.367817 0.441158 0.855688
O O7 0.502360 0.382275 0.826567
O O8 0.501575 0.442793 0.983216
O O9 0.194227 0.978427 0.173716
O O10 0.852050 0.475957 0.900940
O O11 0.750000 0.532933 0.000000
O O12 0.000000 0.750000 0.756634
O O13 0.048379 0.674427 0.685245
O O14 0.954289 0.403003 0.848212
O O15 0.843382 0.401636 0.998266
#
# Coordination Sequence:
#
# PCOD9529905 Si02
#       8
#    16  16   8  16  16  16  16   8
#     4   9  19  36  59  85 118 148 199 248 306 377
#     4  12  25  40  62  91 121 166 215 256 320 378
#     4  12  24  42  66  86 120 166 212 262 308 386
#     4  12  25  42  61  90 125 166 212 266 324 374
#     4   9  18  37  59  83 112 154 190 245 309 368
#     4  11  21  40  60  87 125 161 209 262 311 379
#     4  10  22  37  59  87 120 157 204 250 307 376
#     4  10  18  34  60  88 112 158 200 248 312 378
#
# _framework density 20.045639999999999
#
# number of rings (size 3 to 8) (size 9 to 14) (size 15 to 20)
#    0.000    1.429    2.143    3.429    2.000    3.429 
#    0.000    7.857    0.000    0.000    0.000    0.000 
#    0.000    0.000    0.000    0.000    0.000    0.000 
#
# Total GULP energy -312163.156013 kJ/mol
# GULP energy per Si atom -5574.342072 kJ/mol
# Density = 2.000002 g / cm^3
# Si number density = 20.045640 Si / 1000 Ang^3
#
#
#
# Elastic Constant Matrix: (Units=GPa)
#
#
# Indices 1 2 3 4 5 6 
#
# 1 89.0592 4.5850 16.6708 0.0003 0.0000 -0.0002
# 2 4.5850 63.5609 -1.9240 0.0000 0.0000 0.0001
# 3 16.6708 -1.9240 38.0527 -0.0024 0.0002 0.0025
# 4 0.0003 0.0000 -0.0024 -27.4910 0.0000 -0.0008
# 5 0.0000 0.0000 0.0002 0.0000 28.7978 0.0002
# 6 -0.0002 0.0001 0.0025 -0.0008 0.0002 55.4625
#
#
#
# Elastic Compliance Matrix: (Units=1/GPa)
#
#
# Indices 1 2 3 4 5 6 
#
# 1 0.012301 -0.001052 -0.005442 0.000001 0.000000 0.000000
# 2 -0.001052 0.015847 0.001262 0.000000 0.000000 0.000000
# 3 -0.005442 0.001262 0.028728 -0.000003 0.000000 -0.000001
# 4 0.000001 0.000000 -0.000003 -0.036375 0.000000 -0.000001
# 5 0.000000 0.000000 0.000000 0.000000 0.034725 0.000000
# 6 0.000000 0.000000 -0.000001 -0.000001 0.000000 0.018030
#
#
# Mechanical properties :
#
#
# Convention : Reuss Voigt Hill
#
# Bulk Modulus (GPa) = 21.54651 25.48183 23.51417
# Shear Modulus (GPa) = 50.40793 22.77658 36.59225
#
# Velocity S-wave (km/s) = 5.02008 3.37447 4.27716
# Velocity P-wave (km/s) = 6.66135 5.28415 6.01231
#
# Compressibility (1/GPa) = 0.04641124
#
# Stress axis : x y z
#
# Youngs Moduli (GPa) = 81.29147 63.10326 34.80983
#
# Poissons Ratio (x) = 0.06639 0.18945
# Poissons Ratio (y) = 0.08553 -0.04394
# Poissons Ratio (z) = 0.44242 -0.07965
#
# Static dielectric constant tensor:
#      x y z
#    x 1.760420 0.000000 0.000000 
#    y 0.000000 1.762060 0.000000 
#    z 0.000000 0.000000 1.727070 
# 
# From -- ./inp_files/17462.got.cif
#   From: 2010.05.17/outbox.cif.g08.bks.cpg/sg73_9_cif.got.tgz:17462.got - 2010.06.03 17:35:07.
