data_PCOD9529974
_publ_section_title
;
Structure prediction by ZEFSAII (Michael W. Deem and Ramdas Pophale) SiO2 
 PCOD9529974
Probable space group: I B C A 
;
_chemical_formula_sum "Si O2"
_cell_formula_units_Z 104
_cell_length_a 18.398060
_cell_length_b 14.351167
_cell_length_c 19.256829
_cell_angle_alpha 90.000000
_cell_angle_beta 90.000000
_cell_angle_gamma 90.000000
_cell_volume 5084.450493
_symmetry_space_group_name_H-M "I B C A "
_symmetry_group_IT_number 73
_symmetry_cell_setting 'orthorhombic'
loop_
_space_group_symop_operation_xyz
x,y,z
-x,1/2-y,z
x,-y,1/2-z
1/2-x,y,-z
-x,-y,-z
x,1/2+y,-z
-x,y,1/2+z
1/2+x,-y,z
1/2+x,1/2+y,1/2+z
1/2-x,-y,1/2+z
1/2+x,1/2-y,-z
-x,1/2+y,1/2-z
1/2-x,1/2-y,1/2-z
1/2+x,y,1/2-z
1/2-x,1/2+y,z
x,1/2-y,1/2+z
loop_
_atom_site_type_symbol
_atom_site_label
_atom_site_fract_x
_atom_site_fract_y
_atom_site_fract_z
Si Si1 0.162383 0.264291 0.154405
Si Si2 0.421911 0.783753 0.900597
Si Si3 0.362645 0.130311 0.198413
Si Si4 0.287844 0.450745 0.323042
Si Si5 0.714802 0.885692 0.428352
Si Si6 0.477997 0.597485 0.270943
Si Si7 0.000000 0.750000 0.846455
O O1 0.156871 0.312671 0.231028
O O2 0.181690 0.154385 0.165622
O O3 0.226859 0.318674 0.112896
O O4 0.080190 0.270851 0.121307
O O5 0.500000 0.750000 0.929904
O O6 0.378922 0.700058 0.864268
O O7 0.361010 0.833712 0.945442
O O8 0.441646 0.850178 0.835121
O O9 0.298897 0.062580 0.178230
O O10 0.439012 0.080741 0.208039
O O11 0.303419 0.500000 0.250000
O O12 0.305203 0.524840 0.382329
O O13 0.750000 0.915512 0.500000
O O14 0.445555 0.500000 0.250000
O O15 0.481174 0.665011 0.205182
#
# Coordination Sequence:
#
# PCOD9529974 Si02
#       7
#    16  16  16  16  16  16   8
#     4  11  22  42  64  93 136 167 212 271 340 385
#     4  10  20  41  65  90 129 172 214 262 329 392
#     4  10  18  37  61 103 126 161 211 273 333 387
#     4  12  23  36  71  99 126 170 226 276 329 390
#     4  12  28  45  63  94 136 175 228 272 318 399
#     4  10  19  30  59  95 139 157 200 274 340 378
#     4  10  22  36  58 100 132 156 210 272 324 394
#
# _framework density 20.454522000000001
#
# number of rings (size 3 to 8) (size 9 to 14) (size 15 to 20)
#    0.000    1.231    6.923    1.846    4.308    0.615 
#    1.385    0.000    0.000    4.615    0.000    0.000 
#    0.000    0.000    0.000    0.000    0.000    0.000 
#
# Total GULP energy -290068.851304 kJ/mol
# GULP energy per Si atom -5578.247140 kJ/mol
# Density = 2.040797 g / cm^3
# Si number density = 20.454522 Si / 1000 Ang^3
#
#
#
# Elastic Constant Matrix: (Units=GPa)
#
#
# Indices 1 2 3 4 5 6 
#
# 1 112.2984 -16.5317 -11.5647 0.0000 0.0000 0.0000
# 2 -16.5317 67.8528 -5.9658 0.0000 0.0000 0.0000
# 3 -11.5647 -5.9658 35.8755 0.0000 0.0000 0.0000
# 4 0.0000 0.0000 0.0000 9.9438 0.0000 0.0000
# 5 0.0000 0.0000 0.0000 0.0000 14.9420 0.0000
# 6 0.0000 0.0000 0.0000 0.0000 0.0000 13.2651
#
#
#
# Elastic Compliance Matrix: (Units=1/GPa)
#
#
# Indices 1 2 3 4 5 6 
#
# 1 0.009664 0.002667 0.003559 0.000000 0.000000 0.000000
# 2 0.002667 0.015693 0.003469 0.000000 0.000000 0.000000
# 3 0.003559 0.003469 0.029598 0.000000 0.000000 0.000000
# 4 0.000000 0.000000 0.000000 0.100565 0.000000 0.000000
# 5 0.000000 0.000000 0.000000 0.000000 0.066926 0.000000
# 6 0.000000 0.000000 0.000000 0.000000 0.000000 0.075386
#
#
# Mechanical properties :
#
#
# Convention : Reuss Voigt Hill
#
# Bulk Modulus (GPa) = 13.45054 16.43360 14.94207
# Shear Modulus (GPa) = 16.48954 24.30276 20.39615
#
# Velocity S-wave (km/s) = 2.84237 3.45067 3.16119
# Velocity P-wave (km/s) = 4.16680 4.89161 4.54368
#
# Compressibility (1/GPa) = 0.07434647
#
# Stress axis : x y z
#
# Youngs Moduli (GPa) = 103.47660 63.72378 33.78569
#
# Poissons Ratio (x) = -0.16998 -0.12024
# Poissons Ratio (y) = -0.27602 -0.11722
# Poissons Ratio (z) = -0.36826 -0.22108
#
# Static dielectric constant tensor:
#      x y z
#    x 1.792290 0.000000 0.000000 
#    y 0.000000 1.768320 0.000000 
#    z 0.000000 0.000000 1.686880 
# 
# From -- ./inp_files/26547.got.cif
#   From: 2010.05.17/outbox.cif.g08.bks.cpg/sg73_14_cif.got.tgz:26547.got - 2010.06.03 17:35:07.
