data_PCOD9529063
_publ_section_title
;
Structure prediction by ZEFSAII (Michael W. Deem and Ramdas Pophale) SiO2 
 PCOD9529063
Probable space group: I B A M
;
_chemical_formula_sum "Si O2"
_cell_formula_units_Z 96
_cell_length_a 20.580213
_cell_length_b 30.228492
_cell_length_c 9.322836
_cell_angle_alpha 90.000000
_cell_angle_beta 90.000000
_cell_angle_gamma 90.000000
_cell_volume 5799.818354
_symmetry_space_group_name_H-M "I B A M"
_symmetry_group_IT_number 72
_symmetry_cell_setting 'orthorhombic'
loop_
_space_group_symop_operation_xyz
x,y,z
-x,-y,z
x,-y,1/2-z
-x,y,1/2-z
-x,-y,-z
x,y,-z
-x,y,1/2+z
x,-y,1/2+z
1/2+x,1/2+y,1/2+z
1/2-x,1/2-y,1/2+z
1/2+x,1/2-y,-z
1/2-x,1/2+y,-z
1/2-x,1/2-y,1/2-z
1/2+x,1/2+y,1/2-z
1/2-x,1/2+y,z
1/2+x,1/2-y,z
loop_
_atom_site_type_symbol
_atom_site_label
_atom_site_fract_x
_atom_site_fract_y
_atom_site_fract_z
Si Si1 0.310216 0.273604 0.671831
Si Si2 0.258741 0.370895 0.333268
Si Si3 0.434200 0.767807 0.672346
Si Si4 0.255612 0.543041 0.663417
Si Si5 0.597019 0.956057 0.335454
Si Si6 0.104139 0.368479 0.332144
O O1 0.311020 0.264212 0.500000
O O2 0.250000 0.250000 0.750000
O O3 0.298100 0.325988 0.689582
O O4 0.374326 0.256348 0.750649
O O5 0.264363 0.383831 0.500000
O O6 0.278481 0.411739 0.235414
O O7 0.181778 0.362488 0.307333
O O8 0.500000 0.753285 0.750000
O O9 0.434168 0.760600 0.500000
O O10 0.426489 0.820736 0.696030
O O11 0.276546 0.500000 0.750000
O O12 0.276182 0.540105 0.500000
O O13 0.176344 0.543586 0.666218
O O14 0.575327 0.957688 0.500000
O O15 0.579421 0.909646 0.261078
O O16 0.576466 0.000000 0.250000
O O17 0.095429 0.379546 0.500000
#
# Coordination Sequence:
#
# PCOD9529063 Si02
#       6
#    16  16  16  16  16  16
#     4  11  21  35  55  79 106 138 174 218 264 311
#     4   9  17  30  47  70  99 131 167 208 253 301
#     4  11  23  39  55  76 103 137 175 217 265 315
#     4   9  16  25  39  63  95 131 164 200 247 299
#     4   9  16  25  40  64  91 122 161 203 252 302
#     4   9  17  31  48  67  95 128 165 208 255 304
#
# _framework density 16.552242
#
# number of rings (size 3 to 8) (size 9 to 14) (size 15 to 20)
#    0.000    2.333    1.667    2.000    0.000    6.667 
#    0.000    0.000    0.000    0.500    0.000    3.500 
#    0.000    0.667    0.000    7.000    0.000    3.333 
#
# Total GULP energy -267839.406088 kJ/mol
# GULP energy per Si atom -5579.987627 kJ/mol
# Density = 1.651457 g / cm^3
# Si number density = 16.552242 Si / 1000 Ang^3
#
#
#
# Elastic Constant Matrix: (Units=GPa)
#
#
# Indices 1 2 3 4 5 6 
#
# 1 80.9632 43.6454 61.6878 0.0000 0.0000 0.0000
# 2 43.6454 98.3555 93.6020 0.0000 0.0000 0.0000
# 3 61.6878 93.6020 136.9963 0.0000 0.0001 0.0000
# 4 0.0000 0.0000 0.0000 35.7513 0.0000 0.0000
# 5 0.0000 0.0000 0.0001 0.0000 13.0999 0.0000
# 6 0.0000 0.0000 0.0000 0.0000 0.0000 1.7374
#
#
#
# Elastic Compliance Matrix: (Units=1/GPa)
#
#
# Indices 1 2 3 4 5 6 
#
# 1 0.018825 -0.000819 -0.007917 0.000000 0.000000 0.000000
# 2 -0.000819 0.029103 -0.019516 0.000000 0.000000 0.000000
# 3 -0.007917 -0.019516 0.024198 0.000000 0.000000 0.000000
# 4 0.000000 0.000000 0.000000 0.027971 0.000000 0.000000
# 5 0.000000 0.000000 0.000000 0.000000 0.076337 0.000000
# 6 0.000000 0.000000 0.000000 0.000000 0.000000 0.575586
#
#
# Mechanical properties :
#
#
# Convention : Reuss Voigt Hill
#
# Bulk Modulus (GPa) = 64.00916 79.35394 71.68155
# Shear Modulus (GPa) = 6.14453 17.94302 12.04378
#
# Velocity S-wave (km/s) = 1.92880 3.29602 2.70037
# Velocity P-wave (km/s) = 6.61175 7.90763 7.28855
#
# Compressibility (1/GPa) = 0.01562276
#
# Stress axis : x y z
#
# Youngs Moduli (GPa) = 53.12066 34.36033 41.32521
#
# Poissons Ratio (x) = 0.02816 0.32716
# Poissons Ratio (y) = 0.04353 0.80649
# Poissons Ratio (z) = 0.42055 0.67057
#
# Static dielectric constant tensor:
#      x y z
#    x 1.550920 0.000000 0.000000 
#    y 0.000000 1.543900 0.000000 
#    z 0.000000 0.000000 1.556010 
# 
# From -- ./inp_files/5942.got.cif
#   From: 2010.05.17/outbox.cif.g08.bks.cpg/sg72_3_cif.got.tgz:5942.got - 2010.06.03 17:03:01.
