data_PCOD9529088
_publ_section_title
;
Structure prediction by ZEFSAII (Michael W. Deem and Ramdas Pophale) SiO2 
 PCOD9529088
Probable space group: I B A M
;
_chemical_formula_sum "Si O2"
_cell_formula_units_Z 96
_cell_length_a 14.477734
_cell_length_b 18.656053
_cell_length_c 14.852506
_cell_angle_alpha 90.000000
_cell_angle_beta 90.000000
_cell_angle_gamma 90.000000
_cell_volume 4011.622850
_symmetry_space_group_name_H-M "I B A M"
_symmetry_group_IT_number 72
_symmetry_cell_setting 'orthorhombic'
loop_
_space_group_symop_operation_xyz
x,y,z
-x,-y,z
x,-y,1/2-z
-x,y,1/2-z
-x,-y,-z
x,y,-z
-x,y,1/2+z
x,-y,1/2+z
1/2+x,1/2+y,1/2+z
1/2-x,1/2-y,1/2+z
1/2+x,1/2-y,-z
1/2-x,1/2+y,-z
1/2-x,1/2-y,1/2-z
1/2+x,1/2+y,1/2-z
1/2-x,1/2+y,z
1/2+x,1/2-y,z
loop_
_atom_site_type_symbol
_atom_site_label
_atom_site_fract_x
_atom_site_fract_y
_atom_site_fract_z
Si Si1 0.104394 0.477101 0.144265
Si Si2 0.637902 0.677136 0.901865
Si Si3 0.593013 0.198154 0.714660
Si Si4 0.735629 0.102773 0.397106
Si Si5 0.605284 0.415430 0.239839
Si Si6 0.850887 0.690470 0.901704
O O1 0.109109 0.500000 0.250000
O O2 0.185373 0.525327 0.101428
O O3 0.125785 0.393847 0.120095
O O4 0.000000 0.500000 0.114431
O O5 0.577052 0.739793 0.857825
O O6 0.650528 0.615367 0.829411
O O7 0.742359 0.704071 0.910430
O O8 0.603890 0.654671 0.000000
O O9 0.500000 0.160042 0.750000
O O10 0.667049 0.147832 0.667431
O O11 0.626512 0.231183 0.808951
O O12 0.740214 0.129207 0.500000
O O13 0.834775 0.101706 0.348276
O O14 0.604155 0.500000 0.250000
O O15 0.500000 0.389403 0.250000
O O16 0.893302 0.707243 0.000000
#
# Coordination Sequence:
#
# PCOD9529088 Si02
#       6
#    16  16  16  16  16  16
#     4  11  21  38  64 100 146 194 239 298 369 442
#     4  11  24  46  72  98 136 184 236 294 358 432
#     4  12  25  44  68 100 146 187 235 299 360 432
#     4  12  25  42  69 106 147 191 243 299 361 435
#     4  11  25  47  74 105 141 184 240 305 365 425
#     4  11  23  39  65  94 132 187 237 288 360 431
#
# _framework density 23.930464000000001
#
# number of rings (size 3 to 8) (size 9 to 14) (size 15 to 20)
#    0.000    0.667    3.333    4.500    0.000    6.667 
#    0.000    1.667    0.000    0.000    0.000    0.000 
#    0.000    0.000    0.000    0.000    0.000    0.000 
#
# Total GULP energy -268088.906192 kJ/mol
# GULP energy per Si atom -5585.185546 kJ/mol
# Density = 2.387600 g / cm^3
# Si number density = 23.930464 Si / 1000 Ang^3
#
#
#
# Elastic Constant Matrix: (Units=GPa)
#
#
# Indices 1 2 3 4 5 6 
#
# 1 135.5297 12.8863 56.8455 0.0000 0.0000 0.0000
# 2 12.8863 48.3949 1.2719 0.0000 0.0000 0.0000
# 3 56.8455 1.2719 203.4561 0.0000 -0.0001 0.0000
# 4 0.0000 0.0000 0.0000 8.6200 0.0000 0.0000
# 5 0.0000 0.0000 -0.0001 0.0000 -57.3507 0.0000
# 6 0.0000 0.0000 0.0000 0.0000 0.0000 30.1522
#
#
#
# Elastic Compliance Matrix: (Units=1/GPa)
#
#
# Indices 1 2 3 4 5 6 
#
# 1 0.008591 -0.002225 -0.002386 0.000000 0.000000 0.000000
# 2 -0.002225 0.021243 0.000489 0.000000 0.000000 0.000000
# 3 -0.002386 0.000489 0.005579 0.000000 0.000000 0.000000
# 4 0.000000 0.000000 0.000000 0.116009 0.000000 0.000000
# 5 0.000000 0.000000 0.000000 0.000000 -0.017437 0.000000
# 6 0.000000 0.000000 0.000000 0.000000 0.000000 0.033165
#
#
# Mechanical properties :
#
#
# Convention : Reuss Voigt Hill
#
# Bulk Modulus (GPa) = 36.80828 58.82091 47.81459
# Shear Modulus (GPa) = 27.10746 17.37609 22.24177
#
# Velocity S-wave (km/s) = 3.36930 2.69756 3.05197
# Velocity P-wave (km/s) = 5.52729 5.85967 5.69591
#
# Compressibility (1/GPa) = 0.02716780
#
# Stress axis : x y z
#
# Youngs Moduli (GPa) = 116.40186 47.07452 179.25109
#
# Poissons Ratio (x) = 0.10473 0.42776
# Poissons Ratio (y) = 0.25897 -0.08762
# Poissons Ratio (z) = 0.27778 -0.02301
#
# Static dielectric constant tensor:
#      x y z
#    x 2.002100 0.000000 0.000000 
#    y 0.000000 1.972990 0.000000 
#    z 0.000000 0.000000 2.006440 
# 
# From -- ./inp_files/21855.got.cif
#   From: 2010.05.17/outbox.cif.g08.bks.cpg/sg72_11_cif.got.tgz:21855.got - 2010.06.03 17:03:01.
