data_PCOD9529571
_publ_section_title
;
Structure prediction by ZEFSAII (Michael W. Deem and Ramdas Pophale) SiO2 
 PCOD9529571
Probable space group: I B A M
;
_chemical_formula_sum "Si O2"
_cell_formula_units_Z 44
_cell_length_a 18.000000
_cell_length_b 18.000000
_cell_length_c 15.000000
_cell_angle_alpha 90.000000
_cell_angle_beta 90.000000
_cell_angle_gamma 90.000000
_cell_volume 4860.000000
_symmetry_space_group_name_H-M "I B A M"
_symmetry_group_IT_number 72
_symmetry_cell_setting 'orthorhombic'
loop_
_space_group_symop_operation_xyz
x,y,z
-x,-y,z
x,-y,1/2-z
-x,y,1/2-z
-x,-y,-z
x,y,-z
-x,y,1/2+z
x,-y,1/2+z
1/2+x,1/2+y,1/2+z
1/2-x,1/2-y,1/2+z
1/2+x,1/2-y,-z
1/2-x,1/2+y,-z
1/2-x,1/2-y,1/2-z
1/2+x,1/2+y,1/2-z
1/2-x,1/2+y,z
1/2+x,1/2-y,z
loop_
_atom_site_type_symbol
_atom_site_label
_atom_site_fract_x
_atom_site_fract_y
_atom_site_fract_z
Si Si1 0.000000 0.165915 0.250000
Si Si2 0.832906 0.090224 0.247586
Si Si3 0.743090 0.807514 0.606565
Si Si4 0.542586 0.076309 0.607313
Si Si5 0.935095 0.717056 0.107358
Si Si6 0.709409 0.861650 0.107476
O O1 0.079882 0.120072 0.259863
O O2 0.024346 0.219238 0.166481
O O3 0.784897 0.130531 0.167489
O O4 0.781029 0.110538 0.334868
O O5 0.835407 0.000000 0.250000
O O6 0.746166 0.825383 0.500000
O O7 0.653886 0.795560 0.628518
O O8 0.785870 0.728353 0.619999
O O9 0.549237 0.068737 0.500000
O O10 0.484255 0.143076 0.624868
O O11 0.628256 0.101407 0.634880
O O12 0.500000 0.000000 0.638654
O O13 0.938420 0.732717 0.000000
O O14 0.718588 0.874787 0.000000
#
# Coordination Sequence:
#
# PCOD9529571 Si02
#       6
#     8  16  16  16  16  16
#     4  12  25  44  67  86 128 174 230 278 319 378
#     4  12  27  42  63  95 132 173 220 273 335 393
#     4  10  22  43  69  95 126 170 221 272 328 392
#     4   9  19  35  59  92 129 160 195 252 322 388
#     4  10  22  40  65  96 127 168 220 269 321 390
#     4  10  21  41  66  92 129 171 213 265 327 396
#
# _framework density 9.0534979999999994
#
# number of rings (size 3 to 8) (size 9 to 14) (size 15 to 20)
#    0.000    1.636    1.818    1.909    5.091    2.909 
#    0.000    0.455    0.000    3.273    0.000    0.000 
#    0.000    0.000    0.000    0.000    0.000    0.000 
#
# Total GULP energy -245107.899930 kJ/mol
# GULP energy per Si atom -5570.634089 kJ/mol
# Density = 0.903289 g / cm^3
# Si number density = 9.053498 Si / 1000 Ang^3
#
#
#
# Elastic Constant Matrix: (Units=GPa)
#
#
# Indices 1 2 3 4 5 6 
#
# 1 199.8286 75.3841 52.8545 0.0000 0.0000 0.0000
# 2 75.3841 155.0323 57.7639 0.0000 0.0000 0.0000
# 3 52.8545 57.7639 84.7890 0.0000 0.0000 0.0000
# 4 0.0000 0.0000 0.0000 26.2372 0.0000 0.0000
# 5 0.0000 0.0000 0.0000 0.0000 36.7990 0.0000
# 6 0.0000 0.0000 0.0000 0.0000 0.0000 42.0525
#
#
#
# Elastic Compliance Matrix: (Units=1/GPa)
#
#
# Indices 1 2 3 4 5 6 
#
# 1 0.006516 -0.002218 -0.002551 0.000000 0.000000 0.000000
# 2 -0.002218 0.009399 -0.005021 0.000000 0.000000 0.000000
# 3 -0.002551 -0.005021 0.016805 0.000000 0.000000 0.000000
# 4 0.000000 0.000000 0.000000 0.038114 0.000000 0.000000
# 5 0.000000 0.000000 0.000000 0.000000 0.027175 0.000000
# 6 0.000000 0.000000 0.000000 0.000000 0.000000 0.023780
#
#
# Mechanical properties :
#
#
# Convention : Reuss Voigt Hill
#
# Bulk Modulus (GPa) = 76.09968 90.18388 83.14178
# Shear Modulus (GPa) = 34.30594 37.92755 36.11675
#
# Velocity S-wave (km/s) = 4.35745 4.58168 4.47097
# Velocity P-wave (km/s) = 8.21191 8.82629 8.52464
#
# Compressibility (1/GPa) = 0.01314066
#
# Stress axis : x y z
#
# Youngs Moduli (GPa) = 153.47782 106.38874 59.50744
#
# Poissons Ratio (x) = 0.23595 0.15178
# Poissons Ratio (y) = 0.34039 0.29879
# Poissons Ratio (z) = 0.39147 0.53418
#
# Static dielectric constant tensor:
#      x y z
#    x 1.630500 0.000000 0.000000 
#    y 0.000000 1.644510 0.000000 
#    z 0.000000 0.000000 1.658710 
# 
# From -- ./inp_files/23202.got.cif
#   From: 2010.05.17/outbox.ucp.g08.bks.cvg/sg72_12_cif.got.tgz:23202.got - 2010.06.11 16:33:07.
