data_PCOD9529645
_publ_section_title
;
Structure prediction by ZEFSAII (Michael W. Deem and Ramdas Pophale) SiO2 
 PCOD9529645
Probable space group: I B C A 
;
_chemical_formula_sum "Si O2"
_cell_formula_units_Z 48
_cell_length_a 5.324912
_cell_length_b 23.986126
_cell_length_c 16.187674
_cell_angle_alpha 90.000000
_cell_angle_beta 90.000000
_cell_angle_gamma 90.000000
_cell_volume 2067.554639
_symmetry_space_group_name_H-M "I B C A "
_symmetry_group_IT_number 73
_symmetry_cell_setting 'orthorhombic'
loop_
_space_group_symop_operation_xyz
x,y,z
-x,1/2-y,z
x,-y,1/2-z
1/2-x,y,-z
-x,-y,-z
x,1/2+y,-z
-x,y,1/2+z
1/2+x,-y,z
1/2+x,1/2+y,1/2+z
1/2-x,-y,1/2+z
1/2+x,1/2-y,-z
-x,1/2+y,1/2-z
1/2-x,1/2-y,1/2-z
1/2+x,y,1/2-z
1/2-x,1/2+y,z
x,1/2-y,1/2+z
loop_
_atom_site_type_symbol
_atom_site_label
_atom_site_fract_x
_atom_site_fract_y
_atom_site_fract_z
Si Si1 0.992833 0.850363 0.448448
Si Si2 0.691105 0.812622 0.219739
Si Si3 0.029386 0.476965 0.094471
O O1 0.750000 0.830103 0.500000
O O2 0.924723 0.911501 0.413544
O O3 0.250000 0.856587 0.500000
O O4 0.073169 0.813727 0.370694
O O5 0.750000 0.750000 0.250000
O O6 0.469812 0.839119 0.275958
O O7 0.263200 0.508505 0.134049
O O8 0.000000 0.500000 0.000000
#
# Coordination Sequence:
#
# PCOD9529645 Si02
#       3
#    16  16  16
#     4  12  21  35  66 102 119 163 228 270 307 393
#     4  10  23  45  64  84 128 178 203 261 346 391
#     4  10  16  30  51  90 131 157 189 268 333 354
#
# _framework density 23.215831000000001
#
# number of rings (size 3 to 8) (size 9 to 14) (size 15 to 20)
#    0.000    1.333    6.667    2.000    0.000    0.000 
#    0.000   13.333    0.000    6.000    0.000    0.000 
#    0.000    0.000    0.000    0.000    0.000    0.000 
#
# Total GULP energy -133939.201538 kJ/mol
# GULP energy per Si atom -5580.800064 kJ/mol
# Density = 2.316299 g / cm^3
# Si number density = 23.215831 Si / 1000 Ang^3
#
#
#
# Elastic Constant Matrix: (Units=GPa)
#
#
# Indices 1 2 3 4 5 6 
#
# 1 241.8277 0.7785 41.0348 0.0000 0.0000 0.0000
# 2 0.7785 61.9583 35.5056 0.0000 0.0000 0.0000
# 3 41.0348 35.5056 70.4652 0.0002 0.0000 0.0000
# 4 0.0000 0.0000 0.0002 -108.1431 0.0000 0.0000
# 5 0.0000 0.0000 0.0000 0.0000 34.7072 0.0000
# 6 0.0000 0.0000 0.0000 0.0000 0.0000 21.0861
#
#
#
# Elastic Compliance Matrix: (Units=1/GPa)
#
#
# Indices 1 2 3 4 5 6 
#
# 1 0.004786 0.002161 -0.003876 0.000000 0.000000 0.000000
# 2 0.002161 0.023668 -0.013184 0.000000 0.000000 0.000000
# 3 -0.003876 -0.013184 0.023092 0.000000 0.000000 0.000000
# 4 0.000000 0.000000 0.000000 -0.009247 0.000000 0.000000
# 5 0.000000 0.000000 0.000000 0.000000 0.028812 0.000000
# 6 0.000000 0.000000 0.000000 0.000000 0.000000 0.047425
#
#
# Mechanical properties :
#
#
# Convention : Reuss Voigt Hill
#
# Bulk Modulus (GPa) = 45.98242 58.76547 52.37394
# Shear Modulus (GPa) = 32.13724 9.32552 20.73138
#
# Velocity S-wave (km/s) = 3.72463 2.00639 2.99153
# Velocity P-wave (km/s) = 6.19247 5.54392 5.87715
#
# Compressibility (1/GPa) = 0.02174744
#
# Stress axis : x y z
#
# Youngs Moduli (GPa) = 208.94699 42.25121 43.30570
#
# Poissons Ratio (x) = -0.09130 0.16785
# Poissons Ratio (y) = -0.45153 0.57095
# Poissons Ratio (z) = 0.80986 0.55704
#
# Static dielectric constant tensor:
#      x y z
#    x 2.042650 0.000000 0.000000 
#    y 0.000000 1.881210 0.000000 
#    z 0.000000 0.000000 1.844990 
# 
# From -- ./inp_files/557.got.cif
#   From: 2010.05.17/outbox.cif.g08.bks.cpg/sg73_1_cif.got.tgz:557.got - 2010.06.03 17:35:07.
