data_PCOD9529744
_publ_section_title
;
Structure prediction by ZEFSAII (Michael W. Deem and Ramdas Pophale) SiO2 
 PCOD9529744
Probable space group: I B C A 
;
_chemical_formula_sum "Si O2"
_cell_formula_units_Z 88
_cell_length_a 12.716849
_cell_length_b 14.602427
_cell_length_c 20.008678
_cell_angle_alpha 90.000000
_cell_angle_beta 90.000000
_cell_angle_gamma 90.000000
_cell_volume 3715.548661
_symmetry_space_group_name_H-M "I B C A "
_symmetry_group_IT_number 73
_symmetry_cell_setting 'orthorhombic'
loop_
_space_group_symop_operation_xyz
x,y,z
-x,1/2-y,z
x,-y,1/2-z
1/2-x,y,-z
-x,-y,-z
x,1/2+y,-z
-x,y,1/2+z
1/2+x,-y,z
1/2+x,1/2+y,1/2+z
1/2-x,-y,1/2+z
1/2+x,1/2-y,-z
-x,1/2+y,1/2-z
1/2-x,1/2-y,1/2-z
1/2+x,y,1/2-z
1/2-x,1/2+y,z
x,1/2-y,1/2+z
loop_
_atom_site_type_symbol
_atom_site_label
_atom_site_fract_x
_atom_site_fract_y
_atom_site_fract_z
Si Si1 0.172964 0.357762 0.648494
Si Si2 0.000000 0.250000 0.448153
Si Si3 0.994177 0.895270 0.663063
Si Si4 0.000000 0.250000 0.734614
Si Si5 0.489018 0.951229 0.072101
Si Si6 0.820004 0.500000 0.250000
Si Si7 0.333316 0.213119 0.452150
O O1 0.231325 0.425301 0.700261
O O2 0.221723 0.278525 0.602226
O O3 0.087744 0.298924 0.690683
O O4 0.103302 0.421057 0.599270
O O5 0.035166 0.168422 0.399906
O O6 0.905087 0.225634 0.497917
O O7 0.047091 0.827826 0.716547
O O8 0.054005 0.978045 0.627718
O O9 0.895988 0.939204 0.702329
O O10 0.412919 0.863602 0.073635
O O11 0.500000 0.000000 0.000000
O O12 0.250000 0.165629 0.500000
#
# Coordination Sequence:
#
# PCOD9529744 Si02
#       7
#    16   8  16   8  16   8  16
#     4  10  17  35  57  90 125 158 206 261 320 380
#     4  11  19  40  58  86 121 157 202 272 314 373
#     4   9  18  29  60  88 111 153 214 245 316 382
#     4   9  15  30  56  94 111 155 208 254 316 399
#     4  11  18  34  57  85 124 166 204 263 311 371
#     4   8  18  30  60  96 110 164 210 248 310 388
#     4  12  23  36  61  92 126 169 213 260 330 383
#
# _framework density 23.684253999999999
#
# number of rings (size 3 to 8) (size 9 to 14) (size 15 to 20)
#    0.000    1.818    5.455    0.000    0.000    0.000 
#    0.000    3.636    0.000   10.909    0.000    0.000 
#    0.000    0.000    0.000    0.000    0.000    0.000 
#
# Total GULP energy -245326.525495 kJ/mol
# GULP energy per Si atom -5575.602852 kJ/mol
# Density = 2.363035 g / cm^3
# Si number density = 23.684254 Si / 1000 Ang^3
#
#
#
# Elastic Constant Matrix: (Units=GPa)
#
#
# Indices 1 2 3 4 5 6 
#
# 1 30.3922 11.2329 14.5016 0.0000 0.0000 0.0000
# 2 11.2329 118.4453 60.0122 0.0000 0.0000 0.0000
# 3 14.5016 60.0122 117.1134 0.0000 0.0000 0.0000
# 4 0.0000 0.0000 0.0000 26.6850 0.0000 0.0000
# 5 0.0000 0.0000 0.0000 0.0000 -1.0322 0.0000
# 6 0.0000 0.0000 0.0000 0.0000 0.0000 0.8280
#
#
#
# Elastic Compliance Matrix: (Units=1/GPa)
#
#
# Indices 1 2 3 4 5 6 
#
# 1 0.035172 -0.001525 -0.003574 0.000000 0.000000 0.000000
# 2 -0.001525 0.011469 -0.005688 0.000000 0.000000 0.000000
# 3 -0.003574 -0.005688 0.011896 0.000000 0.000000 0.000000
# 4 0.000000 0.000000 0.000000 0.037474 0.000000 0.000000
# 5 0.000000 0.000000 0.000000 0.000000 -0.968829 0.000000
# 6 0.000000 0.000000 0.000000 0.000000 0.000000 1.207772
#
#
# Mechanical properties :
#
#
# Convention : Reuss Voigt Hill
#
# Bulk Modulus (GPa) = 27.05379 48.60491 37.82935
# Shear Modulus (GPa) = 13.55564 17.30978 15.43271
#
# Velocity S-wave (km/s) = 2.39498 2.70637 2.55542
# Velocity P-wave (km/s) = 4.36982 5.50749 4.97131
#
# Compressibility (1/GPa) = 0.03696339
#
# Stress axis : x y z
#
# Youngs Moduli (GPa) = 28.43175 87.18792 84.06054
#
# Poissons Ratio (x) = 0.13295 0.30041
# Poissons Ratio (y) = 0.04335 0.47818
# Poissons Ratio (z) = 0.10161 0.49597
#
# Static dielectric constant tensor:
#      x y z
#    x 1.896060 0.000000 0.000000 
#    y 0.000000 1.954310 0.000000 
#    z 0.000000 0.000000 1.942940 
# 
# From -- ./inp_files/16988.got.cif
#   From: 2010.05.17/outbox.cif.g08.bks.cpg/sg73_9_cif.got.tgz:16988.got - 2010.06.03 17:35:07.
