data_PCOD9529196
_publ_section_title
;
Structure prediction by ZEFSAII (Michael W. Deem and Ramdas Pophale) SiO2 
 PCOD9529196
Probable space group: I B A M
;
_chemical_formula_sum "Si O2"
_cell_formula_units_Z 88
_cell_length_a 12.678180
_cell_length_b 13.972489
_cell_length_c 23.794037
_cell_angle_alpha 90.000000
_cell_angle_beta 90.000000
_cell_angle_gamma 90.000000
_cell_volume 4215.012068
_symmetry_space_group_name_H-M "I B A M"
_symmetry_group_IT_number 72
_symmetry_cell_setting 'orthorhombic'
loop_
_space_group_symop_operation_xyz
x,y,z
-x,-y,z
x,-y,1/2-z
-x,y,1/2-z
-x,-y,-z
x,y,-z
-x,y,1/2+z
x,-y,1/2+z
1/2+x,1/2+y,1/2+z
1/2-x,1/2-y,1/2+z
1/2+x,1/2-y,-z
1/2-x,1/2+y,-z
1/2-x,1/2-y,1/2-z
1/2+x,1/2+y,1/2-z
1/2-x,1/2+y,z
1/2+x,1/2-y,z
loop_
_atom_site_type_symbol
_atom_site_label
_atom_site_fract_x
_atom_site_fract_y
_atom_site_fract_z
Si Si1 0.764116 0.044018 0.500000
Si Si2 0.092727 0.229798 0.788463
Si Si3 0.417957 0.616851 0.500000
Si Si4 0.019862 0.746854 0.415340
Si Si5 0.300966 0.230148 0.500000
Si Si6 0.894267 0.436986 0.902860
Si Si7 0.799663 0.600776 0.719934
O O1 0.780044 0.157159 0.500000
O O2 0.694298 0.021899 0.444677
O O3 0.876947 0.991407 0.500000
O O4 0.129384 0.329468 0.759198
O O5 0.192735 0.160028 0.790346
O O6 0.000000 0.188433 0.750000
O O7 0.046144 0.244179 0.850229
O O8 0.480556 0.656643 0.554174
O O9 0.304857 0.670826 0.500000
O O10 0.929983 0.667600 0.424210
O O11 0.125027 0.711404 0.446443
O O12 0.852906 0.422239 0.839812
O O13 0.000000 0.500000 0.903177
O O14 0.780451 0.500000 0.750000
#
# Coordination Sequence:
#
# PCOD9529196 Si02
#       7
#     8  16   8  16   8  16  16
#     4  12  24  42  66 101 135 176 222 287 343 428
#     4  11  24  44  70  96 140 182 233 282 347 419
#     4  11  25  42  66  96 138 176 225 277 349 403
#     4  11  23  41  67  96 131 185 220 279 342 410
#     4  11  22  43  66  93 140 173 221 280 340 411
#     4  12  23  42  70 102 133 171 237 285 346 403
#     4  11  26  44  68 105 135 182 231 290 347 410
#
# _framework density 20.877756000000002
#
# number of rings (size 3 to 8) (size 9 to 14) (size 15 to 20)
#    0.000    0.727    3.636    4.091    0.000    3.273 
#    0.000    1.818    0.000    0.000    0.000    0.000 
#    0.000    0.000    0.000    0.000    0.000    0.000 
#
# Total GULP energy -246199.736706 kJ/mol
# GULP energy per Si atom -5595.448562 kJ/mol
# Density = 2.083024 g / cm^3
# Si number density = 20.877756 Si / 1000 Ang^3
#
#
#
# Elastic Constant Matrix: (Units=GPa)
#
#
# Indices 1 2 3 4 5 6 
#
# 1 75.5412 7.2222 39.2666 0.0000 0.0000 0.0000
# 2 7.2222 93.2155 19.6722 0.0000 0.0000 0.0000
# 3 39.2666 19.6722 158.6601 0.0000 0.0000 0.0000
# 4 0.0000 0.0000 0.0000 -22.4733 0.0000 0.0000
# 5 0.0000 0.0000 0.0000 0.0000 -100.7285 0.0000
# 6 0.0000 0.0000 0.0000 0.0000 0.0000 43.3357
#
#
#
# Elastic Compliance Matrix: (Units=1/GPa)
#
#
# Indices 1 2 3 4 5 6 
#
# 1 0.015206 -0.000394 -0.003715 0.000000 0.000000 0.000000
# 2 -0.000394 0.011026 -0.001270 0.000000 0.000000 0.000000
# 3 -0.003715 -0.001270 0.007379 0.000000 0.000000 0.000000
# 4 0.000000 0.000000 0.000000 -0.044497 0.000000 0.000000
# 5 0.000000 0.000000 0.000000 0.000000 -0.009928 0.000000
# 6 0.000000 0.000000 0.000000 0.000000 0.000000 0.023076
#
#
# Mechanical properties :
#
#
# Convention : Reuss Voigt Hill
#
# Bulk Modulus (GPa) = 43.75324 51.08208 47.41766
# Shear Modulus (GPa) = 242.27147 1.44383 121.85765
#
# Velocity S-wave (km/s) = 10.78401 0.83251 7.64813
# Velocity P-wave (km/s) = 13.26884 5.04425 10.03759
#
# Compressibility (1/GPa) = 0.02285545
#
# Stress axis : x y z
#
# Youngs Moduli (GPa) = 65.76218 90.69219 135.51062
#
# Poissons Ratio (x) = 0.03576 0.50336
# Poissons Ratio (y) = 0.02593 0.17204
# Poissons Ratio (z) = 0.24427 0.11514
#
# Static dielectric constant tensor:
#      x y z
#    x 1.747380 0.000000 0.000000 
#    y 0.000000 1.771830 0.000000 
#    z 0.000000 0.000000 1.713120 
# 
# From -- ./inp_files/43242.got.cif
#   From: 2010.05.17/outbox.cif.g08.bks.cpg/sg72_22_cif.got.tgz:43242.got - 2010.06.03 17:03:01.
