data_PCOD9529338
_publ_section_title
;
Structure prediction by ZEFSAII (Michael W. Deem and Ramdas Pophale) SiO2 
 PCOD9529338
Probable space group: I B A M
;
_chemical_formula_sum "Si O2"
_cell_formula_units_Z 48
_cell_length_a 7.427624
_cell_length_b 18.364846
_cell_length_c 16.098833
_cell_angle_alpha 90.000000
_cell_angle_beta 90.000000
_cell_angle_gamma 90.000000
_cell_volume 2195.996264
_symmetry_space_group_name_H-M "I B A M"
_symmetry_group_IT_number 72
_symmetry_cell_setting 'orthorhombic'
loop_
_space_group_symop_operation_xyz
x,y,z
-x,-y,z
x,-y,1/2-z
-x,y,1/2-z
-x,-y,-z
x,y,-z
-x,y,1/2+z
x,-y,1/2+z
1/2+x,1/2+y,1/2+z
1/2-x,1/2-y,1/2+z
1/2+x,1/2-y,-z
1/2-x,1/2+y,-z
1/2-x,1/2-y,1/2-z
1/2+x,1/2+y,1/2-z
1/2-x,1/2+y,z
1/2+x,1/2-y,z
loop_
_atom_site_type_symbol
_atom_site_label
_atom_site_fract_x
_atom_site_fract_y
_atom_site_fract_z
Si Si1 0.112474 0.348942 0.405906
Si Si2 0.754098 0.793227 0.340128
Si Si3 0.461482 0.421432 0.652989
O O1 0.068366 0.369983 0.500000
O O2 0.217828 0.272193 0.404003
O O3 0.254669 0.403342 0.365247
O O4 0.933181 0.334429 0.353390
O O5 0.750000 0.750000 0.250000
O O6 0.910195 0.851477 0.362224
O O7 0.500000 0.500000 0.612376
O O8 0.500000 0.429208 0.750000
#
# Coordination Sequence:
#
# PCOD9529338 Si02
#       3
#    16  16  16
#     4  12  25  41  68 103 136 177 230 290 349 411
#     4  12  23  42  71  99 133 180 232 284 338 417
#     4  11  25  44  69 101 139 182 230 285 349 418
#
# _framework density 21.857962000000001
#
# number of rings (size 3 to 8) (size 9 to 14) (size 15 to 20)
#    0.000    0.333    6.667    2.000    0.000    3.333 
#    0.000    5.000    0.000    0.000    0.000    0.000 
#    0.000    0.000    0.000    0.000    0.000    0.000 
#
# Total GULP energy -133840.264464 kJ/mol
# GULP energy per Si atom -5576.677686 kJ/mol
# Density = 2.180821 g / cm^3
# Si number density = 21.857962 Si / 1000 Ang^3
#
#
#
# Elastic Constant Matrix: (Units=GPa)
#
#
# Indices 1 2 3 4 5 6 
#
# 1 166.5864 25.6305 34.0087 0.0000 0.0000 0.0000
# 2 25.6305 79.1018 -4.4355 0.0000 0.0000 0.0000
# 3 34.0087 -4.4355 105.7139 0.0000 0.0000 0.0000
# 4 0.0000 0.0000 0.0000 -56.2752 0.0000 0.0000
# 5 0.0000 0.0000 0.0000 0.0000 20.3529 0.0000
# 6 0.0000 0.0000 0.0000 0.0000 0.0000 160.0979
#
#
#
# Elastic Compliance Matrix: (Units=1/GPa)
#
#
# Indices 1 2 3 4 5 6 
#
# 1 0.006832 -0.002342 -0.002296 0.000000 0.000000 0.000000
# 2 -0.002342 0.013475 0.001319 0.000000 0.000000 0.000000
# 3 -0.002296 0.001319 0.010254 0.000000 0.000000 0.000000
# 4 0.000000 0.000000 0.000000 -0.017770 0.000000 0.000000
# 5 0.000000 0.000000 0.000000 0.000000 0.049133 0.000000
# 6 0.000000 0.000000 0.000000 0.000000 0.000000 0.006246
#
#
# Mechanical properties :
#
#
# Convention : Reuss Voigt Hill
#
# Bulk Modulus (GPa) = 41.80412 51.31216 46.55814
# Shear Modulus (GPa) = 60.39893 44.58169 52.49031
#
# Velocity S-wave (km/s) = 5.26236 4.52110 4.90575
# Velocity P-wave (km/s) = 7.48934 7.12601 7.30993
#
# Compressibility (1/GPa) = 0.02392108
#
# Stress axis : x y z
#
# Youngs Moduli (GPa) = 146.36855 74.21204 97.52739
#
# Poissons Ratio (x) = 0.17384 0.22394
# Poissons Ratio (y) = 0.34287 -0.12864
# Poissons Ratio (z) = 0.33609 -0.09788
#
# Static dielectric constant tensor:
#      x y z
#    x 1.831220 0.000000 0.000000 
#    y 0.000000 1.940090 0.000000 
#    z 0.000000 0.000000 1.816970 
# 
# From -- ./inp_files/18098.got.cif
#   From: 2010.05.17/outbox.cif.g08.bks.cpg/sg72_10_cif.got.tgz:18098.got - 2010.06.03 17:03:01.
