data_PCOD9529342
_publ_section_title
;
Structure prediction by ZEFSAII (Michael W. Deem and Ramdas Pophale) SiO2 
 PCOD9529342
Probable space group: I B A M
;
_chemical_formula_sum "Si O2"
_cell_formula_units_Z 68
_cell_length_a 9.010888
_cell_length_b 20.651618
_cell_length_c 16.834123
_cell_angle_alpha 90.000000
_cell_angle_beta 90.000000
_cell_angle_gamma 90.000000
_cell_volume 3132.652132
_symmetry_space_group_name_H-M "I B A M"
_symmetry_group_IT_number 72
_symmetry_cell_setting 'orthorhombic'
loop_
_space_group_symop_operation_xyz
x,y,z
-x,-y,z
x,-y,1/2-z
-x,y,1/2-z
-x,-y,-z
x,y,-z
-x,y,1/2+z
x,-y,1/2+z
1/2+x,1/2+y,1/2+z
1/2-x,1/2-y,1/2+z
1/2+x,1/2-y,-z
1/2-x,1/2+y,-z
1/2-x,1/2-y,1/2-z
1/2+x,1/2+y,1/2-z
1/2-x,1/2+y,z
1/2+x,1/2-y,z
loop_
_atom_site_type_symbol
_atom_site_label
_atom_site_fract_x
_atom_site_fract_y
_atom_site_fract_z
Si Si1 0.000000 0.000000 0.250000
Si Si2 0.004147 0.422895 0.090648
Si Si3 0.711890 0.174131 0.658656
Si Si4 0.304227 0.613751 0.322686
Si Si5 0.985714 0.779474 0.591725
O O1 0.105046 0.951024 0.200281
O O2 0.852836 0.392532 0.123895
O O3 0.000000 0.500000 0.091754
O O4 0.143395 0.401888 0.142983
O O5 0.024531 0.400549 0.000000
O O6 0.777958 0.157647 0.744448
O O7 0.575069 0.223493 0.649642
O O8 0.842735 0.205906 0.607742
O O9 0.397144 0.655725 0.385172
O O10 0.961678 0.761584 0.500000
#
# Coordination Sequence:
#
# PCOD9529342 Si02
#       5
#     4  16  16  16  16
#     4  12  24  48  72 108 144 188 250 296 364 424
#     4  11  25  45  70 103 141 188 241 300 363 427
#     4  12  25  47  70 104 145 189 243 298 362 434
#     4  12  25  45  71 104 141 190 242 296 360 434
#     4  12  25  44  71 104 143 188 238 302 364 429
#
# _framework density 21.706847
#
# number of rings (size 3 to 8) (size 9 to 14) (size 15 to 20)
#    0.000    0.235    2.353    7.059    0.000    2.824 
#    0.000    1.176    0.000    0.000    0.000    0.000 
#    0.000    0.000    0.000    0.000    0.000    0.000 
#
# Total GULP energy -190446.088977 kJ/mol
# GULP energy per Si atom -5601.355558 kJ/mol
# Density = 2.165744 g / cm^3
# Si number density = 21.706847 Si / 1000 Ang^3
#
#
#
# Elastic Constant Matrix: (Units=GPa)
#
#
# Indices 1 2 3 4 5 6 
#
# 1 106.8786 34.5586 27.0074 0.0000 0.0000 0.0000
# 2 34.5586 95.1237 15.0293 0.0000 -0.0001 0.0000
# 3 27.0074 15.0293 82.3857 0.0000 0.0000 0.0000
# 4 0.0000 0.0000 0.0000 48.6269 0.0000 0.0000
# 5 0.0000 -0.0001 0.0000 0.0000 1.3746 0.0000
# 6 0.0000 0.0000 0.0000 0.0000 0.0000 57.6162
#
#
#
# Elastic Compliance Matrix: (Units=1/GPa)
#
#
# Indices 1 2 3 4 5 6 
#
# 1 0.011297 -0.003623 -0.003042 0.000000 0.000000 0.000000
# 2 -0.003623 0.011987 -0.000999 0.000000 0.000000 0.000000
# 3 -0.003042 -0.000999 0.013318 0.000000 0.000000 0.000000
# 4 0.000000 0.000000 0.000000 0.020565 0.000000 0.000000
# 5 0.000000 0.000000 0.000000 0.000000 0.727495 0.000000
# 6 0.000000 0.000000 0.000000 0.000000 0.000000 0.017356
#
#
# Mechanical properties :
#
#
# Convention : Reuss Voigt Hill
#
# Bulk Modulus (GPa) = 47.01021 48.61985 47.81503
# Shear Modulus (GPa) = 6.06474 35.37638 20.72056
#
# Velocity S-wave (km/s) = 1.67332 4.04138 3.09295
# Velocity P-wave (km/s) = 5.04353 6.65011 5.90174
#
# Compressibility (1/GPa) = 0.02127197
#
# Stress axis : x y z
#
# Youngs Moduli (GPa) = 88.52074 83.42468 75.08890
#
# Poissons Ratio (x) = 0.30229 0.22844
# Poissons Ratio (y) = 0.32075 0.07501
# Poissons Ratio (z) = 0.26930 0.08333
#
# Static dielectric constant tensor:
#      x y z
#    x 1.773780 0.000000 0.000000 
#    y 0.000000 1.792210 0.000000 
#    z 0.000000 0.000000 1.785420 
# 
# From -- ./inp_files/27760.got.cif
#   From: 2010.05.17/outbox.cif.g08.bks.cpg/sg72_14_cif.got.tgz:27760.got - 2010.06.03 17:03:01.
