data_PCOD9529603
_publ_section_title
;
Structure prediction by ZEFSAII (Michael W. Deem and Ramdas Pophale) SiO2 
 PCOD9529603
Probable space group: I B C A 
;
_chemical_formula_sum "Si O2"
_cell_formula_units_Z 56
_cell_length_a 17.612478
_cell_length_b 5.347493
_cell_length_c 30.325174
_cell_angle_alpha 90.000000
_cell_angle_beta 90.000000
_cell_angle_gamma 90.000000
_cell_volume 2856.103818
_symmetry_space_group_name_H-M "I B C A "
_symmetry_group_IT_number 73
_symmetry_cell_setting 'orthorhombic'
loop_
_space_group_symop_operation_xyz
x,y,z
-x,1/2-y,z
x,-y,1/2-z
1/2-x,y,-z
-x,-y,-z
x,1/2+y,-z
-x,y,1/2+z
1/2+x,-y,z
1/2+x,1/2+y,1/2+z
1/2-x,-y,1/2+z
1/2+x,1/2-y,-z
-x,1/2+y,1/2-z
1/2-x,1/2-y,1/2-z
1/2+x,y,1/2-z
1/2-x,1/2+y,z
x,1/2-y,1/2+z
loop_
_atom_site_type_symbol
_atom_site_label
_atom_site_fract_x
_atom_site_fract_y
_atom_site_fract_z
Si Si1 0.412297 0.486740 0.481269
Si Si2 0.050071 0.004174 0.118833
Si Si3 0.911278 0.321016 0.292127
Si Si4 0.699050 0.500000 0.250000
O O1 0.500000 0.500000 0.500000
O O2 0.376779 0.747156 0.495689
O O3 0.413309 0.456910 0.428891
O O4 0.102051 0.957265 0.161463
O O5 0.000000 0.750000 0.114147
O O6 0.000000 0.250000 0.127957
O O7 0.897459 0.500000 0.250000
O O8 0.860213 0.072206 0.288700
O O9 0.000000 0.250000 0.290397
O O10 0.750000 0.250000 0.250000
#
# Coordination Sequence:
#
# PCOD9529603 Si02
#       4
#    16  16  16   8
#     4  10  15  27  42  67 109 156 185 222 291 368
#     4  11  20  29  50  79 113 157 191 238 299 368
#     4  11  23  39  62  89 123 157 203 256 312 370
#     4  12  26  44  64  84 118 166 206 252 310 372
#
# _framework density 19.607129
#
# number of rings (size 3 to 8) (size 9 to 14) (size 15 to 20)
#    0.000    1.143    8.571    0.857    4.000    0.000 
#    0.000    0.000    0.000    0.000    0.000    0.000 
#    0.000    6.857    0.000    0.000    0.000    0.000 
#
# Total GULP energy -155959.120600 kJ/mol
# GULP energy per Si atom -5569.968593 kJ/mol
# Density = 1.956250 g / cm^3
# Si number density = 19.607129 Si / 1000 Ang^3
#
#
#
# Elastic Constant Matrix: (Units=GPa)
#
#
# Indices 1 2 3 4 5 6 
#
# 1 60.6516 28.6030 11.0656 0.0000 0.0000 0.0000
# 2 28.6030 158.9543 33.6134 0.0000 0.0000 0.0000
# 3 11.0656 33.6134 169.2182 0.0000 0.0000 0.0000
# 4 0.0000 0.0000 0.0000 40.6643 0.0000 0.0000
# 5 0.0000 0.0000 0.0000 0.0000 -6.5312 0.0000
# 6 0.0000 0.0000 0.0000 0.0000 0.0000 32.3627
#
#
#
# Elastic Compliance Matrix: (Units=1/GPa)
#
#
# Indices 1 2 3 4 5 6 
#
# 1 0.018067 -0.003133 -0.000559 0.000000 0.000000 0.000000
# 2 -0.003133 0.007110 -0.001208 0.000000 0.000000 0.000000
# 3 -0.000559 -0.001208 0.006186 0.000000 0.000000 0.000000
# 4 0.000000 0.000000 0.000000 0.024592 0.000000 0.000000
# 5 0.000000 0.000000 0.000000 0.000000 -0.153111 0.000000
# 6 0.000000 0.000000 0.000000 0.000000 0.000000 0.030900
#
#
# Mechanical properties :
#
#
# Convention : Reuss Voigt Hill
#
# Bulk Modulus (GPa) = 46.37305 59.48757 52.93031
# Shear Modulus (GPa) = -101.48194 34.33531 -33.57332
#
# Velocity S-wave (km/s) = -7.20209 4.18923 -4.14249
# Velocity P-wave (km/s) = 6.74222 7.33520 2.04299
#
# Compressibility (1/GPa) = 0.02156425
#
# Stress axis : x y z
#
# Youngs Moduli (GPa) = 55.34932 140.64302 161.65660
#
# Poissons Ratio (x) = 0.44061 0.09039
# Poissons Ratio (y) = 0.17340 0.19520
# Poissons Ratio (z) = 0.03095 0.16983
#
# Static dielectric constant tensor:
#      x y z
#    x 1.685370 0.000000 0.000000 
#    y 0.000000 1.812010 0.000000 
#    z 0.000000 0.000000 1.718050 
# 
# From -- ./inp_files/34441.got.cif
#   From: 2010.05.17/outbox.cif.g08.bks.cpg/sg73_18_cif.got.tgz:34441.got - 2010.06.03 17:35:07.
