data_PCOD9529419
_publ_section_title
;
Structure prediction by ZEFSAII (Michael W. Deem and Ramdas Pophale) SiO2 
 PCOD9529419
Probable space group: I B A M
;
_chemical_formula_sum "Si O2"
_cell_formula_units_Z 68
_cell_length_a 30.274555
_cell_length_b 5.546021
_cell_length_c 18.869656
_cell_angle_alpha 90.000000
_cell_angle_beta 90.000000
_cell_angle_gamma 90.000000
_cell_volume 3168.277848
_symmetry_space_group_name_H-M "I B A M"
_symmetry_group_IT_number 72
_symmetry_cell_setting 'orthorhombic'
loop_
_space_group_symop_operation_xyz
x,y,z
-x,-y,z
x,-y,1/2-z
-x,y,1/2-z
-x,-y,-z
x,y,-z
-x,y,1/2+z
x,-y,1/2+z
1/2+x,1/2+y,1/2+z
1/2-x,1/2-y,1/2+z
1/2+x,1/2-y,-z
1/2-x,1/2+y,-z
1/2-x,1/2-y,1/2-z
1/2+x,1/2+y,1/2-z
1/2-x,1/2+y,z
1/2+x,1/2-y,z
loop_
_atom_site_type_symbol
_atom_site_label
_atom_site_fract_x
_atom_site_fract_y
_atom_site_fract_z
Si Si1 0.778894 0.736438 0.000000
Si Si2 0.500000 0.000000 0.750000
Si Si3 0.971346 0.246001 0.000000
Si Si4 0.867074 0.000000 0.750000
Si Si5 0.276739 0.000000 0.250000
Si Si6 0.076583 0.332270 0.645827
Si Si7 0.837436 0.642780 0.863333
O O1 0.811775 0.720415 0.932950
O O2 0.748345 0.490930 0.000000
O O3 0.533903 0.883950 0.805977
O O4 0.941286 0.242921 0.929522
O O5 0.000000 0.500000 0.000000
O O6 0.000000 0.000000 0.000000
O O7 0.897067 0.157355 0.802116
O O8 0.839366 0.148845 0.694450
O O9 0.250000 0.250000 0.250000
O O10 0.306702 0.959672 0.320341
O O11 0.112454 0.543921 0.629382
#
# Coordination Sequence:
#
# PCOD9529419 Si02
#       7
#     8   4   8   8   8  16  16
#     4  12  31  53  82 117 158 208 261 328 398 482
#     4  12  22  48  72 118 158 206 280 316 392 454
#     4  12  31  51  74 112 156 204 262 316 388 456
#     4  12  25  45  82 112 152 216 250 330 392 464
#     4  12  24  42  74 108 146 191 249 314 371 461
#     4  12  27  48  77 111 162 206 262 331 385 471
#     4  12  26  50  74 115 156 203 260 318 404 459
#
# _framework density 21.462762000000001
#
# number of rings (size 3 to 8) (size 9 to 14) (size 15 to 20)
#    0.000    0.000    5.882    2.824    9.882    0.941 
#    0.000    0.000    0.000    0.000    0.000    0.000 
#    0.000    0.000    0.000    0.000    0.000    0.000 
#
# Total GULP energy -189681.306975 kJ/mol
# GULP energy per Si atom -5578.861970 kJ/mol
# Density = 2.141391 g / cm^3
# Si number density = 21.462762 Si / 1000 Ang^3
#
#
#
# Elastic Constant Matrix: (Units=GPa)
#
#
# Indices 1 2 3 4 5 6 
#
# 1 144.7854 67.9362 84.9158 0.0000 0.0000 0.0000
# 2 67.9362 114.9358 56.1927 0.0000 0.0000 0.0000
# 3 84.9158 56.1927 236.4978 0.0000 0.0000 0.0000
# 4 0.0000 0.0000 0.0000 22.4486 0.0000 0.0000
# 5 0.0000 0.0000 0.0000 0.0000 32.8198 0.0000
# 6 0.0000 0.0000 0.0000 0.0000 0.0000 4.3406
#
#
#
# Elastic Compliance Matrix: (Units=1/GPa)
#
#
# Indices 1 2 3 4 5 6 
#
# 1 0.010888 -0.005119 -0.002693 0.000000 0.000000 0.000000
# 2 -0.005119 0.012251 -0.001073 0.000000 0.000000 0.000000
# 3 -0.002693 -0.001073 0.005450 0.000000 0.000000 0.000000
# 4 0.000000 0.000000 0.000000 0.044546 0.000000 0.000000
# 5 0.000000 0.000000 0.000000 0.000000 0.030469 0.000000
# 6 0.000000 0.000000 0.000000 0.000000 0.000000 0.230382
#
#
# Mechanical properties :
#
#
# Convention : Reuss Voigt Hill
#
# Bulk Modulus (GPa) = 92.42843 101.58983 97.00913
# Shear Modulus (GPa) = 14.07010 31.06676 22.56843
#
# Velocity S-wave (km/s) = 2.56317 3.80869 3.24623
# Velocity P-wave (km/s) = 7.20540 8.17174 7.70374
#
# Compressibility (1/GPa) = 0.01081918
#
# Stress axis : x y z
#
# Youngs Moduli (GPa) = 91.84152 81.62710 183.47728
#
# Poissons Ratio (x) = 0.41786 0.49414
# Poissons Ratio (y) = 0.47015 0.19683
# Poissons Ratio (z) = 0.24735 0.08757
#
# Static dielectric constant tensor:
#      x y z
#    x 1.509260 0.000000 0.000000 
#    y 0.000000 1.827140 0.000000 
#    z 0.000000 0.000000 1.725870 
# 
# From -- ./inp_files/41012.got.cif
#   From: 2010.05.17/outbox.cif.g08.bks.cpg/sg72_21_cif.got.tgz:41012.got - 2010.06.03 17:03:01.
