data_PCOD9529380
_publ_section_title
;
Structure prediction by ZEFSAII (Michael W. Deem and Ramdas Pophale) SiO2 
 PCOD9529380
Probable space group: I B A M
;
_chemical_formula_sum "Si O2"
_cell_formula_units_Z 48
_cell_length_a 8.585477
_cell_length_b 9.670953
_cell_length_c 25.132851
_cell_angle_alpha 90.000000
_cell_angle_beta 90.000000
_cell_angle_gamma 90.000000
_cell_volume 2086.774198
_symmetry_space_group_name_H-M "I B A M"
_symmetry_group_IT_number 72
_symmetry_cell_setting 'orthorhombic'
loop_
_space_group_symop_operation_xyz
x,y,z
-x,-y,z
x,-y,1/2-z
-x,y,1/2-z
-x,-y,-z
x,y,-z
-x,y,1/2+z
x,-y,1/2+z
1/2+x,1/2+y,1/2+z
1/2-x,1/2-y,1/2+z
1/2+x,1/2-y,-z
1/2-x,1/2+y,-z
1/2-x,1/2-y,1/2-z
1/2+x,1/2+y,1/2-z
1/2-x,1/2+y,z
1/2+x,1/2-y,z
loop_
_atom_site_type_symbol
_atom_site_label
_atom_site_fract_x
_atom_site_fract_y
_atom_site_fract_z
Si Si1 0.649909 0.083437 0.880930
Si Si2 0.170488 0.874403 0.776855
Si Si3 0.631573 0.618705 0.437901
O O1 0.790180 0.111267 0.838608
O O2 0.614295 0.236853 0.905090
O O3 0.500000 0.000000 0.857670
O O4 0.715141 0.968963 0.922176
O O5 0.250000 0.750000 0.750000
O O6 0.000000 0.871221 0.750000
O O7 0.257478 0.000000 0.750000
O O8 0.500000 0.500000 0.430252
O O9 0.633715 0.657156 0.500000
#
# Coordination Sequence:
#
# PCOD9529380 Si02
#       3
#    16  16  16
#     4  12  27  46  78 110 154 202 256 319 394 463
#     4  11  28  47  74 108 149 195 252 311 378 457
#     4  11  26  47  76 112 154 200 255 320 392 471
#
# _framework density 23.002009000000001
#
# number of rings (size 3 to 8) (size 9 to 14) (size 15 to 20)
#    0.000    0.667    0.000    5.000   18.667    5.333 
#    0.000    0.000    0.000    0.000    0.000    0.000 
#    0.000    0.000    0.000    0.000    0.000    0.000 
#
# Total GULP energy -133626.170682 kJ/mol
# GULP energy per Si atom -5567.757112 kJ/mol
# Density = 2.294966 g / cm^3
# Si number density = 23.002009 Si / 1000 Ang^3
#
#
#
# Elastic Constant Matrix: (Units=GPa)
#
#
# Indices 1 2 3 4 5 6 
#
# 1 100.2061 41.9342 44.7674 0.0000 0.0000 0.0000
# 2 41.9342 217.6428 60.9663 0.0000 0.0000 0.0000
# 3 44.7674 60.9663 148.2388 0.0000 0.0000 0.0000
# 4 0.0000 0.0000 0.0000 29.0078 0.0000 0.0000
# 5 0.0000 0.0000 0.0000 0.0000 23.1884 0.0000
# 6 0.0000 0.0000 0.0000 0.0000 0.0000 24.8502
#
#
#
# Elastic Compliance Matrix: (Units=1/GPa)
#
#
# Indices 1 2 3 4 5 6 
#
# 1 0.011931 -0.001457 -0.003004 0.000000 0.000000 0.000000
# 2 -0.001457 0.005371 -0.001769 0.000000 0.000000 0.000000
# 3 -0.003004 -0.001769 0.008380 0.000000 0.000000 0.000000
# 4 0.000000 0.000000 0.000000 0.034474 0.000000 0.000000
# 5 0.000000 0.000000 0.000000 0.000000 0.043125 0.000000
# 6 0.000000 0.000000 0.000000 0.000000 0.000000 0.040241
#
#
# Mechanical properties :
#
#
# Convention : Reuss Voigt Hill
#
# Bulk Modulus (GPa) = 75.62756 84.60262 80.11509
# Shear Modulus (GPa) = 31.17405 36.63727 33.90566
#
# Velocity S-wave (km/s) = 3.68540 3.99530 3.84348
# Velocity P-wave (km/s) = 7.14560 7.62520 7.38929
#
# Compressibility (1/GPa) = 0.01322269
#
# Stress axis : x y z
#
# Youngs Moduli (GPa) = 83.81320 186.18613 119.32520
#
# Poissons Ratio (x) = 0.27135 0.35843
# Poissons Ratio (y) = 0.12215 0.21106
# Poissons Ratio (z) = 0.25176 0.32932
#
# Static dielectric constant tensor:
#      x y z
#    x 1.894170 0.000000 0.000000 
#    y 0.000000 2.127020 0.000000 
#    z 0.000000 0.000000 1.878020 
# 
# From -- ./inp_files/50485.got.cif
#   From: 2010.05.17/outbox.cif.g08.bks.cpg/sg72_26_cif.got.tgz:50485.got - 2010.06.03 17:03:01.
