data_PCOD9529908
_publ_section_title
;
Structure prediction by ZEFSAII (Michael W. Deem and Ramdas Pophale) SiO2 
 PCOD9529908
Probable space group: I B C A 
;
_chemical_formula_sum "Si O2"
_cell_formula_units_Z 88
_cell_length_a 13.372312
_cell_length_b 22.633491
_cell_length_c 15.219140
_cell_angle_alpha 90.000000
_cell_angle_beta 90.000000
_cell_angle_gamma 90.000000
_cell_volume 4606.256923
_symmetry_space_group_name_H-M "I B C A "
_symmetry_group_IT_number 73
_symmetry_cell_setting 'orthorhombic'
loop_
_space_group_symop_operation_xyz
x,y,z
-x,1/2-y,z
x,-y,1/2-z
1/2-x,y,-z
-x,-y,-z
x,1/2+y,-z
-x,y,1/2+z
1/2+x,-y,z
1/2+x,1/2+y,1/2+z
1/2-x,-y,1/2+z
1/2+x,1/2-y,-z
-x,1/2+y,1/2-z
1/2-x,1/2-y,1/2-z
1/2+x,y,1/2-z
1/2-x,1/2+y,z
x,1/2-y,1/2+z
loop_
_atom_site_type_symbol
_atom_site_label
_atom_site_fract_x
_atom_site_fract_y
_atom_site_fract_z
Si Si1 0.923529 0.627327 0.198310
Si Si2 0.038448 0.097032 0.972631
Si Si3 0.981873 0.000000 0.750000
Si Si4 0.382584 0.017746 0.423122
Si Si5 0.225347 0.869804 0.900730
Si Si6 0.504871 0.319041 0.373942
O O1 0.920766 0.559128 0.230348
O O2 0.816537 0.646113 0.161511
O O3 0.958798 0.666031 0.279669
O O4 0.002452 0.627102 0.117481
O O5 0.945167 0.055818 0.005271
O O6 0.051364 0.143774 0.050049
O O7 0.125799 0.049313 0.956373
O O8 0.050824 0.986785 0.834794
O O9 0.288437 0.058688 0.402133
O O10 0.119360 0.842255 0.874067
O O11 0.250000 0.851169 0.000000
O O12 0.500000 0.250000 0.392705
#
# Coordination Sequence:
#
# PCOD9529908 Si02
#       6
#    16  16   8  16  16  16
#     4  11  21  37  66  94 128 172 207 265 326 389
#     4   9  18  37  62  88 125 166 203 253 326 375
#     4  10  18  34  60  94 134 158 196 262 328 376
#     4   9  17  33  60  91 127 158 198 255 315 391
#     4  11  21  40  65  95 123 171 216 257 324 396
#     4  11  24  42  65  92 129 171 221 271 319 379
#
# _framework density 19.10445
#
# number of rings (size 3 to 8) (size 9 to 14) (size 15 to 20)
#    0.000    1.818    7.273    0.000    0.000    2.182 
#    0.000    0.000    0.000    0.000    0.000    0.000 
#    0.000    0.000    0.000    0.000    0.000    0.000 
#
# Total GULP energy -245485.658325 kJ/mol
# GULP energy per Si atom -5579.219507 kJ/mol
# Density = 1.906097 g / cm^3
# Si number density = 19.104450 Si / 1000 Ang^3
#
#
#
# Elastic Constant Matrix: (Units=GPa)
#
#
# Indices 1 2 3 4 5 6 
#
# 1 69.3230 23.2782 32.6779 0.0000 0.0000 0.0000
# 2 23.2782 97.2904 49.9280 0.0001 0.0000 0.0000
# 3 32.6779 49.9280 126.8738 0.0000 0.0000 0.0000
# 4 0.0000 0.0001 0.0000 23.8150 0.0000 0.0000
# 5 0.0000 0.0000 0.0000 0.0000 28.3148 0.0000
# 6 0.0000 0.0000 0.0000 0.0000 0.0000 3.7305
#
#
#
# Elastic Compliance Matrix: (Units=1/GPa)
#
#
# Indices 1 2 3 4 5 6 
#
# 1 0.016804 -0.002255 -0.003441 0.000000 0.000000 0.000000
# 2 -0.002255 0.013182 -0.004607 0.000000 0.000000 0.000000
# 3 -0.003441 -0.004607 0.010581 0.000000 0.000000 0.000000
# 4 0.000000 0.000000 0.000000 0.041990 0.000000 0.000000
# 5 0.000000 0.000000 0.000000 0.000000 0.035317 0.000000
# 6 0.000000 0.000000 0.000000 0.000000 0.000000 0.268063
#
#
# Mechanical properties :
#
#
# Convention : Reuss Voigt Hill
#
# Bulk Modulus (GPa) = 50.09383 56.13950 53.11666
# Shear Modulus (GPa) = 12.10076 23.67893 17.88985
#
# Velocity S-wave (km/s) = 2.51947 3.52440 3.06342
# Velocity P-wave (km/s) = 5.89420 6.78315 6.35424
#
# Compressibility (1/GPa) = 0.01996254
#
# Stress axis : x y z
#
# Youngs Moduli (GPa) = 59.50831 75.86029 94.50971
#
# Poissons Ratio (x) = 0.17106 0.32519
# Poissons Ratio (y) = 0.13419 0.43538
# Poissons Ratio (z) = 0.20476 0.34947
#
# Static dielectric constant tensor:
#      x y z
#    x 1.664210 0.000000 0.000000 
#    y 0.000000 1.678610 0.000000 
#    z 0.000000 0.000000 1.677630 
# 
# From -- ./inp_files/16966.got.cif
#   From: 2010.05.17/outbox.cif.g08.bks.cpg/sg73_9_cif.got.tgz:16966.got - 2010.06.03 17:35:07.
