data_PCOD9529247
_publ_section_title
;
Structure prediction by ZEFSAII (Michael W. Deem and Ramdas Pophale) SiO2 
 PCOD9529247
Probable space group: I B A M
;
_chemical_formula_sum "Si O2"
_cell_formula_units_Z 56
_cell_length_a 8.051854
_cell_length_b 20.352336
_cell_length_c 17.663790
_cell_angle_alpha 90.000000
_cell_angle_beta 90.000000
_cell_angle_gamma 90.000000
_cell_volume 2894.636594
_symmetry_space_group_name_H-M "I B A M"
_symmetry_group_IT_number 72
_symmetry_cell_setting 'orthorhombic'
loop_
_space_group_symop_operation_xyz
x,y,z
-x,-y,z
x,-y,1/2-z
-x,y,1/2-z
-x,-y,-z
x,y,-z
-x,y,1/2+z
x,-y,1/2+z
1/2+x,1/2+y,1/2+z
1/2-x,1/2-y,1/2+z
1/2+x,1/2-y,-z
1/2-x,1/2+y,-z
1/2-x,1/2-y,1/2-z
1/2+x,1/2+y,1/2-z
1/2-x,1/2+y,z
1/2+x,1/2-y,z
loop_
_atom_site_type_symbol
_atom_site_label
_atom_site_fract_x
_atom_site_fract_y
_atom_site_fract_z
Si Si1 0.000000 0.640723 0.250000
Si Si2 0.717928 0.227028 0.337203
Si Si3 0.657992 0.571284 0.789399
Si Si4 0.033995 0.844991 0.910646
O O1 0.054087 0.683123 0.177171
O O2 0.163410 0.600627 0.271661
O O3 0.750000 0.250000 0.250000
O O4 0.668644 0.289666 0.386678
O O5 0.862311 0.183058 0.374075
O O6 0.662244 0.500000 0.750000
O O7 0.500000 0.606994 0.750000
O O8 0.603487 0.586431 0.875285
O O9 0.014882 0.849542 0.000000
#
# Coordination Sequence:
#
# PCOD9529247 Si02
#       4
#     8  16  16  16
#     4  12  21  38  70  94 125 162 238 270 304 384
#     4  12  20  37  66  98 128 175 219 261 329 414
#     4  11  23  42  67  92 122 178 234 263 314 396
#     4  12  23  39  63 102 143 170 210 286 345 385
#
# _framework density 19.346124
#
# number of rings (size 3 to 8) (size 9 to 14) (size 15 to 20)
#    0.000    0.286    8.571    1.286    0.000    0.000 
#    0.000    4.286    0.000    1.714    0.000    0.000 
#    0.000    0.000    0.000    0.000    0.000    0.000 
#
# Total GULP energy -155949.207713 kJ/mol
# GULP energy per Si atom -5569.614561 kJ/mol
# Density = 1.930209 g / cm^3
# Si number density = 19.346124 Si / 1000 Ang^3
#
#
#
# Elastic Constant Matrix: (Units=GPa)
#
#
# Indices 1 2 3 4 5 6 
#
# 1 140.6556 43.5200 50.3188 0.0000 0.0000 0.0000
# 2 43.5200 98.5389 55.2480 0.0000 0.0000 0.0000
# 3 50.3188 55.2480 157.2008 0.0000 0.0000 0.0000
# 4 0.0000 0.0000 0.0000 23.9609 0.0000 0.0000
# 5 0.0000 0.0000 0.0000 0.0000 25.7343 0.0000
# 6 0.0000 0.0000 0.0000 0.0000 0.0000 40.5250
#
#
#
# Elastic Compliance Matrix: (Units=1/GPa)
#
#
# Indices 1 2 3 4 5 6 
#
# 1 0.008612 -0.002812 -0.001768 0.000000 0.000000 0.000000
# 2 -0.002812 0.013557 -0.003864 0.000000 0.000000 0.000000
# 3 -0.001768 -0.003864 0.008285 0.000000 0.000000 0.000000
# 4 0.000000 0.000000 0.000000 0.041735 0.000000 0.000000
# 5 0.000000 0.000000 0.000000 0.000000 0.038859 0.000000
# 6 0.000000 0.000000 0.000000 0.000000 0.000000 0.024676
#
#
# Mechanical properties :
#
#
# Convention : Reuss Voigt Hill
#
# Bulk Modulus (GPa) = 73.72034 77.17432 75.44733
# Shear Modulus (GPa) = 31.81965 34.53128 33.17546
#
# Velocity S-wave (km/s) = 4.05996 4.22941 4.14555
# Velocity P-wave (km/s) = 7.75670 7.98928 7.87385
#
# Compressibility (1/GPa) = 0.01356478
#
# Stress axis : x y z
#
# Youngs Moduli (GPa) = 116.11286 73.76296 120.69300
#
# Poissons Ratio (x) = 0.20743 0.21343
# Poissons Ratio (y) = 0.32653 0.46641
# Poissons Ratio (z) = 0.20533 0.28505
#
# Static dielectric constant tensor:
#      x y z
#    x 1.736420 0.000000 0.000000 
#    y 0.000000 1.822650 0.000000 
#    z 0.000000 0.000000 1.689020 
# 
# From -- ./inp_files/18378.got.cif
#   From: 2010.05.17/outbox.cif.g08.bks.cpg/sg72_10_cif.got.tgz:18378.got - 2010.06.03 17:03:01.
