data_PCOD9529655
_publ_section_title
;
Structure prediction by ZEFSAII (Michael W. Deem and Ramdas Pophale) SiO2 
 PCOD9529655
Probable space group: I B C A 
;
_chemical_formula_sum "Si O2"
_cell_formula_units_Z 112
_cell_length_a 29.018256
_cell_length_b 31.641573
_cell_length_c 5.376311
_cell_angle_alpha 90.000000
_cell_angle_beta 90.000000
_cell_angle_gamma 90.000000
_cell_volume 4936.438791
_symmetry_space_group_name_H-M "I B C A "
_symmetry_group_IT_number 73
_symmetry_cell_setting 'orthorhombic'
loop_
_space_group_symop_operation_xyz
x,y,z
-x,1/2-y,z
x,-y,1/2-z
1/2-x,y,-z
-x,-y,-z
x,1/2+y,-z
-x,y,1/2+z
1/2+x,-y,z
1/2+x,1/2+y,1/2+z
1/2-x,-y,1/2+z
1/2+x,1/2-y,-z
-x,1/2+y,1/2-z
1/2-x,1/2-y,1/2-z
1/2+x,y,1/2-z
1/2-x,1/2+y,z
x,1/2-y,1/2+z
loop_
_atom_site_type_symbol
_atom_site_label
_atom_site_fract_x
_atom_site_fract_y
_atom_site_fract_z
Si Si1 0.383333 0.352964 0.423488
Si Si2 0.672978 0.369977 0.425999
Si Si3 0.310521 0.724708 0.602190
Si Si4 0.029724 0.906254 0.423144
Si Si5 0.791818 0.549732 0.677116
Si Si6 0.609953 0.473413 0.998345
Si Si7 0.410540 0.758012 0.602808
O O1 0.360169 0.366065 0.683685
O O2 0.436544 0.366336 0.423931
O O3 0.385480 0.302870 0.399112
O O4 0.355753 0.370498 0.183335
O O5 0.700582 0.325185 0.415243
O O6 0.700490 0.414082 0.386509
O O7 0.296542 0.751295 0.356664
O O8 0.366660 0.726353 0.601884
O O9 0.066549 0.943665 0.456378
O O10 0.996374 0.907870 0.660688
O O11 0.783960 0.500000 0.750000
O O12 0.750000 0.562611 0.500000
O O13 0.840795 0.548425 0.537193
O O14 0.614570 0.500000 0.750000
O O15 0.602313 0.500000 0.250000
O O16 0.437551 0.749957 0.352746
#
# Coordination Sequence:
#
# PCOD9529655 Si02
#       7
#    16  16  16  16  16  16  16
#     4  12  22  38  65 100 135 178 240 278 347 433
#     4  12  22  38  70 103 133 187 239 284 350 433
#     4  10  16  31  56 101 131 169 231 283 348 417
#     4  12  27  44  66  97 142 184 233 299 358 422
#     4  11  27  48  75 107 148 191 238 302 357 428
#     4  11  25  45  74 101 129 179 237 295 366 434
#     4  10  16  30  56  95 127 172 225 280 344 412
#
# _framework density 22.688420000000001
#
# number of rings (size 3 to 8) (size 9 to 14) (size 15 to 20)
#    0.000    0.857    7.143    2.143    4.000    2.857 
#    0.000    0.000    0.000    3.429    0.000    0.000 
#    0.000    0.000    0.000    0.000    0.000    0.000 
#
# Total GULP energy -312856.233421 kJ/mol
# GULP energy per Si atom -5586.718454 kJ/mol
# Density = 2.263678 g / cm^3
# Si number density = 22.688420 Si / 1000 Ang^3
#
#
#
# Elastic Constant Matrix: (Units=GPa)
#
#
# Indices 1 2 3 4 5 6 
#
# 1 77.1147 16.9515 21.2233 0.0000 0.0000 0.0000
# 2 16.9515 92.9975 17.5053 0.0000 0.0000 0.0000
# 3 21.2233 17.5053 169.8576 0.0000 0.0000 0.0000
# 4 0.0000 0.0000 0.0000 27.5050 0.0000 0.0000
# 5 0.0000 0.0000 0.0000 0.0000 26.3654 0.0000
# 6 0.0000 0.0000 0.0000 0.0000 0.0000 41.5297
#
#
#
# Elastic Compliance Matrix: (Units=1/GPa)
#
#
# Indices 1 2 3 4 5 6 
#
# 1 0.013875 -0.002246 -0.001502 0.000000 0.000000 0.000000
# 2 -0.002246 0.011329 -0.000887 0.000000 0.000000 0.000000
# 3 -0.001502 -0.000887 0.006166 0.000000 0.000000 0.000000
# 4 0.000000 0.000000 0.000000 0.036357 0.000000 0.000000
# 5 0.000000 0.000000 0.000000 0.000000 0.037929 0.000000
# 6 0.000000 0.000000 0.000000 0.000000 0.000000 0.024079
#
#
# Mechanical properties :
#
#
# Convention : Reuss Voigt Hill
#
# Bulk Modulus (GPa) = 45.24914 50.14778 47.69846
# Shear Modulus (GPa) = 34.15935 38.03266 36.09600
#
# Velocity S-wave (km/s) = 3.88440 4.09871 3.99299
# Velocity P-wave (km/s) = 6.33286 6.67458 6.50596
#
# Compressibility (1/GPa) = 0.02209987
#
# Stress axis : x y z
#
# Youngs Moduli (GPa) = 72.07257 88.26598 162.16975
#
# Poissons Ratio (x) = 0.19828 0.24360
# Poissons Ratio (y) = 0.16190 0.14383
# Poissons Ratio (z) = 0.10826 0.07828
#
# Static dielectric constant tensor:
#      x y z
#    x 1.789890 0.000000 0.000000 
#    y 0.000000 1.951540 0.000000 
#    z 0.000000 0.000000 1.881750 
# 
# From -- ./inp_files/3256.got.cif
#   From: 2010.05.17/outbox.cif.g08.bks.cpg/sg73_2_cif.got.tgz:3256.got - 2010.06.03 17:35:07.
