data_PCOD9529301
_publ_section_title
;
Structure prediction by ZEFSAII (Michael W. Deem and Ramdas Pophale) SiO2 
 PCOD9529301
Probable space group: I B A M
;
_chemical_formula_sum "Si O2"
_cell_formula_units_Z 64
_cell_length_a 10.032267
_cell_length_b 10.020266
_cell_length_c 32.094526
_cell_angle_alpha 90.000000
_cell_angle_beta 90.000000
_cell_angle_gamma 90.000000
_cell_volume 3226.333805
_symmetry_space_group_name_H-M "I B A M"
_symmetry_group_IT_number 72
_symmetry_cell_setting 'orthorhombic'
loop_
_space_group_symop_operation_xyz
x,y,z
-x,-y,z
x,-y,1/2-z
-x,y,1/2-z
-x,-y,-z
x,y,-z
-x,y,1/2+z
x,-y,1/2+z
1/2+x,1/2+y,1/2+z
1/2-x,1/2-y,1/2+z
1/2+x,1/2-y,-z
1/2-x,1/2+y,-z
1/2-x,1/2-y,1/2-z
1/2+x,1/2+y,1/2-z
1/2-x,1/2+y,z
1/2+x,1/2-y,z
loop_
_atom_site_type_symbol
_atom_site_label
_atom_site_fract_x
_atom_site_fract_y
_atom_site_fract_z
Si Si1 0.766933 0.709169 0.597348
Si Si2 0.343928 0.464394 0.048358
Si Si3 0.525248 0.150957 0.139719
Si Si4 0.640231 0.850503 0.732404
O O1 0.740836 0.565179 0.577080
O O2 0.624013 0.763557 0.611669
O O3 0.875219 0.709338 0.635151
O O4 0.820907 0.814007 0.563603
O O5 0.500000 0.500000 0.052595
O O6 0.306678 0.480059 0.000000
O O7 0.604530 0.142493 0.183505
O O8 0.500000 0.000000 0.125537
O O9 0.500000 0.801433 0.750000
O O10 0.750000 0.750000 0.750000
O O11 0.665590 0.000000 0.750000
#
# Coordination Sequence:
#
# PCOD9529301 Si02
#       4
#    16  16  16  16
#     4  12  24  43  67 100 130 175 225 272 337 396
#     4  11  24  43  65  97 137 176 223 280 334 397
#     4  12  24  42  69  96 135 170 220 278 330 397
#     4  11  24  45  67  97 133 172 217 271 332 400
#
# _framework density 19.836756999999999
#
# number of rings (size 3 to 8) (size 9 to 14) (size 15 to 20)
#    0.000    0.500    7.500    2.250    0.000    0.500 
#    0.000    1.250    0.000    0.000    0.000    0.000 
#    0.000    0.000    0.000    0.000    0.000    0.000 
#
# Total GULP energy -178483.836933 kJ/mol
# GULP energy per Si atom -5577.619904 kJ/mol
# Density = 1.979161 g / cm^3
# Si number density = 19.836757 Si / 1000 Ang^3
#
#
#
# Elastic Constant Matrix: (Units=GPa)
#
#
# Indices 1 2 3 4 5 6 
#
# 1 127.1515 53.4900 24.8949 0.0000 0.0000 0.0000
# 2 53.4900 80.2537 23.5119 0.0000 0.0000 0.0000
# 3 24.8949 23.5119 77.7840 0.0000 0.0000 0.0000
# 4 0.0000 0.0000 0.0000 22.2666 0.0000 0.0000
# 5 0.0000 0.0000 0.0000 0.0000 28.9568 0.0000
# 6 0.0000 0.0000 0.0000 0.0000 0.0000 36.7970
#
#
#
# Elastic Compliance Matrix: (Units=1/GPa)
#
#
# Indices 1 2 3 4 5 6 
#
# 1 0.011074 -0.006959 -0.001441 0.000000 0.000000 0.000000
# 2 -0.006959 0.018044 -0.003227 0.000000 0.000000 0.000000
# 3 -0.001441 -0.003227 0.014293 0.000000 0.000000 0.000000
# 4 0.000000 0.000000 0.000000 0.044910 0.000000 0.000000
# 5 0.000000 0.000000 0.000000 0.000000 0.034534 0.000000
# 6 0.000000 0.000000 0.000000 0.000000 0.000000 0.027176
#
#
# Mechanical properties :
#
#
# Convention : Reuss Voigt Hill
#
# Bulk Modulus (GPa) = 49.60949 54.33144 51.97046
# Shear Modulus (GPa) = 27.77709 29.82358 28.80034
#
# Velocity S-wave (km/s) = 3.74610 3.88164 3.81447
# Velocity P-wave (km/s) = 6.61620 6.89480 6.75694
#
# Compressibility (1/GPa) = 0.02015743
#
# Stress axis : x y z
#
# Youngs Moduli (GPa) = 90.29976 55.41965 69.96590
#
# Poissons Ratio (x) = 0.38566 0.10081
# Poissons Ratio (y) = 0.62839 0.22578
# Poissons Ratio (z) = 0.13010 0.17884
#
# Static dielectric constant tensor:
#      x y z
#    x 1.690920 0.000000 0.000000 
#    y 0.000000 1.678340 0.000000 
#    z 0.000000 0.000000 1.828250 
# 
# From -- ./inp_files/50598.got.cif
#   From: 2010.05.17/outbox.cif.g08.bks.cpg/sg72_26_cif.got.tgz:50598.got - 2010.06.03 17:03:01.
