data_PCOD9529949
_publ_section_title
;
Structure prediction by ZEFSAII (Michael W. Deem and Ramdas Pophale) SiO2 
 PCOD9529949
Probable space group: I B C A 
;
_chemical_formula_sum "Si O2"
_cell_formula_units_Z 104
_cell_length_a 26.765103
_cell_length_b 10.275435
_cell_length_c 18.074077
_cell_angle_alpha 90.000000
_cell_angle_beta 90.000000
_cell_angle_gamma 90.000000
_cell_volume 4970.788255
_symmetry_space_group_name_H-M "I B C A "
_symmetry_group_IT_number 73
_symmetry_cell_setting 'orthorhombic'
loop_
_space_group_symop_operation_xyz
x,y,z
-x,1/2-y,z
x,-y,1/2-z
1/2-x,y,-z
-x,-y,-z
x,1/2+y,-z
-x,y,1/2+z
1/2+x,-y,z
1/2+x,1/2+y,1/2+z
1/2-x,-y,1/2+z
1/2+x,1/2-y,-z
-x,1/2+y,1/2-z
1/2-x,1/2-y,1/2-z
1/2+x,y,1/2-z
1/2-x,1/2+y,z
x,1/2-y,1/2+z
loop_
_atom_site_type_symbol
_atom_site_label
_atom_site_fract_x
_atom_site_fract_y
_atom_site_fract_z
Si Si1 0.336675 0.805320 0.522786
Si Si2 0.610622 0.214576 0.120024
Si Si3 0.677683 0.280137 0.236696
Si Si4 0.882425 0.419492 0.160786
Si Si5 0.263116 0.156099 0.365407
Si Si6 0.975561 0.000000 0.750000
Si Si7 0.750000 0.513586 0.500000
Si Si8 0.500000 0.250000 0.161487
O O1 0.363966 0.728484 0.458816
O O2 0.377038 0.861545 0.579328
O O3 0.296813 0.729439 0.573560
O O4 0.300949 0.909993 0.483931
O O5 0.632563 0.313520 0.181697
O O6 0.551253 0.229797 0.116971
O O7 0.625750 0.073158 0.151402
O O8 0.657240 0.160122 0.288781
O O9 0.699647 0.378791 0.297962
O O10 0.721459 0.237600 0.179367
O O11 0.937259 0.418553 0.197118
O O12 0.238309 0.053100 0.420546
O O13 0.004529 0.884955 0.708129
#
# Coordination Sequence:
#
# PCOD9529949 Si02
#       8
#    16  16  16  16  16   8   8   8
#     4  11  23  37  57  89 125 169 208 253 325 388
#     4  11  21  41  63  90 129 166 211 274 327 396
#     4  10  18  36  61  89 114 160 216 259 312 386
#     4  10  19  37  67  86 117 167 218 259 331 391
#     4  10  22  35  58  87 117 157 211 258 298 380
#     4  10  20  42  68 100 122 170 222 284 338 392
#     4  12  22  36  52  80 130 166 194 248 322 378
#     4  10  22  42  70  98 130 166 222 280 340 400
#
# _framework density 20.922235000000001
#
# number of rings (size 3 to 8) (size 9 to 14) (size 15 to 20)
#    0.000    1.538    3.077    4.154    0.000    0.000 
#    2.769   10.000    0.000    0.000    0.000    0.000 
#    0.000    0.000    0.000    0.000    0.000    0.000 
#
# Total GULP energy -289670.955182 kJ/mol
# GULP energy per Si atom -5570.595292 kJ/mol
# Density = 2.087461 g / cm^3
# Si number density = 20.922235 Si / 1000 Ang^3
#
#
#
# Elastic Constant Matrix: (Units=GPa)
#
#
# Indices 1 2 3 4 5 6 
#
# 1 88.2137 17.2599 40.4381 0.0000 0.0000 0.0000
# 2 17.2599 40.4185 24.8931 0.0000 0.0000 0.0000
# 3 40.4381 24.8931 132.1589 0.0000 0.0000 0.0000
# 4 0.0000 0.0000 0.0000 30.9409 0.0000 0.0000
# 5 0.0000 0.0000 0.0000 0.0000 5.1616 0.0000
# 6 0.0000 0.0000 0.0000 0.0000 0.0000 21.9042
#
#
#
# Elastic Compliance Matrix: (Units=1/GPa)
#
#
# Indices 1 2 3 4 5 6 
#
# 1 0.013654 -0.003685 -0.003484 0.000000 0.000000 0.000000
# 2 -0.003685 0.028983 -0.004331 0.000000 0.000000 0.000000
# 3 -0.003484 -0.004331 0.009448 0.000000 0.000000 0.000000
# 4 0.000000 0.000000 0.000000 0.032320 0.000000 0.000000
# 5 0.000000 0.000000 0.000000 0.000000 0.193738 0.000000
# 6 0.000000 0.000000 0.000000 0.000000 0.000000 0.045653
#
#
# Mechanical properties :
#
#
# Convention : Reuss Voigt Hill
#
# Bulk Modulus (GPa) = 34.38275 47.33035 40.85655
# Shear Modulus (GPa) = 14.02555 23.48133 18.75344
#
# Velocity S-wave (km/s) = 2.59195 3.35373 2.99714
# Velocity P-wave (km/s) = 5.04251 6.13741 5.61670
#
# Compressibility (1/GPa) = 0.02908435
#
# Stress axis : x y z
#
# Youngs Moduli (GPa) = 73.23778 34.50355 105.83703
#
# Poissons Ratio (x) = 0.12715 0.36871
# Poissons Ratio (y) = 0.26989 0.45843
# Poissons Ratio (z) = 0.25514 0.14945
#
# Static dielectric constant tensor:
#      x y z
#    x 1.766020 0.000000 0.000000 
#    y 0.000000 1.893710 0.000000 
#    z 0.000000 0.000000 1.760910 
# 
# From -- ./inp_files/23937.got.cif
#   From: 2010.05.17/outbox.cif.g08.bks.cpg/sg73_12_cif.got.tgz:23937.got - 2010.06.03 17:35:07.
