data_PCOD9529513
_publ_section_title
;
Structure prediction by ZEFSAII (Michael W. Deem and Ramdas Pophale) SiO2 
 PCOD9529513
Probable space group: I B A M
;
_chemical_formula_sum "Si O2"
_cell_formula_units_Z 56
_cell_length_a 15.000000
_cell_length_b 15.000000
_cell_length_c 24.000000
_cell_angle_alpha 90.000000
_cell_angle_beta 90.000000
_cell_angle_gamma 90.000000
_cell_volume 5400.000000
_symmetry_space_group_name_H-M "I B A M"
_symmetry_group_IT_number 72
_symmetry_cell_setting 'orthorhombic'
loop_
_space_group_symop_operation_xyz
x,y,z
-x,-y,z
x,-y,1/2-z
-x,y,1/2-z
-x,-y,-z
x,y,-z
-x,y,1/2+z
x,-y,1/2+z
1/2+x,1/2+y,1/2+z
1/2-x,1/2-y,1/2+z
1/2+x,1/2-y,-z
1/2-x,1/2+y,-z
1/2-x,1/2-y,1/2-z
1/2+x,1/2+y,1/2-z
1/2-x,1/2+y,z
1/2+x,1/2-y,z
loop_
_atom_site_type_symbol
_atom_site_label
_atom_site_fract_x
_atom_site_fract_y
_atom_site_fract_z
Si Si1 0.556333 0.270323 0.195028
Si Si2 0.509405 0.747693 0.564494
Si Si3 0.911856 0.556105 0.062729
Si Si4 0.300779 0.269411 0.935009
Si Si5 0.268873 0.639817 0.159446
Si Si6 0.145801 0.398584 0.759723
Si Si7 0.755860 0.058291 0.136934
O O1 0.500000 0.301216 0.250000
O O2 0.524852 0.286349 0.129798
O O3 0.652984 0.315420 0.194784
O O4 0.576496 0.166045 0.209053
O O5 0.528819 0.707529 0.500000
O O6 0.563399 0.839920 0.564427
O O7 0.403280 0.761173 0.563039
O O8 0.837522 0.535648 0.107235
O O9 0.000000 0.500000 0.073618
O O10 0.880756 0.533770 0.000000
O O11 0.248389 0.199142 0.895892
O O12 0.296748 0.364862 0.902593
O O13 0.269559 0.276141 0.000000
O O14 0.181933 0.636266 0.199902
O O15 0.298971 0.539000 0.143956
O O16 0.114359 0.500000 0.750000
O O17 0.230417 0.405007 0.802078
#
# Coordination Sequence:
#
# PCOD9529513 Si02
#       7
#    16  16  16  16  16  16  16
#     4  12  24  40  66  97 130 179 220 274 333 402
#     4  10  22  40  61  90 129 173 215 272 339 396
#     4  10  19  34  59  93 131 162 206 272 338 396
#     4  11  23  41  68  96 131 177 228 275 332 408
#     4  11  24  42  66  94 134 173 222 279 335 401
#     4  10  22  41  64  95 129 171 217 278 339 402
#     4  11  22  40  66  92 130 175 225 272 333 398
#
# _framework density 10.370369999999999
#
# number of rings (size 3 to 8) (size 9 to 14) (size 15 to 20)
#    0.000    1.286    2.857    2.571    2.000    5.429 
#    0.000    0.714    0.000    1.714    0.000    0.000 
#    0.000    0.000    0.000    0.000    0.000    0.000 
#
# Total GULP energy -312303.700897 kJ/mol
# GULP energy per Si atom -5576.851802 kJ/mol
# Density = 1.034677 g / cm^3
# Si number density = 10.370370 Si / 1000 Ang^3
#
#
#
# Elastic Constant Matrix: (Units=GPa)
#
#
# Indices 1 2 3 4 5 6 
#
# 1 34.6931 6.2291 29.1994 0.0000 0.0000 0.0000
# 2 6.2291 65.6087 24.2900 0.0000 0.0000 0.0000
# 3 29.1994 24.2900 132.9923 0.0000 0.0000 0.0000
# 4 0.0000 0.0000 0.0000 20.1601 0.0000 0.0000
# 5 0.0000 0.0000 0.0000 0.0000 43.9834 0.0000
# 6 0.0000 0.0000 0.0000 0.0000 0.0000 16.2681
#
#
#
# Elastic Compliance Matrix: (Units=1/GPa)
#
#
# Indices 1 2 3 4 5 6 
#
# 1 0.035374 -0.000518 -0.007672 0.000000 0.000000 0.000000
# 2 -0.000518 0.016355 -0.002873 0.000000 0.000000 0.000000
# 3 -0.007672 -0.002873 0.009728 0.000000 0.000000 0.000000
# 4 0.000000 0.000000 0.000000 0.049603 0.000000 0.000000
# 5 0.000000 0.000000 0.000000 0.000000 0.022736 0.000000
# 6 0.000000 0.000000 0.000000 0.000000 0.000000 0.061470
#
#
# Mechanical properties :
#
#
# Convention : Reuss Voigt Hill
#
# Bulk Modulus (GPa) = 25.42547 39.19235 32.30891
# Shear Modulus (GPa) = 21.69162 27.65403 24.67282
#
# Velocity S-wave (km/s) = 3.23746 3.65543 3.45277
# Velocity P-wave (km/s) = 5.12447 6.06247 5.61310
#
# Compressibility (1/GPa) = 0.03933065
#
# Stress axis : x y z
#
# Youngs Moduli (GPa) = 28.26903 61.14392 102.79094
#
# Poissons Ratio (x) = 0.03168 0.78862
# Poissons Ratio (y) = 0.01465 0.29535
# Poissons Ratio (z) = 0.21688 0.17569
#
# Static dielectric constant tensor:
#      x y z
#    x 1.757740 0.000000 0.000000 
#    y 0.000000 1.751260 0.000000 
#    z 0.000000 0.000000 1.783420 
# 
# From -- ./inp_files/44339.got.cif
#   From: 2010.05.17/outbox.ucp.g08.bks.cvg/sg72_23_cif.got.tgz:44339.got - 2010.06.11 16:33:07.
