data_PCOD9529372
_publ_section_title
;
Structure prediction by ZEFSAII (Michael W. Deem and Ramdas Pophale) SiO2 
 PCOD9529372
Probable space group: I B A M
;
_chemical_formula_sum "Si O2"
_cell_formula_units_Z 68
_cell_length_a 18.842681
_cell_length_b 7.685951
_cell_length_c 20.425660
_cell_angle_alpha 90.000000
_cell_angle_beta 90.000000
_cell_angle_gamma 90.000000
_cell_volume 2958.124209
_symmetry_space_group_name_H-M "I B A M"
_symmetry_group_IT_number 72
_symmetry_cell_setting 'orthorhombic'
loop_
_space_group_symop_operation_xyz
x,y,z
-x,-y,z
x,-y,1/2-z
-x,y,1/2-z
-x,-y,-z
x,y,-z
-x,y,1/2+z
x,-y,1/2+z
1/2+x,1/2+y,1/2+z
1/2-x,1/2-y,1/2+z
1/2+x,1/2-y,-z
1/2-x,1/2+y,-z
1/2-x,1/2-y,1/2-z
1/2+x,1/2+y,1/2-z
1/2-x,1/2+y,z
1/2+x,1/2-y,z
loop_
_atom_site_type_symbol
_atom_site_label
_atom_site_fract_x
_atom_site_fract_y
_atom_site_fract_z
Si Si1 0.194198 0.234785 0.621255
Si Si2 0.897801 0.302877 0.760715
Si Si3 0.601298 0.852908 0.000000
Si Si4 0.649598 0.661218 0.379296
Si Si5 0.946191 0.246739 0.500000
Si Si6 0.500000 0.500000 0.250000
O O1 0.168978 0.317401 0.690110
O O2 0.148191 0.319181 0.563790
O O3 0.276924 0.242364 0.604201
O O4 0.173423 0.035608 0.627384
O O5 0.925139 0.500000 0.750000
O O6 0.877345 0.234400 0.689317
O O7 0.950253 0.146056 0.786348
O O8 0.530992 0.732965 0.000000
O O9 0.574277 0.049560 0.000000
O O10 0.590677 0.673800 0.435122
#
# Coordination Sequence:
#
# PCOD9529372 Si02
#       6
#    16  16   8  16   8   4
#     4  12  25  46  71 103 140 186 239 293 354 422
#     4  12  26  46  74 107 145 186 236 292 348 421
#     4  11  26  45  68 101 139 185 236 291 361 425
#     4  12  25  46  71 103 140 186 239 293 354 422
#     4  11  26  45  68 101 139 185 236 291 361 425
#     4  12  26  48  68 112 148 184 232 282 368 414
#
# _framework density 22.987541
#
# number of rings (size 3 to 8) (size 9 to 14) (size 15 to 20)
#    0.000    0.235    2.353    6.706    3.294    1.882 
#    0.000    0.000    0.000    0.000    0.000    0.000 
#    0.000    0.000    0.000    0.000    0.000    0.000 
#
# Total GULP energy -190208.483037 kJ/mol
# GULP energy per Si atom -5594.367148 kJ/mol
# Density = 2.293522 g / cm^3
# Si number density = 22.987541 Si / 1000 Ang^3
#
#
#
# Elastic Constant Matrix: (Units=GPa)
#
#
# Indices 1 2 3 4 5 6 
#
# 1 95.7408 -6.5065 24.7864 0.0000 0.0000 0.0000
# 2 -6.5065 132.8977 -7.9783 0.0000 0.0000 0.0000
# 3 24.7864 -7.9783 126.8810 0.0000 0.0000 0.0000
# 4 0.0000 0.0000 0.0000 32.5664 0.0000 0.0000
# 5 0.0000 0.0000 0.0000 0.0000 37.1654 0.0000
# 6 0.0000 0.0000 0.0000 0.0000 0.0000 24.0541
#
#
#
# Elastic Compliance Matrix: (Units=1/GPa)
#
#
# Indices 1 2 3 4 5 6 
#
# 1 0.011024 0.000412 -0.002128 0.000000 0.000000 0.000000
# 2 0.000412 0.007568 0.000395 0.000000 0.000000 0.000000
# 3 -0.002128 0.000395 0.008322 0.000000 0.000000 0.000000
# 4 0.000000 0.000000 0.000000 0.030707 0.000000 0.000000
# 5 0.000000 0.000000 0.000000 0.000000 0.026907 0.000000
# 6 0.000000 0.000000 0.000000 0.000000 0.000000 0.041573
#
#
# Mechanical properties :
#
#
# Convention : Reuss Voigt Hill
#
# Bulk Modulus (GPa) = 41.19683 41.79139 41.49411
# Shear Modulus (GPa) = 36.54118 41.77171 39.15644
#
# Velocity S-wave (km/s) = 3.99131 4.26742 4.13168
# Velocity P-wave (km/s) = 6.26108 6.51926 6.39147
#
# Compressibility (1/GPa) = 0.02427371
#
# Stress axis : x y z
#
# Youngs Moduli (GPa) = 90.71388 132.12666 120.16503
#
# Poissons Ratio (x) = -0.05443 0.25566
# Poissons Ratio (y) = -0.03737 -0.04752
# Poissons Ratio (z) = 0.19300 -0.05225
#
# Static dielectric constant tensor:
#      x y z
#    x 1.958520 0.000000 0.000000 
#    y 0.000000 1.870320 0.000000 
#    z 0.000000 0.000000 1.779060 
# 
# From -- ./inp_files/38718.got.cif
#   From: 2010.05.17/outbox.cif.g08.bks.cpg/sg72_20_cif.got.tgz:38718.got - 2010.06.03 17:03:01.
