data_PCOD9529488
_publ_section_title
;
Structure prediction by ZEFSAII (Michael W. Deem and Ramdas Pophale) SiO2 
 PCOD9529488
Probable space group: I B A M
;
_chemical_formula_sum "Si O2"
_cell_formula_units_Z 64
_cell_length_a 16.061162
_cell_length_b 12.822335
_cell_length_c 13.759982
_cell_angle_alpha 90.000000
_cell_angle_beta 90.000000
_cell_angle_gamma 90.000000
_cell_volume 2833.752704
_symmetry_space_group_name_H-M "I B A M"
_symmetry_group_IT_number 72
_symmetry_cell_setting 'orthorhombic'
loop_
_space_group_symop_operation_xyz
x,y,z
-x,-y,z
x,-y,1/2-z
-x,y,1/2-z
-x,-y,-z
x,y,-z
-x,y,1/2+z
x,-y,1/2+z
1/2+x,1/2+y,1/2+z
1/2-x,1/2-y,1/2+z
1/2+x,1/2-y,-z
1/2-x,1/2+y,-z
1/2-x,1/2-y,1/2-z
1/2+x,1/2+y,1/2-z
1/2-x,1/2+y,z
1/2+x,1/2-y,z
loop_
_atom_site_type_symbol
_atom_site_label
_atom_site_fract_x
_atom_site_fract_y
_atom_site_fract_z
Si Si1 0.631150 0.500000 0.750000
Si Si2 0.875583 0.703068 0.887150
Si Si3 0.589565 0.969158 0.112341
Si Si4 0.000000 0.823702 0.750000
Si Si5 0.248081 0.371533 0.617235
O O1 0.571708 0.595121 0.785477
O O2 0.690010 0.545544 0.666021
O O3 0.864136 0.579715 0.882631
O O4 0.952583 0.749995 0.826644
O O5 0.790357 0.761354 0.861189
O O6 0.893529 0.728152 0.000000
O O7 0.500000 0.000000 0.151923
O O8 0.653640 0.885954 0.154915
O O9 0.574115 0.938080 0.000000
O O10 0.245627 0.386096 0.500000
#
# Coordination Sequence:
#
# PCOD9529488 Si02
#       5
#     8  16  16   8  16
#     4   9  18  34  53  78 112 144 179 226 274 323
#     4   9  18  35  57  81 110 143 181 224 274 327
#     4   9  18  36  57  79 110 145 183 229 274 321
#     4   9  18  34  53  80 114 142 179 226 269 328
#     4   9  18  35  56  78 107 143 183 227 273 325
#
# _framework density 22.584893000000001
#
# number of rings (size 3 to 8) (size 9 to 14) (size 15 to 20)
#    0.000    3.000    0.000    0.000    0.000    1.000 
#    9.000    7.500    0.000    0.000    0.000    0.000 
#    0.000    0.000    0.000    0.000    0.000    0.000 
#
# Total GULP energy -178613.591648 kJ/mol
# GULP energy per Si atom -5581.674739 kJ/mol
# Density = 2.253349 g / cm^3
# Si number density = 22.584893 Si / 1000 Ang^3
#
#
#
# Elastic Constant Matrix: (Units=GPa)
#
#
# Indices 1 2 3 4 5 6 
#
# 1 159.9878 27.1950 13.7206 0.0000 0.0000 0.0000
# 2 27.1950 45.0826 -11.2462 0.0000 0.0000 0.0000
# 3 13.7206 -11.2462 72.0369 0.0000 0.0000 0.0000
# 4 0.0000 0.0000 0.0000 9.3275 0.0000 0.0000
# 5 0.0000 0.0000 0.0000 0.0000 22.8517 0.0000
# 6 0.0000 0.0000 0.0000 0.0000 0.0000 28.5108
#
#
#
# Elastic Compliance Matrix: (Units=1/GPa)
#
#
# Indices 1 2 3 4 5 6 
#
# 1 0.007272 -0.004924 -0.002154 0.000000 0.000000 0.000000
# 2 -0.004924 0.026414 0.005062 0.000000 0.000000 0.000000
# 3 -0.002154 0.005062 0.015082 0.000000 0.000000 0.000000
# 4 0.000000 0.000000 0.000000 0.107210 0.000000 0.000000
# 5 0.000000 0.000000 0.000000 0.000000 0.043760 0.000000
# 6 0.000000 0.000000 0.000000 0.000000 0.000000 0.035074
#
#
# Mechanical properties :
#
#
# Convention : Reuss Voigt Hill
#
# Bulk Modulus (GPa) = 22.35321 37.38290 29.86806
# Shear Modulus (GPa) = 19.70380 28.63387 24.16884
#
# Velocity S-wave (km/s) = 2.95690 3.56453 3.27484
# Velocity P-wave (km/s) = 4.64506 5.79044 5.24909
#
# Compressibility (1/GPa) = 0.04473631
#
# Stress axis : x y z
#
# Youngs Moduli (GPa) = 137.51016 37.85805 66.30326
#
# Poissons Ratio (x) = 0.18642 0.14281
# Poissons Ratio (y) = 0.67711 -0.33560
# Poissons Ratio (z) = 0.29617 -0.19162
#
# Static dielectric constant tensor:
#      x y z
#    x 1.890200 0.000000 0.000000 
#    y 0.000000 1.825740 0.000000 
#    z 0.000000 0.000000 1.852140 
# 
# From -- ./inp_files/30143.got.cif
#   From: 2010.05.17/outbox.cif.g08.bks.cpg/sg72_16_cif.got.tgz:30143.got - 2010.06.03 17:03:01.
