data_PCOD9529098
_publ_section_title
;
Structure prediction by ZEFSAII (Michael W. Deem and Ramdas Pophale) SiO2 
 PCOD9529098
Probable space group: I B A M
;
_chemical_formula_sum "Si O2"
_cell_formula_units_Z 68
_cell_length_a 15.453696
_cell_length_b 7.204880
_cell_length_c 27.336311
_cell_angle_alpha 90.000000
_cell_angle_beta 90.000000
_cell_angle_gamma 90.000000
_cell_volume 3043.680229
_symmetry_space_group_name_H-M "I B A M"
_symmetry_group_IT_number 72
_symmetry_cell_setting 'orthorhombic'
loop_
_space_group_symop_operation_xyz
x,y,z
-x,-y,z
x,-y,1/2-z
-x,y,1/2-z
-x,-y,-z
x,y,-z
-x,y,1/2+z
x,-y,1/2+z
1/2+x,1/2+y,1/2+z
1/2-x,1/2-y,1/2+z
1/2+x,1/2-y,-z
1/2-x,1/2+y,-z
1/2-x,1/2-y,1/2-z
1/2+x,1/2+y,1/2-z
1/2-x,1/2+y,z
1/2+x,1/2-y,z
loop_
_atom_site_type_symbol
_atom_site_label
_atom_site_fract_x
_atom_site_fract_y
_atom_site_fract_z
Si Si1 0.000000 0.500000 0.250000
Si Si2 0.321660 0.206882 0.605819
Si Si3 0.130020 0.277108 0.393342
Si Si4 0.121859 0.705444 0.500000
Si Si5 0.033127 0.193228 0.824792
Si Si6 0.579890 0.762308 0.000000
O O1 0.950591 0.643010 0.214215
O O2 0.223322 0.205556 0.623520
O O3 0.328555 0.265820 0.548974
O O4 0.383258 0.325883 0.640797
O O5 0.359427 0.999570 0.605472
O O6 0.114581 0.196711 0.447779
O O7 0.046872 0.245201 0.360097
O O8 0.105917 0.481978 0.500000
O O9 0.022869 0.773211 0.500000
O O10 0.000000 0.000000 0.802841
#
# Coordination Sequence:
#
# PCOD9529098 Si02
#       6
#     4  16  16   8  16   8
#     4  12  26  52  76  96 132 170 222 292 360 396
#     4  11  21  39  65  99 142 182 226 274 330 399
#     4  11  21  39  65  99 142 182 226 274 330 399
#     4   9  17  32  60  95 138 190 224 264 323 393
#     4  12  25  46  74 101 130 175 223 281 348 408
#     4   9  17  32  60  95 138 190 224 264 323 393
#
# _framework density 22.341373000000001
#
# number of rings (size 3 to 8) (size 9 to 14) (size 15 to 20)
#    0.000    1.176    4.706    2.471    0.000    0.000 
#    0.000    5.882    0.000    0.000    0.000    0.000 
#    0.000    0.000    0.000    0.000    0.000    0.000 
#
# Total GULP energy -190040.334591 kJ/mol
# GULP energy per Si atom -5589.421606 kJ/mol
# Density = 2.229052 g / cm^3
# Si number density = 22.341373 Si / 1000 Ang^3
#
#
#
# Elastic Constant Matrix: (Units=GPa)
#
#
# Indices 1 2 3 4 5 6 
#
# 1 149.5875 1.0649 45.1087 0.0000 0.0000 0.0000
# 2 1.0649 82.4580 23.5710 0.0000 0.0000 0.0000
# 3 45.1087 23.5710 114.8479 0.0000 0.0000 0.0000
# 4 0.0000 0.0000 0.0000 8.4740 0.0000 0.0000
# 5 0.0000 0.0000 0.0000 0.0000 -3.4435 0.0000
# 6 0.0000 0.0000 0.0000 0.0000 0.0000 25.3851
#
#
#
# Elastic Compliance Matrix: (Units=1/GPa)
#
#
# Indices 1 2 3 4 5 6 
#
# 1 0.007633 0.000806 -0.003163 0.000000 0.000000 0.000000
# 2 0.000806 0.012968 -0.002978 0.000000 0.000000 0.000000
# 3 -0.003163 -0.002978 0.010561 0.000000 0.000000 0.000000
# 4 0.000000 0.000000 0.000000 0.118008 0.000000 0.000000
# 5 0.000000 0.000000 0.000000 0.000000 -0.290398 0.000000
# 6 0.000000 0.000000 0.000000 0.000000 0.000000 0.039393
#
#
# Mechanical properties :
#
#
# Convention : Reuss Voigt Hill
#
# Bulk Modulus (GPa) = 48.80226 54.04251 51.42238
# Shear Modulus (GPa) = -59.28929 24.55971 -17.36479
#
# Velocity S-wave (km/s) = -5.15708 3.31916 -2.79094
# Velocity P-wave (km/s) = 3.68366 6.23947 3.56101
#
# Compressibility (1/GPa) = 0.02049085
#
# Stress axis : x y z
#
# Youngs Moduli (GPa) = 131.00541 77.11136 94.68906
#
# Poissons Ratio (x) = -0.06213 0.29955
# Poissons Ratio (y) = -0.10555 0.28199
# Poissons Ratio (z) = 0.41443 0.22964
#
# Static dielectric constant tensor:
#      x y z
#    x 1.765650 0.000000 0.000000 
#    y 0.000000 1.908610 0.000000 
#    z 0.000000 0.000000 1.828200 
# 
# From -- ./inp_files/48465.got.cif
#   From: 2010.05.17/outbox.cif.g08.bks.cpg/sg72_25_cif.got.tgz:48465.got - 2010.06.03 17:03:01.
