data_PCOD9529096
_publ_section_title
;
Structure prediction by ZEFSAII (Michael W. Deem and Ramdas Pophale) SiO2 
 PCOD9529096
Probable space group: I B A M
;
_chemical_formula_sum "Si O2"
_cell_formula_units_Z 96
_cell_length_a 8.470239
_cell_length_b 20.614274
_cell_length_c 26.981462
_cell_angle_alpha 90.000000
_cell_angle_beta 90.000000
_cell_angle_gamma 90.000000
_cell_volume 4711.174465
_symmetry_space_group_name_H-M "I B A M"
_symmetry_group_IT_number 72
_symmetry_cell_setting 'orthorhombic'
loop_
_space_group_symop_operation_xyz
x,y,z
-x,-y,z
x,-y,1/2-z
-x,y,1/2-z
-x,-y,-z
x,y,-z
-x,y,1/2+z
x,-y,1/2+z
1/2+x,1/2+y,1/2+z
1/2-x,1/2-y,1/2+z
1/2+x,1/2-y,-z
1/2-x,1/2+y,-z
1/2-x,1/2-y,1/2-z
1/2+x,1/2+y,1/2-z
1/2-x,1/2+y,z
1/2+x,1/2-y,z
loop_
_atom_site_type_symbol
_atom_site_label
_atom_site_fract_x
_atom_site_fract_y
_atom_site_fract_z
Si Si1 0.172483 0.103533 0.655305
Si Si2 0.329557 0.981602 0.307174
Si Si3 0.095191 0.289510 0.596900
Si Si4 0.271023 0.162841 0.556554
Si Si5 0.597960 0.787414 0.299914
Si Si6 0.682685 0.651451 0.332475
O O1 0.201506 0.029719 0.670047
O O2 0.222369 0.111788 0.598270
O O3 0.285394 0.153183 0.686488
O O4 0.994657 0.125622 0.664388
O O5 0.500000 0.000000 0.329417
O O6 0.334402 0.000000 0.250000
O O7 0.290183 0.906530 0.312469
O O8 0.166744 0.225737 0.571892
O O9 0.246637 0.331400 0.613442
O O10 0.956316 0.320250 0.564436
O O11 0.011013 0.279015 0.650570
O O12 0.241419 0.144933 0.500000
O O13 0.500000 0.798261 0.250000
O O14 0.680827 0.716689 0.299324
#
# Coordination Sequence:
#
# PCOD9529096 Si02
#       6
#    16  16  16  16  16  16
#     4  11  24  43  64  98 133 171 221 271 323 397
#     4  11  27  44  63  89 133 183 222 262 327 393
#     4  11  21  39  59  96 132 164 216 274 327 395
#     4  11  21  39  66  94 128 168 217 277 336 386
#     4  11  24  39  65  99 137 175 214 271 333 390
#     4  12  23  41  63  92 134 172 217 269 327 384
#
# _framework density 20.377084
#
# number of rings (size 3 to 8) (size 9 to 14) (size 15 to 20)
#    0.000    0.833    5.000    3.000    7.000    2.000 
#    0.000    0.833    0.000    7.500    0.000    0.000 
#    0.000    0.000    0.000    0.000    0.000    0.000 
#
# Total GULP energy -268421.315032 kJ/mol
# GULP energy per Si atom -5592.110730 kJ/mol
# Density = 2.033070 g / cm^3
# Si number density = 20.377084 Si / 1000 Ang^3
#
#
#
# Elastic Constant Matrix: (Units=GPa)
#
#
# Indices 1 2 3 4 5 6 
#
# 1 94.7815 7.0406 13.1602 0.0000 0.0000 0.0000
# 2 7.0406 91.0454 24.3360 0.0000 0.0000 0.0000
# 3 13.1602 24.3360 111.1327 0.0000 0.0000 0.0000
# 4 0.0000 0.0000 0.0000 14.3137 0.0000 0.0000
# 5 0.0000 0.0000 0.0000 0.0000 16.4526 0.0000
# 6 0.0000 0.0000 0.0000 0.0000 0.0000 20.5742
#
#
#
# Elastic Compliance Matrix: (Units=1/GPa)
#
#
# Indices 1 2 3 4 5 6 
#
# 1 0.010750 -0.000522 -0.001159 0.000000 0.000000 0.000000
# 2 -0.000522 0.011692 -0.002499 0.000000 0.000000 0.000000
# 3 -0.001159 -0.002499 0.009683 0.000000 0.000000 0.000000
# 4 0.000000 0.000000 0.000000 0.069863 0.000000 0.000000
# 5 0.000000 0.000000 0.000000 0.000000 0.060781 0.000000
# 6 0.000000 0.000000 0.000000 0.000000 0.000000 0.048604
#
#
# Mechanical properties :
#
#
# Convention : Reuss Voigt Hill
#
# Bulk Modulus (GPa) = 42.07561 42.89259 42.48410
# Shear Modulus (GPa) = 21.96325 27.09628 24.52977
#
# Velocity S-wave (km/s) = 3.28661 3.65052 3.47333
# Velocity P-wave (km/s) = 5.92416 6.23406 6.08109
#
# Compressibility (1/GPa) = 0.02376674
#
# Stress axis : x y z
#
# Youngs Moduli (GPa) = 93.02129 85.53075 103.27797
#
# Poissons Ratio (x) = 0.04461 0.11968
# Poissons Ratio (y) = 0.04852 0.25804
# Poissons Ratio (z) = 0.10779 0.21370
#
# Static dielectric constant tensor:
#      x y z
#    x 1.831960 0.000000 0.000000 
#    y 0.000000 1.718220 0.000000 
#    z 0.000000 0.000000 1.718890 
# 
# From -- ./inp_files/47350.got.cif
#   From: 2010.05.17/outbox.cif.g08.bks.cpg/sg72_24_cif.got.tgz:47350.got - 2010.06.03 17:03:01.
