data_PCOD9529207
_publ_section_title
;
Structure prediction by ZEFSAII (Michael W. Deem and Ramdas Pophale) SiO2 
 PCOD9529207
Probable space group: I B A M
;
_chemical_formula_sum "Si O2"
_cell_formula_units_Z 68
_cell_length_a 17.504492
_cell_length_b 9.866768
_cell_length_c 17.998967
_cell_angle_alpha 90.000000
_cell_angle_beta 90.000000
_cell_angle_gamma 90.000000
_cell_volume 3108.651295
_symmetry_space_group_name_H-M "I B A M"
_symmetry_group_IT_number 72
_symmetry_cell_setting 'orthorhombic'
loop_
_space_group_symop_operation_xyz
x,y,z
-x,-y,z
x,-y,1/2-z
-x,y,1/2-z
-x,-y,-z
x,y,-z
-x,y,1/2+z
x,-y,1/2+z
1/2+x,1/2+y,1/2+z
1/2-x,1/2-y,1/2+z
1/2+x,1/2-y,-z
1/2-x,1/2+y,-z
1/2-x,1/2-y,1/2-z
1/2+x,1/2+y,1/2-z
1/2-x,1/2+y,z
1/2+x,1/2-y,z
loop_
_atom_site_type_symbol
_atom_site_label
_atom_site_fract_x
_atom_site_fract_y
_atom_site_fract_z
Si Si1 0.926968 0.816482 0.872238
Si Si2 0.193079 0.983534 0.840262
Si Si3 0.092231 0.758492 0.915853
Si Si4 0.372406 0.017345 0.338686
Si Si5 0.000000 0.000000 0.750000
O O1 0.907435 0.660923 0.860510
O O2 0.006495 0.820640 0.916665
O O3 0.950761 0.898826 0.798861
O O4 0.849155 0.898377 0.888251
O O5 0.147214 0.849035 0.864194
O O6 0.282524 0.979803 0.858077
O O7 0.191784 0.000000 0.750000
O O8 0.090069 0.609158 0.880672
O O9 0.121093 0.755103 0.000000
O O10 0.381076 0.000000 0.250000
#
# Coordination Sequence:
#
# PCOD9529207 Si02
#       5
#    16  16  16  16   4
#     4  12  22  40  68  94 138 178 225 278 337 398
#     4  11  22  44  72 103 136 178 234 287 340 411
#     4  12  27  45  67 103 143 183 230 282 344 408
#     4  11  25  42  71 105 137 180 230 287 345 404
#     4  12  20  40  68 104 132 176 230 288 324 412
#
# _framework density 21.874437
#
# number of rings (size 3 to 8) (size 9 to 14) (size 15 to 20)
#    0.000    0.471    3.529    4.941    0.000    9.412 
#    0.000    2.353    0.000    0.000    0.000    0.000 
#    0.000    0.000    0.000    0.000    0.000    0.000 
#
# Total GULP energy -189929.108739 kJ/mol
# GULP energy per Si atom -5586.150257 kJ/mol
# Density = 2.182465 g / cm^3
# Si number density = 21.874437 Si / 1000 Ang^3
#
#
#
# Elastic Constant Matrix: (Units=GPa)
#
#
# Indices 1 2 3 4 5 6 
#
# 1 115.0532 17.9490 22.9397 0.0000 0.0000 0.0000
# 2 17.9490 148.7865 29.9012 0.0000 0.0000 0.0000
# 3 22.9397 29.9012 82.2435 0.0000 0.0000 0.0000
# 4 0.0000 0.0000 0.0000 10.5038 0.0000 0.0000
# 5 0.0000 0.0000 0.0000 0.0000 -44.7196 0.0000
# 6 0.0000 0.0000 0.0000 0.0000 0.0000 22.3883
#
#
#
# Elastic Compliance Matrix: (Units=1/GPa)
#
#
# Indices 1 2 3 4 5 6 
#
# 1 0.009261 -0.000645 -0.002348 0.000000 0.000000 0.000000
# 2 -0.000645 0.007296 -0.002473 0.000000 0.000000 0.000000
# 3 -0.002348 -0.002473 0.013713 0.000000 0.000000 0.000000
# 4 0.000000 0.000000 0.000000 0.095203 0.000000 0.000000
# 5 0.000000 0.000000 0.000000 0.000000 -0.022362 0.000000
# 6 0.000000 0.000000 0.000000 0.000000 0.000000 0.044666
#
#
# Mechanical properties :
#
#
# Convention : Reuss Voigt Hill
#
# Bulk Modulus (GPa) = 51.71445 54.18478 52.94961
# Shear Modulus (GPa) = 30.27453 15.98740 23.13097
#
# Velocity S-wave (km/s) = 3.72427 2.70640 3.25536
# Velocity P-wave (km/s) = 6.49511 5.88139 6.19585
#
# Compressibility (1/GPa) = 0.01933695
#
# Stress axis : x y z
#
# Youngs Moduli (GPa) = 107.98527 137.06553 72.92353
#
# Poissons Ratio (x) = 0.08843 0.17125
# Poissons Ratio (y) = 0.06967 0.18031
# Poissons Ratio (z) = 0.25359 0.33890
#
# Static dielectric constant tensor:
#      x y z
#    x 1.939400 0.000000 0.000000 
#    y 0.000000 1.751030 0.000000 
#    z 0.000000 0.000000 1.803750 
# 
# From -- ./inp_files/32270.got.cif
#   From: 2010.05.17/outbox.cif.g08.bks.cpg/sg72_17_cif.got.tgz:32270.got - 2010.06.03 17:03:01.
