data_PCOD9529659
_publ_section_title
;
Structure prediction by ZEFSAII (Michael W. Deem and Ramdas Pophale) SiO2 
 PCOD9529659
Probable space group: I B C A 
;
_chemical_formula_sum "Si O2"
_cell_formula_units_Z 96
_cell_length_a 29.853819
_cell_length_b 28.028321
_cell_length_c 5.332112
_cell_angle_alpha 90.000000
_cell_angle_beta 90.000000
_cell_angle_gamma 90.000000
_cell_volume 4461.657630
_symmetry_space_group_name_H-M "I B C A "
_symmetry_group_IT_number 73
_symmetry_cell_setting 'orthorhombic'
loop_
_space_group_symop_operation_xyz
x,y,z
-x,1/2-y,z
x,-y,1/2-z
1/2-x,y,-z
-x,-y,-z
x,1/2+y,-z
-x,y,1/2+z
1/2+x,-y,z
1/2+x,1/2+y,1/2+z
1/2-x,-y,1/2+z
1/2+x,1/2-y,-z
-x,1/2+y,1/2-z
1/2-x,1/2-y,1/2-z
1/2+x,y,1/2-z
1/2-x,1/2+y,z
x,1/2-y,1/2+z
loop_
_atom_site_type_symbol
_atom_site_label
_atom_site_fract_x
_atom_site_fract_y
_atom_site_fract_z
Si Si1 0.750000 0.578449 0.000000
Si Si2 0.376336 0.567992 0.930110
Si Si3 0.480862 0.945927 0.481119
Si Si4 0.885666 0.718820 0.036893
Si Si5 0.516217 0.805152 0.308477
Si Si6 0.343047 0.620168 0.418164
Si Si7 0.691136 0.500000 0.250000
O O1 0.790450 0.608730 0.112186
O O2 0.724013 0.542963 0.184778
O O3 0.362560 0.593751 0.667847
O O4 0.343548 0.521910 0.951775
O O5 0.428215 0.553791 0.927989
O O6 0.367395 0.601020 0.169578
O O7 0.507240 0.923450 0.248546
O O8 0.500000 0.000000 0.500000
O O9 0.882047 0.754421 0.272547
O O10 0.934782 0.695515 0.071679
O O11 0.850921 0.676024 0.052287
O O12 0.500000 0.750000 0.268646
O O13 0.484437 0.825374 0.527069
#
# Coordination Sequence:
#
# PCOD9529659 Si02
#       7
#     8  16  16  16  16  16   8
#     4  10  22  42  66 100 130 160 214 268 344 374
#     4  11  23  42  63  98 131 170 221 262 326 366
#     4  10  20  35  59  85 125 178 215 250 294 377
#     4  12  22  40  66  90 121 168 213 247 331 388
#     4  10  16  31  56  87 110 145 203 257 289 356
#     4  11  26  43  64  95 135 160 207 293 324 382
#     4  10  20  38  74  96 120 176 216 262 316 414
#
# _framework density 21.516665
#
# number of rings (size 3 to 8) (size 9 to 14) (size 15 to 20)
#    0.000    1.333    3.333    4.000    0.000    8.000 
#    0.000    5.833    0.000    0.000    0.000    0.000 
#    0.000    0.000    0.000    0.000    0.000    0.000 
#
# Total GULP energy -268203.281149 kJ/mol
# GULP energy per Si atom -5587.568357 kJ/mol
# Density = 2.146769 g / cm^3
# Si number density = 21.516665 Si / 1000 Ang^3
#
#
#
# Elastic Constant Matrix: (Units=GPa)
#
#
# Indices 1 2 3 4 5 6 
#
# 1 152.4746 18.5078 8.8892 0.0000 0.0000 0.0000
# 2 18.5078 32.7320 -2.5402 0.0000 0.0000 0.0000
# 3 8.8892 -2.5402 134.0555 0.0000 0.0000 0.0000
# 4 0.0000 0.0000 0.0000 20.7267 0.0000 0.0000
# 5 0.0000 0.0000 0.0000 0.0000 12.5883 0.0000
# 6 0.0000 0.0000 0.0000 0.0000 0.0000 32.8058
#
#
#
# Elastic Compliance Matrix: (Units=1/GPa)
#
#
# Indices 1 2 3 4 5 6 
#
# 1 0.007081 -0.004047 -0.000546 0.000000 0.000000 0.000000
# 2 -0.004047 0.032908 0.000892 0.000000 0.000000 0.000000
# 3 -0.000546 0.000892 0.007513 0.000000 0.000000 0.000000
# 4 0.000000 0.000000 0.000000 0.048247 0.000000 0.000000
# 5 0.000000 0.000000 0.000000 0.000000 0.079439 0.000000
# 6 0.000000 0.000000 0.000000 0.000000 0.000000 0.030482
#
#
# Mechanical properties :
#
#
# Convention : Reuss Voigt Hill
#
# Bulk Modulus (GPa) = 24.93708 40.99731 32.96720
# Shear Modulus (GPa) = 22.08094 32.85118 27.46606
#
# Velocity S-wave (km/s) = 3.20695 3.91164 3.57669
# Velocity P-wave (km/s) = 5.03265 6.28461 5.69315
#
# Compressibility (1/GPa) = 0.04010092
#
# Stress axis : x y z
#
# Youngs Moduli (GPa) = 141.21313 30.38733 133.10759
#
# Poissons Ratio (x) = 0.12296 0.07271
# Poissons Ratio (y) = 0.57142 -0.11872
# Poissons Ratio (z) = 0.07714 -0.02710
#
# Static dielectric constant tensor:
#      x y z
#    x 1.371030 0.000000 0.000000 
#    y 0.000000 1.623670 0.000000 
#    z 0.000000 0.000000 1.837420 
# 
# From -- ./inp_files/3237.got.cif
#   From: 2010.05.17/outbox.cif.g08.bks.cpg/sg73_2_cif.got.tgz:3237.got - 2010.06.03 17:35:07.
