data_PCOD9529609
_publ_section_title
;
Structure prediction by ZEFSAII (Michael W. Deem and Ramdas Pophale) SiO2 
 PCOD9529609
Probable space group: I B C A 
;
_chemical_formula_sum "Si O2"
_cell_formula_units_Z 112
_cell_length_a 14.837909
_cell_length_b 28.413281
_cell_length_c 13.651584
_cell_angle_alpha 90.000000
_cell_angle_beta 90.000000
_cell_angle_gamma 90.000000
_cell_volume 5755.421507
_symmetry_space_group_name_H-M "I B C A "
_symmetry_group_IT_number 73
_symmetry_cell_setting 'orthorhombic'
loop_
_space_group_symop_operation_xyz
x,y,z
-x,1/2-y,z
x,-y,1/2-z
1/2-x,y,-z
-x,-y,-z
x,1/2+y,-z
-x,y,1/2+z
1/2+x,-y,z
1/2+x,1/2+y,1/2+z
1/2-x,-y,1/2+z
1/2+x,1/2-y,-z
-x,1/2+y,1/2-z
1/2-x,1/2-y,1/2-z
1/2+x,y,1/2-z
1/2-x,1/2+y,z
x,1/2-y,1/2+z
loop_
_atom_site_type_symbol
_atom_site_label
_atom_site_fract_x
_atom_site_fract_y
_atom_site_fract_z
Si Si1 0.187655 0.333548 0.874762
Si Si2 0.670576 0.517720 0.861521
Si Si3 0.361730 0.118613 0.143247
Si Si4 0.263169 0.703047 0.183999
Si Si5 0.250000 0.943193 0.500000
Si Si6 0.661499 0.090701 0.862128
Si Si7 0.047601 0.092416 0.451082
Si Si8 0.750000 0.750038 0.500000
O O1 0.177752 0.327930 0.757730
O O2 0.282893 0.361198 0.887169
O O3 0.110203 0.365074 0.916203
O O4 0.191013 0.284669 0.933073
O O5 0.667488 0.500000 0.750000
O O6 0.680555 0.477291 0.943292
O O7 0.760895 0.550633 0.870731
O O8 0.583013 0.548174 0.888350
O O9 0.326142 0.172073 0.160156
O O10 0.285591 0.090079 0.085763
O O11 0.372014 0.096349 0.251244
O O12 0.448329 0.108820 0.076374
O O13 0.250000 0.750000 0.250000
O O14 0.301355 0.718292 0.079256
O O15 0.579958 0.083161 0.937550
#
# Coordination Sequence:
#
# PCOD9529609 Si02
#       8
#    16  16  16  16   8  16  16   8
#     4   9  17  35  66  86 112 167 210 246 319 403
#     4  11  21  40  66  92 123 176 224 255 324 400
#     4  11  25  40  62  96 130 166 217 281 331 391
#     4   9  20  37  62  88 120 163 211 255 331 404
#     4  12  23  41  62  88 136 178 214 271 325 404
#     4  10  19  40  63  86 124 172 215 254 320 403
#     4  11  22  40  64  93 126 163 215 276 321 379
#     4  10  15  33  62  88 112 158 204 255 305 406
#
# _framework density 19.459911000000002
#
# number of rings (size 3 to 8) (size 9 to 14) (size 15 to 20)
#    0.000    1.714    4.286    1.286    0.000    1.714 
#    5.143    2.857    0.000    3.429    0.000    0.000 
#    0.000    0.000    0.000    0.000    0.000    0.000 
#
# Total GULP energy -311968.140718 kJ/mol
# GULP energy per Si atom -5570.859656 kJ/mol
# Density = 1.941562 g / cm^3
# Si number density = 19.459911 Si / 1000 Ang^3
#
#
#
# Elastic Constant Matrix: (Units=GPa)
#
#
# Indices 1 2 3 4 5 6 
#
# 1 36.6173 22.6159 7.5007 0.0000 0.0000 0.0000
# 2 22.6159 78.2881 42.7105 -0.0001 0.0000 0.0000
# 3 7.5007 42.7105 142.5283 -0.0004 0.0000 -0.0001
# 4 0.0000 -0.0001 -0.0004 24.1865 0.0000 0.0000
# 5 0.0000 0.0000 0.0000 0.0000 19.3746 0.0000
# 6 0.0000 0.0000 -0.0001 0.0000 0.0000 0.3978
#
#
#
# Elastic Compliance Matrix: (Units=1/GPa)
#
#
# Indices 1 2 3 4 5 6 
#
# 1 0.033459 -0.010406 0.001358 0.000000 0.000000 0.000000
# 2 -0.010406 0.018506 -0.004998 0.000000 0.000000 -0.000001
# 3 0.001358 -0.004998 0.008442 0.000000 0.000000 0.000001
# 4 0.000000 0.000000 0.000000 0.041345 0.000000 0.000003
# 5 0.000000 0.000000 0.000000 0.000000 0.051614 0.000000
# 6 0.000000 -0.000001 0.000001 0.000003 0.000000 2.513789
#
#
# Mechanical properties :
#
#
# Convention : Reuss Voigt Hill
#
# Bulk Modulus (GPa) = 30.94636 44.78755 37.86696
# Shear Modulus (GPa) = 1.84773 21.09888 11.47331
#
# Velocity S-wave (km/s) = 0.97548 3.29633 2.43078
# Velocity P-wave (km/s) = 4.14800 6.12805 5.23254
#
# Compressibility (1/GPa) = 0.03231398
#
# Stress axis : x y z
#
# Youngs Moduli (GPa) = 29.88769 54.03610 118.44946
#
# Poissons Ratio (x) = 0.56231 -0.16080
# Poissons Ratio (y) = 0.31102 0.59201
# Poissons Ratio (z) = -0.04057 0.27007
#
# Static dielectric constant tensor:
#      x y z
#    x 1.655050 0.000000 0.000000 
#    y 0.000000 1.735700 0.000000 
#    z 0.000000 0.000000 1.756200 
# 
# From -- ./inp_files/17474.got.cif
#   From: 2010.05.17/outbox.cif.g08.bks.cpg/sg73_9_cif.got.tgz:17474.got - 2010.06.03 17:35:07.
