data_PCOD9529896
_publ_section_title
;
Structure prediction by ZEFSAII (Michael W. Deem and Ramdas Pophale) SiO2 
 PCOD9529896
Probable space group: I B C A 
;
_chemical_formula_sum "Si O2"
_cell_formula_units_Z 88
_cell_length_a 24.328267
_cell_length_b 11.783934
_cell_length_c 13.883333
_cell_angle_alpha 90.000000
_cell_angle_beta 90.000000
_cell_angle_gamma 90.000000
_cell_volume 3980.111288
_symmetry_space_group_name_H-M "I B C A "
_symmetry_group_IT_number 73
_symmetry_cell_setting 'orthorhombic'
loop_
_space_group_symop_operation_xyz
x,y,z
-x,1/2-y,z
x,-y,1/2-z
1/2-x,y,-z
-x,-y,-z
x,1/2+y,-z
-x,y,1/2+z
1/2+x,-y,z
1/2+x,1/2+y,1/2+z
1/2-x,-y,1/2+z
1/2+x,1/2-y,-z
-x,1/2+y,1/2-z
1/2-x,1/2-y,1/2-z
1/2+x,y,1/2-z
1/2-x,1/2+y,z
x,1/2-y,1/2+z
loop_
_atom_site_type_symbol
_atom_site_label
_atom_site_fract_x
_atom_site_fract_y
_atom_site_fract_z
Si Si1 0.945242 0.000000 0.750000
Si Si2 0.630430 0.701340 0.047948
Si Si3 0.029293 0.589478 0.370791
Si Si4 0.155588 0.052301 0.373104
Si Si5 0.459275 0.157163 0.059323
Si Si6 0.297888 0.175357 0.799617
O O1 0.905302 0.011914 0.841672
O O2 0.986607 0.098024 0.715995
O O3 0.584147 0.661407 0.123633
O O4 0.677704 0.754092 0.112237
O O5 0.652731 0.600642 0.979923
O O6 0.597692 0.787604 0.976996
O O7 0.047683 0.458325 0.382261
O O8 0.994644 0.622127 0.465227
O O9 0.165122 0.150619 0.294407
O O10 0.199987 0.952939 0.348544
O O11 0.500000 0.250000 0.105716
O O12 0.250000 0.250000 0.750000
#
# Coordination Sequence:
#
# PCOD9529896 Si02
#       6
#     8  16  16  16  16  16
#     4  10  18  34  56  86 138 176 202 256 316 374
#     4  11  21  38  65  94 128 172 225 278 333 394
#     4  10  19  31  52  89 130 173 218 257 304 389
#     4  10  23  44  68  95 130 170 219 274 334 412
#     4   9  17  31  51  80 124 170 212 255 313 382
#     4  10  23  46  69  92 125 168 220 282 351 402
#
# _framework density 22.109935
#
# number of rings (size 3 to 8) (size 9 to 14) (size 15 to 20)
#    0.000    2.182    0.000    6.545    0.000    2.182 
#    0.000   19.091    0.000    0.000    0.000    0.000 
#    0.000    0.000    0.000    0.000    0.000    0.000 
#
# Total GULP energy -245011.705713 kJ/mol
# GULP energy per Si atom -5568.447857 kJ/mol
# Density = 2.205961 g / cm^3
# Si number density = 22.109935 Si / 1000 Ang^3
#
#
#
# Elastic Constant Matrix: (Units=GPa)
#
#
# Indices 1 2 3 4 5 6 
#
# 1 67.5912 49.8359 45.8802 0.0000 0.0000 0.0000
# 2 49.8359 107.7247 47.5152 0.0000 0.0000 0.0000
# 3 45.8802 47.5152 76.6627 0.0000 0.0000 0.0000
# 4 0.0000 0.0000 0.0000 44.3859 0.0000 0.0000
# 5 0.0000 0.0000 0.0000 0.0000 9.5907 0.0000
# 6 0.0000 0.0000 0.0000 0.0000 0.0000 29.4226
#
#
#
# Elastic Compliance Matrix: (Units=1/GPa)
#
#
# Indices 1 2 3 4 5 6 
#
# 1 0.029169 -0.007975 -0.012514 0.000000 0.000000 0.000000
# 2 -0.007975 0.014956 -0.004497 0.000000 0.000000 0.000000
# 3 -0.012514 -0.004497 0.023321 0.000000 0.000000 0.000000
# 4 0.000000 0.000000 0.000000 0.022530 0.000000 0.000000
# 5 0.000000 0.000000 0.000000 0.000000 0.104268 0.000000
# 6 0.000000 0.000000 0.000000 0.000000 0.000000 0.033988
#
#
# Mechanical properties :
#
#
# Convention : Reuss Voigt Hill
#
# Bulk Modulus (GPa) = 57.22761 59.82681 58.52721
# Shear Modulus (GPa) = 17.60399 23.92965 20.76682
#
# Velocity S-wave (km/s) = 2.82477 3.29341 3.06805
# Velocity P-wave (km/s) = 6.04801 6.44822 6.25132
#
# Compressibility (1/GPa) = 0.01747408
#
# Stress axis : x y z
#
# Youngs Moduli (GPa) = 34.28294 66.86447 42.88047
#
# Poissons Ratio (x) = 0.53321 0.53661
# Poissons Ratio (y) = 0.27339 0.19283
# Poissons Ratio (z) = 0.42902 0.30068
#
# Static dielectric constant tensor:
#      x y z
#    x 1.840840 0.000000 0.000000 
#    y 0.000000 1.991050 0.000000 
#    z 0.000000 0.000000 1.829750 
# 
# From -- ./inp_files/19273.got.cif
#   From: 2010.05.17/outbox.cif.g08.bks.cpg/sg73_10_cif.got.tgz:19273.got - 2010.06.03 17:35:07.
