data_PCOD9529327
_publ_section_title
;
Structure prediction by ZEFSAII (Michael W. Deem and Ramdas Pophale) SiO2 
 PCOD9529327
Probable space group: I B A M
;
_chemical_formula_sum "Si O2"
_cell_formula_units_Z 96
_cell_length_a 12.269089
_cell_length_b 14.594021
_cell_length_c 21.637864
_cell_angle_alpha 90.000000
_cell_angle_beta 90.000000
_cell_angle_gamma 90.000000
_cell_volume 3874.375150
_symmetry_space_group_name_H-M "I B A M"
_symmetry_group_IT_number 72
_symmetry_cell_setting 'orthorhombic'
loop_
_space_group_symop_operation_xyz
x,y,z
-x,-y,z
x,-y,1/2-z
-x,y,1/2-z
-x,-y,-z
x,y,-z
-x,y,1/2+z
x,-y,1/2+z
1/2+x,1/2+y,1/2+z
1/2-x,1/2-y,1/2+z
1/2+x,1/2-y,-z
1/2-x,1/2+y,-z
1/2-x,1/2-y,1/2-z
1/2+x,1/2+y,1/2-z
1/2-x,1/2+y,z
1/2+x,1/2-y,z
loop_
_atom_site_type_symbol
_atom_site_label
_atom_site_fract_x
_atom_site_fract_y
_atom_site_fract_z
Si Si1 0.373291 0.984699 0.572153
Si Si2 0.569158 0.404954 0.805735
Si Si3 0.894879 0.297834 0.122106
Si Si4 0.822524 0.603576 0.740234
Si Si5 0.236665 0.346611 0.871009
Si Si6 0.593754 0.706319 0.431023
O O1 0.370861 0.005323 0.500000
O O2 0.337274 0.881135 0.585090
O O3 0.500000 0.000000 0.593320
O O4 0.290723 0.053105 0.605985
O O5 0.500000 0.500000 0.813345
O O6 0.500000 0.357590 0.750000
O O7 0.695354 0.407648 0.781570
O O8 0.582904 0.361158 0.873255
O O9 0.893332 0.344501 0.189406
O O10 0.856153 0.193670 0.135193
O O11 0.000136 0.281856 0.080888
O O12 0.862743 0.500000 0.750000
O O13 0.819824 0.659391 0.804261
O O14 0.196453 0.271730 0.920072
O O15 0.587824 0.667754 0.500000
#
# Coordination Sequence:
#
# PCOD9529327 Si02
#       6
#    16  16  16  16  16  16
#     4  11  24  46  70  98 144 199 245 298 372 450
#     4  11  24  46  78 104 149 197 242 311 385 450
#     4  12  26  45  74 107 148 189 249 315 371 453
#     4  12  24  46  71 112 143 187 252 305 380 456
#     4  12  26  46  74 105 148 194 250 314 376 456
#     4  12  28  47  72 110 150 199 257 307 379 459
#
# _framework density 24.778189000000001
#
# number of rings (size 3 to 8) (size 9 to 14) (size 15 to 20)
#    0.000    0.333    6.667    2.500    2.333    3.000 
#    0.000    1.667    0.000    0.000    0.000    0.000 
#    0.000    0.000    0.000    0.000    0.000    0.000 
#
# Total GULP energy -268041.138389 kJ/mol
# GULP energy per Si atom -5584.190383 kJ/mol
# Density = 2.472179 g / cm^3
# Si number density = 24.778189 Si / 1000 Ang^3
#
#
#
# Elastic Constant Matrix: (Units=GPa)
#
#
# Indices 1 2 3 4 5 6 
#
# 1 30.7267 26.5763 24.6908 0.0000 0.0000 0.0000
# 2 26.5763 109.0952 25.4251 0.0000 0.0000 0.0000
# 3 24.6908 25.4251 163.4462 0.0000 0.0000 0.0000
# 4 0.0000 0.0000 0.0000 44.8316 0.0000 0.0000
# 5 0.0000 0.0000 0.0000 0.0000 -52.4356 0.0000
# 6 0.0000 0.0000 0.0000 0.0000 0.0000 6.1933
#
#
#
# Elastic Compliance Matrix: (Units=1/GPa)
#
#
# Indices 1 2 3 4 5 6 
#
# 1 0.045289 -0.009793 -0.005318 0.000000 0.000000 0.000000
# 2 -0.009793 0.011629 -0.000330 0.000000 0.000000 0.000000
# 3 -0.005318 -0.000330 0.006973 0.000000 0.000000 0.000000
# 4 0.000000 0.000000 0.000000 0.022306 0.000000 0.000000
# 5 0.000000 0.000000 0.000000 0.000000 -0.019071 0.000000
# 6 0.000000 0.000000 0.000000 0.000000 0.000000 0.161465
#
#
# Mechanical properties :
#
#
# Convention : Reuss Voigt Hill
#
# Bulk Modulus (GPa) = 30.29501 50.73915 40.51708
# Shear Modulus (GPa) = 18.48601 14.82292 16.65446
#
# Velocity S-wave (km/s) = 2.73437 2.44852 2.59538
# Velocity P-wave (km/s) = 4.71403 5.33999 5.03674
#
# Compressibility (1/GPa) = 0.03300873
#
# Stress axis : x y z
#
# Youngs Moduli (GPa) = 22.08054 85.99343 143.41334
#
# Poissons Ratio (x) = 0.84215 0.76268
# Poissons Ratio (y) = 0.21624 0.04726
# Poissons Ratio (z) = 0.11743 0.02834
#
# Static dielectric constant tensor:
#      x y z
#    x 2.299480 0.000000 0.000000 
#    y 0.000000 1.782180 0.000000 
#    z 0.000000 0.000000 1.945790 
# 
# From -- ./inp_files/38036.got.cif
#   From: 2010.05.17/outbox.cif.g08.bks.cpg/sg72_20_cif.got.tgz:38036.got - 2010.06.03 17:03:01.
