data_PCOD9529034
_publ_section_title
;
Structure prediction by ZEFSAII (Michael W. Deem and Ramdas Pophale) SiO2 
 PCOD9529034
Probable space group: I B A M
;
_chemical_formula_sum "Si O2"
_cell_formula_units_Z 72
_cell_length_a 12.534207
_cell_length_b 13.909881
_cell_length_c 20.556202
_cell_angle_alpha 90.000000
_cell_angle_beta 90.000000
_cell_angle_gamma 90.000000
_cell_volume 3583.960001
_symmetry_space_group_name_H-M "I B A M"
_symmetry_group_IT_number 72
_symmetry_cell_setting 'orthorhombic'
loop_
_space_group_symop_operation_xyz
x,y,z
-x,-y,z
x,-y,1/2-z
-x,y,1/2-z
-x,-y,-z
x,y,-z
-x,y,1/2+z
x,-y,1/2+z
1/2+x,1/2+y,1/2+z
1/2-x,1/2-y,1/2+z
1/2+x,1/2-y,-z
1/2-x,1/2+y,-z
1/2-x,1/2-y,1/2-z
1/2+x,1/2+y,1/2-z
1/2-x,1/2+y,z
1/2+x,1/2-y,z
loop_
_atom_site_type_symbol
_atom_site_label
_atom_site_fract_x
_atom_site_fract_y
_atom_site_fract_z
Si Si1 0.447555 0.860175 0.859074
Si Si2 0.690208 0.254357 0.500000
Si Si3 0.519875 0.387153 0.000000
Si Si4 0.473316 0.888687 0.500000
Si Si5 0.336730 0.953133 0.319705
Si Si6 0.328478 0.689606 0.886824
O O1 0.553995 0.889962 0.819938
O O2 0.389586 0.762696 0.838671
O O3 0.370774 0.952804 0.860433
O O4 0.482482 0.845189 0.933717
O O5 0.590730 0.326651 0.500000
O O6 0.649144 0.142925 0.500000
O O7 0.757273 0.258398 0.433953
O O8 0.500000 0.500000 0.000000
O O9 0.589134 0.360883 0.936122
O O10 0.500000 0.000000 0.500000
O O11 0.244757 0.887831 0.350161
O O12 0.312010 0.000000 0.250000
#
# Coordination Sequence:
#
# PCOD9529034 Si02
#       6
#    16   8   8   8  16  16
#     4  11  21  39  64  91 129 161 209 271 316 375
#     4  11  20  39  57 103 132 154 207 249 330 411
#     4  11  24  38  60  96 137 162 188 260 339 386
#     4  12  16  33  62  91 121 158 198 257 324 373
#     4  11  24  42  63  92 121 171 228 263 298 365
#     4  11  22  39  66  94 127 168 208 258 327 390
#
# _framework density 20.089510000000001
#
# number of rings (size 3 to 8) (size 9 to 14) (size 15 to 20)
#    0.000    0.889    6.667    2.000    3.111    1.778 
#    0.000    0.000    0.000    0.000    0.000    0.000 
#    0.000    0.000    0.000    0.000    0.000    0.000 
#
# Total GULP energy -200901.284062 kJ/mol
# GULP energy per Si atom -5580.591224 kJ/mol
# Density = 2.004378 g / cm^3
# Si number density = 20.089510 Si / 1000 Ang^3
#
#
#
# Elastic Constant Matrix: (Units=GPa)
#
#
# Indices 1 2 3 4 5 6 
#
# 1 110.7344 79.4284 35.3742 0.0000 0.0000 0.0000
# 2 79.4284 142.0547 25.6277 0.0000 0.0000 0.0000
# 3 35.3742 25.6277 82.4594 0.0000 0.0000 0.0000
# 4 0.0000 0.0000 0.0000 -4.9954 0.0000 0.0000
# 5 0.0000 0.0000 0.0000 0.0000 12.0144 0.0000
# 6 0.0000 0.0000 0.0000 0.0000 0.0000 53.7123
#
#
#
# Elastic Compliance Matrix: (Units=1/GPa)
#
#
# Indices 1 2 3 4 5 6 
#
# 1 0.016493 -0.008417 -0.004459 0.000000 0.000000 0.000000
# 2 -0.008417 0.011754 -0.000042 0.000000 0.000000 0.000000
# 3 -0.004459 -0.000042 0.014053 0.000000 0.000000 0.000000
# 4 0.000000 0.000000 0.000000 -0.200182 0.000000 0.000000
# 5 0.000000 0.000000 0.000000 0.000000 0.083234 0.000000
# 6 0.000000 0.000000 0.000000 0.000000 0.000000 0.018618
#
#
# Mechanical properties :
#
#
# Convention : Reuss Voigt Hill
#
# Bulk Modulus (GPa) = 60.74387 68.45655 64.60021
# Shear Modulus (GPa) = -202.37144 25.13413 -88.61865
#
# Velocity S-wave (km/s) = -10.04757 3.54094 -6.64888
# Velocity P-wave (km/s) = 10.21286 7.13214 5.16890
#
# Compressibility (1/GPa) = 0.01646257
#
# Stress axis : x y z
#
# Youngs Moduli (GPa) = 60.63293 85.08078 71.15834
#
# Poissons Ratio (x) = 0.71615 0.31731
# Poissons Ratio (y) = 0.51036 0.00299
# Poissons Ratio (z) = 0.27037 0.00357
#
# Static dielectric constant tensor:
#      x y z
#    x 1.759400 0.000000 0.000000 
#    y 0.000000 1.696870 0.000000 
#    z 0.000000 0.000000 1.777200 
# 
# From -- ./inp_files/43065.got.cif
#   From: 2010.05.17/outbox.cif.g08.bks.cpg/sg72_22_cif.got.tgz:43065.got - 2010.06.03 17:03:01.
