data_PCOD9529629
_publ_section_title
;
Structure prediction by ZEFSAII (Michael W. Deem and Ramdas Pophale) SiO2 
 PCOD9529629
Probable space group: I B C A 
;
_chemical_formula_sum "Si O2"
_cell_formula_units_Z 80
_cell_length_a 12.778420
_cell_length_b 8.453110
_cell_length_c 29.033270
_cell_angle_alpha 90.000000
_cell_angle_beta 90.000000
_cell_angle_gamma 90.000000
_cell_volume 3136.098045
_symmetry_space_group_name_H-M "I B C A "
_symmetry_group_IT_number 73
_symmetry_cell_setting 'orthorhombic'
loop_
_space_group_symop_operation_xyz
x,y,z
-x,1/2-y,z
x,-y,1/2-z
1/2-x,y,-z
-x,-y,-z
x,1/2+y,-z
-x,y,1/2+z
1/2+x,-y,z
1/2+x,1/2+y,1/2+z
1/2-x,-y,1/2+z
1/2+x,1/2-y,-z
-x,1/2+y,1/2-z
1/2-x,1/2-y,1/2-z
1/2+x,y,1/2-z
1/2-x,1/2+y,z
x,1/2-y,1/2+z
loop_
_atom_site_type_symbol
_atom_site_label
_atom_site_fract_x
_atom_site_fract_y
_atom_site_fract_z
Si Si1 0.358595 0.516889 0.442639
Si Si2 0.195620 0.898490 0.154719
Si Si3 0.424760 0.396208 0.881680
Si Si4 0.634869 0.080626 0.701186
Si Si5 0.374992 0.613630 0.963673
O O1 0.366580 0.522688 0.387214
O O2 0.409642 0.416201 0.484078
O O3 0.239846 0.455997 0.452533
O O4 0.372773 0.700035 0.456215
O O5 0.302749 0.838827 0.127314
O O6 0.246536 0.024736 0.189051
O O7 0.139331 0.763398 0.184961
O O8 0.500000 0.250000 0.888426
O O9 0.440196 0.492565 0.834732
O O10 0.435805 0.518401 0.923979
O O11 0.611083 0.000000 0.750000
#
# Coordination Sequence:
#
# PCOD9529629 Si02
#       5
#    16  16  16  16  16
#     4  10  16  29  46  85  98 145 183 235 267 328
#     4   9  18  33  57  81 111 140 187 245 272 338
#     4   9  20  35  54  79 117 151 179 227 297 341
#     4  10  19  34  60  85 106 142 194 239 282 335
#     4  10  18  28  53  75 112 137 192 224 278 335
#
# _framework density 25.509405000000001
#
# number of rings (size 3 to 8) (size 9 to 14) (size 15 to 20)
#    1.200    1.200    2.000    3.000    0.000    1.600 
#    0.000    2.000    0.000    0.000    0.000    0.000 
#    0.000    0.000    0.000    0.000    0.000    0.000 
#
# Total GULP energy -223158.164368 kJ/mol
# GULP energy per Si atom -5578.954109 kJ/mol
# Density = 2.545134 g / cm^3
# Si number density = 25.509405 Si / 1000 Ang^3
#
#
#
# Elastic Constant Matrix: (Units=GPa)
#
#
# Indices 1 2 3 4 5 6 
#
# 1 65.7142 6.1240 14.2379 0.0000 0.0000 0.0000
# 2 6.1240 148.4015 37.2128 0.0000 0.0000 0.0000
# 3 14.2379 37.2128 204.1430 0.0000 0.0000 0.0000
# 4 0.0000 0.0000 0.0000 33.1614 0.0000 0.0000
# 5 0.0000 0.0000 0.0000 0.0000 40.7025 0.0000
# 6 0.0000 0.0000 0.0000 0.0000 0.0000 31.7985
#
#
#
# Elastic Compliance Matrix: (Units=1/GPa)
#
#
# Indices 1 2 3 4 5 6 
#
# 1 0.015472 -0.000386 -0.001009 0.000000 0.000000 0.000000
# 2 -0.000386 0.007071 -0.001262 0.000000 0.000000 0.000000
# 3 -0.001009 -0.001262 0.005199 0.000000 0.000000 0.000000
# 4 0.000000 0.000000 0.000000 0.030156 0.000000 0.000000
# 5 0.000000 0.000000 0.000000 0.000000 0.024569 0.000000
# 6 0.000000 0.000000 0.000000 0.000000 0.000000 0.031448
#
#
# Mechanical properties :
#
#
# Convention : Reuss Voigt Hill
#
# Bulk Modulus (GPa) = 44.58515 59.26755 51.92635
# Shear Modulus (GPa) = 39.46241 45.17807 42.32024
#
# Velocity S-wave (km/s) = 3.93743 4.21293 4.07751
# Velocity P-wave (km/s) = 6.17956 6.85194 6.52442
#
# Compressibility (1/GPa) = 0.02242899
#
# Stress axis : x y z
#
# Youngs Moduli (GPa) = 64.63325 141.42562 192.34679
#
# Poissons Ratio (x) = 0.05452 0.19404
# Poissons Ratio (y) = 0.02492 0.24275
# Poissons Ratio (z) = 0.06520 0.17849
#
# Static dielectric constant tensor:
#      x y z
#    x 2.333380 0.000000 0.000000 
#    y 0.000000 1.965650 0.000000 
#    z 0.000000 0.000000 1.978210 
# 
# From -- ./inp_files/32311.got.cif
#   From: 2010.05.17/outbox.cif.g08.bks.cpg/sg73_17_cif.got.tgz:32311.got - 2010.06.03 17:35:07.
