data_PCOD9529031
_publ_section_title
;
Structure prediction by ZEFSAII (Michael W. Deem and Ramdas Pophale) SiO2 
 PCOD9529031
Probable space group: I B A M
;
_chemical_formula_sum "Si O2"
_cell_formula_units_Z 96
_cell_length_a 17.266878
_cell_length_b 9.836872
_cell_length_c 27.127668
_cell_angle_alpha 90.000000
_cell_angle_beta 90.000000
_cell_angle_gamma 90.000000
_cell_volume 4607.690530
_symmetry_space_group_name_H-M "I B A M"
_symmetry_group_IT_number 72
_symmetry_cell_setting 'orthorhombic'
loop_
_space_group_symop_operation_xyz
x,y,z
-x,-y,z
x,-y,1/2-z
-x,y,1/2-z
-x,-y,-z
x,y,-z
-x,y,1/2+z
x,-y,1/2+z
1/2+x,1/2+y,1/2+z
1/2-x,1/2-y,1/2+z
1/2+x,1/2-y,-z
1/2-x,1/2+y,-z
1/2-x,1/2-y,1/2-z
1/2+x,1/2+y,1/2-z
1/2-x,1/2+y,z
1/2+x,1/2-y,z
loop_
_atom_site_type_symbol
_atom_site_label
_atom_site_fract_x
_atom_site_fract_y
_atom_site_fract_z
Si Si1 0.590339 0.343782 0.256640
Si Si2 0.494042 0.782563 0.556952
Si Si3 0.210508 0.707516 0.698500
Si Si4 0.573241 0.590956 0.139329
Si Si5 0.238802 0.036951 0.863663
Si Si6 0.369130 0.027181 0.557016
O O1 0.620082 0.500000 0.250000
O O2 0.500000 0.343182 0.250000
O O3 0.623921 0.245276 0.214993
O O4 0.601125 0.314966 0.314786
O O5 0.500190 0.737424 0.500000
O O6 0.461399 0.671344 0.593612
O O7 0.577951 0.843262 0.572082
O O8 0.430804 0.903759 0.558169
O O9 0.250000 0.750000 0.750000
O O10 0.228650 0.556791 0.681021
O O11 0.236101 0.808804 0.655016
O O12 0.500000 0.500000 0.156962
O O13 0.650256 0.507307 0.125749
O O14 0.296945 0.006944 0.908458
O O15 0.345279 0.046113 0.500000
#
# Coordination Sequence:
#
# PCOD9529031 Si02
#       6
#    16  16  16  16  16  16
#     4  11  20  38  59  87 124 174 210 252 312 376
#     4   9  21  44  66  89 124 166 204 263 330 387
#     4  12  23  42  60  91 133 168 212 257 316 376
#     4  12  23  38  64  91 129 165 215 255 321 384
#     4  12  25  39  67  98 124 174 214 267 321 378
#     4   9  21  43  68  91 123 162 210 263 325 384
#
# _framework density 20.834733
#
# number of rings (size 3 to 8) (size 9 to 14) (size 15 to 20)
#    0.000    1.167    5.000    2.500    4.667    1.000 
#    0.000    0.833    0.000    1.000    0.000    0.000 
#    0.000    0.000    0.000    0.000    0.000    0.000 
#
# Total GULP energy -267960.063293 kJ/mol
# GULP energy per Si atom -5582.501319 kJ/mol
# Density = 2.078731 g / cm^3
# Si number density = 20.834733 Si / 1000 Ang^3
#
#
#
# Elastic Constant Matrix: (Units=GPa)
#
#
# Indices 1 2 3 4 5 6 
#
# 1 124.7543 7.0191 44.8634 0.0000 0.0000 0.0000
# 2 7.0191 28.0749 3.5237 0.0000 0.0000 0.0000
# 3 44.8634 3.5237 88.8036 0.0000 0.0000 0.0000
# 4 0.0000 0.0000 0.0000 32.2741 0.0000 0.0000
# 5 0.0000 0.0000 0.0000 0.0000 45.1930 0.0000
# 6 0.0000 0.0000 0.0000 0.0000 0.0000 20.4597
#
#
#
# Elastic Compliance Matrix: (Units=1/GPa)
#
#
# Indices 1 2 3 4 5 6 
#
# 1 0.009891 -0.001855 -0.004923 0.000000 0.000000 0.000000
# 2 -0.001855 0.036145 -0.000497 0.000000 0.000000 0.000000
# 3 -0.004923 -0.000497 0.013768 0.000000 0.000000 0.000000
# 4 0.000000 0.000000 0.000000 0.030985 0.000000 0.000000
# 5 0.000000 0.000000 0.000000 0.000000 0.022127 0.000000
# 6 0.000000 0.000000 0.000000 0.000000 0.000000 0.048876
#
#
# Mechanical properties :
#
#
# Convention : Reuss Voigt Hill
#
# Bulk Modulus (GPa) = 22.09789 39.16056 30.62923
# Shear Modulus (GPa) = 26.11972 32.00048 29.06010
#
# Velocity S-wave (km/s) = 3.54455 3.92333 3.73874
# Velocity P-wave (km/s) = 5.23269 6.27375 5.77672
#
# Compressibility (1/GPa) = 0.04525318
#
# Stress axis : x y z
#
# Youngs Moduli (GPa) = 101.10690 27.66622 72.63405
#
# Poissons Ratio (x) = 0.05132 0.35758
# Poissons Ratio (y) = 0.18754 0.03611
# Poissons Ratio (z) = 0.49776 0.01375
#
# Static dielectric constant tensor:
#      x y z
#    x 1.870630 0.000000 0.000000 
#    y 0.000000 1.828060 0.000000 
#    z 0.000000 0.000000 1.768020 
# 
# From -- ./inp_files/44789.got.cif
#   From: 2010.05.17/outbox.cif.g08.bks.cpg/sg72_23_cif.got.tgz:44789.got - 2010.06.03 17:03:01.
