data_PCOD9529586
_publ_section_title
;
Structure prediction by ZEFSAII (Michael W. Deem and Ramdas Pophale) SiO2 
 PCOD9529586
Probable space group: I B A M
;
_chemical_formula_sum "Si O2"
_cell_formula_units_Z 48
_cell_length_a 15.000000
_cell_length_b 21.000000
_cell_length_c 15.000000
_cell_angle_alpha 90.000000
_cell_angle_beta 90.000000
_cell_angle_gamma 90.000000
_cell_volume 4725.000000
_symmetry_space_group_name_H-M "I B A M"
_symmetry_group_IT_number 72
_symmetry_cell_setting 'orthorhombic'
loop_
_space_group_symop_operation_xyz
x,y,z
-x,-y,z
x,-y,1/2-z
-x,y,1/2-z
-x,-y,-z
x,y,-z
-x,y,1/2+z
x,-y,1/2+z
1/2+x,1/2+y,1/2+z
1/2-x,1/2-y,1/2+z
1/2+x,1/2-y,-z
1/2-x,1/2+y,-z
1/2-x,1/2-y,1/2-z
1/2+x,1/2+y,1/2-z
1/2-x,1/2+y,z
1/2+x,1/2-y,z
loop_
_atom_site_type_symbol
_atom_site_label
_atom_site_fract_x
_atom_site_fract_y
_atom_site_fract_z
Si Si1 0.083576 0.813986 0.393525
Si Si2 0.692800 0.441134 0.692978
Si Si3 0.500000 0.591614 0.250000
Si Si4 0.231172 0.526276 0.500000
Si Si5 0.724256 0.167438 0.319247
Si Si6 0.935815 0.609139 0.000000
Si Si7 0.148275 0.391949 0.500000
Si Si8 0.572499 0.185254 0.816048
O O1 0.073896 0.822813 0.500000
O O2 0.043880 0.869338 0.332012
O O3 0.188053 0.804673 0.368535
O O4 0.035620 0.750716 0.357491
O O5 0.729204 0.500000 0.750000
O O6 0.585644 0.441001 0.703953
O O7 0.721440 0.448691 0.590158
O O8 0.733420 0.382015 0.747343
O O9 0.129080 0.549301 0.500000
O O10 0.219230 0.450331 0.500000
O O11 0.669020 0.142280 0.405274
O O12 0.654112 0.200908 0.252127
O O13 0.910830 0.645319 0.093276
O O14 0.041626 0.595688 0.000000
O O15 0.500000 0.153853 0.750000
#
# Coordination Sequence:
#
# PCOD9529586 Si02
#       8
#    16  16   8   8  16   8   8  16
#     4  11  23  41  65  95 128 166 214 263 321 385
#     4  11  23  43  65  93 130 169 213 263 322 381
#     4  10  25  42  64  96 134 166 207 268 324 384
#     4  12  25  42  67  97 127 169 218 267 320 381
#     4  11  23  41  64  90 128 170 213 261 319 380
#     4  12  25  41  64  96 127 166 215 268 317 383
#     4  12  23  41  66  96 123 168 217 260 320 382
#     4  12  23  41  64  91 131 169 211 263 321 383
#
# _framework density 10.15873
#
# number of rings (size 3 to 8) (size 9 to 14) (size 15 to 20)
#    0.000    0.667    7.500    1.000    1.167    0.000 
#    0.000    0.833    3.667    0.000    0.000    0.000 
#    0.000    0.000    0.000    0.000    0.000    0.000 
#
# Total GULP energy -267314.809066 kJ/mol
# GULP energy per Si atom -5569.058522 kJ/mol
# Density = 1.013561 g / cm^3
# Si number density = 10.158730 Si / 1000 Ang^3
#
#
#
# Elastic Constant Matrix: (Units=GPa)
#
#
# Indices 1 2 3 4 5 6 
#
# 1 93.4650 3.3227 42.1517 0.0000 0.0000 0.0000
# 2 3.3227 26.1959 32.0646 0.0000 0.0000 0.0000
# 3 42.1517 32.0646 222.7191 0.0001 0.0000 0.0000
# 4 0.0000 0.0000 0.0001 25.5383 0.0000 0.0000
# 5 0.0000 0.0000 0.0000 0.0000 32.5176 0.0000
# 6 0.0000 0.0000 0.0000 0.0000 0.0000 11.2793
#
#
#
# Elastic Compliance Matrix: (Units=1/GPa)
#
#
# Indices 1 2 3 4 5 6 
#
# 1 0.011746 0.001495 -0.002438 0.000000 0.000000 0.000000
# 2 0.001495 0.046530 -0.006982 0.000000 0.000000 0.000000
# 3 -0.002438 -0.006982 0.005957 0.000000 0.000000 0.000000
# 4 0.000000 0.000000 0.000000 0.039157 0.000000 0.000000
# 5 0.000000 0.000000 0.000000 0.000000 0.030753 0.000000
# 6 0.000000 0.000000 0.000000 0.000000 0.000000 0.088658
#
#
# Mechanical properties :
#
#
# Convention : Reuss Voigt Hill
#
# Bulk Modulus (GPa) = 20.66894 55.27311 37.97102
# Shear Modulus (GPa) = 19.62493 31.52310 25.57402
#
# Velocity S-wave (km/s) = 3.11129 3.94322 3.55169
# Velocity P-wave (km/s) = 4.80644 6.92790 5.96228
#
# Compressibility (1/GPa) = 0.04838178
#
# Stress axis : x y z
#
# Youngs Moduli (GPa) = 85.13799 21.49136 167.88213
#
# Poissons Ratio (x) = -0.03212 0.40932
# Poissons Ratio (y) = -0.12724 1.17211
# Poissons Ratio (z) = 0.20758 0.15005
#
# Static dielectric constant tensor:
#      x y z
#    x 1.756960 0.000000 0.000000 
#    y 0.000000 1.803020 0.000000 
#    z 0.000000 0.000000 1.689130 
# 
# From -- ./inp_files/21938.got.cif
#   From: 2010.05.17/outbox.ucp.g08.bks.cvg/sg72_11_cif.got.tgz:21938.got - 2010.06.11 16:33:07.
