data_PCOD9529559
_publ_section_title
;
Structure prediction by ZEFSAII (Michael W. Deem and Ramdas Pophale) SiO2 
 PCOD9529559
Probable space group: I B A M
;
_chemical_formula_sum "Si O2"
_cell_formula_units_Z 40
_cell_length_a 9.000000
_cell_length_b 27.000000
_cell_length_c 18.000000
_cell_angle_alpha 90.000000
_cell_angle_beta 90.000000
_cell_angle_gamma 90.000000
_cell_volume 4374.000000
_symmetry_space_group_name_H-M "I B A M"
_symmetry_group_IT_number 72
_symmetry_cell_setting 'orthorhombic'
loop_
_space_group_symop_operation_xyz
x,y,z
-x,-y,z
x,-y,1/2-z
-x,y,1/2-z
-x,-y,-z
x,y,-z
-x,y,1/2+z
x,-y,1/2+z
1/2+x,1/2+y,1/2+z
1/2-x,1/2-y,1/2+z
1/2+x,1/2-y,-z
1/2-x,1/2+y,-z
1/2-x,1/2-y,1/2-z
1/2+x,1/2+y,1/2-z
1/2-x,1/2+y,z
1/2+x,1/2-y,z
loop_
_atom_site_type_symbol
_atom_site_label
_atom_site_fract_x
_atom_site_fract_y
_atom_site_fract_z
Si Si1 0.654466 0.410587 0.796488
Si Si2 0.236657 0.783031 0.087318
Si Si3 0.906823 0.551908 0.408564
Si Si4 0.394918 0.867997 0.182585
Si Si5 0.396958 0.681313 0.088574
O O1 0.500000 0.425189 0.750000
O O2 0.755876 0.445023 0.855132
O O3 0.765362 0.396468 0.728610
O O4 0.620155 0.363423 0.851727
O O5 0.327108 0.822391 0.136618
O O6 0.281151 0.726088 0.104317
O O7 0.061962 0.795188 0.096049
O O8 0.274285 0.790322 0.000000
O O9 0.881217 0.558356 0.500000
O O10 0.000000 0.500000 0.400385
O O11 0.011715 0.595405 0.372628
O O12 0.500000 0.850124 0.250000
O O13 0.379659 0.666491 0.000000
#
# Coordination Sequence:
#
# PCOD9529559 Si02
#       5
#    16  16  16  16  16
#     4  11  22  40  63  96 132 163 207 262 328 377
#     4  10  21  37  56  84 123 172 222 264 309 366
#     4  10  23  45  71  95 123 164 214 260 316 391
#     4  10  22  37  60  90 124 167 207 261 325 383
#     4  10  22  37  58  87 127 176 221 262 310 372
#
# _framework density 9.1449470000000002
#
# number of rings (size 3 to 8) (size 9 to 14) (size 15 to 20)
#    0.000    1.800    2.000    1.200    5.600    5.200 
#    0.000    2.000    0.000    2.400    0.000    0.000 
#    0.000    0.000    0.000    0.000    0.000    0.000 
#
# Total GULP energy -222886.055270 kJ/mol
# GULP energy per Si atom -5572.151382 kJ/mol
# Density = 0.912413 g / cm^3
# Si number density = 9.144947 Si / 1000 Ang^3
#
#
#
# Elastic Constant Matrix: (Units=GPa)
#
#
# Indices 1 2 3 4 5 6 
#
# 1 102.3928 18.2754 35.9139 0.0000 0.0000 0.0000
# 2 18.2754 70.4182 34.9840 0.0000 0.0000 0.0000
# 3 35.9139 34.9840 124.3343 -0.0001 0.0000 0.0000
# 4 0.0000 0.0000 -0.0001 37.8696 0.0000 0.0000
# 5 0.0000 0.0000 0.0000 0.0000 46.5190 0.0000
# 6 0.0000 0.0000 0.0000 0.0000 0.0000 36.9991
#
#
#
# Elastic Compliance Matrix: (Units=1/GPa)
#
#
# Indices 1 2 3 4 5 6 
#
# 1 0.010999 -0.001484 -0.002760 0.000000 0.000000 0.000000
# 2 -0.001484 0.016709 -0.004273 0.000000 0.000000 0.000000
# 3 -0.002760 -0.004273 0.010042 0.000000 0.000000 0.000000
# 4 0.000000 0.000000 0.000000 0.026406 0.000000 0.000000
# 5 0.000000 0.000000 0.000000 0.000000 0.021497 0.000000
# 6 0.000000 0.000000 0.000000 0.000000 0.000000 0.027028
#
#
# Mechanical properties :
#
#
# Convention : Reuss Voigt Hill
#
# Bulk Modulus (GPa) = 48.26745 52.83245 50.54995
# Shear Modulus (GPa) = 36.59825 38.14232 37.37029
#
# Velocity S-wave (km/s) = 4.47812 4.57161 4.52510
# Velocity P-wave (km/s) = 7.29284 7.53757 7.41622
#
# Compressibility (1/GPa) = 0.02071790
#
# Stress axis : x y z
#
# Youngs Moduli (GPa) = 90.91709 59.84926 99.57983
#
# Poissons Ratio (x) = 0.08879 0.27480
# Poissons Ratio (y) = 0.13488 0.42548
# Poissons Ratio (z) = 0.25090 0.25572
#
# Static dielectric constant tensor:
#      x y z
#    x 1.680280 0.000000 0.000000 
#    y 0.000000 1.632220 0.000000 
#    z 0.000000 0.000000 1.631260 
# 
# From -- ./inp_files/28114.got.cif
#   From: 2010.05.17/outbox.ucp.g08.bks.cvg/sg72_15_cif.got.tgz:28114.got - 2010.06.11 16:33:07.
