data_PCOD9529149
_publ_section_title
;
Structure prediction by ZEFSAII (Michael W. Deem and Ramdas Pophale) SiO2 
 PCOD9529149
Probable space group: I B A M
;
_chemical_formula_sum "Si O2"
_cell_formula_units_Z 64
_cell_length_a 23.844187
_cell_length_b 8.706538
_cell_length_c 15.342258
_cell_angle_alpha 90.000000
_cell_angle_beta 90.000000
_cell_angle_gamma 90.000000
_cell_volume 3185.057673
_symmetry_space_group_name_H-M "I B A M"
_symmetry_group_IT_number 72
_symmetry_cell_setting 'orthorhombic'
loop_
_space_group_symop_operation_xyz
x,y,z
-x,-y,z
x,-y,1/2-z
-x,y,1/2-z
-x,-y,-z
x,y,-z
-x,y,1/2+z
x,-y,1/2+z
1/2+x,1/2+y,1/2+z
1/2-x,1/2-y,1/2+z
1/2+x,1/2-y,-z
1/2-x,1/2+y,-z
1/2-x,1/2-y,1/2-z
1/2+x,1/2+y,1/2-z
1/2-x,1/2+y,z
1/2+x,1/2-y,z
loop_
_atom_site_type_symbol
_atom_site_label
_atom_site_fract_x
_atom_site_fract_y
_atom_site_fract_z
Si Si1 0.124288 0.177258 0.144398
Si Si2 0.203851 0.686350 0.500000
Si Si3 0.175194 0.328783 0.500000
Si Si4 0.003986 0.320929 0.103215
Si Si5 0.891201 0.183451 0.843676
O O1 0.173517 0.240452 0.084083
O O2 0.132711 0.206657 0.246972
O O3 0.066147 0.258456 0.118206
O O4 0.117153 0.994600 0.131912
O O5 0.192767 0.505464 0.500000
O O6 0.269117 0.725686 0.500000
O O7 0.138955 0.288542 0.585097
O O8 0.956980 0.225363 0.154285
O O9 0.000000 0.500000 0.127618
O O10 0.991239 0.308090 0.000000
#
# Coordination Sequence:
#
# PCOD9529149 Si02
#       5
#    16   8   8  16  16
#     4  11  24  42  66  96 129 167 210 259 315 374
#     4  12  26  45  68  93 124 166 212 262 316 370
#     4  12  26  45  68  93 124 166 212 262 316 370
#     4  11  22  37  62  97 132 169 208 255 315 375
#     4  11  24  42  66  96 129 167 210 259 315 374
#
# _framework density 20.093827999999998
#
# number of rings (size 3 to 8) (size 9 to 14) (size 15 to 20)
#    0.000    0.750    2.500    5.250    0.000    9.000 
#    0.000    0.000    0.000    0.000    0.000    0.000 
#    0.000    0.000    0.000    0.000    0.000    0.000 
#
# Total GULP energy -179175.755022 kJ/mol
# GULP energy per Si atom -5599.242344 kJ/mol
# Density = 2.004809 g / cm^3
# Si number density = 20.093828 Si / 1000 Ang^3
#
#
#
# Elastic Constant Matrix: (Units=GPa)
#
#
# Indices 1 2 3 4 5 6 
#
# 1 69.8969 -15.1186 -3.3141 0.0000 0.0000 0.0000
# 2 -15.1186 75.9710 19.2244 0.0000 0.0000 0.0000
# 3 -3.3141 19.2244 58.2244 0.0000 0.0000 0.0000
# 4 0.0000 0.0000 0.0000 -1.6943 0.0000 0.0000
# 5 0.0000 0.0000 0.0000 0.0000 2.3755 0.0000
# 6 0.0000 0.0000 0.0000 0.0000 0.0000 39.8092
#
#
#
# Elastic Compliance Matrix: (Units=1/GPa)
#
#
# Indices 1 2 3 4 5 6 
#
# 1 0.014951 0.003012 -0.000143 0.000000 0.000000 0.000000
# 2 0.003012 0.014970 -0.004771 0.000000 0.000000 0.000000
# 3 -0.000143 -0.004771 0.018742 0.000000 0.000000 0.000000
# 4 0.000000 0.000000 0.000000 -0.590205 0.000000 0.000000
# 5 0.000000 0.000000 0.000000 0.000000 0.420963 0.000000
# 6 0.000000 0.000000 0.000000 0.000000 0.000000 0.025120
#
#
# Mechanical properties :
#
#
# Convention : Reuss Voigt Hill
#
# Bulk Modulus (GPa) = 22.29289 22.85286 22.57288
# Shear Modulus (GPa) = -65.18827 21.65145 -21.76841
#
# Velocity S-wave (km/s) = -5.70196 3.28612 -3.29498
# Velocity P-wave (km/s) = 5.67726 5.07896 1.79381
#
# Compressibility (1/GPa) = 0.04485735
#
# Stress axis : x y z
#
# Youngs Moduli (GPa) = 66.88332 66.80202 53.35581
#
# Poissons Ratio (x) = -0.20119 0.00765
# Poissons Ratio (y) = -0.20143 0.25457
# Poissons Ratio (z) = 0.00959 0.31873
#
# Static dielectric constant tensor:
#      x y z
#    x 1.652520 0.000000 0.000000 
#    y 0.000000 1.682650 0.000000 
#    z 0.000000 0.000000 1.712230 
# 
# From -- ./inp_files/18632.got.cif
#   From: 2010.05.17/outbox.cif.g08.bks.cpg/sg72_10_cif.got.tgz:18632.got - 2010.06.03 17:03:01.
