data_PCOD9529499
_publ_section_title
;
Structure prediction by ZEFSAII (Michael W. Deem and Ramdas Pophale) SiO2 
 PCOD9529499
Probable space group: I B A M
;
_chemical_formula_sum "Si O2"
_cell_formula_units_Z 28
_cell_length_a 12.000000
_cell_length_b 15.000000
_cell_length_c 15.000000
_cell_angle_alpha 90.000000
_cell_angle_beta 90.000000
_cell_angle_gamma 90.000000
_cell_volume 2700.000000
_symmetry_space_group_name_H-M "I B A M"
_symmetry_group_IT_number 72
_symmetry_cell_setting 'orthorhombic'
loop_
_space_group_symop_operation_xyz
x,y,z
-x,-y,z
x,-y,1/2-z
-x,y,1/2-z
-x,-y,-z
x,y,-z
-x,y,1/2+z
x,-y,1/2+z
1/2+x,1/2+y,1/2+z
1/2-x,1/2-y,1/2+z
1/2+x,1/2-y,-z
1/2-x,1/2+y,-z
1/2-x,1/2-y,1/2-z
1/2+x,1/2+y,1/2-z
1/2-x,1/2+y,z
1/2+x,1/2-y,z
loop_
_atom_site_type_symbol
_atom_site_label
_atom_site_fract_x
_atom_site_fract_y
_atom_site_fract_z
Si Si1 0.209907 0.599116 0.295823
Si Si2 0.646521 0.234474 0.657246
Si Si3 0.537032 0.319249 0.500000
Si Si4 0.266520 0.935892 0.000000
Si Si5 0.715541 0.356416 0.000000
O O1 0.227492 0.500000 0.250000
O O2 0.313381 0.671063 0.299591
O O3 0.130074 0.657721 0.231105
O O4 0.181887 0.588276 0.401979
O O5 0.548326 0.259375 0.589010
O O6 0.739713 0.196046 0.587382
O O7 0.643843 0.386990 0.500000
O O8 0.417266 0.363360 0.500000
O O9 0.259508 0.042799 0.000000
#
# Coordination Sequence:
#
# PCOD9529499 Si02
#       5
#    16  16   8   8   8
#     4  10  18  35  58  82 114 149 197 236 286 365
#     4   9  20  35  57  85 114 161 186 231 305 349
#     4   9  20  35  56  88 121 146 196 235 297 363
#     4  10  19  32  56  92 111 150 187 250 310 354
#     4  11  18  35  60  86 123 148 184 253 299 355
#
# _framework density 10.370369999999999
#
# number of rings (size 3 to 8) (size 9 to 14) (size 15 to 20)
#    0.000    2.286    2.857    1.286    0.000    0.000 
#    0.000   12.857    0.000    5.143    0.000    0.000 
#    0.000    0.000    0.000    0.000    0.000    0.000 
#
# Total GULP energy -156022.081813 kJ/mol
# GULP energy per Si atom -5572.217208 kJ/mol
# Density = 1.034677 g / cm^3
# Si number density = 10.370370 Si / 1000 Ang^3
#
#
#
# Elastic Constant Matrix: (Units=GPa)
#
#
# Indices 1 2 3 4 5 6 
#
# 1 20.1368 -0.2157 12.7656 0.0000 0.0000 0.0000
# 2 -0.2157 166.3047 52.3349 0.0000 0.0000 0.0000
# 3 12.7656 52.3349 169.6554 0.0000 0.0000 0.0000
# 4 0.0000 0.0000 0.0000 52.4338 0.0000 0.0000
# 5 0.0000 0.0000 0.0000 0.0000 3.2843 0.0000
# 6 0.0000 0.0000 0.0000 0.0000 0.0000 13.8309
#
#
#
# Elastic Compliance Matrix: (Units=1/GPa)
#
#
# Indices 1 2 3 4 5 6 
#
# 1 0.052462 0.001451 -0.004395 0.000000 0.000000 0.000000
# 2 0.001451 0.006700 -0.002176 0.000000 0.000000 0.000000
# 3 -0.004395 -0.002176 0.006896 0.000000 0.000000 0.000000
# 4 0.000000 0.000000 0.000000 0.019072 0.000000 0.000000
# 5 0.000000 0.000000 0.000000 0.000000 0.304482 0.000000
# 6 0.000000 0.000000 0.000000 0.000000 0.000000 0.072302
#
#
# Mechanical properties :
#
#
# Convention : Reuss Voigt Hill
#
# Bulk Modulus (GPa) = 17.91529 53.98518 35.95024
# Shear Modulus (GPa) = 10.18830 33.32393 21.75611
#
# Velocity S-wave (km/s) = 2.21876 4.01270 3.24227
# Velocity P-wave (km/s) = 3.90132 6.89595 5.60243
#
# Compressibility (1/GPa) = 0.05581823
#
# Stress axis : x y z
#
# Youngs Moduli (GPa) = 19.06139 149.26086 145.00685
#
# Poissons Ratio (x) = -0.21660 0.63732
# Poissons Ratio (y) = -0.02766 0.31552
# Poissons Ratio (z) = 0.08378 0.32478
#
# Static dielectric constant tensor:
#      x y z
#    x 1.735940 0.000000 0.000000 
#    y 0.000000 1.749930 0.000000 
#    z 0.000000 0.000000 1.796560 
# 
# From -- ./inp_files/19476.got.cif
#   From: 2010.05.17/outbox.ucp.g08.bks.cvg/sg72_10_cif.got.tgz:19476.got - 2010.06.11 16:33:07.
