data_PCOD9529833
_publ_section_title
;
Structure prediction by ZEFSAII (Michael W. Deem and Ramdas Pophale) SiO2 
 PCOD9529833
Probable space group: I B C A 
;
_chemical_formula_sum "Si O2"
_cell_formula_units_Z 96
_cell_length_a 8.575780
_cell_length_b 23.338985
_cell_length_c 22.648363
_cell_angle_alpha 90.000000
_cell_angle_beta 90.000000
_cell_angle_gamma 90.000000
_cell_volume 4533.069872
_symmetry_space_group_name_H-M "I B C A "
_symmetry_group_IT_number 73
_symmetry_cell_setting 'orthorhombic'
loop_
_space_group_symop_operation_xyz
x,y,z
-x,1/2-y,z
x,-y,1/2-z
1/2-x,y,-z
-x,-y,-z
x,1/2+y,-z
-x,y,1/2+z
1/2+x,-y,z
1/2+x,1/2+y,1/2+z
1/2-x,-y,1/2+z
1/2+x,1/2-y,-z
-x,1/2+y,1/2-z
1/2-x,1/2-y,1/2-z
1/2+x,y,1/2-z
1/2-x,1/2+y,z
x,1/2-y,1/2+z
loop_
_atom_site_type_symbol
_atom_site_label
_atom_site_fract_x
_atom_site_fract_y
_atom_site_fract_z
Si Si1 0.500000 0.250000 0.334210
Si Si2 0.385729 0.351876 0.417276
Si Si3 0.309903 0.335828 0.764299
Si Si4 0.008659 0.681334 0.665007
Si Si5 0.036064 0.681867 0.040094
Si Si6 0.966079 0.066821 0.683570
Si Si7 0.295750 0.500000 0.750000
O O1 0.443702 0.300417 0.376151
O O2 0.629640 0.275692 0.291153
O O3 0.212548 0.332560 0.438140
O O4 0.485171 0.349906 0.478162
O O5 0.406806 0.410551 0.380045
O O6 0.137493 0.339494 0.789070
O O7 0.345536 0.337687 0.694625
O O8 0.422363 0.382704 0.793137
O O9 0.000000 0.750000 0.661724
O O10 0.054551 0.662411 0.599138
O O11 0.000000 0.750000 0.031019
O O12 0.819596 0.049166 0.724835
O O13 0.088867 0.014945 0.695240
#
# Coordination Sequence:
#
# PCOD9529833 Si02
#       7
#     8  16  16  16  16  16   8
#     4  10  18  32  52  82 134 158 198 256 302 386
#     4  10  21  38  61  91 128 180 221 260 315 393
#     4  11  22  34  56  93 126 163 205 251 332 383
#     4  11  22  33  52  88 133 174 202 248 297 382
#     4  10  21  37  58  86 135 184 220 247 300 385
#     4  10  23  41  70  99 123 170 213 291 341 410
#     4  10  22  46  70 100 128 156 226 294 376 386
#
# _framework density 21.177700999999999
#
# number of rings (size 3 to 8) (size 9 to 14) (size 15 to 20)
#    0.000    1.667    1.667    3.500    7.000    0.000 
#    0.000    0.000    0.000    4.000    0.000    0.000 
#    0.000    0.000    0.000    0.000    0.000    0.000 
#
# Total GULP energy -267544.264101 kJ/mol
# GULP energy per Si atom -5573.838835 kJ/mol
# Density = 2.112950 g / cm^3
# Si number density = 21.177701 Si / 1000 Ang^3
#
#
#
# Elastic Constant Matrix: (Units=GPa)
#
#
# Indices 1 2 3 4 5 6 
#
# 1 93.5530 31.5886 38.0542 0.0000 0.0000 0.0000
# 2 31.5886 58.5498 37.0429 0.0000 0.0000 0.0000
# 3 38.0542 37.0429 143.5626 0.0000 0.0000 0.0000
# 4 0.0000 0.0000 0.0000 30.4144 0.0000 0.0000
# 5 0.0000 0.0000 0.0000 0.0000 24.9304 0.0000
# 6 0.0000 0.0000 0.0000 0.0000 0.0000 32.6373
#
#
#
# Elastic Compliance Matrix: (Units=1/GPa)
#
#
# Indices 1 2 3 4 5 6 
#
# 1 0.013551 -0.006022 -0.002038 0.000000 0.000000 0.000000
# 2 -0.006022 0.023087 -0.004361 0.000000 0.000000 0.000000
# 3 -0.002038 -0.004361 0.008631 0.000000 0.000000 0.000000
# 4 0.000000 0.000000 0.000000 0.032879 0.000000 0.000000
# 5 0.000000 0.000000 0.000000 0.000000 0.040112 0.000000
# 6 0.000000 0.000000 0.000000 0.000000 0.000000 0.030640
#
#
# Mechanical properties :
#
#
# Convention : Reuss Voigt Hill
#
# Bulk Modulus (GPa) = 48.95234 56.55963 52.75599
# Shear Modulus (GPa) = 27.69286 30.19506 28.94396
#
# Velocity S-wave (km/s) = 3.62006 3.78007 3.70093
# Velocity P-wave (km/s) = 6.37482 6.76883 6.57477
#
# Compressibility (1/GPa) = 0.02042803
#
# Stress axis : x y z
#
# Youngs Moduli (GPa) = 73.79259 43.31382 115.85934
#
# Poissons Ratio (x) = 0.26082 0.23616
# Poissons Ratio (y) = 0.44435 0.50526
# Poissons Ratio (z) = 0.15042 0.18889
#
# Static dielectric constant tensor:
#      x y z
#    x 1.862390 0.000000 0.000000 
#    y 0.000000 1.827760 0.000000 
#    z 0.000000 0.000000 1.822250 
# 
# From -- ./inp_files/24922.got.cif
#   From: 2010.05.17/outbox.cif.g08.bks.cpg/sg73_13_cif.got.tgz:24922.got - 2010.06.03 17:35:07.
