data_PCOD9529794
_publ_section_title
;
Structure prediction by ZEFSAII (Michael W. Deem and Ramdas Pophale) SiO2 
 PCOD9529794
Probable space group: I B C A 
;
_chemical_formula_sum "Si O2"
_cell_formula_units_Z 104
_cell_length_a 22.070578
_cell_length_b 8.064427
_cell_length_c 23.475981
_cell_angle_alpha 90.000000
_cell_angle_beta 90.000000
_cell_angle_gamma 90.000000
_cell_volume 4178.409221
_symmetry_space_group_name_H-M "I B C A "
_symmetry_group_IT_number 73
_symmetry_cell_setting 'orthorhombic'
loop_
_space_group_symop_operation_xyz
x,y,z
-x,1/2-y,z
x,-y,1/2-z
1/2-x,y,-z
-x,-y,-z
x,1/2+y,-z
-x,y,1/2+z
1/2+x,-y,z
1/2+x,1/2+y,1/2+z
1/2-x,-y,1/2+z
1/2+x,1/2-y,-z
-x,1/2+y,1/2-z
1/2-x,1/2-y,1/2-z
1/2+x,y,1/2-z
1/2-x,1/2+y,z
x,1/2-y,1/2+z
loop_
_atom_site_type_symbol
_atom_site_label
_atom_site_fract_x
_atom_site_fract_y
_atom_site_fract_z
Si Si1 0.820932 0.465202 0.410593
Si Si2 0.799936 0.621573 0.628625
Si Si3 0.379231 0.611245 0.202444
Si Si4 0.966217 0.489902 0.926242
Si Si5 0.250000 0.750000 0.250000
Si Si6 0.583247 0.956662 0.684099
Si Si7 0.083548 0.167096 0.028774
O O1 0.750989 0.515475 0.402818
O O2 0.822859 0.266982 0.412536
O O3 0.854865 0.513402 0.351806
O O4 0.853360 0.576754 0.458191
O O5 0.769154 0.705722 0.684279
O O6 0.852052 0.509956 0.656821
O O7 0.410634 0.500000 0.250000
O O8 0.320431 0.689462 0.235119
O O9 0.420737 0.759335 0.181283
O O10 0.962823 0.460396 0.859304
O O11 0.924519 0.650022 0.944965
O O12 0.032823 0.548826 0.942424
O O13 0.939379 0.341825 0.963770
O O14 0.580515 0.000000 0.750000
#
# Coordination Sequence:
#
# PCOD9529794 Si02
#       7
#    16  16  16  16   8  16  16
#     4  11  22  38  64  96 133 178 230 284 330 408
#     4  11  23  34  61 100 137 187 223 268 341 415
#     4  11  20  33  54  90 132 177 221 270 324 396
#     4  10  24  46  77 100 125 180 235 287 345 398
#     4  10  18  30  50  82 124 176 232 244 306 398
#     4  12  23  40  67 102 142 177 225 284 342 416
#     4  10  23  48  76  95 128 175 236 292 336 405
#
# _framework density 24.889854
#
# number of rings (size 3 to 8) (size 9 to 14) (size 15 to 20)
#    0.000    1.231    4.615    1.846    4.308    0.000 
#    0.000    1.538    3.385    0.000    0.000    0.000 
#    0.000    0.000    0.000    0.000    0.000    0.000 
#
# Total GULP energy -290071.324532 kJ/mol
# GULP energy per Si atom -5578.294703 kJ/mol
# Density = 2.483320 g / cm^3
# Si number density = 24.889854 Si / 1000 Ang^3
#
#
#
# Elastic Constant Matrix: (Units=GPa)
#
#
# Indices 1 2 3 4 5 6 
#
# 1 55.8288 2.1775 27.6275 0.0000 0.0000 0.0000
# 2 2.1775 84.0447 24.6985 0.0000 0.0000 0.0000
# 3 27.6275 24.6985 84.1349 0.0000 0.0000 0.0000
# 4 0.0000 0.0000 0.0000 27.8441 0.0000 0.0000
# 5 0.0000 0.0000 0.0000 0.0000 30.5951 0.0000
# 6 0.0000 0.0000 0.0000 0.0000 0.0000 19.4210
#
#
#
# Elastic Compliance Matrix: (Units=1/GPa)
#
#
# Indices 1 2 3 4 5 6 
#
# 1 0.021599 0.001669 -0.007582 0.000000 0.000000 0.000000
# 2 0.001669 0.013151 -0.004408 0.000000 0.000000 0.000000
# 3 -0.007582 -0.004408 0.015670 0.000000 0.000000 0.000000
# 4 0.000000 0.000000 0.000000 0.035914 0.000000 0.000000
# 5 0.000000 0.000000 0.000000 0.000000 0.032685 0.000000
# 6 0.000000 0.000000 0.000000 0.000000 0.000000 0.051491
#
#
# Mechanical properties :
#
#
# Convention : Reuss Voigt Hill
#
# Bulk Modulus (GPa) = 33.58512 37.00171 35.29341
# Shear Modulus (GPa) = 24.86591 26.87238 25.86915
#
# Velocity S-wave (km/s) = 3.16419 3.28937 3.22738
# Velocity P-wave (km/s) = 5.18384 5.41526 5.30082
#
# Compressibility (1/GPa) = 0.02977509
#
# Stress axis : x y z
#
# Youngs Moduli (GPa) = 46.29837 76.04147 63.81762
#
# Poissons Ratio (x) = -0.12689 0.48389
# Poissons Ratio (y) = -0.07726 0.28134
# Poissons Ratio (z) = 0.35105 0.33522
#
# Static dielectric constant tensor:
#      x y z
#    x 1.981170 0.000000 0.000000 
#    y 0.000000 2.016090 0.000000 
#    z 0.000000 0.000000 2.002020 
# 
# From -- ./inp_files/32679.got.cif
#   From: 2010.05.17/outbox.cif.g08.bks.cpg/sg73_17_cif.got.tgz:32679.got - 2010.06.03 17:35:07.
