data_PCOD9529909
_publ_section_title
;
Structure prediction by ZEFSAII (Michael W. Deem and Ramdas Pophale) SiO2 
 PCOD9529909
Probable space group: I B C A 
;
_chemical_formula_sum "Si O2"
_cell_formula_units_Z 72
_cell_length_a 22.865023
_cell_length_b 7.265943
_cell_length_c 18.465169
_cell_angle_alpha 90.000000
_cell_angle_beta 90.000000
_cell_angle_gamma 90.000000
_cell_volume 3067.728464
_symmetry_space_group_name_H-M "I B C A "
_symmetry_group_IT_number 73
_symmetry_cell_setting 'orthorhombic'
loop_
_space_group_symop_operation_xyz
x,y,z
-x,1/2-y,z
x,-y,1/2-z
1/2-x,y,-z
-x,-y,-z
x,1/2+y,-z
-x,y,1/2+z
1/2+x,-y,z
1/2+x,1/2+y,1/2+z
1/2-x,-y,1/2+z
1/2+x,1/2-y,-z
-x,1/2+y,1/2-z
1/2-x,1/2-y,1/2-z
1/2+x,y,1/2-z
1/2-x,1/2+y,z
x,1/2-y,1/2+z
loop_
_atom_site_type_symbol
_atom_site_label
_atom_site_fract_x
_atom_site_fract_y
_atom_site_fract_z
Si Si1 0.368475 0.185660 0.570459
Si Si2 0.041237 0.083942 0.672851
Si Si3 0.000000 0.250000 0.921392
Si Si4 0.672488 0.537121 0.168350
Si Si5 0.199983 0.172833 0.060490
O O1 0.437883 0.158192 0.555576
O O2 0.345551 0.351167 0.623652
O O3 0.346418 0.227410 0.490295
O O4 0.333371 0.002404 0.592820
O O5 0.109174 0.135516 0.677542
O O6 0.000000 0.250000 0.653286
O O7 0.023272 0.000000 0.750000
O O8 0.029743 0.919949 0.618849
O O9 0.694334 0.500000 0.250000
O O10 0.713206 0.675146 0.122101
O O11 0.250000 0.126144 0.000000
#
# Coordination Sequence:
#
# PCOD9529909 Si02
#       5
#    16  16   8  16  16
#     4  11  24  43  71 103 140 191 234 297 365 430
#     4  10  18  34  60  95 143 189 227 279 353 425
#     4  10  22  38  60  98 140 176 238 292 354 428
#     4  10  24  45  70 106 141 181 243 297 347 427
#     4  12  25  46  75  98 139 194 244 297 363 429
#
# _framework density 23.470133000000001
#
# number of rings (size 3 to 8) (size 9 to 14) (size 15 to 20)
#    0.000    1.333    3.333    2.000    0.000    2.667 
#    2.000    1.111    0.000    0.000    0.000    0.000 
#    0.000    0.000    0.000    0.000    0.000    0.000 
#
# Total GULP energy -200649.777095 kJ/mol
# GULP energy per Si atom -5573.604919 kJ/mol
# Density = 2.341671 g / cm^3
# Si number density = 23.470133 Si / 1000 Ang^3
#
#
#
# Elastic Constant Matrix: (Units=GPa)
#
#
# Indices 1 2 3 4 5 6 
#
# 1 125.1210 21.2694 14.2440 0.0000 0.0000 0.0000
# 2 21.2694 104.0532 29.5076 0.0000 0.0000 0.0000
# 3 14.2440 29.5076 90.8788 0.0000 0.0000 0.0000
# 4 0.0000 0.0000 0.0000 23.7766 0.0000 0.0000
# 5 0.0000 0.0000 0.0000 0.0000 30.9639 0.0000
# 6 0.0000 0.0000 0.0000 0.0000 0.0000 22.8294
#
#
#
# Elastic Compliance Matrix: (Units=1/GPa)
#
#
# Indices 1 2 3 4 5 6 
#
# 1 0.008336 -0.001469 -0.000830 0.000000 0.000000 0.000000
# 2 -0.001469 0.010844 -0.003291 0.000000 0.000000 0.000000
# 3 -0.000830 -0.003291 0.012202 0.000000 0.000000 0.000000
# 4 0.000000 0.000000 0.000000 0.042058 0.000000 0.000000
# 5 0.000000 0.000000 0.000000 0.000000 0.032296 0.000000
# 6 0.000000 0.000000 0.000000 0.000000 0.000000 0.043803
#
#
# Mechanical properties :
#
#
# Convention : Reuss Voigt Hill
#
# Bulk Modulus (GPa) = 49.49492 50.01056 49.75274
# Shear Modulus (GPa) = 29.85921 32.51611 31.18766
#
# Velocity S-wave (km/s) = 3.57069 3.72617 3.64926
# Velocity P-wave (km/s) = 6.17528 6.31402 6.24503
#
# Compressibility (1/GPa) = 0.02020409
#
# Stress axis : x y z
#
# Youngs Moduli (GPa) = 119.95601 92.21791 81.95257
#
# Poissons Ratio (x) = 0.13544 0.06800
# Poissons Ratio (y) = 0.17618 0.26968
# Poissons Ratio (z) = 0.09953 0.30346
#
# Static dielectric constant tensor:
#      x y z
#    x 2.017320 0.000000 0.000000 
#    y 0.000000 1.985390 0.000000 
#    z 0.000000 0.000000 1.897890 
# 
# From -- ./inp_files/26848.got.cif
#   From: 2010.05.17/outbox.cif.g08.bks.cpg/sg73_14_cif.got.tgz:26848.got - 2010.06.03 17:35:07.
