data_PCOD9529363
_publ_section_title
;
Structure prediction by ZEFSAII (Michael W. Deem and Ramdas Pophale) SiO2 
 PCOD9529363
Probable space group: I B A M
;
_chemical_formula_sum "Si O2"
_cell_formula_units_Z 68
_cell_length_a 8.132387
_cell_length_b 18.708022
_cell_length_c 17.732724
_cell_angle_alpha 90.000000
_cell_angle_beta 90.000000
_cell_angle_gamma 90.000000
_cell_volume 2697.872144
_symmetry_space_group_name_H-M "I B A M"
_symmetry_group_IT_number 72
_symmetry_cell_setting 'orthorhombic'
loop_
_space_group_symop_operation_xyz
x,y,z
-x,-y,z
x,-y,1/2-z
-x,y,1/2-z
-x,-y,-z
x,y,-z
-x,y,1/2+z
x,-y,1/2+z
1/2+x,1/2+y,1/2+z
1/2-x,1/2-y,1/2+z
1/2+x,1/2-y,-z
1/2-x,1/2+y,-z
1/2-x,1/2-y,1/2-z
1/2+x,1/2+y,1/2-z
1/2-x,1/2+y,z
1/2+x,1/2-y,z
loop_
_atom_site_type_symbol
_atom_site_label
_atom_site_fract_x
_atom_site_fract_y
_atom_site_fract_z
Si Si1 0.000000 0.000000 0.500000
Si Si2 0.073018 0.164253 0.829746
Si Si3 0.946850 0.608269 0.833439
Si Si4 0.764217 0.021491 0.639688
Si Si5 0.766392 0.776089 0.588221
O O1 0.856411 0.997974 0.565009
O O2 0.115039 0.080882 0.825167
O O3 0.232083 0.208199 0.858098
O O4 0.000000 0.188157 0.750000
O O5 0.935723 0.183829 0.891912
O O6 0.802229 0.549621 0.819716
O O7 0.876221 0.669371 0.886391
O O8 0.000000 0.632895 0.750000
O O9 0.096965 0.566887 0.871856
O O10 0.759308 0.758244 0.500000
#
# Coordination Sequence:
#
# PCOD9529363 Si02
#       5
#     4  16  16  16  16
#     4  12  28  42  66 108 156 190 254 312 388 438
#     4  12  26  48  77 111 155 207 262 317 386 464
#     4  11  25  49  78 112 154 203 257 317 387 459
#     4  11  26  42  73 104 153 196 257 310 386 451
#     4  12  27  46  78 114 158 205 257 321 393 461
#
# _framework density 25.205048000000001
#
# number of rings (size 3 to 8) (size 9 to 14) (size 15 to 20)
#    0.000    0.471    0.000    7.765    9.882    2.824 
#    0.000    2.353    0.000    0.000    0.000    0.000 
#    0.000    0.000    0.000    0.000    0.000    0.000 
#
# Total GULP energy -189997.425754 kJ/mol
# GULP energy per Si atom -5588.159581 kJ/mol
# Density = 2.514768 g / cm^3
# Si number density = 25.205048 Si / 1000 Ang^3
#
#
#
# Elastic Constant Matrix: (Units=GPa)
#
#
# Indices 1 2 3 4 5 6 
#
# 1 110.1348 5.1005 48.6416 0.0000 0.0000 0.0000
# 2 5.1005 101.1148 44.4231 0.0000 0.0000 0.0000
# 3 48.6416 44.4231 143.7277 0.0000 0.0000 0.0000
# 4 0.0000 0.0000 0.0000 108.9075 0.0000 0.0000
# 5 0.0000 0.0000 0.0000 0.0000 47.8431 0.0000
# 6 0.0000 0.0000 0.0000 0.0000 0.0000 49.0227
#
#
#
# Elastic Compliance Matrix: (Units=1/GPa)
#
#
# Indices 1 2 3 4 5 6 
#
# 1 0.010806 0.001228 -0.004037 0.000000 0.000000 0.000000
# 2 0.001228 0.011583 -0.003996 0.000000 0.000000 0.000000
# 3 -0.004037 -0.003996 0.009559 0.000000 0.000000 0.000000
# 4 0.000000 0.000000 0.000000 0.009182 0.000000 0.000000
# 5 0.000000 0.000000 0.000000 0.000000 0.020902 0.000000
# 6 0.000000 0.000000 0.000000 0.000000 0.000000 0.020399
#
#
# Mechanical properties :
#
#
# Convention : Reuss Voigt Hill
#
# Bulk Modulus (GPa) = 54.52714 61.25640 57.89177
# Shear Modulus (GPa) = 48.94687 58.27547 53.61117
#
# Velocity S-wave (km/s) = 4.41153 4.81360 4.61695
# Velocity P-wave (km/s) = 6.90139 7.43306 7.17215
#
# Compressibility (1/GPa) = 0.01833949
#
# Stress axis : x y z
#
# Youngs Moduli (GPa) = 92.54386 86.33125 104.61634
#
# Poissons Ratio (x) = -0.10604 0.42230
# Poissons Ratio (y) = -0.11368 0.41803
# Poissons Ratio (z) = 0.37356 0.34497
#
# Static dielectric constant tensor:
#      x y z
#    x 2.047000 0.000000 0.000000 
#    y 0.000000 2.061020 0.000000 
#    z 0.000000 0.000000 1.905330 
# 
# From -- ./inp_files/27790.got.cif
#   From: 2010.05.17/outbox.cif.g08.bks.cpg/sg72_14_cif.got.tgz:27790.got - 2010.06.03 17:03:01.
