data_PCOD9529727
_publ_section_title
;
Structure prediction by ZEFSAII (Michael W. Deem and Ramdas Pophale) SiO2 
 PCOD9529727
Probable space group: I B C A 
;
_chemical_formula_sum "Si O2"
_cell_formula_units_Z 80
_cell_length_a 18.563386
_cell_length_b 14.743769
_cell_length_c 14.205231
_cell_angle_alpha 90.000000
_cell_angle_beta 90.000000
_cell_angle_gamma 90.000000
_cell_volume 3887.890400
_symmetry_space_group_name_H-M "I B C A "
_symmetry_group_IT_number 73
_symmetry_cell_setting 'orthorhombic'
loop_
_space_group_symop_operation_xyz
x,y,z
-x,1/2-y,z
x,-y,1/2-z
1/2-x,y,-z
-x,-y,-z
x,1/2+y,-z
-x,y,1/2+z
1/2+x,-y,z
1/2+x,1/2+y,1/2+z
1/2-x,-y,1/2+z
1/2+x,1/2-y,-z
-x,1/2+y,1/2-z
1/2-x,1/2-y,1/2-z
1/2+x,y,1/2-z
1/2-x,1/2+y,z
x,1/2-y,1/2+z
loop_
_atom_site_type_symbol
_atom_site_label
_atom_site_fract_x
_atom_site_fract_y
_atom_site_fract_z
Si Si1 0.429114 0.201161 0.830352
Si Si2 0.021422 0.468627 0.154496
Si Si3 0.665851 0.879263 0.014167
Si Si4 0.085709 0.756215 0.622148
Si Si5 0.094307 0.929228 0.033538
O O1 0.500000 0.250000 0.871972
O O2 0.461490 0.101936 0.807796
O O3 0.365897 0.183909 0.903095
O O4 0.407292 0.250603 0.734674
O O5 0.059448 0.500000 0.250000
O O6 0.976163 0.542723 0.095224
O O7 0.071254 0.422875 0.075702
O O8 0.646258 0.983536 0.037634
O O9 0.750000 0.868296 0.000000
O O10 0.621555 0.844479 0.923200
O O11 0.120015 0.665991 0.575201
O O12 0.000000 0.750000 0.602182
#
# Coordination Sequence:
#
# PCOD9529727 Si02
#       5
#    16  16  16  16  16
#     4  10  21  36  64  92 120 151 205 260 319 359
#     4  10  17  31  57  89 114 145 189 254 308 358
#     4  11  25  41  59  87 128 171 208 244 301 381
#     4  11  21  39  66  95 120 155 207 267 318 360
#     4  10  21  36  59  87 123 155 199 250 308 364
#
# _framework density 20.576712000000001
#
# number of rings (size 3 to 8) (size 9 to 14) (size 15 to 20)
#    0.000    1.600    2.000    5.400    2.800    1.600 
#    0.000    0.000    4.400    0.000    0.000    0.000 
#    0.000    0.000    0.000    0.000    0.000    0.000 
#
# Total GULP energy -223336.341122 kJ/mol
# GULP energy per Si atom -5583.408528 kJ/mol
# Density = 2.052988 g / cm^3
# Si number density = 20.576712 Si / 1000 Ang^3
#
#
#
# Elastic Constant Matrix: (Units=GPa)
#
#
# Indices 1 2 3 4 5 6 
#
# 1 117.1276 30.9476 46.0410 0.0000 0.0000 0.0000
# 2 30.9476 83.5101 8.5445 0.0000 0.0000 0.0000
# 3 46.0410 8.5445 133.2351 0.0000 0.0000 0.0000
# 4 0.0000 0.0000 0.0000 28.8635 0.0000 0.0000
# 5 0.0000 0.0000 0.0000 0.0000 6.2913 0.0000
# 6 0.0000 0.0000 0.0000 0.0000 0.0000 17.7391
#
#
#
# Elastic Compliance Matrix: (Units=1/GPa)
#
#
# Indices 1 2 3 4 5 6 
#
# 1 0.010897 -0.003677 -0.003530 0.000000 0.000000 0.000000
# 2 -0.003677 0.013294 0.000418 0.000000 0.000000 0.000000
# 3 -0.003530 0.000418 0.008698 0.000000 0.000000 0.000000
# 4 0.000000 0.000000 0.000000 0.034646 0.000000 0.000000
# 5 0.000000 0.000000 0.000000 0.000000 0.158949 0.000000
# 6 0.000000 0.000000 0.000000 0.000000 0.000000 0.056373
#
#
# Mechanical properties :
#
#
# Convention : Reuss Voigt Hill
#
# Bulk Modulus (GPa) = 51.78036 56.10433 53.94235
# Shear Modulus (GPa) = 16.50862 27.13477 21.82169
#
# Velocity S-wave (km/s) = 2.83556 3.63535 3.26007
# Velocity P-wave (km/s) = 5.99497 6.70419 6.35947
#
# Compressibility (1/GPa) = 0.01931234
#
# Stress axis : x y z
#
# Youngs Moduli (GPa) = 91.77091 75.21925 114.96313
#
# Poissons Ratio (x) = 0.27658 0.40578
# Poissons Ratio (y) = 0.33744 -0.04806
# Poissons Ratio (z) = 0.32392 -0.03145
#
# Static dielectric constant tensor:
#      x y z
#    x 1.696070 0.000000 0.000000 
#    y 0.000000 1.833160 0.000000 
#    z 0.000000 0.000000 1.758150 
# 
# From -- ./inp_files/16841.got.cif
#   From: 2010.05.17/outbox.cif.g08.bks.cpg/sg73_9_cif.got.tgz:16841.got - 2010.06.03 17:35:07.
