data_PCOD9529456
_publ_section_title
;
Structure prediction by ZEFSAII (Michael W. Deem and Ramdas Pophale) SiO2 
 PCOD9529456
Probable space group: I B A M
;
_chemical_formula_sum "Si O2"
_cell_formula_units_Z 48
_cell_length_a 14.508510
_cell_length_b 15.552847
_cell_length_c 9.654558
_cell_angle_alpha 90.000000
_cell_angle_beta 90.000000
_cell_angle_gamma 90.000000
_cell_volume 2178.537846
_symmetry_space_group_name_H-M "I B A M"
_symmetry_group_IT_number 72
_symmetry_cell_setting 'orthorhombic'
loop_
_space_group_symop_operation_xyz
x,y,z
-x,-y,z
x,-y,1/2-z
-x,y,1/2-z
-x,-y,-z
x,y,-z
-x,y,1/2+z
x,-y,1/2+z
1/2+x,1/2+y,1/2+z
1/2-x,1/2-y,1/2+z
1/2+x,1/2-y,-z
1/2-x,1/2+y,-z
1/2-x,1/2-y,1/2-z
1/2+x,1/2+y,1/2-z
1/2-x,1/2+y,z
1/2+x,1/2-y,z
loop_
_atom_site_type_symbol
_atom_site_label
_atom_site_fract_x
_atom_site_fract_y
_atom_site_fract_z
Si Si1 0.657325 0.189902 0.737688
Si Si2 0.279943 0.936147 0.500000
Si Si3 0.567399 0.579950 0.500000
Si Si4 0.918125 0.581791 0.000000
Si Si5 0.500000 0.692605 0.750000
O O1 0.750000 0.250000 0.750000
O O2 0.686506 0.115606 0.633883
O O3 0.578887 0.251534 0.677394
O O4 0.600820 0.144889 0.866989
O O5 0.172034 0.947687 0.500000
O O6 0.326780 0.026645 0.500000
O O7 0.500000 0.500000 0.500000
O O8 0.549652 0.635991 0.635442
O O9 0.000000 0.500000 0.000000
#
# Coordination Sequence:
#
# PCOD9529456 Si02
#       5
#    16   8   8   8   8
#     4  12  25  47  77 109 147 197 252 315 384 462
#     4  12  26  47  73 110 146 189 249 303 379 453
#     4  12  28  44  69 103 142 192 241 303 361 444
#     4  12  28  49  76 111 155 195 250 314 385 461
#     4  12  25  48  73 100 144 186 244 302 377 446
#
# _framework density 22.033128000000001
#
# number of rings (size 3 to 8) (size 9 to 14) (size 15 to 20)
#    0.000    0.000    3.333    6.500    4.667    4.000 
#    0.000    0.000    0.000    0.000    0.000    0.000 
#    0.000    0.000    0.000    0.000    0.000    0.000 
#
# Total GULP energy -133820.174347 kJ/mol
# GULP energy per Si atom -5575.840598 kJ/mol
# Density = 2.198298 g / cm^3
# Si number density = 22.033128 Si / 1000 Ang^3
#
#
#
# Elastic Constant Matrix: (Units=GPa)
#
#
# Indices 1 2 3 4 5 6 
#
# 1 193.5403 45.9615 21.6405 0.0000 0.0000 0.0000
# 2 45.9615 85.4613 13.7453 0.0000 0.0000 0.0000
# 3 21.6405 13.7453 91.1506 0.0000 0.0000 0.0000
# 4 0.0000 0.0000 0.0000 -31.1793 0.0000 0.0000
# 5 0.0000 0.0000 0.0000 0.0000 19.4275 0.0000
# 6 0.0000 0.0000 0.0000 0.0000 0.0000 64.7090
#
#
#
# Elastic Compliance Matrix: (Units=1/GPa)
#
#
# Indices 1 2 3 4 5 6 
#
# 1 0.006005 -0.003075 -0.000962 0.000000 0.000000 0.000000
# 2 -0.003075 0.013566 -0.001316 0.000000 0.000000 0.000000
# 3 -0.000962 -0.001316 0.011398 0.000000 0.000000 0.000000
# 4 0.000000 0.000000 0.000000 -0.032073 0.000000 0.000000
# 5 0.000000 0.000000 0.000000 0.000000 0.051474 0.000000
# 6 0.000000 0.000000 0.000000 0.000000 0.000000 0.015454
#
#
# Mechanical properties :
#
#
# Convention : Reuss Voigt Hill
#
# Bulk Modulus (GPa) = 49.34877 59.20517 54.27697
# Shear Modulus (GPa) = 60.03643 29.84507 44.94075
#
# Velocity S-wave (km/s) = 5.22565 3.68442 4.52119
# Velocity P-wave (km/s) = 7.67177 6.71038 7.20712
#
# Compressibility (1/GPa) = 0.02026393
#
# Stress axis : x y z
#
# Youngs Moduli (GPa) = 166.53942 73.71172 87.73730
#
# Poissons Ratio (x) = 0.22663 0.08440
# Poissons Ratio (y) = 0.51204 0.11545
# Poissons Ratio (z) = 0.16020 0.09699
#
# Static dielectric constant tensor:
#      x y z
#    x 1.798010 0.000000 0.000000 
#    y 0.000000 1.866710 0.000000 
#    z 0.000000 0.000000 1.823440 
# 
# From -- ./inp_files/3041.got.cif
#   From: 2010.05.17/outbox.cif.g08.bks.cpg/sg72_2_cif.got.tgz:3041.got - 2010.06.03 17:03:01.
