data_PCOD9529847
_publ_section_title
;
Structure prediction by ZEFSAII (Michael W. Deem and Ramdas Pophale) SiO2 
 PCOD9529847
Probable space group: I B C A 
;
_chemical_formula_sum "Si O2"
_cell_formula_units_Z 80
_cell_length_a 18.330689
_cell_length_b 8.917119
_cell_length_c 24.962899
_cell_angle_alpha 90.000000
_cell_angle_beta 90.000000
_cell_angle_gamma 90.000000
_cell_volume 4080.358963
_symmetry_space_group_name_H-M "I B C A "
_symmetry_group_IT_number 73
_symmetry_cell_setting 'orthorhombic'
loop_
_space_group_symop_operation_xyz
x,y,z
-x,1/2-y,z
x,-y,1/2-z
1/2-x,y,-z
-x,-y,-z
x,1/2+y,-z
-x,y,1/2+z
1/2+x,-y,z
1/2+x,1/2+y,1/2+z
1/2-x,-y,1/2+z
1/2+x,1/2-y,-z
-x,1/2+y,1/2-z
1/2-x,1/2-y,1/2-z
1/2+x,y,1/2-z
1/2-x,1/2+y,z
x,1/2-y,1/2+z
loop_
_atom_site_type_symbol
_atom_site_label
_atom_site_fract_x
_atom_site_fract_y
_atom_site_fract_z
Si Si1 0.523151 0.000000 0.250000
Si Si2 0.410701 0.017022 0.155671
Si Si3 0.500000 0.750000 0.987033
Si Si4 0.121417 0.834600 0.329482
Si Si5 0.276971 0.625886 0.792036
Si Si6 0.964365 0.009358 0.574427
O O1 0.470679 0.950742 0.298257
O O2 0.575735 0.874550 0.224174
O O3 0.344346 0.131337 0.166905
O O4 0.382593 0.844389 0.162033
O O5 0.454861 0.015949 0.100042
O O6 0.554072 0.652168 0.950144
O O7 0.464080 0.629331 0.026640
O O8 0.202400 0.900013 0.324001
O O9 0.082307 0.920211 0.377994
O O10 0.300562 0.500000 0.750000
O O11 0.250000 0.750000 0.750000
#
# Coordination Sequence:
#
# PCOD9529847 Si02
#       6
#     8  16   8  16  16  16
#     4  10  18  32  56  82 120 150 204 232 284 362
#     4  11  21  39  56  87 123 162 198 246 303 351
#     4  10  20  40  66  94 112 144 202 260 324 358
#     4  11  21  37  56  88 121 164 197 247 300 354
#     4  12  23  37  56  81 127 175 199 232 288 362
#     4  10  21  39  67  91 115 151 197 263 309 361
#
# _framework density 19.606117000000001
#
# number of rings (size 3 to 8) (size 9 to 14) (size 15 to 20)
#    0.000    1.200    6.000    1.800    0.000    1.600 
#   14.400    0.000    0.000    7.200    0.000    0.000 
#    0.000    0.000    0.000    0.000    0.000    0.000 
#
# Total GULP energy -222931.790073 kJ/mol
# GULP energy per Si atom -5573.294752 kJ/mol
# Density = 1.956149 g / cm^3
# Si number density = 19.606117 Si / 1000 Ang^3
#
#
#
# Elastic Constant Matrix: (Units=GPa)
#
#
# Indices 1 2 3 4 5 6 
#
# 1 113.4135 9.1275 29.6048 0.0000 0.0000 0.0000
# 2 9.1275 70.2838 41.2651 0.0000 0.0000 0.0000
# 3 29.6048 41.2651 87.8762 0.0000 0.0000 0.0000
# 4 0.0000 0.0000 0.0000 40.3314 0.0000 0.0000
# 5 0.0000 0.0000 0.0000 0.0000 11.7880 0.0000
# 6 0.0000 0.0000 0.0000 0.0000 0.0000 17.4314
#
#
#
# Elastic Compliance Matrix: (Units=1/GPa)
#
#
# Indices 1 2 3 4 5 6 
#
# 1 0.009709 0.000911 -0.003699 0.000000 0.000000 0.000000
# 2 0.000911 0.019729 -0.009571 0.000000 0.000000 0.000000
# 3 -0.003699 -0.009571 0.017120 0.000000 0.000000 0.000000
# 4 0.000000 0.000000 0.000000 0.024795 0.000000 0.000000
# 5 0.000000 0.000000 0.000000 0.000000 0.084832 0.000000
# 6 0.000000 0.000000 0.000000 0.000000 0.000000 0.057368
#
#
# Mechanical properties :
#
#
# Convention : Reuss Voigt Hill
#
# Bulk Modulus (GPa) = 45.78691 47.95202 46.86947
# Shear Modulus (GPa) = 20.36225 26.68189 23.52207
#
# Velocity S-wave (km/s) = 3.22618 3.69304 3.46747
# Velocity P-wave (km/s) = 6.10587 6.53418 6.32365
#
# Compressibility (1/GPa) = 0.02184030
#
# Stress axis : x y z
#
# Youngs Moduli (GPa) = 102.99208 50.68613 58.41049
#
# Poissons Ratio (x) = -0.04616 0.21604
# Poissons Ratio (y) = -0.09379 0.55906
# Poissons Ratio (z) = 0.38093 0.48513
#
# Static dielectric constant tensor:
#      x y z
#    x 1.720640 0.000000 0.000000 
#    y 0.000000 1.774230 0.000000 
#    z 0.000000 0.000000 1.699150 
# 
# From -- ./inp_files/7740.got.cif
#   From: 2010.05.17/outbox.cif.g08.bks.cpg/sg73_4_cif.got.tgz:7740.got - 2010.06.03 17:35:07.
