data_PCOD9529785
_publ_section_title
;
Structure prediction by ZEFSAII (Michael W. Deem and Ramdas Pophale) SiO2 
 PCOD9529785
Probable space group: I B C A 
;
_chemical_formula_sum "Si O2"
_cell_formula_units_Z 120
_cell_length_a 8.643839
_cell_length_b 28.332532
_cell_length_c 23.146277
_cell_angle_alpha 90.000000
_cell_angle_beta 90.000000
_cell_angle_gamma 90.000000
_cell_volume 5668.565944
_symmetry_space_group_name_H-M "I B C A "
_symmetry_group_IT_number 73
_symmetry_cell_setting 'orthorhombic'
loop_
_space_group_symop_operation_xyz
x,y,z
-x,1/2-y,z
x,-y,1/2-z
1/2-x,y,-z
-x,-y,-z
x,1/2+y,-z
-x,y,1/2+z
1/2+x,-y,z
1/2+x,1/2+y,1/2+z
1/2-x,-y,1/2+z
1/2+x,1/2-y,-z
-x,1/2+y,1/2-z
1/2-x,1/2-y,1/2-z
1/2+x,y,1/2-z
1/2-x,1/2+y,z
x,1/2-y,1/2+z
loop_
_atom_site_type_symbol
_atom_site_label
_atom_site_fract_x
_atom_site_fract_y
_atom_site_fract_z
Si Si1 0.642578 0.881642 0.336409
Si Si2 0.250000 0.981289 0.500000
Si Si3 0.038030 0.061633 0.451401
Si Si4 0.341603 0.807197 0.921851
Si Si5 0.910776 0.359253 0.744474
Si Si6 0.971969 0.648313 0.972132
Si Si7 0.344425 0.722310 0.077680
Si Si8 0.674818 0.709390 0.710495
O O1 0.598164 0.912720 0.392795
O O2 0.621438 0.826746 0.358345
O O3 0.815259 0.882801 0.308485
O O4 0.524083 0.890504 0.283822
O O5 0.356936 0.951656 0.455911
O O6 0.137987 0.015115 0.463013
O O7 0.052957 0.094804 0.508722
O O8 0.179903 0.834508 0.937313
O O9 0.304354 0.753402 0.937598
O O10 0.467181 0.826396 0.965721
O O11 0.782625 0.336648 0.785828
O O12 0.009707 0.313455 0.725332
O O13 0.123571 0.668640 0.940872
O O14 0.500000 0.750000 0.058642
O O15 0.336215 0.726801 0.146023
O O16 0.750000 0.750000 0.750000
#
# Coordination Sequence:
#
# PCOD9529785 Si02
#       8
#    16   8  16  16  16  16  16  16
#     4  10  20  38  60  84 120 159 204 253 302 364
#     4  10  22  40  70 100 118 144 188 242 314 408
#     4  10  21  41  66  94 122 150 189 248 320 392
#     4   9  17  32  50  73 111 161 202 243 296 346
#     4  10  21  34  53  80 109 156 208 250 298 352
#     4   9  18  33  53  77 111 154 196 240 303 372
#     4  10  18  30  48  74 109 154 200 242 284 333
#     4  11  20  32  49  74 112 157 213 266 297 329
#
# _framework density 21.169374999999999
#
# number of rings (size 3 to 8) (size 9 to 14) (size 15 to 20)
#    0.000    2.133    0.000    6.000    0.000    1.067 
#    0.000   22.667    0.000    2.400    0.000    0.000 
#    0.000    0.000    0.000    0.000    0.000    0.000 
#
# Total GULP energy -334271.052034 kJ/mol
# GULP energy per Si atom -5571.184201 kJ/mol
# Density = 2.112119 g / cm^3
# Si number density = 21.169375 Si / 1000 Ang^3
#
#
#
# Elastic Constant Matrix: (Units=GPa)
#
#
# Indices 1 2 3 4 5 6 
#
# 1 95.8537 27.7831 34.9324 0.0000 0.0000 0.0000
# 2 27.7831 53.2817 19.1102 0.0000 0.0000 0.0000
# 3 34.9324 19.1102 102.9616 0.0000 0.0000 0.0000
# 4 0.0000 0.0000 0.0000 25.2352 0.0000 0.0000
# 5 0.0000 0.0000 0.0000 0.0000 35.9897 0.0000
# 6 0.0000 0.0000 0.0000 0.0000 0.0000 32.0316
#
#
#
# Elastic Compliance Matrix: (Units=1/GPa)
#
#
# Indices 1 2 3 4 5 6 
#
# 1 0.013355 -0.005719 -0.003469 0.000000 0.000000 0.000000
# 2 -0.005719 0.022556 -0.002246 0.000000 0.000000 0.000000
# 3 -0.003469 -0.002246 0.011306 0.000000 0.000000 0.000000
# 4 0.000000 0.000000 0.000000 0.039627 0.000000 0.000000
# 5 0.000000 0.000000 0.000000 0.000000 0.027786 0.000000
# 6 0.000000 0.000000 0.000000 0.000000 0.000000 0.031219
#
#
# Mechanical properties :
#
#
# Convention : Reuss Voigt Hill
#
# Bulk Modulus (GPa) = 41.07202 46.19426 43.63314
# Shear Modulus (GPa) = 28.27502 30.00271 29.13886
#
# Velocity S-wave (km/s) = 3.65863 3.76875 3.71410
# Velocity P-wave (km/s) = 6.10665 6.38800 6.24891
#
# Compressibility (1/GPa) = 0.02434747
#
# Stress axis : x y z
#
# Youngs Moduli (GPa) = 74.88017 44.33400 88.44605
#
# Poissons Ratio (x) = 0.25356 0.30685
# Poissons Ratio (y) = 0.42826 0.19866
# Poissons Ratio (z) = 0.25979 0.09958
#
# Static dielectric constant tensor:
#      x y z
#    x 1.903370 0.000000 0.000000 
#    y 0.000000 1.817620 0.000000 
#    z 0.000000 0.000000 1.793900 
# 
# From -- ./inp_files/28532.got.cif
#   From: 2010.05.17/outbox.cif.g08.bks.cpg/sg73_15_cif.got.tgz:28532.got - 2010.06.03 17:35:07.
