data_PCOD9529760
_publ_section_title
;
Structure prediction by ZEFSAII (Michael W. Deem and Ramdas Pophale) SiO2 
 PCOD9529760
Probable space group: I B C A 
;
_chemical_formula_sum "Si O2"
_cell_formula_units_Z 120
_cell_length_a 14.180144
_cell_length_b 24.026720
_cell_length_c 15.853516
_cell_angle_alpha 90.000000
_cell_angle_beta 90.000000
_cell_angle_gamma 90.000000
_cell_volume 5401.330148
_symmetry_space_group_name_H-M "I B C A "
_symmetry_group_IT_number 73
_symmetry_cell_setting 'orthorhombic'
loop_
_space_group_symop_operation_xyz
x,y,z
-x,1/2-y,z
x,-y,1/2-z
1/2-x,y,-z
-x,-y,-z
x,1/2+y,-z
-x,y,1/2+z
1/2+x,-y,z
1/2+x,1/2+y,1/2+z
1/2-x,-y,1/2+z
1/2+x,1/2-y,-z
-x,1/2+y,1/2-z
1/2-x,1/2-y,1/2-z
1/2+x,y,1/2-z
1/2-x,1/2+y,z
x,1/2-y,1/2+z
loop_
_atom_site_type_symbol
_atom_site_label
_atom_site_fract_x
_atom_site_fract_y
_atom_site_fract_z
Si Si1 0.635240 0.116771 0.674718
Si Si2 0.032581 0.443599 0.792776
Si Si3 0.774994 0.096357 0.805426
Si Si4 0.133769 0.654517 0.999462
Si Si5 0.680563 0.500356 0.081627
Si Si6 0.156168 0.829867 0.043410
Si Si7 0.030254 0.571679 0.503377
Si Si8 0.000000 0.750000 0.003788
O O1 0.542016 0.103807 0.727310
O O2 0.715844 0.130434 0.738647
O O3 0.615702 0.158557 0.599915
O O4 0.667729 0.057953 0.630446
O O5 0.998211 0.500000 0.750000
O O6 0.136098 0.431564 0.759881
O O7 0.037726 0.440478 0.895447
O O8 0.720550 0.046648 0.853832
O O9 0.812196 0.139502 0.873207
O O10 0.073374 0.705573 0.959054
O O11 0.072142 0.597902 0.978052
O O12 0.250000 0.651940 0.000000
O O13 0.750000 0.496541 0.000000
O O14 0.579492 0.521618 0.046537
O O15 0.106100 0.878323 0.988351
O O16 0.074237 0.786169 0.055305
O O17 0.250000 0.806759 0.000000
#
# Coordination Sequence:
#
# PCOD9529760 Si02
#       8
#    16  16  16  16  16  16  16   8
#     4  11  25  38  56  87 130 169 206 258 305 373
#     4  10  19  35  50  78 119 167 213 244 292 355
#     4  11  21  38  59  85 124 171 210 250 308 373
#     4  10  22  44  61  95 124 156 203 260 327 367
#     4  12  19  36  60  94 125 169 214 248 302 372
#     4  10  17  37  63  94 117 155 203 265 315 377
#     4   9  19  34  60  87 125 162 203 250 305 368
#     4  10  22  38  76  90 118 154 206 266 332 376
#
# _framework density 22.216750000000001
#
# number of rings (size 3 to 8) (size 9 to 14) (size 15 to 20)
#    0.000    1.600    4.000    3.600    0.000    2.133 
#    7.200    0.667    0.000    1.600    0.000    0.000 
#    0.000    0.000    0.000    0.000    0.000    0.000 
#
# Total GULP energy -334440.474872 kJ/mol
# GULP energy per Si atom -5574.007915 kJ/mol
# Density = 2.216618 g / cm^3
# Si number density = 22.216750 Si / 1000 Ang^3
#
#
#
# Elastic Constant Matrix: (Units=GPa)
#
#
# Indices 1 2 3 4 5 6 
#
# 1 159.7656 25.3429 19.8214 0.0000 0.0000 0.0000
# 2 25.3429 64.4485 11.0072 -0.0002 0.0000 0.0000
# 3 19.8214 11.0072 14.2861 -0.0002 0.0000 0.0000
# 4 0.0000 -0.0002 -0.0002 7.8595 0.0000 0.0000
# 5 0.0000 0.0000 0.0000 0.0000 30.2285 0.0000
# 6 0.0000 0.0000 0.0000 0.0000 0.0000 30.1696
#
#
#
# Elastic Compliance Matrix: (Units=1/GPa)
#
#
# Indices 1 2 3 4 5 6 
#
# 1 0.007666 -0.001379 -0.009573 0.000000 0.000000 0.000000
# 2 -0.001379 0.018116 -0.012044 0.000000 0.000000 0.000000
# 3 -0.009573 -0.012044 0.092560 0.000002 0.000000 0.000000
# 4 0.000000 0.000000 0.000002 0.127234 0.000000 0.000000
# 5 0.000000 0.000000 0.000000 0.000000 0.033081 0.000000
# 6 0.000000 0.000000 0.000000 0.000000 0.000000 0.033146
#
#
# Mechanical properties :
#
#
# Convention : Reuss Voigt Hill
#
# Bulk Modulus (GPa) = 13.82197 38.98257 26.40227
# Shear Modulus (GPa) = 13.09203 25.80676 19.44939
#
# Velocity S-wave (km/s) = 2.43016 3.41191 2.96199
# Velocity P-wave (km/s) = 3.75621 5.75379 4.85876
#
# Compressibility (1/GPa) = 0.07234860
#
# Stress axis : x y z
#
# Youngs Moduli (GPa) = 130.45198 55.20085 10.80380
#
# Poissons Ratio (x) = 0.07614 0.10343
# Poissons Ratio (y) = 0.17994 0.13012
# Poissons Ratio (z) = 1.24882 0.66484
#
# Static dielectric constant tensor:
#      x y z
#    x 1.940360 0.000000 0.000000 
#    y 0.000000 1.900480 0.000000 
#    z 0.000000 0.000000 1.813170 
# 
# From -- ./inp_files/22189.got.cif
#   From: 2010.05.17/outbox.cif.g08.bks.cpg/sg73_12_cif.got.tgz:22189.got - 2010.06.03 17:35:07.
