data_PCOD9529040
_publ_section_title
;
Structure prediction by ZEFSAII (Michael W. Deem and Ramdas Pophale) SiO2 
 PCOD9529040
Probable space group: I B A M
;
_chemical_formula_sum "Si O2"
_cell_formula_units_Z 56
_cell_length_a 10.579810
_cell_length_b 13.605911
_cell_length_c 14.684717
_cell_angle_alpha 90.000000
_cell_angle_beta 90.000000
_cell_angle_gamma 90.000000
_cell_volume 2113.834956
_symmetry_space_group_name_H-M "I B A M"
_symmetry_group_IT_number 72
_symmetry_cell_setting 'orthorhombic'
loop_
_space_group_symop_operation_xyz
x,y,z
-x,-y,z
x,-y,1/2-z
-x,y,1/2-z
-x,-y,-z
x,y,-z
-x,y,1/2+z
x,-y,1/2+z
1/2+x,1/2+y,1/2+z
1/2-x,1/2-y,1/2+z
1/2+x,1/2-y,-z
1/2-x,1/2+y,-z
1/2-x,1/2-y,1/2-z
1/2+x,1/2+y,1/2-z
1/2-x,1/2+y,z
1/2+x,1/2-y,z
loop_
_atom_site_type_symbol
_atom_site_label
_atom_site_fract_x
_atom_site_fract_y
_atom_site_fract_z
Si Si1 0.167092 0.745043 0.158070
Si Si2 0.169361 0.954988 0.848750
Si Si3 0.448262 0.109426 0.603312
Si Si4 0.687601 0.374625 0.000000
O O1 0.250000 0.750000 0.250000
O O2 0.101289 0.850646 0.136065
O O3 0.049355 0.670653 0.158954
O O4 0.256804 0.700475 0.079743
O O5 0.311426 0.911135 0.856914
O O6 0.146851 0.000000 0.750000
O O7 0.156021 0.040495 0.921602
O O8 0.443675 0.150883 0.500000
O O9 0.500000 0.000000 0.594550
#
# Coordination Sequence:
#
# PCOD9529040 Si02
#       4
#    16  16  16   8
#     4  12  24  41  67 105 143 191 244 299 366 432
#     4  12  24  43  75 109 148 192 247 304 369 438
#     4  11  20  40  66 100 138 183 239 300 351 422
#     4  12  22  45  66 105 154 188 244 309 365 432
#
# _framework density 26.492134
#
# number of rings (size 3 to 8) (size 9 to 14) (size 15 to 20)
#    0.000    0.286    8.571    0.857    0.000    4.000 
#    0.000    0.000    0.000    3.429    0.000    0.000 
#    0.000    0.000    0.000    0.000    0.000    0.000 
#
# Total GULP energy -155887.499200 kJ/mol
# GULP energy per Si atom -5567.410686 kJ/mol
# Density = 2.643184 g / cm^3
# Si number density = 26.492134 Si / 1000 Ang^3
#
#
#
# Elastic Constant Matrix: (Units=GPa)
#
#
# Indices 1 2 3 4 5 6 
#
# 1 111.1334 25.2604 32.2190 0.0000 0.0000 0.0000
# 2 25.2604 199.2910 101.9431 0.0000 0.0000 0.0000
# 3 32.2190 101.9431 249.6479 0.0000 0.0000 0.0000
# 4 0.0000 0.0000 0.0000 57.6466 0.0000 0.0000
# 5 0.0000 0.0000 0.0000 0.0000 -78.4400 0.0000
# 6 0.0000 0.0000 0.0000 0.0000 0.0000 46.4780
#
#
#
# Elastic Compliance Matrix: (Units=1/GPa)
#
#
# Indices 1 2 3 4 5 6 
#
# 1 0.009430 -0.000724 -0.000921 0.000000 0.000000 0.000000
# 2 -0.000724 0.006398 -0.002519 0.000000 0.000000 0.000000
# 3 -0.000921 -0.002519 0.005153 0.000000 0.000000 0.000000
# 4 0.000000 0.000000 0.000000 0.017347 0.000000 0.000000
# 5 0.000000 0.000000 0.000000 0.000000 -0.012749 0.000000
# 6 0.000000 0.000000 0.000000 0.000000 0.000000 0.021516
#
#
# Mechanical properties :
#
#
# Convention : Reuss Voigt Hill
#
# Bulk Modulus (GPa) = 79.03758 97.65748 88.34753
# Shear Modulus (GPa) = 83.83355 31.84690 57.84023
#
# Velocity S-wave (km/s) = 5.63146 3.47093 4.67765
# Velocity P-wave (km/s) = 8.49610 7.28052 7.91169
#
# Compressibility (1/GPa) = 0.01265221
#
# Stress axis : x y z
#
# Youngs Moduli (GPa) = 106.04606 156.29327 194.05080
#
# Poissons Ratio (x) = 0.11315 0.17879
# Poissons Ratio (y) = 0.07677 0.48887
# Poissons Ratio (z) = 0.09771 0.39374
#
# Static dielectric constant tensor:
#      x y z
#    x 2.302900 0.000000 0.000000 
#    y 0.000000 2.306550 0.000000 
#    z 0.000000 0.000000 2.040640 
# 
# From -- ./inp_files/19416.got.cif
#   From: 2010.05.17/outbox.cif.g08.bks.cpg/sg72_10_cif.got.tgz:19416.got - 2010.06.03 17:03:01.
