data_PCOD9529728
_publ_section_title
;
Structure prediction by ZEFSAII (Michael W. Deem and Ramdas Pophale) SiO2 
 PCOD9529728
Probable space group: I B C A 
;
_chemical_formula_sum "Si O2"
_cell_formula_units_Z 64
_cell_length_a 5.328259
_cell_length_b 25.917966
_cell_length_c 22.978843
_cell_angle_alpha 90.000000
_cell_angle_beta 90.000000
_cell_angle_gamma 90.000000
_cell_volume 3173.323887
_symmetry_space_group_name_H-M "I B C A "
_symmetry_group_IT_number 73
_symmetry_cell_setting 'orthorhombic'
loop_
_space_group_symop_operation_xyz
x,y,z
-x,1/2-y,z
x,-y,1/2-z
1/2-x,y,-z
-x,-y,-z
x,1/2+y,-z
-x,y,1/2+z
1/2+x,-y,z
1/2+x,1/2+y,1/2+z
1/2-x,-y,1/2+z
1/2+x,1/2-y,-z
-x,1/2+y,1/2-z
1/2-x,1/2-y,1/2-z
1/2+x,y,1/2-z
1/2-x,1/2+y,z
x,1/2-y,1/2+z
loop_
_atom_site_type_symbol
_atom_site_label
_atom_site_fract_x
_atom_site_fract_y
_atom_site_fract_z
Si Si1 0.569151 0.861455 0.665070
Si Si2 0.923446 0.194262 0.322719
Si Si3 0.644348 0.304762 0.937558
Si Si4 0.071520 0.020819 0.183650
O O1 0.350607 0.826829 0.695453
O O2 0.527692 0.846340 0.596979
O O3 0.509216 0.920031 0.680301
O O4 0.847858 0.845263 0.682266
O O5 0.871169 0.201030 0.391891
O O6 0.000000 0.250000 0.299085
O O7 0.500000 0.250000 0.941477
O O8 0.750000 0.319738 0.000000
O O9 0.101410 0.000000 0.250000
O O10 0.844499 0.988083 0.156470
#
# Coordination Sequence:
#
# PCOD9529728 Si02
#       4
#    16  16  16  16
#     4  10  20  32  53  82 115 149 190 235 290 331
#     4  10  17  32  48  81 115 153 184 220 270 346
#     4  10  20  29  52  83 123 160 191 220 261 339
#     4  10  21  39  62  86 104 135 195 261 301 341
#
# _framework density 20.168129
#
# number of rings (size 3 to 8) (size 9 to 14) (size 15 to 20)
#    1.500    0.500    2.500    3.000    0.000    0.000 
#    0.000    0.000    0.000    1.500    0.000  119.000 
#    0.000    0.000    0.000    0.000    0.000    0.000 
#
# Total GULP energy -178293.714107 kJ/mol
# GULP energy per Si atom -5571.678566 kJ/mol
# Density = 2.012223 g / cm^3
# Si number density = 20.168129 Si / 1000 Ang^3
#
#
#
# Elastic Constant Matrix: (Units=GPa)
#
#
# Indices 1 2 3 4 5 6 
#
# 1 93.3444 -25.2718 -10.1680 0.0000 0.0000 0.0000
# 2 -25.2718 59.7492 3.4495 0.0000 0.0000 0.0000
# 3 -10.1680 3.4495 109.1931 0.0000 0.0000 0.0000
# 4 0.0000 0.0000 0.0000 18.6880 0.0000 0.0000
# 5 0.0000 0.0000 0.0000 0.0000 -143.3593 0.0000
# 6 0.0000 0.0000 0.0000 0.0000 0.0000 38.6617
#
#
#
# Elastic Compliance Matrix: (Units=1/GPa)
#
#
# Indices 1 2 3 4 5 6 
#
# 1 0.012201 0.005104 0.000975 0.000000 0.000000 0.000000
# 2 0.005104 0.018903 -0.000122 0.000000 0.000000 0.000000
# 3 0.000975 -0.000122 0.009253 0.000000 0.000000 0.000000
# 4 0.000000 0.000000 0.000000 0.053510 0.000000 0.000000
# 5 0.000000 0.000000 0.000000 0.000000 -0.006975 0.000000
# 6 0.000000 0.000000 0.000000 0.000000 0.000000 0.025865
#
#
# Mechanical properties :
#
#
# Convention : Reuss Voigt Hill
#
# Bulk Modulus (GPa) = 19.13091 22.03399 20.58245
# Shear Modulus (GPa) = 42.27771 2.41653 22.34712
#
# Velocity S-wave (km/s) = 4.58346 1.09581 3.33234
# Velocity P-wave (km/s) = 6.12513 3.54259 5.00335
#
# Compressibility (1/GPa) = 0.05227143
#
# Stress axis : x y z
#
# Youngs Moduli (GPa) = 81.95942 52.90271 108.07628
#
# Poissons Ratio (x) = -0.27003 -0.10537
# Poissons Ratio (y) = -0.41835 0.01317
# Poissons Ratio (z) = -0.07990 0.00644
#
# Static dielectric constant tensor:
#      x y z
#    x 1.784070 0.000000 0.000000 
#    y 0.000000 1.697690 0.000000 
#    z 0.000000 0.000000 1.651320 
# 
# From -- ./inp_files/28007.got.cif
#   From: 2010.05.17/outbox.cif.g08.bks.cpg/sg73_15_cif.got.tgz:28007.got - 2010.06.03 17:35:07.
