data_PCOD9529849
_publ_section_title
;
Structure prediction by ZEFSAII (Michael W. Deem and Ramdas Pophale) SiO2 
 PCOD9529849
Probable space group: I B C A 
;
_chemical_formula_sum "Si O2"
_cell_formula_units_Z 64
_cell_length_a 21.051184
_cell_length_b 5.179273
_cell_length_c 24.424871
_cell_angle_alpha 90.000000
_cell_angle_beta 90.000000
_cell_angle_gamma 90.000000
_cell_volume 2663.039506
_symmetry_space_group_name_H-M "I B C A "
_symmetry_group_IT_number 73
_symmetry_cell_setting 'orthorhombic'
loop_
_space_group_symop_operation_xyz
x,y,z
-x,1/2-y,z
x,-y,1/2-z
1/2-x,y,-z
-x,-y,-z
x,1/2+y,-z
-x,y,1/2+z
1/2+x,-y,z
1/2+x,1/2+y,1/2+z
1/2-x,-y,1/2+z
1/2+x,1/2-y,-z
-x,1/2+y,1/2-z
1/2-x,1/2-y,1/2-z
1/2+x,y,1/2-z
1/2-x,1/2+y,z
x,1/2-y,1/2+z
loop_
_atom_site_type_symbol
_atom_site_label
_atom_site_fract_x
_atom_site_fract_y
_atom_site_fract_z
Si Si1 0.039788 0.000000 0.750000
Si Si2 0.360647 0.097516 0.632057
Si Si3 0.932109 0.109304 0.132795
Si Si4 0.203992 0.000000 0.250000
Si Si5 0.680184 0.725992 0.475815
O O1 0.076701 0.107162 0.698769
O O2 0.000000 0.250000 0.769628
O O3 0.417493 0.308566 0.621892
O O4 0.336986 0.060189 0.694449
O O5 0.311633 0.212436 0.588256
O O6 0.381064 0.814617 0.612489
O O7 0.000000 0.250000 0.122941
O O8 0.250000 0.250000 0.250000
O O9 0.750000 0.688850 0.500000
O O10 0.646686 0.462627 0.493405
#
# Coordination Sequence:
#
# PCOD9529849 Si02
#       5
#     8  16  16   8  16
#     4  10  18  32  56  88 130 176 220 254 302 388
#     4  12  24  42  68  99 140 178 224 278 347 413
#     4  11  22  39  65  98 136 179 227 275 331 406
#     4  12  28  42  66 100 152 182 216 282 366 418
#     4  10  23  41  69  93 123 169 237 285 330 395
#
# _framework density 24.032689999999999
#
# number of rings (size 3 to 8) (size 9 to 14) (size 15 to 20)
#    0.000    1.000    0.000    8.250    7.000    1.000 
#    0.000    0.000    0.000   15.000    0.000    0.000 
#    0.000    0.000    0.000    0.000    0.000    0.000 
#
# Total GULP energy -178258.056991 kJ/mol
# GULP energy per Si atom -5570.564281 kJ/mol
# Density = 2.397799 g / cm^3
# Si number density = 24.032690 Si / 1000 Ang^3
#
#
#
# Elastic Constant Matrix: (Units=GPa)
#
#
# Indices 1 2 3 4 5 6 
#
# 1 41.6942 29.9491 19.9756 0.0000 0.0000 0.0000
# 2 29.9491 221.6099 30.9769 0.0000 0.0000 0.0000
# 3 19.9756 30.9769 115.3493 0.0000 0.0000 0.0000
# 4 0.0000 0.0000 0.0000 35.7687 0.0000 0.0000
# 5 0.0000 0.0000 0.0000 0.0000 -69.5833 0.0000
# 6 0.0000 0.0000 0.0000 0.0000 0.0000 45.7264
#
#
#
# Elastic Compliance Matrix: (Units=1/GPa)
#
#
# Indices 1 2 3 4 5 6 
#
# 1 0.028248 -0.003256 -0.004017 0.000000 0.000000 0.000000
# 2 -0.003256 0.005064 -0.000796 0.000000 0.000000 0.000000
# 3 -0.004017 -0.000796 0.009579 0.000000 0.000000 0.000000
# 4 0.000000 0.000000 0.000000 0.027957 0.000000 0.000000
# 5 0.000000 0.000000 0.000000 0.000000 -0.014371 0.000000
# 6 0.000000 0.000000 0.000000 0.000000 0.000000 0.021869
#
#
# Mechanical properties :
#
#
# Convention : Reuss Voigt Hill
#
# Bulk Modulus (GPa) = 37.38110 60.05074 48.71592
# Shear Modulus (GPa) = 48.35529 22.23248 35.29389
#
# Velocity S-wave (km/s) = 4.49047 3.04483 3.83636
# Velocity P-wave (km/s) = 6.51719 6.11578 6.31967
#
# Compressibility (1/GPa) = 0.02675149
#
# Stress axis : x y z
#
# Youngs Moduli (GPa) = 35.40118 197.48335 104.39722
#
# Poissons Ratio (x) = 0.64299 0.41940
# Poissons Ratio (y) = 0.11526 0.08310
# Poissons Ratio (z) = 0.14222 0.15720
#
# Static dielectric constant tensor:
#      x y z
#    x 1.926540 0.000000 0.000000 
#    y 0.000000 1.973470 0.000000 
#    z 0.000000 0.000000 1.903550 
# 
# From -- ./inp_files/1553.got.cif
#   From: 2010.05.17/outbox.cif.g08.bks.cpg/sg73_1_cif.got.tgz:1553.got - 2010.06.03 17:35:07.
