data_PCOD9529067
_publ_section_title
;
Structure prediction by ZEFSAII (Michael W. Deem and Ramdas Pophale) SiO2 
 PCOD9529067
Probable space group: I B A M
;
_chemical_formula_sum "Si O2"
_cell_formula_units_Z 80
_cell_length_a 8.884257
_cell_length_b 18.001987
_cell_length_c 23.924663
_cell_angle_alpha 90.000000
_cell_angle_beta 90.000000
_cell_angle_gamma 90.000000
_cell_volume 3826.373728
_symmetry_space_group_name_H-M "I B A M"
_symmetry_group_IT_number 72
_symmetry_cell_setting 'orthorhombic'
loop_
_space_group_symop_operation_xyz
x,y,z
-x,-y,z
x,-y,1/2-z
-x,y,1/2-z
-x,-y,-z
x,y,-z
-x,y,1/2+z
x,-y,1/2+z
1/2+x,1/2+y,1/2+z
1/2-x,1/2-y,1/2+z
1/2+x,1/2-y,-z
1/2-x,1/2+y,-z
1/2-x,1/2-y,1/2-z
1/2+x,1/2+y,1/2-z
1/2-x,1/2+y,z
1/2+x,1/2-y,z
loop_
_atom_site_type_symbol
_atom_site_label
_atom_site_fract_x
_atom_site_fract_y
_atom_site_fract_z
Si Si1 0.869304 0.561381 0.065204
Si Si2 0.098538 0.935577 0.145471
Si Si3 0.060851 0.702354 0.097684
Si Si4 0.364624 0.291548 0.209522
Si Si5 0.893835 0.154476 0.561389
O O1 0.727978 0.537487 0.102816
O O2 0.000000 0.500000 0.066309
O O3 0.942426 0.635904 0.090912
O O4 0.827059 0.574163 0.000000
O O5 0.175389 0.871103 0.182566
O O6 0.972516 0.895197 0.107746
O O7 0.000000 0.000000 0.174591
O O8 0.086102 0.735766 0.159733
O O9 0.222672 0.675337 0.075985
O O10 0.992336 0.770369 0.062810
O O11 0.500000 0.310112 0.250000
O O12 0.250000 0.250000 0.250000
O O13 0.898514 0.119844 0.500000
#
# Coordination Sequence:
#
# PCOD9529067 Si02
#       5
#    16  16  16  16  16
#     4  11  23  39  61  89 126 166 200 245 310 383
#     4  11  24  41  61  91 126 160 205 258 315 381
#     4  11  22  38  59  90 121 156 211 259 302 369
#     4  11  23  42  66  88 115 159 211 265 320 368
#     4  11  21  35  60  90 126 166 201 247 306 375
#
# _framework density 20.907523999999999
#
# number of rings (size 3 to 8) (size 9 to 14) (size 15 to 20)
#    0.000    1.000    0.000    9.600    0.000    3.600 
#    0.000    0.000    0.000    4.200    0.000    0.000 
#    0.000    0.000    0.000    0.000    0.000    0.000 
#
# Total GULP energy -223492.455060 kJ/mol
# GULP energy per Si atom -5587.311376 kJ/mol
# Density = 2.085994 g / cm^3
# Si number density = 20.907524 Si / 1000 Ang^3
#
#
#
# Elastic Constant Matrix: (Units=GPa)
#
#
# Indices 1 2 3 4 5 6 
#
# 1 99.8321 10.0379 15.3860 0.0000 0.0000 0.0000
# 2 10.0379 84.9824 28.2452 0.0000 0.0000 0.0000
# 3 15.3860 28.2452 107.2865 0.0000 0.0000 0.0000
# 4 0.0000 0.0000 0.0000 174.4769 0.0000 0.0000
# 5 0.0000 0.0000 0.0000 0.0000 25.4098 0.0000
# 6 0.0000 0.0000 0.0000 0.0000 0.0000 29.4160
#
#
#
# Elastic Compliance Matrix: (Units=1/GPa)
#
#
# Indices 1 2 3 4 5 6 
#
# 1 0.010292 -0.000795 -0.001267 0.000000 0.000000 0.000000
# 2 -0.000795 0.012957 -0.003297 0.000000 0.000000 0.000000
# 3 -0.001267 -0.003297 0.010371 0.000000 0.000000 0.000000
# 4 0.000000 0.000000 0.000000 0.005731 0.000000 0.000000
# 5 0.000000 0.000000 0.000000 0.000000 0.039355 0.000000
# 6 0.000000 0.000000 0.000000 0.000000 0.000000 0.033995
#
#
# Mechanical properties :
#
#
# Convention : Reuss Voigt Hill
#
# Bulk Modulus (GPa) = 43.66390 44.38212 44.02301
# Shear Modulus (GPa) = 38.15280 61.75601 49.95441
#
# Velocity S-wave (km/s) = 4.27644 5.44076 4.89335
# Velocity P-wave (km/s) = 6.73154 7.79378 7.28205
#
# Compressibility (1/GPa) = 0.02290221
#
# Stress axis : x y z
#
# Youngs Moduli (GPa) = 97.16335 77.17916 96.42696
#
# Poissons Ratio (x) = 0.06133 0.12215
# Poissons Ratio (y) = 0.07721 0.31794
# Poissons Ratio (z) = 0.12308 0.25447
#
# Static dielectric constant tensor:
#      x y z
#    x 1.720950 0.000000 0.000000 
#    y 0.000000 2.072990 0.000000 
#    z 0.000000 0.000000 1.737350 
# 
# From -- ./inp_files/47200.got.cif
#   From: 2010.05.17/outbox.cif.g08.bks.cpg/sg72_24_cif.got.tgz:47200.got - 2010.06.03 17:03:01.
