data_PCOD9529019
_publ_section_title
;
Structure prediction by ZEFSAII (Michael W. Deem and Ramdas Pophale) SiO2 
 PCOD9529019
Probable space group: I B A M
;
_chemical_formula_sum "Si O2"
_cell_formula_units_Z 80
_cell_length_a 7.091753
_cell_length_b 27.910019
_cell_length_c 15.715670
_cell_angle_alpha 90.000000
_cell_angle_beta 90.000000
_cell_angle_gamma 90.000000
_cell_volume 3110.617665
_symmetry_space_group_name_H-M "I B A M"
_symmetry_group_IT_number 72
_symmetry_cell_setting 'orthorhombic'
loop_
_space_group_symop_operation_xyz
x,y,z
-x,-y,z
x,-y,1/2-z
-x,y,1/2-z
-x,-y,-z
x,y,-z
-x,y,1/2+z
x,-y,1/2+z
1/2+x,1/2+y,1/2+z
1/2-x,1/2-y,1/2+z
1/2+x,1/2-y,-z
1/2-x,1/2+y,-z
1/2-x,1/2-y,1/2-z
1/2+x,1/2+y,1/2-z
1/2-x,1/2+y,z
1/2+x,1/2-y,z
loop_
_atom_site_type_symbol
_atom_site_label
_atom_site_fract_x
_atom_site_fract_y
_atom_site_fract_z
Si Si1 0.161780 0.803748 0.407157
Si Si2 0.273097 0.994948 0.851730
Si Si3 0.796641 0.608375 0.852870
Si Si4 0.249863 0.097341 0.152003
Si Si5 0.066615 0.704204 0.345240
O O1 0.085177 0.792743 0.500000
O O2 0.128803 0.858833 0.383271
O O3 0.114515 0.760175 0.344939
O O4 0.388986 0.801132 0.406293
O O5 0.224288 0.942707 0.888815
O O6 0.500000 0.000000 0.858256
O O7 0.231870 0.000000 0.750000
O O8 0.195167 0.045486 0.884326
O O9 0.739089 0.601979 0.754123
O O10 0.775237 0.665284 0.872604
O O11 0.025083 0.603568 0.864028
O O12 0.000000 0.690810 0.250000
#
# Coordination Sequence:
#
# PCOD9529019 Si02
#       5
#    16  16  16  16  16
#     4  11  22  34  49  72 107 140 170 212 263 309
#     4   7  10  17  37  65  94 119 149 194 250 296
#     4   8  12  23  43  70  93 121 160 207 248 290
#     4   8  13  24  41  66  97 128 158 195 251 298
#     4  11  20  34  53  74 100 136 178 217 251 303
#
# _framework density 25.718363
#
# number of rings (size 3 to 8) (size 9 to 14) (size 15 to 20)
#    0.000    3.000    4.000    3.600    0.000    0.000 
#    0.000    0.000    0.000   16.200    0.000    1.400 
#    0.000    3.200    0.000    0.000    0.000    0.000 
#
# Total GULP energy -222836.168986 kJ/mol
# GULP energy per Si atom -5570.904225 kJ/mol
# Density = 2.565983 g / cm^3
# Si number density = 25.718363 Si / 1000 Ang^3
#
#
#
# Elastic Constant Matrix: (Units=GPa)
#
#
# Indices 1 2 3 4 5 6 
#
# 1 68.9245 6.3205 2.8540 0.0000 0.0000 0.0000
# 2 6.3205 298.6562 18.3807 0.0000 0.0000 0.0000
# 3 2.8540 18.3807 48.0462 -0.0001 0.0000 -0.0001
# 4 0.0000 0.0000 -0.0001 -17.5333 0.0000 0.0000
# 5 0.0000 0.0000 0.0000 0.0000 12.9461 0.0000
# 6 0.0000 0.0000 -0.0001 0.0000 0.0000 12.2414
#
#
#
# Elastic Compliance Matrix: (Units=1/GPa)
#
#
# Indices 1 2 3 4 5 6 
#
# 1 0.014564 -0.000261 -0.000765 0.000000 0.000000 0.000000
# 2 -0.000261 0.003434 -0.001298 0.000000 0.000000 0.000000
# 3 -0.000765 -0.001298 0.021355 0.000000 0.000000 0.000000
# 4 0.000000 0.000000 0.000000 -0.057034 0.000000 0.000000
# 5 0.000000 0.000000 0.000000 0.000000 0.077243 0.000000
# 6 0.000000 0.000000 0.000000 0.000000 0.000000 0.081690
#
#
# Mechanical properties :
#
#
# Convention : Reuss Voigt Hill
#
# Bulk Modulus (GPa) = 28.81477 52.30415 40.55946
# Shear Modulus (GPa) = 31.75221 27.40230 29.57725
#
# Velocity S-wave (km/s) = 3.51752 3.26770 3.39491
# Velocity P-wave (km/s) = 5.26550 5.88376 5.58320
#
# Compressibility (1/GPa) = 0.03470442
#
# Stress axis : x y z
#
# Youngs Moduli (GPa) = 68.66126 291.22686 46.82669
#
# Poissons Ratio (x) = 0.07605 0.03583
# Poissons Ratio (y) = 0.01793 0.06079
# Poissons Ratio (z) = 0.05254 0.37804
#
# Static dielectric constant tensor:
#      x y z
#    x 2.097380 0.000000 0.000000 
#    y 0.000000 2.187200 0.000000 
#    z 0.000000 0.000000 2.119530 
# 
# From -- ./inp_files/20450.got.cif
#   From: 2010.05.17/outbox.cif.g08.bks.cpg/sg72_11_cif.got.tgz:20450.got - 2010.06.03 17:03:01.
