data_PCOD9529888
_publ_section_title
;
Structure prediction by ZEFSAII (Michael W. Deem and Ramdas Pophale) SiO2 
 PCOD9529888
Probable space group: I B C A 
;
_chemical_formula_sum "Si O2"
_cell_formula_units_Z 88
_cell_length_a 24.928269
_cell_length_b 9.052710
_cell_length_c 13.676394
_cell_angle_alpha 90.000000
_cell_angle_beta 90.000000
_cell_angle_gamma 90.000000
_cell_volume 3086.329816
_symmetry_space_group_name_H-M "I B C A "
_symmetry_group_IT_number 73
_symmetry_cell_setting 'orthorhombic'
loop_
_space_group_symop_operation_xyz
x,y,z
-x,1/2-y,z
x,-y,1/2-z
1/2-x,y,-z
-x,-y,-z
x,1/2+y,-z
-x,y,1/2+z
1/2+x,-y,z
1/2+x,1/2+y,1/2+z
1/2-x,-y,1/2+z
1/2+x,1/2-y,-z
-x,1/2+y,1/2-z
1/2-x,1/2-y,1/2-z
1/2+x,y,1/2-z
1/2-x,1/2+y,z
x,1/2-y,1/2+z
loop_
_atom_site_type_symbol
_atom_site_label
_atom_site_fract_x
_atom_site_fract_y
_atom_site_fract_z
Si Si1 0.192193 0.009044 0.935719
Si Si2 0.000000 0.750000 0.550771
Si Si3 0.124757 0.000000 0.750000
Si Si4 0.874684 0.000000 0.750000
Si Si5 0.438218 0.766633 0.181161
Si Si6 0.423962 0.475659 0.012798
Si Si7 0.281888 0.686764 0.345444
O O1 0.203671 0.181915 0.919646
O O2 0.162881 0.955263 0.836795
O O3 0.141187 0.994688 0.009500
O O4 0.249672 0.932906 0.909754
O O5 0.954953 0.866603 0.589113
O O6 0.959234 0.624787 0.502084
O O7 0.087577 0.861321 0.731000
O O8 0.909015 0.891471 0.819858
O O9 0.834265 0.888494 0.697201
O O10 0.500000 0.750000 0.200730
O O11 0.433048 0.876123 0.087638
O O12 0.250000 0.750000 0.250000
#
# Coordination Sequence:
#
# PCOD9529888 Si02
#       7
#    16   8   8   8  16  16  16
#     4  11  21  35  59  91 129 163 216 251 309 390
#     4  10  22  50  74  86 120 164 226 300 344 376
#     4  10  18  34  50  78 138 164 198 254 288 388
#     4  12  22  34  60  90 142 186 208 240 310 400
#     4  11  22  37  53  95 135 171 209 254 315 391
#     4  10  23  43  69  96 116 164 224 282 338 390
#     4  12  19  35  57  89 133 182 207 244 301 386
#
# _framework density 28.512830000000001
#
# number of rings (size 3 to 8) (size 9 to 14) (size 15 to 20)
#    0.000    1.091    6.364    1.636    0.000    1.455 
#    6.545    0.000    0.000    3.273    0.000    0.000 
#    0.000    0.000    0.000    0.000    0.000    0.000 
#
# Total GULP energy -245774.868253 kJ/mol
# GULP energy per Si atom -5585.792460 kJ/mol
# Density = 2.844793 g / cm^3
# Si number density = 28.512830 Si / 1000 Ang^3
#
#
#
# Elastic Constant Matrix: (Units=GPa)
#
#
# Indices 1 2 3 4 5 6 
#
# 1 216.2580 83.1967 -21.9803 0.0000 0.0000 0.0000
# 2 83.1967 223.7736 -18.3268 0.0000 0.0000 0.0000
# 3 -21.9803 -18.3268 26.5984 0.0000 0.0000 0.0000
# 4 0.0000 0.0000 0.0000 25.5402 0.0000 0.0000
# 5 0.0000 0.0000 0.0000 0.0000 -142.5493 0.0000
# 6 0.0000 0.0000 0.0000 0.0000 0.0000 87.1804
#
#
#
# Elastic Compliance Matrix: (Units=1/GPa)
#
#
# Indices 1 2 3 4 5 6 
#
# 1 0.005677 -0.001830 0.003430 0.000000 0.000000 0.000000
# 2 -0.001830 0.005326 0.002158 0.000000 0.000000 0.000000
# 3 0.003430 0.002158 0.041918 0.000000 0.000000 0.000000
# 4 0.000000 0.000000 0.000000 0.039154 0.000000 0.000000
# 5 0.000000 0.000000 0.000000 0.000000 -0.007015 0.000000
# 6 0.000000 0.000000 0.000000 0.000000 0.000000 0.011470
#
#
# Mechanical properties :
#
#
# Convention : Reuss Voigt Hill
#
# Bulk Modulus (GPa) = 16.54614 61.37879 38.96247
# Shear Modulus (GPa) = 45.80509 22.28360 34.04435
#
# Velocity S-wave (km/s) = 4.01243 2.79862 3.45918
# Velocity P-wave (km/s) = 5.22320 5.65831 5.44510
#
# Compressibility (1/GPa) = 0.06043704
#
# Stress axis : x y z
#
# Youngs Moduli (GPa) = 176.16106 187.76806 23.85625
#
# Poissons Ratio (x) = 0.34353 -0.08184
# Poissons Ratio (y) = 0.32230 -0.05147
# Poissons Ratio (z) = -0.60431 -0.40513
#
# Static dielectric constant tensor:
#      x y z
#    x 2.382540 0.000000 0.000000 
#    y 0.000000 2.112870 0.000000 
#    z 0.000000 0.000000 2.839220 
# 
# From -- ./inp_files/6342.got.cif
#   From: 2010.05.17/outbox.cif.g08.bks.cpg/sg73_4_cif.got.tgz:6342.got - 2010.06.03 17:35:07.
