data_PCOD9529390
_publ_section_title
;
Structure prediction by ZEFSAII (Michael W. Deem and Ramdas Pophale) SiO2 
 PCOD9529390
Probable space group: I B A M
;
_chemical_formula_sum "Si O2"
_cell_formula_units_Z 56
_cell_length_a 12.600896
_cell_length_b 12.379440
_cell_length_c 14.759120
_cell_angle_alpha 90.000000
_cell_angle_beta 90.000000
_cell_angle_gamma 90.000000
_cell_volume 2302.305178
_symmetry_space_group_name_H-M "I B A M"
_symmetry_group_IT_number 72
_symmetry_cell_setting 'orthorhombic'
loop_
_space_group_symop_operation_xyz
x,y,z
-x,-y,z
x,-y,1/2-z
-x,y,1/2-z
-x,-y,-z
x,y,-z
-x,y,1/2+z
x,-y,1/2+z
1/2+x,1/2+y,1/2+z
1/2-x,1/2-y,1/2+z
1/2+x,1/2-y,-z
1/2-x,1/2+y,-z
1/2-x,1/2-y,1/2-z
1/2+x,1/2+y,1/2-z
1/2-x,1/2+y,z
1/2+x,1/2-y,z
loop_
_atom_site_type_symbol
_atom_site_label
_atom_site_fract_x
_atom_site_fract_y
_atom_site_fract_z
Si Si1 0.884316 0.963895 0.108571
Si Si2 0.158773 0.521044 0.646602
Si Si3 0.042168 0.260244 0.148508
Si Si4 0.402727 0.165809 0.000000
O O1 0.877108 0.838845 0.137504
O O2 0.785678 0.030863 0.144927
O O3 0.880554 0.968623 0.000000
O O4 0.000000 0.000000 0.140585
O O5 0.125865 0.500000 0.750000
O O6 0.100850 0.630284 0.617156
O O7 0.129252 0.423720 0.579512
O O8 0.000000 0.267135 0.250000
O O9 0.945230 0.249880 0.078963
#
# Coordination Sequence:
#
# PCOD9529390 Si02
#       4
#    16  16  16   8
#     4  11  28  50  69 106 154 200 245 310 379 445
#     4  12  26  46  76 110 144 194 252 307 368 446
#     4  12  26  47  79 111 146 201 249 309 382 443
#     4  12  25  48  74 110 156 186 247 318 368 444
#
# _framework density 24.323447000000002
#
# number of rings (size 3 to 8) (size 9 to 14) (size 15 to 20)
#    0.000    0.286    5.714    2.571    4.000    3.429 
#    0.000    0.000    0.000    0.000    0.000    0.000 
#    0.000    0.000    0.000    0.000    0.000    0.000 
#
# Total GULP energy -155921.574626 kJ/mol
# GULP energy per Si atom -5568.627665 kJ/mol
# Density = 2.426809 g / cm^3
# Si number density = 24.323447 Si / 1000 Ang^3
#
#
#
# Elastic Constant Matrix: (Units=GPa)
#
#
# Indices 1 2 3 4 5 6 
#
# 1 108.0416 17.4707 8.0031 0.0000 0.0000 0.0000
# 2 17.4707 32.6938 -11.1313 0.0000 0.0000 0.0000
# 3 8.0031 -11.1313 190.0684 0.0000 0.0000 0.0000
# 4 0.0000 0.0000 0.0000 15.3144 0.0000 0.0000
# 5 0.0000 0.0000 0.0000 0.0000 5.6446 0.0000
# 6 0.0000 0.0000 0.0000 0.0000 0.0000 18.0343
#
#
#
# Elastic Compliance Matrix: (Units=1/GPa)
#
#
# Indices 1 2 3 4 5 6 
#
# 1 0.010240 -0.005733 -0.000767 0.000000 0.000000 0.000000
# 2 -0.005733 0.034419 0.002257 0.000000 0.000000 0.000000
# 3 -0.000767 0.002257 0.005426 0.000000 0.000000 0.000000
# 4 0.000000 0.000000 0.000000 0.065298 0.000000 0.000000
# 5 0.000000 0.000000 0.000000 0.000000 0.177160 0.000000
# 6 0.000000 0.000000 0.000000 0.000000 0.000000 0.055450
#
#
# Mechanical properties :
#
#
# Convention : Reuss Voigt Hill
#
# Bulk Modulus (GPa) = 24.03915 39.94322 31.99119
# Shear Modulus (GPa) = 13.50096 28.89607 21.19852
#
# Velocity S-wave (km/s) = 2.35853 3.45047 2.95536
# Velocity P-wave (km/s) = 4.16190 5.68609 4.98262
#
# Compressibility (1/GPa) = 0.04159880
#
# Stress axis : x y z
#
# Youngs Moduli (GPa) = 97.66077 29.05390 184.30662
#
# Poissons Ratio (x) = 0.16656 0.14134
# Poissons Ratio (y) = 0.55987 -0.41600
# Poissons Ratio (z) = 0.07490 -0.06558
#
# Static dielectric constant tensor:
#      x y z
#    x 2.033850 0.000000 0.000000 
#    y 0.000000 1.972130 0.000000 
#    z 0.000000 0.000000 1.880720 
# 
# From -- ./inp_files/19417.got.cif
#   From: 2010.05.17/outbox.cif.g08.bks.cpg/sg72_10_cif.got.tgz:19417.got - 2010.06.03 17:03:01.
