data_PCOD9529001
_publ_section_title
;
Structure prediction by ZEFSAII (Michael W. Deem and Ramdas Pophale) SiO2 
 PCOD9529001
Probable space group: I B A M
;
_chemical_formula_sum "Si O2"
_cell_formula_units_Z 80
_cell_length_a 8.884053
_cell_length_b 24.857909
_cell_length_c 17.761604
_cell_angle_alpha 90.000000
_cell_angle_beta 90.000000
_cell_angle_gamma 90.000000
_cell_volume 3922.454529
_symmetry_space_group_name_H-M "I B A M"
_symmetry_group_IT_number 72
_symmetry_cell_setting 'orthorhombic'
loop_
_space_group_symop_operation_xyz
x,y,z
-x,-y,z
x,-y,1/2-z
-x,y,1/2-z
-x,-y,-z
x,y,-z
-x,y,1/2+z
x,-y,1/2+z
1/2+x,1/2+y,1/2+z
1/2-x,1/2-y,1/2+z
1/2+x,1/2-y,-z
1/2-x,1/2+y,-z
1/2-x,1/2-y,1/2-z
1/2+x,1/2+y,1/2-z
1/2-x,1/2+y,z
1/2+x,1/2-y,z
loop_
_atom_site_type_symbol
_atom_site_label
_atom_site_fract_x
_atom_site_fract_y
_atom_site_fract_z
Si Si1 0.131067 0.283258 0.852426
Si Si2 0.797014 0.609068 0.084824
Si Si3 0.163016 0.985442 0.161867
Si Si4 0.203510 0.315456 0.317907
Si Si5 0.088637 0.430052 0.668758
O O1 0.205405 0.326508 0.907646
O O2 0.192144 0.302086 0.770574
O O3 0.169490 0.220479 0.856914
O O4 0.953574 0.293621 0.851767
O O5 0.691974 0.576487 0.142272
O O6 0.963101 0.589645 0.110254
O O7 0.763396 0.592487 0.000000
O O8 0.156528 0.000000 0.250000
O O9 0.312296 0.019872 0.140375
O O10 0.000000 0.000000 0.128740
O O11 0.202055 0.379536 0.323515
O O12 0.000000 0.437484 0.750000
#
# Coordination Sequence:
#
# PCOD9529001 Si02
#       5
#    16  16  16  16  16
#     4   9  17  32  53  83 114 146 194 244 285 359
#     4  11  23  39  60  87 121 163 201 246 311 370
#     4  11  23  37  60  90 120 156 203 255 306 359
#     4   9  16  31  57  83 110 151 194 240 298 335
#     4  11  19  38  62  87 119 158 206 258 293 361
#
# _framework density 20.395392999999999
#
# number of rings (size 3 to 8) (size 9 to 14) (size 15 to 20)
#    0.000    1.800    6.000    0.600    0.000    3.600 
#    0.000    8.000    0.000    0.000    0.000    0.000 
#    0.000    0.000    0.000    0.000    0.000    0.000 
#
# Total GULP energy -222847.784417 kJ/mol
# GULP energy per Si atom -5571.194610 kJ/mol
# Density = 2.034897 g / cm^3
# Si number density = 20.395393 Si / 1000 Ang^3
#
#
#
# Elastic Constant Matrix: (Units=GPa)
#
#
# Indices 1 2 3 4 5 6 
#
# 1 39.7682 8.0363 5.8078 0.0000 0.0000 0.0000
# 2 8.0363 85.4822 4.9034 0.0000 0.0000 0.0000
# 3 5.8078 4.9034 34.7855 0.0001 0.0000 0.0000
# 4 0.0000 0.0000 0.0001 12.9000 0.0000 0.0000
# 5 0.0000 0.0000 0.0000 0.0000 -0.3811 0.0000
# 6 0.0000 0.0000 0.0000 0.0000 0.0000 12.2132
#
#
#
# Elastic Compliance Matrix: (Units=1/GPa)
#
#
# Indices 1 2 3 4 5 6 
#
# 1 0.026189 -0.002229 -0.004058 0.000000 0.000000 0.000000
# 2 -0.002229 0.011983 -0.001317 0.000000 0.000000 0.000000
# 3 -0.004058 -0.001317 0.029611 0.000000 -0.000001 0.000000
# 4 0.000000 0.000000 0.000000 0.077519 -0.000001 0.000000
# 5 0.000000 0.000000 -0.000001 -0.000001 -2.623766 0.000000
# 6 0.000000 0.000000 0.000000 0.000000 0.000000 0.081879
#
#
# Mechanical properties :
#
#
# Convention : Reuss Voigt Hill
#
# Bulk Modulus (GPa) = 19.02077 21.94788 20.48432
# Shear Modulus (GPa) = -2.11519 14.36563 6.12522
#
# Velocity S-wave (km/s) = -1.01948 2.65685 1.73486
# Velocity P-wave (km/s) = 2.82143 4.49404 3.75212
#
# Compressibility (1/GPa) = 0.05257412
#
# Stress axis : x y z
#
# Youngs Moduli (GPa) = 38.18410 83.44826 33.77143
#
# Poissons Ratio (x) = 0.18603 0.13705
# Poissons Ratio (y) = 0.08512 0.04448
# Poissons Ratio (z) = 0.15496 0.10990
#
# Static dielectric constant tensor:
#      x y z
#    x 1.775370 0.000000 0.000000 
#    y 0.000000 1.788320 0.000000 
#    z 0.000000 0.000000 1.741160 
# 
# From -- ./inp_files/28099.got.cif
#   From: 2010.05.17/outbox.cif.g08.bks.cpg/sg72_15_cif.got.tgz:28099.got - 2010.06.03 17:03:01.
