data_PCOD9529873
_publ_section_title
;
Structure prediction by ZEFSAII (Michael W. Deem and Ramdas Pophale) SiO2 
 PCOD9529873
Probable space group: I B C A 
;
_chemical_formula_sum "Si O2"
_cell_formula_units_Z 120
_cell_length_a 13.878945
_cell_length_b 14.148430
_cell_length_c 28.873615
_cell_angle_alpha 90.000000
_cell_angle_beta 90.000000
_cell_angle_gamma 90.000000
_cell_volume 5669.775546
_symmetry_space_group_name_H-M "I B C A "
_symmetry_group_IT_number 73
_symmetry_cell_setting 'orthorhombic'
loop_
_space_group_symop_operation_xyz
x,y,z
-x,1/2-y,z
x,-y,1/2-z
1/2-x,y,-z
-x,-y,-z
x,1/2+y,-z
-x,y,1/2+z
1/2+x,-y,z
1/2+x,1/2+y,1/2+z
1/2-x,-y,1/2+z
1/2+x,1/2-y,-z
-x,1/2+y,1/2-z
1/2-x,1/2-y,1/2-z
1/2+x,y,1/2-z
1/2-x,1/2+y,z
x,1/2-y,1/2+z
loop_
_atom_site_type_symbol
_atom_site_label
_atom_site_fract_x
_atom_site_fract_y
_atom_site_fract_z
Si Si1 0.214290 0.586208 0.397649
Si Si2 0.841306 0.000000 0.750000
Si Si3 0.433559 0.667464 0.044348
Si Si4 0.024603 0.649184 0.355298
Si Si5 0.522092 0.534559 0.297564
Si Si6 0.276359 0.411985 0.667028
Si Si7 0.730208 0.721223 0.415057
Si Si8 0.650703 0.945980 0.971553
O O1 0.137488 0.639957 0.365590
O O2 0.251471 0.498522 0.367698
O O3 0.288453 0.666551 0.413796
O O4 0.153380 0.537470 0.439073
O O5 0.916907 0.932955 0.720798
O O6 0.778797 0.936889 0.785460
O O7 0.500000 0.750000 0.024446
O O8 0.472877 0.645161 0.095183
O O9 0.327165 0.708638 0.054416
O O10 0.426411 0.578756 0.010618
O O11 0.000000 0.750000 0.333442
O O12 0.996602 0.558784 0.326312
O O13 0.571371 0.500000 0.250000
O O14 0.607303 0.588083 0.324167
O O15 0.253283 0.319839 0.636706
O O16 0.656670 0.648034 0.439139
O O17 0.750000 0.954476 0.000000
#
# Coordination Sequence:
#
# PCOD9529873 Si02
#       8
#    16   8  16  16  16  16  16  16
#     4  10  20  35  57  83 111 158 203 238 304 372
#     4  10  18  34  60  82 120 154 196 258 308 362
#     4  10  18  34  56  86 112 151 199 250 299 359
#     4  10  18  33  54  82 112 146 198 245 298 365
#     4   9  20  34  57  85 115 154 193 253 305 368
#     4  10  20  37  59  87 117 156 206 245 312 370
#     4  10  19  37  59  77 117 158 194 249 298 366
#     4   9  21  35  55  83 115 153 197 247 297 356
#
# _framework density 21.164859
#
# number of rings (size 3 to 8) (size 9 to 14) (size 15 to 20)
#    0.400    1.867    3.333    0.800    0.000    2.133 
#    0.000    2.000    8.800    0.000    0.000    0.000 
#    0.000    0.000    0.000    0.000    0.000    0.000 
#
# Total GULP energy -334007.204618 kJ/mol
# GULP energy per Si atom -5566.786744 kJ/mol
# Density = 2.111669 g / cm^3
# Si number density = 21.164859 Si / 1000 Ang^3
#
#
#
# Elastic Constant Matrix: (Units=GPa)
#
#
# Indices 1 2 3 4 5 6 
#
# 1 48.4852 12.3011 8.2200 0.0000 0.0000 0.0000
# 2 12.3011 87.4041 28.9542 0.0000 0.0000 0.0000
# 3 8.2200 28.9542 61.4179 0.0000 0.0000 0.0000
# 4 0.0000 0.0000 0.0000 -51.1319 0.0000 0.0000
# 5 0.0000 0.0000 0.0000 0.0000 -11.7274 0.0000
# 6 0.0000 0.0000 0.0000 0.0000 0.0000 19.4825
#
#
#
# Elastic Compliance Matrix: (Units=1/GPa)
#
#
# Indices 1 2 3 4 5 6 
#
# 1 0.021541 -0.002461 -0.001723 0.000000 0.000000 0.000000
# 2 -0.002461 0.013840 -0.006195 0.000000 0.000000 0.000000
# 3 -0.001723 -0.006195 0.019433 0.000000 0.000000 0.000000
# 4 0.000000 0.000000 0.000000 -0.019557 0.000000 0.000000
# 5 0.000000 0.000000 0.000000 0.000000 -0.085271 0.000000
# 6 0.000000 0.000000 0.000000 0.000000 0.000000 0.051328
#
#
# Mechanical properties :
#
#
# Convention : Reuss Voigt Hill
#
# Bulk Modulus (GPa) = 29.36318 32.91752 31.14035
# Shear Modulus (GPa) = 149.59377 1.18012 75.38695
#
# Velocity S-wave (km/s) = 8.41628 0.74753 5.97463
# Velocity P-wave (km/s) = 10.40906 4.04125 7.89558
#
# Compressibility (1/GPa) = 0.03405626
#
# Stress axis : x y z
#
# Youngs Moduli (GPa) = 46.42246 72.25595 51.45886
#
# Poissons Ratio (x) = 0.17782 0.08866
# Poissons Ratio (y) = 0.11424 0.31879
# Poissons Ratio (z) = 0.07998 0.44763
#
# Static dielectric constant tensor:
#      x y z
#    x 1.823160 0.000000 0.000000 
#    y 0.000000 1.817170 0.000000 
#    z 0.000000 0.000000 1.807830 
# 
# From -- ./inp_files/34410.got.cif
#   From: 2010.05.17/outbox.cif.g08.bks.cpg/sg73_18_cif.got.tgz:34410.got - 2010.06.03 17:35:07.
