data_PCOD9529548
_publ_section_title
;
Structure prediction by ZEFSAII (Michael W. Deem and Ramdas Pophale) SiO2 
 PCOD9529548
Probable space group: I B A M
;
_chemical_formula_sum "Si O2"
_cell_formula_units_Z 48
_cell_length_a 21.000000
_cell_length_b 12.000000
_cell_length_c 21.000000
_cell_angle_alpha 90.000000
_cell_angle_beta 90.000000
_cell_angle_gamma 90.000000
_cell_volume 5292.000000
_symmetry_space_group_name_H-M "I B A M"
_symmetry_group_IT_number 72
_symmetry_cell_setting 'orthorhombic'
loop_
_space_group_symop_operation_xyz
x,y,z
-x,-y,z
x,-y,1/2-z
-x,y,1/2-z
-x,-y,-z
x,y,-z
-x,y,1/2+z
x,-y,1/2+z
1/2+x,1/2+y,1/2+z
1/2-x,1/2-y,1/2+z
1/2+x,1/2-y,-z
1/2-x,1/2+y,-z
1/2-x,1/2-y,1/2-z
1/2+x,1/2+y,1/2-z
1/2-x,1/2+y,z
1/2+x,1/2-y,z
loop_
_atom_site_type_symbol
_atom_site_label
_atom_site_fract_x
_atom_site_fract_y
_atom_site_fract_z
Si Si1 0.465227 0.880975 0.689409
Si Si2 0.118393 0.855148 0.423997
Si Si3 0.315877 0.118796 0.224143
Si Si4 0.475994 0.716784 0.575495
Si Si5 0.662137 0.399697 0.423717
Si Si6 0.772966 0.735239 0.147877
O O1 0.500000 0.823306 0.750000
O O2 0.390019 0.886935 0.704383
O O3 0.475823 0.819615 0.623276
O O4 0.500000 0.000000 0.684730
O O5 0.122002 0.848155 0.500000
O O6 0.165912 0.763659 0.394983
O O7 0.042651 0.847267 0.409108
O O8 0.148429 0.973242 0.404772
O O9 0.272128 0.160477 0.166471
O O10 0.303382 0.196664 0.285143
O O11 0.295235 0.000000 0.250000
O O12 0.478616 0.743264 0.500000
O O13 0.407374 0.657964 0.586406
O O14 0.675172 0.392911 0.500000
O O15 0.721791 0.347860 0.385394
#
# Coordination Sequence:
#
# PCOD9529548 Si02
#       6
#    16  16  16  16  16  16
#     4  11  21  37  62  85 117 158 199 243 296 357
#     4  10  21  37  59  87 115 154 195 239 296 352
#     4  11  22  38  57  86 113 157 196 235 297 350
#     4  10  21  39  62  87 118 154 202 250 297 350
#     4  10  20  38  62  87 118 155 194 243 299 355
#     4  11  22  37  61  84 122 150 195 245 290 361
#
# _framework density 9.0702949999999998
#
# number of rings (size 3 to 8) (size 9 to 14) (size 15 to 20)
#    0.000    1.500    3.333    3.000    0.000    2.333 
#    0.000    0.000    0.000    1.000    0.000    0.000 
#    0.000    0.000    0.000    0.000    0.000    0.000 
#
# Total GULP energy -267409.381933 kJ/mol
# GULP energy per Si atom -5571.028790 kJ/mol
# Density = 0.904965 g / cm^3
# Si number density = 9.070295 Si / 1000 Ang^3
#
#
#
# Elastic Constant Matrix: (Units=GPa)
#
#
# Indices 1 2 3 4 5 6 
#
# 1 114.8440 22.3952 30.1746 0.0000 0.0000 0.0000
# 2 22.3952 50.2807 26.1908 0.0000 0.0000 0.0000
# 3 30.1746 26.1908 46.3443 0.0000 0.0000 0.0000
# 4 0.0000 0.0000 0.0000 25.3406 0.0000 0.0000
# 5 0.0000 0.0000 0.0000 0.0000 -20.2291 0.0000
# 6 0.0000 0.0000 0.0000 0.0000 0.0000 19.7417
#
#
#
# Elastic Compliance Matrix: (Units=1/GPa)
#
#
# Indices 1 2 3 4 5 6 
#
# 1 0.010594 -0.001595 -0.005996 0.000000 0.000000 0.000000
# 2 -0.001595 0.028426 -0.015026 0.000000 0.000000 0.000000
# 3 -0.005996 -0.015026 0.033973 0.000000 0.000000 0.000000
# 4 0.000000 0.000000 0.000000 0.039462 0.000000 0.000000
# 5 0.000000 0.000000 0.000000 0.000000 -0.049434 0.000000
# 6 0.000000 0.000000 0.000000 0.000000 0.000000 0.050654
#
#
# Mechanical properties :
#
#
# Convention : Reuss Voigt Hill
#
# Bulk Modulus (GPa) = 36.02476 40.99892 38.51184
# Shear Modulus (GPa) = 29.73308 13.81785 21.77547
#
# Velocity S-wave (km/s) = 4.05289 2.76290 3.46840
# Velocity P-wave (km/s) = 6.46553 5.72956 6.10864
#
# Compressibility (1/GPa) = 0.02775868
#
# Stress axis : x y z
#
# Youngs Moduli (GPa) = 94.39291 35.17953 29.43492
#
# Poissons Ratio (x) = 0.05612 0.17650
# Poissons Ratio (y) = 0.15058 0.44228
# Poissons Ratio (z) = 0.56600 0.52860
#
# Static dielectric constant tensor:
#      x y z
#    x 1.619160 0.000000 0.000000 
#    y 0.000000 1.675920 0.000000 
#    z 0.000000 0.000000 1.620420 
# 
# From -- ./inp_files/37118.got.cif
#   From: 2010.05.17/outbox.ucp.g08.bks.cvg/sg72_19_cif.got.tgz:37118.got - 2010.06.11 16:33:07.
