data_PCOD9529930
_publ_section_title
;
Structure prediction by ZEFSAII (Michael W. Deem and Ramdas Pophale) SiO2 
 PCOD9529930
Probable space group: I B C A 
;
_chemical_formula_sum "Si O2"
_cell_formula_units_Z 80
_cell_length_a 8.824507
_cell_length_b 17.239346
_cell_length_c 22.914073
_cell_angle_alpha 90.000000
_cell_angle_beta 90.000000
_cell_angle_gamma 90.000000
_cell_volume 3485.888812
_symmetry_space_group_name_H-M "I B C A "
_symmetry_group_IT_number 73
_symmetry_cell_setting 'orthorhombic'
loop_
_space_group_symop_operation_xyz
x,y,z
-x,1/2-y,z
x,-y,1/2-z
1/2-x,y,-z
-x,-y,-z
x,1/2+y,-z
-x,y,1/2+z
1/2+x,-y,z
1/2+x,1/2+y,1/2+z
1/2-x,-y,1/2+z
1/2+x,1/2-y,-z
-x,1/2+y,1/2-z
1/2-x,1/2-y,1/2-z
1/2+x,y,1/2-z
1/2-x,1/2+y,z
x,1/2-y,1/2+z
loop_
_atom_site_type_symbol
_atom_site_label
_atom_site_fract_x
_atom_site_fract_y
_atom_site_fract_z
Si Si1 0.308644 0.476878 0.064960
Si Si2 0.732357 0.633256 0.697625
Si Si3 0.490136 0.833838 0.885492
Si Si4 0.017901 0.577930 0.375057
Si Si5 0.805625 0.808959 0.313388
O O1 0.420141 0.404853 0.078777
O O2 0.405476 0.554833 0.073266
O O3 0.169434 0.471049 0.111197
O O4 0.250000 0.470468 0.000000
O O5 0.599585 0.573731 0.679921
O O6 0.662238 0.720493 0.702929
O O7 0.815783 0.629641 0.759927
O O8 0.855052 0.641313 0.646095
O O9 0.500000 0.750000 0.917102
O O10 0.366941 0.815935 0.835038
O O11 0.090236 0.662131 0.366424
#
# Coordination Sequence:
#
# PCOD9529930 Si02
#       5
#    16  16  16  16  16
#     4  11  24  43  61  84 121 168 215 264 318 360
#     4  10  18  35  62  93 124 157 199 251 310 372
#     4   9  19  37  58  84 118 154 202 259 310 372
#     4  11  22  38  61  88 120 164 210 251 304 377
#     4   9  19  35  61  92 125 161 197 246 310 376
#
# _framework density 22.949672
#
# number of rings (size 3 to 8) (size 9 to 14) (size 15 to 20)
#    0.000    2.000    0.000    3.600    0.000    3.200 
#    0.000   23.000    0.000    4.800    0.000    0.000 
#    0.000    0.000    0.000    0.000    0.000    0.000 
#
# Total GULP energy -222711.632870 kJ/mol
# GULP energy per Si atom -5567.790822 kJ/mol
# Density = 2.289744 g / cm^3
# Si number density = 22.949672 Si / 1000 Ang^3
#
#
#
# Elastic Constant Matrix: (Units=GPa)
#
#
# Indices 1 2 3 4 5 6 
#
# 1 130.9289 42.6317 36.5151 0.0000 0.0000 0.0000
# 2 42.6317 59.4235 50.6500 0.0000 0.0000 0.0000
# 3 36.5151 50.6500 67.0296 0.0000 0.0000 0.0000
# 4 0.0000 0.0000 0.0000 56.7814 0.0000 0.0000
# 5 0.0000 0.0000 0.0000 0.0000 36.1154 0.0000
# 6 0.0000 0.0000 0.0000 0.0000 0.0000 33.6099
#
#
#
# Elastic Compliance Matrix: (Units=1/GPa)
#
#
# Indices 1 2 3 4 5 6 
#
# 1 0.009966 -0.007086 -0.000074 0.000000 0.000000 0.000000
# 2 -0.007086 0.052319 -0.035674 0.000000 0.000000 0.000000
# 3 -0.000074 -0.035674 0.041916 0.000000 0.000000 0.000000
# 4 0.000000 0.000000 0.000000 0.017611 0.000000 0.000000
# 5 0.000000 0.000000 0.000000 0.000000 0.027689 0.000000
# 6 0.000000 0.000000 0.000000 0.000000 0.000000 0.029753
#
#
# Mechanical properties :
#
#
# Convention : Reuss Voigt Hill
#
# Bulk Modulus (GPa) = 53.96174 57.44173 55.70173
# Shear Modulus (GPa) = 18.44329 33.80700 26.12515
#
# Velocity S-wave (km/s) = 2.83793 3.84225 3.37763
# Velocity P-wave (km/s) = 5.85684 6.69086 6.28770
#
# Compressibility (1/GPa) = 0.01853165
#
# Stress axis : x y z
#
# Youngs Moduli (GPa) = 100.34261 19.11336 23.85735
#
# Poissons Ratio (x) = 0.13545 0.00177
# Poissons Ratio (y) = 0.71108 0.85109
# Poissons Ratio (z) = 0.00744 0.68185
#
# Static dielectric constant tensor:
#      x y z
#    x 1.951400 0.000000 0.000000 
#    y 0.000000 1.914320 0.000000 
#    z 0.000000 0.000000 1.873800 
# 
# From -- ./inp_files/31111.got.cif
#   From: 2010.05.17/outbox.cif.g08.bks.cpg/sg73_16_cif.got.tgz:31111.got - 2010.06.03 17:35:07.
