data_PCOD9529795
_publ_section_title
;
Structure prediction by ZEFSAII (Michael W. Deem and Ramdas Pophale) SiO2 
 PCOD9529795
Probable space group: I B C A 
;
_chemical_formula_sum "Si O2"
_cell_formula_units_Z 96
_cell_length_a 14.987326
_cell_length_b 17.657425
_cell_length_c 19.804750
_cell_angle_alpha 90.000000
_cell_angle_beta 90.000000
_cell_angle_gamma 90.000000
_cell_volume 5241.081207
_symmetry_space_group_name_H-M "I B C A "
_symmetry_group_IT_number 73
_symmetry_cell_setting 'orthorhombic'
loop_
_space_group_symop_operation_xyz
x,y,z
-x,1/2-y,z
x,-y,1/2-z
1/2-x,y,-z
-x,-y,-z
x,1/2+y,-z
-x,y,1/2+z
1/2+x,-y,z
1/2+x,1/2+y,1/2+z
1/2-x,-y,1/2+z
1/2+x,1/2-y,-z
-x,1/2+y,1/2-z
1/2-x,1/2-y,1/2-z
1/2+x,y,1/2-z
1/2-x,1/2+y,z
x,1/2-y,1/2+z
loop_
_atom_site_type_symbol
_atom_site_label
_atom_site_fract_x
_atom_site_fract_y
_atom_site_fract_z
Si Si1 0.104148 0.033346 0.423986
Si Si2 0.265964 0.376233 0.751085
Si Si3 0.074117 0.585369 0.722928
Si Si4 0.558703 0.927381 0.567463
Si Si5 0.436186 0.322212 0.806393
Si Si6 0.789447 0.510142 0.638162
O O1 0.071762 0.078059 0.357504
O O2 0.092684 0.082704 0.491325
O O3 0.204066 0.005298 0.408890
O O4 0.041067 0.960012 0.432524
O O5 0.160065 0.364759 0.756772
O O6 0.336833 0.314157 0.775691
O O7 0.285419 0.410623 0.677306
O O8 0.283623 0.444691 0.804624
O O9 0.091001 0.500000 0.750000
O O10 0.986123 0.616214 0.758683
O O11 0.567794 0.857304 0.618330
O O12 0.620578 0.994083 0.598146
O O13 0.500000 0.250000 0.805634
#
# Coordination Sequence:
#
# PCOD9529795 Si02
#       6
#    16  16  16  16  16  16
#     4  10  18  30  51  81 100 132 178 233 289 313
#     4   9  17  30  53  77 104 137 181 228 281 320
#     4  11  18  34  57  79 107 138 186 249 280 331
#     4  10  19  30  49  75 109 137 174 224 276 341
#     4  11  23  35  51  78 114 155 186 220 286 355
#     4   9  15  28  49  79 102 128 169 233 278 314
#
# _framework density 18.316831000000001
#
# number of rings (size 3 to 8) (size 9 to 14) (size 15 to 20)
#    0.000    2.000    5.000    1.500    2.333    0.667 
#    0.000    0.833    0.000    0.000    0.000   25.667 
#    0.000    0.000    0.000    0.000    0.000    0.000 
#
# Total GULP energy -267606.869731 kJ/mol
# GULP energy per Si atom -5575.143119 kJ/mol
# Density = 1.827514 g / cm^3
# Si number density = 18.316831 Si / 1000 Ang^3
#
#
#
# Elastic Constant Matrix: (Units=GPa)
#
#
# Indices 1 2 3 4 5 6 
#
# 1 91.3549 11.9826 12.1665 0.0000 0.0000 0.0000
# 2 11.9826 40.3640 20.7754 0.0000 0.0000 0.0000
# 3 12.1665 20.7754 95.1345 0.0000 0.0000 0.0000
# 4 0.0000 0.0000 0.0000 11.3915 0.0000 0.0000
# 5 0.0000 0.0000 0.0000 0.0000 23.9493 0.0000
# 6 0.0000 0.0000 0.0000 0.0000 0.0000 16.1623
#
#
#
# Elastic Compliance Matrix: (Units=1/GPa)
#
#
# Indices 1 2 3 4 5 6 
#
# 1 0.011445 -0.002979 -0.000813 0.000000 0.000000 0.000000
# 2 -0.002979 0.028687 -0.005884 0.000000 0.000000 0.000000
# 3 -0.000813 -0.005884 0.011900 0.000000 0.000000 0.000000
# 4 0.000000 0.000000 0.000000 0.087785 0.000000 0.000000
# 5 0.000000 0.000000 0.000000 0.000000 0.041755 0.000000
# 6 0.000000 0.000000 0.000000 0.000000 0.000000 0.061872
#
#
# Mechanical properties :
#
#
# Convention : Reuss Voigt Hill
#
# Bulk Modulus (GPa) = 30.59888 35.18915 32.89402
# Shear Modulus (GPa) = 18.26878 22.42921 20.34900
#
# Velocity S-wave (km/s) = 3.16155 3.50310 3.33670
# Velocity P-wave (km/s) = 5.48350 5.96786 5.73080
#
# Compressibility (1/GPa) = 0.03268093
#
# Stress axis : x y z
#
# Youngs Moduli (GPa) = 87.37150 34.85855 84.03142
#
# Poissons Ratio (x) = 0.10385 0.06833
# Poissons Ratio (y) = 0.26030 0.49442
# Poissons Ratio (z) = 0.07104 0.20510
#
# Static dielectric constant tensor:
#      x y z
#    x 1.659020 0.000000 0.000000 
#    y 0.000000 1.626830 0.000000 
#    z 0.000000 0.000000 1.643840 
# 
# From -- ./inp_files/26169.got.cif
#   From: 2010.05.17/outbox.cif.g08.bks.cpg/sg73_14_cif.got.tgz:26169.got - 2010.06.03 17:35:07.
