data_PCOD9529048
_publ_section_title
;
Structure prediction by ZEFSAII (Michael W. Deem and Ramdas Pophale) SiO2 
 PCOD9529048
Probable space group: I B A M
;
_chemical_formula_sum "Si O2"
_cell_formula_units_Z 80
_cell_length_a 28.102712
_cell_length_b 18.588371
_cell_length_c 8.425060
_cell_angle_alpha 90.000000
_cell_angle_beta 90.000000
_cell_angle_gamma 90.000000
_cell_volume 4401.113483
_symmetry_space_group_name_H-M "I B A M"
_symmetry_group_IT_number 72
_symmetry_cell_setting 'orthorhombic'
loop_
_space_group_symop_operation_xyz
x,y,z
-x,-y,z
x,-y,1/2-z
-x,y,1/2-z
-x,-y,-z
x,y,-z
-x,y,1/2+z
x,-y,1/2+z
1/2+x,1/2+y,1/2+z
1/2-x,1/2-y,1/2+z
1/2+x,1/2-y,-z
1/2-x,1/2+y,-z
1/2-x,1/2-y,1/2-z
1/2+x,1/2+y,1/2-z
1/2-x,1/2+y,z
1/2+x,1/2-y,z
loop_
_atom_site_type_symbol
_atom_site_label
_atom_site_fract_x
_atom_site_fract_y
_atom_site_fract_z
Si Si1 0.710674 0.421867 0.689302
Si Si2 0.652683 0.283876 0.306505
Si Si3 0.449685 0.768591 0.308728
Si Si4 0.083835 0.423670 0.690767
Si Si5 0.687694 0.127664 0.691638
O O1 0.695950 0.500000 0.750000
O O2 0.708188 0.421989 0.500000
O O3 0.678124 0.356072 0.750067
O O4 0.764889 0.406093 0.739204
O O5 0.652807 0.284537 0.500000
O O6 0.597821 0.273486 0.256730
O O7 0.680850 0.211260 0.260237
O O8 0.500000 0.740096 0.250000
O O9 0.449588 0.768888 0.500000
O O10 0.442996 0.851656 0.254192
O O11 0.065527 0.500000 0.750000
O O12 0.082741 0.423629 0.500000
O O13 0.139079 0.412531 0.740051
O O14 0.690295 0.125077 0.500000
#
# Coordination Sequence:
#
# PCOD9529048 Si02
#       5
#    16  16  16  16  16
#     4  11  21  32  48  72 100 130 159 193 235 281
#     4   8  17  34  53  70  95 128 159 193 238 284
#     4   9  18  34  52  70  90 118 156 198 240 282
#     4   9  18  30  45  66  97 130 158 189 228 272
#     4   9  17  32  51  71  96 129 164 196 229 273
#
# _framework density 18.177218
#
# number of rings (size 3 to 8) (size 9 to 14) (size 15 to 20)
#    0.000    2.800    0.000    4.200    0.000    3.600 
#    0.000    8.000    0.000    0.600    0.000    4.200 
#    0.000    0.000    0.000    0.000    0.000    0.000 
#
# Total GULP energy -223107.354948 kJ/mol
# GULP energy per Si atom -5577.683874 kJ/mol
# Density = 1.813585 g / cm^3
# Si number density = 18.177218 Si / 1000 Ang^3
#
#
#
# Elastic Constant Matrix: (Units=GPa)
#
#
# Indices 1 2 3 4 5 6 
#
# 1 64.7512 20.1085 5.6104 0.0000 0.0000 0.0000
# 2 20.1085 79.8499 7.0445 0.0000 0.0000 0.0000
# 3 5.6104 7.0445 8.4133 0.0000 0.0000 0.0000
# 4 0.0000 0.0000 0.0000 21.5795 0.0000 0.0000
# 5 0.0000 0.0000 0.0000 0.0000 23.1143 0.0000
# 6 0.0000 0.0000 0.0000 0.0000 0.0000 3.0690
#
#
#
# Elastic Compliance Matrix: (Units=1/GPa)
#
#
# Indices 1 2 3 4 5 6 
#
# 1 0.017302 -0.003605 -0.008519 0.000000 0.000000 0.000000
# 2 -0.003605 0.014274 -0.009547 0.000000 0.000000 0.000000
# 3 -0.008519 -0.009547 0.132534 0.000000 0.000000 0.000000
# 4 0.000000 0.000000 0.000000 0.046340 0.000000 0.000000
# 5 0.000000 0.000000 0.000000 0.000000 0.043263 0.000000
# 6 0.000000 0.000000 0.000000 0.000000 0.000000 0.325840
#
#
# Mechanical properties :
#
#
# Convention : Reuss Voigt Hill
#
# Bulk Modulus (GPa) = 8.28039 24.28234 16.28136
# Shear Modulus (GPa) = 7.53976 17.56930 12.55453
#
# Velocity S-wave (km/s) = 2.03885 3.11232 2.63092
# Velocity P-wave (km/s) = 3.17928 5.12865 4.26678
#
# Compressibility (1/GPa) = 0.12076723
#
# Stress axis : x y z
#
# Youngs Moduli (GPa) = 57.79845 70.05871 7.54521
#
# Poissons Ratio (x) = 0.25260 0.06427
# Poissons Ratio (y) = 0.20839 0.07204
# Poissons Ratio (z) = 0.49236 0.66886
#
# Static dielectric constant tensor:
#      x y z
#    x 1.618690 0.000000 0.000000 
#    y 0.000000 1.628130 0.000000 
#    z 0.000000 0.000000 1.630870 
# 
# From -- ./inp_files/4762.got.cif
#   From: 2010.05.17/outbox.cif.g08.bks.cpg/sg72_3_cif.got.tgz:4762.got - 2010.06.03 17:03:01.
