data_PCOD9529647
_publ_section_title
;
Structure prediction by ZEFSAII (Michael W. Deem and Ramdas Pophale) SiO2 
 PCOD9529647
Probable space group: I B C A 
;
_chemical_formula_sum "Si O2"
_cell_formula_units_Z 88
_cell_length_a 31.014329
_cell_length_b 25.386500
_cell_length_c 5.386208
_cell_angle_alpha 90.000000
_cell_angle_beta 90.000000
_cell_angle_gamma 90.000000
_cell_volume 4240.805355
_symmetry_space_group_name_H-M "I B C A "
_symmetry_group_IT_number 73
_symmetry_cell_setting 'orthorhombic'
loop_
_space_group_symop_operation_xyz
x,y,z
-x,1/2-y,z
x,-y,1/2-z
1/2-x,y,-z
-x,-y,-z
x,1/2+y,-z
-x,y,1/2+z
1/2+x,-y,z
1/2+x,1/2+y,1/2+z
1/2-x,-y,1/2+z
1/2+x,1/2-y,-z
-x,1/2+y,1/2-z
1/2-x,1/2-y,1/2-z
1/2+x,y,1/2-z
1/2-x,1/2+y,z
x,1/2-y,1/2+z
loop_
_atom_site_type_symbol
_atom_site_label
_atom_site_fract_x
_atom_site_fract_y
_atom_site_fract_z
Si Si1 0.831447 0.896882 0.144991
Si Si2 0.813880 0.778595 0.149250
Si Si3 0.614494 0.113581 0.144358
Si Si4 0.776000 0.000000 0.250000
Si Si5 0.477078 0.563449 0.256410
Si Si6 0.411094 0.735486 0.349368
O O1 0.806460 0.840904 0.162950
O O2 0.864697 0.897309 0.376272
O O3 0.803151 0.948550 0.178152
O O4 0.853791 0.897476 0.875052
O O5 0.798513 0.747625 0.393245
O O6 0.866388 0.769885 0.148078
O O7 0.571247 0.080982 0.187807
O O8 0.602747 0.175149 0.152866
O O9 0.750000 0.986463 0.500000
O O10 0.479011 0.500000 0.250000
O O11 0.506427 0.582224 0.487459
O O12 0.435061 0.749510 0.600060
#
# Coordination Sequence:
#
# PCOD9529647 Si02
#       6
#    16  16  16   8  16  16
#     4  12  23  38  69  97 118 165 217 261 296 374
#     4  10  16  32  56  95 124 148 192 265 323 344
#     4  12  21  35  65 100 117 154 225 269 295 375
#     4  12  30  52  64  88 140 176 194 246 330 390
#     4  10  23  41  57  80 127 174 204 261 329 364
#     4  10  16  30  51  91 127 149 182 265 331 337
#
# _framework density 20.750776999999999
#
# number of rings (size 3 to 8) (size 9 to 14) (size 15 to 20)
#    0.000    1.091    7.273    2.182    2.545    0.000 
#    0.000    0.000    0.000    6.545    0.000    0.000 
#    0.000    0.000    0.000    0.000    0.000    0.000 
#
# Total GULP energy -245851.808484 kJ/mol
# GULP energy per Si atom -5587.541102 kJ/mol
# Density = 2.070355 g / cm^3
# Si number density = 20.750777 Si / 1000 Ang^3
#
#
#
# Elastic Constant Matrix: (Units=GPa)
#
#
# Indices 1 2 3 4 5 6 
#
# 1 17.5616 5.3280 6.0149 0.0000 0.0000 0.0000
# 2 5.3280 57.3260 2.3860 0.0000 0.0000 0.0000
# 3 6.0149 2.3860 134.2866 0.0000 0.0000 0.0000
# 4 0.0000 0.0000 0.0000 16.9207 0.0000 0.0000
# 5 0.0000 0.0000 0.0000 0.0000 16.4476 0.0000
# 6 0.0000 0.0000 0.0000 0.0000 0.0000 -1.9209
#
#
#
# Elastic Compliance Matrix: (Units=1/GPa)
#
#
# Indices 1 2 3 4 5 6 
#
# 1 0.059466 -0.005420 -0.002567 0.000000 0.000000 0.000000
# 2 -0.005420 0.017951 -0.000076 0.000000 0.000000 0.000000
# 3 -0.002567 -0.000076 0.007563 0.000000 0.000000 0.000000
# 4 0.000000 0.000000 0.000000 0.059099 0.000000 0.000000
# 5 0.000000 0.000000 0.000000 0.000000 0.060799 0.000000
# 6 0.000000 0.000000 0.000000 0.000000 0.000000 -0.520596
#
#
# Mechanical properties :
#
#
# Convention : Reuss Voigt Hill
#
# Bulk Modulus (GPa) = 14.52364 26.29245 20.40804
# Shear Modulus (GPa) = -18.07411 19.31917 0.62253
#
# Velocity S-wave (km/s) = -2.95449 3.05455 0.54832
# Velocity P-wave (km/s) = 2.15044 5.01383 3.20266
#
# Compressibility (1/GPa) = 0.06885328
#
# Stress axis : x y z
#
# Youngs Moduli (GPa) = 16.81630 55.70721 132.22088
#
# Poissons Ratio (x) = 0.30193 0.33944
# Poissons Ratio (y) = 0.09114 0.01007
# Poissons Ratio (z) = 0.04317 0.00424
#
# Static dielectric constant tensor:
#      x y z
#    x 1.721420 0.000000 0.000000 
#    y 0.000000 1.718900 0.000000 
#    z 0.000000 0.000000 1.760270 
# 
# From -- ./inp_files/3115.got.cif
#   From: 2010.05.17/outbox.cif.g08.bks.cpg/sg73_2_cif.got.tgz:3115.got - 2010.06.03 17:35:07.
