data_PCOD9529963
_publ_section_title
;
Structure prediction by ZEFSAII (Michael W. Deem and Ramdas Pophale) SiO2 
 PCOD9529963
Probable space group: I B C A 
;
_chemical_formula_sum "Si O2"
_cell_formula_units_Z 56
_cell_length_a 4.955192
_cell_length_b 15.558479
_cell_length_c 36.075287
_cell_angle_alpha 90.000000
_cell_angle_beta 90.000000
_cell_angle_gamma 90.000000
_cell_volume 2781.233294
_symmetry_space_group_name_H-M "I B C A "
_symmetry_group_IT_number 73
_symmetry_cell_setting 'orthorhombic'
loop_
_space_group_symop_operation_xyz
x,y,z
-x,1/2-y,z
x,-y,1/2-z
1/2-x,y,-z
-x,-y,-z
x,1/2+y,-z
-x,y,1/2+z
1/2+x,-y,z
1/2+x,1/2+y,1/2+z
1/2-x,-y,1/2+z
1/2+x,1/2-y,-z
-x,1/2+y,1/2-z
1/2-x,1/2-y,1/2-z
1/2+x,y,1/2-z
1/2-x,1/2+y,z
x,1/2-y,1/2+z
loop_
_atom_site_type_symbol
_atom_site_label
_atom_site_fract_x
_atom_site_fract_y
_atom_site_fract_z
Si Si1 0.965059 0.853237 0.271984
Si Si2 0.000000 0.250000 0.025005
Si Si3 0.795193 0.443777 0.341926
Si Si4 0.731936 0.191785 0.903783
O O1 0.763400 0.883224 0.239091
O O2 0.821235 0.884465 0.309157
O O3 0.000000 0.750000 0.272990
O O4 0.621726 0.180890 0.945781
O O5 0.750000 0.279616 0.000000
O O6 0.604199 0.527256 0.339699
O O7 0.764624 0.393487 0.380469
O O8 0.500000 0.250000 0.884974
O O9 0.000000 0.250000 0.905072
#
# Coordination Sequence:
#
# PCOD9529963 Si02
#       4
#    16   8  16  16
#     4  10  22  40  60  83 114 159 209 256 297 344
#     4  10  18  36  66  98 110 144 204 254 282 344
#     4  12  25  38  59  89 127 162 200 250 305 364
#     4  10  21  38  63  89 118 158 196 250 287 362
#
# _framework density 20.134951999999998
#
# number of rings (size 3 to 8) (size 9 to 14) (size 15 to 20)
#    0.857    0.571    1.429    4.286    0.000    6.857 
#    0.000    0.000    0.000    5.143    0.000    0.000 
#    0.000    0.000    0.000    0.000    0.000    0.000 
#
# Total GULP energy -156064.441585 kJ/mol
# GULP energy per Si atom -5573.730057 kJ/mol
# Density = 2.008912 g / cm^3
# Si number density = 20.134952 Si / 1000 Ang^3
#
#
#
# Elastic Constant Matrix: (Units=GPa)
#
#
# Indices 1 2 3 4 5 6 
#
# 1 112.9176 14.7336 30.2543 0.0000 0.0000 0.0000
# 2 14.7336 26.2351 30.7143 0.0000 0.0000 0.0000
# 3 30.2543 30.7143 129.3907 0.0000 0.0000 0.0000
# 4 0.0000 0.0000 0.0000 7.6536 0.0000 0.0000
# 5 0.0000 0.0000 0.0000 0.0000 -4.1050 0.0000
# 6 0.0000 0.0000 0.0000 0.0000 0.0000 19.9900
#
#
#
# Elastic Compliance Matrix: (Units=1/GPa)
#
#
# Indices 1 2 3 4 5 6 
#
# 1 0.009725 -0.003877 -0.001354 0.000000 0.000000 0.000000
# 2 -0.003877 0.054332 -0.011991 0.000000 0.000000 0.000000
# 3 -0.001354 -0.011991 0.010891 0.000000 0.000000 0.000000
# 4 0.000000 0.000000 0.000000 0.130658 0.000000 0.000000
# 5 0.000000 0.000000 0.000000 0.000000 -0.243604 0.000000
# 6 0.000000 0.000000 0.000000 0.000000 0.000000 0.050025
#
#
# Mechanical properties :
#
#
# Convention : Reuss Voigt Hill
#
# Bulk Modulus (GPa) = 24.68770 46.66086 35.67428
# Shear Modulus (GPa) = 83.37529 17.56379 50.46954
#
# Velocity S-wave (km/s) = 6.44190 2.95668 5.01199
# Velocity P-wave (km/s) = 8.22305 5.90596 7.15887
#
# Compressibility (1/GPa) = 0.04050601
#
# Stress axis : x y z
#
# Youngs Moduli (GPa) = 102.83301 18.40543 91.81616
#
# Poissons Ratio (x) = 0.07135 0.12428
# Poissons Ratio (y) = 0.39864 1.10094
# Poissons Ratio (z) = 0.13919 0.22069
#
# Static dielectric constant tensor:
#      x y z
#    x 1.613140 0.000000 0.000000 
#    y 0.000000 1.723390 0.000000 
#    z 0.000000 0.000000 1.727060 
# 
# From -- ./inp_files/15191.got.cif
#   From: 2010.05.17/outbox.cif.g08.bks.cpg/sg73_8_cif.got.tgz:15191.got - 2010.06.03 17:35:07.
