data_PCOD9529239
_publ_section_title
;
Structure prediction by ZEFSAII (Michael W. Deem and Ramdas Pophale) SiO2 
 PCOD9529239
Probable space group: I B A M
;
_chemical_formula_sum "Si O2"
_cell_formula_units_Z 88
_cell_length_a 12.275803
_cell_length_b 14.591056
_cell_length_c 24.366450
_cell_angle_alpha 90.000000
_cell_angle_beta 90.000000
_cell_angle_gamma 90.000000
_cell_volume 4364.443695
_symmetry_space_group_name_H-M "I B A M"
_symmetry_group_IT_number 72
_symmetry_cell_setting 'orthorhombic'
loop_
_space_group_symop_operation_xyz
x,y,z
-x,-y,z
x,-y,1/2-z
-x,y,1/2-z
-x,-y,-z
x,y,-z
-x,y,1/2+z
x,-y,1/2+z
1/2+x,1/2+y,1/2+z
1/2-x,1/2-y,1/2+z
1/2+x,1/2-y,-z
1/2-x,1/2+y,-z
1/2-x,1/2-y,1/2-z
1/2+x,1/2+y,1/2-z
1/2-x,1/2+y,z
1/2+x,1/2-y,z
loop_
_atom_site_type_symbol
_atom_site_label
_atom_site_fract_x
_atom_site_fract_y
_atom_site_fract_z
Si Si1 0.734465 0.000000 0.750000
Si Si2 0.348523 0.313531 0.265625
Si Si3 0.471326 0.240941 0.165739
Si Si4 0.185411 0.031275 0.935055
Si Si5 0.963906 0.855935 0.563981
Si Si6 0.387145 0.040959 0.852564
O O1 0.808443 0.916988 0.772259
O O2 0.657264 0.020772 0.802026
O O3 0.250000 0.250000 0.250000
O O4 0.418105 0.309570 0.209774
O O5 0.404887 0.261301 0.316512
O O6 0.449490 0.271900 0.104344
O O7 0.422350 0.139844 0.172323
O O8 0.290021 0.047414 0.896875
O O9 0.083559 0.100111 0.925675
O O10 0.128610 0.932388 0.924903
O O11 0.213173 0.036410 0.000000
O O12 0.957950 0.832236 0.500000
O O13 0.500000 0.000000 0.875486
#
# Coordination Sequence:
#
# PCOD9529239 Si02
#       6
#     8  16  16  16  16  16
#     4  12  23  41  68  84 128 177 220 259 328 372
#     4  11  23  41  61  92 129 169 216 270 311 396
#     4  11  24  38  62  94 131 161 212 269 326 379
#     4   9  20  42  67  92 124 165 214 267 317 386
#     4   9  19  40  69  95 121 160 217 272 321 371
#     4  12  25  39  62  91 130 176 208 258 330 400
#
# _framework density 20.162935000000001
#
# number of rings (size 3 to 8) (size 9 to 14) (size 15 to 20)
#    0.000    1.455    1.818    4.636    2.545    4.000 
#    0.000    0.000    0.000    0.000    0.000    0.000 
#    0.000    0.000    0.000    0.000    0.000    0.000 
#
# Total GULP energy -245339.314368 kJ/mol
# GULP energy per Si atom -5575.893508 kJ/mol
# Density = 2.011704 g / cm^3
# Si number density = 20.162935 Si / 1000 Ang^3
#
#
#
# Elastic Constant Matrix: (Units=GPa)
#
#
# Indices 1 2 3 4 5 6 
#
# 1 95.0895 25.3317 41.8874 0.0000 0.0000 0.0000
# 2 25.3317 55.2760 22.1087 0.0000 0.0000 0.0000
# 3 41.8874 22.1087 76.5901 0.0000 0.0000 0.0000
# 4 0.0000 0.0000 0.0000 28.5308 0.0000 0.0000
# 5 0.0000 0.0000 0.0000 0.0000 37.6607 0.0000
# 6 0.0000 0.0000 0.0000 0.0000 0.0000 23.2876
#
#
#
# Elastic Compliance Matrix: (Units=1/GPa)
#
#
# Indices 1 2 3 4 5 6 
#
# 1 0.014578 -0.003948 -0.006833 0.000000 0.000000 0.000000
# 2 -0.003948 0.021521 -0.004053 0.000000 0.000000 0.000000
# 3 -0.006833 -0.004053 0.017964 0.000000 0.000000 0.000000
# 4 0.000000 0.000000 0.000000 0.035050 0.000000 0.000000
# 5 0.000000 0.000000 0.000000 0.000000 0.026553 0.000000
# 6 0.000000 0.000000 0.000000 0.000000 0.000000 0.042941
#
#
# Mechanical properties :
#
#
# Convention : Reuss Voigt Hill
#
# Bulk Modulus (GPa) = 40.99288 45.06791 43.03040
# Shear Modulus (GPa) = 25.45726 27.07101 26.26413
#
# Velocity S-wave (km/s) = 3.55713 3.66814 3.61306
# Velocity P-wave (km/s) = 6.10294 6.35144 6.22843
#
# Compressibility (1/GPa) = 0.02439448
#
# Stress axis : x y z
#
# Youngs Moduli (GPa) = 68.59574 46.46538 55.66777
#
# Poissons Ratio (x) = 0.18343 0.38039
# Poissons Ratio (y) = 0.27080 0.22564
# Poissons Ratio (z) = 0.46873 0.18834
#
# Static dielectric constant tensor:
#      x y z
#    x 3.088520 0.000000 0.000000 
#    y 0.000000 1.710480 0.000000 
#    z 0.000000 0.000000 1.659560 
# 
# From -- ./inp_files/48014.got.cif
#   From: 2010.05.17/outbox.cif.g08.bks.cpg/sg72_25_cif.got.tgz:48014.got - 2010.06.03 17:03:01.
