data_PCOD9529115
_publ_section_title
;
Structure prediction by ZEFSAII (Michael W. Deem and Ramdas Pophale) SiO2 
 PCOD9529115
Probable space group: I B A M
;
_chemical_formula_sum "Si O2"
_cell_formula_units_Z 64
_cell_length_a 22.343126
_cell_length_b 8.974952
_cell_length_c 14.363715
_cell_angle_alpha 90.000000
_cell_angle_beta 90.000000
_cell_angle_gamma 90.000000
_cell_volume 2880.333985
_symmetry_space_group_name_H-M "I B A M"
_symmetry_group_IT_number 72
_symmetry_cell_setting 'orthorhombic'
loop_
_space_group_symop_operation_xyz
x,y,z
-x,-y,z
x,-y,1/2-z
-x,y,1/2-z
-x,-y,-z
x,y,-z
-x,y,1/2+z
x,-y,1/2+z
1/2+x,1/2+y,1/2+z
1/2-x,1/2-y,1/2+z
1/2+x,1/2-y,-z
1/2-x,1/2+y,-z
1/2-x,1/2-y,1/2-z
1/2+x,1/2+y,1/2-z
1/2-x,1/2+y,z
1/2+x,1/2-y,z
loop_
_atom_site_type_symbol
_atom_site_label
_atom_site_fract_x
_atom_site_fract_y
_atom_site_fract_z
Si Si1 0.996805 0.821221 0.892321
Si Si2 0.697615 0.503541 0.000000
Si Si3 0.393867 0.141341 0.190360
Si Si4 0.368870 0.634762 0.178539
Si Si5 0.173258 0.638744 0.000000
O O1 0.928934 0.791957 0.863584
O O2 0.048149 0.741419 0.833951
O O3 0.006993 0.782629 0.000000
O O4 0.000000 0.000000 0.883228
O O5 0.667985 0.430588 0.092377
O O6 0.686434 0.681816 0.000000
O O7 0.766486 0.457003 0.000000
O O8 0.346285 0.235428 0.252799
O O9 0.363858 0.102966 0.092547
O O10 0.412000 0.000000 0.250000
O O11 0.381566 0.500000 0.250000
#
# Coordination Sequence:
#
# PCOD9529115 Si02
#       5
#    16   8  16  16   8
#     4  11  21  42  77 108 147 193 244 306 371 448
#     4  12  28  49  79 111 146 203 266 319 373 444
#     4  12  28  47  76 115 161 195 244 316 388 454
#     4  12  24  45  76 114 146 198 254 303 374 455
#     4  12  28  53  77 107 152 200 263 324 373 443
#
# _framework density 22.219646999999998
#
# number of rings (size 3 to 8) (size 9 to 14) (size 15 to 20)
#    0.000    0.250    7.500    0.750    3.500    4.000 
#    0.000    1.250    0.000    0.000    0.000    0.000 
#    0.000    0.000    0.000    0.000    0.000    0.000 
#
# Total GULP energy -178985.126395 kJ/mol
# GULP energy per Si atom -5593.285200 kJ/mol
# Density = 2.216907 g / cm^3
# Si number density = 22.219647 Si / 1000 Ang^3
#
#
#
# Elastic Constant Matrix: (Units=GPa)
#
#
# Indices 1 2 3 4 5 6 
#
# 1 92.4976 15.8173 48.1379 0.0000 0.0000 0.0000
# 2 15.8173 72.8548 59.8941 0.0000 0.0000 0.0000
# 3 48.1379 59.8941 169.1085 0.0000 0.0000 0.0000
# 4 0.0000 0.0000 0.0000 33.4347 0.0000 0.0000
# 5 0.0000 0.0000 0.0000 0.0000 2.5099 0.0000
# 6 0.0000 0.0000 0.0000 0.0000 0.0000 18.6594
#
#
#
# Elastic Compliance Matrix: (Units=1/GPa)
#
#
# Indices 1 2 3 4 5 6 
#
# 1 0.012696 0.000303 -0.003721 0.000000 0.000000 0.000000
# 2 0.000303 0.019371 -0.006947 0.000000 0.000000 0.000000
# 3 -0.003721 -0.006947 0.009433 0.000000 0.000000 0.000000
# 4 0.000000 0.000000 0.000000 0.029909 0.000000 0.000000
# 5 0.000000 0.000000 0.000000 0.000000 0.398415 0.000000
# 6 0.000000 0.000000 0.000000 0.000000 0.000000 0.053592
#
#
# Mechanical properties :
#
#
# Convention : Reuss Voigt Hill
#
# Bulk Modulus (GPa) = 48.14749 64.68438 56.41594
# Shear Modulus (GPa) = 9.07324 24.96159 17.01742
#
# Velocity S-wave (km/s) = 2.02294 3.35535 2.77044
# Velocity P-wave (km/s) = 5.21271 6.64724 5.97319
#
# Compressibility (1/GPa) = 0.02076951
#
# Stress axis : x y z
#
# Youngs Moduli (GPa) = 78.76540 51.62255 106.00932
#
# Poissons Ratio (x) = -0.01564 0.39449
# Poissons Ratio (y) = -0.02386 0.73646
# Poissons Ratio (z) = 0.29311 0.35863
#
# Static dielectric constant tensor:
#      x y z
#    x 1.812080 0.000000 0.000000 
#    y 0.000000 1.876730 0.000000 
#    z 0.000000 0.000000 1.853660 
# 
# From -- ./inp_files/24770.got.cif
#   From: 2010.05.17/outbox.cif.g08.bks.cpg/sg72_13_cif.got.tgz:24770.got - 2010.06.03 17:03:01.
