data_PCOD9529400
_publ_section_title
;
Structure prediction by ZEFSAII (Michael W. Deem and Ramdas Pophale) SiO2 
 PCOD9529400
Probable space group: I B A M
;
_chemical_formula_sum "Si O2"
_cell_formula_units_Z 112
_cell_length_a 17.518178
_cell_length_b 21.572097
_cell_length_c 14.822828
_cell_angle_alpha 90.000000
_cell_angle_beta 90.000000
_cell_angle_gamma 90.000000
_cell_volume 5601.603548
_symmetry_space_group_name_H-M "I B A M"
_symmetry_group_IT_number 72
_symmetry_cell_setting 'orthorhombic'
loop_
_space_group_symop_operation_xyz
x,y,z
-x,-y,z
x,-y,1/2-z
-x,y,1/2-z
-x,-y,-z
x,y,-z
-x,y,1/2+z
x,-y,1/2+z
1/2+x,1/2+y,1/2+z
1/2-x,1/2-y,1/2+z
1/2+x,1/2-y,-z
1/2-x,1/2+y,-z
1/2-x,1/2-y,1/2-z
1/2+x,1/2+y,1/2-z
1/2-x,1/2+y,z
1/2+x,1/2-y,z
loop_
_atom_site_type_symbol
_atom_site_label
_atom_site_fract_x
_atom_site_fract_y
_atom_site_fract_z
Si Si1 0.585293 0.574638 0.895528
Si Si2 0.702828 0.619989 0.750000
Si Si3 1.000000 0.393438 0.396606
Si Si4 0.875682 0.390148 0.750000
Si Si5 0.624363 0.259737 0.750000
Si Si6 0.414707 0.574638 0.895528
Si Si7 0.500000 0.257258 0.103004
O O1 0.653919 0.598186 0.835373
O O2 0.500000 0.594651 0.865421
O O3 0.585325 0.500000 0.890579
O O4 0.594404 0.592018 0.000000
O O5 0.787343 0.592102 0.750000
O O6 0.696548 0.694976 0.750000
O O7 0.653919 0.598186 0.664627
O O8 1.000000 0.415744 0.500000
O O9 0.074546 0.410199 0.337073
O O10 1.000000 0.318144 0.399261
O O11 0.925454 0.410199 0.337073
O O12 0.870603 0.314674 0.750000
O O13 0.573778 0.275190 0.838569
O O14 0.573778 0.275190 0.661431
O O15 0.405596 0.592018 0.000000
O O16 0.500000 0.278844 0.000000
#
# Coordination Sequence:
#
# PCOD9529400 Si02
#       7
#    16  16  16  16  16  16  16
#     4   9  20  38  55  73 102 137 172 211 253 299
#     4  12  21  29  50  79 103 132 165 208 258 306
#     4   8  15  33  54  63  85 134 176 204 242 290
#     4   9  19  33  47  72 105 132 170 211 247 296
#     4   9  19  30  42  68 104 137 165 205 250 290
#     4   9  20  38  55  73 102 137 172 211 253 299
#     4   8  15  29  46  61  85 132 180 206 232 278
#
# _framework density 19.994274999999998
#
# number of rings (size 3 to 8) (size 9 to 14) (size 15 to 20)
#    0.000    2.857    0.000    3.857    4.000    3.429 
#    0.000    0.000    0.000    8.571    0.000    8.000 
#    0.000   13.714    0.000    0.000    0.000    0.000 
#
# Total GULP energy -312415.583754 kJ/mol
# GULP energy per Si atom -5578.849710 kJ/mol
# Density = 1.994877 g / cm^3
# Si number density = 19.994275 Si / 1000 Ang^3
#
#
#
# Elastic Constant Matrix: (Units=GPa)
#
#
# Indices 1 2 3 4 5 6 
#
# 1 168.0174 4.9321 83.2376 0.0000 0.0000 0.0000
# 2 4.9321 23.2940 11.1113 0.0000 0.0000 0.0000
# 3 83.2376 11.1113 157.2981 0.0000 0.0000 0.0000
# 4 0.0000 0.0000 0.0000 15.1114 0.0000 0.0000
# 5 0.0000 0.0000 0.0000 0.0000 13.8454 0.0000
# 6 0.0000 0.0000 0.0000 0.0000 0.0000 20.4877
#
#
#
# Elastic Compliance Matrix: (Units=1/GPa)
#
#
# Indices 1 2 3 4 5 6 
#
# 1 0.008069 0.000340 -0.004294 0.000000 0.000000 0.000000
# 2 0.000340 0.044441 -0.003319 0.000000 0.000000 0.000000
# 3 -0.004294 -0.003319 0.008864 0.000000 0.000000 0.000000
# 4 0.000000 0.000000 0.000000 0.066175 0.000000 0.000000
# 5 0.000000 0.000000 0.000000 0.000000 0.072226 0.000000
# 6 0.000000 0.000000 0.000000 0.000000 0.000000 0.048810
#
#
# Mechanical properties :
#
#
# Convention : Reuss Voigt Hill
#
# Bulk Modulus (GPa) = 21.35500 60.79684 41.07592
# Shear Modulus (GPa) = 17.93786 26.51081 22.22433
#
# Velocity S-wave (km/s) = 2.99849 3.64527 3.33759
# Velocity P-wave (km/s) = 4.76358 6.94193 5.95324
#
# Compressibility (1/GPa) = 0.04682744
#
# Stress axis : x y z
#
# Youngs Moduli (GPa) = 123.93049 22.50187 112.81572
#
# Poissons Ratio (x) = -0.00764 0.48442
# Poissons Ratio (y) = -0.04210 0.37443
# Poissons Ratio (z) = 0.53215 0.07468
#
# Static dielectric constant tensor:
#      x y z
#    x 1.682660 0.000000 0.000000 
#    y 0.000000 1.770080 0.000000 
#    z 0.000000 0.000000 1.685560 
# 
# From -- ./inp_files/22303.got.cif
#   From: 2010.05.17/outbox.cif.g08.bks.cpg/sg72_12_cif.got.tgz:22303.got - 2010.06.03 17:03:01.
