data_PCOD9529359
_publ_section_title
;
Structure prediction by ZEFSAII (Michael W. Deem and Ramdas Pophale) SiO2 
 PCOD9529359
Probable space group: I B A M
;
_chemical_formula_sum "Si O2"
_cell_formula_units_Z 56
_cell_length_a 11.669748
_cell_length_b 25.205517
_cell_length_c 8.043577
_cell_angle_alpha 90.000000
_cell_angle_beta 90.000000
_cell_angle_gamma 90.000000
_cell_volume 2365.954080
_symmetry_space_group_name_H-M "I B A M"
_symmetry_group_IT_number 72
_symmetry_cell_setting 'orthorhombic'
loop_
_space_group_symop_operation_xyz
x,y,z
-x,-y,z
x,-y,1/2-z
-x,y,1/2-z
-x,-y,-z
x,y,-z
-x,y,1/2+z
x,-y,1/2+z
1/2+x,1/2+y,1/2+z
1/2-x,1/2-y,1/2+z
1/2+x,1/2-y,-z
1/2-x,1/2+y,-z
1/2-x,1/2-y,1/2-z
1/2+x,1/2+y,1/2-z
1/2-x,1/2+y,z
1/2+x,1/2-y,z
loop_
_atom_site_type_symbol
_atom_site_label
_atom_site_fract_x
_atom_site_fract_y
_atom_site_fract_z
Si Si1 0.145601 0.783867 0.500000
Si Si2 0.817292 0.555557 0.820158
Si Si3 0.401352 0.778442 0.500000
Si Si4 0.000000 0.641087 0.250000
Si Si5 0.627319 0.367452 0.296047
O O1 0.271748 0.755629 0.500000
O O2 0.145532 0.817041 0.673381
O O3 0.020426 0.755231 0.500000
O O4 0.858876 0.500000 0.750000
O O5 0.714883 0.587364 0.735456
O O6 0.915316 0.599561 0.834838
O O7 0.770829 0.541111 0.000000
O O8 0.418000 0.819002 0.652148
O O9 0.500000 0.384926 0.250000
O O10 0.637899 0.359070 0.500000
#
# Coordination Sequence:
#
# PCOD9529359 Si02
#       5
#     8  16   8   8  16
#     4  12  28  54  79 114 157 214 268 340 400 473
#     4  11  26  44  75 112 152 201 257 322 411 476
#     4  12  30  48  80 110 157 208 275 328 410 467
#     4  12  25  48  72 110 154 200 257 332 384 496
#     4  11  25  47  79 111 155 205 262 330 397 480
#
# _framework density 23.669098000000002
#
# number of rings (size 3 to 8) (size 9 to 14) (size 15 to 20)
#    0.000    0.571    5.714    0.429    6.000    5.143 
#    0.000    2.857    0.000    0.000    0.000    0.000 
#    0.000    0.000    0.000    0.000    0.000    0.000 
#
# Total GULP energy -156009.797058 kJ/mol
# GULP energy per Si atom -5571.778466 kJ/mol
# Density = 2.361523 g / cm^3
# Si number density = 23.669098 Si / 1000 Ang^3
#
#
#
# Elastic Constant Matrix: (Units=GPa)
#
#
# Indices 1 2 3 4 5 6 
#
# 1 185.9980 47.6163 14.1959 0.0004 -0.0003 0.0000
# 2 47.6163 102.4090 32.8984 -0.0001 0.0006 0.0001
# 3 14.1959 32.8984 97.1371 -0.0019 0.0031 0.0007
# 4 0.0004 -0.0001 -0.0019 -0.1437 0.0015 0.0002
# 5 -0.0003 0.0006 0.0031 0.0015 25.2201 -0.0005
# 6 0.0000 0.0001 0.0007 0.0002 -0.0005 30.7700
#
#
#
# Elastic Compliance Matrix: (Units=1/GPa)
#
#
# Indices 1 2 3 4 5 6 
#
# 1 0.006103 -0.002863 0.000078 0.000016 0.000000 0.000000
# 2 -0.002863 0.012300 -0.003747 0.000036 0.000000 0.000000
# 3 0.000078 -0.003747 0.011553 -0.000149 -0.000001 0.000000
# 4 0.000016 0.000036 -0.000149 -6.957351 0.000412 0.000056
# 5 0.000000 0.000000 -0.000001 0.000412 0.039651 0.000001
# 6 0.000000 0.000000 0.000000 0.000056 0.000001 0.032499
#
#
# Mechanical properties :
#
#
# Convention : Reuss Voigt Hill
#
# Bulk Modulus (GPa) = 59.20439 63.88504 61.54472
# Shear Modulus (GPa) = -0.73136 30.55815 14.91340
#
# Velocity S-wave (km/s) = -0.55648 3.59703 2.51286
# Velocity P-wave (km/s) = 4.96536 6.65590 5.87179
#
# Compressibility (1/GPa) = 0.01689064
#
# Stress axis : x y z
#
# Youngs Moduli (GPa) = 163.84418 81.30318 86.56124
#
# Poissons Ratio (x) = 0.23275 -0.00672
# Poissons Ratio (y) = 0.46905 0.32437
# Poissons Ratio (z) = -0.01271 0.30467
#
# Static dielectric constant tensor:
#      x y z
#    x 1.881140 0.000000 0.000000 
#    y 0.000000 2.004170 0.000010 
#    z 0.000000 0.000010 1.646960 
# 
# From -- ./inp_files/2430.got.cif
#   From: 2010.05.17/outbox.cif.g08.bks.cpg/sg72_2_cif.got.tgz:2430.got - 2010.06.03 17:03:01.
