data_PCOD9529608
_publ_section_title
;
Structure prediction by ZEFSAII (Michael W. Deem and Ramdas Pophale) SiO2 
 PCOD9529608
Probable space group: I B C A 
;
_chemical_formula_sum "Si O2"
_cell_formula_units_Z 96
_cell_length_a 16.367378
_cell_length_b 18.491784
_cell_length_c 13.872115
_cell_angle_alpha 90.000000
_cell_angle_beta 90.000000
_cell_angle_gamma 90.000000
_cell_volume 4198.562328
_symmetry_space_group_name_H-M "I B C A "
_symmetry_group_IT_number 73
_symmetry_cell_setting 'orthorhombic'
loop_
_space_group_symop_operation_xyz
x,y,z
-x,1/2-y,z
x,-y,1/2-z
1/2-x,y,-z
-x,-y,-z
x,1/2+y,-z
-x,y,1/2+z
1/2+x,-y,z
1/2+x,1/2+y,1/2+z
1/2-x,-y,1/2+z
1/2+x,1/2-y,-z
-x,1/2+y,1/2-z
1/2-x,1/2-y,1/2-z
1/2+x,y,1/2-z
1/2-x,1/2+y,z
x,1/2-y,1/2+z
loop_
_atom_site_type_symbol
_atom_site_label
_atom_site_fract_x
_atom_site_fract_y
_atom_site_fract_z
Si Si1 0.500000 0.750000 0.621527
Si Si2 0.425832 0.353622 0.720682
Si Si3 0.787265 0.260093 0.857152
Si Si4 0.204072 0.998314 0.412230
Si Si5 0.161697 0.500000 0.250000
Si Si6 0.890808 0.126103 0.824032
Si Si7 0.637392 0.652518 0.594284
O O1 0.441498 0.703995 0.693269
O O2 0.554516 0.692607 0.564652
O O3 0.356388 0.321258 0.652235
O O4 0.394133 0.429392 0.763096
O O5 0.512578 0.362190 0.668066
O O6 0.750000 0.250000 0.750000
O O7 0.835504 0.186180 0.877604
O O8 0.709883 0.289728 0.914563
O O9 0.250000 0.036618 0.500000
O O10 0.276329 0.983431 0.336785
O O11 0.162746 0.924250 0.448727
O O12 0.137953 0.049040 0.362043
O O13 0.873416 0.133958 0.709104
#
# Coordination Sequence:
#
# PCOD9529608 Si02
#       7
#     8  16  16  16   8  16  16
#     4  10  20  32  64 102 124 162 220 274 336 390
#     4  11  19  33  62 100 124 167 216 273 332 404
#     4  10  15  32  59  92 124 159 215 264 321 396
#     4  12  25  43  63  93 133 177 227 273 336 412
#     4  12  24  38  68  94 124 174 222 264 346 408
#     4  10  20  35  62  94 127 165 216 272 333 395
#     4  10  19  36  63  94 126 164 217 272 326 400
#
# _framework density 22.864968999999999
#
# number of rings (size 3 to 8) (size 9 to 14) (size 15 to 20)
#    0.000    1.333    8.333    1.000    4.667    0.000 
#    0.000    1.667    0.000    1.000    0.000    0.000 
#    0.000    0.000    0.000    0.000    0.000    0.000 
#
# Total GULP energy -268376.997947 kJ/mol
# GULP energy per Si atom -5591.187457 kJ/mol
# Density = 2.281293 g / cm^3
# Si number density = 22.864969 Si / 1000 Ang^3
#
#
#
# Elastic Constant Matrix: (Units=GPa)
#
#
# Indices 1 2 3 4 5 6 
#
# 1 142.7307 48.1134 7.8252 0.0000 0.0000 0.0000
# 2 48.1134 136.6222 -5.6232 0.0000 0.0000 0.0000
# 3 7.8252 -5.6232 43.9604 0.0000 0.0000 0.0000
# 4 0.0000 0.0000 0.0000 11.3762 0.0000 0.0000
# 5 0.0000 0.0000 0.0000 0.0000 5.8492 0.0000
# 6 0.0000 0.0000 0.0000 0.0000 0.0000 43.2759
#
#
#
# Elastic Compliance Matrix: (Units=1/GPa)
#
#
# Indices 1 2 3 4 5 6 
#
# 1 0.008091 -0.002924 -0.001814 0.000000 0.000000 0.000000
# 2 -0.002924 0.008415 0.001597 0.000000 0.000000 0.000000
# 3 -0.001814 0.001597 0.023275 0.000000 0.000000 0.000000
# 4 0.000000 0.000000 0.000000 0.087902 0.000000 0.000000
# 5 0.000000 0.000000 0.000000 0.000000 0.170965 0.000000
# 6 0.000000 0.000000 0.000000 0.000000 0.000000 0.023108
#
#
# Mechanical properties :
#
#
# Convention : Reuss Voigt Hill
#
# Bulk Modulus (GPa) = 29.85241 47.10490 38.47866
# Shear Modulus (GPa) = 14.74033 30.30011 22.52022
#
# Velocity S-wave (km/s) = 2.54179 3.64425 3.14175
# Velocity P-wave (km/s) = 4.65817 6.19302 5.47960
#
# Compressibility (1/GPa) = 0.03349813
#
# Stress axis : x y z
#
# Youngs Moduli (GPa) = 123.58816 118.83586 42.96458
#
# Poissons Ratio (x) = 0.34750 0.07795
# Poissons Ratio (y) = 0.36139 -0.06861
# Poissons Ratio (z) = 0.22423 -0.18977
#
# Static dielectric constant tensor:
#      x y z
#    x 1.827740 0.000000 0.000000 
#    y 0.000000 1.841810 0.000000 
#    z 0.000000 0.000000 1.917380 
# 
# From -- ./inp_files/22570.got.cif
#   From: 2010.05.17/outbox.cif.g08.bks.cpg/sg73_12_cif.got.tgz:22570.got - 2010.06.03 17:35:07.
