data_PCOD9529788
_publ_section_title
;
Structure prediction by ZEFSAII (Michael W. Deem and Ramdas Pophale) SiO2 
 PCOD9529788
Probable space group: I B C A 
;
_chemical_formula_sum "Si O2"
_cell_formula_units_Z 104
_cell_length_a 22.352370
_cell_length_b 9.722118
_cell_length_c 23.633843
_cell_angle_alpha 90.000000
_cell_angle_beta 90.000000
_cell_angle_gamma 90.000000
_cell_volume 5135.926641
_symmetry_space_group_name_H-M "I B C A "
_symmetry_group_IT_number 73
_symmetry_cell_setting 'orthorhombic'
loop_
_space_group_symop_operation_xyz
x,y,z
-x,1/2-y,z
x,-y,1/2-z
1/2-x,y,-z
-x,-y,-z
x,1/2+y,-z
-x,y,1/2+z
1/2+x,-y,z
1/2+x,1/2+y,1/2+z
1/2-x,-y,1/2+z
1/2+x,1/2-y,-z
-x,1/2+y,1/2-z
1/2-x,1/2-y,1/2-z
1/2+x,y,1/2-z
1/2-x,1/2+y,z
x,1/2-y,1/2+z
loop_
_atom_site_type_symbol
_atom_site_label
_atom_site_fract_x
_atom_site_fract_y
_atom_site_fract_z
Si Si1 0.739626 0.749362 0.140778
Si Si2 0.724715 0.999748 0.437403
Si Si3 0.500000 0.750000 0.892918
Si Si4 0.442832 0.016180 0.187302
Si Si5 0.398568 0.781800 0.672721
Si Si6 0.903583 0.551165 0.103209
Si Si7 0.356555 0.747980 0.296657
O O1 0.752889 0.623726 0.100594
O O2 0.670480 0.756725 0.156445
O O3 0.785219 0.747988 0.193667
O O4 0.749978 0.874694 0.098536
O O5 0.750000 0.997657 0.500000
O O6 0.652213 0.992545 0.435854
O O7 0.525160 0.871864 0.852297
O O8 0.548855 0.656242 0.925681
O O9 0.379524 0.095222 0.196885
O O10 0.470947 0.000000 0.250000
O O11 0.433585 0.861910 0.164784
O O12 0.389372 0.806099 0.740040
O O13 0.422842 0.910627 0.636204
O O14 0.878853 0.649665 0.153080
#
# Coordination Sequence:
#
# PCOD9529788 Si02
#       7
#    16  16   8  16  16  16  16
#     4  10  19  31  52  79 106 140 173 214 279 333
#     4  10  20  35  53  78 105 134 178 230 279 333
#     4  10  20  36  50  70 106 148 186 230 270 314
#     4   9  19  30  46  70 104 147 189 221 254 302
#     4  10  18  30  48  78 110 140 180 219 257 324
#     4   9  20  33  51  75 104 143 184 221 271 321
#     4   9  17  31  47  73 112 147 173 211 263 327
#
# _framework density 20.249511999999999
#
# number of rings (size 3 to 8) (size 9 to 14) (size 15 to 20)
#    0.000    2.462    0.000    2.308    0.000    4.308 
#    0.000    4.615    0.000    0.000    0.000   38.769 
#    0.000    0.000    0.000    0.000    0.000    0.462 
#
# Total GULP energy -289473.625571 kJ/mol
# GULP energy per Si atom -5566.800492 kJ/mol
# Density = 2.020342 g / cm^3
# Si number density = 20.249512 Si / 1000 Ang^3
#
#
#
# Elastic Constant Matrix: (Units=GPa)
#
#
# Indices 1 2 3 4 5 6 
#
# 1 44.0435 23.7209 7.3949 0.0000 0.0000 0.0000
# 2 23.7209 156.2439 16.9762 0.0000 0.0000 0.0000
# 3 7.3949 16.9762 49.6074 0.0000 0.0000 0.0000
# 4 0.0000 0.0000 0.0000 7.3633 0.0000 0.0000
# 5 0.0000 0.0000 0.0000 0.0000 11.7025 0.0000
# 6 0.0000 0.0000 0.0000 0.0000 0.0000 27.3929
#
#
#
# Elastic Compliance Matrix: (Units=1/GPa)
#
#
# Indices 1 2 3 4 5 6 
#
# 1 0.025027 -0.003525 -0.002524 0.000000 0.000000 0.000000
# 2 -0.003525 0.007144 -0.001919 0.000000 0.000000 0.000000
# 3 -0.002524 -0.001919 0.021191 0.000000 0.000000 0.000000
# 4 0.000000 0.000000 0.000000 0.135808 0.000000 0.000000
# 5 0.000000 0.000000 0.000000 0.000000 0.085452 0.000000
# 6 0.000000 0.000000 0.000000 0.000000 0.000000 0.036506
#
#
# Mechanical properties :
#
#
# Convention : Reuss Voigt Hill
#
# Bulk Modulus (GPa) = 26.72028 38.45320 32.58674
# Shear Modulus (GPa) = 14.72575 22.74527 18.73551
#
# Velocity S-wave (km/s) = 2.69962 3.35513 3.04506
# Velocity P-wave (km/s) = 4.78972 5.83439 5.33767
#
# Compressibility (1/GPa) = 0.03742476
#
# Stress axis : x y z
#
# Youngs Moduli (GPa) = 39.95624 139.97769 47.18905
#
# Poissons Ratio (x) = 0.49347 0.11912
# Poissons Ratio (y) = 0.14086 0.09057
# Poissons Ratio (z) = 0.10087 0.26865
#
# Static dielectric constant tensor:
#      x y z
#    x 1.842380 0.000000 0.000000 
#    y 0.000000 1.702160 0.000000 
#    z 0.000000 0.000000 1.711230 
# 
# From -- ./inp_files/30472.got.cif
#   From: 2010.05.17/outbox.cif.g08.bks.cpg/sg73_16_cif.got.tgz:30472.got - 2010.06.03 17:35:07.
