data_PCOD9529718
_publ_section_title
;
Structure prediction by ZEFSAII (Michael W. Deem and Ramdas Pophale) SiO2 
 PCOD9529718
Probable space group: I B C A 
;
_chemical_formula_sum "Si O2"
_cell_formula_units_Z 56
_cell_length_a 18.123844
_cell_length_b 18.043392
_cell_length_c 5.692303
_cell_angle_alpha 90.000000
_cell_angle_beta 90.000000
_cell_angle_gamma 90.000000
_cell_volume 1861.472005
_symmetry_space_group_name_H-M "I B C A "
_symmetry_group_IT_number 73
_symmetry_cell_setting 'orthorhombic'
loop_
_space_group_symop_operation_xyz
x,y,z
-x,1/2-y,z
x,-y,1/2-z
1/2-x,y,-z
-x,-y,-z
x,1/2+y,-z
-x,y,1/2+z
1/2+x,-y,z
1/2+x,1/2+y,1/2+z
1/2-x,-y,1/2+z
1/2+x,1/2-y,-z
-x,1/2+y,1/2-z
1/2-x,1/2-y,1/2-z
1/2+x,y,1/2-z
1/2-x,1/2+y,z
x,1/2-y,1/2+z
loop_
_atom_site_type_symbol
_atom_site_label
_atom_site_fract_x
_atom_site_fract_y
_atom_site_fract_z
Si Si1 0.874492 0.000000 0.250000
Si Si2 0.668846 0.773081 0.074163
Si Si3 0.663833 0.078109 0.147053
Si Si4 0.995790 0.878229 0.131914
O O1 0.819787 0.938220 0.372896
O O2 0.931932 0.940896 0.130151
O O3 0.635026 0.730718 0.306926
O O4 0.680302 0.854180 0.183269
O O5 0.750000 0.742195 0.000000
O O6 0.574787 0.081800 0.118105
O O7 0.680935 0.000000 0.250000
O O8 0.004556 0.837389 0.381776
#
# Coordination Sequence:
#
# PCOD9529718 Si02
#       4
#     8  16  16  16
#     4  10  18  32  56 106 138 168 200 274 342 426
#     4  10  25  48  67  87 128 183 230 280 352 417
#     4  11  20  35  68 101 127 168 231 282 334 403
#     4  10  17  30  51  93 135 169 196 256 329 419
#
# _framework density 30.08372
#
# number of rings (size 3 to 8) (size 9 to 14) (size 15 to 20)
#    0.000    1.714    4.286    1.714    4.000    0.000 
#    0.000    4.286    0.000   20.571    0.000    0.000 
#    0.000    0.000    0.000    0.000    0.000    0.000 
#
# Total GULP energy -155872.966875 kJ/mol
# GULP energy per Si atom -5566.891674 kJ/mol
# Density = 3.001525 g / cm^3
# Si number density = 30.083720 Si / 1000 Ang^3
#
#
#
# Elastic Constant Matrix: (Units=GPa)
#
#
# Indices 1 2 3 4 5 6 
#
# 1 68.4800 13.2169 26.2505 0.0000 0.0000 0.0000
# 2 13.2169 198.4451 104.9781 0.0000 0.0000 0.0000
# 3 26.2505 104.9781 325.7168 0.0000 0.0000 0.0000
# 4 0.0000 0.0000 0.0000 70.5295 0.0000 0.0000
# 5 0.0000 0.0000 0.0000 0.0000 48.5083 0.0000
# 6 0.0000 0.0000 0.0000 0.0000 0.0000 29.9697
#
#
#
# Elastic Compliance Matrix: (Units=1/GPa)
#
#
# Indices 1 2 3 4 5 6 
#
# 1 0.015100 -0.000436 -0.001076 0.000000 0.000000 0.000000
# 2 -0.000436 0.006088 -0.001927 0.000000 0.000000 0.000000
# 3 -0.001076 -0.001927 0.003778 0.000000 0.000000 0.000000
# 4 0.000000 0.000000 0.000000 0.014178 0.000000 0.000000
# 5 0.000000 0.000000 0.000000 0.000000 0.020615 0.000000
# 6 0.000000 0.000000 0.000000 0.000000 0.000000 0.033367
#
#
# Mechanical properties :
#
#
# Convention : Reuss Voigt Hill
#
# Bulk Modulus (GPa) = 55.29093 97.94810 76.61952
# Shear Modulus (GPa) = 47.15507 59.68127 53.41817
#
# Velocity S-wave (km/s) = 3.96341 4.45886 4.21842
# Velocity P-wave (km/s) = 6.27406 7.69011 7.01789
#
# Compressibility (1/GPa) = 0.01808615
#
# Stress axis : x y z
#
# Youngs Moduli (GPa) = 66.22699 164.26988 264.69631
#
# Poissons Ratio (x) = 0.07167 0.28489
# Poissons Ratio (y) = 0.02889 0.51003
# Poissons Ratio (z) = 0.07128 0.31652
#
# Static dielectric constant tensor:
#      x y z
#    x 2.524580 0.000000 0.000000 
#    y 0.000000 2.276540 0.000000 
#    z 0.000000 0.000000 3.028030 
# 
# From -- ./inp_files/1440.got.cif
#   From: 2010.05.17/outbox.cif.g08.bks.cpg/sg73_1_cif.got.tgz:1440.got - 2010.06.03 17:35:07.
