data_PCOD9529176
_publ_section_title
;
Structure prediction by ZEFSAII (Michael W. Deem and Ramdas Pophale) SiO2 
 PCOD9529176
Probable space group: I B A M
;
_chemical_formula_sum "Si O2"
_cell_formula_units_Z 96
_cell_length_a 8.975760
_cell_length_b 16.663752
_cell_length_c 28.804204
_cell_angle_alpha 90.000000
_cell_angle_beta 90.000000
_cell_angle_gamma 90.000000
_cell_volume 4308.240145
_symmetry_space_group_name_H-M "I B A M"
_symmetry_group_IT_number 72
_symmetry_cell_setting 'orthorhombic'
loop_
_space_group_symop_operation_xyz
x,y,z
-x,-y,z
x,-y,1/2-z
-x,y,1/2-z
-x,-y,-z
x,y,-z
-x,y,1/2+z
x,-y,1/2+z
1/2+x,1/2+y,1/2+z
1/2-x,1/2-y,1/2+z
1/2+x,1/2-y,-z
1/2-x,1/2+y,-z
1/2-x,1/2-y,1/2-z
1/2+x,1/2+y,1/2-z
1/2-x,1/2+y,z
1/2+x,1/2-y,z
loop_
_atom_site_type_symbol
_atom_site_label
_atom_site_fract_x
_atom_site_fract_y
_atom_site_fract_z
Si Si1 0.237286 0.258011 0.553312
Si Si2 0.144600 0.328692 0.651827
Si Si3 0.987715 0.136072 0.948623
Si Si4 0.920711 0.412047 0.296040
Si Si5 0.077448 0.078394 0.145452
Si Si6 0.382451 0.323795 0.207559
O O1 0.189564 0.281156 0.500000
O O2 0.173305 0.300639 0.599400
O O3 0.180862 0.166571 0.558341
O O4 0.410403 0.282947 0.554084
O O5 0.254501 0.404551 0.659245
O O6 0.184210 0.261289 0.690661
O O7 0.978337 0.358771 0.661204
O O8 0.055090 0.080180 0.909529
O O9 0.004173 0.102581 0.000000
O O10 0.746835 0.391512 0.288399
O O11 0.000000 0.500000 0.300632
O O12 0.000000 0.378553 0.250000
O O13 0.983302 0.153133 0.163512
O O14 0.000000 0.000000 0.165468
O O15 0.500000 0.321450 0.250000
#
# Coordination Sequence:
#
# PCOD9529176 Si02
#       6
#    16  16  16  16  16  16
#     4   9  18  33  58  89 123 162 208 264 318 369
#     4  11  22  40  64  93 127 166 217 270 313 375
#     4   9  18  34  56  85 119 158 206 259 316 378
#     4  11  25  44  63  89 128 169 208 255 324 387
#     4  11  23  38  58  90 126 165 209 259 326 382
#     4  12  25  41  67  94 124 163 215 267 316 374
#
# _framework density 22.282882000000001
#
# number of rings (size 3 to 8) (size 9 to 14) (size 15 to 20)
#    0.000    1.500    1.667    3.500    2.333    4.000 
#    0.000    0.000    0.000    0.500    0.000    0.000 
#    0.000    0.000    0.000    0.000    0.000    0.167 
#
# Total GULP energy -267382.205678 kJ/mol
# GULP energy per Si atom -5570.462618 kJ/mol
# Density = 2.223216 g / cm^3
# Si number density = 22.282882 Si / 1000 Ang^3
#
#
#
# Elastic Constant Matrix: (Units=GPa)
#
#
# Indices 1 2 3 4 5 6 
#
# 1 108.3584 38.5321 38.2555 0.0000 0.0000 0.0000
# 2 38.5321 74.3630 19.8552 0.0000 0.0000 0.0000
# 3 38.2555 19.8552 93.6922 0.0000 0.0000 0.0000
# 4 0.0000 0.0000 0.0000 12.5170 0.0000 0.0000
# 5 0.0000 0.0000 0.0000 0.0000 29.3392 0.0000
# 6 0.0000 0.0000 0.0000 0.0000 0.0000 20.3661
#
#
#
# Elastic Compliance Matrix: (Units=1/GPa)
#
#
# Indices 1 2 3 4 5 6 
#
# 1 0.012572 -0.005452 -0.003978 0.000000 0.000000 0.000000
# 2 -0.005452 0.016619 -0.001296 0.000000 0.000000 0.000000
# 3 -0.003978 -0.001296 0.012572 0.000000 0.000000 0.000000
# 4 0.000000 0.000000 0.000000 0.079891 0.000000 0.000000
# 5 0.000000 0.000000 0.000000 0.000000 0.034084 0.000000
# 6 0.000000 0.000000 0.000000 0.000000 0.000000 0.049101
#
#
# Mechanical properties :
#
#
# Convention : Reuss Voigt Hill
#
# Bulk Modulus (GPa) = 49.23384 52.18881 50.71132
# Shear Modulus (GPa) = 21.45365 24.42917 22.94141
#
# Velocity S-wave (km/s) = 3.10625 3.31466 3.21215
# Velocity P-wave (km/s) = 5.91675 6.17424 6.04686
#
# Compressibility (1/GPa) = 0.02031123
#
# Stress axis : x y z
#
# Youngs Moduli (GPa) = 79.54355 60.17368 79.54194
#
# Poissons Ratio (x) = 0.32807 0.31640
# Poissons Ratio (y) = 0.43368 0.10306
# Poissons Ratio (z) = 0.31641 0.07796
#
# Static dielectric constant tensor:
#      x y z
#    x 1.847770 0.000000 0.000000 
#    y 0.000000 1.859420 0.000000 
#    z 0.000000 0.000000 1.836760 
# 
# From -- ./inp_files/47484.got.cif
#   From: 2010.05.17/outbox.cif.g08.bks.cpg/sg72_24_cif.got.tgz:47484.got - 2010.06.03 17:03:01.
