data_PCOD9529583
_publ_section_title
;
Structure prediction by ZEFSAII (Michael W. Deem and Ramdas Pophale) SiO2 
 PCOD9529583
Probable space group: I B A M
;
_chemical_formula_sum "Si O2"
_cell_formula_units_Z 40
_cell_length_a 9.000000
_cell_length_b 18.000000
_cell_length_c 27.000000
_cell_angle_alpha 90.000000
_cell_angle_beta 90.000000
_cell_angle_gamma 90.000000
_cell_volume 4374.000000
_symmetry_space_group_name_H-M "I B A M"
_symmetry_group_IT_number 72
_symmetry_cell_setting 'orthorhombic'
loop_
_space_group_symop_operation_xyz
x,y,z
-x,-y,z
x,-y,1/2-z
-x,y,1/2-z
-x,-y,-z
x,y,-z
-x,y,1/2+z
x,-y,1/2+z
1/2+x,1/2+y,1/2+z
1/2-x,1/2-y,1/2+z
1/2+x,1/2-y,-z
1/2-x,1/2+y,-z
1/2-x,1/2-y,1/2-z
1/2+x,1/2+y,1/2-z
1/2-x,1/2+y,z
1/2+x,1/2-y,z
loop_
_atom_site_type_symbol
_atom_site_label
_atom_site_fract_x
_atom_site_fract_y
_atom_site_fract_z
Si Si1 0.430307 0.921774 0.613553
Si Si2 0.406051 0.688736 0.000000
Si Si3 0.158923 0.297494 0.087372
Si Si4 0.000000 0.236974 0.250000
Si Si5 0.193926 0.104985 0.500000
Si Si6 0.679594 0.937282 0.000000
Si Si7 0.241348 0.309751 0.676338
O O1 0.547165 0.854198 0.613496
O O2 0.394761 0.935133 0.554855
O O3 0.298390 0.887454 0.647939
O O4 0.500000 0.000000 0.631634
O O5 0.417965 0.739308 0.950945
O O6 0.252456 0.644843 0.000000
O O7 0.520108 0.620803 0.000000
O O8 0.248747 0.350526 0.048805
O O9 0.238612 0.249980 0.130830
O O10 0.891697 0.284703 0.213624
O O11 0.889056 0.192885 0.288246
O O12 0.238836 0.018387 0.500000
#
# Coordination Sequence:
#
# PCOD9529583 Si02
#       7
#    16   8  16   8   8   8  16
#     4  12  23  40  64  96 131 174 213 257 323 394
#     4  11  23  34  56  94 123 174 216 252 311 386
#     4  11  22  37  64  93 127 168 213 260 312 394
#     4  10  24  42  71  99 122 154 228 282 332 368
#     4  11  23  36  55  92 141 169 203 253 311 390
#     4  12  22  39  57  91 141 169 209 251 311 389
#     4  11  22  43  70  98 123 169 216 280 325 387
#
# _framework density 9.1449470000000002
#
# number of rings (size 3 to 8) (size 9 to 14) (size 15 to 20)
#    0.000    0.800    6.000    3.000    2.800    0.000 
#    0.000    0.500    0.000    1.200    0.000    0.000 
#    0.000    0.000    0.000    0.000    0.000    0.000 
#
# Total GULP energy -222873.852005 kJ/mol
# GULP energy per Si atom -5571.846300 kJ/mol
# Density = 0.912413 g / cm^3
# Si number density = 9.144947 Si / 1000 Ang^3
#
#
#
# Elastic Constant Matrix: (Units=GPa)
#
#
# Indices 1 2 3 4 5 6 
#
# 1 62.4691 33.3291 35.5168 0.0000 0.0000 0.0000
# 2 33.3291 134.3846 35.6019 0.0000 0.0000 0.0000
# 3 35.5168 35.6019 122.2276 0.0000 0.0000 0.0000
# 4 0.0000 0.0000 0.0000 8.0449 0.0000 0.0000
# 5 0.0000 0.0000 0.0000 0.0000 31.1079 0.0000
# 6 0.0000 0.0000 0.0000 0.0000 0.0000 44.0249
#
#
#
# Elastic Compliance Matrix: (Units=1/GPa)
#
#
# Indices 1 2 3 4 5 6 
#
# 1 0.020882 -0.003870 -0.004941 0.000000 0.000000 0.000000
# 2 -0.003870 0.008781 -0.001433 0.000000 0.000000 0.000000
# 3 -0.004941 -0.001433 0.010034 0.000000 0.000000 0.000000
# 4 0.000000 0.000000 0.000000 0.124302 0.000000 0.000000
# 5 0.000000 0.000000 0.000000 0.000000 0.032146 0.000000
# 6 0.000000 0.000000 0.000000 0.000000 0.000000 0.022714
#
#
# Mechanical properties :
#
#
# Convention : Reuss Voigt Hill
#
# Bulk Modulus (GPa) = 52.05717 58.66408 55.36062
# Shear Modulus (GPa) = 20.34591 30.94446 25.64518
#
# Velocity S-wave (km/s) = 3.33890 4.11772 3.74859
# Velocity P-wave (km/s) = 6.58699 7.39944 7.00500
#
# Compressibility (1/GPa) = 0.01920965
#
# Stress axis : x y z
#
# Youngs Moduli (GPa) = 47.88900 113.88475 99.65630
#
# Poissons Ratio (x) = 0.44074 0.49235
# Poissons Ratio (y) = 0.18533 0.14282
# Poissons Ratio (z) = 0.23660 0.16321
#
# Static dielectric constant tensor:
#      x y z
#    x 1.748700 0.000000 0.000000 
#    y 0.000000 1.598940 0.000000 
#    z 0.000000 0.000000 1.616620 
# 
# From -- ./inp_files/47243.got.cif
#   From: 2010.05.17/outbox.ucp.g08.bks.cvg/sg72_24_cif.got.tgz:47243.got - 2010.06.11 16:33:07.
