data_PCOD9529527
_publ_section_title
;
Structure prediction by ZEFSAII (Michael W. Deem and Ramdas Pophale) SiO2 
 PCOD9529527
Probable space group: I B A M
;
_chemical_formula_sum "Si O2"
_cell_formula_units_Z 58
_cell_length_a 24.000000
_cell_length_b 27.000000
_cell_length_c 9.000000
_cell_angle_alpha 90.000000
_cell_angle_beta 90.000000
_cell_angle_gamma 90.000000
_cell_volume 5832.000000
_symmetry_space_group_name_H-M "I B A M"
_symmetry_group_IT_number 72
_symmetry_cell_setting 'orthorhombic'
loop_
_space_group_symop_operation_xyz
x,y,z
-x,-y,z
x,-y,1/2-z
-x,y,1/2-z
-x,-y,-z
x,y,-z
-x,y,1/2+z
x,-y,1/2+z
1/2+x,1/2+y,1/2+z
1/2-x,1/2-y,1/2+z
1/2+x,1/2-y,-z
1/2-x,1/2+y,-z
1/2-x,1/2-y,1/2-z
1/2+x,1/2+y,1/2-z
1/2-x,1/2+y,z
1/2+x,1/2-y,z
loop_
_atom_site_type_symbol
_atom_site_label
_atom_site_fract_x
_atom_site_fract_y
_atom_site_fract_z
Si Si1 0.868846 0.817656 0.321049
Si Si2 0.403742 0.421077 0.824618
Si Si3 0.441822 0.763080 0.824165
Si Si4 0.252785 0.696470 0.822871
Si Si5 0.000000 0.000000 0.750000
Si Si6 0.718279 0.450192 0.323998
Si Si7 0.678244 0.877601 0.323128
Si Si8 0.557183 0.881757 0.325663
O O1 0.864443 0.814183 0.500000
O O2 0.908890 0.863824 0.275789
O O3 0.893427 0.767703 0.253755
O O4 0.807916 0.827279 0.252351
O O5 0.454161 0.459429 0.806254
O O6 0.343809 0.438602 0.761809
O O7 0.395916 0.417222 0.000000
O O8 0.500000 0.747426 0.750000
O O9 0.437627 0.822218 0.803227
O O10 0.441844 0.753358 0.000000
O O11 0.250000 0.750000 0.750000
O O12 0.196419 0.669040 0.774147
O O13 0.258620 0.697884 0.000000
O O14 0.737419 0.500000 0.250000
O O15 0.711993 0.456436 0.500000
O O16 0.768489 0.412373 0.302348
O O17 0.674468 0.864704 0.500000
O O18 0.618526 0.900280 0.278731
O O19 0.500000 0.898691 0.250000
O O20 0.550959 0.891257 0.500000
#
# Coordination Sequence:
#
# PCOD9529527 Si02
#       8
#    16  16  16  16   4  16  16  16
#     4  11  22  39  57  79 115 156 199 253 310 360
#     4  10  22  39  58  81 111 151 195 250 314 364
#     4  10  20  35  53  80 113 153 200 242 293 359
#     4  12  24  37  57  87 120 158 200 247 302 366
#     4  12  22  40  60  86 116 152 208 264 322 384
#     4  10  20  39  62  86 117 152 194 246 304 362
#     4  10  20  38  61  85 117 156 195 241 301 361
#     4   9  19  35  58  84 115 151 189 232 282 344
#
# _framework density 9.9451300000000007
#
# number of rings (size 3 to 8) (size 9 to 14) (size 15 to 20)
#    0.000    1.655    2.069    3.103    0.966    2.759 
#    0.000    2.069    0.000    0.414    0.000    2.897 
#    0.000    0.000    0.000    0.000    0.000    0.000 
#
# Total GULP energy -323040.917980 kJ/mol
# GULP energy per Si atom -5569.671000 kJ/mol
# Density = 0.992249 g / cm^3
# Si number density = 9.945130 Si / 1000 Ang^3
#
#
#
# Elastic Constant Matrix: (Units=GPa)
#
#
# Indices 1 2 3 4 5 6 
#
# 1 105.7642 1.1534 49.7875 0.0000 0.0000 0.0000
# 2 1.1534 37.6220 33.1214 0.0000 0.0000 0.0000
# 3 49.7875 33.1214 35.6797 0.0000 0.0000 0.0000
# 4 0.0000 0.0000 0.0000 13.1867 0.0000 0.0000
# 5 0.0000 0.0000 0.0000 0.0000 29.7900 0.0000
# 6 0.0000 0.0000 0.0000 0.0000 0.0000 38.8544
#
#
#
# Elastic Compliance Matrix: (Units=1/GPa)
#
#
# Indices 1 2 3 4 5 6 
#
# 1 -0.003860 -0.025299 0.028871 0.000000 0.000000 0.000000
# 2 -0.025299 -0.020373 0.054215 0.000000 0.000000 0.000000
# 3 0.028871 0.054215 -0.062587 0.000000 0.000000 0.000000
# 4 0.000000 0.000000 0.000000 0.075834 0.000000 0.000000
# 5 0.000000 0.000000 0.000000 0.000000 0.033568 0.000000
# 6 0.000000 0.000000 0.000000 0.000000 0.000000 0.025737
#
#
# Mechanical properties :
#
#
# Convention : Reuss Voigt Hill
#
# Bulk Modulus (GPa) = 34.77845 38.57672 36.67759
# Shear Modulus (GPa) = -86.70047 22.69979 -32.00034
#
# Velocity S-wave (km/s) = -6.60939 3.38191 -4.01539
# Velocity P-wave (km/s) = 6.38140 5.88953 1.73719
#
# Compressibility (1/GPa) = 0.02875344
#
# Stress axis : x y z
#
# Youngs Moduli (GPa) = -259.07512 -49.08375 -15.97779
#
# Poissons Ratio (x) = -1.24176 0.46129
# Poissons Ratio (y) = -6.55431 0.86623
# Poissons Ratio (z) = 7.47976 2.66106
#
# Static dielectric constant tensor:
#      x y z
#    x 1.735980 0.000000 0.000000 
#    y 0.000000 1.775890 0.000000 
#    z 0.000000 0.000000 1.666350 
# 
# From -- ./inp_files/7334.got.cif
#   From: 2010.05.17/outbox.ucp.g08.bks.cvg/sg72_4_cif.got.tgz:7334.got - 2010.06.11 16:33:07.
