data_PCOD9529297
_publ_section_title
;
Structure prediction by ZEFSAII (Michael W. Deem and Ramdas Pophale) SiO2 
 PCOD9529297
Probable space group: I B A M
;
_chemical_formula_sum "Si O2"
_cell_formula_units_Z 52
_cell_length_a 14.995729
_cell_length_b 11.912986
_cell_length_c 13.763823
_cell_angle_alpha 90.000000
_cell_angle_beta 90.000000
_cell_angle_gamma 90.000000
_cell_volume 2458.823152
_symmetry_space_group_name_H-M "I B A M"
_symmetry_group_IT_number 72
_symmetry_cell_setting 'orthorhombic'
loop_
_space_group_symop_operation_xyz
x,y,z
-x,-y,z
x,-y,1/2-z
-x,y,1/2-z
-x,-y,-z
x,y,-z
-x,y,1/2+z
x,-y,1/2+z
1/2+x,1/2+y,1/2+z
1/2-x,1/2-y,1/2+z
1/2+x,1/2-y,-z
1/2-x,1/2+y,-z
1/2-x,1/2-y,1/2-z
1/2+x,1/2+y,1/2-z
1/2-x,1/2+y,z
1/2+x,1/2-y,z
loop_
_atom_site_type_symbol
_atom_site_label
_atom_site_fract_x
_atom_site_fract_y
_atom_site_fract_z
Si Si1 0.042149 0.872624 0.000000
Si Si2 0.864480 0.153970 0.205744
Si Si3 0.946672 0.377159 0.500000
Si Si4 0.000000 0.000000 0.250000
Si Si5 0.346478 0.885436 0.797022
O O1 0.097415 0.872224 0.899982
O O2 0.000000 0.000000 0.000000
O O3 0.995070 0.747219 0.000000
O O4 0.761224 0.121514 0.206232
O O5 0.876664 0.283022 0.230463
O O6 0.925069 0.088744 0.285685
O O7 0.885301 0.376422 0.404256
O O8 0.000000 0.500000 0.500000
O O9 0.377262 0.000000 0.750000
#
# Coordination Sequence:
#
# PCOD9529297 Si02
#       5
#     8  16   8   4  16
#     4  12  25  42  69 106 137 185 238 291 340 421
#     4  11  24  42  71 103 141 179 232 287 352 413
#     4  12  27  46  69 101 142 188 237 284 351 427
#     4  12  20  42  66 100 134 178 228 276 340 416
#     4  11  25  46  70 103 142 185 229 294 355 411
#
# _framework density 21.148329
#
# number of rings (size 3 to 8) (size 9 to 14) (size 15 to 20)
#    0.000    0.615    3.077    4.615    0.000    3.077 
#    0.000    4.615    0.000    0.000    0.000    0.000 
#    0.000    0.000    0.000    0.000    0.000    0.000 
#
# Total GULP energy -144816.894105 kJ/mol
# GULP energy per Si atom -5569.880542 kJ/mol
# Density = 2.110019 g / cm^3
# Si number density = 21.148329 Si / 1000 Ang^3
#
#
#
# Elastic Constant Matrix: (Units=GPa)
#
#
# Indices 1 2 3 4 5 6 
#
# 1 71.9628 52.9429 22.1022 0.0000 0.0000 0.0000
# 2 52.9429 212.0413 58.1152 0.0000 0.0000 0.0000
# 3 22.1022 58.1152 138.9062 0.0000 0.0000 0.0000
# 4 0.0000 0.0000 0.0000 45.6386 0.0000 0.0000
# 5 0.0000 0.0000 0.0000 0.0000 41.7554 0.0000
# 6 0.0000 0.0000 0.0000 0.0000 0.0000 35.7648
#
#
#
# Elastic Compliance Matrix: (Units=1/GPa)
#
#
# Indices 1 2 3 4 5 6 
#
# 1 0.017160 -0.003994 -0.001059 0.000000 0.000000 0.000000
# 2 -0.003994 0.006257 -0.001982 0.000000 0.000000 0.000000
# 3 -0.001059 -0.001982 0.008197 0.000000 0.000000 0.000000
# 4 0.000000 0.000000 0.000000 0.021911 0.000000 0.000000
# 5 0.000000 0.000000 0.000000 0.000000 0.023949 0.000000
# 6 0.000000 0.000000 0.000000 0.000000 0.000000 0.027960
#
#
# Mechanical properties :
#
#
# Convention : Reuss Voigt Hill
#
# Bulk Modulus (GPa) = 57.00530 76.58122 66.79326
# Shear Modulus (GPa) = 39.88741 43.94842 41.91792
#
# Velocity S-wave (km/s) = 4.34761 4.56357 4.45690
# Velocity P-wave (km/s) = 7.22605 8.00364 7.62477
#
# Compressibility (1/GPa) = 0.01754223
#
# Stress axis : x y z
#
# Youngs Moduli (GPa) = 58.27518 159.83180 121.99718
#
# Poissons Ratio (x) = 0.63840 0.12924
# Poissons Ratio (y) = 0.23276 0.24181
# Poissons Ratio (z) = 0.06173 0.31680
#
# Static dielectric constant tensor:
#      x y z
#    x 1.768960 0.000000 0.000000 
#    y 0.000000 1.821480 0.000000 
#    z 0.000000 0.000000 1.854370 
# 
# From -- ./inp_files/21079.got.cif
#   From: 2010.05.17/outbox.cif.g08.bks.cpg/sg72_11_cif.got.tgz:21079.got - 2010.06.03 17:03:01.
