data_PCOD9529000
_publ_section_title
;
Structure prediction by ZEFSAII (Michael W. Deem and Ramdas Pophale) SiO2 
 PCOD9529000
Probable space group: I B A M
;
_chemical_formula_sum "Si O2"
_cell_formula_units_Z 112
_cell_length_a 21.692537
_cell_length_b 15.516378
_cell_length_c 15.602901
_cell_angle_alpha 90.000000
_cell_angle_beta 90.000000
_cell_angle_gamma 90.000000
_cell_volume 5251.774267
_symmetry_space_group_name_H-M "I B A M"
_symmetry_group_IT_number 72
_symmetry_cell_setting 'orthorhombic'
loop_
_space_group_symop_operation_xyz
x,y,z
-x,-y,z
x,-y,1/2-z
-x,y,1/2-z
-x,-y,-z
x,y,-z
-x,y,1/2+z
x,-y,1/2+z
1/2+x,1/2+y,1/2+z
1/2-x,1/2-y,1/2+z
1/2+x,1/2-y,-z
1/2-x,1/2+y,-z
1/2-x,1/2-y,1/2-z
1/2+x,1/2+y,1/2-z
1/2-x,1/2+y,z
1/2+x,1/2-y,z
loop_
_atom_site_type_symbol
_atom_site_label
_atom_site_fract_x
_atom_site_fract_y
_atom_site_fract_z
Si Si1 0.299495 0.567343 0.399977
Si Si2 0.065938 0.234343 0.728599
Si Si3 0.760956 0.747293 0.351898
Si Si4 0.063310 0.957428 0.157177
Si Si5 0.839522 0.469131 0.346298
Si Si6 0.367515 0.144618 0.905865
Si Si7 0.126157 0.277797 0.902247
O O1 0.287404 0.559641 0.500000
O O2 0.301087 0.668425 0.374439
O O3 0.368060 0.529817 0.382585
O O4 0.235378 0.535857 0.356731
O O5 0.056751 0.144672 0.677323
O O6 0.099300 0.302796 0.668473
O O7 0.097043 0.224942 0.822599
O O8 0.000000 0.272035 0.750000
O O9 0.750000 0.750000 0.250000
O O10 0.796530 0.664342 0.383798
O O11 0.697384 0.751433 0.401339
O O12 0.067493 0.000000 0.250000
O O13 0.000000 0.000000 0.117805
O O14 0.851348 0.500000 0.250000
O O15 0.871607 0.542607 0.402289
O O16 0.868855 0.377429 0.371378
O O17 0.383941 0.177741 0.000000
O O18 0.101385 0.269436 0.000000
#
# Coordination Sequence:
#
# PCOD9529000 Si02
#       7
#    16  16  16  16  16  16  16
#     4  11  22  37  61  97 137 175 220 273 336 404
#     4  12  25  46  70  94 132 181 233 278 338 395
#     4  11  19  37  63  97 132 179 222 275 342 406
#     4  11  23  44  67  92 127 180 226 274 327 401
#     4  11  21  41  67 104 140 176 216 278 344 404
#     4  12  23  40  68 101 137 176 226 279 340 408
#     4  11  23  42  67  99 139 178 226 283 337 399
#
# _framework density 21.326125999999999
#
# number of rings (size 3 to 8) (size 9 to 14) (size 15 to 20)
#    0.000    0.714    5.714    4.714    0.000    2.000 
#    0.000    3.571    0.000    2.143    0.000    0.000 
#    0.000    0.000    0.000    0.000    0.000    0.000 
#
# Total GULP energy -312366.740951 kJ/mol
# GULP energy per Si atom -5577.977517 kJ/mol
# Density = 2.127759 g / cm^3
# Si number density = 21.326126 Si / 1000 Ang^3
#
#
#
# Elastic Constant Matrix: (Units=GPa)
#
#
# Indices 1 2 3 4 5 6 
#
# 1 48.8023 6.2307 3.3194 0.0000 0.0000 0.0000
# 2 6.2307 68.5086 -4.4187 0.0000 0.0000 0.0000
# 3 3.3194 -4.4187 121.4242 0.0000 0.0000 0.0000
# 4 0.0000 0.0000 0.0000 -69.4273 0.0000 0.0000
# 5 0.0000 0.0000 0.0000 0.0000 -156.0524 0.0000
# 6 0.0000 0.0000 0.0000 0.0000 0.0000 2.9986
#
#
#
# Elastic Compliance Matrix: (Units=1/GPa)
#
#
# Indices 1 2 3 4 5 6 
#
# 1 0.020781 -0.001931 -0.000638 0.000000 0.000000 0.000000
# 2 -0.001931 0.014811 0.000592 0.000000 0.000000 0.000000
# 3 -0.000638 0.000592 0.008275 0.000000 0.000000 0.000000
# 4 0.000000 0.000000 0.000000 -0.014404 0.000000 0.000000
# 5 0.000000 0.000000 0.000000 0.000000 -0.006408 0.000000
# 6 0.000000 0.000000 0.000000 0.000000 0.000000 0.333488
#
#
# Mechanical properties :
#
#
# Convention : Reuss Voigt Hill
#
# Bulk Modulus (GPa) = 25.05611 27.66641 26.36126
# Shear Modulus (GPa) = 13.37611 -28.92262 -7.77326
#
# Velocity S-wave (km/s) = 2.50715 -3.68667 -1.91125
# Velocity P-wave (km/s) = 4.48950 2.26292 2.74178
#
# Compressibility (1/GPa) = 0.03991042
#
# Stress axis : x y z
#
# Youngs Moduli (GPa) = 48.12131 67.51964 120.85209
#
# Poissons Ratio (x) = 0.13039 0.07715
# Poissons Ratio (y) = 0.09293 -0.07152
# Poissons Ratio (z) = 0.03072 -0.03996
#
# Static dielectric constant tensor:
#      x y z
#    x 1.825920 0.000000 0.000000 
#    y 0.000000 1.603710 0.000000 
#    z 0.000000 0.000000 1.811080 
# 
# From -- ./inp_files/25200.got.cif
#   From: 2010.05.17/outbox.cif.g08.bks.cpg/sg72_13_cif.got.tgz:25200.got - 2010.06.03 17:03:01.
