data_PCOD9529662
_publ_section_title
;
Structure prediction by ZEFSAII (Michael W. Deem and Ramdas Pophale) SiO2 
 PCOD9529662
Probable space group: I B C A 
;
_chemical_formula_sum "Si O2"
_cell_formula_units_Z 104
_cell_length_a 14.796306
_cell_length_b 19.497438
_cell_length_c 15.374180
_cell_angle_alpha 90.000000
_cell_angle_beta 90.000000
_cell_angle_gamma 90.000000
_cell_volume 4435.298093
_symmetry_space_group_name_H-M "I B C A "
_symmetry_group_IT_number 73
_symmetry_cell_setting 'orthorhombic'
loop_
_space_group_symop_operation_xyz
x,y,z
-x,1/2-y,z
x,-y,1/2-z
1/2-x,y,-z
-x,-y,-z
x,1/2+y,-z
-x,y,1/2+z
1/2+x,-y,z
1/2+x,1/2+y,1/2+z
1/2-x,-y,1/2+z
1/2+x,1/2-y,-z
-x,1/2+y,1/2-z
1/2-x,1/2-y,1/2-z
1/2+x,y,1/2-z
1/2-x,1/2+y,z
x,1/2-y,1/2+z
loop_
_atom_site_type_symbol
_atom_site_label
_atom_site_fract_x
_atom_site_fract_y
_atom_site_fract_z
Si Si1 0.250000 0.698538 0.500000
Si Si2 0.788709 0.521809 0.414495
Si Si3 0.361605 0.074393 0.324171
Si Si4 0.918500 0.090874 0.997589
Si Si5 0.478539 0.603590 0.832973
Si Si6 0.500000 0.250000 0.756049
Si Si7 0.618252 0.500000 0.750000
Si Si8 0.187768 0.231117 0.671691
O O1 0.341350 0.651435 0.489188
O O2 0.234583 0.746886 0.418218
O O3 0.750000 0.560883 0.500000
O O4 0.711498 0.473889 0.370069
O O5 0.864636 0.474410 0.460268
O O6 0.830790 0.546006 0.323424
O O7 0.439036 0.079038 0.399760
O O8 0.397408 0.069806 0.224767
O O9 0.317829 0.149056 0.326710
O O10 0.006060 0.102636 0.936889
O O11 0.484729 0.681864 0.800864
O O12 0.560293 0.556937 0.799077
O O13 0.411971 0.240310 0.815034
O O14 0.250000 0.250000 0.750000
#
# Coordination Sequence:
#
# PCOD9529662 Si02
#       8
#     8  16  16  16  16   8   8  16
#     4  10  16  32  58  80 104 162 208 234 282 372
#     4   9  16  34  57  81 102 152 206 246 288 364
#     4   9  18  34  56  83 111 151 196 243 301 366
#     4   9  15  32  59  80 107 149 206 238 282 366
#     4  10  21  37  54  87 118 154 191 255 309 355
#     4  10  22  36  58  84 126 156 190 252 314 360
#     4  10  22  34  60  82 116 156 198 262 296 362
#     4  10  19  33  56  86 112 150 200 252 293 362
#
# _framework density 23.448256000000001
#
# number of rings (size 3 to 8) (size 9 to 14) (size 15 to 20)
#    0.000    2.462    3.846    0.923    2.154    0.615 
#    0.000   25.385    1.692    0.000    0.000    0.000 
#    0.000    0.000    0.000    0.000    0.000    0.000 
#
# Total GULP energy -289600.376430 kJ/mol
# GULP energy per Si atom -5569.238008 kJ/mol
# Density = 2.339489 g / cm^3
# Si number density = 23.448256 Si / 1000 Ang^3
#
#
#
# Elastic Constant Matrix: (Units=GPa)
#
#
# Indices 1 2 3 4 5 6 
#
# 1 55.7673 -7.9770 28.7599 0.0000 0.0000 0.0000
# 2 -7.9770 31.0033 -20.7834 0.0000 0.0000 0.0000
# 3 28.7599 -20.7834 109.6407 0.0001 0.0000 0.0000
# 4 0.0000 0.0000 0.0001 12.2966 0.0000 0.0000
# 5 0.0000 0.0000 0.0000 0.0000 33.6114 0.0000
# 6 0.0000 0.0000 0.0000 0.0000 0.0000 2.0530
#
#
#
# Elastic Compliance Matrix: (Units=1/GPa)
#
#
# Indices 1 2 3 4 5 6 
#
# 1 0.020839 0.001944 -0.005098 0.000000 0.000000 0.000000
# 2 0.001944 0.037131 0.006529 0.000000 0.000000 0.000000
# 3 -0.005098 0.006529 0.011695 0.000000 0.000000 0.000000
# 4 0.000000 0.000000 0.000000 0.081323 0.000000 0.000000
# 5 0.000000 0.000000 0.000000 0.000000 0.029752 0.000000
# 6 0.000000 0.000000 0.000000 0.000000 0.000000 0.487097
#
#
# Mechanical properties :
#
#
# Convention : Reuss Voigt Hill
#
# Bulk Modulus (GPa) = 13.08620 21.82335 17.45478
# Shear Modulus (GPa) = 7.28270 22.68632 14.98451
#
# Velocity S-wave (km/s) = 1.76426 3.11385 2.53068
# Velocity P-wave (km/s) = 3.12140 4.71755 3.99990
#
# Compressibility (1/GPa) = 0.07641636
#
# Stress axis : x y z
#
# Youngs Moduli (GPa) = 47.98766 26.93136 85.50370
#
# Poissons Ratio (x) = -0.05237 0.43586
# Poissons Ratio (y) = -0.09331 -0.55821
# Poissons Ratio (z) = 0.24462 -0.17582
#
# Static dielectric constant tensor:
#      x y z
#    x 1.865380 0.000000 0.000000 
#    y 0.000000 1.980920 0.000000 
#    z 0.000000 0.000000 2.104050 
# 
# From -- ./inp_files/18242.got.cif
#   From: 2010.05.17/outbox.cif.g08.bks.cpg/sg73_10_cif.got.tgz:18242.got - 2010.06.03 17:35:07.
