data_PCOD9529233
_publ_section_title
;
Structure prediction by ZEFSAII (Michael W. Deem and Ramdas Pophale) SiO2 
 PCOD9529233
Probable space group: I B A M
;
_chemical_formula_sum "Si O2"
_cell_formula_units_Z 96
_cell_length_a 8.637706
_cell_length_b 19.131860
_cell_length_c 28.140372
_cell_angle_alpha 90.000000
_cell_angle_beta 90.000000
_cell_angle_gamma 90.000000
_cell_volume 4650.347922
_symmetry_space_group_name_H-M "I B A M"
_symmetry_group_IT_number 72
_symmetry_cell_setting 'orthorhombic'
loop_
_space_group_symop_operation_xyz
x,y,z
-x,-y,z
x,-y,1/2-z
-x,y,1/2-z
-x,-y,-z
x,y,-z
-x,y,1/2+z
x,-y,1/2+z
1/2+x,1/2+y,1/2+z
1/2-x,1/2-y,1/2+z
1/2+x,1/2-y,-z
1/2-x,1/2+y,-z
1/2-x,1/2-y,1/2-z
1/2+x,1/2+y,1/2-z
1/2-x,1/2+y,z
1/2+x,1/2-y,z
loop_
_atom_site_type_symbol
_atom_site_label
_atom_site_fract_x
_atom_site_fract_y
_atom_site_fract_z
Si Si1 0.861228 0.709306 0.785512
Si Si2 0.343638 0.348331 0.344028
Si Si3 0.712355 0.658521 0.051542
Si Si4 0.323927 0.027515 0.197767
Si Si5 0.310691 0.595844 0.651087
Si Si6 0.655465 0.687216 0.447835
O O1 0.750000 0.750000 0.750000
O O2 0.884035 0.769854 0.825523
O O3 0.785581 0.643421 0.811620
O O4 0.000000 0.689848 0.750000
O O5 0.220835 0.392067 0.312405
O O6 0.509640 0.385960 0.342555
O O7 0.284509 0.345076 0.398492
O O8 0.743506 0.614439 0.098197
O O9 0.529487 0.676952 0.053156
O O10 0.803867 0.731133 0.054035
O O11 0.744185 0.625409 0.000000
O O12 0.500000 0.000000 0.191231
O O13 0.278817 0.000000 0.250000
O O14 0.221455 0.984141 0.161155
O O15 0.711316 0.661257 0.500000
#
# Coordination Sequence:
#
# PCOD9529233 Si02
#       6
#    16  16  16  16  16  16
#     4  12  24  36  59  92 122 155 203 258 297 356
#     4  11  23  41  61  89 122 162 204 246 305 370
#     4   9  18  34  58  90 121 152 195 247 305 360
#     4  11  27  43  61  84 120 163 206 254 305 364
#     4  11  23  40  62  88 121 164 200 249 306 363
#     4   9  18  34  59  90 121 153 193 249 305 358
#
# _framework density 20.643616000000002
#
# number of rings (size 3 to 8) (size 9 to 14) (size 15 to 20)
#    0.000    1.500    3.333    1.500    4.667    2.000 
#    0.000    0.833    0.000    5.000    0.000    0.000 
#    0.000    0.000    0.000    0.000    0.000    0.000 
#
# Total GULP energy -267838.394419 kJ/mol
# GULP energy per Si atom -5579.966550 kJ/mol
# Density = 2.059663 g / cm^3
# Si number density = 20.643616 Si / 1000 Ang^3
#
#
#
# Elastic Constant Matrix: (Units=GPa)
#
#
# Indices 1 2 3 4 5 6 
#
# 1 36.0490 16.2364 37.8021 0.0000 0.0000 0.0000
# 2 16.2364 76.7120 34.4188 0.0000 0.0000 0.0000
# 3 37.8021 34.4188 157.3003 0.0000 0.0000 0.0000
# 4 0.0000 0.0000 0.0000 24.8308 0.0000 0.0000
# 5 0.0000 0.0000 0.0000 0.0000 22.3589 0.0000
# 6 0.0000 0.0000 0.0000 0.0000 0.0000 29.6965
#
#
#
# Elastic Compliance Matrix: (Units=1/GPa)
#
#
# Indices 1 2 3 4 5 6 
#
# 1 0.038391 -0.004420 -0.008259 0.000000 0.000000 0.000000
# 2 -0.004420 0.014964 -0.002212 0.000000 0.000000 0.000000
# 3 -0.008259 -0.002212 0.008826 0.000000 0.000000 0.000000
# 4 0.000000 0.000000 0.000000 0.040273 0.000000 0.000000
# 5 0.000000 0.000000 0.000000 0.000000 0.044725 0.000000
# 6 0.000000 0.000000 0.000000 0.000000 0.000000 0.033674
#
#
# Mechanical properties :
#
#
# Convention : Reuss Voigt Hill
#
# Bulk Modulus (GPa) = 30.86505 49.66399 40.26452
# Shear Modulus (GPa) = 22.58004 27.48418 25.03211
#
# Velocity S-wave (km/s) = 3.31086 3.65275 3.48599
# Velocity P-wave (km/s) = 5.44054 6.47303 5.97911
#
# Compressibility (1/GPa) = 0.03239911
#
# Stress axis : x y z
#
# Youngs Moduli (GPa) = 26.04750 66.82812 113.30092
#
# Poissons Ratio (x) = 0.29539 0.93575
# Poissons Ratio (y) = 0.11513 0.25062
# Poissons Ratio (z) = 0.21513 0.14782
#
# Static dielectric constant tensor:
#      x y z
#    x 1.750800 0.000000 0.000000 
#    y 0.000000 2.105570 0.000000 
#    z 0.000000 0.000000 1.797980 
# 
# From -- ./inp_files/47323.got.cif
#   From: 2010.05.17/outbox.cif.g08.bks.cpg/sg72_24_cif.got.tgz:47323.got - 2010.06.03 17:03:01.
