data_PCOD9529706
_publ_section_title
;
Structure prediction by ZEFSAII (Michael W. Deem and Ramdas Pophale) SiO2 
 PCOD9529706
Probable space group: I B C A 
;
_chemical_formula_sum "Si O2"
_cell_formula_units_Z 120
_cell_length_a 16.301072
_cell_length_b 17.442682
_cell_length_c 23.419600
_cell_angle_alpha 90.000000
_cell_angle_beta 90.000000
_cell_angle_gamma 90.000000
_cell_volume 6658.998269
_symmetry_space_group_name_H-M "I B C A "
_symmetry_group_IT_number 73
_symmetry_cell_setting 'orthorhombic'
loop_
_space_group_symop_operation_xyz
x,y,z
-x,1/2-y,z
x,-y,1/2-z
1/2-x,y,-z
-x,-y,-z
x,1/2+y,-z
-x,y,1/2+z
1/2+x,-y,z
1/2+x,1/2+y,1/2+z
1/2-x,-y,1/2+z
1/2+x,1/2-y,-z
-x,1/2+y,1/2-z
1/2-x,1/2-y,1/2-z
1/2+x,y,1/2-z
1/2-x,1/2+y,z
x,1/2-y,1/2+z
loop_
_atom_site_type_symbol
_atom_site_label
_atom_site_fract_x
_atom_site_fract_y
_atom_site_fract_z
Si Si1 0.089494 0.709973 0.476640
Si Si2 0.177173 0.850407 0.539096
Si Si3 0.358919 0.323011 0.852313
Si Si4 0.903463 0.837106 0.687780
Si Si5 0.781891 0.700412 0.663474
Si Si6 0.240714 0.586202 0.270003
Si Si7 0.503284 0.844388 0.423725
Si Si8 0.000000 0.250000 0.216891
O O1 0.150302 0.773145 0.504358
O O2 0.128913 0.676368 0.419817
O O3 0.067876 0.647217 0.524716
O O4 0.000000 0.750000 0.462847
O O5 0.250000 0.886857 0.500000
O O6 0.215611 0.837521 0.601458
O O7 0.084319 0.878555 0.556403
O O8 0.297390 0.254330 0.834853
O O9 0.320244 0.396625 0.822380
O O10 0.442758 0.300489 0.822791
O O11 0.858178 0.759110 0.666483
O O12 0.831375 0.893143 0.707459
O O13 0.960607 0.868868 0.637063
O O14 0.953829 0.808986 0.741885
O O15 0.780770 0.643125 0.717060
O O16 0.235394 0.500000 0.250000
O O17 0.500000 0.750000 0.419135
#
# Coordination Sequence:
#
# PCOD9529706 Si02
#       8
#    16  16  16  16  16  16  16   8
#     4   9  17  28  46  87 118 134 174 237 306 339
#     4  10  17  27  51  86 120 140 172 233 304 357
#     4  11  20  31  58  84 112 141 184 251 290 347
#     4  11  18  35  59  80 111 148 194 249 291 343
#     4  11  18  34  55  82 107 149 192 238 294 340
#     4  11  25  40  52  78 118 160 201 236 292 360
#     4   9  17  28  50  86 119 139 175 235 301 354
#     4  12  18  30  56  90 106 140 186 246 310 346
#
# _framework density 18.020728999999999
#
# number of rings (size 3 to 8) (size 9 to 14) (size 15 to 20)
#    0.000    1.867    8.000    0.800    0.000    0.000 
#    0.000    0.667    0.000    1.600    0.000    2.800 
#    0.000    0.000    0.000    0.000    0.000    0.000 
#
# Total GULP energy -334089.350292 kJ/mol
# GULP energy per Si atom -5568.155838 kJ/mol
# Density = 1.797971 g / cm^3
# Si number density = 18.020729 Si / 1000 Ang^3
#
#
#
# Elastic Constant Matrix: (Units=GPa)
#
#
# Indices 1 2 3 4 5 6 
#
# 1 58.7874 7.0499 12.8662 0.0000 0.0000 0.0000
# 2 7.0499 33.2677 17.3673 0.0000 0.0000 0.0000
# 3 12.8662 17.3673 116.9380 0.0000 0.0000 0.0000
# 4 0.0000 0.0000 0.0000 5.3043 0.0000 0.0000
# 5 0.0000 0.0000 0.0000 0.0000 0.4015 0.0000
# 6 0.0000 0.0000 0.0000 0.0000 0.0000 1.8637
#
#
#
# Elastic Compliance Matrix: (Units=1/GPa)
#
#
# Indices 1 2 3 4 5 6 
#
# 1 0.017696 -0.002963 -0.001507 0.000000 0.000000 0.000000
# 2 -0.002963 0.033082 -0.004587 0.000000 0.000000 0.000000
# 3 -0.001507 -0.004587 0.009399 0.000000 0.000000 0.000000
# 4 0.000000 0.000000 0.000000 0.188528 0.000002 0.000000
# 5 0.000000 0.000000 0.000000 0.000002 2.490520 0.000001
# 6 0.000000 0.000000 0.000000 0.000000 0.000001 0.536581
#
#
# Mechanical properties :
#
#
# Convention : Reuss Voigt Hill
#
# Bulk Modulus (GPa) = 23.77476 31.50664 27.64070
# Shear Modulus (GPa) = 1.51151 12.96120 7.23636
#
# Velocity S-wave (km/s) = 0.91683 2.68477 2.00606
# Velocity P-wave (km/s) = 3.78714 5.20886 4.55382
#
# Compressibility (1/GPa) = 0.04206142
#
# Stress axis : x y z
#
# Youngs Moduli (GPa) = 56.51118 30.22799 106.39879
#
# Poissons Ratio (x) = 0.08958 0.16033
# Poissons Ratio (y) = 0.16746 0.48807
# Poissons Ratio (z) = 0.08515 0.13866
#
# Static dielectric constant tensor:
#      x y z
#    x 1.705770 0.000000 0.000000 
#    y 0.000000 1.592510 0.000000 
#    z 0.000000 0.000000 1.649520 
# 
# From -- ./inp_files/29646.got.cif
#   From: 2010.05.17/outbox.cif.g08.bks.cpg/sg73_15_cif.got.tgz:29646.got - 2010.06.03 17:35:07.
