data_PCOD9529687
_publ_section_title
;
Structure prediction by ZEFSAII (Michael W. Deem and Ramdas Pophale) SiO2 
 PCOD9529687
Probable space group: I B C A 
;
_chemical_formula_sum "Si O2"
_cell_formula_units_Z 64
_cell_length_a 23.920937
_cell_length_b 13.898056
_cell_length_c 9.176056
_cell_angle_alpha 90.000000
_cell_angle_beta 90.000000
_cell_angle_gamma 90.000000
_cell_volume 3050.621311
_symmetry_space_group_name_H-M "I B C A "
_symmetry_group_IT_number 73
_symmetry_cell_setting 'orthorhombic'
loop_
_space_group_symop_operation_xyz
x,y,z
-x,1/2-y,z
x,-y,1/2-z
1/2-x,y,-z
-x,-y,-z
x,1/2+y,-z
-x,y,1/2+z
1/2+x,-y,z
1/2+x,1/2+y,1/2+z
1/2-x,-y,1/2+z
1/2+x,1/2-y,-z
-x,1/2+y,1/2-z
1/2-x,1/2-y,1/2-z
1/2+x,y,1/2-z
1/2-x,1/2+y,z
x,1/2-y,1/2+z
loop_
_atom_site_type_symbol
_atom_site_label
_atom_site_fract_x
_atom_site_fract_y
_atom_site_fract_z
Si Si1 0.669311 0.847074 0.976548
Si Si2 0.000000 0.750000 0.326355
Si Si3 0.578446 0.204014 0.075190
Si Si4 0.308807 0.833688 0.816629
Si Si5 0.750000 0.981688 0.500000
O O1 0.606466 0.812480 0.933025
O O2 0.674905 0.827688 0.148900
O O3 0.697559 0.950317 0.960067
O O4 0.704993 0.771742 0.879164
O O5 0.959478 0.809026 0.433912
O O6 0.959746 0.693195 0.216717
O O7 0.633976 0.141480 0.093827
O O8 0.264917 0.912397 0.865546
#
# Coordination Sequence:
#
# PCOD9529687 Si02
#       5
#    16   8  16  16   8
#     4  10  22  41  59  94 124 165 206 258 297 393
#     4  10  16  34  68  86 112 166 194 270 316 346
#     4   9  18  35  62  92 116 153 218 245 314 372
#     4  10  22  41  59  94 124 165 206 258 297 393
#     4  12  24  36  64  86 136 166 198 248 326 346
#
# _framework density 20.979334000000001
#
# number of rings (size 3 to 8) (size 9 to 14) (size 15 to 20)
#    1.500    0.500    2.500    1.500    0.000    6.000 
#    0.000    0.000    0.000    9.000    0.000    0.000 
#    0.000    0.000    0.000    0.000    0.000    0.000 
#
# Total GULP energy -178148.674338 kJ/mol
# GULP energy per Si atom -5567.146073 kJ/mol
# Density = 2.093158 g / cm^3
# Si number density = 20.979334 Si / 1000 Ang^3
#
#
#
# Elastic Constant Matrix: (Units=GPa)
#
#
# Indices 1 2 3 4 5 6 
#
# 1 85.2343 16.5287 22.2391 0.0000 0.0000 0.0000
# 2 16.5287 80.9097 29.9884 0.0000 0.0000 0.0000
# 3 22.2391 29.9884 124.2819 0.0000 0.0000 0.0000
# 4 0.0000 0.0000 0.0000 20.2441 0.0000 0.0000
# 5 0.0000 0.0000 0.0000 0.0000 38.7455 0.0000
# 6 0.0000 0.0000 0.0000 0.0000 0.0000 11.6914
#
#
#
# Elastic Compliance Matrix: (Units=1/GPa)
#
#
# Indices 1 2 3 4 5 6 
#
# 1 0.012569 -0.001904 -0.001790 0.000000 0.000000 0.000000
# 2 -0.001904 0.013862 -0.003004 0.000000 0.000000 0.000000
# 3 -0.001790 -0.003004 0.009091 0.000000 0.000000 0.000000
# 4 0.000000 0.000000 0.000000 0.049397 0.000000 0.000000
# 5 0.000000 0.000000 0.000000 0.000000 0.025809 0.000000
# 6 0.000000 0.000000 0.000000 0.000000 0.000000 0.085533
#
#
# Mechanical properties :
#
#
# Convention : Reuss Voigt Hill
#
# Bulk Modulus (GPa) = 45.19562 47.54868 46.37215
# Shear Modulus (GPa) = 23.03804 28.91419 25.97611
#
# Velocity S-wave (km/s) = 3.31740 3.71647 3.52259
# Velocity P-wave (km/s) = 6.02189 6.41326 6.22066
#
# Compressibility (1/GPa) = 0.02212604
#
# Stress axis : x y z
#
# Youngs Moduli (GPa) = 79.56352 72.14022 109.99536
#
# Poissons Ratio (x) = 0.13738 0.19684
# Poissons Ratio (y) = 0.15151 0.33043
# Poissons Ratio (z) = 0.14238 0.21671
#
# Static dielectric constant tensor:
#      x y z
#    x 1.825190 0.000000 0.000000 
#    y 0.000000 1.740860 0.000000 
#    z 0.000000 0.000000 1.773390 
# 
# From -- ./inp_files/7597.got.cif
#   From: 2010.05.17/outbox.cif.g08.bks.cpg/sg73_4_cif.got.tgz:7597.got - 2010.06.03 17:35:07.
