data_PCOD9529869
_publ_section_title
;
Structure prediction by ZEFSAII (Michael W. Deem and Ramdas Pophale) SiO2 
 PCOD9529869
Probable space group: I B C A 
;
_chemical_formula_sum "Si O2"
_cell_formula_units_Z 96
_cell_length_a 16.392948
_cell_length_b 21.969041
_cell_length_c 14.074728
_cell_angle_alpha 90.000000
_cell_angle_beta 90.000000
_cell_angle_gamma 90.000000
_cell_volume 5068.835198
_symmetry_space_group_name_H-M "I B C A "
_symmetry_group_IT_number 73
_symmetry_cell_setting 'orthorhombic'
loop_
_space_group_symop_operation_xyz
x,y,z
-x,1/2-y,z
x,-y,1/2-z
1/2-x,y,-z
-x,-y,-z
x,1/2+y,-z
-x,y,1/2+z
1/2+x,-y,z
1/2+x,1/2+y,1/2+z
1/2-x,-y,1/2+z
1/2+x,1/2-y,-z
-x,1/2+y,1/2-z
1/2-x,1/2-y,1/2-z
1/2+x,y,1/2-z
1/2-x,1/2+y,z
x,1/2-y,1/2+z
loop_
_atom_site_type_symbol
_atom_site_label
_atom_site_fract_x
_atom_site_fract_y
_atom_site_fract_z
Si Si1 0.858717 0.805645 0.296887
Si Si2 0.552720 0.692217 0.003955
Si Si3 0.104084 0.063402 0.286594
Si Si4 0.948096 0.561022 0.001688
Si Si5 0.331832 0.309638 0.172784
Si Si6 0.415752 0.565099 0.713325
O O1 0.916615 0.799969 0.388477
O O2 0.868450 0.748887 0.226689
O O3 0.765188 0.803931 0.331048
O O4 0.876821 0.871893 0.251445
O O5 0.500000 0.750000 0.976792
O O6 0.507370 0.626903 0.994578
O O7 0.627981 0.687602 0.931071
O O8 0.100405 0.057067 0.400515
O O9 0.146735 0.128112 0.270845
O O10 0.012163 0.067174 0.242330
O O11 0.141082 0.000000 0.250000
O O12 0.903439 0.564136 0.900561
O O13 0.000000 0.500000 0.000000
O O14 0.384736 0.500000 0.750000
#
# Coordination Sequence:
#
# PCOD9529869 Si02
#       6
#    16  16  16  16  16  16
#     4  10  23  39  56  81 118 152 184 230 287 342
#     4  10  23  35  60  85 108 150 189 234 274 333
#     4  10  20  33  57  84 109 144 187 236 274 336
#     4  10  18  33  50  81 112 137 175 229 288 312
#     4  10  23  39  56  81 118 152 184 230 287 342
#     4  10  20  33  57  84 109 144 187 236 274 336
#
# _framework density 18.939263
#
# number of rings (size 3 to 8) (size 9 to 14) (size 15 to 20)
#    0.000    2.000    3.333    0.500    9.333    0.667 
#    0.000    0.000    0.000    0.000    0.000    2.333 
#    0.000    0.000    0.000    0.000    0.000    0.000 
#
# Total GULP energy -267380.617988 kJ/mol
# GULP energy per Si atom -5570.429541 kJ/mol
# Density = 1.889616 g / cm^3
# Si number density = 18.939263 Si / 1000 Ang^3
#
#
#
# Elastic Constant Matrix: (Units=GPa)
#
#
# Indices 1 2 3 4 5 6 
#
# 1 17.9272 7.8099 -4.4746 0.0000 0.0000 0.0000
# 2 7.8099 178.0343 21.7600 0.0000 0.0000 0.0000
# 3 -4.4746 21.7600 69.4457 0.0000 0.0000 0.0000
# 4 0.0000 0.0000 0.0000 30.4408 0.0000 0.0000
# 5 0.0000 0.0000 0.0000 0.0000 14.0629 0.0000
# 6 0.0000 0.0000 0.0000 0.0000 0.0000 20.0114
#
#
#
# Elastic Compliance Matrix: (Units=1/GPa)
#
#
# Indices 1 2 3 4 5 6 
#
# 1 0.058332 -0.003138 0.004742 0.000000 0.000000 0.000000
# 2 -0.003138 0.006009 -0.002085 0.000000 0.000000 0.000000
# 3 0.004742 -0.002085 0.015359 0.000000 0.000000 0.000000
# 4 0.000000 0.000000 0.000000 0.032851 0.000000 0.000000
# 5 0.000000 0.000000 0.000000 0.000000 0.071109 0.000000
# 6 0.000000 0.000000 0.000000 0.000000 0.000000 0.049972
#
#
# Mechanical properties :
#
#
# Convention : Reuss Voigt Hill
#
# Bulk Modulus (GPa) = 12.70055 35.06641 23.88348
# Shear Modulus (GPa) = 19.16880 28.92380 24.04630
#
# Velocity S-wave (km/s) = 3.18483 3.91216 3.56709
# Velocity P-wave (km/s) = 4.49941 6.24196 5.44090
#
# Compressibility (1/GPa) = 0.07873675
#
# Stress axis : x y z
#
# Youngs Moduli (GPa) = 17.14321 166.40506 65.10987
#
# Poissons Ratio (x) = 0.52226 -0.30875
# Poissons Ratio (y) = 0.05380 0.13577
# Poissons Ratio (z) = -0.08129 0.34699
#
# Static dielectric constant tensor:
#      x y z
#    x 1.665340 0.000000 0.000000 
#    y 0.000000 1.706720 0.000000 
#    z 0.000000 0.000000 1.628190 
# 
# From -- ./inp_files/17005.got.cif
#   From: 2010.05.17/outbox.cif.g08.bks.cpg/sg73_9_cif.got.tgz:17005.got - 2010.06.03 17:35:07.
