data_PCOD9529368
_publ_section_title
;
Structure prediction by ZEFSAII (Michael W. Deem and Ramdas Pophale) SiO2 
 PCOD9529368
Probable space group: I B A M
;
_chemical_formula_sum "Si O2"
_cell_formula_units_Z 64
_cell_length_a 12.628499
_cell_length_b 15.018196
_cell_length_c 14.798721
_cell_angle_alpha 90.000000
_cell_angle_beta 90.000000
_cell_angle_gamma 90.000000
_cell_volume 2806.685071
_symmetry_space_group_name_H-M "I B A M"
_symmetry_group_IT_number 72
_symmetry_cell_setting 'orthorhombic'
loop_
_space_group_symop_operation_xyz
x,y,z
-x,-y,z
x,-y,1/2-z
-x,y,1/2-z
-x,-y,-z
x,y,-z
-x,y,1/2+z
x,-y,1/2+z
1/2+x,1/2+y,1/2+z
1/2-x,1/2-y,1/2+z
1/2+x,1/2-y,-z
1/2-x,1/2+y,-z
1/2-x,1/2-y,1/2-z
1/2+x,1/2+y,1/2-z
1/2-x,1/2+y,z
1/2+x,1/2-y,z
loop_
_atom_site_type_symbol
_atom_site_label
_atom_site_fract_x
_atom_site_fract_y
_atom_site_fract_z
Si Si1 0.473854 0.725249 0.642434
Si Si2 0.057920 0.411212 0.104417
Si Si3 0.711875 0.396979 0.340145
Si Si4 0.394430 0.562251 0.146216
O O1 0.500000 0.726462 0.750000
O O2 0.484796 0.824523 0.608365
O O3 0.358417 0.684060 0.623664
O O4 0.559724 0.653121 0.605307
O O5 0.163538 0.386154 0.158908
O O6 0.000000 0.500000 0.137854
O O7 0.088282 0.426611 0.000000
O O8 0.664674 0.409818 0.239046
O O9 0.685133 0.488912 0.393111
O O10 0.500000 0.500000 0.157224
#
# Coordination Sequence:
#
# PCOD9529368 Si02
#       4
#    16  16  16  16
#     4   9  19  36  61  88 108 137 187 237 280 330
#     4  11  26  41  50  74 118 156 190 232 274 328
#     4   9  17  34  60  82 109 144 174 219 289 335
#     4   8  15  33  62  93 115 130 172 242 287 327
#
# _framework density 22.802700000000002
#
# number of rings (size 3 to 8) (size 9 to 14) (size 15 to 20)
#    0.000    2.750    0.000    6.000    0.000   11.500 
#    0.000    3.750    0.000    9.750    0.000    0.000 
#    0.000    0.000    0.000    0.000    0.000    0.000 
#
# Total GULP energy -178303.074727 kJ/mol
# GULP energy per Si atom -5571.971085 kJ/mol
# Density = 2.275080 g / cm^3
# Si number density = 22.802700 Si / 1000 Ang^3
#
#
#
# Elastic Constant Matrix: (Units=GPa)
#
#
# Indices 1 2 3 4 5 6 
#
# 1 119.8714 73.5008 13.0176 0.0000 0.0000 0.0000
# 2 73.5008 196.4779 3.9463 0.0000 0.0000 0.0000
# 3 13.0176 3.9463 70.5520 0.0000 0.0000 0.0000
# 4 0.0000 0.0000 0.0000 42.8605 0.0000 0.0000
# 5 0.0000 0.0000 0.0000 0.0000 13.8421 0.0000
# 6 0.0000 0.0000 0.0000 0.0000 0.0000 23.9793
#
#
#
# Elastic Compliance Matrix: (Units=1/GPa)
#
#
# Indices 1 2 3 4 5 6 
#
# 1 0.011052 -0.004098 -0.001810 0.000000 0.000000 0.000000
# 2 -0.004098 0.006615 0.000386 0.000000 0.000000 0.000000
# 3 -0.001810 0.000386 0.014486 0.000000 0.000000 0.000000
# 4 0.000000 0.000000 0.000000 0.023332 0.000000 0.000000
# 5 0.000000 0.000000 0.000000 0.000000 0.072243 0.000000
# 6 0.000000 0.000000 0.000000 0.000000 0.000000 0.041703
#
#
# Mechanical properties :
#
#
# Convention : Reuss Voigt Hill
#
# Bulk Modulus (GPa) = 47.37261 63.09229 55.23245
# Shear Modulus (GPa) = 26.66522 35.89881 31.28202
#
# Velocity S-wave (km/s) = 3.42334 3.97208 3.70788
# Velocity P-wave (km/s) = 6.03704 6.98322 6.52730
#
# Compressibility (1/GPa) = 0.02110924
#
# Stress axis : x y z
#
# Youngs Moduli (GPa) = 90.48532 151.17442 69.03077
#
# Poissons Ratio (x) = 0.61950 0.12494
# Poissons Ratio (y) = 0.37080 -0.02665
# Poissons Ratio (z) = 0.16377 -0.05837
#
# Static dielectric constant tensor:
#      x y z
#    x 1.879060 0.000000 0.000000 
#    y 0.000000 1.893550 0.000000 
#    z 0.000000 0.000000 1.951580 
# 
# From -- ./inp_files/28813.got.cif
#   From: 2010.05.17/outbox.cif.g08.bks.cpg/sg72_15_cif.got.tgz:28813.got - 2010.06.03 17:03:01.
