data_PCOD9529553
_publ_section_title
;
Structure prediction by ZEFSAII (Michael W. Deem and Ramdas Pophale) SiO2 
 PCOD9529553
Probable space group: I B A M
;
_chemical_formula_sum "Si O2"
_cell_formula_units_Z 56
_cell_length_a 12.000000
_cell_length_b 30.000000
_cell_length_c 15.000000
_cell_angle_alpha 90.000000
_cell_angle_beta 90.000000
_cell_angle_gamma 90.000000
_cell_volume 5400.000000
_symmetry_space_group_name_H-M "I B A M"
_symmetry_group_IT_number 72
_symmetry_cell_setting 'orthorhombic'
loop_
_space_group_symop_operation_xyz
x,y,z
-x,-y,z
x,-y,1/2-z
-x,y,1/2-z
-x,-y,-z
x,y,-z
-x,y,1/2+z
x,-y,1/2+z
1/2+x,1/2+y,1/2+z
1/2-x,1/2-y,1/2+z
1/2+x,1/2-y,-z
1/2-x,1/2+y,-z
1/2-x,1/2-y,1/2-z
1/2+x,1/2+y,1/2-z
1/2-x,1/2+y,z
1/2+x,1/2-y,z
loop_
_atom_site_type_symbol
_atom_site_label
_atom_site_fract_x
_atom_site_fract_y
_atom_site_fract_z
Si Si1 0.233258 0.393485 0.399384
Si Si2 0.147261 0.278965 0.893231
Si Si3 0.393373 0.320470 0.350139
Si Si4 0.990868 0.365868 0.608112
Si Si5 0.873655 0.947442 0.756189
Si Si6 0.142856 0.829497 0.142943
Si Si7 0.224537 0.415221 0.098171
O O1 0.218410 0.411019 0.500000
O O2 0.301230 0.347316 0.403362
O O3 0.307014 0.427051 0.340015
O O4 0.112653 0.380125 0.359341
O O5 0.115544 0.232437 0.850514
O O6 0.066962 0.319564 0.861211
O O7 0.277610 0.287395 0.872095
O O8 0.135130 0.275794 0.000000
O O9 0.370925 0.336322 0.248826
O O10 0.516196 0.329723 0.387899
O O11 0.999036 0.361783 0.500000
O O12 0.901554 0.404738 0.625683
O O13 0.797397 0.938507 0.671136
O O14 0.000000 0.928436 0.750000
O O15 0.885376 0.000000 0.750000
O O16 0.215241 0.867209 0.095960
O O17 0.226908 0.435655 0.000000
#
# Coordination Sequence:
#
# PCOD9529553 Si02
#       7
#    16  16  16  16  16  16  16
#     4  11  23  41  65  94 129 167 207 262 323 374
#     4  10  21  36  55  82 118 163 214 257 302 365
#     4  11  22  35  56  84 120 161 207 261 311 365
#     4   8  19  39  61  89 125 165 212 260 306 367
#     4  11  25  44  66  97 131 158 202 262 315 385
#     4  10  21  38  54  80 118 156 206 258 302 365
#     4  10  20  41  68  88 117 166 209 248 309 377
#
# _framework density 10.370369999999999
#
# number of rings (size 3 to 8) (size 9 to 14) (size 15 to 20)
#    0.000    1.857    1.429    3.000    2.000    5.143 
#    0.000    2.857    0.000    2.571    0.000    0.000 
#    0.000    0.000    0.000    0.000    0.000    0.000 
#
# Total GULP energy -312178.755442 kJ/mol
# GULP energy per Si atom -5574.620633 kJ/mol
# Density = 1.034677 g / cm^3
# Si number density = 10.370370 Si / 1000 Ang^3
#
#
#
# Elastic Constant Matrix: (Units=GPa)
#
#
# Indices 1 2 3 4 5 6 
#
# 1 181.0810 38.7720 36.1541 -0.0001 0.0001 0.0001
# 2 38.7720 63.9079 25.2794 -0.0001 -0.0001 0.0000
# 3 36.1541 25.2794 86.1520 -0.0002 -0.0005 -0.0001
# 4 -0.0001 -0.0001 -0.0002 -6.3282 -0.0003 -0.0001
# 5 0.0001 -0.0001 -0.0005 -0.0003 5.3761 0.0002
# 6 0.0001 0.0000 -0.0001 -0.0001 0.0002 33.5600
#
#
#
# Elastic Compliance Matrix: (Units=1/GPa)
#
#
# Indices 1 2 3 4 5 6 
#
# 1 0.006585 -0.003283 -0.001800 0.000000 0.000000 0.000000
# 2 -0.003283 0.019339 -0.004297 0.000000 0.000000 0.000000
# 3 -0.001800 -0.004297 0.013624 0.000000 0.000001 0.000000
# 4 0.000000 0.000000 0.000000 -0.158022 -0.000009 -0.000001
# 5 0.000000 0.000000 0.000001 -0.000009 0.186009 -0.000001
# 6 0.000000 0.000000 0.000000 -0.000001 -0.000001 0.029797
#
#
# Mechanical properties :
#
#
# Convention : Reuss Voigt Hill
#
# Bulk Modulus (GPa) = 48.10550 59.06132 53.58341
# Shear Modulus (GPa) = 40.64374 21.91726 31.28050
#
# Velocity S-wave (km/s) = 4.43155 3.25426 3.88773
# Velocity P-wave (km/s) = 7.03057 6.53131 6.78554
#
# Compressibility (1/GPa) = 0.02078764
#
# Stress axis : x y z
#
# Youngs Moduli (GPa) = 151.86779 51.70946 73.40197
#
# Poissons Ratio (x) = 0.16975 0.13212
# Poissons Ratio (y) = 0.49855 0.31540
# Poissons Ratio (z) = 0.27336 0.22219
#
# Static dielectric constant tensor:
#      x y z
#    x 1.793980 0.000000 0.000000 
#    y 0.000000 1.757360 0.000000 
#    z 0.000000 0.000000 1.778790 
# 
# From -- ./inp_files/20693.got.cif
#   From: 2010.05.17/outbox.ucp.g08.bks.cvg/sg72_11_cif.got.tgz:20693.got - 2010.06.11 16:33:07.
