data_PCOD9529464
_publ_section_title
;
Structure prediction by ZEFSAII (Michael W. Deem and Ramdas Pophale) SiO2 
 PCOD9529464
Probable space group: I B A M
;
_chemical_formula_sum "Si O2"
_cell_formula_units_Z 64
_cell_length_a 12.975397
_cell_length_b 8.514619
_cell_length_c 23.297808
_cell_angle_alpha 90.000000
_cell_angle_beta 90.000000
_cell_angle_gamma 90.000000
_cell_volume 2573.954917
_symmetry_space_group_name_H-M "I B A M"
_symmetry_group_IT_number 72
_symmetry_cell_setting 'orthorhombic'
loop_
_space_group_symop_operation_xyz
x,y,z
-x,-y,z
x,-y,1/2-z
-x,y,1/2-z
-x,-y,-z
x,y,-z
-x,y,1/2+z
x,-y,1/2+z
1/2+x,1/2+y,1/2+z
1/2-x,1/2-y,1/2+z
1/2+x,1/2-y,-z
1/2-x,1/2+y,-z
1/2-x,1/2-y,1/2-z
1/2+x,1/2+y,1/2-z
1/2-x,1/2+y,z
1/2+x,1/2-y,z
loop_
_atom_site_type_symbol
_atom_site_label
_atom_site_fract_x
_atom_site_fract_y
_atom_site_fract_z
Si Si1 0.729412 0.712224 0.063088
Si Si2 0.874261 0.641824 0.675767
Si Si3 0.111530 0.918393 0.403363
Si Si4 0.116190 0.708865 0.696448
O O1 0.670389 0.783685 0.118265
O O2 0.851318 0.752305 0.069055
O O3 0.696053 0.532340 0.069259
O O4 0.693817 0.764132 0.000000
O O5 0.838201 0.460639 0.678570
O O6 0.853388 0.722854 0.737197
O O7 0.997511 0.667642 0.679618
O O8 0.129710 0.872003 0.337011
O O9 0.000000 0.000000 0.411970
#
# Coordination Sequence:
#
# PCOD9529464 Si02
#       4
#    16  16  16  16
#     4  12  27  46  70 106 151 205 265 319 388 476
#     4   9  19  42  74 112 149 192 249 316 386 476
#     4  12  26  49  76 111 151 207 264 331 397 459
#     4   9  19  41  76 111 145 195 249 319 395 460
#
# _framework density 24.864460999999999
#
# number of rings (size 3 to 8) (size 9 to 14) (size 15 to 20)
#    0.000    1.500    2.500    3.750    0.000    4.000 
#    0.000    3.750    0.000    0.000    0.000    0.000 
#    0.000    0.000    0.000    0.000    0.000    0.000 
#
# Total GULP energy -178136.229957 kJ/mol
# GULP energy per Si atom -5566.757186 kJ/mol
# Density = 2.480787 g / cm^3
# Si number density = 24.864461 Si / 1000 Ang^3
#
#
#
# Elastic Constant Matrix: (Units=GPa)
#
#
# Indices 1 2 3 4 5 6 
#
# 1 135.7132 53.0617 50.7293 0.0000 0.0000 0.0000
# 2 53.0617 82.0509 50.2473 0.0000 0.0000 0.0000
# 3 50.7293 50.2473 196.4492 0.0000 0.0000 0.0000
# 4 0.0000 0.0000 0.0000 38.2148 0.0000 0.0000
# 5 0.0000 0.0000 0.0000 0.0000 17.2062 0.0000
# 6 0.0000 0.0000 0.0000 0.0000 0.0000 47.1364
#
#
#
# Elastic Compliance Matrix: (Units=1/GPa)
#
#
# Indices 1 2 3 4 5 6 
#
# 1 0.010061 -0.005828 -0.001107 0.000000 0.000000 0.000000
# 2 -0.005828 0.017827 -0.003055 0.000000 0.000000 0.000000
# 3 -0.001107 -0.003055 0.006158 0.000000 0.000000 0.000000
# 4 0.000000 0.000000 0.000000 0.026168 0.000000 0.000000
# 5 0.000000 0.000000 0.000000 0.000000 0.058119 0.000000
# 6 0.000000 0.000000 0.000000 0.000000 0.000000 0.021215
#
#
# Mechanical properties :
#
#
# Convention : Reuss Voigt Hill
#
# Bulk Modulus (GPa) = 71.09696 80.25443 75.67570
# Shear Modulus (GPa) = 30.44747 37.85647 34.15197
#
# Velocity S-wave (km/s) = 3.50314 3.90617 3.71013
# Velocity P-wave (km/s) = 6.70958 7.25886 6.98962
#
# Compressibility (1/GPa) = 0.01406530
#
# Stress axis : x y z
#
# Youngs Moduli (GPa) = 99.39168 56.09325 162.39893
#
# Poissons Ratio (x) = 0.32693 0.17983
# Poissons Ratio (y) = 0.57929 0.49610
# Poissons Ratio (z) = 0.11006 0.17135
#
# Static dielectric constant tensor:
#      x y z
#    x 2.128630 0.000000 0.000000 
#    y 0.000000 2.087290 0.000000 
#    z 0.000000 0.000000 2.010020 
# 
# From -- ./inp_files/43939.got.cif
#   From: 2010.05.17/outbox.cif.g08.bks.cpg/sg72_22_cif.got.tgz:43939.got - 2010.06.03 17:03:01.
