data_PCOD9529187
_publ_section_title
;
Structure prediction by ZEFSAII (Michael W. Deem and Ramdas Pophale) SiO2 
 PCOD9529187
Probable space group: I B A M
;
_chemical_formula_sum "Si O2"
_cell_formula_units_Z 96
_cell_length_a 14.463923
_cell_length_b 18.200982
_cell_length_c 17.683545
_cell_angle_alpha 90.000000
_cell_angle_beta 90.000000
_cell_angle_gamma 90.000000
_cell_volume 4655.327655
_symmetry_space_group_name_H-M "I B A M"
_symmetry_group_IT_number 72
_symmetry_cell_setting 'orthorhombic'
loop_
_space_group_symop_operation_xyz
x,y,z
-x,-y,z
x,-y,1/2-z
-x,y,1/2-z
-x,-y,-z
x,y,-z
-x,y,1/2+z
x,-y,1/2+z
1/2+x,1/2+y,1/2+z
1/2-x,1/2-y,1/2+z
1/2+x,1/2-y,-z
1/2-x,1/2+y,-z
1/2-x,1/2-y,1/2-z
1/2+x,1/2+y,1/2-z
1/2-x,1/2+y,z
1/2+x,1/2-y,z
loop_
_atom_site_type_symbol
_atom_site_label
_atom_site_fract_x
_atom_site_fract_y
_atom_site_fract_z
Si Si1 0.150593 0.320169 0.121944
Si Si2 0.647192 0.310658 0.638694
Si Si3 0.643199 0.581922 0.281187
Si Si4 0.944240 0.165421 0.414094
Si Si5 0.980162 0.414270 0.918416
Si Si6 0.160470 0.352410 0.299716
O O1 0.257002 0.335439 0.100202
O O2 0.117472 0.237016 0.106085
O O3 0.076718 0.371884 0.082794
O O4 0.142845 0.338255 0.211310
O O5 0.629107 0.360549 0.712684
O O6 0.552098 0.312305 0.593007
O O7 0.671631 0.228592 0.665614
O O8 0.630253 0.500000 0.250000
O O9 0.579417 0.604003 0.351767
O O10 0.748757 0.597405 0.306494
O O11 0.924570 0.142602 0.500000
O O12 0.000000 0.500000 0.913323
O O13 0.921136 0.388704 0.847076
O O14 0.933423 0.398458 0.000000
#
# Coordination Sequence:
#
# PCOD9529187 Si02
#       6
#    16  16  16  16  16  16
#     4  11  22  42  68 100 133 177 230 279 332 416
#     4  11  23  43  69 100 134 175 235 283 334 408
#     4  11  25  46  72  99 132 184 232 290 341 400
#     4  12  25  42  69 104 139 181 226 282 352 415
#     4  11  26  42  63 101 144 179 213 275 356 417
#     4  11  22  41  71 101 132 173 236 278 333 408
#
# _framework density 20.621534
#
# number of rings (size 3 to 8) (size 9 to 14) (size 15 to 20)
#    0.000    0.833    5.000    2.500    4.667    4.000 
#    0.000    1.667    0.000    0.000    0.000    0.000 
#    0.000    0.000    0.000    0.000    0.000    0.000 
#
# Total GULP energy -268336.070691 kJ/mol
# GULP energy per Si atom -5590.334806 kJ/mol
# Density = 2.057460 g / cm^3
# Si number density = 20.621534 Si / 1000 Ang^3
#
#
#
# Elastic Constant Matrix: (Units=GPa)
#
#
# Indices 1 2 3 4 5 6 
#
# 1 123.9183 26.2024 59.1969 0.0000 0.0000 0.0000
# 2 26.2024 113.4251 39.0641 0.0000 0.0000 0.0000
# 3 59.1969 39.0641 90.2694 0.0000 0.0000 0.0000
# 4 0.0000 0.0000 0.0000 767.6972 0.0000 0.0000
# 5 0.0000 0.0000 0.0000 0.0000 8.4552 0.0000
# 6 0.0000 0.0000 0.0000 0.0000 0.0000 8.2457
#
#
#
# Elastic Compliance Matrix: (Units=1/GPa)
#
#
# Indices 1 2 3 4 5 6 
#
# 1 0.011752 -0.000071 -0.007676 0.000000 0.000000 0.000000
# 2 -0.000071 0.010361 -0.004437 0.000000 0.000000 0.000000
# 3 -0.007676 -0.004437 0.018032 0.000000 0.000000 0.000000
# 4 0.000000 0.000000 0.000000 0.001303 0.000000 0.000000
# 5 0.000000 0.000000 0.000000 0.000000 0.118270 0.000000
# 6 0.000000 0.000000 0.000000 0.000000 0.000000 0.121276
#
#
# Mechanical properties :
#
#
# Convention : Reuss Voigt Hill
#
# Bulk Modulus (GPa) = 63.38568 64.05994 63.72281
# Shear Modulus (GPa) = 16.09689 170.42293 93.25991
#
# Velocity S-wave (km/s) = 2.79693 9.10069 6.73221
# Velocity P-wave (km/s) = 6.42143 11.89799 9.56025
#
# Compressibility (1/GPa) = 0.01577643
#
# Stress axis : x y z
#
# Youngs Moduli (GPa) = 85.09464 96.51608 55.45816
#
# Poissons Ratio (x) = 0.00687 0.42568
# Poissons Ratio (y) = 0.00606 0.24607
# Poissons Ratio (z) = 0.65316 0.42824
#
# Static dielectric constant tensor:
#      x y z
#    x 1.764450 0.000000 0.000000 
#    y 0.000000 1.705550 0.000000 
#    z 0.000000 0.000000 1.732360 
# 
# From -- ./inp_files/21821.got.cif
#   From: 2010.05.17/outbox.cif.g08.bks.cpg/sg72_11_cif.got.tgz:21821.got - 2010.06.03 17:03:01.
