data_PCOD9529561
_publ_section_title
;
Structure prediction by ZEFSAII (Michael W. Deem and Ramdas Pophale) SiO2 
 PCOD9529561
Probable space group: I B A M
;
_chemical_formula_sum "Si O2"
_cell_formula_units_Z 36
_cell_length_a 9.000000
_cell_length_b 21.000000
_cell_length_c 21.000000
_cell_angle_alpha 90.000000
_cell_angle_beta 90.000000
_cell_angle_gamma 90.000000
_cell_volume 3969.000000
_symmetry_space_group_name_H-M "I B A M"
_symmetry_group_IT_number 72
_symmetry_cell_setting 'orthorhombic'
loop_
_space_group_symop_operation_xyz
x,y,z
-x,-y,z
x,-y,1/2-z
-x,y,1/2-z
-x,-y,-z
x,y,-z
-x,y,1/2+z
x,-y,1/2+z
1/2+x,1/2+y,1/2+z
1/2-x,1/2-y,1/2+z
1/2+x,1/2-y,-z
1/2-x,1/2+y,-z
1/2-x,1/2-y,1/2-z
1/2+x,1/2+y,1/2-z
1/2-x,1/2+y,z
1/2+x,1/2-y,z
loop_
_atom_site_type_symbol
_atom_site_label
_atom_site_fract_x
_atom_site_fract_y
_atom_site_fract_z
Si Si1 0.138367 0.876998 0.077902
Si Si2 0.452005 0.289076 0.324196
Si Si3 0.764546 0.598580 0.300653
Si Si4 0.592653 0.134759 0.164771
Si Si5 0.000000 0.000000 0.148647
O O1 0.309643 0.876718 0.101685
O O2 0.059707 0.820223 0.121092
O O3 0.070441 0.943714 0.105170
O O4 0.122403 0.870969 0.000000
O O5 0.500000 0.298616 0.250000
O O6 0.308312 0.335510 0.326495
O O7 0.430182 0.212331 0.330446
O O8 0.807421 0.609652 0.225525
O O9 0.638799 0.541323 0.314655
O O10 0.932154 0.598478 0.331512
#
# Coordination Sequence:
#
# PCOD9529561 Si02
#       5
#    16  16  16  16   8
#     4  11  25  42  63  92 133 179 217 269 334 400
#     4  11  19  39  69  98 129 165 212 270 333 397
#     4  10  21  37  65  98 122 170 214 283 326 380
#     4  11  21  37  66 100 130 159 221 279 334 389
#     4  10  25  45  62  84 132 178 232 270 320 396
#
# _framework density 9.0702949999999998
#
# number of rings (size 3 to 8) (size 9 to 14) (size 15 to 20)
#    0.000    1.333    4.444    2.333    0.000    3.556 
#    0.000    8.889    0.000    0.000    0.000    0.000 
#    0.000    0.000    0.000    0.000    0.000    0.000 
#
# Total GULP energy -200451.533126 kJ/mol
# GULP energy per Si atom -5568.098142 kJ/mol
# Density = 0.904965 g / cm^3
# Si number density = 9.070295 Si / 1000 Ang^3
#
#
#
# Elastic Constant Matrix: (Units=GPa)
#
#
# Indices 1 2 3 4 5 6 
#
# 1 133.5360 38.2017 55.2452 0.0000 0.0000 0.0000
# 2 38.2017 124.4874 45.5746 0.0000 0.0000 0.0000
# 3 55.2452 45.5746 145.1757 0.0000 0.0000 0.0000
# 4 0.0000 0.0000 0.0000 30.3365 0.0000 0.0000
# 5 0.0000 0.0000 0.0000 0.0000 34.8132 0.0000
# 6 0.0000 0.0000 0.0000 0.0000 0.0000 38.4597
#
#
#
# Elastic Compliance Matrix: (Units=1/GPa)
#
#
# Indices 1 2 3 4 5 6 
#
# 1 0.009211 -0.001744 -0.002958 0.000000 0.000000 0.000000
# 2 -0.001744 0.009406 -0.002289 0.000000 0.000000 0.000000
# 3 -0.002958 -0.002289 0.008732 0.000000 0.000000 0.000000
# 4 0.000000 0.000000 0.000000 0.032964 0.000000 0.000000
# 5 0.000000 0.000000 0.000000 0.000000 0.028725 0.000000
# 6 0.000000 0.000000 0.000000 0.000000 0.000000 0.026001
#
#
# Mechanical properties :
#
#
# Convention : Reuss Voigt Hill
#
# Bulk Modulus (GPa) = 74.80533 75.69355 75.24944
# Shear Modulus (GPa) = 37.45962 38.33371 37.89666
#
# Velocity S-wave (km/s) = 4.54911 4.60188 4.57558
# Velocity P-wave (km/s) = 8.30172 8.36977 8.33582
#
# Compressibility (1/GPa) = 0.01336803
#
# Stress axis : x y z
#
# Youngs Moduli (GPa) = 108.56413 106.31336 114.51579
#
# Poissons Ratio (x) = 0.18539 0.33871
# Poissons Ratio (y) = 0.18931 0.26216
# Poissons Ratio (z) = 0.32111 0.24338
#
# Static dielectric constant tensor:
#      x y z
#    x 1.712210 0.000000 0.000000 
#    y 0.000000 1.651730 0.000000 
#    z 0.000000 0.000000 1.630540 
# 
# From -- ./inp_files/35641.got.cif
#   From: 2010.05.17/outbox.ucp.g08.bks.cvg/sg72_18_cif.got.tgz:35641.got - 2010.06.11 16:33:07.
