data_PCOD9529397
_publ_section_title
;
Structure prediction by ZEFSAII (Michael W. Deem and Ramdas Pophale) SiO2 
 PCOD9529397
Probable space group: I B A M
;
_chemical_formula_sum "Si O2"
_cell_formula_units_Z 40
_cell_length_a 8.144879
_cell_length_b 13.018224
_cell_length_c 13.828812
_cell_angle_alpha 90.000000
_cell_angle_beta 90.000000
_cell_angle_gamma 90.000000
_cell_volume 1466.294648
_symmetry_space_group_name_H-M "I B A M"
_symmetry_group_IT_number 72
_symmetry_cell_setting 'orthorhombic'
loop_
_space_group_symop_operation_xyz
x,y,z
-x,-y,z
x,-y,1/2-z
-x,y,1/2-z
-x,-y,-z
x,y,-z
-x,y,1/2+z
x,-y,1/2+z
1/2+x,1/2+y,1/2+z
1/2-x,1/2-y,1/2+z
1/2+x,1/2-y,-z
1/2-x,1/2+y,-z
1/2-x,1/2-y,1/2-z
1/2+x,1/2+y,1/2-z
1/2-x,1/2+y,z
1/2+x,1/2-y,z
loop_
_atom_site_type_symbol
_atom_site_label
_atom_site_fract_x
_atom_site_fract_y
_atom_site_fract_z
Si Si1 0.955996 0.833143 0.108608
Si Si2 0.734666 0.016073 0.111634
Si Si3 0.000000 0.649962 0.250000
O O1 0.105563 0.912486 0.106395
O O2 0.024590 0.737720 0.167110
O O3 0.802678 0.903559 0.145620
O O4 0.911992 0.800533 0.000000
O O5 0.613660 0.076253 0.182570
O O6 0.678350 0.004335 0.000000
#
# Coordination Sequence:
#
# PCOD9529397 Si02
#       3
#    16  16   8
#     4   9  20  40  66 102 152 200 245 313 394 464
#     4   9  20  39  64 102 152 200 249 314 391 465
#     4  12  20  35  76 115 136 190 270 324 372 458
#
# _framework density 27.279646
#
# number of rings (size 3 to 8) (size 9 to 14) (size 15 to 20)
#    0.000    2.400    0.000    4.800    0.000    3.200 
#    0.000    0.000    0.000   31.200    0.000   70.000 
#    0.000    0.000    0.000    0.000    0.000    0.000 
#
# Total GULP energy -111602.733335 kJ/mol
# GULP energy per Si atom -5580.136667 kJ/mol
# Density = 2.721756 g / cm^3
# Si number density = 27.279646 Si / 1000 Ang^3
#
#
#
# Elastic Constant Matrix: (Units=GPa)
#
#
# Indices 1 2 3 4 5 6 
#
# 1 119.6307 104.0011 67.3604 0.0000 0.0000 0.0000
# 2 104.0011 155.6031 65.2733 0.0000 0.0000 0.0000
# 3 67.3604 65.2733 179.5249 0.0000 0.0000 0.0000
# 4 0.0000 0.0000 0.0000 135.8085 0.0000 0.0000
# 5 0.0000 0.0000 0.0000 0.0000 12.4832 0.0000
# 6 0.0000 0.0000 0.0000 0.0000 0.0000 75.5572
#
#
#
# Elastic Compliance Matrix: (Units=1/GPa)
#
#
# Indices 1 2 3 4 5 6 
#
# 1 0.021544 -0.012990 -0.003361 0.000000 0.000000 0.000000
# 2 -0.012990 0.015415 -0.000731 0.000000 0.000000 0.000000
# 3 -0.003361 -0.000731 0.007097 0.000000 0.000000 0.000000
# 4 0.000000 0.000000 0.000000 0.007363 0.000000 0.000000
# 5 0.000000 0.000000 0.000000 0.000000 0.080108 0.000000
# 6 0.000000 0.000000 0.000000 0.000000 0.000000 0.013235
#
#
# Mechanical properties :
#
#
# Convention : Reuss Voigt Hill
#
# Bulk Modulus (GPa) = 101.07534 103.11426 102.09480
# Shear Modulus (GPa) = 27.43895 59.31136 43.37515
#
# Velocity S-wave (km/s) = 3.17494 4.66789 3.99183
# Velocity P-wave (km/s) = 7.11142 8.18128 7.66504
#
# Compressibility (1/GPa) = 0.00989361
#
# Stress axis : x y z
#
# Youngs Moduli (GPa) = 46.41674 64.87124 140.90489
#
# Poissons Ratio (x) = 0.84266 0.47354
# Poissons Ratio (y) = 0.60294 0.10298
# Poissons Ratio (z) = 0.15599 0.04741
#
# Static dielectric constant tensor:
#      x y z
#    x 2.386820 0.000000 0.000000 
#    y 0.000000 2.122000 0.000000 
#    z 0.000000 0.000000 2.139980 
# 
# From -- ./inp_files/17862.got.cif
#   From: 2010.05.17/outbox.cif.g08.bks.cpg/sg72_9_cif.got.tgz:17862.got - 2010.06.03 17:03:01.
