data_PCOD9529266
_publ_section_title
;
Structure prediction by ZEFSAII (Michael W. Deem and Ramdas Pophale) SiO2 
 PCOD9529266
Probable space group: I B A M
;
_chemical_formula_sum "Si O2"
_cell_formula_units_Z 104
_cell_length_a 8.448987
_cell_length_b 21.050802
_cell_length_c 28.440988
_cell_angle_alpha 90.000000
_cell_angle_beta 90.000000
_cell_angle_gamma 90.000000
_cell_volume 5058.455891
_symmetry_space_group_name_H-M "I B A M"
_symmetry_group_IT_number 72
_symmetry_cell_setting 'orthorhombic'
loop_
_space_group_symop_operation_xyz
x,y,z
-x,-y,z
x,-y,1/2-z
-x,y,1/2-z
-x,-y,-z
x,y,-z
-x,y,1/2+z
x,-y,1/2+z
1/2+x,1/2+y,1/2+z
1/2-x,1/2-y,1/2+z
1/2+x,1/2-y,-z
1/2-x,1/2+y,-z
1/2-x,1/2-y,1/2-z
1/2+x,1/2+y,1/2-z
1/2-x,1/2+y,z
1/2+x,1/2-y,z
loop_
_atom_site_type_symbol
_atom_site_label
_atom_site_fract_x
_atom_site_fract_y
_atom_site_fract_z
Si Si1 0.063862 0.065645 0.852318
Si Si2 0.679257 0.184419 0.228678
Si Si3 0.000000 0.102580 0.250000
Si Si4 0.074535 0.819172 0.907490
Si Si5 0.897896 0.558199 0.400104
Si Si6 0.415625 0.812737 0.118607
Si Si7 0.539085 0.604917 0.000000
Si Si8 0.258878 0.987021 0.500000
O O1 0.044839 0.065192 0.796763
O O2 0.241908 0.069986 0.869713
O O3 0.968651 0.126757 0.869851
O O4 0.000000 0.000000 0.873663
O O5 0.500000 0.171304 0.250000
O O6 0.750000 0.250000 0.250000
O O7 0.642746 0.186757 0.172896
O O8 0.832519 0.139294 0.238669
O O9 0.260141 0.811375 0.912638
O O10 0.016440 0.849902 0.955491
O O11 0.008457 0.751954 0.891059
O O12 0.849203 0.534649 0.452534
O O13 0.000000 0.500000 0.379660
O O14 0.991576 0.624007 0.396086
O O15 0.699822 0.561045 0.000000
O O16 0.399109 0.554507 0.000000
#
# Coordination Sequence:
#
# PCOD9529266 Si02
#       8
#    16  16   8  16  16  16   8   8
#     4  12  24  46  70 101 142 189 239 295 370 437
#     4  12  23  43  71 104 144 194 252 306 369 450
#     4  12  25  44  72 106 144 196 247 306 375 444
#     4  12  25  45  71 101 145 189 238 305 361 438
#     4  12  26  45  77 106 145 191 242 309 368 452
#     4  12  26  46  69 107 147 186 247 300 375 439
#     4  11  24  43  73 106 137 193 238 298 364 445
#     4  11  23  45  73 106 140 187 251 292 370 449
#
# _framework density 20.559633000000002
#
# number of rings (size 3 to 8) (size 9 to 14) (size 15 to 20)
#    0.000    0.154    3.846    6.923    0.000    1.846 
#    0.000    0.000    0.000    0.000    0.000    0.000 
#    0.000    0.000    0.000    0.000    0.000    0.000 
#
# Total GULP energy -290322.492696 kJ/mol
# GULP energy per Si atom -5583.124860 kJ/mol
# Density = 2.051284 g / cm^3
# Si number density = 20.559633 Si / 1000 Ang^3
#
#
#
# Elastic Constant Matrix: (Units=GPa)
#
#
# Indices 1 2 3 4 5 6 
#
# 1 142.5163 62.9422 7.5837 0.0000 0.0000 0.0000
# 2 62.9422 164.1955 18.4809 0.0000 0.0000 0.0000
# 3 7.5837 18.4809 93.7412 0.0000 0.0000 0.0000
# 4 0.0000 0.0000 0.0000 19.8697 0.0000 0.0000
# 5 0.0000 0.0000 0.0000 0.0000 -6.0564 0.0000
# 6 0.0000 0.0000 0.0000 0.0000 0.0000 27.3375
#
#
#
# Elastic Compliance Matrix: (Units=1/GPa)
#
#
# Indices 1 2 3 4 5 6 
#
# 1 0.008447 -0.003233 -0.000046 0.000000 0.000000 0.000000
# 2 -0.003233 0.007466 -0.001210 0.000000 0.000000 0.000000
# 3 -0.000046 -0.001210 0.010910 0.000000 0.000000 0.000000
# 4 0.000000 0.000000 0.000000 0.050328 0.000000 0.000000
# 5 0.000000 0.000000 0.000000 0.000000 -0.165115 0.000000
# 6 0.000000 0.000000 0.000000 0.000000 0.000000 0.036580
#
#
# Mechanical properties :
#
#
# Convention : Reuss Voigt Hill
#
# Bulk Modulus (GPa) = 56.04002 64.27406 60.15704
# Shear Modulus (GPa) = -137.14270 28.99323 -54.07474
#
# Velocity S-wave (km/s) = -8.17616 3.75934 -5.13405
# Velocity P-wave (km/s) = 7.86234 7.08334 2.41275
#
# Compressibility (1/GPa) = 0.01784439
#
# Stress axis : x y z
#
# Youngs Moduli (GPa) = 118.38552 133.94398 91.65894
#
# Poissons Ratio (x) = 0.43302 0.00422
# Poissons Ratio (y) = 0.38272 0.11094
# Poissons Ratio (z) = 0.00545 0.16212
#
# Static dielectric constant tensor:
#      x y z
#    x 1.724980 0.000000 0.000000 
#    y 0.000000 1.635530 0.000000 
#    z 0.000000 0.000000 1.735960 
# 
# From -- ./inp_files/47453.got.cif
#   From: 2010.05.17/outbox.cif.g08.bks.cpg/sg72_24_cif.got.tgz:47453.got - 2010.06.03 17:03:01.
