data_PCOD9529037
_publ_section_title
;
Structure prediction by ZEFSAII (Michael W. Deem and Ramdas Pophale) SiO2 
 PCOD9529037
Probable space group: I B A M
;
_chemical_formula_sum "Si O2"
_cell_formula_units_Z 56
_cell_length_a 4.954146
_cell_length_b 33.463624
_cell_length_c 14.621357
_cell_angle_alpha 90.000000
_cell_angle_beta 90.000000
_cell_angle_gamma 90.000000
_cell_volume 2423.982355
_symmetry_space_group_name_H-M "I B A M"
_symmetry_group_IT_number 72
_symmetry_cell_setting 'orthorhombic'
loop_
_space_group_symop_operation_xyz
x,y,z
-x,-y,z
x,-y,1/2-z
-x,y,1/2-z
-x,-y,-z
x,y,-z
-x,y,1/2+z
x,-y,1/2+z
1/2+x,1/2+y,1/2+z
1/2-x,1/2-y,1/2+z
1/2+x,1/2-y,-z
1/2-x,1/2+y,-z
1/2-x,1/2-y,1/2-z
1/2+x,1/2+y,1/2-z
1/2-x,1/2+y,z
1/2+x,1/2-y,z
loop_
_atom_site_type_symbol
_atom_site_label
_atom_site_fract_x
_atom_site_fract_y
_atom_site_fract_z
Si Si1 0.416508 0.336324 0.650966
Si Si2 0.264125 0.527176 0.393691
Si Si3 0.926818 0.612067 0.106824
Si Si4 0.289202 0.223927 0.000000
O O1 0.500000 0.320757 0.750000
O O2 0.683734 0.356325 0.609443
O O3 0.290515 0.302554 0.587101
O O4 0.186769 0.370452 0.657744
O O5 0.500000 0.500000 0.353288
O O6 0.344511 0.535574 0.500000
O O7 0.187503 0.570331 0.355097
O O8 0.000000 0.500000 0.393386
O O9 0.010035 0.606072 0.000000
O O10 0.598759 0.237098 0.000000
#
# Coordination Sequence:
#
# PCOD9529037 Si02
#       4
#    16  16  16   8
#     4  12  25  43  68 100 133 173 222 274 333 404
#     4   9  17  29  52  90 127 167 220 269 314 371
#     4  11  20  39  66  93 134 180 224 274 332 394
#     4  12  26  46  72  98 132 168 216 272 342 412
#
# _framework density 23.102477
#
# number of rings (size 3 to 8) (size 9 to 14) (size 15 to 20)
#    0.000    1.143    2.857    4.286    0.000    5.714 
#    0.000    0.000    0.000   12.857    0.000    0.000 
#    0.000    0.000    0.000    0.286    0.000    0.000 
#
# Total GULP energy -156764.412606 kJ/mol
# GULP energy per Si atom -5598.729022 kJ/mol
# Density = 2.304989 g / cm^3
# Si number density = 23.102477 Si / 1000 Ang^3
#
#
#
# Elastic Constant Matrix: (Units=GPa)
#
#
# Indices 1 2 3 4 5 6 
#
# 1 95.4507 2.9463 4.6859 0.0000 0.0000 0.0000
# 2 2.9463 84.7394 22.2594 0.0000 0.0000 0.0000
# 3 4.6859 22.2594 84.4047 0.0000 0.0000 0.0000
# 4 0.0000 0.0000 0.0000 -2.1084 0.0000 0.0000
# 5 0.0000 0.0000 0.0000 0.0000 20.3835 0.0000
# 6 0.0000 0.0000 0.0000 0.0000 0.0000 54.0394
#
#
#
# Elastic Compliance Matrix: (Units=1/GPa)
#
#
# Indices 1 2 3 4 5 6 
#
# 1 0.010509 -0.000228 -0.000523 0.000000 0.000000 0.000000
# 2 -0.000228 0.012684 -0.003332 0.000000 0.000000 0.000000
# 3 -0.000523 -0.003332 0.012756 0.000000 0.000000 0.000000
# 4 0.000000 0.000000 0.000000 -0.474297 0.000000 0.000000
# 5 0.000000 0.000000 0.000000 0.000000 0.049059 0.000000
# 6 0.000000 0.000000 0.000000 0.000000 0.000000 0.018505
#
#
# Mechanical properties :
#
#
# Convention : Reuss Voigt Hill
#
# Bulk Modulus (GPa) = 35.99495 36.04200 36.01848
# Shear Modulus (GPa) = -14.15006 30.10978 7.97986
#
# Velocity S-wave (km/s) = -2.47754 3.61406 1.86054
# Velocity P-wave (km/s) = 2.72582 5.74892 4.49890
#
# Compressibility (1/GPa) = 0.02778167
#
# Stress axis : x y z
#
# Youngs Moduli (GPa) = 95.15350 78.83840 78.39707
#
# Poissons Ratio (x) = 0.01797 0.04103
# Poissons Ratio (y) = 0.02169 0.26125
# Poissons Ratio (z) = 0.04980 0.26272
#
# Static dielectric constant tensor:
#      x y z
#    x 1.811000 0.000000 0.000000 
#    y 0.000000 1.855850 0.000000 
#    z 0.000000 0.000000 1.930540 
# 
# From -- ./inp_files/17550.got.cif
#   From: 2010.05.17/outbox.cif.g08.bks.cpg/sg72_9_cif.got.tgz:17550.got - 2010.06.03 17:03:01.
