data_PCOD9529476
_publ_section_title
;
Structure prediction by ZEFSAII (Michael W. Deem and Ramdas Pophale) SiO2 
 PCOD9529476
Probable space group: I B A M
;
_chemical_formula_sum "Si O2"
_cell_formula_units_Z 96
_cell_length_a 8.352667
_cell_length_b 29.547669
_cell_length_c 15.257273
_cell_angle_alpha 90.000000
_cell_angle_beta 90.000000
_cell_angle_gamma 90.000000
_cell_volume 3765.523046
_symmetry_space_group_name_H-M "I B A M"
_symmetry_group_IT_number 72
_symmetry_cell_setting 'orthorhombic'
loop_
_space_group_symop_operation_xyz
x,y,z
-x,-y,z
x,-y,1/2-z
-x,y,1/2-z
-x,-y,-z
x,y,-z
-x,y,1/2+z
x,-y,1/2+z
1/2+x,1/2+y,1/2+z
1/2-x,1/2-y,1/2+z
1/2+x,1/2-y,-z
1/2-x,1/2+y,-z
1/2-x,1/2-y,1/2-z
1/2+x,1/2+y,1/2-z
1/2-x,1/2+y,z
1/2+x,1/2-y,z
loop_
_atom_site_type_symbol
_atom_site_label
_atom_site_fract_x
_atom_site_fract_y
_atom_site_fract_z
Si Si1 0.153405 0.581202 0.191084
Si Si2 0.514150 0.161681 0.902132
Si Si3 0.812891 0.002044 0.856877
Si Si4 0.533990 0.319367 0.105181
Si Si5 0.182777 0.897964 0.863596
Si Si6 0.229499 0.260628 0.892433
O O1 0.210114 0.542611 0.123290
O O2 0.288769 0.595172 0.260384
O O3 0.000000 0.565061 0.250000
O O4 0.098984 0.627588 0.147766
O O5 0.681699 0.133923 0.903382
O O6 0.574298 0.209416 0.866096
O O7 0.453113 0.168995 0.000000
O O8 0.797760 0.000000 0.750000
O O9 0.775675 0.051220 0.895103
O O10 0.000000 0.000000 0.876731
O O11 0.483512 0.371415 0.122805
O O12 0.383756 0.288715 0.137945
O O13 0.690826 0.290958 0.135049
O O14 0.537707 0.316684 0.000000
O O15 0.235494 0.262036 0.000000
#
# Coordination Sequence:
#
# PCOD9529476 Si02
#       6
#    16  16  16  16  16  16
#     4   9  18  32  53  78  97 127 173 213 248 299
#     4   9  17  31  50  73 100 130 166 214 259 299
#     4   9  18  33  51  72 102 137 170 205 250 310
#     4   9  16  30  50  73  99 135 173 208 252 303
#     4   9  17  30  51  73  96 128 170 211 251 299
#     4   8  15  28  47  68  95 130 170 204 242 303
#
# _framework density 25.494468000000001
#
# number of rings (size 3 to 8) (size 9 to 14) (size 15 to 20)
#    0.000    3.167    0.000    1.500    0.000    7.667 
#    3.000    3.333    0.000    3.500    0.000    0.000 
#    0.000    0.000    0.000    0.000    0.000    0.000 
#
# Total GULP energy -267707.234395 kJ/mol
# GULP energy per Si atom -5577.234050 kJ/mol
# Density = 2.543644 g / cm^3
# Si number density = 25.494468 Si / 1000 Ang^3
#
#
#
# Elastic Constant Matrix: (Units=GPa)
#
#
# Indices 1 2 3 4 5 6 
#
# 1 49.1638 42.1387 8.1557 0.0000 0.0000 0.0000
# 2 42.1387 176.7310 13.6320 0.0000 0.0000 0.0000
# 3 8.1557 13.6320 32.1998 -0.0002 0.0000 0.0000
# 4 0.0000 0.0000 -0.0002 21.7349 0.0000 0.0000
# 5 0.0000 0.0000 0.0000 0.0000 15.5904 0.0000
# 6 0.0000 0.0000 0.0000 0.0000 0.0000 42.7627
#
#
#
# Elastic Compliance Matrix: (Units=1/GPa)
#
#
# Indices 1 2 3 4 5 6 
#
# 1 0.026080 -0.005901 -0.004107 0.000000 0.000000 0.000000
# 2 -0.005901 0.007185 -0.001547 0.000000 0.000000 0.000000
# 3 -0.004107 -0.001547 0.032751 0.000000 0.000000 0.000000
# 4 0.000000 0.000000 0.000000 0.046009 0.000000 0.000000
# 5 0.000000 0.000000 0.000000 0.000000 0.064142 0.000000
# 6 0.000000 0.000000 0.000000 0.000000 0.000000 0.023385
#
#
# Mechanical properties :
#
#
# Convention : Reuss Voigt Hill
#
# Bulk Modulus (GPa) = 23.30753 42.88304 33.09528
# Shear Modulus (GPa) = 21.10022 28.96214 25.03118
#
# Velocity S-wave (km/s) = 2.87999 3.37414 3.13681
# Velocity P-wave (km/s) = 4.49680 5.66011 5.11165
#
# Compressibility (1/GPa) = 0.04290459
#
# Stress axis : x y z
#
# Youngs Moduli (GPa) = 38.34395 139.18349 30.53316
#
# Poissons Ratio (x) = 0.82139 0.12540
# Poissons Ratio (y) = 0.22629 0.04723
# Poissons Ratio (z) = 0.15748 0.21531
#
# Static dielectric constant tensor:
#      x y z
#    x 2.103580 0.000000 0.000000 
#    y 0.000000 2.154080 0.000000 
#    z 0.000000 0.000000 2.015200 
# 
# From -- ./inp_files/36066.got.cif
#   From: 2010.05.17/outbox.cif.g08.bks.cpg/sg72_19_cif.got.tgz:36066.got - 2010.06.03 17:03:01.
