data_PCOD9529407
_publ_section_title
;
Structure prediction by ZEFSAII (Michael W. Deem and Ramdas Pophale) SiO2 
 PCOD9529407
Probable space group: I B A M
;
_chemical_formula_sum "Si O2"
_cell_formula_units_Z 64
_cell_length_a 11.320488
_cell_length_b 27.632865
_cell_length_c 10.133806
_cell_angle_alpha 90.000000
_cell_angle_beta 90.000000
_cell_angle_gamma 90.000000
_cell_volume 3170.032027
_symmetry_space_group_name_H-M "I B A M"
_symmetry_group_IT_number 72
_symmetry_cell_setting 'orthorhombic'
loop_
_space_group_symop_operation_xyz
x,y,z
-x,-y,z
x,-y,1/2-z
-x,y,1/2-z
-x,-y,-z
x,y,-z
-x,y,1/2+z
x,-y,1/2+z
1/2+x,1/2+y,1/2+z
1/2-x,1/2-y,1/2+z
1/2+x,1/2-y,-z
1/2-x,1/2+y,-z
1/2-x,1/2-y,1/2-z
1/2+x,1/2+y,1/2-z
1/2-x,1/2+y,z
1/2+x,1/2-y,z
loop_
_atom_site_type_symbol
_atom_site_label
_atom_site_fract_x
_atom_site_fract_y
_atom_site_fract_z
Si Si1 0.742615 0.809931 0.500000
Si Si2 0.481655 0.647419 0.500000
Si Si3 0.000000 0.080881 0.250000
Si Si4 0.749124 0.456955 0.156400
Si Si5 0.734766 0.301594 0.000000
Si Si6 0.640395 0.145946 0.264992
O O1 0.884913 0.810642 0.500000
O O2 0.702179 0.754587 0.500000
O O3 0.697073 0.838381 0.372841
O O4 0.461755 0.614797 0.628768
O O5 0.614855 0.666895 0.500000
O O6 0.112010 0.051599 0.196049
O O7 0.794374 0.500000 0.250000
O O8 0.815919 0.406958 0.188870
O O9 0.757679 0.467469 0.000000
O O10 0.811097 0.316527 0.126708
O O11 0.500000 0.146926 0.250000
#
# Coordination Sequence:
#
# PCOD9529407 Si02
#       6
#     8   8   8  16   8  16
#     4  12  27  42  77 108 133 192 241 281 348 416
#     4  12  22  42  75 100 144 180 227 296 350 402
#     4  12  21  44  68 102 144 180 222 294 355 408
#     4  12  27  46  71 103 140 182 232 290 353 417
#     4  12  25  50  67 106 145 184 235 293 346 402
#     4  12  26  48  70 101 148 186 231 291 343 416
#
# _framework density 20.189070999999998
#
# number of rings (size 3 to 8) (size 9 to 14) (size 15 to 20)
#    0.000    0.000    7.500    1.875    7.000    1.500 
#    0.000    1.250    0.000    0.000    0.000    0.000 
#    0.000    0.000    0.000    0.000    0.000    0.000 
#
# Total GULP energy -179088.155611 kJ/mol
# GULP energy per Si atom -5596.504863 kJ/mol
# Density = 2.014312 g / cm^3
# Si number density = 20.189071 Si / 1000 Ang^3
#
#
#
# Elastic Constant Matrix: (Units=GPa)
#
#
# Indices 1 2 3 4 5 6 
#
# 1 120.5021 5.8499 32.0762 0.0000 0.0000 0.0000
# 2 5.8499 91.2309 51.8205 0.0000 0.0000 0.0000
# 3 32.0762 51.8205 203.2060 0.0001 0.0001 -0.0001
# 4 0.0000 0.0000 0.0001 46.7538 -0.0001 0.0000
# 5 0.0000 0.0000 0.0001 -0.0001 12.8551 0.0000
# 6 0.0000 0.0000 -0.0001 0.0000 0.0000 8.5706
#
#
#
# Elastic Compliance Matrix: (Units=1/GPa)
#
#
# Indices 1 2 3 4 5 6 
#
# 1 0.008668 0.000259 -0.001434 0.000000 0.000000 0.000000
# 2 0.000259 0.012826 -0.003312 0.000000 0.000000 0.000000
# 3 -0.001434 -0.003312 0.005992 0.000000 0.000000 0.000000
# 4 0.000000 0.000000 0.000000 0.021389 0.000000 0.000000
# 5 0.000000 0.000000 0.000000 0.000000 0.077790 0.000000
# 6 0.000000 0.000000 0.000000 0.000000 0.000000 0.116678
#
#
# Mechanical properties :
#
#
# Convention : Reuss Voigt Hill
#
# Bulk Modulus (GPa) = 54.02030 66.04803 60.03417
# Shear Modulus (GPa) = 19.34339 35.31540 27.32939
#
# Velocity S-wave (km/s) = 3.09870 4.18692 3.68322
# Velocity P-wave (km/s) = 6.29427 7.49397 6.92016
#
# Compressibility (1/GPa) = 0.01851156
#
# Stress axis : x y z
#
# Youngs Moduli (GPa) = 115.36927 77.96884 166.88879
#
# Poissons Ratio (x) = -0.02018 0.23936
# Poissons Ratio (y) = -0.02987 0.55267
# Poissons Ratio (z) = 0.16547 0.25820
#
# Static dielectric constant tensor:
#      x y z
#    x 1.703410 0.000000 0.000000 
#    y 0.000000 1.705270 0.000000 
#    z 0.000000 0.000000 1.646260 
# 
# From -- ./inp_files/2687.got.cif
#   From: 2010.05.17/outbox.cif.g08.bks.cpg/sg72_2_cif.got.tgz:2687.got - 2010.06.03 17:03:01.
