data_PCOD9529627
_publ_section_title
;
Structure prediction by ZEFSAII (Michael W. Deem and Ramdas Pophale) SiO2 
 PCOD9529627
Probable space group: I B C A 
;
_chemical_formula_sum "Si O2"
_cell_formula_units_Z 112
_cell_length_a 30.183930
_cell_length_b 17.813941
_cell_length_c 11.360150
_cell_angle_alpha 90.000000
_cell_angle_beta 90.000000
_cell_angle_gamma 90.000000
_cell_volume 6108.292993
_symmetry_space_group_name_H-M "I B C A "
_symmetry_group_IT_number 73
_symmetry_cell_setting 'orthorhombic'
loop_
_space_group_symop_operation_xyz
x,y,z
-x,1/2-y,z
x,-y,1/2-z
1/2-x,y,-z
-x,-y,-z
x,1/2+y,-z
-x,y,1/2+z
1/2+x,-y,z
1/2+x,1/2+y,1/2+z
1/2-x,-y,1/2+z
1/2+x,1/2-y,-z
-x,1/2+y,1/2-z
1/2-x,1/2-y,1/2-z
1/2+x,y,1/2-z
1/2-x,1/2+y,z
x,1/2-y,1/2+z
loop_
_atom_site_type_symbol
_atom_site_label
_atom_site_fract_x
_atom_site_fract_y
_atom_site_fract_z
Si Si1 0.464432 0.370771 0.634495
Si Si2 0.410688 0.000000 0.250000
Si Si3 0.747140 0.341822 0.243617
Si Si4 0.180337 0.177228 0.414414
Si Si5 0.153172 0.376467 0.151000
Si Si6 0.600426 0.744568 0.763717
Si Si7 0.250000 0.198249 0.000000
Si Si8 0.976975 0.330947 0.136855
O O1 0.438958 0.448250 0.661622
O O2 0.432702 0.297766 0.659080
O O3 0.498781 0.366181 0.746578
O O4 0.478723 0.367200 0.495543
O O5 0.378649 0.943449 0.183057
O O6 0.750000 0.250000 0.250000
O O7 0.784818 0.365403 0.332373
O O8 0.698793 0.370585 0.276198
O O9 0.758673 0.354587 0.109808
O O10 0.165569 0.122975 0.516319
O O11 0.138136 0.207535 0.344015
O O12 0.208252 0.246591 0.473472
O O13 0.126017 0.300879 0.177494
O O14 0.572239 0.686747 0.685285
O O15 0.000000 0.250000 0.120036
#
# Coordination Sequence:
#
# PCOD9529627 Si02
#       8
#    16   8  16  16  16  16   8  16
#     4  10  22  40  59  86 117 153 195 234 296 367
#     4  10  26  40  56  80 110 170 198 226 278 354
#     4  10  17  29  52  87 111 152 182 238 286 329
#     4  11  17  30  55  86 119 149 188 239 291 333
#     4  11  19  35  55  79 121 151 200 229 278 352
#     4  10  19  31  57  94 120 143 179 249 311 342
#     4  10  16  28  50  90 120 138 180 228 304 338
#     4  10  20  37  62  91 119 142 185 253 314 346
#
# _framework density 18.335728
#
# number of rings (size 3 to 8) (size 9 to 14) (size 15 to 20)
#    0.000    1.714    5.714    2.143    0.000    2.857 
#    0.000    0.000    3.143    0.000    0.000    0.000 
#    0.000    0.000    0.000    0.000    0.000    0.000 
#
# Total GULP energy -311806.933838 kJ/mol
# GULP energy per Si atom -5567.980961 kJ/mol
# Density = 1.829400 g / cm^3
# Si number density = 18.335728 Si / 1000 Ang^3
#
#
#
# Elastic Constant Matrix: (Units=GPa)
#
#
# Indices 1 2 3 4 5 6 
#
# 1 111.0533 30.7612 77.2188 0.0000 0.0000 0.0000
# 2 30.7612 40.6734 44.5581 0.0000 0.0000 0.0000
# 3 77.2188 44.5581 158.8588 0.0000 0.0000 0.0000
# 4 0.0000 0.0000 0.0000 8.8891 0.0000 0.0000
# 5 0.0000 0.0000 0.0000 0.0000 33.2460 0.0000
# 6 0.0000 0.0000 0.0000 0.0000 0.0000 23.2754
#
#
#
# Elastic Compliance Matrix: (Units=1/GPa)
#
#
# Indices 1 2 3 4 5 6 
#
# 1 0.014169 -0.004577 -0.005603 0.000000 0.000000 0.000000
# 2 -0.004577 0.036971 -0.008145 0.000000 0.000000 0.000000
# 3 -0.005603 -0.008145 0.011303 0.000000 0.000000 0.000000
# 4 0.000000 0.000000 0.000000 0.112497 0.000000 0.000000
# 5 0.000000 0.000000 0.000000 0.000000 0.030079 0.000000
# 6 0.000000 0.000000 0.000000 0.000000 0.000000 0.042964
#
#
# Mechanical properties :
#
#
# Convention : Reuss Voigt Hill
#
# Bulk Modulus (GPa) = 38.77244 68.40687 53.58965
# Shear Modulus (GPa) = 17.05144 23.61861 20.33503
#
# Velocity S-wave (km/s) = 3.05283 3.59293 3.33384
# Velocity P-wave (km/s) = 5.79811 7.38926 6.64151
#
# Compressibility (1/GPa) = 0.02579152
#
# Stress axis : x y z
#
# Youngs Moduli (GPa) = 70.57791 27.04846 88.47088
#
# Poissons Ratio (x) = 0.12381 0.49573
# Poissons Ratio (y) = 0.32305 0.72059
# Poissons Ratio (z) = 0.39547 0.22031
#
# Static dielectric constant tensor:
#      x y z
#    x 1.943850 0.000000 0.000000 
#    y 0.000000 1.579290 0.000000 
#    z 0.000000 0.000000 1.683280 
# 
# From -- ./inp_files/14417.got.cif
#   From: 2010.05.17/outbox.cif.g08.bks.cpg/sg73_8_cif.got.tgz:14417.got - 2010.06.03 17:35:07.
