data_PCOD9529405
_publ_section_title
;
Structure prediction by ZEFSAII (Michael W. Deem and Ramdas Pophale) SiO2 
 PCOD9529405
Probable space group: I B A M
;
_chemical_formula_sum "Si O2"
_cell_formula_units_Z 72
_cell_length_a 10.818426
_cell_length_b 18.546226
_cell_length_c 18.442169
_cell_angle_alpha 90.000000
_cell_angle_beta 90.000000
_cell_angle_gamma 90.000000
_cell_volume 3700.254743
_symmetry_space_group_name_H-M "I B A M"
_symmetry_group_IT_number 72
_symmetry_cell_setting 'orthorhombic'
loop_
_space_group_symop_operation_xyz
x,y,z
-x,-y,z
x,-y,1/2-z
-x,y,1/2-z
-x,-y,-z
x,y,-z
-x,y,1/2+z
x,-y,1/2+z
1/2+x,1/2+y,1/2+z
1/2-x,1/2-y,1/2+z
1/2+x,1/2-y,-z
1/2-x,1/2+y,-z
1/2-x,1/2-y,1/2-z
1/2+x,1/2+y,1/2-z
1/2-x,1/2+y,z
1/2+x,1/2-y,z
loop_
_atom_site_type_symbol
_atom_site_label
_atom_site_fract_x
_atom_site_fract_y
_atom_site_fract_z
Si Si1 0.052171 0.133206 0.832590
Si Si2 0.725339 0.028372 0.672769
Si Si3 0.000000 0.400582 0.250000
Si Si4 0.672710 0.218682 0.818540
Si Si5 0.692309 0.392397 0.414099
O O1 0.180593 0.091875 0.846095
O O2 0.083711 0.217239 0.843993
O O3 0.000000 0.125678 0.750000
O O4 0.947694 0.102362 0.885084
O O5 0.588924 0.056854 0.693842
O O6 0.775055 0.000000 0.750000
O O7 0.734713 0.961924 0.617698
O O8 0.092480 0.348242 0.208470
O O9 0.750000 0.250000 0.750000
O O10 0.758627 0.182351 0.878979
O O11 0.699907 0.391038 0.500000
#
# Coordination Sequence:
#
# PCOD9529405 Si02
#       5
#    16  16   8  16  16
#     4  12  22  40  73 101 127 180 240 281 331 417
#     4  12  23  39  70 100 131 181 230 280 335 412
#     4  12  21  38  70 106 131 174 240 286 321 414
#     4  12  21  42  72 105 131 176 234 284 346 411
#     4  12  28  45  65 103 147 177 226 299 355 402
#
# _framework density 19.458120000000001
#
# number of rings (size 3 to 8) (size 9 to 14) (size 15 to 20)
#    0.000    0.000   10.000    1.000    0.000    2.667 
#    0.000    2.222    0.000    0.000    0.000    0.000 
#    0.000    0.000    0.000    0.000    0.000    0.000 
#
# Total GULP energy -201062.451791 kJ/mol
# GULP energy per Si atom -5585.068105 kJ/mol
# Density = 1.941383 g / cm^3
# Si number density = 19.458120 Si / 1000 Ang^3
#
#
#
# Elastic Constant Matrix: (Units=GPa)
#
#
# Indices 1 2 3 4 5 6 
#
# 1 135.5095 69.2844 46.8506 0.0000 0.0000 0.0000
# 2 69.2844 125.8715 58.3807 0.0000 0.0000 0.0000
# 3 46.8506 58.3807 139.0620 0.0000 0.0000 0.0000
# 4 0.0000 0.0000 0.0000 24.7993 0.0000 0.0000
# 5 0.0000 0.0000 0.0000 0.0000 15.8752 0.0000
# 6 0.0000 0.0000 0.0000 0.0000 0.0000 44.1577
#
#
#
# Elastic Compliance Matrix: (Units=1/GPa)
#
#
# Indices 1 2 3 4 5 6 
#
# 1 0.010478 -0.005129 -0.001377 0.000000 0.000000 0.000000
# 2 -0.005129 0.012376 -0.003468 0.000000 0.000000 0.000000
# 3 -0.001377 -0.003468 0.009111 0.000000 0.000000 0.000000
# 4 0.000000 0.000000 0.000000 0.040324 0.000000 0.000000
# 5 0.000000 0.000000 0.000000 0.000000 0.062991 0.000000
# 6 0.000000 0.000000 0.000000 0.000000 0.000000 0.022646
#
#
# Mechanical properties :
#
#
# Convention : Reuss Voigt Hill
#
# Bulk Modulus (GPa) = 83.21000 83.27493 83.24247
# Shear Modulus (GPa) = 27.49083 32.02826 29.75954
#
# Velocity S-wave (km/s) = 3.76283 4.06151 3.91502
# Velocity P-wave (km/s) = 7.85716 8.05508 7.95674
#
# Compressibility (1/GPa) = 0.01201779
#
# Stress axis : x y z
#
# Youngs Moduli (GPa) = 95.43896 80.80085 109.76040
#
# Poissons Ratio (x) = 0.41441 0.15113
# Poissons Ratio (y) = 0.48949 0.38063
# Poissons Ratio (z) = 0.13141 0.28020
#
# Static dielectric constant tensor:
#      x y z
#    x 1.742300 0.000000 0.000000 
#    y 0.000000 1.729280 0.000000 
#    z 0.000000 0.000000 1.643370 
# 
# From -- ./inp_files/29062.got.cif
#   From: 2010.05.17/outbox.cif.g08.bks.cpg/sg72_15_cif.got.tgz:29062.got - 2010.06.03 17:03:01.
