data_PCOD9529061
_publ_section_title
;
Structure prediction by ZEFSAII (Michael W. Deem and Ramdas Pophale) SiO2 
 PCOD9529061
Probable space group: I B A M
;
_chemical_formula_sum "Si O2"
_cell_formula_units_Z 80
_cell_length_a 18.948118
_cell_length_b 27.136516
_cell_length_c 8.550063
_cell_angle_alpha 90.000000
_cell_angle_beta 90.000000
_cell_angle_gamma 90.000000
_cell_volume 4396.321901
_symmetry_space_group_name_H-M "I B A M"
_symmetry_group_IT_number 72
_symmetry_cell_setting 'orthorhombic'
loop_
_space_group_symop_operation_xyz
x,y,z
-x,-y,z
x,-y,1/2-z
-x,y,1/2-z
-x,-y,-z
x,y,-z
-x,y,1/2+z
x,-y,1/2+z
1/2+x,1/2+y,1/2+z
1/2-x,1/2-y,1/2+z
1/2+x,1/2-y,-z
1/2-x,1/2+y,-z
1/2-x,1/2-y,1/2-z
1/2+x,1/2+y,1/2-z
1/2-x,1/2+y,z
1/2+x,1/2-y,z
loop_
_atom_site_type_symbol
_atom_site_label
_atom_site_fract_x
_atom_site_fract_y
_atom_site_fract_z
Si Si1 0.359029 0.553248 0.313285
Si Si2 0.718585 0.098885 0.313143
Si Si3 0.717665 0.699433 0.187320
Si Si4 0.922703 0.845712 0.187003
Si Si5 0.074920 0.555852 0.312843
O O1 0.381508 0.500000 0.250000
O O2 0.364207 0.554822 0.500000
O O3 0.278175 0.563502 0.261502
O O4 0.402618 0.598812 0.241676
O O5 0.722478 0.094768 0.500000
O O6 0.739372 0.153598 0.259221
O O7 0.641688 0.085002 0.252152
O O8 0.750000 0.750000 0.250000
O O9 0.637435 0.689754 0.242616
O O10 0.720845 0.697510 0.000000
O O11 0.000000 0.833460 0.250000
O O12 0.920317 0.843639 0.000000
O O13 0.081127 0.500000 0.250000
O O14 0.074834 0.555423 0.500000
O O15 0.000000 0.575348 0.250000
#
# Coordination Sequence:
#
# PCOD9529061 Si02
#       5
#    16  16  16  16  16
#     4  11  21  35  54  81 113 150 190 231 273 325
#     4  11  21  36  56  81 110 145 185 231 278 330
#     4  11  22  40  63  88 113 145 184 229 278 330
#     4  11  22  39  60  86 116 150 186 228 276 329
#     4  11  21  35  53  78 110 148 187 229 277 332
#
# _framework density 18.197029000000001
#
# number of rings (size 3 to 8) (size 9 to 14) (size 15 to 20)
#    0.000    1.000    0.000   12.600    0.000    0.400 
#    0.000    3.000    0.000    0.000    0.000    0.000 
#    0.000    0.000    0.000    0.000    0.000    0.000 
#
# Total GULP energy -223721.888115 kJ/mol
# GULP energy per Si atom -5593.047203 kJ/mol
# Density = 1.815561 g / cm^3
# Si number density = 18.197029 Si / 1000 Ang^3
#
#
#
# Elastic Constant Matrix: (Units=GPa)
#
#
# Indices 1 2 3 4 5 6 
#
# 1 131.0827 33.3102 17.0246 0.0000 0.0000 0.0000
# 2 33.3102 77.1080 8.7791 0.0000 0.0000 0.0000
# 3 17.0246 8.7791 145.6710 0.0000 0.0000 0.0000
# 4 0.0000 0.0000 0.0000 29.7526 0.0000 0.0000
# 5 0.0000 0.0000 0.0000 0.0000 34.8393 0.0000
# 6 0.0000 0.0000 0.0000 0.0000 0.0000 6.7289
#
#
#
# Elastic Compliance Matrix: (Units=1/GPa)
#
#
# Indices 1 2 3 4 5 6 
#
# 1 0.008659 -0.003651 -0.000792 0.000000 0.000000 0.000000
# 2 -0.003651 0.014597 -0.000453 0.000000 0.000000 0.000000
# 3 -0.000792 -0.000453 0.006985 0.000000 0.000000 0.000000
# 4 0.000000 0.000000 0.000000 0.033610 0.000000 0.000000
# 5 0.000000 0.000000 0.000000 0.000000 0.028703 0.000000
# 6 0.000000 0.000000 0.000000 0.000000 0.000000 0.148614
#
#
# Mechanical properties :
#
#
# Convention : Reuss Voigt Hill
#
# Bulk Modulus (GPa) = 48.89974 52.45440 50.67707
# Shear Modulus (GPa) = 19.39662 33.91400 26.65531
#
# Velocity S-wave (km/s) = 3.26839 4.32176 3.83144
# Velocity P-wave (km/s) = 6.41669 7.33429 6.89078
#
# Compressibility (1/GPa) = 0.02045001
#
# Stress axis : x y z
#
# Youngs Moduli (GPa) = 115.48262 68.50515 143.17107
#
# Poissons Ratio (x) = 0.25008 0.11339
# Poissons Ratio (y) = 0.42158 0.06487
# Poissons Ratio (z) = 0.09146 0.03104
#
# Static dielectric constant tensor:
#      x y z
#    x 1.633430 0.000000 0.000000 
#    y 0.000000 1.615840 0.000000 
#    z 0.000000 0.000000 1.601600 
# 
# From -- ./inp_files/4794.got.cif
#   From: 2010.05.17/outbox.cif.g08.bks.cpg/sg72_3_cif.got.tgz:4794.got - 2010.06.03 17:03:01.
