data_PCOD9529159
_publ_section_title
;
Structure prediction by ZEFSAII (Michael W. Deem and Ramdas Pophale) SiO2 
 PCOD9529159
Probable space group: I B A M
;
_chemical_formula_sum "Si O2"
_cell_formula_units_Z 112
_cell_length_a 13.765898
_cell_length_b 14.279811
_cell_length_c 24.797298
_cell_angle_alpha 90.000000
_cell_angle_beta 90.000000
_cell_angle_gamma 90.000000
_cell_volume 4874.514514
_symmetry_space_group_name_H-M "I B A M"
_symmetry_group_IT_number 72
_symmetry_cell_setting 'orthorhombic'
loop_
_space_group_symop_operation_xyz
x,y,z
-x,-y,z
x,-y,1/2-z
-x,y,1/2-z
-x,-y,-z
x,y,-z
-x,y,1/2+z
x,-y,1/2+z
1/2+x,1/2+y,1/2+z
1/2-x,1/2-y,1/2+z
1/2+x,1/2-y,-z
1/2-x,1/2+y,-z
1/2-x,1/2-y,1/2-z
1/2+x,1/2+y,1/2-z
1/2-x,1/2+y,z
1/2+x,1/2-y,z
loop_
_atom_site_type_symbol
_atom_site_label
_atom_site_fract_x
_atom_site_fract_y
_atom_site_fract_z
Si Si1 0.690686 0.727224 0.436731
Si Si2 0.377553 0.904963 0.437310
Si Si3 0.251864 0.107033 0.261339
Si Si4 0.982655 0.766019 0.597222
Si Si5 0.403493 0.761432 0.283845
Si Si6 0.709444 0.925877 0.616859
Si Si7 0.101967 0.049541 0.560410
O O1 0.667255 0.719283 0.500000
O O2 0.784081 0.662591 0.426526
O O3 0.594103 0.702125 0.403587
O O4 0.708042 0.834860 0.421016
O O5 0.375582 0.932910 0.500000
O O6 0.468976 0.837855 0.426400
O O7 0.367461 0.995801 0.400229
O O8 0.331487 0.149933 0.220799
O O9 0.159103 0.174845 0.260823
O O10 0.296081 0.108395 0.321873
O O11 0.227553 0.000000 0.250000
O O12 0.936082 0.762884 0.656087
O O13 0.923454 0.840678 0.562283
O O14 0.500000 0.778934 0.250000
O O15 0.815257 0.970171 0.603800
O O16 0.134481 0.022052 0.500000
O O17 0.000000 0.000000 0.571803
#
# Coordination Sequence:
#
# PCOD9529159 Si02
#       7
#    16  16  16  16  16  16  16
#     4  11  23  40  65  97 136 177 219 269 334 407
#     4  11  23  40  65  97 136 177 219 269 334 407
#     4  11  25  46  69  97 133 174 230 289 342 401
#     4  12  23  42  66  95 132 177 222 274 337 399
#     4  11  25  46  69  97 133 174 230 289 342 401
#     4  12  23  42  66  95 132 177 222 274 337 399
#     4  11  22  38  63  96 134 171 218 267 325 405
#
# _framework density 22.976647
#
# number of rings (size 3 to 8) (size 9 to 14) (size 15 to 20)
#    0.000    0.714    2.857    5.143    0.000    8.000 
#    0.000    4.286    0.000    0.000    0.000    0.000 
#    0.000    0.000    0.000    0.000    0.000    0.000 
#
# Total GULP energy -313605.612814 kJ/mol
# GULP energy per Si atom -5600.100229 kJ/mol
# Density = 2.292435 g / cm^3
# Si number density = 22.976647 Si / 1000 Ang^3
#
#
#
# Elastic Constant Matrix: (Units=GPa)
#
#
# Indices 1 2 3 4 5 6 
#
# 1 65.4461 -6.8241 10.7212 0.0000 0.0000 0.0000
# 2 -6.8241 68.9962 -25.1019 0.0000 0.0000 0.0000
# 3 10.7212 -25.1019 60.2715 0.0000 0.0000 0.0000
# 4 0.0000 0.0000 0.0000 17.5094 0.0000 0.0000
# 5 0.0000 0.0000 0.0000 0.0000 18.6370 0.0000
# 6 0.0000 0.0000 0.0000 0.0000 0.0000 26.0218
#
#
#
# Elastic Compliance Matrix: (Units=1/GPa)
#
#
# Indices 1 2 3 4 5 6 
#
# 1 0.015762 0.000635 -0.002539 0.000000 0.000000 0.000000
# 2 0.000635 0.017107 0.007012 0.000000 0.000000 0.000000
# 3 -0.002539 0.007012 0.019964 0.000000 0.000000 0.000000
# 4 0.000000 0.000000 0.000000 0.057112 0.000000 0.000000
# 5 0.000000 0.000000 0.000000 0.000000 0.053657 0.000000
# 6 0.000000 0.000000 0.000000 0.000000 0.000000 0.038429
#
#
# Mechanical properties :
#
#
# Convention : Reuss Voigt Hill
#
# Bulk Modulus (GPa) = 15.86078 16.92268 16.39173
# Shear Modulus (GPa) = 23.49275 26.82822 25.16049
#
# Velocity S-wave (km/s) = 3.20107 3.42077 3.31274
# Velocity P-wave (km/s) = 4.53656 4.79410 4.66711
#
# Compressibility (1/GPa) = 0.06304861
#
# Stress axis : x y z
#
# Youngs Moduli (GPa) = 63.44397 58.45418 50.09112
#
# Poissons Ratio (x) = -0.03713 0.12719
# Poissons Ratio (y) = -0.04029 -0.35124
# Poissons Ratio (z) = 0.16110 -0.40988
#
# Static dielectric constant tensor:
#      x y z
#    x 1.885430 0.000000 0.000000 
#    y 0.000000 1.867460 0.000000 
#    z 0.000000 0.000000 1.751990 
# 
# From -- ./inp_files/44338.got.cif
#   From: 2010.05.17/outbox.cif.g08.bks.cpg/sg72_23_cif.got.tgz:44338.got - 2010.06.03 17:03:01.
