data_PCOD9529294
_publ_section_title
;
Structure prediction by ZEFSAII (Michael W. Deem and Ramdas Pophale) SiO2 
 PCOD9529294
Probable space group: I B A M
;
_chemical_formula_sum "Si O2"
_cell_formula_units_Z 48
_cell_length_a 9.123031
_cell_length_b 10.060242
_cell_length_c 20.766683
_cell_angle_alpha 90.000000
_cell_angle_beta 90.000000
_cell_angle_gamma 90.000000
_cell_volume 1905.964081
_symmetry_space_group_name_H-M "I B A M"
_symmetry_group_IT_number 72
_symmetry_cell_setting 'orthorhombic'
loop_
_space_group_symop_operation_xyz
x,y,z
-x,-y,z
x,-y,1/2-z
-x,y,1/2-z
-x,-y,-z
x,y,-z
-x,y,1/2+z
x,-y,1/2+z
1/2+x,1/2+y,1/2+z
1/2-x,1/2-y,1/2+z
1/2+x,1/2-y,-z
1/2-x,1/2+y,-z
1/2-x,1/2-y,1/2-z
1/2+x,1/2+y,1/2-z
1/2-x,1/2+y,z
1/2+x,1/2-y,z
loop_
_atom_site_type_symbol
_atom_site_label
_atom_site_fract_x
_atom_site_fract_y
_atom_site_fract_z
Si Si1 0.626693 0.696767 0.072880
Si Si2 0.071438 0.854976 0.688024
Si Si3 0.667254 0.035497 0.371096
O O1 0.486988 0.699051 0.120410
O O2 0.672823 0.850924 0.074295
O O3 0.742570 0.593851 0.104983
O O4 0.595703 0.655158 0.000000
O O5 0.243232 0.888031 0.685790
O O6 0.000000 0.785312 0.750000
O O7 0.000000 0.000000 0.688146
O O8 0.500000 0.000000 0.355655
#
# Coordination Sequence:
#
# PCOD9529294 Si02
#       3
#    16  16  16
#     4  11  24  43  67  98 139 182 223 274 336 399
#     4   9  21  43  66  93 136 179 221 274 335 399
#     4  11  24  42  69 101 133 173 226 281 333 396
#
# _framework density 25.184107000000001
#
# number of rings (size 3 to 8) (size 9 to 14) (size 15 to 20)
#    0.000    1.667    0.000    3.000    0.000   14.000 
#    0.000   20.000    0.000    6.000    0.000    0.000 
#    0.000    0.000    0.000    0.000    0.000    0.000 
#
# Total GULP energy -133933.300744 kJ/mol
# GULP energy per Si atom -5580.554198 kJ/mol
# Density = 2.512679 g / cm^3
# Si number density = 25.184107 Si / 1000 Ang^3
#
#
#
# Elastic Constant Matrix: (Units=GPa)
#
#
# Indices 1 2 3 4 5 6 
#
# 1 224.6110 53.6432 109.2898 0.0000 0.0000 0.0000
# 2 53.6432 120.1124 3.9155 0.0000 0.0000 0.0000
# 3 109.2898 3.9155 125.7548 0.0000 0.0000 0.0000
# 4 0.0000 0.0000 0.0000 45.4694 0.0000 0.0000
# 5 0.0000 0.0000 0.0000 0.0000 11.3194 0.0000
# 6 0.0000 0.0000 0.0000 0.0000 0.0000 36.1991
#
#
#
# Elastic Compliance Matrix: (Units=1/GPa)
#
#
# Indices 1 2 3 4 5 6 
#
# 1 0.009209 -0.003856 -0.007883 0.000000 0.000000 0.000000
# 2 -0.003856 0.009948 0.003041 0.000000 0.000000 0.000000
# 3 -0.007883 0.003041 0.014708 0.000000 0.000000 0.000000
# 4 0.000000 0.000000 0.000000 0.021993 0.000000 0.000000
# 5 0.000000 0.000000 0.000000 0.000000 0.088344 0.000000
# 6 0.000000 0.000000 0.000000 0.000000 0.000000 0.027625
#
#
# Mechanical properties :
#
#
# Convention : Reuss Voigt Hill
#
# Bulk Modulus (GPa) = 60.71588 89.35278 75.03433
# Shear Modulus (GPa) = 25.67897 38.83956 32.25927
#
# Velocity S-wave (km/s) = 3.19666 3.93138 3.58290
# Velocity P-wave (km/s) = 6.14703 7.49430 6.85385
#
# Compressibility (1/GPa) = 0.01647016
#
# Stress axis : x y z
#
# Youngs Moduli (GPa) = 108.59464 100.51902 67.99000
#
# Poissons Ratio (x) = 0.38757 0.53595
# Poissons Ratio (y) = 0.41870 -0.20676
# Poissons Ratio (z) = 0.85603 -0.30569
#
# Static dielectric constant tensor:
#      x y z
#    x 2.098870 0.000000 0.000000 
#    y 0.000000 2.014940 0.000000 
#    z 0.000000 0.000000 2.062780 
# 
# From -- ./inp_files/41734.got.cif
#   From: 2010.05.17/outbox.cif.g08.bks.cpg/sg72_21_cif.got.tgz:41734.got - 2010.06.03 17:03:01.
