data_PCOD9529970
_publ_section_title
;
Structure prediction by ZEFSAII (Michael W. Deem and Ramdas Pophale) SiO2 
 PCOD9529970
Probable space group: I B C A 
;
_chemical_formula_sum "Si O2"
_cell_formula_units_Z 80
_cell_length_a 14.049465
_cell_length_b 8.101843
_cell_length_c 29.431308
_cell_angle_alpha 90.000000
_cell_angle_beta 90.000000
_cell_angle_gamma 90.000000
_cell_volume 3350.064536
_symmetry_space_group_name_H-M "I B C A "
_symmetry_group_IT_number 73
_symmetry_cell_setting 'orthorhombic'
loop_
_space_group_symop_operation_xyz
x,y,z
-x,1/2-y,z
x,-y,1/2-z
1/2-x,y,-z
-x,-y,-z
x,1/2+y,-z
-x,y,1/2+z
1/2+x,-y,z
1/2+x,1/2+y,1/2+z
1/2-x,-y,1/2+z
1/2+x,1/2-y,-z
-x,1/2+y,1/2-z
1/2-x,1/2-y,1/2-z
1/2+x,y,1/2-z
1/2-x,1/2+y,z
x,1/2-y,1/2+z
loop_
_atom_site_type_symbol
_atom_site_label
_atom_site_fract_x
_atom_site_fract_y
_atom_site_fract_z
Si Si1 0.666495 0.346233 0.965143
Si Si2 0.465789 0.578265 0.552054
Si Si3 0.211129 0.284524 0.636864
Si Si4 0.054777 0.424828 0.701184
Si Si5 0.101769 0.565834 0.137362
O O1 0.565880 0.439475 0.974029
O O2 0.629384 0.157604 0.968149
O O3 0.700207 0.364673 0.913427
O O4 0.750000 0.373218 0.000000
O O5 0.500000 0.750000 0.580399
O O6 0.443190 0.434179 0.586784
O O7 0.149262 0.387399 0.672523
O O8 0.323408 0.290567 0.646893
O O9 0.165967 0.102021 0.637341
O O10 0.075964 0.500000 0.750000
O O11 0.000000 0.250000 0.706600
O O12 0.982362 0.540674 0.672927
#
# Coordination Sequence:
#
# PCOD9529970 Si02
#       5
#    16  16  16  16  16
#     4   8  14  30  57  82 109 156 202 231 286 356
#     4   7  14  30  57  75 110 158 194 229 291 345
#     4  10  20  35  60  82 118 154 197 239 302 354
#     4  10  21  39  61  83 113 156 197 245 306 359
#     4  10  18  37  58  83 113 160 189 246 301 353
#
# _framework density 23.880134999999999
#
# number of rings (size 3 to 8) (size 9 to 14) (size 15 to 20)
#    1.200    1.600    2.000    0.600    0.000    2.400 
#    0.000    9.000   17.600    0.000    0.000    0.000 
#    0.000    0.000    0.000    0.000    0.000    0.000 
#
# Total GULP energy -223245.106849 kJ/mol
# GULP energy per Si atom -5581.127671 kJ/mol
# Density = 2.382578 g / cm^3
# Si number density = 23.880135 Si / 1000 Ang^3
#
#
#
# Elastic Constant Matrix: (Units=GPa)
#
#
# Indices 1 2 3 4 5 6 
#
# 1 163.1493 30.1357 40.0124 0.0000 0.0000 0.0000
# 2 30.1357 48.3330 27.2700 0.0000 0.0000 0.0000
# 3 40.0124 27.2700 187.4247 0.0000 0.0000 0.0000
# 4 0.0000 0.0000 0.0000 -32.1392 0.0000 0.0000
# 5 0.0000 0.0000 0.0000 0.0000 37.8095 0.0000
# 6 0.0000 0.0000 0.0000 0.0000 0.0000 89.0147
#
#
#
# Elastic Compliance Matrix: (Units=1/GPa)
#
#
# Indices 1 2 3 4 5 6 
#
# 1 0.007078 -0.003879 -0.000947 0.000000 0.000000 0.000000
# 2 -0.003879 0.024666 -0.002761 0.000000 0.000000 0.000000
# 3 -0.000947 -0.002761 0.005939 0.000000 0.000000 0.000000
# 4 0.000000 0.000000 0.000000 -0.031115 0.000000 0.000000
# 5 0.000000 0.000000 0.000000 0.000000 0.026448 0.000000
# 6 0.000000 0.000000 0.000000 0.000000 0.000000 0.011234
#
#
# Mechanical properties :
#
#
# Convention : Reuss Voigt Hill
#
# Bulk Modulus (GPa) = 44.42389 65.97146 55.19768
# Shear Modulus (GPa) = 74.70770 39.03627 56.87198
#
# Velocity S-wave (km/s) = 5.59932 4.04750 4.88542
# Velocity P-wave (km/s) = 7.77473 7.03769 7.41537
#
# Compressibility (1/GPa) = 0.02251041
#
# Stress axis : x y z
#
# Youngs Moduli (GPa) = 141.28222 40.54157 168.37114
#
# Poissons Ratio (x) = 0.15726 0.15939
# Poissons Ratio (y) = 0.54804 0.46483
# Poissons Ratio (z) = 0.13375 0.11193
#
# Static dielectric constant tensor:
#      x y z
#    x 1.952170 0.000000 0.000000 
#    y 0.000000 1.972840 0.000000 
#    z 0.000000 0.000000 1.971150 
# 
# From -- ./inp_files/33827.got.cif
#   From: 2010.05.17/outbox.cif.g08.bks.cpg/sg73_17_cif.got.tgz:33827.got - 2010.06.03 17:35:07.
