data_PCOD9529784
_publ_section_title
;
Structure prediction by ZEFSAII (Michael W. Deem and Ramdas Pophale) SiO2 
 PCOD9529784
Probable space group: I B C A 
;
_chemical_formula_sum "Si O2"
_cell_formula_units_Z 120
_cell_length_a 18.969968
_cell_length_b 11.904411
_cell_length_c 30.692101
_cell_angle_alpha 90.000000
_cell_angle_beta 90.000000
_cell_angle_gamma 90.000000
_cell_volume 6931.083477
_symmetry_space_group_name_H-M "I B C A "
_symmetry_group_IT_number 73
_symmetry_cell_setting 'orthorhombic'
loop_
_space_group_symop_operation_xyz
x,y,z
-x,1/2-y,z
x,-y,1/2-z
1/2-x,y,-z
-x,-y,-z
x,1/2+y,-z
-x,y,1/2+z
1/2+x,-y,z
1/2+x,1/2+y,1/2+z
1/2-x,-y,1/2+z
1/2+x,1/2-y,-z
-x,1/2+y,1/2-z
1/2-x,1/2-y,1/2-z
1/2+x,y,1/2-z
1/2-x,1/2+y,z
x,1/2-y,1/2+z
loop_
_atom_site_type_symbol
_atom_site_label
_atom_site_fract_x
_atom_site_fract_y
_atom_site_fract_z
Si Si1 0.739154 0.528906 0.863195
Si Si2 0.996596 0.116016 0.028402
Si Si3 0.387172 0.892409 0.602489
Si Si4 0.492541 0.615919 0.669214
Si Si5 0.046197 0.500000 0.750000
Si Si6 0.832220 0.657594 0.214696
Si Si7 0.876301 0.370623 0.601048
Si Si8 0.703650 0.402174 0.220274
O O1 0.680204 0.469679 0.892362
O O2 0.702571 0.621228 0.831338
O O3 0.800793 0.573351 0.894215
O O4 0.772589 0.445205 0.827018
O O5 0.925850 0.111598 0.058660
O O6 0.000000 0.250000 0.011736
O O7 0.064580 0.103697 0.059711
O O8 0.000000 0.000000 0.000000
O O9 0.439859 0.923497 0.641664
O O10 0.366153 0.762472 0.607018
O O11 0.500000 0.750000 0.670997
O O12 0.498336 0.563890 0.715904
O O13 0.423228 0.588475 0.641928
O O14 0.098450 0.412820 0.774310
O O15 0.775002 0.628965 0.252596
O O16 0.842352 0.790765 0.216502
O O17 0.670867 0.500000 0.250000
#
# Coordination Sequence:
#
# PCOD9529784 Si02
#       8
#    16  16  16  16   8  16  16  16
#     4  11  17  31  53  80 108 143 183 236 280 329
#     4   9  19  40  67  90 114 150 185 223 275 349
#     4   9  17  35  60  82 107 148 188 221 280 342
#     4   9  19  35  52  71 102 149 192 236 274 332
#     4  12  18  34  52  72 100 144 200 234 280 316
#     4  10  18  30  48  72 101 142 192 236 279 328
#     4   9  20  35  57  83 110 142 191 227 277 345
#     4   9  18  29  42  71 105 144 183 234 278 324
#
# _framework density 17.313310000000001
#
# number of rings (size 3 to 8) (size 9 to 14) (size 15 to 20)
#    0.000    2.400    3.333    2.400    0.000    5.333 
#    6.000    3.333    0.000    3.200    0.000    0.000 
#    0.000    0.000    0.000    0.000    0.000    0.000 
#
# Total GULP energy -334166.709297 kJ/mol
# GULP energy per Si atom -5569.445155 kJ/mol
# Density = 1.727390 g / cm^3
# Si number density = 17.313310 Si / 1000 Ang^3
#
#
#
# Elastic Constant Matrix: (Units=GPa)
#
#
# Indices 1 2 3 4 5 6 
#
# 1 95.6153 46.0141 31.4123 0.0000 0.0000 0.0000
# 2 46.0141 97.4250 30.3840 0.0000 0.0000 0.0000
# 3 31.4123 30.3840 43.6457 0.0000 0.0000 0.0000
# 4 0.0000 0.0000 0.0000 28.3817 0.0000 0.0000
# 5 0.0000 0.0000 0.0000 0.0000 5.4750 0.0000
# 6 0.0000 0.0000 0.0000 0.0000 0.0000 23.7722
#
#
#
# Elastic Compliance Matrix: (Units=1/GPa)
#
#
# Indices 1 2 3 4 5 6 
#
# 1 0.015299 -0.004843 -0.007639 0.000000 0.000000 0.000000
# 2 -0.004843 0.014644 -0.006709 0.000000 0.000000 0.000000
# 3 -0.007639 -0.006709 0.033080 0.000000 0.000000 0.000000
# 4 0.000000 0.000000 0.000000 0.035234 0.000000 0.000000
# 5 0.000000 0.000000 0.000000 0.000000 0.182648 0.000000
# 6 0.000000 0.000000 0.000000 0.000000 0.000000 0.042066
#
#
# Mechanical properties :
#
#
# Convention : Reuss Voigt Hill
#
# Bulk Modulus (GPa) = 40.58326 50.25632 45.41979
# Shear Modulus (GPa) = 13.52935 20.11749 16.82342
#
# Velocity S-wave (km/s) = 2.79846 3.41246 3.12060
# Velocity P-wave (km/s) = 5.82522 6.67960 6.26699
#
# Compressibility (1/GPa) = 0.02464070
#
# Stress axis : x y z
#
# Youngs Moduli (GPa) = 65.36335 68.28698 30.22974
#
# Poissons Ratio (x) = 0.33074 0.23093
# Poissons Ratio (y) = 0.31658 0.20280
# Poissons Ratio (z) = 0.49932 0.45812
#
# Static dielectric constant tensor:
#      x y z
#    x 1.595270 0.000000 0.000000 
#    y 0.000000 1.625420 0.000000 
#    z 0.000000 0.000000 1.582320 
# 
# From -- ./inp_files/34582.got.cif
#   From: 2010.05.17/outbox.cif.g08.bks.cpg/sg73_18_cif.got.tgz:34582.got - 2010.06.03 17:35:07.
