data_PCOD9529453
_publ_section_title
;
Structure prediction by ZEFSAII (Michael W. Deem and Ramdas Pophale) SiO2 
 PCOD9529453
Probable space group: I B A M
;
_chemical_formula_sum "Si O2"
_cell_formula_units_Z 32
_cell_length_a 19.582077
_cell_length_b 11.563669
_cell_length_c 5.521401
_cell_angle_alpha 90.000000
_cell_angle_beta 90.000000
_cell_angle_gamma 90.000000
_cell_volume 1250.269669
_symmetry_space_group_name_H-M "I B A M"
_symmetry_group_IT_number 72
_symmetry_cell_setting 'orthorhombic'
loop_
_space_group_symop_operation_xyz
x,y,z
-x,-y,z
x,-y,1/2-z
-x,y,1/2-z
-x,-y,-z
x,y,-z
-x,y,1/2+z
x,-y,1/2+z
1/2+x,1/2+y,1/2+z
1/2-x,1/2-y,1/2+z
1/2+x,1/2-y,-z
1/2-x,1/2+y,-z
1/2-x,1/2-y,1/2-z
1/2+x,1/2+y,1/2-z
1/2-x,1/2+y,z
1/2+x,1/2-y,z
loop_
_atom_site_type_symbol
_atom_site_label
_atom_site_fract_x
_atom_site_fract_y
_atom_site_fract_z
Si Si1 0.853976 0.022788 0.500000
Si Si2 0.378916 0.067529 0.000000
Si Si3 0.957830 0.188230 0.000000
Si Si4 0.262395 0.685720 0.000000
O O1 0.915645 0.933833 0.500000
O O2 0.816704 0.000000 0.250000
O O3 0.845388 0.159912 0.500000
O O4 0.413178 0.195181 0.000000
O O5 0.297694 0.089835 0.000000
O O6 0.397517 0.000000 0.750000
O O7 0.000000 0.185780 0.250000
O O8 0.250000 0.750000 0.250000
#
# Coordination Sequence:
#
# PCOD9529453 Si02
#       4
#     8   8   8   8
#     4  12  25  46  74 106 144 189 239 301 368 434
#     4  12  26  46  73 106 143 196 254 308 374 440
#     4  12  28  48  73 107 149 197 250 307 367 443
#     4  12  25  46  74 106 148 191 241 304 375 450
#
# _framework density 25.594480999999998
#
# number of rings (size 3 to 8) (size 9 to 14) (size 15 to 20)
#    0.000    0.000    0.000   10.500    0.000    6.000 
#    0.000    0.000    0.000    0.000    0.000    0.000 
#    0.000    0.000    0.000    0.000    0.000    0.000 
#
# Total GULP energy -89219.609856 kJ/mol
# GULP energy per Si atom -5576.225616 kJ/mol
# Density = 2.553623 g / cm^3
# Si number density = 25.594481 Si / 1000 Ang^3
#
#
#
# Elastic Constant Matrix: (Units=GPa)
#
#
# Indices 1 2 3 4 5 6 
#
# 1 147.4333 91.6671 86.6865 0.0000 0.0000 0.0000
# 2 91.6671 126.5337 81.5270 0.0000 0.0000 0.0000
# 3 86.6865 81.5270 289.5012 0.0000 0.0000 0.0000
# 4 0.0000 0.0000 0.0000 58.8009 0.0000 0.0000
# 5 0.0000 0.0000 0.0000 0.0000 8.5522 0.0000
# 6 0.0000 0.0000 0.0000 0.0000 0.0000 69.3310
#
#
#
# Elastic Compliance Matrix: (Units=1/GPa)
#
#
# Indices 1 2 3 4 5 6 
#
# 1 0.012853 -0.008346 -0.001498 0.000000 0.000000 0.000000
# 2 -0.008346 0.015074 -0.001746 0.000000 0.000000 0.000000
# 3 -0.001498 -0.001746 0.004395 0.000000 0.000000 0.000000
# 4 0.000000 0.000000 0.000000 0.017007 0.000000 0.000000
# 5 0.000000 0.000000 0.000000 0.000000 0.116928 0.000000
# 6 0.000000 0.000000 0.000000 0.000000 0.000000 0.014424
#
#
# Mechanical properties :
#
#
# Convention : Reuss Voigt Hill
#
# Bulk Modulus (GPa) = 109.39478 120.35883 114.87680
# Shear Modulus (GPa) = 24.16544 47.57599 35.87072
#
# Velocity S-wave (km/s) = 3.07606 4.31610 3.74773
# Velocity P-wave (km/s) = 7.44651 8.48326 7.98174
#
# Compressibility (1/GPa) = 0.00914120
#
# Stress axis : x y z
#
# Youngs Moduli (GPa) = 77.80499 66.33900 227.55425
#
# Poissons Ratio (x) = 0.55365 0.34094
# Poissons Ratio (y) = 0.64934 0.39732
# Poissons Ratio (z) = 0.11657 0.11583
#
# Static dielectric constant tensor:
#      x y z
#    x 2.681910 0.000000 0.000000 
#    y 0.000000 2.452840 0.000000 
#    z 0.000000 0.000000 2.059120 
# 
# From -- ./inp_files/568.got.cif
#   From: 2010.05.17/outbox.cif.g08.bks.cpg/sg72_1_cif.got.tgz:568.got - 2010.06.03 17:03:01.
