data_PCOD9529722
_publ_section_title
;
Structure prediction by ZEFSAII (Michael W. Deem and Ramdas Pophale) SiO2 
 PCOD9529722
Probable space group: I B C A 
;
_chemical_formula_sum "Si O2"
_cell_formula_units_Z 96
_cell_length_a 5.392789
_cell_length_b 32.429599
_cell_length_c 33.484498
_cell_angle_alpha 90.000000
_cell_angle_beta 90.000000
_cell_angle_gamma 90.000000
_cell_volume 5855.969407
_symmetry_space_group_name_H-M "I B C A "
_symmetry_group_IT_number 73
_symmetry_cell_setting 'orthorhombic'
loop_
_space_group_symop_operation_xyz
x,y,z
-x,1/2-y,z
x,-y,1/2-z
1/2-x,y,-z
-x,-y,-z
x,1/2+y,-z
-x,y,1/2+z
1/2+x,-y,z
1/2+x,1/2+y,1/2+z
1/2-x,-y,1/2+z
1/2+x,1/2-y,-z
-x,1/2+y,1/2-z
1/2-x,1/2-y,1/2-z
1/2+x,y,1/2-z
1/2-x,1/2+y,z
x,1/2-y,1/2+z
loop_
_atom_site_type_symbol
_atom_site_label
_atom_site_fract_x
_atom_site_fract_y
_atom_site_fract_z
Si Si1 0.000000 0.250000 0.974224
Si Si2 0.634484 0.098122 0.040231
Si Si3 0.476420 0.700193 0.634355
Si Si4 0.750000 0.963259 0.000000
Si Si5 0.001956 0.800091 0.772071
Si Si6 0.527294 0.823659 0.911278
Si Si7 0.731029 0.016045 0.078265
O O1 0.031181 0.210479 0.945990
O O2 0.250000 0.254454 0.000000
O O3 0.515742 0.132280 0.068185
O O4 0.780442 0.064252 0.067689
O O5 0.750000 0.118407 0.000000
O O6 0.443746 0.067628 0.019116
O O7 0.500000 0.750000 0.630135
O O8 0.486424 0.689628 0.681212
O O9 0.713379 0.680388 0.612186
O O10 0.213448 0.686546 0.615850
O O11 0.670881 0.992157 0.036381
O O12 0.747966 0.814274 0.751202
O O13 0.000000 0.750000 0.769979
O O14 0.464262 0.006789 0.098537
#
# Coordination Sequence:
#
# PCOD9529722 Si02
#       7
#     8  16  16   8  16  16  16
#     4  12  24  40  50  60  84 128 194 232 246 272
#     4  11  21  32  48  70  91 121 176 227 244 292
#     4  11  21  40  53  69 102 132 159 199 260 318
#     4  10  18  32  50  68  90 118 162 220 272 302
#     4   9  17  30  55  82  95 113 152 197 235 296
#     4  12  25  35  52  68  94 136 171 213 273 278
#     4  10  17  31  49  67  90 114 149 209 264 314
#
# _framework density 16.393529000000001
#
# number of rings (size 3 to 8) (size 9 to 14) (size 15 to 20)
#    0.000    1.333    4.167    3.500    3.500    2.667 
#    0.000    0.000    0.000    0.000    0.000    0.000 
#    0.000    0.000    0.000    0.000    0.000  233.333 
#
# Total GULP energy -267420.089570 kJ/mol
# GULP energy per Si atom -5571.251866 kJ/mol
# Density = 1.635622 g / cm^3
# Si number density = 16.393529 Si / 1000 Ang^3
#
#
#
# Elastic Constant Matrix: (Units=GPa)
#
#
# Indices 1 2 3 4 5 6 
#
# 1 103.5259 -5.8557 36.0067 0.0000 0.0000 0.0000
# 2 -5.8557 29.4914 2.6840 0.0000 0.0000 0.0000
# 3 36.0067 2.6840 67.6882 0.0000 0.0000 0.0000
# 4 0.0000 0.0000 0.0000 21.0821 0.0000 0.0000
# 5 0.0000 0.0000 0.0000 0.0000 24.6193 0.0000
# 6 0.0000 0.0000 0.0000 0.0000 0.0000 17.4784
#
#
#
# Elastic Compliance Matrix: (Units=1/GPa)
#
#
# Indices 1 2 3 4 5 6 
#
# 1 0.012111 0.003002 -0.006562 0.000000 0.000000 0.000000
# 2 0.003002 0.034775 -0.002976 0.000000 0.000000 0.000000
# 3 -0.006562 -0.002976 0.018382 0.000000 0.000000 0.000000
# 4 0.000000 0.000000 0.000000 0.047434 0.000000 0.000000
# 5 0.000000 0.000000 0.000000 0.000000 0.040619 0.000000
# 6 0.000000 0.000000 0.000000 0.000000 0.000000 0.057213
#
#
# Mechanical properties :
#
#
# Convention : Reuss Voigt Hill
#
# Bulk Modulus (GPa) = 19.15801 29.59730 24.37766
# Shear Modulus (GPa) = 20.74651 23.82733 22.28692
#
# Velocity S-wave (km/s) = 3.56129 3.81656 3.69113
# Velocity P-wave (km/s) = 5.34996 6.12495 5.75052
#
# Compressibility (1/GPa) = 0.05219748
#
# Stress axis : x y z
#
# Youngs Moduli (GPa) = 82.56691 28.75622 54.40073
#
# Poissons Ratio (x) = -0.08633 0.35696
# Poissons Ratio (y) = -0.24786 0.16189
# Poissons Ratio (z) = 0.54178 0.08557
#
# Static dielectric constant tensor:
#      x y z
#    x 1.952590 0.000000 0.000000 
#    y 0.000000 1.554870 0.000000 
#    z 0.000000 0.000000 1.533260 
# 
# From -- ./inp_files/33335.got.cif
#   From: 2010.05.17/outbox.cif.g08.bks.cpg/sg73_17_cif.got.tgz:33335.got - 2010.06.03 17:35:07.
