data_PCOD9529976
_publ_section_title
;
Structure prediction by ZEFSAII (Michael W. Deem and Ramdas Pophale) SiO2 
 PCOD9529976
Probable space group: I B C A 
;
_chemical_formula_sum "Si O2"
_cell_formula_units_Z 112
_cell_length_a 22.791912
_cell_length_b 15.984389
_cell_length_c 15.046614
_cell_angle_alpha 90.000000
_cell_angle_beta 90.000000
_cell_angle_gamma 90.000000
_cell_volume 5481.703981
_symmetry_space_group_name_H-M "I B C A "
_symmetry_group_IT_number 73
_symmetry_cell_setting 'orthorhombic'
loop_
_space_group_symop_operation_xyz
x,y,z
-x,1/2-y,z
x,-y,1/2-z
1/2-x,y,-z
-x,-y,-z
x,1/2+y,-z
-x,y,1/2+z
1/2+x,-y,z
1/2+x,1/2+y,1/2+z
1/2-x,-y,1/2+z
1/2+x,1/2-y,-z
-x,1/2+y,1/2-z
1/2-x,1/2-y,1/2-z
1/2+x,y,1/2-z
1/2-x,1/2+y,z
x,1/2-y,1/2+z
loop_
_atom_site_type_symbol
_atom_site_label
_atom_site_fract_x
_atom_site_fract_y
_atom_site_fract_z
Si Si1 0.160849 0.681451 0.919945
Si Si2 0.555451 0.882413 0.685574
Si Si3 0.812269 0.865903 0.383496
Si Si4 0.183091 0.947717 0.572805
Si Si5 0.048707 0.930580 0.627846
Si Si6 0.275421 0.907240 0.728019
Si Si7 0.975933 0.828839 0.968948
O O1 0.184839 0.776105 0.932098
O O2 0.177840 0.652466 0.820152
O O3 0.091296 0.679162 0.938392
O O4 0.187380 0.611759 0.986976
O O5 0.625187 0.872302 0.668929
O O6 0.539465 0.870157 0.788096
O O7 0.519159 0.831855 0.614146
O O8 0.536355 0.976408 0.659763
O O9 0.758304 0.870688 0.313862
O O10 0.810059 0.951805 0.441393
O O11 0.117855 0.931484 0.607978
O O12 0.225819 0.923193 0.653051
O O13 0.018110 0.905227 0.536970
O O14 0.299768 0.000000 0.750000
O O15 0.000000 0.750000 0.023406
#
# Coordination Sequence:
#
# PCOD9529976 Si02
#       7
#    16  16  16  16  16  16  16
#     4  11  22  38  59  91 127 159 203 253 309 362
#     4  10  18  37  61  85 116 159 208 251 303 365
#     4  10  19  37  65  88 116 161 210 247 302 371
#     4   9  19  37  63  88 114 155 205 258 302 367
#     4   9  19  35  61  86 108 156 213 250 301 368
#     4  10  20  39  63  86 119 156 201 256 310 370
#     4  11  22  36  55  86 130 159 197 255 310 361
#
# _framework density 20.431604
#
# number of rings (size 3 to 8) (size 9 to 14) (size 15 to 20)
#    0.000    2.000    2.857    1.286    0.000    0.571 
#    2.571    7.143    0.000    0.000    0.000    0.000 
#    0.000    0.000    0.000    0.000    0.000    0.000 
#
# Total GULP energy -312120.009933 kJ/mol
# GULP energy per Si atom -5573.571606 kJ/mol
# Density = 2.038510 g / cm^3
# Si number density = 20.431604 Si / 1000 Ang^3
#
#
#
# Elastic Constant Matrix: (Units=GPa)
#
#
# Indices 1 2 3 4 5 6 
#
# 1 44.8642 12.7938 20.9956 0.0000 0.0000 0.0000
# 2 12.7938 115.6293 53.9841 0.0000 0.0000 0.0000
# 3 20.9956 53.9841 88.1200 0.0000 0.0000 0.0000
# 4 0.0000 0.0000 0.0000 28.0588 0.0000 0.0000
# 5 0.0000 0.0000 0.0000 0.0000 20.5330 0.0000
# 6 0.0000 0.0000 0.0000 0.0000 0.0000 72.6104
#
#
#
# Elastic Compliance Matrix: (Units=1/GPa)
#
#
# Indices 1 2 3 4 5 6 
#
# 1 0.025087 0.000021 -0.005990 0.000000 0.000000 0.000000
# 2 0.000021 0.012113 -0.007426 0.000000 0.000000 0.000000
# 3 -0.005990 -0.007426 0.017324 0.000000 0.000000 0.000000
# 4 0.000000 0.000000 0.000000 0.035639 0.000000 0.000000
# 5 0.000000 0.000000 0.000000 0.000000 0.048702 0.000000
# 6 0.000000 0.000000 0.000000 0.000000 0.000000 0.013772
#
#
# Mechanical properties :
#
#
# Convention : Reuss Voigt Hill
#
# Bulk Modulus (GPa) = 36.05605 47.12896 41.59251
# Shear Modulus (GPa) = 26.50103 34.96309 30.73206
#
# Velocity S-wave (km/s) = 3.60538 4.14118 3.88254
# Velocity P-wave (km/s) = 5.91753 6.78105 6.36395
#
# Compressibility (1/GPa) = 0.02773460
#
# Stress axis : x y z
#
# Youngs Moduli (GPa) = 39.86166 82.55740 57.72214
#
# Poissons Ratio (x) = -0.00172 0.34575
# Poissons Ratio (y) = -0.00083 0.42862
# Poissons Ratio (z) = 0.23877 0.61303
#
# Static dielectric constant tensor:
#      x y z
#    x 1.709390 0.000000 0.000000 
#    y 0.000000 2.046220 0.000000 
#    z 0.000000 0.000000 1.742790 
# 
# From -- ./inp_files/19414.got.cif
#   From: 2010.05.17/outbox.cif.g08.bks.cpg/sg73_10_cif.got.tgz:19414.got - 2010.06.03 17:35:07.
