data_PCOD9529754
_publ_section_title
;
Structure prediction by ZEFSAII (Michael W. Deem and Ramdas Pophale) SiO2 
 PCOD9529754
Probable space group: I B C A 
;
_chemical_formula_sum "Si O2"
_cell_formula_units_Z 88
_cell_length_a 17.729415
_cell_length_b 14.723282
_cell_length_c 14.829761
_cell_angle_alpha 90.000000
_cell_angle_beta 90.000000
_cell_angle_gamma 90.000000
_cell_volume 3871.089284
_symmetry_space_group_name_H-M "I B C A "
_symmetry_group_IT_number 73
_symmetry_cell_setting 'orthorhombic'
loop_
_space_group_symop_operation_xyz
x,y,z
-x,1/2-y,z
x,-y,1/2-z
1/2-x,y,-z
-x,-y,-z
x,1/2+y,-z
-x,y,1/2+z
1/2+x,-y,z
1/2+x,1/2+y,1/2+z
1/2-x,-y,1/2+z
1/2+x,1/2-y,-z
-x,1/2+y,1/2-z
1/2-x,1/2-y,1/2-z
1/2+x,y,1/2-z
1/2-x,1/2+y,z
x,1/2-y,1/2+z
loop_
_atom_site_type_symbol
_atom_site_label
_atom_site_fract_x
_atom_site_fract_y
_atom_site_fract_z
Si Si1 0.781999 0.069830 0.333592
Si Si2 0.306840 0.586641 0.428904
Si Si3 0.000000 0.750000 0.722140
Si Si4 0.063564 0.457127 0.591588
Si Si5 0.354445 0.661624 0.235733
Si Si6 0.054686 0.902019 0.596283
O O1 0.727095 0.154749 0.312298
O O2 0.860950 0.102684 0.369130
O O3 0.791635 0.000000 0.250000
O O4 0.742208 0.001884 0.402613
O O5 0.250000 0.634806 0.500000
O O6 0.385963 0.538024 0.453578
O O7 0.330890 0.642225 0.339374
O O8 0.918942 0.761067 0.771673
O O9 0.994323 0.664621 0.656543
O O10 0.103002 0.420023 0.681233
O O11 0.055184 0.384882 0.511140
O O12 0.983211 0.500147 0.612652
#
# Coordination Sequence:
#
# PCOD9529754 Si02
#       6
#    16  16   8  16  16  16
#     4   9  20  35  64  92 117 164 229 275 320 389
#     4  10  17  36  66  96 116 157 218 279 320 372
#     4  12  26  38  60  94 142 172 210 280 352 408
#     4  10  21  40  67  92 127 174 234 272 327 403
#     4  10  23  41  64  95 133 173 214 282 338 412
#     4  11  23  38  64  96 127 172 225 281 332 410
#
# _framework density 22.732619
#
# number of rings (size 3 to 8) (size 9 to 14) (size 15 to 20)
#    0.000    1.818    3.636    1.636    2.545    1.455 
#    0.000    0.000   16.000    0.000    0.000    0.000 
#    0.000    0.000    0.000    0.000    0.000    0.000 
#
# Total GULP energy -245032.825423 kJ/mol
# GULP energy per Si atom -5568.927851 kJ/mol
# Density = 2.268088 g / cm^3
# Si number density = 22.732619 Si / 1000 Ang^3
#
#
#
# Elastic Constant Matrix: (Units=GPa)
#
#
# Indices 1 2 3 4 5 6 
#
# 1 139.7623 19.0192 36.9003 0.0000 0.0000 0.0000
# 2 19.0192 26.0915 16.9714 0.0000 0.0000 0.0000
# 3 36.9003 16.9714 90.4327 0.0000 0.0000 0.0000
# 4 0.0000 0.0000 0.0000 16.7513 0.0000 0.0000
# 5 0.0000 0.0000 0.0000 0.0000 39.0054 0.0000
# 6 0.0000 0.0000 0.0000 0.0000 0.0000 31.6787
#
#
#
# Elastic Compliance Matrix: (Units=1/GPa)
#
#
# Indices 1 2 3 4 5 6 
#
# 1 0.008452 -0.004462 -0.002611 0.000000 0.000000 0.000000
# 2 -0.004462 0.046012 -0.006814 0.000000 0.000000 0.000000
# 3 -0.002611 -0.006814 0.013402 0.000000 0.000000 0.000000
# 4 0.000000 0.000000 0.000000 0.059697 0.000000 0.000000
# 5 0.000000 0.000000 0.000000 0.000000 0.025637 0.000000
# 6 0.000000 0.000000 0.000000 0.000000 0.000000 0.031567
#
#
# Mechanical properties :
#
#
# Convention : Reuss Voigt Hill
#
# Bulk Modulus (GPa) = 24.94366 44.67426 34.80896
# Shear Modulus (GPa) = 22.13313 29.71346 25.92330
#
# Velocity S-wave (km/s) = 3.12369 3.61928 3.38058
# Velocity P-wave (km/s) = 4.89963 6.09593 5.53022
#
# Compressibility (1/GPa) = 0.04009035
#
# Stress axis : x y z
#
# Youngs Moduli (GPa) = 118.31993 21.73355 74.61448
#
# Poissons Ratio (x) = 0.09698 0.19483
# Poissons Ratio (y) = 0.52798 0.50844
# Poissons Ratio (z) = 0.30896 0.14810
#
# Static dielectric constant tensor:
#      x y z
#    x 1.910650 0.000000 0.000000 
#    y 0.000000 1.866410 0.000000 
#    z 0.000000 0.000000 1.934520 
# 
# From -- ./inp_files/17940.got.cif
#   From: 2010.05.17/outbox.cif.g08.bks.cpg/sg73_9_cif.got.tgz:17940.got - 2010.06.03 17:35:07.
