data_PCOD9529852
_publ_section_title
;
Structure prediction by ZEFSAII (Michael W. Deem and Ramdas Pophale) SiO2 
 PCOD9529852
Probable space group: I B C A 
;
_chemical_formula_sum "Si O2"
_cell_formula_units_Z 88
_cell_length_a 17.511518
_cell_length_b 8.276540
_cell_length_c 28.635997
_cell_angle_alpha 90.000000
_cell_angle_beta 90.000000
_cell_angle_gamma 90.000000
_cell_volume 4150.351902
_symmetry_space_group_name_H-M "I B C A "
_symmetry_group_IT_number 73
_symmetry_cell_setting 'orthorhombic'
loop_
_space_group_symop_operation_xyz
x,y,z
-x,1/2-y,z
x,-y,1/2-z
1/2-x,y,-z
-x,-y,-z
x,1/2+y,-z
-x,y,1/2+z
1/2+x,-y,z
1/2+x,1/2+y,1/2+z
1/2-x,-y,1/2+z
1/2+x,1/2-y,-z
-x,1/2+y,1/2-z
1/2-x,1/2-y,1/2-z
1/2+x,y,1/2-z
1/2-x,1/2+y,z
x,1/2-y,1/2+z
loop_
_atom_site_type_symbol
_atom_site_label
_atom_site_fract_x
_atom_site_fract_y
_atom_site_fract_z
Si Si1 0.711777 0.683442 0.438132
Si Si2 0.350259 0.644769 0.519226
Si Si3 0.619686 0.000000 0.750000
Si Si4 0.500000 0.750000 0.715455
Si Si5 0.961610 0.003353 0.858214
Si Si6 0.372294 0.163519 0.155765
Si Si7 0.500000 0.250000 0.435481
O O1 0.664150 0.824214 0.464594
O O2 0.681348 0.524901 0.463745
O O3 0.797787 0.728367 0.451621
O O4 0.691566 0.661599 0.384383
O O5 0.436841 0.666155 0.532958
O O6 0.562672 0.849440 0.742784
O O7 0.658136 0.933510 0.797921
O O8 0.544295 0.622160 0.683938
O O9 0.959454 0.888128 0.903683
O O10 0.904459 0.151023 0.846688
O O11 0.049554 0.068048 0.857686
#
# Coordination Sequence:
#
# PCOD9529852 Si02
#       7
#    16  16   8   8  16  16   8
#     4  11  24  44  64  93 128 178 216 269 338 404
#     4  11  25  42  65  92 128 173 224 269 331 398
#     4  10  18  32  56  92 126 172 214 268 322 400
#     4   9  16  30  51  84 132 168 209 258 321 382
#     4   9  19  33  56  93 128 170 211 268 322 384
#     4  10  20  36  60  89 131 167 216 267 330 388
#     4  11  22  38  63  98 128 168 227 282 315 388
#
# _framework density 21.203021
#
# number of rings (size 3 to 8) (size 9 to 14) (size 15 to 20)
#    0.000    1.818    1.818    4.364    5.091    2.182 
#    0.000    0.000    0.000    1.091    0.000    0.000 
#    0.000    0.000    0.000    0.000    0.000    0.000 
#
# Total GULP energy -245178.404055 kJ/mol
# GULP energy per Si atom -5572.236456 kJ/mol
# Density = 2.115476 g / cm^3
# Si number density = 21.203021 Si / 1000 Ang^3
#
#
#
# Elastic Constant Matrix: (Units=GPa)
#
#
# Indices 1 2 3 4 5 6 
#
# 1 20.3354 -1.5502 3.2283 0.0000 0.0000 0.0000
# 2 -1.5502 97.9909 4.4344 0.0000 0.0000 0.0000
# 3 3.2283 4.4344 105.8809 0.0000 0.0000 0.0000
# 4 0.0000 0.0000 0.0000 15.9339 0.0000 0.0000
# 5 0.0000 0.0000 0.0000 0.0000 -10.5689 0.0000
# 6 0.0000 0.0000 0.0000 0.0000 0.0000 5.2824
#
#
#
# Elastic Compliance Matrix: (Units=1/GPa)
#
#
# Indices 1 2 3 4 5 6 
#
# 1 0.049486 0.000853 -0.001545 0.000000 0.000000 0.000000
# 2 0.000853 0.010239 -0.000455 0.000000 0.000000 0.000000
# 3 -0.001545 -0.000455 0.009511 0.000000 0.000000 0.000000
# 4 0.000000 0.000000 0.000000 0.062759 0.000000 0.000000
# 5 0.000000 0.000000 0.000000 0.000000 -0.094618 0.000000
# 6 0.000000 0.000000 0.000000 0.000000 0.000000 0.189309
#
#
# Mechanical properties :
#
#
# Convention : Reuss Voigt Hill
#
# Bulk Modulus (GPa) = 14.93828 26.27026 20.60427
# Shear Modulus (GPa) = 19.89710 16.66913 18.28312
#
# Velocity S-wave (km/s) = 3.06667 2.80691 2.93966
# Velocity P-wave (km/s) = 4.42718 4.78767 4.61095
#
# Compressibility (1/GPa) = 0.06694211
#
# Stress axis : x y z
#
# Youngs Moduli (GPa) = 20.20793 97.66477 105.14459
#
# Poissons Ratio (x) = -0.08328 0.16240
# Poissons Ratio (y) = -0.01723 0.04782
# Poissons Ratio (z) = 0.03121 0.04442
#
# Static dielectric constant tensor:
#      x y z
#    x 1.723190 0.000000 0.000000 
#    y 0.000000 3.212710 0.000000 
#    z 0.000000 0.000000 1.839360 
# 
# From -- ./inp_files/34520.got.cif
#   From: 2010.05.17/outbox.cif.g08.bks.cpg/sg73_18_cif.got.tgz:34520.got - 2010.06.03 17:35:07.
