data_PCOD9529162
_publ_section_title
;
Structure prediction by ZEFSAII (Michael W. Deem and Ramdas Pophale) SiO2 
 PCOD9529162
Probable space group: I B A M
;
_chemical_formula_sum "Si O2"
_cell_formula_units_Z 52
_cell_length_a 18.025004
_cell_length_b 6.799427
_cell_length_c 15.493237
_cell_angle_alpha 90.000000
_cell_angle_beta 90.000000
_cell_angle_gamma 90.000000
_cell_volume 1898.846461
_symmetry_space_group_name_H-M "I B A M"
_symmetry_group_IT_number 72
_symmetry_cell_setting 'orthorhombic'
loop_
_space_group_symop_operation_xyz
x,y,z
-x,-y,z
x,-y,1/2-z
-x,y,1/2-z
-x,-y,-z
x,y,-z
-x,y,1/2+z
x,-y,1/2+z
1/2+x,1/2+y,1/2+z
1/2-x,1/2-y,1/2+z
1/2+x,1/2-y,-z
1/2-x,1/2+y,-z
1/2-x,1/2-y,1/2-z
1/2+x,1/2+y,1/2-z
1/2-x,1/2+y,z
1/2+x,1/2-y,z
loop_
_atom_site_type_symbol
_atom_site_label
_atom_site_fract_x
_atom_site_fract_y
_atom_site_fract_z
Si Si1 0.000000 0.500000 0.250000
Si Si2 0.944201 0.218095 0.404211
Si Si3 0.647622 0.399492 0.342145
Si Si4 0.188506 0.493409 0.403848
O O1 0.023364 0.665649 0.323080
O O2 0.975207 0.260954 0.500000
O O3 0.860916 0.313492 0.405250
O O4 0.922972 0.987878 0.392079
O O5 0.643465 0.500000 0.250000
O O6 0.727997 0.454352 0.380359
O O7 0.651391 0.163999 0.339837
O O8 0.185762 0.403667 0.500000
#
# Coordination Sequence:
#
# PCOD9529162 Si02
#       4
#     4  16  16  16
#     4  12  26  48  70  90 128 186 242 274 310 386
#     4  11  25  45  69  97 135 178 221 276 333 391
#     4  12  23  37  65 102 139 168 210 270 340 404
#     4  11  22  38  64  99 135 169 207 264 339 409
#
# _framework density 27.385045000000002
#
# number of rings (size 3 to 8) (size 9 to 14) (size 15 to 20)
#    0.000    0.615    3.077    6.000    2.154    0.000 
#    0.000    6.923    0.000   11.077    0.000    0.000 
#    0.000    0.000    0.000    0.000    0.000    0.000 
#
# Total GULP energy -145587.777298 kJ/mol
# GULP energy per Si atom -5599.529896 kJ/mol
# Density = 2.732272 g / cm^3
# Si number density = 27.385045 Si / 1000 Ang^3
#
#
#
# Elastic Constant Matrix: (Units=GPa)
#
#
# Indices 1 2 3 4 5 6 
#
# 1 67.1519 -8.3318 31.7216 0.0000 0.0000 0.0000
# 2 -8.3318 104.1385 1.6486 0.0000 0.0000 0.0000
# 3 31.7216 1.6486 190.7747 0.0000 0.0000 0.0000
# 4 0.0000 0.0000 0.0000 46.5495 0.0000 0.0000
# 5 0.0000 0.0000 0.0000 0.0000 11.4437 0.0000
# 6 0.0000 0.0000 0.0000 0.0000 0.0000 24.8341
#
#
#
# Elastic Compliance Matrix: (Units=1/GPa)
#
#
# Indices 1 2 3 4 5 6 
#
# 1 0.016349 0.001351 -0.002730 0.000000 0.000000 0.000000
# 2 0.001351 0.009716 -0.000309 0.000000 0.000000 0.000000
# 3 -0.002730 -0.000309 0.005698 0.000000 0.000000 0.000000
# 4 0.000000 0.000000 0.000000 0.021483 0.000000 0.000000
# 5 0.000000 0.000000 0.000000 0.000000 0.087384 0.000000
# 6 0.000000 0.000000 0.000000 0.000000 0.000000 0.040267
#
#
# Mechanical properties :
#
#
# Convention : Reuss Voigt Hill
#
# Bulk Modulus (GPa) = 35.22629 45.79354 40.50991
# Shear Modulus (GPa) = 25.80854 39.03392 32.42123
#
# Velocity S-wave (km/s) = 3.07324 3.77951 3.44452
# Velocity P-wave (km/s) = 5.04820 5.98370 5.53574
#
# Compressibility (1/GPa) = 0.02838789
#
# Stress axis : x y z
#
# Youngs Moduli (GPa) = 61.16600 102.92735 175.48734
#
# Poissons Ratio (x) = -0.13908 0.47911
# Poissons Ratio (y) = -0.08265 0.05416
# Poissons Ratio (z) = 0.16699 0.03177
#
# Static dielectric constant tensor:
#      x y z
#    x 2.185010 0.000000 0.000000 
#    y 0.000000 2.143060 0.000000 
#    z 0.000000 0.000000 2.078520 
# 
# From -- ./inp_files/18273.got.cif
#   From: 2010.05.17/outbox.cif.g08.bks.cpg/sg72_10_cif.got.tgz:18273.got - 2010.06.03 17:03:01.
