data_PCOD9529469
_publ_section_title
;
Structure prediction by ZEFSAII (Michael W. Deem and Ramdas Pophale) SiO2 
 PCOD9529469
Probable space group: I B A M
;
_chemical_formula_sum "Si O2"
_cell_formula_units_Z 128
_cell_length_a 6.895185
_cell_length_b 34.273494
_cell_length_c 21.870587
_cell_angle_alpha 90.000000
_cell_angle_beta 90.000000
_cell_angle_gamma 90.000000
_cell_volume 5168.502648
_symmetry_space_group_name_H-M "I B A M"
_symmetry_group_IT_number 72
_symmetry_cell_setting 'orthorhombic'
loop_
_space_group_symop_operation_xyz
x,y,z
-x,-y,z
x,-y,1/2-z
-x,y,1/2-z
-x,-y,-z
x,y,-z
-x,y,1/2+z
x,-y,1/2+z
1/2+x,1/2+y,1/2+z
1/2-x,1/2-y,1/2+z
1/2+x,1/2-y,-z
1/2-x,1/2+y,-z
1/2-x,1/2-y,1/2-z
1/2+x,1/2+y,1/2-z
1/2-x,1/2+y,z
1/2+x,1/2-y,z
loop_
_atom_site_type_symbol
_atom_site_label
_atom_site_fract_x
_atom_site_fract_y
_atom_site_fract_z
Si Si1 0.573828 0.194941 0.430292
Si Si2 0.162701 0.376922 0.360628
Si Si3 0.842170 0.069688 0.935856
Si Si4 0.227654 0.011920 0.330355
Si Si5 0.733898 0.584931 0.761225
Si Si6 0.523767 0.716496 0.069529
Si Si7 0.877275 0.142332 0.867533
Si Si8 0.798003 0.450716 0.931225
O O1 0.511308 0.185290 0.500000
O O2 0.544991 0.161350 0.380100
O O3 0.506273 0.238299 0.412436
O O4 0.807209 0.199777 0.433835
O O5 0.146765 0.399310 0.296608
O O6 0.391606 0.365386 0.357404
O O7 0.123165 0.408129 0.414168
O O8 0.755663 0.046905 0.879941
O O9 0.832822 0.115616 0.926218
O O10 0.065994 0.056361 0.934428
O O11 0.758144 0.057468 0.000000
O O12 0.287617 0.039046 0.272820
O O13 0.322450 0.977346 0.370615
O O14 0.000000 0.000000 0.323137
O O15 0.500000 0.581356 0.750000
O O16 0.731112 0.619748 0.812351
O O17 0.638665 0.687653 0.114696
O O18 0.603711 0.716491 0.000000
O O19 0.850104 0.464046 0.000000
#
# Coordination Sequence:
#
# PCOD9529469 Si02
#       8
#    16  16  16  16  16  16  16  16
#     4   9  17  29  45  64  84 107 138 176 215 254
#     4   9  16  25  36  50  72 104 140 174 205 247
#     4   8  12  18  28  43  65  93 125 163 202 239
#     4   9  15  20  28  44  67  97 134 171 202 235
#     4   9  16  24  33  47  70 102 138 171 204 243
#     4   9  16  27  44  64  84 106 135 173 215 256
#     4   8  14  23  35  51  71  98 133 168 204 246
#     4   9  15  21  30  45  67  98 137 175 208 245
#
# _framework density 24.765394000000001
#
# number of rings (size 3 to 8) (size 9 to 14) (size 15 to 20)
#    0.000    3.250    0.000    3.375    0.000    6.250 
#    0.000    0.625    0.000    0.000    0.000    0.000 
#    0.000    0.000    0.000    4.500    0.000  141.000 
#
# Total GULP energy -357200.423774 kJ/mol
# GULP energy per Si atom -5581.256621 kJ/mol
# Density = 2.470903 g / cm^3
# Si number density = 24.765394 Si / 1000 Ang^3
#
#
#
# Elastic Constant Matrix: (Units=GPa)
#
#
# Indices 1 2 3 4 5 6 
#
# 1 96.3049 18.5192 17.0501 0.0000 0.0000 0.0000
# 2 18.5192 194.4370 77.2868 0.0000 0.0000 0.0000
# 3 17.0501 77.2868 105.9731 0.0000 0.0000 0.0000
# 4 0.0000 0.0000 0.0000 38.7516 0.0000 0.0000
# 5 0.0000 0.0000 0.0000 0.0000 -10.6796 0.0000
# 6 0.0000 0.0000 0.0000 0.0000 0.0000 31.1615
#
#
#
# Elastic Compliance Matrix: (Units=1/GPa)
#
#
# Indices 1 2 3 4 5 6 
#
# 1 0.010719 -0.000472 -0.001380 0.000000 0.000000 0.000000
# 2 -0.000472 0.007263 -0.005221 0.000000 0.000000 0.000000
# 3 -0.001380 -0.005221 0.013466 0.000000 0.000000 0.000000
# 4 0.000000 0.000000 0.000000 0.025805 0.000000 0.000000
# 5 0.000000 0.000000 0.000000 0.000000 -0.093637 0.000000
# 6 0.000000 0.000000 0.000000 0.000000 0.000000 0.032091
#
#
# Mechanical properties :
#
#
# Convention : Reuss Voigt Hill
#
# Bulk Modulus (GPa) = 57.79947 69.15857 63.47902
# Shear Modulus (GPa) = 320.04780 30.77061 175.40921
#
# Velocity S-wave (km/s) = 11.38035 3.52871 8.42509
# Velocity P-wave (km/s) = 14.00260 6.67746 10.96953
#
# Compressibility (1/GPa) = 0.01730120
#
# Stress axis : x y z
#
# Youngs Moduli (GPa) = 93.29356 137.67563 74.25943
#
# Poissons Ratio (x) = 0.06503 0.10248
# Poissons Ratio (y) = 0.04407 0.38773
# Poissons Ratio (z) = 0.12875 0.71884
#
# Static dielectric constant tensor:
#      x y z
#    x 2.095990 0.000000 0.000000 
#    y 0.000000 1.939460 0.000000 
#    z 0.000000 0.000000 2.048080 
# 
# From -- ./inp_files/43769.got.cif
#   From: 2010.05.17/outbox.cif.g08.bks.cpg/sg72_22_cif.got.tgz:43769.got - 2010.06.03 17:03:01.
