data_PCOD9529325
_publ_section_title
;
Structure prediction by ZEFSAII (Michael W. Deem and Ramdas Pophale) SiO2 
 PCOD9529325
Probable space group: I B A M
;
_chemical_formula_sum "Si O2"
_cell_formula_units_Z 80
_cell_length_a 10.547020
_cell_length_b 12.142772
_cell_length_c 28.608746
_cell_angle_alpha 90.000000
_cell_angle_beta 90.000000
_cell_angle_gamma 90.000000
_cell_volume 3663.923792
_symmetry_space_group_name_H-M "I B A M"
_symmetry_group_IT_number 72
_symmetry_cell_setting 'orthorhombic'
loop_
_space_group_symop_operation_xyz
x,y,z
-x,-y,z
x,-y,1/2-z
-x,y,1/2-z
-x,-y,-z
x,y,-z
-x,y,1/2+z
x,-y,1/2+z
1/2+x,1/2+y,1/2+z
1/2-x,1/2-y,1/2+z
1/2+x,1/2-y,-z
1/2-x,1/2+y,-z
1/2-x,1/2-y,1/2-z
1/2+x,1/2+y,1/2-z
1/2-x,1/2+y,z
1/2+x,1/2-y,z
loop_
_atom_site_type_symbol
_atom_site_label
_atom_site_fract_x
_atom_site_fract_y
_atom_site_fract_z
Si Si1 0.500000 0.000000 0.349692
Si Si2 0.936291 0.343744 0.000000
Si Si3 0.384631 0.413732 0.341578
Si Si4 0.758693 0.355129 0.500000
Si Si5 0.701183 0.983024 0.920376
Si Si6 0.761872 0.500000 0.250000
Si Si7 0.941732 0.689844 0.204647
O O1 0.386972 0.040517 0.381897
O O2 0.460693 0.895998 0.319020
O O3 0.843982 0.239879 0.000000
O O4 0.890199 0.411549 0.954173
O O5 0.088809 0.325781 0.000000
O O6 0.500000 0.500000 0.348532
O O7 0.300428 0.418498 0.388565
O O8 0.317869 0.454128 0.293625
O O9 0.412570 0.285726 0.331311
O O10 0.736626 0.429336 0.454433
O O11 0.839147 0.602709 0.225767
O O12 0.000000 0.746853 0.250000
#
# Coordination Sequence:
#
# PCOD9529325 Si02
#       7
#     8   8  16   8  16   8  16
#     4  12  21  43  74  98 132 188 256 286 352 454
#     4  11  25  45  78 106 140 193 237 311 375 446
#     4  12  28  43  66 106 152 186 239 319 376 422
#     4  11  25  47  76 106 144 182 244 305 377 451
#     4  11  24  46  69 101 140 188 243 291 364 459
#     4  12  22  44  66 100 138 197 245 294 366 452
#     4  12  23  43  69 102 140 194 251 300 358 444
#
# _framework density 21.834515
#
# number of rings (size 3 to 8) (size 9 to 14) (size 15 to 20)
#    0.000    0.400    6.000    2.700    2.800    4.800 
#    0.000    2.000    0.000    0.000    0.000    0.000 
#    0.000    0.000    0.000    0.000    0.000    0.000 
#
# Total GULP energy -223208.864247 kJ/mol
# GULP energy per Si atom -5580.221606 kJ/mol
# Density = 2.178482 g / cm^3
# Si number density = 21.834515 Si / 1000 Ang^3
#
#
#
# Elastic Constant Matrix: (Units=GPa)
#
#
# Indices 1 2 3 4 5 6 
#
# 1 57.3553 45.0000 41.8077 0.0000 0.0000 0.0000
# 2 45.0000 133.4527 49.2453 0.0000 0.0000 0.0000
# 3 41.8077 49.2453 132.8654 0.0000 0.0000 0.0000
# 4 0.0000 0.0000 0.0000 20.2541 0.0000 0.0000
# 5 0.0000 0.0000 0.0000 0.0000 69.4048 0.0000
# 6 0.0000 0.0000 0.0000 0.0000 0.0000 31.7540
#
#
#
# Elastic Compliance Matrix: (Units=1/GPa)
#
#
# Indices 1 2 3 4 5 6 
#
# 1 0.027290 -0.006989 -0.005997 0.000000 0.000000 0.000000
# 2 -0.006989 0.010471 -0.001682 0.000000 0.000000 0.000000
# 3 -0.005997 -0.001682 0.010037 0.000000 0.000000 0.000000
# 4 0.000000 0.000000 0.000000 0.049373 0.000000 0.000000
# 5 0.000000 0.000000 0.000000 0.000000 0.014408 0.000000
# 6 0.000000 0.000000 0.000000 0.000000 0.000000 0.031492
#
#
# Mechanical properties :
#
#
# Convention : Reuss Voigt Hill
#
# Bulk Modulus (GPa) = 54.16476 66.19772 60.18124
# Shear Modulus (GPa) = 28.00191 36.79058 32.39625
#
# Velocity S-wave (km/s) = 3.58503 4.10930 3.85608
# Velocity P-wave (km/s) = 6.48054 7.27316 6.88826
#
# Compressibility (1/GPa) = 0.01846219
#
# Stress axis : x y z
#
# Youngs Moduli (GPa) = 36.64349 95.50555 99.63570
#
# Poissons Ratio (x) = 0.66752 0.59747
# Poissons Ratio (y) = 0.25611 0.16754
# Poissons Ratio (z) = 0.21974 0.16060
#
# Static dielectric constant tensor:
#      x y z
#    x 1.856640 0.000000 0.000000 
#    y 0.000000 1.767800 0.000000 
#    z 0.000000 0.000000 1.798730 
# 
# From -- ./inp_files/51280.got.cif
#   From: 2010.05.17/outbox.cif.g08.bks.cpg/sg72_26_cif.got.tgz:51280.got - 2010.06.03 17:03:01.
