data_PCOD9529272
_publ_section_title
;
Structure prediction by ZEFSAII (Michael W. Deem and Ramdas Pophale) SiO2 
 PCOD9529272
Probable space group: I B A M
;
_chemical_formula_sum "Si O2"
_cell_formula_units_Z 60
_cell_length_a 5.369392
_cell_length_b 21.795527
_cell_length_c 23.203797
_cell_angle_alpha 90.000000
_cell_angle_beta 90.000000
_cell_angle_gamma 90.000000
_cell_volume 2715.510855
_symmetry_space_group_name_H-M "I B A M"
_symmetry_group_IT_number 72
_symmetry_cell_setting 'orthorhombic'
loop_
_space_group_symop_operation_xyz
x,y,z
-x,-y,z
x,-y,1/2-z
-x,y,1/2-z
-x,-y,-z
x,y,-z
-x,y,1/2+z
x,-y,1/2+z
1/2+x,1/2+y,1/2+z
1/2-x,1/2-y,1/2+z
1/2+x,1/2-y,-z
1/2-x,1/2+y,-z
1/2-x,1/2-y,1/2-z
1/2+x,1/2+y,1/2-z
1/2-x,1/2+y,z
1/2+x,1/2-y,z
loop_
_atom_site_type_symbol
_atom_site_label
_atom_site_fract_x
_atom_site_fract_y
_atom_site_fract_z
Si Si1 0.000000 0.000000 0.898983
Si Si2 0.197853 0.289104 0.619369
Si Si3 0.758960 0.443619 0.500000
Si Si4 0.752133 0.861541 0.000000
Si Si5 0.849376 0.096430 0.308397
Si Si6 0.500000 0.000000 0.250000
O O1 0.993417 0.939595 0.859069
O O2 0.222848 0.985753 0.943491
O O3 0.428920 0.242285 0.625648
O O4 0.230187 0.319989 0.556808
O O5 0.229737 0.342924 0.665976
O O6 0.516420 0.397763 0.500000
O O7 0.010401 0.405308 0.500000
O O8 0.656978 0.044497 0.289703
O O9 0.000000 0.110014 0.250000
#
# Coordination Sequence:
#
# PCOD9529272 Si02
#       6
#     8  16   8   8  16   4
#     4  11  23  48  68 118 151 191 240 316 382 455
#     4  12  29  50  76 106 151 198 254 309 365 449
#     4  11  26  41  78 113 153 187 243 306 381 461
#     4  12  24  48  74 109 149 197 249 306 379 445
#     4  12  27  47  76 109 150 200 250 311 381 446
#     4  12  26  44  80 108 144 196 250 314 380 456
#
# _framework density 22.095289000000001
#
# number of rings (size 3 to 8) (size 9 to 14) (size 15 to 20)
#    0.000    0.267    5.333    2.400    7.467    3.200 
#    0.000    0.000    0.000    0.000    0.000    0.000 
#    0.000    0.000    0.000    0.000    0.000    0.000 
#
# Total GULP energy -167928.537504 kJ/mol
# GULP energy per Si atom -5597.617917 kJ/mol
# Density = 2.204500 g / cm^3
# Si number density = 22.095289 Si / 1000 Ang^3
#
#
#
# Elastic Constant Matrix: (Units=GPa)
#
#
# Indices 1 2 3 4 5 6 
#
# 1 96.9021 26.8703 23.7890 0.0000 0.0000 0.0000
# 2 26.8703 94.2422 48.3908 0.0000 0.0000 0.0000
# 3 23.7890 48.3908 152.1007 0.0000 0.0000 0.0000
# 4 0.0000 0.0000 0.0000 -515.1472 0.0000 0.0000
# 5 0.0000 0.0000 0.0000 0.0000 20.7581 0.0000
# 6 0.0000 0.0000 0.0000 0.0000 0.0000 77.6105
#
#
#
# Elastic Compliance Matrix: (Units=1/GPa)
#
#
# Indices 1 2 3 4 5 6 
#
# 1 0.011305 -0.002767 -0.000888 0.000000 0.000000 0.000000
# 2 -0.002767 0.013360 -0.003818 0.000000 0.000000 0.000000
# 3 -0.000888 -0.003818 0.007928 0.000000 0.000000 0.000000
# 4 0.000000 0.000000 0.000000 -0.001941 0.000000 0.000000
# 5 0.000000 0.000000 0.000000 0.000000 0.048174 0.000000
# 6 0.000000 0.000000 0.000000 0.000000 0.000000 0.012885
#
#
# Mechanical properties :
#
#
# Convention : Reuss Voigt Hill
#
# Bulk Modulus (GPa) = 56.66493 60.14946 58.40719
# Shear Modulus (GPa) = 44.42891 -67.07605 -11.32357
#
# Velocity S-wave (km/s) = 4.48904 -5.51575 -2.26628
# Velocity P-wave (km/s) = 7.25052 3.64457 4.43211
#
# Compressibility (1/GPa) = 0.01764760
#
# Stress axis : x y z
#
# Youngs Moduli (GPa) = 88.45633 74.84851 126.13465
#
# Poissons Ratio (x) = 0.20714 0.11196
# Poissons Ratio (y) = 0.24480 0.48155
# Poissons Ratio (z) = 0.07852 0.28575
#
# Static dielectric constant tensor:
#      x y z
#    x 1.756770 0.000000 0.000000 
#    y 0.000000 1.777020 0.000000 
#    z 0.000000 0.000000 1.792340 
# 
# From -- ./inp_files/34740.got.cif
#   From: 2010.05.17/outbox.cif.g08.bks.cpg/sg72_18_cif.got.tgz:34740.got - 2010.06.03 17:03:01.
