data_PCOD9529557
_publ_section_title
;
Structure prediction by ZEFSAII (Michael W. Deem and Ramdas Pophale) SiO2 
 PCOD9529557
Probable space group: I B A M
;
_chemical_formula_sum "Si O2"
_cell_formula_units_Z 32
_cell_length_a 15.000000
_cell_length_b 24.000000
_cell_length_c 9.000000
_cell_angle_alpha 90.000000
_cell_angle_beta 90.000000
_cell_angle_gamma 90.000000
_cell_volume 3240.000000
_symmetry_space_group_name_H-M "I B A M"
_symmetry_group_IT_number 72
_symmetry_cell_setting 'orthorhombic'
loop_
_space_group_symop_operation_xyz
x,y,z
-x,-y,z
x,-y,1/2-z
-x,y,1/2-z
-x,-y,-z
x,y,-z
-x,y,1/2+z
x,-y,1/2+z
1/2+x,1/2+y,1/2+z
1/2-x,1/2-y,1/2+z
1/2+x,1/2-y,-z
1/2-x,1/2+y,-z
1/2-x,1/2-y,1/2-z
1/2+x,1/2+y,1/2-z
1/2-x,1/2+y,z
1/2+x,1/2-y,z
loop_
_atom_site_type_symbol
_atom_site_label
_atom_site_fract_x
_atom_site_fract_y
_atom_site_fract_z
Si Si1 0.089308 0.349877 0.321260
Si Si2 0.909369 0.773513 0.179073
Si Si3 0.732638 0.349109 0.328159
Si Si4 0.091967 0.053196 0.331611
O O1 0.085823 0.349340 0.500000
O O2 0.093134 0.287306 0.253693
O O3 0.180800 0.372768 0.254627
O O4 0.000000 0.375557 0.250000
O O5 0.818492 0.802586 0.231789
O O6 0.000000 0.799677 0.250000
O O7 0.916790 0.771874 0.000000
O O8 0.752107 0.331371 0.500000
O O9 0.659639 0.396902 0.332320
O O10 0.072187 0.038816 0.500000
O O11 0.000000 0.066780 0.250000
O O12 0.131986 0.000000 0.250000
#
# Coordination Sequence:
#
# PCOD9529557 Si02
#       4
#    16  16  16  16
#     4  11  22  37  55  76 105 142 179 221 264 310
#     4  11  21  34  52  77 109 144 179 219 262 312
#     4  11  22  36  54  79 107 140 179 219 262 314
#     4  10  21  36  57  81 110 140 171 212 260 313
#
# _framework density 9.8765429999999999
#
# number of rings (size 3 to 8) (size 9 to 14) (size 15 to 20)
#    0.000    1.250    0.000    9.750    0.000    6.000 
#    0.000    0.000    0.000    0.750    0.000    5.250 
#    0.000    0.000    0.000    0.000    0.000    0.000 
#
# Total GULP energy -178513.892872 kJ/mol
# GULP energy per Si atom -5578.559152 kJ/mol
# Density = 0.985406 g / cm^3
# Si number density = 9.876543 Si / 1000 Ang^3
#
#
#
# Elastic Constant Matrix: (Units=GPa)
#
#
# Indices 1 2 3 4 5 6 
#
# 1 72.9081 -8.7618 37.7365 0.0002 0.0001 0.0000
# 2 -8.7618 26.1483 5.0824 -0.0001 -0.0001 -0.0001
# 3 37.7365 5.0824 208.0463 -0.0007 -0.0009 -0.0007
# 4 0.0002 -0.0001 -0.0007 9.7062 -0.0003 -0.0001
# 5 0.0001 -0.0001 -0.0009 -0.0003 33.0784 -0.0001
# 6 0.0000 -0.0001 -0.0007 -0.0001 -0.0001 10.9862
#
#
#
# Elastic Compliance Matrix: (Units=1/GPa)
#
#
# Indices 1 2 3 4 5 6 
#
# 1 0.016010 0.005957 -0.003050 0.000000 0.000000 0.000000
# 2 0.005957 0.040643 -0.002073 0.000000 0.000000 0.000000
# 3 -0.003050 -0.002073 0.005410 0.000000 0.000000 0.000000
# 4 0.000000 0.000000 0.000000 0.103027 0.000001 0.000001
# 5 0.000000 0.000000 0.000000 0.000001 0.030231 0.000000
# 6 0.000000 0.000000 0.000000 0.000001 0.000000 0.091023
#
#
# Mechanical properties :
#
#
# Convention : Reuss Voigt Hill
#
# Bulk Modulus (GPa) = 15.69065 41.69078 28.69072
# Shear Modulus (GPa) = 16.34413 28.95720 22.65066
#
# Velocity S-wave (km/s) = 2.87961 3.83294 3.38995
# Velocity P-wave (km/s) = 4.36083 6.38281 5.46613
#
# Compressibility (1/GPa) = 0.06373221
#
# Stress axis : x y z
#
# Youngs Moduli (GPa) = 62.45989 24.60471 184.82851
#
# Poissons Ratio (x) = -0.14658 0.56365
# Poissons Ratio (y) = -0.37210 0.38324
# Poissons Ratio (z) = 0.19048 0.05102
#
# Static dielectric constant tensor:
#      x y z
#    x 1.802570 0.000000 0.000000 
#    y 0.000000 1.729850 0.000000 
#    z 0.000000 0.000000 1.683840 
# 
# From -- ./inp_files/3440.got.cif
#   From: 2010.05.17/outbox.ucp.g08.bks.cvg/sg72_2_cif.got.tgz:3440.got - 2010.06.11 16:33:07.
