data_PCOD9529428
_publ_section_title
;
Structure prediction by ZEFSAII (Michael W. Deem and Ramdas Pophale) SiO2 
 PCOD9529428
Probable space group: I B A M
;
_chemical_formula_sum "Si O2"
_cell_formula_units_Z 56
_cell_length_a 13.755794
_cell_length_b 9.251894
_cell_length_c 19.586414
_cell_angle_alpha 90.000000
_cell_angle_beta 90.000000
_cell_angle_gamma 90.000000
_cell_volume 2492.707049
_symmetry_space_group_name_H-M "I B A M"
_symmetry_group_IT_number 72
_symmetry_cell_setting 'orthorhombic'
loop_
_space_group_symop_operation_xyz
x,y,z
-x,-y,z
x,-y,1/2-z
-x,y,1/2-z
-x,-y,-z
x,y,-z
-x,y,1/2+z
x,-y,1/2+z
1/2+x,1/2+y,1/2+z
1/2-x,1/2-y,1/2+z
1/2+x,1/2-y,-z
1/2-x,1/2+y,-z
1/2-x,1/2-y,1/2-z
1/2+x,1/2+y,1/2-z
1/2-x,1/2+y,z
1/2+x,1/2-y,z
loop_
_atom_site_type_symbol
_atom_site_label
_atom_site_fract_x
_atom_site_fract_y
_atom_site_fract_z
Si Si1 0.462279 0.258987 0.820754
Si Si2 0.367306 0.253111 0.423250
Si Si3 0.671029 0.500000 0.750000
Si Si4 0.700171 0.937943 0.875175
O O1 0.500000 0.188457 0.750000
O O2 0.551730 0.303659 0.868841
O O3 0.396200 0.389958 0.792512
O O4 0.397627 0.152083 0.865516
O O5 0.406955 0.236853 0.500000
O O6 0.277544 0.363514 0.424466
O O7 0.325797 0.100158 0.396230
O O8 0.743653 0.573742 0.696850
#
# Coordination Sequence:
#
# PCOD9529428 Si02
#       4
#    16  16   8  16
#     4  12  25  45  76 108 146 184 249 312 368 444
#     4  12  28  47  73 108 148 201 249 306 380 452
#     4  12  23  46  75 112 140 192 245 312 373 440
#     4  12  25  48  73 105 149 192 248 309 372 451
#
# _framework density 22.465534999999999
#
# number of rings (size 3 to 8) (size 9 to 14) (size 15 to 20)
#    0.000    0.000    5.714    4.714    0.000    4.571 
#    0.000    1.429    0.000    0.000    0.000    0.000 
#    0.000    0.000    0.000    0.000    0.000    0.000 
#
# Total GULP energy -156757.120562 kJ/mol
# GULP energy per Si atom -5598.468591 kJ/mol
# Density = 2.241440 g / cm^3
# Si number density = 22.465535 Si / 1000 Ang^3
#
#
#
# Elastic Constant Matrix: (Units=GPa)
#
#
# Indices 1 2 3 4 5 6 
#
# 1 68.4235 -6.7063 26.0359 0.0000 0.0000 0.0000
# 2 -6.7063 56.9885 -5.9699 0.0000 0.0000 0.0000
# 3 26.0359 -5.9699 126.3181 0.0000 0.0000 0.0000
# 4 0.0000 0.0000 0.0000 0.1809 0.0000 0.0000
# 5 0.0000 0.0000 0.0000 0.0000 23.7673 0.0000
# 6 0.0000 0.0000 0.0000 0.0000 0.0000 7.5781
#
#
#
# Elastic Compliance Matrix: (Units=1/GPa)
#
#
# Indices 1 2 3 4 5 6 
#
# 1 0.015993 0.001544 -0.003223 0.000000 0.000000 0.000000
# 2 0.001544 0.017784 0.000522 0.000000 0.000000 0.000000
# 3 -0.003223 0.000522 0.008606 0.000000 0.000000 0.000000
# 4 0.000000 0.000000 0.000000 5.526802 0.000000 0.000000
# 5 0.000000 0.000000 0.000000 0.000000 0.042075 0.000000
# 6 0.000000 0.000000 0.000000 0.000000 0.000000 0.131959
#
#
# Mechanical properties :
#
#
# Convention : Reuss Voigt Hill
#
# Bulk Modulus (GPa) = 24.95726 30.93881 27.94804
# Shear Modulus (GPa) = 0.86822 22.19662 11.53242
#
# Velocity S-wave (km/s) = 0.62234 3.14670 2.26816
# Velocity P-wave (km/s) = 3.41316 5.19653 4.39622
#
# Compressibility (1/GPa) = 0.04006851
#
# Stress axis : x y z
#
# Youngs Moduli (GPa) = 62.52837 56.23082 116.20377
#
# Poissons Ratio (x) = -0.08684 0.37456
# Poissons Ratio (y) = -0.09656 -0.06068
# Poissons Ratio (z) = 0.20155 -0.02936
#
# Static dielectric constant tensor:
#      x y z
#    x 1.819190 0.000000 0.000000 
#    y 0.000000 1.821360 0.000000 
#    z 0.000000 0.000000 1.831160 
# 
# From -- ./inp_files/35216.got.cif
#   From: 2010.05.17/outbox.cif.g08.bks.cpg/sg72_18_cif.got.tgz:35216.got - 2010.06.03 17:03:01.
