data_PCOD9529100
_publ_section_title
;
Structure prediction by ZEFSAII (Michael W. Deem and Ramdas Pophale) SiO2 
 PCOD9529100
Probable space group: I B A M
;
_chemical_formula_sum "Si O2"
_cell_formula_units_Z 64
_cell_length_a 18.067280
_cell_length_b 13.275111
_cell_length_c 14.124243
_cell_angle_alpha 90.000000
_cell_angle_beta 90.000000
_cell_angle_gamma 90.000000
_cell_volume 3387.631145
_symmetry_space_group_name_H-M "I B A M"
_symmetry_group_IT_number 72
_symmetry_cell_setting 'orthorhombic'
loop_
_space_group_symop_operation_xyz
x,y,z
-x,-y,z
x,-y,1/2-z
-x,y,1/2-z
-x,-y,-z
x,y,-z
-x,y,1/2+z
x,-y,1/2+z
1/2+x,1/2+y,1/2+z
1/2-x,1/2-y,1/2+z
1/2+x,1/2-y,-z
1/2-x,1/2+y,-z
1/2-x,1/2-y,1/2-z
1/2+x,1/2+y,1/2-z
1/2-x,1/2+y,z
1/2+x,1/2-y,z
loop_
_atom_site_type_symbol
_atom_site_label
_atom_site_fract_x
_atom_site_fract_y
_atom_site_fract_z
Si Si1 0.048554 0.657826 0.842721
Si Si2 0.273774 0.421600 0.000000
Si Si3 0.208818 0.746516 0.847926
Si Si4 0.894205 0.501846 0.500000
Si Si5 0.804064 0.134999 0.500000
Si Si6 0.051218 0.726526 0.500000
O O1 0.125233 0.715156 0.824956
O O2 0.076309 0.564275 0.908859
O O3 0.000000 0.630951 0.750000
O O4 0.999028 0.732682 0.906924
O O5 0.284825 0.348783 0.909752
O O6 0.193031 0.475421 0.000000
O O7 0.326218 0.518529 0.000000
O O8 0.250000 0.750000 0.750000
O O9 0.252284 0.664627 0.911418
O O10 0.926596 0.390705 0.500000
O O11 0.876399 0.205422 0.500000
#
# Coordination Sequence:
#
# PCOD9529100 Si02
#       6
#    16   8  16   8   8   8
#     4  11  23  40  61  95 135 166 214 269 331 392
#     4  11  22  43  69  93 125 165 233 265 319 393
#     4  11  23  42  64  91 129 173 215 268 320 394
#     4  11  21  40  62  99 128 167 210 269 331 387
#     4  11  21  42  64  92 127 169 220 273 320 395
#     4  11  22  39  60  93 132 163 211 264 337 382
#
# _framework density 18.892258000000002
#
# number of rings (size 3 to 8) (size 9 to 14) (size 15 to 20)
#    0.000    1.000    5.000    5.250    0.000    3.000 
#    0.000    2.500    0.000    1.500    0.000    0.000 
#    0.000    0.000    0.000    0.000    0.000    0.000 
#
# Total GULP energy -178540.437119 kJ/mol
# GULP energy per Si atom -5579.388660 kJ/mol
# Density = 1.884926 g / cm^3
# Si number density = 18.892258 Si / 1000 Ang^3
#
#
#
# Elastic Constant Matrix: (Units=GPa)
#
#
# Indices 1 2 3 4 5 6 
#
# 1 167.5260 56.4190 67.3043 0.0000 0.0000 0.0000
# 2 56.4190 128.5786 58.4821 0.0000 0.0000 0.0000
# 3 67.3043 58.4821 163.4036 0.0000 0.0000 0.0000
# 4 0.0000 0.0000 0.0000 -5.8937 0.0000 0.0000
# 5 0.0000 0.0000 0.0000 0.0000 28.1803 0.0000
# 6 0.0000 0.0000 0.0000 0.0000 0.0000 27.4359
#
#
#
# Elastic Compliance Matrix: (Units=1/GPa)
#
#
# Indices 1 2 3 4 5 6 
#
# 1 0.007687 -0.002309 -0.002340 0.000000 0.000000 0.000000
# 2 -0.002309 0.009983 -0.002622 0.000000 0.000000 0.000000
# 3 -0.002340 -0.002622 0.008022 0.000000 0.000000 0.000000
# 4 0.000000 0.000000 0.000000 -0.169672 0.000000 0.000000
# 5 0.000000 0.000000 0.000000 0.000000 0.035486 0.000000
# 6 0.000000 0.000000 0.000000 0.000000 0.000000 0.036449
#
#
# Mechanical properties :
#
#
# Convention : Reuss Voigt Hill
#
# Bulk Modulus (GPa) = 89.68007 91.54656 90.61332
# Shear Modulus (GPa) = -92.95816 28.43134 -32.26341
#
# Velocity S-wave (km/s) = -7.02219 3.88354 -4.13699
# Velocity P-wave (km/s) = 4.26333 8.28683 5.02472
#
# Compressibility (1/GPa) = 0.01115075
#
# Stress axis : x y z
#
# Youngs Moduli (GPa) = 130.09381 100.17113 124.65748
#
# Poissons Ratio (x) = 0.23126 0.29168
# Poissons Ratio (y) = 0.30034 0.32685
# Poissons Ratio (z) = 0.30440 0.26265
#
# Static dielectric constant tensor:
#      x y z
#    x 1.711900 0.000000 0.000000 
#    y 0.000000 1.693860 0.000000 
#    z 0.000000 0.000000 1.679710 
# 
# From -- ./inp_files/22976.got.cif
#   From: 2010.05.17/outbox.cif.g08.bks.cpg/sg72_12_cif.got.tgz:22976.got - 2010.06.03 17:03:01.
