data_PCOD9529673
_publ_section_title
;
Structure prediction by ZEFSAII (Michael W. Deem and Ramdas Pophale) SiO2 
 PCOD9529673
Probable space group: I B C A 
;
_chemical_formula_sum "Si O2"
_cell_formula_units_Z 120
_cell_length_a 16.079155
_cell_length_b 19.003426
_cell_length_c 19.005902
_cell_angle_alpha 90.000000
_cell_angle_beta 90.000000
_cell_angle_gamma 90.000000
_cell_volume 5807.425021
_symmetry_space_group_name_H-M "I B C A "
_symmetry_group_IT_number 73
_symmetry_cell_setting 'orthorhombic'
loop_
_space_group_symop_operation_xyz
x,y,z
-x,1/2-y,z
x,-y,1/2-z
1/2-x,y,-z
-x,-y,-z
x,1/2+y,-z
-x,y,1/2+z
1/2+x,-y,z
1/2+x,1/2+y,1/2+z
1/2-x,-y,1/2+z
1/2+x,1/2-y,-z
-x,1/2+y,1/2-z
1/2-x,1/2-y,1/2-z
1/2+x,y,1/2-z
1/2-x,1/2+y,z
x,1/2-y,1/2+z
loop_
_atom_site_type_symbol
_atom_site_label
_atom_site_fract_x
_atom_site_fract_y
_atom_site_fract_z
Si Si1 0.376738 0.161608 0.016039
Si Si2 0.799900 0.074726 0.281344
Si Si3 0.662608 0.915468 0.527785
Si Si4 0.782382 0.326571 0.117733
Si Si5 0.437806 0.963806 0.396074
Si Si6 0.908813 0.884431 0.623225
Si Si7 0.229774 0.667185 0.343139
Si Si8 0.000000 0.250000 0.902577
O O1 0.293348 0.163331 0.062827
O O2 0.424968 0.091779 0.040031
O O3 0.426609 0.226555 0.046790
O O4 0.360865 0.168044 0.933561
O O5 0.728167 0.110761 0.327483
O O6 0.877773 0.059621 0.332312
O O7 0.820322 0.129937 0.219513
O O8 0.774463 0.000000 0.250000
O O9 0.750000 0.951339 0.500000
O O10 0.618103 0.886547 0.458769
O O11 0.693306 0.855813 0.581382
O O12 0.600793 0.965418 0.571615
O O13 0.771253 0.251567 0.156132
O O14 0.532771 0.953564 0.369871
O O15 0.821931 0.868067 0.661685
O O16 0.968604 0.817933 0.639164
#
# Coordination Sequence:
#
# PCOD9529673 Si02
#       8
#    16  16  16  16  16  16  16   8
#     4   9  19  31  61  88 120 147 196 247 311 354
#     4  11  23  40  59  82 118 171 204 243 293 365
#     4  10  21  34  62  93 121 149 203 252 303 358
#     4  10  20  35  59  88 117 154 202 253 297 354
#     4  10  21  38  59  86 122 163 196 247 311 362
#     4  10  21  35  60  90 115 158 194 254 308 362
#     4  11  21  38  62  90 120 154 211 248 296 365
#     4  10  16  34  54  88 124 146 182 244 324 352
#
# _framework density 20.663204
#
# number of rings (size 3 to 8) (size 9 to 14) (size 15 to 20)
#    0.000    1.867    2.667    1.600    7.467    0.000 
#    0.000    0.667    8.800    0.000    0.000    0.000 
#    0.000    0.000    0.000    0.000    0.000    0.000 
#
# Total GULP energy -334467.635263 kJ/mol
# GULP energy per Si atom -5574.460588 kJ/mol
# Density = 2.061617 g / cm^3
# Si number density = 20.663204 Si / 1000 Ang^3
#
#
#
# Elastic Constant Matrix: (Units=GPa)
#
#
# Indices 1 2 3 4 5 6 
#
# 1 41.1934 22.8006 -1.9136 0.0000 0.0000 0.0000
# 2 22.8006 86.1585 19.7402 0.0000 0.0000 0.0000
# 3 -1.9136 19.7402 72.6084 0.0000 0.0000 0.0000
# 4 0.0000 0.0000 0.0000 48.0546 0.0000 0.0000
# 5 0.0000 0.0000 0.0000 0.0000 11.3542 0.0000
# 6 0.0000 0.0000 0.0000 0.0000 0.0000 12.6353
#
#
#
# Elastic Compliance Matrix: (Units=1/GPa)
#
#
# Indices 1 2 3 4 5 6 
#
# 1 0.029060 -0.008388 0.003046 0.000000 0.000000 0.000000
# 2 -0.008388 0.014799 -0.004244 0.000000 0.000000 0.000000
# 3 0.003046 -0.004244 0.015007 0.000000 0.000000 0.000000
# 4 0.000000 0.000000 0.000000 0.020810 0.000000 0.000000
# 5 0.000000 0.000000 0.000000 0.000000 0.088073 0.000000
# 6 0.000000 0.000000 0.000000 0.000000 0.000000 0.079143
#
#
# Mechanical properties :
#
#
# Convention : Reuss Voigt Hill
#
# Bulk Modulus (GPa) = 25.19331 31.24607 28.21969
# Shear Modulus (GPa) = 17.90216 25.03102 21.46659
#
# Velocity S-wave (km/s) = 2.94662 3.48427 3.22666
# Velocity P-wave (km/s) = 4.87808 5.59833 5.25056
#
# Compressibility (1/GPa) = 0.03969308
#
# Stress axis : x y z
#
# Youngs Moduli (GPa) = 34.41128 67.57283 66.63665
#
# Poissons Ratio (x) = 0.56683 -0.20301
# Poissons Ratio (y) = 0.28865 0.28284
# Poissons Ratio (z) = -0.10483 0.28681
#
# Static dielectric constant tensor:
#      x y z
#    x 1.780990 0.000000 0.000000 
#    y 0.000000 1.754690 0.000000 
#    z 0.000000 0.000000 1.740750 
# 
# From -- ./inp_files/26674.got.cif
#   From: 2010.05.17/outbox.cif.g08.bks.cpg/sg73_14_cif.got.tgz:26674.got - 2010.06.03 17:35:07.
