data_PCOD9529360
_publ_section_title
;
Structure prediction by ZEFSAII (Michael W. Deem and Ramdas Pophale) SiO2 
 PCOD9529360
Probable space group: I B A M
;
_chemical_formula_sum "Si O2"
_cell_formula_units_Z 36
_cell_length_a 11.548016
_cell_length_b 9.698987
_cell_length_c 14.597480
_cell_angle_alpha 90.000000
_cell_angle_beta 90.000000
_cell_angle_gamma 90.000000
_cell_volume 1634.976983
_symmetry_space_group_name_H-M "I B A M"
_symmetry_group_IT_number 72
_symmetry_cell_setting 'orthorhombic'
loop_
_space_group_symop_operation_xyz
x,y,z
-x,-y,z
x,-y,1/2-z
-x,y,1/2-z
-x,-y,-z
x,y,-z
-x,y,1/2+z
x,-y,1/2+z
1/2+x,1/2+y,1/2+z
1/2-x,1/2-y,1/2+z
1/2+x,1/2-y,-z
1/2-x,1/2+y,-z
1/2-x,1/2-y,1/2-z
1/2+x,1/2+y,1/2-z
1/2-x,1/2+y,z
1/2+x,1/2-y,z
loop_
_atom_site_type_symbol
_atom_site_label
_atom_site_fract_x
_atom_site_fract_y
_atom_site_fract_z
Si Si1 0.500000 0.500000 0.250000
Si Si2 0.846990 0.839836 0.601292
Si Si3 0.131189 0.477828 0.359041
O O1 0.422601 0.405769 0.182835
O O2 0.900097 0.859676 0.500000
O O3 0.832619 0.677731 0.618571
O O4 0.723455 0.915036 0.602619
O O5 0.131602 0.500000 0.250000
O O6 0.000000 0.500000 0.391522
#
# Coordination Sequence:
#
# PCOD9529360 Si02
#       3
#     4  16  16
#     4  12  26  48  72 102 148 192 240 294 360 418
#     4  12  27  46  74 107 143 189 243 295 355 427
#     4  11  25  48  75 105 144 190 235 295 360 422
#
# _framework density 22.018657000000001
#
# number of rings (size 3 to 8) (size 9 to 14) (size 15 to 20)
#    0.000    0.444    2.222    6.000    6.222    3.556 
#    0.000    0.000    0.000    0.000    0.000    0.000 
#    0.000    0.000    0.000    0.000    0.000    0.000 
#
# Total GULP energy -100833.151990 kJ/mol
# GULP energy per Si atom -5601.841777 kJ/mol
# Density = 2.196854 g / cm^3
# Si number density = 22.018657 Si / 1000 Ang^3
#
#
#
# Elastic Constant Matrix: (Units=GPa)
#
#
# Indices 1 2 3 4 5 6 
#
# 1 144.4614 107.0855 46.9953 0.0000 0.0000 0.0000
# 2 107.0855 226.2590 51.2739 0.0000 0.0000 0.0000
# 3 46.9953 51.2739 184.2801 0.0000 0.0000 0.0000
# 4 0.0000 0.0000 0.0000 52.3734 0.0000 0.0000
# 5 0.0000 0.0000 0.0000 0.0000 -22.9988 0.0000
# 6 0.0000 0.0000 0.0000 0.0000 0.0000 23.9131
#
#
#
# Elastic Compliance Matrix: (Units=1/GPa)
#
#
# Indices 1 2 3 4 5 6 
#
# 1 0.011015 -0.004885 -0.001450 0.000000 0.000000 0.000000
# 2 -0.004885 0.006883 -0.000670 0.000000 0.000000 0.000000
# 3 -0.001450 -0.000670 0.005983 0.000000 0.000000 0.000000
# 4 0.000000 0.000000 0.000000 0.019094 0.000000 0.000000
# 5 0.000000 0.000000 0.000000 0.000000 -0.043480 0.000000
# 6 0.000000 0.000000 0.000000 0.000000 0.000000 0.041818
#
#
# Mechanical properties :
#
#
# Convention : Reuss Voigt Hill
#
# Bulk Modulus (GPa) = 101.29091 107.30109 104.29600
# Shear Modulus (GPa) = 85.30872 33.96725 59.63799
#
# Velocity S-wave (km/s) = 6.23121 3.93193 5.20999
# Velocity P-wave (km/s) = 9.89307 8.33373 9.14669
#
# Compressibility (1/GPa) = 0.00987255
#
# Stress axis : x y z
#
# Youngs Moduli (GPa) = 90.78743 145.28047 167.15228
#
# Poissons Ratio (x) = 0.70963 0.24236
# Poissons Ratio (y) = 0.44346 0.11191
# Poissons Ratio (z) = 0.13163 0.09727
#
# Static dielectric constant tensor:
#      x y z
#    x 1.792960 0.000000 0.000000 
#    y 0.000000 1.731930 0.000000 
#    z 0.000000 0.000000 1.819410 
# 
# From -- ./inp_files/17820.got.cif
#   From: 2010.05.17/outbox.cif.g08.bks.cpg/sg72_9_cif.got.tgz:17820.got - 2010.06.03 17:03:01.
