data_PCOD9529900
_publ_section_title
;
Structure prediction by ZEFSAII (Michael W. Deem and Ramdas Pophale) SiO2 
 PCOD9529900
Probable space group: I B C A 
;
_chemical_formula_sum "Si O2"
_cell_formula_units_Z 88
_cell_length_a 5.081282
_cell_length_b 31.590405
_cell_length_c 28.958512
_cell_angle_alpha 90.000000
_cell_angle_beta 90.000000
_cell_angle_gamma 90.000000
_cell_volume 4648.413289
_symmetry_space_group_name_H-M "I B C A "
_symmetry_group_IT_number 73
_symmetry_cell_setting 'orthorhombic'
loop_
_space_group_symop_operation_xyz
x,y,z
-x,1/2-y,z
x,-y,1/2-z
1/2-x,y,-z
-x,-y,-z
x,1/2+y,-z
-x,y,1/2+z
1/2+x,-y,z
1/2+x,1/2+y,1/2+z
1/2-x,-y,1/2+z
1/2+x,1/2-y,-z
-x,1/2+y,1/2-z
1/2-x,1/2-y,1/2-z
1/2+x,y,1/2-z
1/2-x,1/2+y,z
x,1/2-y,1/2+z
loop_
_atom_site_type_symbol
_atom_site_label
_atom_site_fract_x
_atom_site_fract_y
_atom_site_fract_z
Si Si1 0.297583 0.804707 0.098829
Si Si2 0.250000 0.030560 0.500000
Si Si3 0.632717 0.164388 0.719943
Si Si4 0.250000 0.679662 0.500000
Si Si5 0.500000 0.750000 0.327719
Si Si6 0.198905 0.857605 0.619360
Si Si7 0.549230 0.598787 0.538549
O O1 0.206411 0.772626 0.138142
O O2 0.595546 0.819360 0.107785
O O3 0.096008 0.844319 0.105258
O O4 0.234317 0.791934 0.046009
O O5 0.312175 0.065182 0.459620
O O6 0.500000 0.000000 0.500000
O O7 0.345522 0.156953 0.740610
O O8 0.630981 0.213337 0.702877
O O9 0.696734 0.137555 0.674238
O O10 0.463945 0.644839 0.517816
O O11 0.308449 0.894291 0.586972
O O12 0.750000 0.582472 0.500000
#
# Coordination Sequence:
#
# PCOD9529900 Si02
#       7
#    16   8  16   8   8  16  16
#     4  10  20  33  50  71 100 131 181 233 266 332
#     4  11  22  34  52  88 125 150 170 192 233 308
#     4  11  22  37  54  72  99 135 178 236 288 336
#     4   9  18  32  50  74  99 140 186 220 263 300
#     4  10  22  36  50  72  98 138 178 228 304 350
#     4  10  21  35  54  78  99 133 186 224 264 318
#     4  10  18  34  58  78 109 150 173 208 254 302
#
# _framework density 18.931190000000001
#
# number of rings (size 3 to 8) (size 9 to 14) (size 15 to 20)
#    0.000    1.818    2.727    2.727    0.000    5.818 
#    0.000    7.273    0.000    0.000    0.000    0.000 
#    0.000    4.364    0.000    0.000    0.000    0.000 
#
# Total GULP energy -245151.341420 kJ/mol
# GULP energy per Si atom -5571.621396 kJ/mol
# Density = 1.888810 g / cm^3
# Si number density = 18.931190 Si / 1000 Ang^3
#
#
#
# Elastic Constant Matrix: (Units=GPa)
#
#
# Indices 1 2 3 4 5 6 
#
# 1 71.7761 17.8049 7.8887 0.0000 0.0000 0.0000
# 2 17.8049 43.3357 8.7664 0.0000 0.0000 0.0000
# 3 7.8887 8.7664 95.8775 0.0000 0.0000 0.0000
# 4 0.0000 0.0000 0.0000 7.3213 0.0000 0.0000
# 5 0.0000 0.0000 0.0000 0.0000 31.2357 0.0000
# 6 0.0000 0.0000 0.0000 0.0000 0.0000 27.4023
#
#
#
# Elastic Compliance Matrix: (Units=1/GPa)
#
#
# Indices 1 2 3 4 5 6 
#
# 1 0.015560 -0.006250 -0.000709 0.000000 0.000000 0.000000
# 2 -0.006250 0.026021 -0.001865 0.000000 0.000000 0.000000
# 3 -0.000709 -0.001865 0.010659 0.000000 0.000000 0.000000
# 4 0.000000 0.000000 0.000000 0.136588 0.000000 0.000000
# 5 0.000000 0.000000 0.000000 0.000000 0.032015 0.000000
# 6 0.000000 0.000000 0.000000 0.000000 0.000000 0.036493
#
#
# Mechanical properties :
#
#
# Convention : Reuss Voigt Hill
#
# Bulk Modulus (GPa) = 28.90773 31.10103 30.00438
# Shear Modulus (GPa) = 17.45114 24.96047 21.20580
#
# Velocity S-wave (km/s) = 3.03944 3.63503 3.35050
# Velocity P-wave (km/s) = 5.25554 5.83799 5.55440
#
# Compressibility (1/GPa) = 0.03459283
#
# Stress axis : x y z
#
# Youngs Moduli (GPa) = 64.26546 38.43094 93.81901
#
# Poissons Ratio (x) = 0.24019 0.06650
# Poissons Ratio (y) = 0.40165 0.17497
# Poissons Ratio (z) = 0.04555 0.07167
#
# Static dielectric constant tensor:
#      x y z
#    x 1.740950 0.000000 0.000000 
#    y 0.000000 1.709230 0.000000 
#    z 0.000000 0.000000 1.704760 
# 
# From -- ./inp_files/33328.got.cif
#   From: 2010.05.17/outbox.cif.g08.bks.cpg/sg73_17_cif.got.tgz:33328.got - 2010.06.03 17:35:07.
