data_PCOD9529749
_publ_section_title
;
Structure prediction by ZEFSAII (Michael W. Deem and Ramdas Pophale) SiO2 
 PCOD9529749
Probable space group: I B C A 
;
_chemical_formula_sum "Si O2"
_cell_formula_units_Z 112
_cell_length_a 24.928862
_cell_length_b 14.450034
_cell_length_c 11.528666
_cell_angle_alpha 90.000000
_cell_angle_beta 90.000000
_cell_angle_gamma 90.000000
_cell_volume 4152.889540
_symmetry_space_group_name_H-M "I B C A "
_symmetry_group_IT_number 73
_symmetry_cell_setting 'orthorhombic'
loop_
_space_group_symop_operation_xyz
x,y,z
-x,1/2-y,z
x,-y,1/2-z
1/2-x,y,-z
-x,-y,-z
x,1/2+y,-z
-x,y,1/2+z
1/2+x,-y,z
1/2+x,1/2+y,1/2+z
1/2-x,-y,1/2+z
1/2+x,1/2-y,-z
-x,1/2+y,1/2-z
1/2-x,1/2-y,1/2-z
1/2+x,y,1/2-z
1/2-x,1/2+y,z
x,1/2-y,1/2+z
loop_
_atom_site_type_symbol
_atom_site_label
_atom_site_fract_x
_atom_site_fract_y
_atom_site_fract_z
Si Si1 0.804097 0.208740 0.620644
Si Si2 0.000000 0.250000 0.894890
Si Si3 0.430225 0.000000 0.750000
Si Si4 0.857009 0.915719 0.063070
Si Si5 0.974176 0.092246 0.548130
Si Si6 0.115524 0.242451 0.807227
Si Si7 0.735765 0.098474 0.805771
Si Si8 0.347092 0.589045 0.432973
O O1 0.814388 0.140878 0.513618
O O2 0.858911 0.209558 0.696263
O O3 0.759132 0.158976 0.698418
O O4 0.789873 0.318254 0.613786
O O5 0.947849 0.262313 0.816425
O O6 0.010260 0.331225 0.987630
O O7 0.466686 0.075918 0.815091
O O8 0.391865 0.043191 0.652760
O O9 0.915440 0.894060 0.007194
O O10 0.850278 0.025308 0.047592
O O11 0.860748 0.861231 0.183799
O O12 0.000000 0.000000 0.500000
O O13 0.137692 0.303222 0.916649
O O14 0.789113 0.070779 0.878309
O O15 0.716431 0.000000 0.750000
#
# Coordination Sequence:
#
# PCOD9529749 Si02
#       8
#    16   8   8  16  16  16  16  16
#     4  10  21  37  63  91 123 162 204 256 310 367
#     4  10  20  36  58  88 124 160 202 252 310 356
#     4  10  18  34  62  86 118 162 208 244 314 364
#     4  10  20  38  60  84 124 161 202 253 311 367
#     4  10  20  35  59  92 118 155 207 260 295 367
#     4  10  21  37  59  89 120 159 205 256 301 369
#     4  10  17  35  64  92 118 155 208 254 297 367
#     4  10  17  36  64  86 117 168 206 243 312 375
#
# _framework density 26.969173999999999
#
# number of rings (size 3 to 8) (size 9 to 14) (size 15 to 20)
#    0.000    2.000    2.143    4.286    0.000    0.000 
#    2.571   22.143    0.000    0.000    5.571    0.000 
#    0.000    0.000    0.000    0.000    0.000    0.000 
#
# Total GULP energy -313214.078261 kJ/mol
# GULP energy per Si atom -5593.108540 kJ/mol
# Density = 2.690779 g / cm^3
# Si number density = 26.969174 Si / 1000 Ang^3
#
#
#
# Elastic Constant Matrix: (Units=GPa)
#
#
# Indices 1 2 3 4 5 6 
#
# 1 100.0995 20.1992 25.7925 0.0000 0.0000 0.0000
# 2 20.1992 190.9748 7.9933 0.0000 0.0000 0.0000
# 3 25.7925 7.9933 66.6221 0.0000 0.0000 0.0000
# 4 0.0000 0.0000 0.0000 44.2940 0.0000 0.0000
# 5 0.0000 0.0000 0.0000 0.0000 29.6368 0.0000
# 6 0.0000 0.0000 0.0000 0.0000 0.0000 41.1326
#
#
#
# Elastic Compliance Matrix: (Units=1/GPa)
#
#
# Indices 1 2 3 4 5 6 
#
# 1 0.011290 -0.001016 -0.004249 0.000000 0.000000 0.000000
# 2 -0.001016 0.005354 -0.000249 0.000000 0.000000 0.000000
# 3 -0.004249 -0.000249 0.016685 0.000000 0.000000 0.000000
# 4 0.000000 0.000000 0.000000 0.022576 0.000000 0.000000
# 5 0.000000 0.000000 0.000000 0.000000 0.033742 0.000000
# 6 0.000000 0.000000 0.000000 0.000000 0.000000 0.024312
#
#
# Mechanical properties :
#
#
# Convention : Reuss Voigt Hill
#
# Bulk Modulus (GPa) = 44.84167 51.74074 48.29120
# Shear Modulus (GPa) = 37.75843 43.26012 40.50927
#
# Velocity S-wave (km/s) = 3.74580 4.00941 3.87984
# Velocity P-wave (km/s) = 5.94736 6.37657 6.16570
#
# Compressibility (1/GPa) = 0.02230069
#
# Stress axis : x y z
#
# Youngs Moduli (GPa) = 88.57431 186.76916 59.93455
#
# Poissons Ratio (x) = 0.18981 0.25466
# Poissons Ratio (y) = 0.09002 0.01492
# Poissons Ratio (z) = 0.37635 0.04649
#
# Static dielectric constant tensor:
#      x y z
#    x 2.074220 0.000000 0.000000 
#    y 0.000000 2.171130 0.000000 
#    z 0.000000 0.000000 2.176330 
# 
# From -- ./inp_files/19847.got.cif
#   From: 2010.05.17/outbox.cif.g08.bks.cpg/sg73_10_cif.got.tgz:19847.got - 2010.06.03 17:35:07.
