data_PCOD9529683
_publ_section_title
;
Structure prediction by ZEFSAII (Michael W. Deem and Ramdas Pophale) SiO2 
 PCOD9529683
Probable space group: I B C A 
;
_chemical_formula_sum "Si O2"
_cell_formula_units_Z 88
_cell_length_a 23.425565
_cell_length_b 26.074961
_cell_length_c 5.573893
_cell_angle_alpha 90.000000
_cell_angle_beta 90.000000
_cell_angle_gamma 90.000000
_cell_volume 3404.649189
_symmetry_space_group_name_H-M "I B C A "
_symmetry_group_IT_number 73
_symmetry_cell_setting 'orthorhombic'
loop_
_space_group_symop_operation_xyz
x,y,z
-x,1/2-y,z
x,-y,1/2-z
1/2-x,y,-z
-x,-y,-z
x,1/2+y,-z
-x,y,1/2+z
1/2+x,-y,z
1/2+x,1/2+y,1/2+z
1/2-x,-y,1/2+z
1/2+x,1/2-y,-z
-x,1/2+y,1/2-z
1/2-x,1/2-y,1/2-z
1/2+x,y,1/2-z
1/2-x,1/2+y,z
x,1/2-y,1/2+z
loop_
_atom_site_type_symbol
_atom_site_label
_atom_site_fract_x
_atom_site_fract_y
_atom_site_fract_z
Si Si1 0.918552 0.567303 0.962524
Si Si2 0.148224 0.718695 0.097906
Si Si3 0.411279 0.553000 0.045565
Si Si4 0.750000 0.642364 0.500000
Si Si5 0.199860 0.561323 0.652141
Si Si6 0.020610 0.309704 0.327486
O O1 0.935937 0.583728 0.228049
O O2 0.849728 0.574599 0.964982
O O3 0.929505 0.505843 0.000435
O O4 0.932035 0.580680 0.693117
O O5 0.152989 0.752828 0.855278
O O6 0.197368 0.677214 0.075581
O O7 0.086225 0.693302 0.096276
O O8 0.343656 0.545803 0.122218
O O9 0.767781 0.607858 0.274939
O O10 0.250000 0.532098 0.500000
O O11 0.000000 0.250000 0.299373
O O12 0.985841 0.330674 0.556686
#
# Coordination Sequence:
#
# PCOD9529683 Si02
#       6
#    16  16  16   8  16  16
#     4   8  15  29  45  61  81 112 169 224 253 274
#     4  12  24  42  60  78 105 136 180 223 259 322
#     4   8  15  30  44  62  79 115 168 226 250 278
#     4  12  28  36  50  74 110 158 178 202 262 320
#     4  10  20  34  43  59  95 132 179 211 239 299
#     4  10  16  34  64  90 100 114 156 230 281 302
#
# _framework density 25.847010000000001
#
# number of rings (size 3 to 8) (size 9 to 14) (size 15 to 20)
#    1.091    1.091    3.636    1.636    2.545    0.000 
#   13.091    0.000    0.000    0.000    0.000    0.000 
#    0.000    0.000    0.000    0.000    0.000   21.818 
#
# Total GULP energy -245172.999663 kJ/mol
# GULP energy per Si atom -5572.113629 kJ/mol
# Density = 2.578818 g / cm^3
# Si number density = 25.847010 Si / 1000 Ang^3
#
#
#
# Elastic Constant Matrix: (Units=GPa)
#
#
# Indices 1 2 3 4 5 6 
#
# 1 139.2172 20.9238 30.0914 0.0000 0.0000 0.0000
# 2 20.9238 65.4161 39.8785 0.0000 0.0000 0.0000
# 3 30.0914 39.8785 285.3150 0.0000 0.0000 0.0000
# 4 0.0000 0.0000 0.0000 29.6387 0.0000 0.0000
# 5 0.0000 0.0000 0.0000 0.0000 17.4516 0.0000
# 6 0.0000 0.0000 0.0000 0.0000 0.0000 -9.3307
#
#
#
# Elastic Compliance Matrix: (Units=1/GPa)
#
#
# Indices 1 2 3 4 5 6 
#
# 1 0.007612 -0.002127 -0.000506 0.000000 0.000000 0.000000
# 2 -0.002127 0.017305 -0.002194 0.000000 0.000000 0.000000
# 3 -0.000506 -0.002194 0.003865 0.000000 0.000000 0.000000
# 4 0.000000 0.000000 0.000000 0.033740 0.000000 0.000000
# 5 0.000000 0.000000 0.000000 0.000000 0.057301 0.000000
# 6 0.000000 0.000000 0.000000 0.000000 0.000000 -0.107173
#
#
# Mechanical properties :
#
#
# Convention : Reuss Voigt Hill
#
# Bulk Modulus (GPa) = 52.27794 74.63728 63.45761
# Shear Modulus (GPa) = 174.34268 34.15555 104.24912
#
# Velocity S-wave (km/s) = 8.22181 3.63912 6.35773
# Velocity P-wave (km/s) = 10.50718 6.82619 8.85996
#
# Compressibility (1/GPa) = 0.01912853
#
# Stress axis : x y z
#
# Youngs Moduli (GPa) = 131.37316 57.78788 258.73676
#
# Poissons Ratio (x) = 0.12289 0.13081
# Poissons Ratio (y) = 0.27937 0.56777
# Poissons Ratio (z) = 0.06642 0.12681
#
# Static dielectric constant tensor:
#      x y z
#    x 2.008400 0.000000 0.000000 
#    y 0.000000 2.101990 0.000000 
#    z 0.000000 0.000000 2.131550 
# 
# From -- ./inp_files/2294.got.cif
#   From: 2010.05.17/outbox.cif.g08.bks.cpg/sg73_2_cif.got.tgz:2294.got - 2010.06.03 17:35:07.
