data_PCOD9529057
_publ_section_title
;
Structure prediction by ZEFSAII (Michael W. Deem and Ramdas Pophale) SiO2 
 PCOD9529057
Probable space group: I B A M
;
_chemical_formula_sum "Si O2"
_cell_formula_units_Z 96
_cell_length_a 19.692744
_cell_length_b 28.898222
_cell_length_c 8.022780
_cell_angle_alpha 90.000000
_cell_angle_beta 90.000000
_cell_angle_gamma 90.000000
_cell_volume 4565.646066
_symmetry_space_group_name_H-M "I B A M"
_symmetry_group_IT_number 72
_symmetry_cell_setting 'orthorhombic'
loop_
_space_group_symop_operation_xyz
x,y,z
-x,-y,z
x,-y,1/2-z
-x,y,1/2-z
-x,-y,-z
x,y,-z
-x,y,1/2+z
x,-y,1/2+z
1/2+x,1/2+y,1/2+z
1/2-x,1/2-y,1/2+z
1/2+x,1/2-y,-z
1/2-x,1/2+y,-z
1/2-x,1/2-y,1/2-z
1/2+x,1/2+y,1/2-z
1/2-x,1/2+y,z
1/2+x,1/2-y,z
loop_
_atom_site_type_symbol
_atom_site_label
_atom_site_fract_x
_atom_site_fract_y
_atom_site_fract_z
Si Si1 0.420098 0.301019 0.297694
Si Si2 0.078753 0.301233 0.799948
Si Si3 0.708444 0.949904 0.696052
Si Si4 0.578329 0.096947 0.201801
Si Si5 0.073267 0.946714 0.801714
Si Si6 0.317536 0.379027 0.311373
O O1 0.500000 0.308779 0.250000
O O2 0.419512 0.303248 0.500000
O O3 0.397644 0.249328 0.241629
O O4 0.363234 0.337405 0.235846
O O5 0.102681 0.351607 0.740536
O O6 0.000000 0.301408 0.750000
O O7 0.085668 0.300944 0.000000
O O8 0.703418 0.953745 0.500000
O O9 0.632925 0.940045 0.765789
O O10 0.752889 0.904062 0.731167
O O11 0.736553 0.000000 0.750000
O O12 0.500000 0.089458 0.250000
O O13 0.579781 0.097144 0.000000
O O14 0.128821 0.920621 0.696262
O O15 0.000000 0.927477 0.750000
O O16 0.073985 0.000000 0.750000
O O17 0.084328 0.941832 0.000000
O O18 0.299528 0.366122 0.500000
#
# Coordination Sequence:
#
# PCOD9529057 Si02
#       6
#    16  16  16  16  16  16
#     4   9  18  31  52  80 111 145 183 222 262 305
#     4   8  14  29  52  80 110 140 172 212 259 312
#     4  11  24  41  58  79 106 141 179 222 273 327
#     4   9  19  36  61  87 111 137 171 214 266 324
#     4  11  21  34  51  72  98 132 176 227 274 319
#     4  11  22  36  52  74 105 144 183 222 266 315
#
# _framework density 21.026596000000001
#
# number of rings (size 3 to 8) (size 9 to 14) (size 15 to 20)
#    0.000    2.167    0.000    4.000    0.000    4.333 
#    0.000    2.500    0.000    0.000    0.000    0.000 
#    0.000    0.000    0.000    0.000    0.000    0.000 
#
# Total GULP energy -267320.625159 kJ/mol
# GULP energy per Si atom -5569.179691 kJ/mol
# Density = 2.097874 g / cm^3
# Si number density = 21.026596 Si / 1000 Ang^3
#
#
#
# Elastic Constant Matrix: (Units=GPa)
#
#
# Indices 1 2 3 4 5 6 
#
# 1 72.7395 24.1661 -1.8722 0.0000 0.0000 0.0000
# 2 24.1661 71.1543 5.6297 0.0000 0.0000 0.0000
# 3 -1.8722 5.6297 40.3965 0.0000 0.0000 0.0000
# 4 0.0000 0.0000 0.0000 14.3096 0.0000 0.0000
# 5 0.0000 0.0000 0.0000 0.0000 18.7767 0.0000
# 6 0.0000 0.0000 0.0000 0.0000 0.0000 32.6605
#
#
#
# Elastic Compliance Matrix: (Units=1/GPa)
#
#
# Indices 1 2 3 4 5 6 
#
# 1 0.015583 -0.005409 0.001476 0.000000 0.000000 0.000000
# 2 -0.005409 0.016088 -0.002493 0.000000 0.000000 0.000000
# 3 0.001476 -0.002493 0.025170 0.000000 0.000000 0.000000
# 4 0.000000 0.000000 0.000000 0.069883 0.000000 0.000000
# 5 0.000000 0.000000 0.000000 0.000000 0.053258 0.000000
# 6 0.000000 0.000000 0.000000 0.000000 0.000000 0.030618
#
#
# Mechanical properties :
#
#
# Convention : Reuss Voigt Hill
#
# Bulk Modulus (GPa) = 22.73260 26.68193 24.70726
# Shear Modulus (GPa) = 20.99825 23.57380 22.28602
#
# Velocity S-wave (km/s) = 3.16357 3.35198 3.25914
# Velocity P-wave (km/s) = 4.91722 5.26291 5.09300
#
# Compressibility (1/GPa) = 0.04398970
#
# Stress axis : x y z
#
# Youngs Moduli (GPa) = 64.17347 62.15694 39.72916
#
# Poissons Ratio (x) = 0.33622 -0.05864
# Poissons Ratio (y) = 0.34712 0.09904
# Poissons Ratio (z) = -0.09472 0.15494
#
# Static dielectric constant tensor:
#      x y z
#    x 1.763670 0.000000 0.000000 
#    y 0.000000 1.844350 0.000000 
#    z 0.000000 0.000000 1.776610 
# 
# From -- ./inp_files/6030.got.cif
#   From: 2010.05.17/outbox.cif.g08.bks.cpg/sg72_4_cif.got.tgz:6030.got - 2010.06.03 17:03:01.
