data_PCOD9529854
_publ_section_title
;
Structure prediction by ZEFSAII (Michael W. Deem and Ramdas Pophale) SiO2 
 PCOD9529854
Probable space group: I B C A 
;
_chemical_formula_sum "Si O2"
_cell_formula_units_Z 120
_cell_length_a 19.935325
_cell_length_b 20.948589
_cell_length_c 14.981133
_cell_angle_alpha 90.000000
_cell_angle_beta 90.000000
_cell_angle_gamma 90.000000
_cell_volume 6256.374771
_symmetry_space_group_name_H-M "I B C A "
_symmetry_group_IT_number 73
_symmetry_cell_setting 'orthorhombic'
loop_
_space_group_symop_operation_xyz
x,y,z
-x,1/2-y,z
x,-y,1/2-z
1/2-x,y,-z
-x,-y,-z
x,1/2+y,-z
-x,y,1/2+z
1/2+x,-y,z
1/2+x,1/2+y,1/2+z
1/2-x,-y,1/2+z
1/2+x,1/2-y,-z
-x,1/2+y,1/2-z
1/2-x,1/2-y,1/2-z
1/2+x,y,1/2-z
1/2-x,1/2+y,z
x,1/2-y,1/2+z
loop_
_atom_site_type_symbol
_atom_site_label
_atom_site_fract_x
_atom_site_fract_y
_atom_site_fract_z
Si Si1 0.427123 0.388854 0.090119
Si Si2 0.582451 0.130955 0.574595
Si Si3 0.250000 0.066375 0.500000
Si Si4 0.374829 0.480234 0.439102
Si Si5 0.575769 0.425969 0.262217
Si Si6 0.920083 0.393451 0.211284
Si Si7 0.077178 0.275092 0.576592
Si Si8 0.148139 0.148420 0.583749
O O1 0.501993 0.363933 0.080139
O O2 0.430053 0.464397 0.069895
O O3 0.397225 0.379762 0.188387
O O4 0.382067 0.357095 0.015459
O O5 0.605867 0.070601 0.515022
O O6 0.600936 0.115192 0.676795
O O7 0.601825 0.193114 0.516792
O O8 0.220050 0.114662 0.574361
O O9 0.307888 0.019478 0.536942
O O10 0.375725 0.443017 0.345159
O O11 0.593221 0.500000 0.250000
O O12 0.495357 0.420368 0.273423
O O13 0.606807 0.396939 0.350818
O O14 0.925210 0.330910 0.150202
O O15 0.129276 0.220700 0.607976
O O16 0.000000 0.250000 0.568504
#
# Coordination Sequence:
#
# PCOD9529854 Si02
#       8
#    16  16   8  16  16  16  16  16
#     4  10  18  32  57  89 120 145 179 237 308 362
#     4  10  20  33  59  93 116 153 188 242 312 360
#     4  10  24  40  62  78 110 174 202 252 292 344
#     4  10  19  37  55  81 118 149 200 240 292 350
#     4  11  20  34  59  94 128 151 187 250 317 365
#     4  10  20  33  58  92 117 148 182 244 311 357
#     4  11  20  38  57  85 122 157 192 242 297 366
#     4  11  22  40  56  81 121 160 206 236 293 353
#
# _framework density 19.180436
#
# number of rings (size 3 to 8) (size 9 to 14) (size 15 to 20)
#    0.000    1.600    2.667    4.800    0.000    1.067 
#    0.000   10.667    0.000    4.000    0.000    0.000 
#    0.000    0.000    0.000    0.000    0.000    0.000 
#
# Total GULP energy -334448.249277 kJ/mol
# GULP energy per Si atom -5574.137488 kJ/mol
# Density = 1.913678 g / cm^3
# Si number density = 19.180436 Si / 1000 Ang^3
#
#
#
# Elastic Constant Matrix: (Units=GPa)
#
#
# Indices 1 2 3 4 5 6 
#
# 1 20.7517 4.8824 16.1279 0.0000 0.0000 0.0000
# 2 4.8824 98.6882 11.8103 0.0000 0.0000 0.0000
# 3 16.1279 11.8103 82.5117 0.0000 0.0000 0.0000
# 4 0.0000 0.0000 0.0000 26.0507 0.0000 0.0000
# 5 0.0000 0.0000 0.0000 0.0000 6.1770 0.0000
# 6 0.0000 0.0000 0.0000 0.0000 0.0000 76.8577
#
#
#
# Elastic Compliance Matrix: (Units=1/GPa)
#
#
# Indices 1 2 3 4 5 6 
#
# 1 0.057042 -0.001514 -0.010933 0.000000 0.000000 0.000000
# 2 -0.001514 0.010350 -0.001186 0.000000 0.000000 0.000000
# 3 -0.010933 -0.001186 0.014426 0.000000 0.000000 0.000000
# 4 0.000000 0.000000 0.000000 0.038387 0.000000 0.000000
# 5 0.000000 0.000000 0.000000 0.000000 0.161892 0.000000
# 6 0.000000 0.000000 0.000000 0.000000 0.000000 0.013011
#
#
# Mechanical properties :
#
#
# Convention : Reuss Voigt Hill
#
# Bulk Modulus (GPa) = 18.33062 29.73253 24.03158
# Shear Modulus (GPa) = 14.68191 33.09248 23.88719
#
# Velocity S-wave (km/s) = 2.76970 4.15821 3.53284
# Velocity P-wave (km/s) = 4.45039 6.21204 5.40349
#
# Compressibility (1/GPa) = 0.05455352
#
# Stress axis : x y z
#
# Youngs Moduli (GPa) = 17.53104 96.62133 69.31863
#
# Poissons Ratio (x) = 0.14625 0.75785
# Poissons Ratio (y) = 0.02654 0.08218
# Poissons Ratio (z) = 0.19166 0.11455
#
# Static dielectric constant tensor:
#      x y z
#    x 1.682650 0.000000 0.000000 
#    y 0.000000 1.705550 0.000000 
#    z 0.000000 0.000000 1.694140 
# 
# From -- ./inp_files/18972.got.cif
#   From: 2010.05.17/outbox.cif.g08.bks.cpg/sg73_10_cif.got.tgz:18972.got - 2010.06.03 17:35:07.
