data_PCOD9529929
_publ_section_title
;
Structure prediction by ZEFSAII (Michael W. Deem and Ramdas Pophale) SiO2 
 PCOD9529929
Probable space group: I B C A 
;
_chemical_formula_sum "Si O2"
_cell_formula_units_Z 56
_cell_length_a 15.304189
_cell_length_b 14.793057
_cell_length_c 8.842470
_cell_angle_alpha 90.000000
_cell_angle_beta 90.000000
_cell_angle_gamma 90.000000
_cell_volume 2001.897541
_symmetry_space_group_name_H-M "I B C A "
_symmetry_group_IT_number 73
_symmetry_cell_setting 'orthorhombic'
loop_
_space_group_symop_operation_xyz
x,y,z
-x,1/2-y,z
x,-y,1/2-z
1/2-x,y,-z
-x,-y,-z
x,1/2+y,-z
-x,y,1/2+z
1/2+x,-y,z
1/2+x,1/2+y,1/2+z
1/2-x,-y,1/2+z
1/2+x,1/2-y,-z
-x,1/2+y,1/2-z
1/2-x,1/2-y,1/2-z
1/2+x,y,1/2-z
1/2-x,1/2+y,z
x,1/2-y,1/2+z
loop_
_atom_site_type_symbol
_atom_site_label
_atom_site_fract_x
_atom_site_fract_y
_atom_site_fract_z
Si Si1 0.714236 0.181197 0.169679
Si Si2 0.417681 0.693282 0.781932
Si Si3 0.638652 0.500000 0.750000
Si Si4 0.545126 0.111578 0.017632
O O1 0.813017 0.216762 0.252381
O O2 0.605662 0.190093 0.105888
O O3 0.697685 0.089335 0.264515
O O4 0.750000 0.167685 0.000000
O O5 0.500000 0.750000 0.711580
O O6 0.449279 0.643429 0.934456
O O7 0.426672 0.612167 0.653681
O O8 0.577784 0.523593 0.892624
#
# Coordination Sequence:
#
# PCOD9529929 Si02
#       4
#    16  16   8  16
#     4   9  19  37  61  81 126 163 199 252 311 359
#     4  10  18  35  61  88 115 166 194 243 309 361
#     4   8  20  38  56  92 122 154 206 264 290 366
#     4   9  20  36  60  88 122 153 205 246 300 359
#
# _framework density 27.973459999999999
#
# number of rings (size 3 to 8) (size 9 to 14) (size 15 to 20)
#    1.714    1.143    0.000    2.571    0.000    2.286 
#    0.000    1.429   12.571    0.000    0.000    0.000 
#    0.000    0.000    0.000    0.000    0.000    0.000 
#
# Total GULP energy -156255.751681 kJ/mol
# GULP energy per Si atom -5580.562560 kJ/mol
# Density = 2.790979 g / cm^3
# Si number density = 27.973460 Si / 1000 Ang^3
#
#
#
# Elastic Constant Matrix: (Units=GPa)
#
#
# Indices 1 2 3 4 5 6 
#
# 1 171.2055 85.1100 75.8303 0.0000 0.0000 0.0000
# 2 85.1100 191.3149 41.2544 0.0000 0.0000 0.0000
# 3 75.8303 41.2544 101.2866 0.0000 0.0000 0.0000
# 4 0.0000 0.0000 0.0000 47.5435 0.0000 0.0000
# 5 0.0000 0.0000 0.0000 0.0000 52.6453 0.0000
# 6 0.0000 0.0000 0.0000 0.0000 0.0000 61.8943
#
#
#
# Elastic Compliance Matrix: (Units=1/GPa)
#
#
# Indices 1 2 3 4 5 6 
#
# 1 0.010247 -0.003184 -0.006375 0.000000 0.000000 0.000000
# 2 -0.003184 0.006720 -0.000353 0.000000 0.000000 0.000000
# 3 -0.006375 -0.000353 0.014790 0.000000 0.000000 0.000000
# 4 0.000000 0.000000 0.000000 0.021033 0.000000 0.000000
# 5 0.000000 0.000000 0.000000 0.000000 0.018995 0.000000
# 6 0.000000 0.000000 0.000000 0.000000 0.000000 0.016157
#
#
# Mechanical properties :
#
#
# Convention : Reuss Voigt Hill
#
# Bulk Modulus (GPa) = 83.80695 96.46628 90.13661
# Shear Modulus (GPa) = 44.74525 49.85741 47.30133
#
# Velocity S-wave (km/s) = 4.00379 4.22632 4.11656
# Velocity P-wave (km/s) = 7.16926 7.64039 7.40857
#
# Compressibility (1/GPa) = 0.01193218
#
# Stress axis : x y z
#
# Youngs Moduli (GPa) = 97.58507 148.81786 67.61491
#
# Poissons Ratio (x) = 0.47385 0.43105
# Poissons Ratio (y) = 0.31072 0.02387
# Poissons Ratio (z) = 0.62211 0.05255
#
# Static dielectric constant tensor:
#      x y z
#    x 2.429560 0.000000 0.000000 
#    y 0.000000 2.684530 0.000000 
#    z 0.000000 0.000000 2.448290 
# 
# From -- ./inp_files/10262.got.cif
#   From: 2010.05.17/outbox.cif.g08.bks.cpg/sg73_6_cif.got.tgz:10262.got - 2010.06.03 17:35:07.
