data_PCOD9529653
_publ_section_title
;
Structure prediction by ZEFSAII (Michael W. Deem and Ramdas Pophale) SiO2 
 PCOD9529653
Probable space group: I B C A 
;
_chemical_formula_sum "Si O2"
_cell_formula_units_Z 104
_cell_length_a 21.162778
_cell_length_b 17.205376
_cell_length_c 15.728607
_cell_angle_alpha 90.000000
_cell_angle_beta 90.000000
_cell_angle_gamma 90.000000
_cell_volume 5726.998974
_symmetry_space_group_name_H-M "I B C A "
_symmetry_group_IT_number 73
_symmetry_cell_setting 'orthorhombic'
loop_
_space_group_symop_operation_xyz
x,y,z
-x,1/2-y,z
x,-y,1/2-z
1/2-x,y,-z
-x,-y,-z
x,1/2+y,-z
-x,y,1/2+z
1/2+x,-y,z
1/2+x,1/2+y,1/2+z
1/2-x,-y,1/2+z
1/2+x,1/2-y,-z
-x,1/2+y,1/2-z
1/2-x,1/2-y,1/2-z
1/2+x,y,1/2-z
1/2-x,1/2+y,z
x,1/2-y,1/2+z
loop_
_atom_site_type_symbol
_atom_site_label
_atom_site_fract_x
_atom_site_fract_y
_atom_site_fract_z
Si Si1 0.407395 0.511739 0.573676
Si Si2 0.208185 0.695671 0.808937
Si Si3 0.688298 0.575577 0.303146
Si Si4 0.000000 0.750000 0.272283
Si Si5 0.053868 0.483016 0.615968
Si Si6 0.877856 0.828735 0.349822
Si Si7 0.411526 0.376944 0.234417
O O1 0.359565 0.458152 0.626728
O O2 0.416965 0.483774 0.477525
O O3 0.478019 0.508939 0.612918
O O4 0.384329 0.601472 0.582549
O O5 0.250000 0.750000 0.750000
O O6 0.254802 0.627636 0.840974
O O7 0.168578 0.755519 0.868375
O O8 0.157519 0.656555 0.746196
O O9 0.712323 0.500000 0.250000
O O10 0.649339 0.628172 0.235078
O O11 0.053623 0.706842 0.327711
O O12 0.038065 0.810606 0.215080
O O13 0.070228 0.408435 0.671936
O O14 0.082404 0.554822 0.667800
#
# Coordination Sequence:
#
# PCOD9529653 Si02
#       7
#    16  16  16   8  16  16  16
#     4  10  19  35  56  84 116 143 178 234 286 331
#     4   9  19  35  58  80 107 147 190 227 264 337
#     4   9  18  31  57  81 107 146 188 222 272 330
#     4  10  16  30  56  80 104 142 178 222 278 332
#     4  10  21  34  57  86 114 139 186 234 284 331
#     4   9  17  31  55  81 110 142 179 223 275 331
#     4  10  20  34  59  80 111 144 190 228 277 333
#
# _framework density 18.159597000000002
#
# number of rings (size 3 to 8) (size 9 to 14) (size 15 to 20)
#    0.000    2.462    1.538    0.923    6.462    0.000 
#    0.000    1.538   23.692    0.000    0.000    0.000 
#    0.000    0.000    0.000    0.000    0.000    0.000 
#
# Total GULP energy -289662.417765 kJ/mol
# GULP energy per Si atom -5570.431111 kJ/mol
# Density = 1.811827 g / cm^3
# Si number density = 18.159597 Si / 1000 Ang^3
#
#
#
# Elastic Constant Matrix: (Units=GPa)
#
#
# Indices 1 2 3 4 5 6 
#
# 1 108.3677 54.3689 25.3364 0.0000 0.0000 0.0000
# 2 54.3689 101.3445 18.4937 0.0000 0.0000 0.0000
# 3 25.3364 18.4937 36.2896 0.0000 0.0000 0.0000
# 4 0.0000 0.0000 0.0000 5.4593 0.0000 0.0000
# 5 0.0000 0.0000 0.0000 0.0000 14.4193 0.0000
# 6 0.0000 0.0000 0.0000 0.0000 0.0000 48.7541
#
#
#
# Elastic Compliance Matrix: (Units=1/GPa)
#
#
# Indices 1 2 3 4 5 6 
#
# 1 0.013893 -0.006266 -0.006506 0.000000 0.000000 0.000000
# 2 -0.006266 0.013705 -0.002610 0.000000 0.000000 0.000000
# 3 -0.006506 -0.002610 0.033429 0.000000 0.000000 0.000000
# 4 0.000000 0.000000 0.000000 0.183174 0.000000 0.000000
# 5 0.000000 0.000000 0.000000 0.000000 0.069352 0.000000
# 6 0.000000 0.000000 0.000000 0.000000 0.000000 0.020511
#
#
# Mechanical properties :
#
#
# Convention : Reuss Voigt Hill
#
# Bulk Modulus (GPa) = 33.04404 49.15551 41.09977
# Shear Modulus (GPa) = 13.33641 23.58005 18.45823
#
# Velocity S-wave (km/s) = 2.71292 3.60737 3.19163
# Velocity P-wave (km/s) = 5.29615 6.66919 6.02193
#
# Compressibility (1/GPa) = 0.03026265
#
# Stress axis : x y z
#
# Youngs Moduli (GPa) = 71.98084 72.96613 29.91456
#
# Poissons Ratio (x) = 0.45719 0.19463
# Poissons Ratio (y) = 0.45101 0.07807
# Poissons Ratio (z) = 0.46833 0.19042
#
# Static dielectric constant tensor:
#      x y z
#    x 1.633110 0.000000 0.000000 
#    y 0.000000 1.705080 0.000000 
#    z 0.000000 0.000000 1.580600 
# 
# From -- ./inp_files/18790.got.cif
#   From: 2010.05.17/outbox.cif.g08.bks.cpg/sg73_10_cif.got.tgz:18790.got - 2010.06.03 17:35:07.
