data_PCOD9529602
_publ_section_title
;
Structure prediction by ZEFSAII (Michael W. Deem and Ramdas Pophale) SiO2 
 PCOD9529602
Probable space group: I B C A 
;
_chemical_formula_sum "Si O2"
_cell_formula_units_Z 72
_cell_length_a 10.538725
_cell_length_b 22.648582
_cell_length_c 13.031480
_cell_angle_alpha 90.000000
_cell_angle_beta 90.000000
_cell_angle_gamma 90.000000
_cell_volume 3110.447178
_symmetry_space_group_name_H-M "I B C A "
_symmetry_group_IT_number 73
_symmetry_cell_setting 'orthorhombic'
loop_
_space_group_symop_operation_xyz
x,y,z
-x,1/2-y,z
x,-y,1/2-z
1/2-x,y,-z
-x,-y,-z
x,1/2+y,-z
-x,y,1/2+z
1/2+x,-y,z
1/2+x,1/2+y,1/2+z
1/2-x,-y,1/2+z
1/2+x,1/2-y,-z
-x,1/2+y,1/2-z
1/2-x,1/2-y,1/2-z
1/2+x,y,1/2-z
1/2-x,1/2+y,z
x,1/2-y,1/2+z
loop_
_atom_site_type_symbol
_atom_site_label
_atom_site_fract_x
_atom_site_fract_y
_atom_site_fract_z
Si Si1 0.410716 0.051889 0.046829
Si Si2 0.886169 0.641713 0.018101
Si Si3 0.064599 0.390747 0.652014
Si Si4 0.630779 0.214580 0.208715
Si Si5 0.417867 0.000000 0.250000
O O1 0.512724 0.101953 0.079717
O O2 0.144078 0.082810 0.056010
O O3 0.347944 0.024319 0.148407
O O4 0.500000 0.000000 0.000000
O O5 0.861408 0.698578 0.087753
O O6 0.750000 0.611669 0.000000
O O7 0.953718 0.646240 0.907782
O O8 0.132629 0.346563 0.727822
O O9 0.001987 0.445911 0.708943
O O10 0.500000 0.250000 0.224958
O O11 0.750000 0.250000 0.250000
#
# Coordination Sequence:
#
# PCOD9529602 Si02
#       5
#    16  16  16  16   8
#     4   8  17  32  67  90 133 176 215 281 347 420
#     4  10  21  39  63  93 135 178 226 287 347 408
#     4   9  19  38  65  93 135 175 225 286 351 413
#     4  12  26  44  70  99 135 187 242 292 345 414
#     4  10  14  36  68  98 130 180 222 286 350 428
#
# _framework density 23.147798000000002
#
# number of rings (size 3 to 8) (size 9 to 14) (size 15 to 20)
#    1.333    0.889    2.222    1.333    0.000    2.667 
#    0.000    1.111   14.667    0.000    0.000    0.000 
#    0.000    0.000    0.000    0.000    0.000    0.000 
#
# Total GULP energy -200425.986969 kJ/mol
# GULP energy per Si atom -5567.388527 kJ/mol
# Density = 2.309511 g / cm^3
# Si number density = 23.147798 Si / 1000 Ang^3
#
#
#
# Elastic Constant Matrix: (Units=GPa)
#
#
# Indices 1 2 3 4 5 6 
#
# 1 74.7922 33.4943 34.2538 0.0000 0.0000 0.0000
# 2 33.4943 103.8522 54.1451 0.0000 0.0000 0.0000
# 3 34.2538 54.1451 149.1402 0.0001 0.0000 0.0000
# 4 0.0000 0.0000 0.0001 55.8736 0.0000 0.0000
# 5 0.0000 0.0000 0.0000 0.0000 22.7664 0.0000
# 6 0.0000 0.0000 0.0000 0.0000 0.0000 18.5600
#
#
#
# Elastic Compliance Matrix: (Units=1/GPa)
#
#
# Indices 1 2 3 4 5 6 
#
# 1 0.016219 -0.004057 -0.002252 0.000000 0.000000 0.000000
# 2 -0.004057 0.012892 -0.003749 0.000000 0.000000 0.000000
# 3 -0.002252 -0.003749 0.008583 0.000000 0.000000 0.000000
# 4 0.000000 0.000000 0.000000 0.017898 0.000000 0.000000
# 5 0.000000 0.000000 0.000000 0.000000 0.043924 0.000000
# 6 0.000000 0.000000 0.000000 0.000000 0.000000 0.053879
#
#
# Mechanical properties :
#
#
# Convention : Reuss Voigt Hill
#
# Bulk Modulus (GPa) = 56.88687 63.50788 60.19737
# Shear Modulus (GPa) = 27.87545 33.16610 30.52078
#
# Velocity S-wave (km/s) = 3.47398 3.78934 3.63508
# Velocity P-wave (km/s) = 6.38124 6.82941 6.60912
#
# Compressibility (1/GPa) = 0.01757875
#
# Stress axis : x y z
#
# Youngs Moduli (GPa) = 61.65785 77.56864 116.50479
#
# Poissons Ratio (x) = 0.31466 0.26240
# Poissons Ratio (y) = 0.25012 0.43674
# Poissons Ratio (z) = 0.13887 0.29078
#
# Static dielectric constant tensor:
#      x y z
#    x 2.106910 0.000000 0.000000 
#    y 0.000000 1.962400 0.000000 
#    z 0.000000 0.000000 1.891480 
# 
# From -- ./inp_files/15579.got.cif
#   From: 2010.05.17/outbox.cif.g08.bks.cpg/sg73_8_cif.got.tgz:15579.got - 2010.06.03 17:35:07.
