data_PCOD9529123
_publ_section_title
;
Structure prediction by ZEFSAII (Michael W. Deem and Ramdas Pophale) SiO2 
 PCOD9529123
Probable space group: I B A M
;
_chemical_formula_sum "Si O2"
_cell_formula_units_Z 56
_cell_length_a 15.551866
_cell_length_b 10.641766
_cell_length_c 14.499298
_cell_angle_alpha 90.000000
_cell_angle_beta 90.000000
_cell_angle_gamma 90.000000
_cell_volume 2399.623943
_symmetry_space_group_name_H-M "I B A M"
_symmetry_group_IT_number 72
_symmetry_cell_setting 'orthorhombic'
loop_
_space_group_symop_operation_xyz
x,y,z
-x,-y,z
x,-y,1/2-z
-x,y,1/2-z
-x,-y,-z
x,y,-z
-x,y,1/2+z
x,-y,1/2+z
1/2+x,1/2+y,1/2+z
1/2-x,1/2-y,1/2+z
1/2+x,1/2-y,-z
1/2-x,1/2+y,-z
1/2-x,1/2-y,1/2-z
1/2+x,1/2+y,1/2-z
1/2-x,1/2+y,z
1/2+x,1/2-y,z
loop_
_atom_site_type_symbol
_atom_site_label
_atom_site_fract_x
_atom_site_fract_y
_atom_site_fract_z
Si Si1 0.235429 0.054520 0.000000
Si Si2 0.298245 0.632918 0.797900
Si Si3 0.469512 0.251859 0.341530
Si Si4 0.931865 0.114361 0.000000
Si Si5 0.586579 0.919958 0.500000
O O1 0.225178 0.129527 0.905653
O O2 0.162331 0.945322 0.000000
O O3 0.330050 0.001819 0.000000
O O4 0.275778 0.500000 0.750000
O O5 0.250000 0.750000 0.750000
O O6 0.402115 0.647525 0.800507
O O7 0.500000 0.181605 0.250000
O O8 0.543784 0.307173 0.408087
O O9 0.415884 0.164782 0.409441
O O10 0.000000 0.000000 0.000000
O O11 0.500000 0.000000 0.500000
#
# Coordination Sequence:
#
# PCOD9529123 Si02
#       5
#     8  16  16   8   8
#     4  12  25  50  80 106 163 192 266 328 386 472
#     4  12  27  46  78 119 153 207 261 320 400 467
#     4  11  25  45  74 110 155 194 266 324 384 468
#     4  11  21  45  73 110 144 196 253 332 399 440
#     4  11  28  51  69 108 153 219 252 312 410 470
#
# _framework density 23.33699
#
# number of rings (size 3 to 8) (size 9 to 14) (size 15 to 20)
#    0.000    0.571    2.857    4.286    4.000    1.714 
#    5.143    0.000    0.000    0.000    0.000    0.000 
#    0.000    0.000    0.000    0.000    0.000    0.000 
#
# Total GULP energy -156753.553852 kJ/mol
# GULP energy per Si atom -5598.341209 kJ/mol
# Density = 2.328387 g / cm^3
# Si number density = 23.336990 Si / 1000 Ang^3
#
#
#
# Elastic Constant Matrix: (Units=GPa)
#
#
# Indices 1 2 3 4 5 6 
#
# 1 140.3892 36.7242 36.0747 0.0000 0.0000 0.0000
# 2 36.7242 93.4760 47.4497 0.0000 0.0000 0.0000
# 3 36.0747 47.4497 213.3531 0.0000 0.0000 0.0000
# 4 0.0000 0.0000 0.0000 -3.4740 0.0000 0.0000
# 5 0.0000 0.0000 0.0000 0.0000 8.0734 0.0000
# 6 0.0000 0.0000 0.0000 0.0000 0.0000 35.3737
#
#
#
# Elastic Compliance Matrix: (Units=1/GPa)
#
#
# Indices 1 2 3 4 5 6 
#
# 1 0.008041 -0.002783 -0.000741 0.000000 0.000000 0.000000
# 2 -0.002783 0.013023 -0.002426 0.000000 0.000000 0.000000
# 3 -0.000741 -0.002426 0.005352 0.000000 0.000000 0.000000
# 4 0.000000 0.000000 0.000000 -0.287851 0.000000 0.000000
# 5 0.000000 0.000000 0.000000 0.000000 0.123863 0.000000
# 6 0.000000 0.000000 0.000000 0.000000 0.000000 0.028270
#
#
# Mechanical properties :
#
#
# Convention : Reuss Voigt Hill
#
# Bulk Modulus (GPa) = 68.88614 76.41282 72.64948
# Shear Modulus (GPa) = -54.01686 29.79261 -12.11213
#
# Velocity S-wave (km/s) = -4.81630 3.57687 -2.28065
# Velocity P-wave (km/s) = 1.16054 7.06208 4.92575
#
# Compressibility (1/GPa) = 0.01451671
#
# Stress axis : x y z
#
# Youngs Moduli (GPa) = 124.35556 76.78897 186.85425
#
# Poissons Ratio (x) = 0.21373 0.13840
# Poissons Ratio (y) = 0.34612 0.45324
# Poissons Ratio (z) = 0.09211 0.18626
#
# Static dielectric constant tensor:
#      x y z
#    x 1.813420 0.000000 0.000000 
#    y 0.000000 1.899830 0.000000 
#    z 0.000000 0.000000 1.743640 
# 
# From -- ./inp_files/19453.got.cif
#   From: 2010.05.17/outbox.cif.g08.bks.cpg/sg72_10_cif.got.tgz:19453.got - 2010.06.03 17:03:01.
