data_PCOD9529952
_publ_section_title
;
Structure prediction by ZEFSAII (Michael W. Deem and Ramdas Pophale) SiO2 
 PCOD9529952
Probable space group: I B C A 
;
_chemical_formula_sum "Si O2"
_cell_formula_units_Z 96
_cell_length_a 16.721775
_cell_length_b 19.810899
_cell_length_c 10.488529
_cell_angle_alpha 90.000000
_cell_angle_beta 90.000000
_cell_angle_gamma 90.000000
_cell_volume 3474.570617
_symmetry_space_group_name_H-M "I B C A "
_symmetry_group_IT_number 73
_symmetry_cell_setting 'orthorhombic'
loop_
_space_group_symop_operation_xyz
x,y,z
-x,1/2-y,z
x,-y,1/2-z
1/2-x,y,-z
-x,-y,-z
x,1/2+y,-z
-x,y,1/2+z
1/2+x,-y,z
1/2+x,1/2+y,1/2+z
1/2-x,-y,1/2+z
1/2+x,1/2-y,-z
-x,1/2+y,1/2-z
1/2-x,1/2-y,1/2-z
1/2+x,y,1/2-z
1/2-x,1/2+y,z
x,1/2-y,1/2+z
loop_
_atom_site_type_symbol
_atom_site_label
_atom_site_fract_x
_atom_site_fract_y
_atom_site_fract_z
Si Si1 0.250000 0.495261 0.000000
Si Si2 0.580766 0.560800 0.918284
Si Si3 0.153012 0.706563 0.889237
Si Si4 0.787398 0.587742 0.259834
Si Si5 0.500000 0.250000 0.728171
Si Si6 0.079594 0.877066 0.613921
Si Si7 0.836509 0.859205 0.384849
O O1 0.147065 0.487247 0.984935
O O2 0.250152 0.541875 0.866770
O O3 0.621151 0.571436 0.778744
O O4 0.484714 0.562105 0.907470
O O5 0.599522 0.624918 0.007959
O O6 0.213030 0.665491 0.799783
O O7 0.185103 0.781802 0.910727
O O8 0.071278 0.723288 0.816131
O O9 0.134803 0.652290 0.000440
O O10 0.741080 0.589707 0.121354
O O11 0.525803 0.188831 0.641115
O O12 0.125643 0.879225 0.748977
#
# Coordination Sequence:
#
# PCOD9529952 Si02
#       7
#     8  16  16  16   8  16  16
#     4  12  28  52  80  98 148 208 266 340 364 436
#     4  12  25  47  78 104 148 206 262 310 386 445
#     4  11  23  40  73 110 158 195 239 310 389 469
#     4  12  25  50  73 108 147 202 263 319 382 452
#     4  10  18  36  62 102 148 200 224 288 372 450
#     4  11  22  41  69 109 152 191 247 300 379 464
#     4  11  25  44  75 114 152 199 245 314 395 472
#
# _framework density 27.629313
#
# number of rings (size 3 to 8) (size 9 to 14) (size 15 to 20)
#    0.000    0.667    3.333    5.500    2.333    0.000 
#    6.000    3.333    7.333    0.000    0.000    0.000 
#    0.000    0.000    0.000    0.000    0.000    0.000 
#
# Total GULP energy -267715.129452 kJ/mol
# GULP energy per Si atom -5577.398530 kJ/mol
# Density = 2.756643 g / cm^3
# Si number density = 27.629313 Si / 1000 Ang^3
#
#
#
# Elastic Constant Matrix: (Units=GPa)
#
#
# Indices 1 2 3 4 5 6 
#
# 1 155.9609 50.9294 61.5156 0.0000 0.0000 0.0000
# 2 50.9294 102.9489 25.6956 0.0000 0.0000 0.0000
# 3 61.5156 25.6956 137.7570 0.0000 0.0000 0.0000
# 4 0.0000 0.0000 0.0000 6.6920 0.0000 0.0000
# 5 0.0000 0.0000 0.0000 0.0000 58.3189 0.0000
# 6 0.0000 0.0000 0.0000 0.0000 0.0000 47.7301
#
#
#
# Elastic Compliance Matrix: (Units=1/GPa)
#
#
# Indices 1 2 3 4 5 6 
#
# 1 0.008879 -0.003569 -0.003299 0.000000 0.000000 0.000000
# 2 -0.003569 0.011622 -0.000574 0.000000 0.000000 0.000000
# 3 -0.003299 -0.000574 0.008839 0.000000 0.000000 0.000000
# 4 0.000000 0.000000 0.000000 0.149432 0.000000 0.000000
# 5 0.000000 0.000000 0.000000 0.000000 0.017147 0.000000
# 6 0.000000 0.000000 0.000000 0.000000 0.000000 0.020951
#
#
# Mechanical properties :
#
#
# Convention : Reuss Voigt Hill
#
# Bulk Modulus (GPa) = 69.17459 74.77202 71.97330
# Shear Modulus (GPa) = 21.13505 39.78328 30.45916
#
# Velocity S-wave (km/s) = 2.76877 3.79871 3.32388
# Velocity P-wave (km/s) = 5.94243 6.80893 6.39039
#
# Compressibility (1/GPa) = 0.01445618
#
# Stress axis : x y z
#
# Youngs Moduli (GPa) = 112.63160 86.04077 113.12911
#
# Poissons Ratio (x) = 0.30706 0.37322
# Poissons Ratio (y) = 0.40196 0.06496
# Poissons Ratio (z) = 0.37157 0.04941
#
# Static dielectric constant tensor:
#      x y z
#    x 2.238320 0.000000 0.000000 
#    y 0.000000 2.290180 0.000000 
#    z 0.000000 0.000000 1.750550 
# 
# From -- ./inp_files/12077.got.cif
#   From: 2010.05.17/outbox.cif.g08.bks.cpg/sg73_7_cif.got.tgz:12077.got - 2010.06.03 17:35:07.
