data_PCOD9529240
_publ_section_title
;
Structure prediction by ZEFSAII (Michael W. Deem and Ramdas Pophale) SiO2 
 PCOD9529240
Probable space group: I B A M
;
_chemical_formula_sum "Si O2"
_cell_formula_units_Z 88
_cell_length_a 27.631021
_cell_length_b 7.571443
_cell_length_c 19.721389
_cell_angle_alpha 90.000000
_cell_angle_beta 90.000000
_cell_angle_gamma 90.000000
_cell_volume 4125.846723
_symmetry_space_group_name_H-M "I B A M"
_symmetry_group_IT_number 72
_symmetry_cell_setting 'orthorhombic'
loop_
_space_group_symop_operation_xyz
x,y,z
-x,-y,z
x,-y,1/2-z
-x,y,1/2-z
-x,-y,-z
x,y,-z
-x,y,1/2+z
x,-y,1/2+z
1/2+x,1/2+y,1/2+z
1/2-x,1/2-y,1/2+z
1/2+x,1/2-y,-z
1/2-x,1/2+y,-z
1/2-x,1/2-y,1/2-z
1/2+x,1/2+y,1/2-z
1/2-x,1/2+y,z
1/2+x,1/2-y,z
loop_
_atom_site_type_symbol
_atom_site_label
_atom_site_fract_x
_atom_site_fract_y
_atom_site_fract_z
Si Si1 0.874420 0.520813 0.169266
Si Si2 0.000000 0.000000 0.123052
Si Si3 0.956197 0.361295 0.923890
Si Si4 0.288606 0.896092 0.077903
Si Si5 0.682596 0.483252 0.423335
Si Si6 0.896739 0.067414 0.323537
O O1 0.869063 0.500000 0.250000
O O2 0.916580 0.405434 0.133812
O O3 0.824739 0.499371 0.127058
O O4 0.888059 0.726816 0.162842
O O5 0.046444 0.044567 0.167471
O O6 0.981226 0.169795 0.081926
O O7 0.000000 0.500000 0.916093
O O8 0.935277 0.383937 0.000000
O O9 0.305756 0.693212 0.075536
O O10 0.232894 0.899385 0.101101
O O11 0.289570 0.964876 0.000000
O O12 0.672902 0.423922 0.500000
O O13 0.635781 0.461163 0.377326
O O14 0.881494 0.000000 0.250000
#
# Coordination Sequence:
#
# PCOD9529240 Si02
#       6
#    16   8  16  16  16  16
#     4  11  23  41  63  92 130 173 213 266 329 386
#     4  12  24  44  66  98 129 173 218 268 326 386
#     4  11  24  43  67  97 130 167 216 270 320 382
#     4   9  19  38  63  90 121 163 209 263 326 387
#     4   9  20  38  62  88 122 162 208 267 326 384
#     4  11  24  41  61  92 129 169 218 270 323 388
#
# _framework density 21.328956000000002
#
# number of rings (size 3 to 8) (size 9 to 14) (size 15 to 20)
#    0.000    1.636    1.818    2.182    0.000    6.182 
#    0.000    5.455    0.000    0.000    0.000    0.000 
#    0.000    0.000    0.000    0.000    0.000    0.000 
#
# Total GULP energy -245835.894454 kJ/mol
# GULP energy per Si atom -5587.179419 kJ/mol
# Density = 2.128041 g / cm^3
# Si number density = 21.328956 Si / 1000 Ang^3
#
#
#
# Elastic Constant Matrix: (Units=GPa)
#
#
# Indices 1 2 3 4 5 6 
#
# 1 150.8329 25.4231 74.3712 0.0000 0.0000 0.0000
# 2 25.4231 84.8771 18.5982 0.0000 0.0000 0.0000
# 3 74.3712 18.5982 112.6455 0.0000 0.0000 0.0000
# 4 0.0000 0.0000 0.0000 -3.5936 0.0000 0.0000
# 5 0.0000 0.0000 0.0000 0.0000 69.2053 0.0000
# 6 0.0000 0.0000 0.0000 0.0000 0.0000 33.4957
#
#
#
# Elastic Compliance Matrix: (Units=1/GPa)
#
#
# Indices 1 2 3 4 5 6 
#
# 1 0.010038 -0.001613 -0.006361 0.000000 0.000000 0.000000
# 2 -0.001613 0.012483 -0.000996 0.000000 0.000000 0.000000
# 3 -0.006361 -0.000996 0.013242 0.000000 0.000000 0.000000
# 4 0.000000 0.000000 0.000000 -0.278272 0.000000 0.000000
# 5 0.000000 0.000000 0.000000 0.000000 0.014450 0.000000
# 6 0.000000 0.000000 0.000000 0.000000 0.000000 0.029855
#
#
# Mechanical properties :
#
#
# Convention : Reuss Voigt Hill
#
# Bulk Modulus (GPa) = 56.10854 65.01563 60.56208
# Shear Modulus (GPa) = -28.68238 35.15232 3.23497
#
# Velocity S-wave (km/s) = -3.67108 4.06409 1.23288
# Velocity P-wave (km/s) = 2.89729 7.25058 5.52111
#
# Compressibility (1/GPa) = 0.01782260
#
# Stress axis : x y z
#
# Youngs Moduli (GPa) = 99.61932 80.10816 75.51916
#
# Poissons Ratio (x) = 0.12920 0.48039
# Poissons Ratio (y) = 0.16067 0.07523
# Poissons Ratio (z) = 0.63370 0.07980
#
# Static dielectric constant tensor:
#      x y z
#    x 1.732580 0.000000 0.000000 
#    y 0.000000 1.822990 0.000000 
#    z 0.000000 0.000000 1.754400 
# 
# From -- ./inp_files/40151.got.cif
#   From: 2010.05.17/outbox.cif.g08.bks.cpg/sg72_21_cif.got.tgz:40151.got - 2010.06.03 17:03:01.
