data_PCOD9529937
_publ_section_title
;
Structure prediction by ZEFSAII (Michael W. Deem and Ramdas Pophale) SiO2 
 PCOD9529937
Probable space group: I B C A 
;
_chemical_formula_sum "Si O2"
_cell_formula_units_Z 88
_cell_length_a 15.812339
_cell_length_b 16.399067
_cell_length_c 17.674519
_cell_angle_alpha 90.000000
_cell_angle_beta 90.000000
_cell_angle_gamma 90.000000
_cell_volume 4583.137221
_symmetry_space_group_name_H-M "I B C A "
_symmetry_group_IT_number 73
_symmetry_cell_setting 'orthorhombic'
loop_
_space_group_symop_operation_xyz
x,y,z
-x,1/2-y,z
x,-y,1/2-z
1/2-x,y,-z
-x,-y,-z
x,1/2+y,-z
-x,y,1/2+z
1/2+x,-y,z
1/2+x,1/2+y,1/2+z
1/2-x,-y,1/2+z
1/2+x,1/2-y,-z
-x,1/2+y,1/2-z
1/2-x,1/2-y,1/2-z
1/2+x,y,1/2-z
1/2-x,1/2+y,z
x,1/2-y,1/2+z
loop_
_atom_site_type_symbol
_atom_site_label
_atom_site_fract_x
_atom_site_fract_y
_atom_site_fract_z
Si Si1 0.915921 0.280275 0.669769
Si Si2 0.682245 0.384440 0.865031
Si Si3 0.791862 0.916000 0.279531
Si Si4 0.816746 0.551873 0.069591
Si Si5 0.080050 0.805366 0.000376
Si Si6 0.750000 0.698450 0.500000
O O1 0.873186 0.195111 0.647218
O O2 0.855652 0.340576 0.714982
O O3 0.936805 0.323427 0.588877
O O4 0.000000 0.250000 0.711147
O O5 0.721955 0.403736 0.784680
O O6 0.644760 0.465195 0.903761
O O7 0.752350 0.356429 0.925468
O O8 0.742555 0.921435 0.359484
O O9 0.834893 0.000000 0.250000
O O10 0.890973 0.614820 0.046787
O O11 0.750000 0.544825 0.000000
O O12 0.000000 0.750000 0.026245
O O13 0.166353 0.752818 0.001327
#
# Coordination Sequence:
#
# PCOD9529937 Si02
#       6
#    16  16  16  16  16   8
#     4  10  20  38  58  85 126 162 198 258 323 377
#     4  10  21  35  60  87 113 161 209 254 321 384
#     4  10  21  37  61  90 117 159 212 253 315 386
#     4  11  18  37  61  86 120 158 206 266 311 374
#     4  10  20  35  60  90 121 165 212 258 319 382
#     4  10  18  36  56  80 118 160 206 254 314 386
#
# _framework density 19.200821000000001
#
# number of rings (size 3 to 8) (size 9 to 14) (size 15 to 20)
#    0.000    1.818    3.636    1.636    0.000    0.000 
#    0.000   18.182    0.000    0.000    0.000    0.000 
#    0.000    0.000    0.000    0.000    0.000    0.000 
#
# Total GULP energy -244974.585644 kJ/mol
# GULP energy per Si atom -5567.604219 kJ/mol
# Density = 1.915712 g / cm^3
# Si number density = 19.200821 Si / 1000 Ang^3
#
#
#
# Elastic Constant Matrix: (Units=GPa)
#
#
# Indices 1 2 3 4 5 6 
#
# 1 77.0680 54.1197 16.9281 0.0000 0.0000 0.0000
# 2 54.1197 147.8337 35.8063 0.0000 0.0000 0.0000
# 3 16.9281 35.8063 102.6136 0.0000 0.0000 0.0000
# 4 0.0000 0.0000 0.0000 36.9208 0.0000 0.0000
# 5 0.0000 0.0000 0.0000 0.0000 11.2100 0.0000
# 6 0.0000 0.0000 0.0000 0.0000 0.0000 0.1108
#
#
#
# Elastic Compliance Matrix: (Units=1/GPa)
#
#
# Indices 1 2 3 4 5 6 
#
# 1 0.017513 -0.006239 -0.000712 0.000000 0.000000 0.000000
# 2 -0.006239 0.009611 -0.002325 0.000000 0.000000 0.000000
# 3 -0.000712 -0.002325 0.010674 0.000000 0.000000 0.000000
# 4 0.000000 0.000000 0.000000 0.027085 0.000000 0.000000
# 5 0.000000 0.000000 0.000000 0.000000 0.089206 0.000000
# 6 0.000000 0.000000 0.000000 0.000000 0.000000 9.025310
#
#
# Mechanical properties :
#
#
# Convention : Reuss Voigt Hill
#
# Bulk Modulus (GPa) = 51.95542 60.13594 56.04568
# Shear Modulus (GPa) = 0.54322 24.35906 12.45114
#
# Velocity S-wave (km/s) = 0.53247 3.56567 2.54927
# Velocity P-wave (km/s) = 5.24364 6.95266 6.15773
#
# Compressibility (1/GPa) = 0.01924727
#
# Stress axis : x y z
#
# Youngs Moduli (GPa) = 57.10030 104.04412 93.68624
#
# Poissons Ratio (x) = 0.64911 0.06672
# Poissons Ratio (y) = 0.35624 0.21778
# Poissons Ratio (z) = 0.04066 0.24186
#
# Static dielectric constant tensor:
#      x y z
#    x 1.697820 0.000000 0.000000 
#    y 0.000000 1.768530 0.000000 
#    z 0.000000 0.000000 1.682640 
# 
# From -- ./inp_files/17977.got.cif
#   From: 2010.05.17/outbox.cif.g08.bks.cpg/sg73_9_cif.got.tgz:17977.got - 2010.06.03 17:35:07.
