data_PCOD9529302
_publ_section_title
;
Structure prediction by ZEFSAII (Michael W. Deem and Ramdas Pophale) SiO2 
 PCOD9529302
Probable space group: I B A M
;
_chemical_formula_sum "Si O2"
_cell_formula_units_Z 68
_cell_length_a 20.427826
_cell_length_b 9.368036
_cell_length_c 17.788828
_cell_angle_alpha 90.000000
_cell_angle_beta 90.000000
_cell_angle_gamma 90.000000
_cell_volume 3404.223277
_symmetry_space_group_name_H-M "I B A M"
_symmetry_group_IT_number 72
_symmetry_cell_setting 'orthorhombic'
loop_
_space_group_symop_operation_xyz
x,y,z
-x,-y,z
x,-y,1/2-z
-x,y,1/2-z
-x,-y,-z
x,y,-z
-x,y,1/2+z
x,-y,1/2+z
1/2+x,1/2+y,1/2+z
1/2-x,1/2-y,1/2+z
1/2+x,1/2-y,-z
1/2-x,1/2+y,-z
1/2-x,1/2-y,1/2-z
1/2+x,1/2+y,1/2-z
1/2-x,1/2+y,z
1/2+x,1/2-y,z
loop_
_atom_site_type_symbol
_atom_site_label
_atom_site_fract_x
_atom_site_fract_y
_atom_site_fract_z
Si Si1 0.299294 0.771903 0.819804
Si Si2 0.264310 0.500450 0.587163
Si Si3 0.425829 0.830908 0.734929
Si Si4 0.394729 0.309519 0.919744
Si Si5 0.500000 0.500000 0.500000
O O1 0.250000 0.750000 0.750000
O O2 0.282018 0.654805 0.882203
O O3 0.287635 0.925184 0.857990
O O4 0.372400 0.757931 0.788711
O O5 0.244751 0.497561 0.500000
O O6 0.329672 0.597351 0.593183
O O7 0.500000 0.784106 0.750000
O O8 0.407634 0.791947 0.649782
O O9 0.422114 0.000000 0.750000
O O10 0.385901 0.230432 0.000000
O O11 0.454758 0.417393 0.935880
#
# Coordination Sequence:
#
# PCOD9529302 Si02
#       5
#    16  16  16  16   4
#     4  12  24  42  67  96 134 175 223 281 344 408
#     4  11  24  43  65  99 131 177 228 283 345 410
#     4  11  25  43  64  98 139 180 227 278 347 418
#     4   9  21  41  67  95 132 173 228 284 341 407
#     4   8  20  40  70  94 132 172 222 296 330 394
#
# _framework density 19.975186999999998
#
# number of rings (size 3 to 8) (size 9 to 14) (size 15 to 20)
#    0.706    0.706    2.353    2.824    3.294    0.000 
#    0.000    4.706    0.000    0.000    0.000    0.000 
#    0.000    0.000    0.000    0.000    0.000    0.000 
#
# Total GULP energy -189379.467198 kJ/mol
# GULP energy per Si atom -5569.984329 kJ/mol
# Density = 1.992972 g / cm^3
# Si number density = 19.975187 Si / 1000 Ang^3
#
#
#
# Elastic Constant Matrix: (Units=GPa)
#
#
# Indices 1 2 3 4 5 6 
#
# 1 105.1606 24.0338 28.0872 0.0000 0.0000 0.0000
# 2 24.0338 44.4164 18.5396 0.0000 0.0000 0.0000
# 3 28.0872 18.5396 76.0185 0.0000 0.0000 0.0000
# 4 0.0000 0.0000 0.0000 46.5861 0.0000 0.0000
# 5 0.0000 0.0000 0.0000 0.0000 27.4230 0.0000
# 6 0.0000 0.0000 0.0000 0.0000 0.0000 23.4585
#
#
#
# Elastic Compliance Matrix: (Units=1/GPa)
#
#
# Indices 1 2 3 4 5 6 
#
# 1 0.011444 -0.004929 -0.003026 0.000000 0.000000 0.000000
# 2 -0.004929 0.027189 -0.004810 0.000000 0.000000 0.000000
# 3 -0.003026 -0.004810 0.015446 0.000000 0.000000 0.000000
# 4 0.000000 0.000000 0.000000 0.021466 0.000000 0.000000
# 5 0.000000 0.000000 0.000000 0.000000 0.036466 0.000000
# 6 0.000000 0.000000 0.000000 0.000000 0.000000 0.042628
#
#
# Mechanical properties :
#
#
# Convention : Reuss Voigt Hill
#
# Bulk Modulus (GPa) = 35.02791 40.76851 37.89821
# Shear Modulus (GPa) = 26.35946 29.82252 28.09099
#
# Velocity S-wave (km/s) = 3.63658 3.86810 3.75413
# Velocity P-wave (km/s) = 5.93353 6.35637 6.14859
#
# Compressibility (1/GPa) = 0.02854867
#
# Stress axis : x y z
#
# Youngs Moduli (GPa) = 87.38142 36.77951 64.74260
#
# Poissons Ratio (x) = 0.18130 0.19592
# Poissons Ratio (y) = 0.43073 0.31139
# Poissons Ratio (z) = 0.26443 0.17690
#
# Static dielectric constant tensor:
#      x y z
#    x 1.727080 0.000000 0.000000 
#    y 0.000000 1.708380 0.000000 
#    z 0.000000 0.000000 1.691160 
# 
# From -- ./inp_files/27791.got.cif
#   From: 2010.05.17/outbox.cif.g08.bks.cpg/sg72_14_cif.got.tgz:27791.got - 2010.06.03 17:03:01.
