data_PCOD9529895
_publ_section_title
;
Structure prediction by ZEFSAII (Michael W. Deem and Ramdas Pophale) SiO2 
 PCOD9529895
Probable space group: I B C A 
;
_chemical_formula_sum "Si O2"
_cell_formula_units_Z 120
_cell_length_a 23.867191
_cell_length_b 20.110730
_cell_length_c 11.958049
_cell_angle_alpha 90.000000
_cell_angle_beta 90.000000
_cell_angle_gamma 90.000000
_cell_volume 5739.703689
_symmetry_space_group_name_H-M "I B C A "
_symmetry_group_IT_number 73
_symmetry_cell_setting 'orthorhombic'
loop_
_space_group_symop_operation_xyz
x,y,z
-x,1/2-y,z
x,-y,1/2-z
1/2-x,y,-z
-x,-y,-z
x,1/2+y,-z
-x,y,1/2+z
1/2+x,-y,z
1/2+x,1/2+y,1/2+z
1/2-x,-y,1/2+z
1/2+x,1/2-y,-z
-x,1/2+y,1/2-z
1/2-x,1/2-y,1/2-z
1/2+x,y,1/2-z
1/2-x,1/2+y,z
x,1/2-y,1/2+z
loop_
_atom_site_type_symbol
_atom_site_label
_atom_site_fract_x
_atom_site_fract_y
_atom_site_fract_z
Si Si1 0.854258 0.166570 0.322082
Si Si2 0.109810 0.375001 0.972924
Si Si3 0.314722 0.189259 0.704040
Si Si4 0.208753 0.894005 0.855081
Si Si5 0.628857 0.842964 0.082645
Si Si6 0.558021 0.213527 0.854098
Si Si7 0.135562 0.981721 0.379542
Si Si8 0.750000 0.988924 0.000000
O O1 0.815892 0.231799 0.302856
O O2 0.821554 0.106438 0.263789
O O3 0.861145 0.156820 0.451714
O O4 0.911618 0.180851 0.253755
O O5 0.129468 0.335397 0.862470
O O6 0.108656 0.452935 0.937920
O O7 0.162048 0.368079 0.058667
O O8 0.059995 0.340189 0.043351
O O9 0.262168 0.153832 0.648287
O O10 0.319462 0.165316 0.831444
O O11 0.228963 0.963795 0.899834
O O12 0.595590 0.775506 0.106651
O O13 0.600583 0.913415 0.115333
O O14 0.500000 0.250000 0.828471
O O15 0.147204 0.000000 0.250000
O O16 0.192700 0.961319 0.446216
#
# Coordination Sequence:
#
# PCOD9529895 Si02
#       8
#    16  16  16  16  16  16  16   8
#     4  10  23  36  55  94 124 150 207 267 308 367
#     4  10  19  39  62  88 120 165 212 254 306 368
#     4  11  18  35  57  84 126 168 199 247 307 371
#     4  10  18  34  56  81 124 174 207 243 303 367
#     4  11  23  38  58  93 125 159 207 257 306 368
#     4  10  23  45  70  89 114 158 206 263 330 379
#     4  11  21  37  59  86 131 171 210 253 304 368
#     4  10  20  34  56  78 116 186 220 234 298 368
#
# _framework density 20.907001999999999
#
# number of rings (size 3 to 8) (size 9 to 14) (size 15 to 20)
#    0.000    1.600    5.333    0.400    0.000    3.200 
#    2.400    6.000    0.000    0.000    0.000    0.000 
#    0.000    0.000    0.000    0.000    0.000    0.000 
#
# Total GULP energy -334630.652275 kJ/mol
# GULP energy per Si atom -5577.177538 kJ/mol
# Density = 2.085942 g / cm^3
# Si number density = 20.907002 Si / 1000 Ang^3
#
#
#
# Elastic Constant Matrix: (Units=GPa)
#
#
# Indices 1 2 3 4 5 6 
#
# 1 31.4624 4.5128 13.0252 0.0000 0.0000 0.0000
# 2 4.5128 103.0735 34.8167 0.0000 0.0000 0.0000
# 3 13.0252 34.8167 140.7512 0.0000 0.0000 0.0000
# 4 0.0000 0.0000 0.0000 46.1125 0.0000 0.0000
# 5 0.0000 0.0000 0.0000 0.0000 9.9895 0.0000
# 6 0.0000 0.0000 0.0000 0.0000 0.0000 20.4410
#
#
#
# Elastic Compliance Matrix: (Units=1/GPa)
#
#
# Indices 1 2 3 4 5 6 
#
# 1 0.033069 -0.000452 -0.002948 0.000000 0.000000 0.000000
# 2 -0.000452 0.010593 -0.002578 0.000000 0.000000 0.000000
# 3 -0.002948 -0.002578 0.008015 0.000000 0.000000 0.000000
# 4 0.000000 0.000000 0.000000 0.021686 0.000000 0.000000
# 5 0.000000 0.000000 0.000000 0.000000 0.100105 0.000000
# 6 0.000000 0.000000 0.000000 0.000000 0.000000 0.048921
#
#
# Mechanical properties :
#
#
# Convention : Reuss Voigt Hill
#
# Bulk Modulus (GPa) = 25.17634 42.22184 33.69909
# Shear Modulus (GPa) = 20.19486 30.17075 25.18280
#
# Velocity S-wave (km/s) = 3.11133 3.80293 3.47438
# Velocity P-wave (km/s) = 4.99753 6.28665 5.67879
#
# Compressibility (1/GPa) = 0.03971984
#
# Stress axis : x y z
#
# Youngs Moduli (GPa) = 30.23937 94.40608 124.76009
#
# Poissons Ratio (x) = 0.04266 0.36785
# Poissons Ratio (y) = 0.01367 0.32168
# Poissons Ratio (z) = 0.08916 0.24342
#
# Static dielectric constant tensor:
#      x y z
#    x 1.817690 0.000000 0.000000 
#    y 0.000000 1.776970 0.000000 
#    z 0.000000 0.000000 1.764230 
# 
# From -- ./inp_files/14446.got.cif
#   From: 2010.05.17/outbox.cif.g08.bks.cpg/sg73_8_cif.got.tgz:14446.got - 2010.06.03 17:35:07.
