data_PCOD9529530
_publ_section_title
;
Structure prediction by ZEFSAII (Michael W. Deem and Ramdas Pophale) SiO2 
 PCOD9529530
Probable space group: I B A M
;
_chemical_formula_sum "Si O2"
_cell_formula_units_Z 58
_cell_length_a 27.000000
_cell_length_b 24.000000
_cell_length_c 9.000000
_cell_angle_alpha 90.000000
_cell_angle_beta 90.000000
_cell_angle_gamma 90.000000
_cell_volume 5832.000000
_symmetry_space_group_name_H-M "I B A M"
_symmetry_group_IT_number 72
_symmetry_cell_setting 'orthorhombic'
loop_
_space_group_symop_operation_xyz
x,y,z
-x,-y,z
x,-y,1/2-z
-x,y,1/2-z
-x,-y,-z
x,y,-z
-x,y,1/2+z
x,-y,1/2+z
1/2+x,1/2+y,1/2+z
1/2-x,1/2-y,1/2+z
1/2+x,1/2-y,-z
1/2-x,1/2+y,-z
1/2-x,1/2-y,1/2-z
1/2+x,1/2+y,1/2-z
1/2-x,1/2+y,z
1/2+x,1/2-y,z
loop_
_atom_site_type_symbol
_atom_site_label
_atom_site_fract_x
_atom_site_fract_y
_atom_site_fract_z
Si Si1 0.815395 0.553465 0.826657
Si Si2 0.946891 0.705028 0.320867
Si Si3 0.000000 0.500000 0.250000
Si Si4 0.407278 0.324437 0.174207
Si Si5 0.087329 0.581327 0.831689
Si Si6 0.722602 0.824830 0.324957
Si Si7 0.554610 0.444619 0.680432
Si Si8 0.818025 0.211773 0.332275
O O1 0.791994 0.500000 0.750000
O O2 0.872556 0.557529 0.780193
O O3 0.792592 0.612972 0.788416
O O4 0.811382 0.545939 0.000000
O O5 0.948920 0.708359 0.500000
O O6 0.928360 0.765726 0.264607
O O7 0.920212 0.646241 0.290314
O O8 0.000000 0.697681 0.250000
O O9 0.037731 0.543654 0.171838
O O10 0.424467 0.384596 0.229008
O O11 0.350036 0.319022 0.210668
O O12 0.417821 0.324538 0.000000
O O13 0.107195 0.579188 0.000000
O O14 0.738963 0.821988 0.500000
O O15 0.762382 0.805292 0.204873
O O16 0.679446 0.778615 0.315645
O O17 0.579580 0.500000 0.750000
O O18 0.500000 0.444252 0.750000
O O19 0.553915 0.448568 0.500000
O O20 0.832384 0.197034 0.500000
#
# Coordination Sequence:
#
# PCOD9529530 Si02
#       8
#    16  16   4  16  16  16  16  16
#     4  11  23  38  58  82 110 144 184 227 274 326
#     4  10  21  36  53  78 110 148 189 231 277 324
#     4  12  22  36  56  78 110 152 196 232 278 316
#     4  10  21  36  55  81 115 147 179 223 278 330
#     4  11  23  37  55  79 110 150 194 235 278 323
#     4   9  20  39  59  82 112 143 175 220 277 332
#     4  10  20  35  56  81 109 147 186 224 269 323
#     4  10  20  35  60  88 109 138 180 223 271 327
#
# _framework density 9.9451300000000007
#
# number of rings (size 3 to 8) (size 9 to 14) (size 15 to 20)
#    0.000    1.793    1.379    3.103    0.000    4.414 
#    0.000    0.690    0.000    0.000    0.000    0.000 
#    0.000    0.000    0.000    0.000    0.000    0.000 
#
# Total GULP energy -322876.705820 kJ/mol
# GULP energy per Si atom -5566.839756 kJ/mol
# Density = 0.992249 g / cm^3
# Si number density = 9.945130 Si / 1000 Ang^3
#
#
#
# Elastic Constant Matrix: (Units=GPa)
#
#
# Indices 1 2 3 4 5 6 
#
# 1 10.2713 30.0757 3.3212 0.0000 0.0000 0.0000
# 2 30.0757 189.4231 49.1457 0.0000 0.0000 0.0000
# 3 3.3212 49.1457 -10.4740 0.0000 0.0000 0.0000
# 4 0.0000 0.0000 0.0000 21.8484 0.0000 0.0000
# 5 0.0000 0.0000 0.0000 0.0000 15.1533 0.0000
# 6 0.0000 0.0000 0.0000 0.0000 0.0000 7.1818
#
#
#
# Elastic Compliance Matrix: (Units=1/GPa)
#
#
# Indices 1 2 3 4 5 6 
#
# 1 0.157209 -0.017090 -0.030338 0.000000 0.000000 0.000000
# 2 -0.017090 0.004239 0.014469 0.000000 0.000000 0.000000
# 3 -0.030338 0.014469 -0.037203 0.000000 0.000000 0.000000
# 4 0.000000 0.000000 0.000000 0.045770 0.000000 0.000000
# 5 0.000000 0.000000 0.000000 0.000000 0.065992 0.000000
# 6 0.000000 0.000000 0.000000 0.000000 0.000000 0.139242
#
#
# Mechanical properties :
#
#
# Convention : Reuss Voigt Hill
#
# Bulk Modulus (GPa) = 17.14461 39.36727 28.25594
# Shear Modulus (GPa) = 10.85520 15.94857 13.40189
#
# Velocity S-wave (km/s) = 2.33867 2.83473 2.59857
# Velocity P-wave (km/s) = 3.99135 5.52716 4.82080
#
# Compressibility (1/GPa) = 0.05832736
#
# Stress axis : x y z
#
# Youngs Moduli (GPa) = 6.36096 235.92814 -26.87973
#
# Poissons Ratio (x) = 4.03193 -0.81548
# Poissons Ratio (y) = 0.10871 0.38893
# Poissons Ratio (z) = 0.19298 -3.41369
#
# Static dielectric constant tensor:
#      x y z
#    x 1.716780 0.000000 0.000000 
#    y 0.000000 1.819290 0.000000 
#    z 0.000000 0.000000 1.679040 
# 
# From -- ./inp_files/7561.got.cif
#   From: 2010.05.17/outbox.ucp.g08.bks.cvg/sg72_4_cif.got.tgz:7561.got - 2010.06.11 16:33:07.
