data_PCOD9529721
_publ_section_title
;
Structure prediction by ZEFSAII (Michael W. Deem and Ramdas Pophale) SiO2 
 PCOD9529721
Probable space group: I B C A 
;
_chemical_formula_sum "Si O2"
_cell_formula_units_Z 96
_cell_length_a 19.149748
_cell_length_b 17.134743
_cell_length_c 12.546231
_cell_angle_alpha 90.000000
_cell_angle_beta 90.000000
_cell_angle_gamma 90.000000
_cell_volume 4116.744725
_symmetry_space_group_name_H-M "I B C A "
_symmetry_group_IT_number 73
_symmetry_cell_setting 'orthorhombic'
loop_
_space_group_symop_operation_xyz
x,y,z
-x,1/2-y,z
x,-y,1/2-z
1/2-x,y,-z
-x,-y,-z
x,1/2+y,-z
-x,y,1/2+z
1/2+x,-y,z
1/2+x,1/2+y,1/2+z
1/2-x,-y,1/2+z
1/2+x,1/2-y,-z
-x,1/2+y,1/2-z
1/2-x,1/2-y,1/2-z
1/2+x,y,1/2-z
1/2-x,1/2+y,z
x,1/2-y,1/2+z
loop_
_atom_site_type_symbol
_atom_site_label
_atom_site_fract_x
_atom_site_fract_y
_atom_site_fract_z
Si Si1 0.199898 0.779865 0.079967
Si Si2 0.736537 0.609679 0.617970
Si Si3 0.890629 0.849114 0.766679
Si Si4 0.917586 0.703053 0.910992
Si Si5 0.496173 0.158211 0.104465
Si Si6 0.376357 0.585404 0.771663
O O1 0.243339 0.702518 0.109900
O O2 0.168828 0.816139 0.186057
O O3 0.250000 0.828287 0.000000
O O4 0.133482 0.766751 0.004238
O O5 0.750000 0.577521 0.500000
O O6 0.657083 0.599017 0.655640
O O7 0.795847 0.578989 0.696054
O O8 0.924688 0.778907 0.835329
O O9 0.949657 0.881807 0.687472
O O10 0.885688 0.639563 0.831375
O O11 0.977361 0.660232 0.982321
O O12 0.500000 0.250000 0.132679
O O13 0.420791 0.124579 0.132729
O O14 0.405074 0.500000 0.750000
#
# Coordination Sequence:
#
# PCOD9529721 Si02
#       6
#    16  16  16  16  16  16
#     4  10  17  30  60  99 127 153 204 277 336 386
#     4  11  21  38  68 100 129 166 222 280 347 402
#     4  11  20  37  64 105 130 162 216 295 340 390
#     4  11  21  37  63  93 129 165 216 277 337 394
#     4  11  25  40  68 104 130 172 237 282 340 404
#     4  12  27  47  64  91 142 190 221 276 353 421
#
# _framework density 23.319396000000001
#
# number of rings (size 3 to 8) (size 9 to 14) (size 15 to 20)
#    0.000    1.000    6.667    2.500    2.333    0.667 
#    0.000    5.000    0.000    0.000    0.000    0.000 
#    0.000    0.000    0.000    0.000    0.000    0.000 
#
# Total GULP energy -267928.419905 kJ/mol
# GULP energy per Si atom -5581.842081 kJ/mol
# Density = 2.326632 g / cm^3
# Si number density = 23.319396 Si / 1000 Ang^3
#
#
#
# Elastic Constant Matrix: (Units=GPa)
#
#
# Indices 1 2 3 4 5 6 
#
# 1 93.7516 20.8756 43.3354 0.0000 0.0000 0.0000
# 2 20.8756 41.1737 20.0443 0.0000 0.0000 0.0000
# 3 43.3354 20.0443 156.5893 0.0000 0.0000 0.0000
# 4 0.0000 0.0000 0.0000 1.6460 0.0000 0.0000
# 5 0.0000 0.0000 0.0000 0.0000 71.2990 0.0000
# 6 0.0000 0.0000 0.0000 0.0000 0.0000 10.4087
#
#
#
# Elastic Compliance Matrix: (Units=1/GPa)
#
#
# Indices 1 2 3 4 5 6 
#
# 1 0.013215 -0.005247 -0.002986 0.000000 0.000000 0.000000
# 2 -0.005247 0.027985 -0.002130 0.000000 0.000000 0.000000
# 3 -0.002986 -0.002130 0.007485 0.000000 0.000000 0.000000
# 4 0.000000 0.000000 0.000000 0.607540 0.000000 0.000000
# 5 0.000000 0.000000 0.000000 0.000000 0.014025 0.000000
# 6 0.000000 0.000000 0.000000 0.000000 0.000000 0.096074
#
#
# Mechanical properties :
#
#
# Convention : Reuss Voigt Hill
#
# Bulk Modulus (GPa) = 35.76589 51.11391 43.43990
# Shear Modulus (GPa) = 6.27850 30.48802 18.38326
#
# Velocity S-wave (km/s) = 1.64263 3.61974 2.81076
# Velocity P-wave (km/s) = 4.35527 6.27986 5.40393
#
# Compressibility (1/GPa) = 0.02795960
#
# Stress axis : x y z
#
# Youngs Moduli (GPa) = 75.67293 35.73405 133.59978
#
# Poissons Ratio (x) = 0.18748 0.39887
# Poissons Ratio (y) = 0.39703 0.28459
# Poissons Ratio (z) = 0.22592 0.07612
#
# Static dielectric constant tensor:
#      x y z
#    x 1.998150 0.000000 0.000000 
#    y 0.000000 1.870890 0.000000 
#    z 0.000000 0.000000 1.939080 
# 
# From -- ./inp_files/12858.got.cif
#   From: 2010.05.17/outbox.cif.g08.bks.cpg/sg73_7_cif.got.tgz:12858.got - 2010.06.03 17:35:07.
