data_PCOD9529805
_publ_section_title
;
Structure prediction by ZEFSAII (Michael W. Deem and Ramdas Pophale) SiO2 
 PCOD9529805
Probable space group: I B C A 
;
_chemical_formula_sum "Si O2"
_cell_formula_units_Z 80
_cell_length_a 12.522960
_cell_length_b 17.507298
_cell_length_c 16.083000
_cell_angle_alpha 90.000000
_cell_angle_beta 90.000000
_cell_angle_gamma 90.000000
_cell_volume 3526.088266
_symmetry_space_group_name_H-M "I B C A "
_symmetry_group_IT_number 73
_symmetry_cell_setting 'orthorhombic'
loop_
_space_group_symop_operation_xyz
x,y,z
-x,1/2-y,z
x,-y,1/2-z
1/2-x,y,-z
-x,-y,-z
x,1/2+y,-z
-x,y,1/2+z
1/2+x,-y,z
1/2+x,1/2+y,1/2+z
1/2-x,-y,1/2+z
1/2+x,1/2-y,-z
-x,1/2+y,1/2-z
1/2-x,1/2-y,1/2-z
1/2+x,y,1/2-z
1/2-x,1/2+y,z
x,1/2-y,1/2+z
loop_
_atom_site_type_symbol
_atom_site_label
_atom_site_fract_x
_atom_site_fract_y
_atom_site_fract_z
Si Si1 0.708388 0.365504 0.848490
Si Si2 0.122482 0.000000 0.250000
Si Si3 0.914275 0.573473 0.086586
Si Si4 0.488431 0.337442 0.940003
Si Si5 0.243546 0.796023 0.901988
Si Si6 0.250000 0.539757 0.000000
O O1 0.696870 0.428470 0.776945
O O2 0.749229 0.278641 0.844156
O O3 0.773453 0.406351 0.921952
O O4 0.585827 0.354572 0.879477
O O5 0.055190 0.970540 0.170640
O O6 0.994061 0.607852 0.019309
O O7 0.838984 0.645135 0.110866
O O8 0.841589 0.515569 0.033740
O O9 0.500000 0.250000 0.968791
O O10 0.371404 0.338683 0.897187
O O11 0.250000 0.771563 0.000000
#
# Coordination Sequence:
#
# PCOD9529805 Si02
#       6
#    16   8  16  16  16   8
#     4  10  20  35  56  84 112 145 186 224 279 326
#     4  10  24  34  50  82 124 148 166 228 292 324
#     4  10  19  38  56  82 114 143 184 228 277 327
#     4   9  18  34  62  85  99 143 197 232 261 318
#     4   9  16  34  62  84 103 142 196 231 258 326
#     4  10  18  30  56  78 112 144 178 224 272 324
#
# _framework density 22.688030999999999
#
# number of rings (size 3 to 8) (size 9 to 14) (size 15 to 20)
#    0.000    2.400    4.000    0.000    0.000    4.000 
#    0.000    4.000    4.400    0.000    0.000    0.000 
#    0.000    0.000    0.000    0.000    0.000    0.000 
#
# Total GULP energy -223201.250715 kJ/mol
# GULP energy per Si atom -5580.031268 kJ/mol
# Density = 2.263639 g / cm^3
# Si number density = 22.688031 Si / 1000 Ang^3
#
#
#
# Elastic Constant Matrix: (Units=GPa)
#
#
# Indices 1 2 3 4 5 6 
#
# 1 54.1292 17.7377 -15.9212 0.0000 0.0000 0.0000
# 2 17.7377 141.0937 34.9883 0.0000 0.0000 0.0000
# 3 -15.9212 34.9883 77.0369 0.0000 0.0000 0.0000
# 4 0.0000 0.0000 0.0000 -369.4409 0.0000 0.0000
# 5 0.0000 0.0000 0.0000 0.0000 10.1780 0.0000
# 6 0.0000 0.0000 0.0000 0.0000 0.0000 27.9805
#
#
#
# Elastic Compliance Matrix: (Units=1/GPa)
#
#
# Indices 1 2 3 4 5 6 
#
# 1 0.021806 -0.004349 0.006482 0.000000 0.000000 0.000000
# 2 -0.004349 0.008854 -0.004920 0.000000 0.000000 0.000000
# 3 0.006482 -0.004920 0.016555 0.000000 0.000000 0.000000
# 4 0.000000 0.000000 0.000000 -0.002707 0.000000 0.000000
# 5 0.000000 0.000000 0.000000 0.000000 0.098251 0.000000
# 6 0.000000 0.000000 0.000000 0.000000 0.000000 0.035739
#
#
# Mechanical properties :
#
#
# Convention : Reuss Voigt Hill
#
# Bulk Modulus (GPa) = 24.01494 38.42993 31.22243
# Shear Modulus (GPa) = 25.25857 -50.55945 -12.65044
#
# Velocity S-wave (km/s) = 3.34023 -4.72578 -2.36388
# Velocity P-wave (km/s) = 5.04817 3.57801 2.51812
#
# Compressibility (1/GPa) = 0.04164075
#
# Stress axis : x y z
#
# Youngs Moduli (GPa) = 45.85941 112.93991 60.40490
#
# Poissons Ratio (x) = 0.49113 -0.39152
# Poissons Ratio (y) = 0.19943 0.29720
# Poissons Ratio (z) = -0.29724 0.55568
#
# Static dielectric constant tensor:
#      x y z
#    x 1.876140 0.000000 0.000000 
#    y 0.000000 1.874860 0.000000 
#    z 0.000000 0.000000 1.887910 
# 
# From -- ./inp_files/21897.got.cif
#   From: 2010.05.17/outbox.cif.g08.bks.cpg/sg73_11_cif.got.tgz:21897.got - 2010.06.03 17:35:07.
