data_PCOD9529881
_publ_section_title
;
Structure prediction by ZEFSAII (Michael W. Deem and Ramdas Pophale) SiO2 
 PCOD9529881
Probable space group: I B C A 
;
_chemical_formula_sum "Si O2"
_cell_formula_units_Z 80
_cell_length_a 12.637857
_cell_length_b 14.184521
_cell_length_c 21.156361
_cell_angle_alpha 90.000000
_cell_angle_beta 90.000000
_cell_angle_gamma 90.000000
_cell_volume 3792.530486
_symmetry_space_group_name_H-M "I B C A "
_symmetry_group_IT_number 73
_symmetry_cell_setting 'orthorhombic'
loop_
_space_group_symop_operation_xyz
x,y,z
-x,1/2-y,z
x,-y,1/2-z
1/2-x,y,-z
-x,-y,-z
x,1/2+y,-z
-x,y,1/2+z
1/2+x,-y,z
1/2+x,1/2+y,1/2+z
1/2-x,-y,1/2+z
1/2+x,1/2-y,-z
-x,1/2+y,1/2-z
1/2-x,1/2-y,1/2-z
1/2+x,y,1/2-z
1/2-x,1/2+y,z
x,1/2-y,1/2+z
loop_
_atom_site_type_symbol
_atom_site_label
_atom_site_fract_x
_atom_site_fract_y
_atom_site_fract_z
Si Si1 0.279876 0.542819 0.682270
Si Si2 0.000000 0.250000 0.294281
Si Si3 0.250000 0.910847 0.500000
Si Si4 0.598909 0.479882 0.594226
Si Si5 0.110365 0.628729 0.107461
Si Si6 0.505749 0.648041 0.174184
O O1 0.250834 0.500000 0.750000
O O2 0.180704 0.572522 0.640495
O O3 0.333618 0.457412 0.643456
O O4 0.372826 0.619208 0.686418
O O5 0.086563 0.293368 0.340469
O O6 0.960865 0.330002 0.244631
O O7 0.336039 0.977548 0.535379
O O8 0.311669 0.847943 0.449321
O O9 0.500761 0.411498 0.580583
O O10 0.553249 0.567990 0.635160
O O11 0.500000 0.750000 0.141027
#
# Coordination Sequence:
#
# PCOD9529881 Si02
#       6
#    16   8   8  16  16  16
#     4  10  18  33  58  92 120 161 202 241 319 381
#     4  10  20  38  58  96 128 154 202 264 320 372
#     4  10  22  44  60  86 116 168 224 250 296 380
#     4  10  22  37  66  88 121 164 210 258 312 372
#     4  10  21  40  61  86 125 167 202 262 307 368
#     4   9  20  38  59  89 134 157 197 260 322 370
#
# _framework density 21.094094999999999
#
# number of rings (size 3 to 8) (size 9 to 14) (size 15 to 20)
#    0.600    1.600    2.000    0.600    2.800    0.000 
#    9.000    7.000    0.000    0.000    0.000    0.000 
#    0.000    0.000    0.000    0.000    0.000    0.000 
#
# Total GULP energy -223156.258293 kJ/mol
# GULP energy per Si atom -5578.906457 kJ/mol
# Density = 2.104608 g / cm^3
# Si number density = 21.094095 Si / 1000 Ang^3
#
#
#
# Elastic Constant Matrix: (Units=GPa)
#
#
# Indices 1 2 3 4 5 6 
#
# 1 82.5219 14.5152 34.4274 0.0000 0.0000 0.0000
# 2 14.5152 55.2700 9.3421 0.0000 0.0000 0.0000
# 3 34.4274 9.3421 84.8923 0.0000 0.0000 0.0000
# 4 0.0000 0.0000 0.0000 11.6189 0.0000 0.0000
# 5 0.0000 0.0000 0.0000 0.0000 48.3627 0.0000
# 6 0.0000 0.0000 0.0000 0.0000 0.0000 8.8540
#
#
#
# Elastic Compliance Matrix: (Units=1/GPa)
#
#
# Indices 1 2 3 4 5 6 
#
# 1 0.015051 -0.002976 -0.005776 0.000000 0.000000 0.000000
# 2 -0.002976 0.019025 -0.000886 0.000000 0.000000 0.000000
# 3 -0.005776 -0.000886 0.014220 0.000000 0.000000 0.000000
# 4 0.000000 0.000000 0.000000 0.086066 0.000000 0.000000
# 5 0.000000 0.000000 0.000000 0.000000 0.020677 0.000000
# 6 0.000000 0.000000 0.000000 0.000000 0.000000 0.112944
#
#
# Mechanical properties :
#
#
# Convention : Reuss Voigt Hill
#
# Bulk Modulus (GPa) = 34.46266 37.69484 36.07875
# Shear Modulus (GPa) = 16.83875 24.72708 20.78292
#
# Velocity S-wave (km/s) = 2.82843 3.42750 3.14227
# Velocity P-wave (km/s) = 5.19997 5.79416 5.50509
#
# Compressibility (1/GPa) = 0.02901691
#
# Stress axis : x y z
#
# Youngs Moduli (GPa) = 66.43890 52.56370 70.32465
#
# Poissons Ratio (x) = 0.15646 0.40623
# Poissons Ratio (y) = 0.19775 0.06234
# Poissons Ratio (z) = 0.38378 0.04660
#
# Static dielectric constant tensor:
#      x y z
#    x 1.801170 0.000000 0.000000 
#    y 0.000000 1.758530 0.000000 
#    z 0.000000 0.000000 1.773570 
# 
# From -- ./inp_files/18530.got.cif
#   From: 2010.05.17/outbox.cif.g08.bks.cpg/sg73_10_cif.got.tgz:18530.got - 2010.06.03 17:35:07.
