data_PCOD9529845
_publ_section_title
;
Structure prediction by ZEFSAII (Michael W. Deem and Ramdas Pophale) SiO2 
 PCOD9529845
Probable space group: I B C A 
;
_chemical_formula_sum "Si O2"
_cell_formula_units_Z 120
_cell_length_a 14.437800
_cell_length_b 17.690109
_cell_length_c 21.811747
_cell_angle_alpha 90.000000
_cell_angle_beta 90.000000
_cell_angle_gamma 90.000000
_cell_volume 5570.856632
_symmetry_space_group_name_H-M "I B C A "
_symmetry_group_IT_number 73
_symmetry_cell_setting 'orthorhombic'
loop_
_space_group_symop_operation_xyz
x,y,z
-x,1/2-y,z
x,-y,1/2-z
1/2-x,y,-z
-x,-y,-z
x,1/2+y,-z
-x,y,1/2+z
1/2+x,-y,z
1/2+x,1/2+y,1/2+z
1/2-x,-y,1/2+z
1/2+x,1/2-y,-z
-x,1/2+y,1/2-z
1/2-x,1/2-y,1/2-z
1/2+x,y,1/2-z
1/2-x,1/2+y,z
x,1/2-y,1/2+z
loop_
_atom_site_type_symbol
_atom_site_label
_atom_site_fract_x
_atom_site_fract_y
_atom_site_fract_z
Si Si1 0.734899 0.169823 0.876502
Si Si2 0.014773 0.352100 0.993765
Si Si3 0.558972 0.853909 0.365440
Si Si4 0.654752 0.719097 0.538651
Si Si5 0.919815 0.532689 0.656320
Si Si6 0.627204 0.119358 0.772320
Si Si7 0.500000 0.750000 0.258155
Si Si8 0.658629 0.964673 0.538925
O O1 0.841187 0.160685 0.892311
O O2 0.691195 0.249802 0.895968
O O3 0.719765 0.145195 0.806418
O O4 0.687928 0.106386 0.918725
O O5 0.991280 0.336304 0.922440
O O6 0.087119 0.286645 0.014392
O O7 0.072220 0.430318 0.000656
O O8 0.919374 0.349035 0.032856
O O9 0.525029 0.937332 0.347146
O O10 0.555179 0.802492 0.305737
O O11 0.750000 0.709905 0.500000
O O12 0.911974 0.452416 0.690382
O O13 0.869667 0.593087 0.701705
O O14 0.875274 0.525038 0.589199
O O15 0.561277 0.191641 0.779077
O O16 0.750000 0.986020 0.500000
#
# Coordination Sequence:
#
# PCOD9529845 Si02
#       8
#    16  16  16  16  16  16   8  16
#     4  10  19  34  62  87 121 162 219 253 318 385
#     4  10  19  32  58  88 128 167 204 258 323 385
#     4  11  20  37  60  90 116 174 209 263 324 395
#     4  10  18  32  55  92 128 168 204 253 314 387
#     4   9  21  38  62  83 123 165 215 265 327 372
#     4   9  20  41  59  87 119 163 212 274 315 386
#     4  10  22  36  62  84 122 160 208 262 338 378
#     4  10  18  37  60  88 122 167 210 260 325 398
#
# _framework density 21.540673000000002
#
# number of rings (size 3 to 8) (size 9 to 14) (size 15 to 20)
#    0.000    2.133    2.667    1.600    0.000    4.267 
#    0.000   11.333    2.933    0.000    0.000    0.000 
#    0.000    0.000    0.000    0.000    0.000    0.000 
#
# Total GULP energy -334078.186754 kJ/mol
# GULP energy per Si atom -5567.969779 kJ/mol
# Density = 2.149165 g / cm^3
# Si number density = 21.540673 Si / 1000 Ang^3
#
#
#
# Elastic Constant Matrix: (Units=GPa)
#
#
# Indices 1 2 3 4 5 6 
#
# 1 111.2212 40.0172 28.1171 0.0000 0.0000 0.0000
# 2 40.0172 64.7504 20.0239 0.0000 0.0000 0.0000
# 3 28.1171 20.0239 69.8920 0.0000 0.0000 0.0000
# 4 0.0000 0.0000 0.0000 0.7284 0.0000 0.0000
# 5 0.0000 0.0000 0.0000 0.0000 31.8855 0.0000
# 6 0.0000 0.0000 0.0000 0.0000 0.0000 10.1609
#
#
#
# Elastic Compliance Matrix: (Units=1/GPa)
#
#
# Indices 1 2 3 4 5 6 
#
# 1 0.012107 -0.006557 -0.002992 0.000000 0.000000 0.000000
# 2 -0.006557 0.020496 -0.003234 0.000000 0.000000 0.000000
# 3 -0.002992 -0.003234 0.016438 0.000000 0.000000 0.000000
# 4 0.000000 0.000000 0.000000 1.372861 0.000000 0.000000
# 5 0.000000 0.000000 0.000000 0.000000 0.031362 0.000000
# 6 0.000000 0.000000 0.000000 0.000000 0.000000 0.098417
#
#
# Mechanical properties :
#
#
# Convention : Reuss Voigt Hill
#
# Bulk Modulus (GPa) = 42.59893 46.90889 44.75391
# Shear Modulus (GPa) = 3.15443 19.06867 11.11155
#
# Velocity S-wave (km/s) = 1.21144 2.97853 2.27368
# Velocity P-wave (km/s) = 4.66645 5.80112 5.26444
#
# Compressibility (1/GPa) = 0.02347477
#
# Stress axis : x y z
#
# Youngs Moduli (GPa) = 82.59949 48.78891 60.83450
#
# Poissons Ratio (x) = 0.31991 0.18201
# Poissons Ratio (y) = 0.54160 0.19676
# Poissons Ratio (z) = 0.24713 0.15780
#
# Static dielectric constant tensor:
#      x y z
#    x 1.848750 0.000000 0.000000 
#    y 0.000000 1.838600 0.000000 
#    z 0.000000 0.000000 1.848100 
# 
# From -- ./inp_files/29638.got.cif
#   From: 2010.05.17/outbox.cif.g08.bks.cpg/sg73_15_cif.got.tgz:29638.got - 2010.06.03 17:35:07.
