data_PCOD9529898
_publ_section_title
;
Structure prediction by ZEFSAII (Michael W. Deem and Ramdas Pophale) SiO2 
 PCOD9529898
Probable space group: I B C A 
;
_chemical_formula_sum "Si O2"
_cell_formula_units_Z 88
_cell_length_a 15.265645
_cell_length_b 14.847053
_cell_length_c 20.619015
_cell_angle_alpha 90.000000
_cell_angle_beta 90.000000
_cell_angle_gamma 90.000000
_cell_volume 4673.296459
_symmetry_space_group_name_H-M "I B C A "
_symmetry_group_IT_number 73
_symmetry_cell_setting 'orthorhombic'
loop_
_space_group_symop_operation_xyz
x,y,z
-x,1/2-y,z
x,-y,1/2-z
1/2-x,y,-z
-x,-y,-z
x,1/2+y,-z
-x,y,1/2+z
1/2+x,-y,z
1/2+x,1/2+y,1/2+z
1/2-x,-y,1/2+z
1/2+x,1/2-y,-z
-x,1/2+y,1/2-z
1/2-x,1/2-y,1/2-z
1/2+x,y,1/2-z
1/2-x,1/2+y,z
x,1/2-y,1/2+z
loop_
_atom_site_type_symbol
_atom_site_label
_atom_site_fract_x
_atom_site_fract_y
_atom_site_fract_z
Si Si1 0.398513 0.377218 0.314322
Si Si2 0.150515 0.725259 0.231993
Si Si3 0.708246 0.089426 0.637776
Si Si4 0.406147 0.736742 0.565235
Si Si5 0.087353 0.080081 0.662520
Si Si6 0.250000 0.163294 0.000000
O O1 0.401463 0.316702 0.248878
O O2 0.302666 0.419615 0.325605
O O3 0.405881 0.303116 0.371993
O O4 0.484369 0.437640 0.323644
O O5 0.250000 0.750000 0.250000
O O6 0.160036 0.680855 0.161931
O O7 0.118520 0.646110 0.279802
O O8 0.726569 0.102004 0.561861
O O9 0.646676 0.007080 0.656568
O O10 0.500000 0.750000 0.532444
O O11 0.400584 0.637952 0.596388
O O12 0.328891 0.771550 0.520870
#
# Coordination Sequence:
#
# PCOD9529898 Si02
#       6
#    16  16  16  16  16   8
#     4   8  17  35  56  74 104 147 178 215 281 347
#     4   9  17  33  55  76 102 138 176 216 271 339
#     4  10  20  34  53  82 112 143 186 236 275 326
#     4   8  16  33  54  71  97 142 185 218 273 341
#     4  10  18  34  57  80 105 140 185 235 285 331
#     4  10  20  36  52  74 112 150 186 230 274 330
#
# _framework density 18.830390000000001
#
# number of rings (size 3 to 8) (size 9 to 14) (size 15 to 20)
#    0.000    2.909    0.000    3.273    0.000    0.727 
#    0.000   20.909    0.000    0.000    0.000    0.000 
#    0.000    0.000    0.000    1.091    0.000    0.000 
#
# Total GULP energy -245089.973657 kJ/mol
# GULP energy per Si atom -5570.226674 kJ/mol
# Density = 1.878753 g / cm^3
# Si number density = 18.830390 Si / 1000 Ang^3
#
#
#
# Elastic Constant Matrix: (Units=GPa)
#
#
# Indices 1 2 3 4 5 6 
#
# 1 146.8204 58.1709 26.3133 0.0000 0.0000 0.0000
# 2 58.1709 70.1254 18.4091 0.0000 0.0000 0.0000
# 3 26.3133 18.4091 67.3436 0.0000 0.0000 0.0000
# 4 0.0000 0.0000 0.0000 14.0309 0.0000 0.0000
# 5 0.0000 0.0000 0.0000 0.0000 25.4086 0.0000
# 6 0.0000 0.0000 0.0000 0.0000 0.0000 36.8170
#
#
#
# Elastic Compliance Matrix: (Units=1/GPa)
#
#
# Indices 1 2 3 4 5 6 
#
# 1 0.010350 -0.008106 -0.001828 0.000000 0.000000 0.000000
# 2 -0.008106 0.021711 -0.002768 0.000000 0.000000 0.000000
# 3 -0.001828 -0.002768 0.016320 0.000000 0.000000 0.000000
# 4 0.000000 0.000000 0.000000 0.071271 0.000000 0.000000
# 5 0.000000 0.000000 0.000000 0.000000 0.039357 0.000000
# 6 0.000000 0.000000 0.000000 0.000000 0.000000 0.027161
#
#
# Mechanical properties :
#
#
# Convention : Reuss Voigt Hill
#
# Bulk Modulus (GPa) = 43.52086 54.45287 48.98686
# Shear Modulus (GPa) = 22.80672 27.34437 25.07555
#
# Velocity S-wave (km/s) = 3.48396 3.81483 3.65314
# Velocity P-wave (km/s) = 6.27265 6.95588 6.62308
#
# Compressibility (1/GPa) = 0.02297749
#
# Stress axis : x y z
#
# Youngs Moduli (GPa) = 96.61553 46.06012 61.27378
#
# Poissons Ratio (x) = 0.37336 0.11203
# Poissons Ratio (y) = 0.78315 0.16958
# Poissons Ratio (z) = 0.17665 0.12748
#
# Static dielectric constant tensor:
#      x y z
#    x 1.701090 0.000000 0.000000 
#    y 0.000000 1.658990 0.000000 
#    z 0.000000 0.000000 1.662300 
# 
# From -- ./inp_files/17176.got.cif
#   From: 2010.05.17/outbox.cif.g08.bks.cpg/sg73_9_cif.got.tgz:17176.got - 2010.06.03 17:35:07.
