data_PCOD9529563
_publ_section_title
;
Structure prediction by ZEFSAII (Michael W. Deem and Ramdas Pophale) SiO2 
 PCOD9529563
Probable space group: I B A M
;
_chemical_formula_sum "Si O2"
_cell_formula_units_Z 48
_cell_length_a 18.000000
_cell_length_b 18.000000
_cell_length_c 18.000000
_cell_angle_alpha 90.000000
_cell_angle_beta 90.000000
_cell_angle_gamma 90.000000
_cell_volume 5832.000000
_symmetry_space_group_name_H-M "I B A M"
_symmetry_group_IT_number 72
_symmetry_cell_setting 'orthorhombic'
loop_
_space_group_symop_operation_xyz
x,y,z
-x,-y,z
x,-y,1/2-z
-x,y,1/2-z
-x,-y,-z
x,y,-z
-x,y,1/2+z
x,-y,1/2+z
1/2+x,1/2+y,1/2+z
1/2-x,1/2-y,1/2+z
1/2+x,1/2-y,-z
1/2-x,1/2+y,-z
1/2-x,1/2-y,1/2-z
1/2+x,1/2+y,1/2-z
1/2-x,1/2+y,z
1/2+x,1/2-y,z
loop_
_atom_site_type_symbol
_atom_site_label
_atom_site_fract_x
_atom_site_fract_y
_atom_site_fract_z
Si Si1 0.269072 0.815850 0.087613
Si Si2 0.784568 0.410579 0.264571
Si Si3 0.344457 0.317527 0.678748
Si Si4 0.012415 0.086775 0.839019
Si Si5 0.591799 0.291454 0.585731
Si Si6 0.418637 0.189576 0.219075
O O1 0.284993 0.881375 0.148846
O O2 0.307131 0.739628 0.119310
O O3 0.180153 0.804996 0.089599
O O4 0.289562 0.829122 0.000000
O O5 0.777757 0.500000 0.250000
O O6 0.717736 0.365341 0.223081
O O7 0.860645 0.377201 0.230092
O O8 0.406532 0.375236 0.648038
O O9 0.385544 0.260608 0.735370
O O10 0.000000 0.090400 0.750000
O O11 0.952644 0.139218 0.879341
O O12 0.000000 0.000000 0.860382
O O13 0.570401 0.282203 0.500000
O O14 0.574794 0.219299 0.635319
O O15 0.500000 0.171929 0.250000
#
# Coordination Sequence:
#
# PCOD9529563 Si02
#       6
#    16  16  16  16  16  16
#     4  10  21  38  59  85 115 151 194 243 284 334
#     4  11  23  37  61  88 115 154 195 238 288 349
#     4  11  19  36  61  83 114 149 199 230 276 352
#     4  11  22  34  56  87 119 152 183 231 289 353
#     4  11  20  36  56  81 115 150 188 234 286 336
#     4  11  19  39  60  82 109 148 200 240 274 337
#
# _framework density 8.2304530000000007
#
# number of rings (size 3 to 8) (size 9 to 14) (size 15 to 20)
#    0.000    1.167    6.667    1.000    4.667    1.333 
#    0.000    1.667    0.000    0.000    0.000    3.500 
#    0.000    0.000    0.000    0.000    0.000    0.000 
#
# Total GULP energy -267756.922802 kJ/mol
# GULP energy per Si atom -5578.269225 kJ/mol
# Density = 0.821172 g / cm^3
# Si number density = 8.230453 Si / 1000 Ang^3
#
#
#
# Elastic Constant Matrix: (Units=GPa)
#
#
# Indices 1 2 3 4 5 6 
#
# 1 113.8425 50.0076 30.4343 0.0000 0.0000 0.0000
# 2 50.0076 120.7778 44.3978 0.0000 0.0000 0.0000
# 3 30.4343 44.3978 123.1176 0.0000 0.0000 0.0000
# 4 0.0000 0.0000 0.0000 20.7635 0.0000 0.0000
# 5 0.0000 0.0000 0.0000 0.0000 23.6124 0.0000
# 6 0.0000 0.0000 0.0000 0.0000 0.0000 31.1328
#
#
#
# Elastic Compliance Matrix: (Units=1/GPa)
#
#
# Indices 1 2 3 4 5 6 
#
# 1 0.010896 -0.004059 -0.001230 0.000000 0.000000 0.000000
# 2 -0.004059 0.011057 -0.002984 0.000000 0.000000 0.000000
# 3 -0.001230 -0.002984 0.009502 0.000000 0.000000 0.000000
# 4 0.000000 0.000000 0.000000 0.048161 0.000000 0.000000
# 5 0.000000 0.000000 0.000000 0.000000 0.042351 0.000000
# 6 0.000000 0.000000 0.000000 0.000000 0.000000 0.032120
#
#
# Mechanical properties :
#
#
# Convention : Reuss Voigt Hill
#
# Bulk Modulus (GPa) = 67.07031 67.49083 67.28057
# Shear Modulus (GPa) = 28.47317 30.62829 29.55073
#
# Velocity S-wave (km/s) = 4.16353 4.31823 4.24158
# Velocity P-wave (km/s) = 7.99669 8.12111 8.05914
#
# Compressibility (1/GPa) = 0.01490973
#
# Stress axis : x y z
#
# Youngs Moduli (GPa) = 91.77703 90.43746 105.23755
#
# Poissons Ratio (x) = 0.36713 0.12940
# Poissons Ratio (y) = 0.37256 0.31402
# Poissons Ratio (z) = 0.11285 0.26986
#
# Static dielectric constant tensor:
#      x y z
#    x 1.567690 0.000000 0.000000 
#    y 0.000000 1.536390 0.000000 
#    z 0.000000 0.000000 1.576310 
# 
# From -- ./inp_files/31590.got.cif
#   From: 2010.05.17/outbox.ucp.g08.bks.cvg/sg72_16_cif.got.tgz:31590.got - 2010.06.11 16:33:07.
