data_PCOD9529431
_publ_section_title
;
Structure prediction by ZEFSAII (Michael W. Deem and Ramdas Pophale) SiO2 
 PCOD9529431
Probable space group: I B A M
;
_chemical_formula_sum "Si O2"
_cell_formula_units_Z 44
_cell_length_a 5.488549
_cell_length_b 27.076824
_cell_length_c 14.249918
_cell_angle_alpha 90.000000
_cell_angle_beta 90.000000
_cell_angle_gamma 90.000000
_cell_volume 2117.715587
_symmetry_space_group_name_H-M "I B A M"
_symmetry_group_IT_number 72
_symmetry_cell_setting 'orthorhombic'
loop_
_space_group_symop_operation_xyz
x,y,z
-x,-y,z
x,-y,1/2-z
-x,y,1/2-z
-x,-y,-z
x,y,-z
-x,y,1/2+z
x,-y,1/2+z
1/2+x,1/2+y,1/2+z
1/2-x,1/2-y,1/2+z
1/2+x,1/2-y,-z
1/2-x,1/2+y,-z
1/2-x,1/2-y,1/2-z
1/2+x,1/2+y,1/2-z
1/2-x,1/2+y,z
1/2+x,1/2-y,z
loop_
_atom_site_type_symbol
_atom_site_label
_atom_site_fract_x
_atom_site_fract_y
_atom_site_fract_z
Si Si1 0.767944 0.630341 0.864144
Si Si2 0.000000 0.000000 0.750000
Si Si3 0.234769 0.091236 0.844538
Si Si4 0.827470 0.719149 0.000000
O O1 0.752607 0.624266 0.751222
O O2 0.504660 0.610762 0.896419
O O3 0.812134 0.683485 0.909024
O O4 0.003132 0.597464 0.890789
O O5 0.169300 0.036224 0.810834
O O6 0.586708 0.753190 0.000000
#
# Coordination Sequence:
#
# PCOD9529431 Si02
#       4
#    16   4  16   8
#     4   9  19  35  52  77 105 139 169 220 271 295
#     4   8  16  30  60  88 100 138 180 204 248 322
#     4   9  18  34  57  78 109 136 171 212 257 314
#     4  12  24  38  56  75 102 143 186 218 264 324
#
# _framework density 20.777106
#
# number of rings (size 3 to 8) (size 9 to 14) (size 15 to 20)
#    0.000    2.909    0.000    2.182    0.000   11.636 
#    0.000   21.818    0.000   36.000    0.000    0.000 
#    0.000    0.000    0.000    0.000    0.000    0.000 
#
# Total GULP energy -122478.503533 kJ/mol
# GULP energy per Si atom -5567.204706 kJ/mol
# Density = 2.072982 g / cm^3
# Si number density = 20.777106 Si / 1000 Ang^3
#
#
#
# Elastic Constant Matrix: (Units=GPa)
#
#
# Indices 1 2 3 4 5 6 
#
# 1 237.1096 56.9954 14.4947 0.0000 0.0000 0.0000
# 2 56.9954 125.0211 31.8331 0.0000 0.0000 0.0000
# 3 14.4947 31.8331 99.1299 0.0000 0.0000 -0.0001
# 4 0.0000 0.0000 0.0000 18.1433 0.0000 0.0000
# 5 0.0000 0.0000 0.0000 0.0000 -7.0162 0.0000
# 6 0.0000 0.0000 -0.0001 0.0000 0.0000 52.4440
#
#
#
# Elastic Compliance Matrix: (Units=1/GPa)
#
#
# Indices 1 2 3 4 5 6 
#
# 1 0.004737 -0.002160 0.000001 0.000000 0.000000 0.000000
# 2 -0.002160 0.009696 -0.002798 0.000000 0.000000 0.000000
# 3 0.000001 -0.002798 0.010986 0.000000 0.000000 0.000000
# 4 0.000000 0.000000 0.000000 0.055117 0.000000 0.000000
# 5 0.000000 0.000000 0.000000 0.000000 -0.142527 0.000000
# 6 0.000000 0.000000 0.000000 0.000000 0.000000 0.019068
#
#
# Mechanical properties :
#
#
# Convention : Reuss Voigt Hill
#
# Bulk Modulus (GPa) = 64.49360 74.21186 69.35273
# Shear Modulus (GPa) = -179.57604 36.57673 -71.49965
#
# Velocity S-wave (km/s) = -9.30685 4.20030 -5.87260
# Velocity P-wave (km/s) = 9.18595 7.70189 3.53997
#
# Compressibility (1/GPa) = 0.01550541
#
# Stress axis : x y z
#
# Youngs Moduli (GPa) = 211.12618 103.14057 91.02448
#
# Poissons Ratio (x) = 0.22274 -0.00008
# Poissons Ratio (y) = 0.45594 0.25466
# Poissons Ratio (z) = -0.00019 0.28856
#
# Static dielectric constant tensor:
#      x y z
#    x 1.828490 0.000000 0.000000 
#    y 0.000000 1.704290 0.000000 
#    z 0.000000 0.000000 1.670940 
# 
# From -- ./inp_files/17376.got.cif
#   From: 2010.05.17/outbox.cif.g08.bks.cpg/sg72_9_cif.got.tgz:17376.got - 2010.06.03 17:03:01.
