data_PCOD9529481
_publ_section_title
;
Structure prediction by ZEFSAII (Michael W. Deem and Ramdas Pophale) SiO2 
 PCOD9529481
Probable space group: I B A M
;
_chemical_formula_sum "Si O2"
_cell_formula_units_Z 96
_cell_length_a 26.441614
_cell_length_b 13.139162
_cell_length_c 17.637165
_cell_angle_alpha 90.000000
_cell_angle_beta 90.000000
_cell_angle_gamma 90.000000
_cell_volume 6127.515326
_symmetry_space_group_name_H-M "I B A M"
_symmetry_group_IT_number 72
_symmetry_cell_setting 'orthorhombic'
loop_
_space_group_symop_operation_xyz
x,y,z
-x,-y,z
x,-y,1/2-z
-x,y,1/2-z
-x,-y,-z
x,y,-z
-x,y,1/2+z
x,-y,1/2+z
1/2+x,1/2+y,1/2+z
1/2-x,1/2-y,1/2+z
1/2+x,1/2-y,-z
1/2-x,1/2+y,-z
1/2-x,1/2-y,1/2-z
1/2+x,1/2+y,1/2-z
1/2-x,1/2+y,z
1/2+x,1/2-y,z
loop_
_atom_site_type_symbol
_atom_site_label
_atom_site_fract_x
_atom_site_fract_y
_atom_site_fract_z
Si Si1 0.307366 0.223656 0.767646
Si Si2 0.396623 0.617750 0.268711
Si Si3 0.123631 0.429396 0.177699
Si Si4 0.940594 0.783099 0.413367
Si Si5 0.034918 0.274644 0.820794
Si Si6 0.149056 0.377955 0.586937
O O1 0.250000 0.250000 0.750000
O O2 0.343447 0.322640 0.765215
O O3 0.331585 0.143604 0.708008
O O4 0.314465 0.172856 0.850626
O O5 0.392469 0.500000 0.250000
O O6 0.419542 0.636745 0.352395
O O7 0.434436 0.677381 0.211711
O O8 0.110044 0.500000 0.250000
O O9 0.075899 0.359371 0.158587
O O10 0.139803 0.506076 0.111842
O O11 0.938516 0.817675 0.500000
O O12 0.903590 0.685021 0.405751
O O13 0.996741 0.753302 0.387547
O O14 0.000000 0.310089 0.750000
O O15 0.166010 0.369355 0.500000
#
# Coordination Sequence:
#
# PCOD9529481 Si02
#       6
#    16  16  16  16  16  16
#     4   9  18  33  53  72  91 120 159 199 236 282
#     4   9  18  32  49  68  92 123 160 199 233 269
#     4   9  17  29  46  70  97 124 155 192 232 276
#     4   9  18  31  47  69  96 126 157 189 229 275
#     4   9  17  28  43  67  97 127 160 193 223 265
#     4   9  18  32  49  71  98 123 150 190 239 285
#
# _framework density 15.667036
#
# number of rings (size 3 to 8) (size 9 to 14) (size 15 to 20)
#    0.000    3.000    0.000    3.000    0.000    8.000 
#    0.000    4.167    0.000    7.000    0.000    0.000 
#    0.000    0.000    0.000    0.000    0.000    0.000 
#
# Total GULP energy -267406.889778 kJ/mol
# GULP energy per Si atom -5570.976870 kJ/mol
# Density = 1.563138 g / cm^3
# Si number density = 15.667036 Si / 1000 Ang^3
#
#
#
# Elastic Constant Matrix: (Units=GPa)
#
#
# Indices 1 2 3 4 5 6 
#
# 1 120.4707 57.5398 55.1985 0.0000 0.0000 0.0000
# 2 57.5398 117.5597 57.0031 0.0000 0.0000 0.0000
# 3 55.1985 57.0031 96.1488 0.0000 0.0000 0.0000
# 4 0.0000 0.0000 0.0000 12.5410 0.0000 0.0000
# 5 0.0000 0.0000 0.0000 0.0000 12.3741 0.0000
# 6 0.0000 0.0000 0.0000 0.0000 0.0000 5.7693
#
#
#
# Elastic Compliance Matrix: (Units=1/GPa)
#
#
# Indices 1 2 3 4 5 6 
#
# 1 0.012280 -0.003638 -0.004893 0.000000 0.000000 0.000000
# 2 -0.003638 0.013016 -0.005628 0.000000 0.000000 0.000000
# 3 -0.004893 -0.005628 0.016546 0.000000 0.000000 0.000000
# 4 0.000000 0.000000 0.000000 0.079739 0.000000 0.000000
# 5 0.000000 0.000000 0.000000 0.000000 0.080814 0.000000
# 6 0.000000 0.000000 0.000000 0.000000 0.000000 0.173333
#
#
# Mechanical properties :
#
#
# Convention : Reuss Voigt Hill
#
# Bulk Modulus (GPa) = 73.94251 74.85133 74.39692
# Shear Modulus (GPa) = 12.23826 17.09939 14.66882
#
# Velocity S-wave (km/s) = 2.79793 3.30726 3.06320
# Velocity P-wave (km/s) = 7.59846 7.90341 7.75244
#
# Compressibility (1/GPa) = 0.01352402
#
# Stress axis : x y z
#
# Youngs Moduli (GPa) = 81.43039 76.82891 60.43589
#
# Poissons Ratio (x) = 0.27950 0.29573
# Poissons Ratio (y) = 0.29624 0.34014
# Poissons Ratio (z) = 0.39846 0.43240
#
# Static dielectric constant tensor:
#      x y z
#    x 1.506250 0.000000 0.000000 
#    y 0.000000 1.514300 0.000000 
#    z 0.000000 0.000000 1.524670 
# 
# From -- ./inp_files/29459.got.cif
#   From: 2010.05.17/outbox.cif.g08.bks.cpg/sg72_15_cif.got.tgz:29459.got - 2010.06.03 17:03:01.
