data_PCOD9529030
_publ_section_title
;
Structure prediction by ZEFSAII (Michael W. Deem and Ramdas Pophale) SiO2 
 PCOD9529030
Probable space group: I B A M
;
_chemical_formula_sum "Si O2"
_cell_formula_units_Z 88
_cell_length_a 22.336763
_cell_length_b 12.820586
_cell_length_c 16.918413
_cell_angle_alpha 90.000000
_cell_angle_beta 90.000000
_cell_angle_gamma 90.000000
_cell_volume 4844.932546
_symmetry_space_group_name_H-M "I B A M"
_symmetry_group_IT_number 72
_symmetry_cell_setting 'orthorhombic'
loop_
_space_group_symop_operation_xyz
x,y,z
-x,-y,z
x,-y,1/2-z
-x,y,1/2-z
-x,-y,-z
x,y,-z
-x,y,1/2+z
x,-y,1/2+z
1/2+x,1/2+y,1/2+z
1/2-x,1/2-y,1/2+z
1/2+x,1/2-y,-z
1/2-x,1/2+y,-z
1/2-x,1/2-y,1/2-z
1/2+x,1/2+y,1/2-z
1/2-x,1/2+y,z
1/2+x,1/2-y,z
loop_
_atom_site_type_symbol
_atom_site_label
_atom_site_fract_x
_atom_site_fract_y
_atom_site_fract_z
Si Si1 0.924099 0.864515 0.000000
Si Si2 0.780370 0.364269 0.133668
Si Si3 0.204841 0.495657 0.000000
Si Si4 0.662432 0.443800 0.500000
Si Si5 0.504551 0.626275 0.156053
Si Si6 0.202221 0.248056 0.000000
Si Si7 0.861062 0.821803 0.345785
Si Si8 0.302041 0.500000 0.250000
O O1 0.960389 0.845978 0.082173
O O2 0.864714 0.795508 0.000000
O O3 0.896303 0.983043 0.000000
O O4 0.737426 0.293366 0.077817
O O5 0.826808 0.284789 0.174345
O O6 0.740502 0.438158 0.189100
O O7 0.816631 0.442498 0.076552
O O8 0.197135 0.373011 0.000000
O O9 0.277398 0.511409 0.000000
O O10 0.665876 0.369832 0.574664
O O11 0.500000 0.500000 0.155136
O O12 0.500000 0.654737 0.250000
O O13 0.568734 0.677225 0.137436
O O14 0.845239 0.910586 0.282940
#
# Coordination Sequence:
#
# PCOD9529030 Si02
#       8
#     8  16   8   8  16   8  16   8
#     4  12  22  38  59  88 125 158 198 252 312 376
#     4  11  22  37  58  89 123 159 196 246 316 371
#     4  11  20  38  58  87 118 151 202 246 302 369
#     4  12  18  37  56  86 120 148 190 247 308 370
#     4  11  24  38  58  89 122 162 204 253 308 365
#     4  11  21  36  64  87 120 157 200 255 309 363
#     4  12  23  37  61  84 125 158 196 250 307 372
#     4  12  22  36  55  92 125 156 192 246 306 376
#
# _framework density 18.163307
#
# number of rings (size 3 to 8) (size 9 to 14) (size 15 to 20)
#    0.000    0.545    7.273    3.000    2.545    0.000 
#    0.000    0.000    0.000    2.182    0.000    0.000 
#    0.000    0.000    0.000    0.000    0.000    0.000 
#
# Total GULP energy -245130.908071 kJ/mol
# GULP energy per Si atom -5571.157002 kJ/mol
# Density = 1.812197 g / cm^3
# Si number density = 18.163307 Si / 1000 Ang^3
#
#
#
# Elastic Constant Matrix: (Units=GPa)
#
#
# Indices 1 2 3 4 5 6 
#
# 1 101.3214 35.1127 23.8413 0.0000 0.0000 0.0000
# 2 35.1127 108.8130 27.3060 0.0000 0.0000 0.0000
# 3 23.8413 27.3060 71.5561 0.0000 0.0000 0.0000
# 4 0.0000 0.0000 0.0000 24.8290 0.0000 0.0000
# 5 0.0000 0.0000 0.0000 0.0000 8.9813 0.0000
# 6 0.0000 0.0000 0.0000 0.0000 0.0000 21.2383
#
#
#
# Elastic Compliance Matrix: (Units=1/GPa)
#
#
# Indices 1 2 3 4 5 6 
#
# 1 0.011561 -0.003057 -0.002685 0.000000 0.000000 0.000000
# 2 -0.003057 0.010971 -0.003168 0.000000 0.000000 0.000000
# 3 -0.002685 -0.003168 0.016079 0.000000 0.000000 0.000000
# 4 0.000000 0.000000 0.000000 0.040275 0.000000 0.000000
# 5 0.000000 0.000000 0.000000 0.000000 0.111342 0.000000
# 6 0.000000 0.000000 0.000000 0.000000 0.000000 0.047085
#
#
# Mechanical properties :
#
#
# Convention : Reuss Voigt Hill
#
# Bulk Modulus (GPa) = 48.09939 50.46784 49.28362
# Shear Modulus (GPa) = 19.07926 24.03842 21.55884
#
# Velocity S-wave (km/s) = 3.24455 3.64189 3.44894
# Velocity P-wave (km/s) = 6.36987 6.74762 6.56146
#
# Compressibility (1/GPa) = 0.02079028
#
# Stress axis : x y z
#
# Youngs Moduli (GPa) = 86.49961 91.14535 62.19353
#
# Poissons Ratio (x) = 0.27860 0.16702
# Poissons Ratio (y) = 0.26440 0.19705
# Poissons Ratio (z) = 0.23229 0.28878
#
# Static dielectric constant tensor:
#      x y z
#    x 1.632580 0.000000 0.000000 
#    y 0.000000 1.630320 0.000000 
#    z 0.000000 0.000000 1.737060 
# 
# From -- ./inp_files/25061.got.cif
#   From: 2010.05.17/outbox.cif.g08.bks.cpg/sg72_13_cif.got.tgz:25061.got - 2010.06.03 17:03:01.
