data_PCOD9529598
_publ_section_title
;
Structure prediction by ZEFSAII (Michael W. Deem and Ramdas Pophale) SiO2 
 PCOD9529598
Probable space group: I B A M
;
_chemical_formula_sum "Si O2"
_cell_formula_units_Z 34
_cell_length_a 18.000000
_cell_length_b 21.000000
_cell_length_c 9.000000
_cell_angle_alpha 90.000000
_cell_angle_beta 90.000000
_cell_angle_gamma 90.000000
_cell_volume 3402.000000
_symmetry_space_group_name_H-M "I B A M"
_symmetry_group_IT_number 72
_symmetry_cell_setting 'orthorhombic'
loop_
_space_group_symop_operation_xyz
x,y,z
-x,-y,z
x,-y,1/2-z
-x,y,1/2-z
-x,-y,-z
x,y,-z
-x,y,1/2+z
x,-y,1/2+z
1/2+x,1/2+y,1/2+z
1/2-x,1/2-y,1/2+z
1/2+x,1/2-y,-z
1/2-x,1/2+y,-z
1/2-x,1/2-y,1/2-z
1/2+x,1/2+y,1/2-z
1/2-x,1/2+y,z
1/2+x,1/2-y,z
loop_
_atom_site_type_symbol
_atom_site_label
_atom_site_fract_x
_atom_site_fract_y
_atom_site_fract_z
Si Si1 0.330677 0.730029 0.677833
Si Si2 0.423055 0.838722 0.175168
Si Si3 0.136202 0.903155 0.326062
Si Si4 0.290516 0.940209 0.173362
Si Si5 0.500000 0.500000 0.250000
O O1 0.320896 0.729583 0.500000
O O2 0.250000 0.750000 0.750000
O O3 0.393122 0.778942 0.732278
O O4 0.362642 0.662305 0.733371
O O5 0.500000 0.861909 0.250000
O O6 0.351451 0.885005 0.182484
O O7 0.435727 0.824825 0.000000
O O8 0.144673 0.888943 0.500000
O O9 0.213926 0.931630 0.264162
O O10 0.062995 0.948940 0.311820
O O11 0.328743 0.000000 0.250000
O O12 0.271859 0.949592 0.000000
#
# Coordination Sequence:
#
# PCOD9529598 Si02
#       5
#    16  16  16  16   4
#     4  12  25  44  72 103 139 184 237 293 358 426
#     4  11  25  45  69 101 140 181 233 293 356 421
#     4  12  26  45  71 101 141 187 237 291 353 425
#     4  11  24  43  70 100 136 180 231 286 349 420
#     4  12  30  48  72 106 152 192 244 292 362 440
#
# _framework density 9.9941209999999998
#
# number of rings (size 3 to 8) (size 9 to 14) (size 15 to 20)
#    0.000    0.471    3.529    4.588    1.647    6.118 
#    0.000    2.353    0.000    0.000    0.000    0.000 
#    0.000    0.000    0.000    0.000    0.000    0.000 
#
# Total GULP energy -189538.013060 kJ/mol
# GULP energy per Si atom -5574.647443 kJ/mol
# Density = 0.997137 g / cm^3
# Si number density = 9.994121 Si / 1000 Ang^3
#
#
#
# Elastic Constant Matrix: (Units=GPa)
#
#
# Indices 1 2 3 4 5 6 
#
# 1 118.9423 13.1535 55.1389 0.0000 0.0000 0.0000
# 2 13.1535 98.4158 55.5208 0.0000 0.0000 0.0000
# 3 55.1389 55.5208 184.6708 0.0000 0.0000 0.0000
# 4 0.0000 0.0000 0.0000 22.3594 0.0000 0.0000
# 5 0.0000 0.0000 0.0000 0.0000 33.9088 0.0000
# 6 0.0000 0.0000 0.0000 0.0000 0.0000 34.1816
#
#
#
# Elastic Compliance Matrix: (Units=1/GPa)
#
#
# Indices 1 2 3 4 5 6 
#
# 1 0.009772 0.000409 -0.003041 0.000000 0.000000 0.000000
# 2 0.000409 0.012254 -0.003806 0.000000 0.000000 0.000000
# 3 -0.003041 -0.003806 0.007467 0.000000 0.000000 0.000000
# 4 0.000000 0.000000 0.000000 0.044724 0.000000 0.000000
# 5 0.000000 0.000000 0.000000 0.000000 0.029491 0.000000
# 6 0.000000 0.000000 0.000000 0.000000 0.000000 0.029255
#
#
# Mechanical properties :
#
#
# Convention : Reuss Voigt Hill
#
# Bulk Modulus (GPa) = 60.17776 72.18394 66.18085
# Shear Modulus (GPa) = 33.03011 36.63768 34.83390
#
# Velocity S-wave (km/s) = 4.06948 4.28595 4.17912
# Velocity P-wave (km/s) = 7.22861 7.79000 7.51455
#
# Compressibility (1/GPa) = 0.01661743
#
# Stress axis : x y z
#
# Youngs Moduli (GPa) = 102.33550 81.60921 133.91768
#
# Poissons Ratio (x) = -0.03341 0.40721
# Poissons Ratio (y) = -0.04190 0.50972
# Poissons Ratio (z) = 0.31118 0.31062
#
# Static dielectric constant tensor:
#      x y z
#    x 1.679840 0.000000 0.000000 
#    y 0.000000 2.268030 0.000000 
#    z 0.000000 0.000000 1.682450 
# 
# From -- ./inp_files/4406.got.cif
#   From: 2010.05.17/outbox.ucp.g08.bks.cvg/sg72_3_cif.got.tgz:4406.got - 2010.06.11 16:33:07.
