data_PCOD9529747
_publ_section_title
;
Structure prediction by ZEFSAII (Michael W. Deem and Ramdas Pophale) SiO2 
 PCOD9529747
Probable space group: I B C A 
;
_chemical_formula_sum "Si O2"
_cell_formula_units_Z 96
_cell_length_a 26.551944
_cell_length_b 16.688611
_cell_length_c 11.203107
_cell_angle_alpha 90.000000
_cell_angle_beta 90.000000
_cell_angle_gamma 90.000000
_cell_volume 4964.265483
_symmetry_space_group_name_H-M "I B C A "
_symmetry_group_IT_number 73
_symmetry_cell_setting 'orthorhombic'
loop_
_space_group_symop_operation_xyz
x,y,z
-x,1/2-y,z
x,-y,1/2-z
1/2-x,y,-z
-x,-y,-z
x,1/2+y,-z
-x,y,1/2+z
1/2+x,-y,z
1/2+x,1/2+y,1/2+z
1/2-x,-y,1/2+z
1/2+x,1/2-y,-z
-x,1/2+y,1/2-z
1/2-x,1/2-y,1/2-z
1/2+x,y,1/2-z
1/2-x,1/2+y,z
x,1/2-y,1/2+z
loop_
_atom_site_type_symbol
_atom_site_label
_atom_site_fract_x
_atom_site_fract_y
_atom_site_fract_z
Si Si1 0.507558 0.336756 0.826029
Si Si2 0.102603 0.648759 0.387126
Si Si3 0.866183 0.070197 0.875642
Si Si4 0.543719 0.000000 0.250000
Si Si5 0.808456 0.437522 0.994430
Si Si6 0.122612 0.673582 0.862475
Si Si7 0.144959 0.500000 0.250000
O O1 0.500000 0.250000 0.761595
O O2 0.457476 0.342276 0.904176
O O3 0.511199 0.419634 0.754304
O O4 0.562573 0.336001 0.886502
O O5 0.126383 0.627787 0.513435
O O6 0.126805 0.731523 0.342170
O O7 0.113025 0.575095 0.298655
O O8 0.916758 0.016043 0.858135
O O9 0.863356 0.123366 0.756575
O O10 0.822222 0.008804 0.911249
O O11 0.823256 0.469432 0.863582
O O12 0.750000 0.417435 0.000000
O O13 0.843457 0.363062 0.033295
#
# Coordination Sequence:
#
# PCOD9529747 Si02
#       7
#    16  16  16   8  16  16   8
#     4   9  18  35  57  92 126 168 207 248 311 378
#     4  10  22  39  60  93 133 161 207 259 316 374
#     4  10  20  39  64  88 120 172 204 260 313 382
#     4  10  17  35  60  88 126 170 211 249 312 380
#     4  11  23  42  68  90 121 164 215 265 319 372
#     4  10  21  41  63  91 129 167 212 257 311 385
#     4  10  25  41  60  98 122 158 203 277 316 366
#
# _framework density 19.338207000000001
#
# number of rings (size 3 to 8) (size 9 to 14) (size 15 to 20)
#    0.000    2.000    3.333    0.500    4.667    0.667 
#    6.000   10.833    0.000    0.000    0.000    0.000 
#    0.000    0.000    0.000    0.000    0.000    0.000 
#
# Total GULP energy -267240.662129 kJ/mol
# GULP energy per Si atom -5567.513794 kJ/mol
# Density = 1.929419 g / cm^3
# Si number density = 19.338207 Si / 1000 Ang^3
#
#
#
# Elastic Constant Matrix: (Units=GPa)
#
#
# Indices 1 2 3 4 5 6 
#
# 1 110.0415 46.1974 34.2303 0.0000 0.0000 0.0000
# 2 46.1974 158.3813 44.8289 0.0000 0.0000 0.0000
# 3 34.2303 44.8289 73.2053 0.0000 0.0000 0.0000
# 4 0.0000 0.0000 0.0000 19.0140 0.0000 0.0000
# 5 0.0000 0.0000 0.0000 0.0000 61.6670 0.0000
# 6 0.0000 0.0000 0.0000 0.0000 0.0000 30.6795
#
#
#
# Elastic Compliance Matrix: (Units=1/GPa)
#
#
# Indices 1 2 3 4 5 6 
#
# 1 0.011214 -0.002161 -0.003920 0.000000 0.000000 0.000000
# 2 -0.002161 0.008054 -0.003922 0.000000 0.000000 0.000000
# 3 -0.003920 -0.003922 0.017895 0.000000 0.000000 0.000000
# 4 0.000000 0.000000 0.000000 0.052593 0.000000 0.000000
# 5 0.000000 0.000000 0.000000 0.000000 0.016216 0.000000
# 6 0.000000 0.000000 0.000000 0.000000 0.000000 0.032595
#
#
# Mechanical properties :
#
#
# Convention : Reuss Voigt Hill
#
# Bulk Modulus (GPa) = 58.28509 65.79345 62.03927
# Shear Modulus (GPa) = 30.43347 36.69685 33.56516
#
# Velocity S-wave (km/s) = 3.97135 4.36091 4.17068
# Velocity P-wave (km/s) = 7.15780 7.71058 7.43933
#
# Compressibility (1/GPa) = 0.01715705
#
# Stress axis : x y z
#
# Youngs Moduli (GPa) = 89.17159 124.15704 55.88252
#
# Poissons Ratio (x) = 0.26836 0.21907
# Poissons Ratio (y) = 0.19274 0.21915
# Poissons Ratio (z) = 0.34956 0.48689
#
# Static dielectric constant tensor:
#      x y z
#    x 1.667740 0.000000 0.000000 
#    y 0.000000 1.745730 0.000000 
#    z 0.000000 0.000000 1.675800 
# 
# From -- ./inp_files/13671.got.cif
#   From: 2010.05.17/outbox.cif.g08.bks.cpg/sg73_7_cif.got.tgz:13671.got - 2010.06.03 17:35:07.
