data_PCOD9529105
_publ_section_title
;
Structure prediction by ZEFSAII (Michael W. Deem and Ramdas Pophale) SiO2 
 PCOD9529105
Probable space group: I B A M
;
_chemical_formula_sum "Si O2"
_cell_formula_units_Z 80
_cell_length_a 7.287449
_cell_length_b 17.851037
_cell_length_c 27.353103
_cell_angle_alpha 90.000000
_cell_angle_beta 90.000000
_cell_angle_gamma 90.000000
_cell_volume 3558.324734
_symmetry_space_group_name_H-M "I B A M"
_symmetry_group_IT_number 72
_symmetry_cell_setting 'orthorhombic'
loop_
_space_group_symop_operation_xyz
x,y,z
-x,-y,z
x,-y,1/2-z
-x,y,1/2-z
-x,-y,-z
x,y,-z
-x,y,1/2+z
x,-y,1/2+z
1/2+x,1/2+y,1/2+z
1/2-x,1/2-y,1/2+z
1/2+x,1/2-y,-z
1/2-x,1/2+y,-z
1/2-x,1/2-y,1/2-z
1/2+x,1/2+y,1/2-z
1/2-x,1/2+y,z
1/2+x,1/2-y,z
loop_
_atom_site_type_symbol
_atom_site_label
_atom_site_fract_x
_atom_site_fract_y
_atom_site_fract_z
Si Si1 0.720323 0.797815 0.701006
Si Si2 0.454397 0.082840 0.838983
Si Si3 0.496352 0.861642 0.946221
Si Si4 0.919363 0.188888 0.552320
Si Si5 0.074928 0.845920 0.345676
O O1 0.750000 0.750000 0.750000
O O2 0.553097 0.855049 0.694667
O O3 0.681680 0.733455 0.660720
O O4 0.906594 0.842744 0.691034
O O5 0.528192 0.095437 0.894935
O O6 0.235165 0.094766 0.838473
O O7 0.500000 0.000000 0.822577
O O8 0.714272 0.843603 0.947306
O O9 0.409456 0.778665 0.943811
O O10 0.449115 0.895159 0.000000
O O11 0.007422 0.171304 0.500000
O O12 0.009193 0.153863 0.600098
#
# Coordination Sequence:
#
# PCOD9529105 Si02
#       5
#    16  16  16  16  16
#     4  12  24  41  70  97 119 169 228 279 333 401
#     4  11  25  42  63  98 141 177 218 283 348 404
#     4   9  17  31  56  90 128 172 221 271 331 399
#     4   9  16  29  54  91 124 159 216 277 318 381
#     4  11  21  40  68  96 130 170 224 275 332 405
#
# _framework density 22.482488
#
# number of rings (size 3 to 8) (size 9 to 14) (size 15 to 20)
#    0.000    1.600    4.000    1.800    0.000    1.200 
#    0.000    2.000    0.000    2.400    0.000    7.000 
#    0.000    0.000    0.000    0.000    0.000    0.000 
#
# Total GULP energy -223391.101396 kJ/mol
# GULP energy per Si atom -5584.777535 kJ/mol
# Density = 2.243132 g / cm^3
# Si number density = 22.482488 Si / 1000 Ang^3
#
#
#
# Elastic Constant Matrix: (Units=GPa)
#
#
# Indices 1 2 3 4 5 6 
#
# 1 81.0414 1.1245 29.1010 0.0000 0.0000 0.0000
# 2 1.1245 44.3724 8.9726 0.0000 0.0000 0.0000
# 3 29.1010 8.9726 149.6849 0.0000 0.0000 0.0000
# 4 0.0000 0.0000 0.0000 -10.9555 0.0000 0.0000
# 5 0.0000 0.0000 0.0000 0.0000 24.4802 0.0000
# 6 0.0000 0.0000 0.0000 0.0000 0.0000 19.7015
#
#
#
# Elastic Compliance Matrix: (Units=1/GPa)
#
#
# Indices 1 2 3 4 5 6 
#
# 1 0.013267 0.000188 -0.002591 0.000000 0.000000 0.000000
# 2 0.000188 0.022816 -0.001404 0.000000 0.000000 0.000000
# 3 -0.002591 -0.001404 0.007269 0.000000 0.000000 0.000000
# 4 0.000000 0.000000 0.000000 -0.091278 0.000000 0.000000
# 5 0.000000 0.000000 0.000000 0.000000 0.040849 0.000000
# 6 0.000000 0.000000 0.000000 0.000000 0.000000 0.050757
#
#
# Mechanical properties :
#
#
# Convention : Reuss Voigt Hill
#
# Bulk Modulus (GPa) = 27.98210 39.27719 33.62965
# Shear Modulus (GPa) = 79.10594 22.37194 50.73894
#
# Velocity S-wave (km/s) = 5.93818 3.15792 4.75575
# Velocity P-wave (km/s) = 7.71292 5.55019 6.71914
#
# Compressibility (1/GPa) = 0.03573713
#
# Stress axis : x y z
#
# Youngs Moduli (GPa) = 75.37494 43.82947 137.57976
#
# Poissons Ratio (x) = -0.00822 0.35641
# Poissons Ratio (y) = -0.01414 0.19318
# Poissons Ratio (z) = 0.19526 0.06154
#
# Static dielectric constant tensor:
#      x y z
#    x 1.881170 0.000000 0.000000 
#    y 0.000000 1.758990 0.000000 
#    z 0.000000 0.000000 1.962450 
# 
# From -- ./inp_files/47204.got.cif
#   From: 2010.05.17/outbox.cif.g08.bks.cpg/sg72_24_cif.got.tgz:47204.got - 2010.06.03 17:03:01.
