data_PCOD9529597
_publ_section_title
;
Structure prediction by ZEFSAII (Michael W. Deem and Ramdas Pophale) SiO2 
 PCOD9529597
Probable space group: I B A M
;
_chemical_formula_sum "Si O2"
_cell_formula_units_Z 52
_cell_length_a 27.000000
_cell_length_b 9.000000
_cell_length_c 21.000000
_cell_angle_alpha 90.000000
_cell_angle_beta 90.000000
_cell_angle_gamma 90.000000
_cell_volume 5103.000000
_symmetry_space_group_name_H-M "I B A M"
_symmetry_group_IT_number 72
_symmetry_cell_setting 'orthorhombic'
loop_
_space_group_symop_operation_xyz
x,y,z
-x,-y,z
x,-y,1/2-z
-x,y,1/2-z
-x,-y,-z
x,y,-z
-x,y,1/2+z
x,-y,1/2+z
1/2+x,1/2+y,1/2+z
1/2-x,1/2-y,1/2+z
1/2+x,1/2-y,-z
1/2-x,1/2+y,-z
1/2-x,1/2-y,1/2-z
1/2+x,1/2+y,1/2-z
1/2-x,1/2+y,z
1/2+x,1/2-y,z
loop_
_atom_site_type_symbol
_atom_site_label
_atom_site_fract_x
_atom_site_fract_y
_atom_site_fract_z
Si Si1 0.892147 0.637627 0.570325
Si Si2 0.271626 0.390855 0.361680
Si Si3 0.790401 0.500000 0.750000
Si Si4 0.203290 0.819398 0.930339
Si Si5 0.443152 0.325907 0.827157
Si Si6 0.646376 0.144013 0.136931
Si Si7 0.561449 0.339788 0.178808
O O1 0.915439 0.624001 0.500000
O O2 0.853287 0.772772 0.567997
O O3 0.925956 0.690790 0.628803
O O4 0.862060 0.488174 0.587087
O O5 0.245574 0.395146 0.292497
O O6 0.232022 0.328492 0.411170
O O7 0.285206 0.558815 0.377778
O O8 0.317939 0.284182 0.374345
O O9 0.827027 0.424570 0.699160
O O10 0.218792 0.873399 0.000000
O O11 0.426447 0.493644 0.845676
O O12 0.502647 0.325164 0.827125
O O13 0.426229 0.319187 0.753722
O O14 0.592383 0.213614 0.145226
#
# Coordination Sequence:
#
# PCOD9529597 Si02
#       7
#    16  16   8  16  16  16  16
#     4  11  24  42  63  90 131 172 213 259 309 381
#     4  12  24  40  61  89 123 163 210 268 313 373
#     4  12  24  40  60  93 132 161 210 274 328 372
#     4  11  23  41  62  85 118 168 212 253 308 372
#     4   9  19  42  64  97 125 158 213 252 324 379
#     4  12  24  39  60  90 126 164 211 257 326 373
#     4   9  20  38  70  94 124 162 200 268 318 386
#
# _framework density 10.190084000000001
#
# number of rings (size 3 to 8) (size 9 to 14) (size 15 to 20)
#    0.000    1.231    3.077    3.692    0.000    4.308 
#    0.000    5.385    0.000    0.000    0.000    0.000 
#    0.000    0.000    0.000    0.000    0.000    0.000 
#
# Total GULP energy -289744.096754 kJ/mol
# GULP energy per Si atom -5572.001861 kJ/mol
# Density = 1.016689 g / cm^3
# Si number density = 10.190084 Si / 1000 Ang^3
#
#
#
# Elastic Constant Matrix: (Units=GPa)
#
#
# Indices 1 2 3 4 5 6 
#
# 1 26.9365 27.6496 19.0370 0.0000 0.0000 0.0000
# 2 27.6496 81.2060 25.6001 0.0000 0.0000 0.0000
# 3 19.0370 25.6001 68.6466 0.0000 0.0000 0.0000
# 4 0.0000 0.0000 0.0000 16.1997 0.0000 0.0000
# 5 0.0000 0.0000 0.0000 0.0000 20.2398 0.0000
# 6 0.0000 0.0000 0.0000 0.0000 0.0000 40.2716
#
#
#
# Elastic Compliance Matrix: (Units=1/GPa)
#
#
# Indices 1 2 3 4 5 6 
#
# 1 0.063436 -0.018192 -0.010808 0.000000 0.000000 0.000000
# 2 -0.018192 0.019172 -0.002105 0.000000 0.000000 0.000000
# 3 -0.010808 -0.002105 0.018349 0.000000 0.000000 0.000000
# 4 0.000000 0.000000 0.000000 0.061730 0.000000 0.000000
# 5 0.000000 0.000000 0.000000 0.000000 0.049408 0.000000
# 6 0.000000 0.000000 0.000000 0.000000 0.000000 0.024831
#
#
# Mechanical properties :
#
#
# Convention : Reuss Voigt Hill
#
# Bulk Modulus (GPa) = 25.80736 35.70693 30.75715
# Shear Modulus (GPa) = 16.02297 22.30904 19.16601
#
# Velocity S-wave (km/s) = 2.80697 3.31213 3.06996
# Velocity P-wave (km/s) = 4.81622 5.67322 5.26219
#
# Compressibility (1/GPa) = 0.03874864
#
# Stress axis : x y z
#
# Youngs Moduli (GPa) = 15.76382 52.15926 54.49747
#
# Poissons Ratio (x) = 0.94889 0.58900
# Poissons Ratio (y) = 0.28678 0.11470
# Poissons Ratio (z) = 0.17037 0.10978
#
# Static dielectric constant tensor:
#      x y z
#    x 1.762660 0.000000 0.000000 
#    y 0.000000 1.739170 0.000000 
#    z 0.000000 0.000000 1.762140 
# 
# From -- ./inp_files/40801.got.cif
#   From: 2010.05.17/outbox.ucp.g08.bks.cvg/sg72_21_cif.got.tgz:40801.got - 2010.06.11 16:33:07.
