data_PCOD9529182
_publ_section_title
;
Structure prediction by ZEFSAII (Michael W. Deem and Ramdas Pophale) SiO2 
 PCOD9529182
Probable space group: I B A M
;
_chemical_formula_sum "Si O2"
_cell_formula_units_Z 80
_cell_length_a 20.608562
_cell_length_b 12.020006
_cell_length_c 15.331289
_cell_angle_alpha 90.000000
_cell_angle_beta 90.000000
_cell_angle_gamma 90.000000
_cell_volume 3797.790851
_symmetry_space_group_name_H-M "I B A M"
_symmetry_group_IT_number 72
_symmetry_cell_setting 'orthorhombic'
loop_
_space_group_symop_operation_xyz
x,y,z
-x,-y,z
x,-y,1/2-z
-x,y,1/2-z
-x,-y,-z
x,y,-z
-x,y,1/2+z
x,-y,1/2+z
1/2+x,1/2+y,1/2+z
1/2-x,1/2-y,1/2+z
1/2+x,1/2-y,-z
1/2-x,1/2+y,-z
1/2-x,1/2-y,1/2-z
1/2+x,1/2+y,1/2-z
1/2-x,1/2+y,z
1/2+x,1/2-y,z
loop_
_atom_site_type_symbol
_atom_site_label
_atom_site_fract_x
_atom_site_fract_y
_atom_site_fract_z
Si Si1 0.677697 0.878708 0.758225
Si Si2 0.999086 0.123985 0.101832
Si Si3 0.687171 0.530148 0.337076
Si Si4 0.377137 0.743772 0.099602
Si Si5 0.850281 0.801863 0.596893
O O1 0.749538 0.910282 0.795239
O O2 0.664360 0.819282 0.665781
O O3 0.655990 0.791049 0.830184
O O4 0.644841 0.000000 0.750000
O O5 0.925046 0.161162 0.100600
O O6 0.050117 0.216218 0.135450
O O7 0.020102 0.112569 0.000000
O O8 0.000000 0.000000 0.140607
O O9 0.646266 0.500000 0.250000
O O10 0.654421 0.621096 0.397018
O O11 0.692796 0.412168 0.384919
O O12 0.377878 0.786466 0.000000
O O13 0.834779 0.759358 0.500000
#
# Coordination Sequence:
#
# PCOD9529182 Si02
#       5
#    16  16  16  16  16
#     4  11  27  45  63  91 141 179 227 277 317 408
#     4   9  18  36  65 103 135 161 219 289 341 400
#     4  11  22  41  64  92 135 166 211 286 337 392
#     4  11  22  41  68  98 133 178 219 271 346 401
#     4  11  23  42  69 102 133 172 224 283 346 398
#
# _framework density 21.064878
#
# number of rings (size 3 to 8) (size 9 to 14) (size 15 to 20)
#    0.000    1.400    4.000    1.200    2.800    3.200 
#    0.000    7.000    0.000    3.600    0.000    0.000 
#    0.000    0.000    0.000    0.000    0.000    0.000 
#
# Total GULP energy -222901.799697 kJ/mol
# GULP energy per Si atom -5572.544992 kJ/mol
# Density = 2.101693 g / cm^3
# Si number density = 21.064878 Si / 1000 Ang^3
#
#
#
# Elastic Constant Matrix: (Units=GPa)
#
#
# Indices 1 2 3 4 5 6 
#
# 1 95.3933 29.2297 32.0217 0.0000 0.0000 0.0000
# 2 29.2297 133.0704 58.5673 0.0000 0.0000 0.0000
# 3 32.0217 58.5673 129.0051 0.0000 0.0000 0.0000
# 4 0.0000 0.0000 0.0000 5.6299 0.0000 0.0000
# 5 0.0000 0.0000 0.0000 0.0000 25.0271 0.0000
# 6 0.0000 0.0000 0.0000 0.0000 0.0000 8.7993
#
#
#
# Elastic Compliance Matrix: (Units=1/GPa)
#
#
# Indices 1 2 3 4 5 6 
#
# 1 0.011707 -0.001615 -0.002173 0.000000 0.000000 0.000000
# 2 -0.001615 0.009614 -0.003964 0.000000 0.000000 0.000000
# 3 -0.002173 -0.003964 0.010090 0.000000 0.000000 0.000000
# 4 0.000000 0.000000 0.000000 0.177622 0.000000 0.000000
# 5 0.000000 0.000000 0.000000 0.000000 0.039957 0.000000
# 6 0.000000 0.000000 0.000000 0.000000 0.000000 0.113645
#
#
# Mechanical properties :
#
#
# Convention : Reuss Voigt Hill
#
# Bulk Modulus (GPa) = 62.86018 66.34513 64.60266
# Shear Modulus (GPa) = 13.03980 23.73462 18.38721
#
# Velocity S-wave (km/s) = 2.49073 3.36033 2.95767
# Velocity P-wave (km/s) = 6.17881 6.82787 6.51143
#
# Compressibility (1/GPa) = 0.01590832
#
# Stress axis : x y z
#
# Youngs Moduli (GPa) = 85.41767 104.01278 99.10349
#
# Poissons Ratio (x) = 0.16802 0.21531
# Poissons Ratio (y) = 0.13798 0.39283
# Poissons Ratio (z) = 0.18558 0.41229
#
# Static dielectric constant tensor:
#      x y z
#    x 1.846960 0.000000 0.000000 
#    y 0.000000 1.790550 0.000000 
#    z 0.000000 0.000000 1.816670 
# 
# From -- ./inp_files/24886.got.cif
#   From: 2010.05.17/outbox.cif.g08.bks.cpg/sg72_13_cif.got.tgz:24886.got - 2010.06.03 17:03:01.
