data_PCOD9529858
_publ_section_title
;
Structure prediction by ZEFSAII (Michael W. Deem and Ramdas Pophale) SiO2 
 PCOD9529858
Probable space group: I B C A 
;
_chemical_formula_sum "Si O2"
_cell_formula_units_Z 88
_cell_length_a 9.299139
_cell_length_b 14.052454
_cell_length_c 27.928233
_cell_angle_alpha 90.000000
_cell_angle_beta 90.000000
_cell_angle_gamma 90.000000
_cell_volume 3649.542040
_symmetry_space_group_name_H-M "I B C A "
_symmetry_group_IT_number 73
_symmetry_cell_setting 'orthorhombic'
loop_
_space_group_symop_operation_xyz
x,y,z
-x,1/2-y,z
x,-y,1/2-z
1/2-x,y,-z
-x,-y,-z
x,1/2+y,-z
-x,y,1/2+z
1/2+x,-y,z
1/2+x,1/2+y,1/2+z
1/2-x,-y,1/2+z
1/2+x,1/2-y,-z
-x,1/2+y,1/2-z
1/2-x,1/2-y,1/2-z
1/2+x,y,1/2-z
1/2-x,1/2+y,z
x,1/2-y,1/2+z
loop_
_atom_site_type_symbol
_atom_site_label
_atom_site_fract_x
_atom_site_fract_y
_atom_site_fract_z
Si Si1 0.894673 0.627021 0.660337
Si Si2 0.902932 0.401643 0.553617
Si Si3 0.289176 0.654245 0.356644
Si Si4 0.260858 0.915498 0.569985
Si Si5 0.250000 0.747418 0.500000
Si Si6 0.372276 0.677144 0.734329
O O1 0.840750 0.736406 0.652397
O O2 0.784226 0.574125 0.625644
O O3 0.904026 0.616497 0.717872
O O4 0.054490 0.605933 0.640540
O O5 0.812137 0.357870 0.597872
O O6 0.827306 0.501647 0.544187
O O7 0.878939 0.325143 0.511901
O O8 0.068461 0.417568 0.564897
O O9 0.192950 0.623486 0.311037
O O10 0.217056 0.816844 0.544410
O O11 0.500000 0.750000 0.720713
O O12 0.250000 0.750000 0.750000
#
# Coordination Sequence:
#
# PCOD9529858 Si02
#       6
#    16  16  16  16   8  16
#     4  10  20  39  64 101 141 187 232 288 347 410
#     4  12  28  48  73 108 142 186 233 294 358 429
#     4  10  21  37  66 100 142 186 234 287 347 414
#     4  12  28  48  74 106 145 183 236 295 356 433
#     4  12  28  48  78 106 130 182 232 290 364 426
#     4  10  18  32  60 102 141 185 240 289 341 415
#
# _framework density 24.112613
#
# number of rings (size 3 to 8) (size 9 to 14) (size 15 to 20)
#    0.000    1.091    5.455    2.182    5.091    7.273 
#    0.000    0.909    0.000    4.364    0.000    0.000 
#    0.000    0.000    0.000    0.000    0.000    0.000 
#
# Total GULP energy -245964.790377 kJ/mol
# GULP energy per Si atom -5590.108872 kJ/mol
# Density = 2.405773 g / cm^3
# Si number density = 24.112613 Si / 1000 Ang^3
#
#
#
# Elastic Constant Matrix: (Units=GPa)
#
#
# Indices 1 2 3 4 5 6 
#
# 1 216.1585 47.7290 60.7077 0.0000 0.0000 0.0000
# 2 47.7290 108.8927 34.1869 0.0000 0.0000 0.0000
# 3 60.7077 34.1869 99.8090 0.0000 0.0000 0.0000
# 4 0.0000 0.0000 0.0000 21.1781 0.0000 0.0000
# 5 0.0000 0.0000 0.0000 0.0000 37.8963 0.0000
# 6 0.0000 0.0000 0.0000 0.0000 0.0000 18.2545
#
#
#
# Elastic Compliance Matrix: (Units=1/GPa)
#
#
# Indices 1 2 3 4 5 6 
#
# 1 0.005822 -0.001614 -0.002988 0.000000 0.000000 0.000000
# 2 -0.001614 0.010737 -0.002696 0.000000 0.000000 0.000000
# 3 -0.002988 -0.002696 0.012760 0.000000 0.000000 0.000000
# 4 0.000000 0.000000 0.000000 0.047219 0.000000 0.000000
# 5 0.000000 0.000000 0.000000 0.000000 0.026388 0.000000
# 6 0.000000 0.000000 0.000000 0.000000 0.000000 0.054781
#
#
# Mechanical properties :
#
#
# Convention : Reuss Voigt Hill
#
# Bulk Modulus (GPa) = 67.92185 78.90083 73.41134
# Shear Modulus (GPa) = 28.21504 34.28157 31.24830
#
# Velocity S-wave (km/s) = 3.42444 3.77467 3.60381
# Velocity P-wave (km/s) = 6.62310 7.19655 6.91577
#
# Compressibility (1/GPa) = 0.01472280
#
# Stress axis : x y z
#
# Youngs Moduli (GPa) = 171.76837 93.13509 78.36810
#
# Poissons Ratio (x) = 0.15028 0.23419
# Poissons Ratio (y) = 0.27716 0.21130
# Poissons Ratio (z) = 0.51330 0.25112
#
# Static dielectric constant tensor:
#      x y z
#    x 1.853820 0.000000 0.000000 
#    y 0.000000 1.974860 0.000000 
#    z 0.000000 0.000000 2.048860 
# 
# From -- ./inp_files/33537.got.cif
#   From: 2010.05.17/outbox.cif.g08.bks.cpg/sg73_17_cif.got.tgz:33537.got - 2010.06.03 17:35:07.
