data_PCOD9529819
_publ_section_title
;
Structure prediction by ZEFSAII (Michael W. Deem and Ramdas Pophale) SiO2 
 PCOD9529819
Probable space group: I B C A 
;
_chemical_formula_sum "Si O2"
_cell_formula_units_Z 72
_cell_length_a 9.131126
_cell_length_b 21.385485
_cell_length_c 17.421344
_cell_angle_alpha 90.000000
_cell_angle_beta 90.000000
_cell_angle_gamma 90.000000
_cell_volume 3401.927830
_symmetry_space_group_name_H-M "I B C A "
_symmetry_group_IT_number 73
_symmetry_cell_setting 'orthorhombic'
loop_
_space_group_symop_operation_xyz
x,y,z
-x,1/2-y,z
x,-y,1/2-z
1/2-x,y,-z
-x,-y,-z
x,1/2+y,-z
-x,y,1/2+z
1/2+x,-y,z
1/2+x,1/2+y,1/2+z
1/2-x,-y,1/2+z
1/2+x,1/2-y,-z
-x,1/2+y,1/2-z
1/2-x,1/2-y,1/2-z
1/2+x,y,1/2-z
1/2-x,1/2+y,z
x,1/2-y,1/2+z
loop_
_atom_site_type_symbol
_atom_site_label
_atom_site_fract_x
_atom_site_fract_y
_atom_site_fract_z
Si Si1 0.391038 0.836514 0.350411
Si Si2 0.541801 0.073431 0.385533
Si Si3 0.750000 0.145817 0.500000
Si Si4 0.086262 0.189299 0.221758
Si Si5 0.171818 0.482241 0.337775
O O1 0.337294 0.816388 0.434606
O O2 0.259036 0.813360 0.294718
O O3 0.541661 0.817082 0.310987
O O4 0.385556 0.912077 0.352843
O O5 0.627103 0.103827 0.457112
O O6 0.524821 0.129205 0.324167
O O7 0.655246 0.023717 0.349749
O O8 0.395147 0.034166 0.393965
O O9 0.000000 0.250000 0.192133
O O10 0.140350 0.500000 0.250000
#
# Coordination Sequence:
#
# PCOD9529819 Si02
#       5
#    16  16   8  16  16
#     4  10  21  35  58  79 111 142 185 227 279 327
#     4  10  21  33  57  81 114 148 180 227 278 329
#     4   8  20  38  50  82 116 148 174 228 288 332
#     4  10  20  36  57  83 106 144 190 232 267 326
#     4  10  18  31  54  82 109 140 186 223 271 327
#
# _framework density 21.164470000000001
#
# number of rings (size 3 to 8) (size 9 to 14) (size 15 to 20)
#    0.000    2.667    2.222    1.333    3.111    3.556 
#    0.000    4.444    0.000    5.333    0.000    0.000 
#    0.000    0.000    0.000    0.000    0.000    0.000 
#
# Total GULP energy -200703.691934 kJ/mol
# GULP energy per Si atom -5575.102554 kJ/mol
# Density = 2.111630 g / cm^3
# Si number density = 21.164470 Si / 1000 Ang^3
#
#
#
# Elastic Constant Matrix: (Units=GPa)
#
#
# Indices 1 2 3 4 5 6 
#
# 1 63.4756 28.1974 34.4351 0.0000 0.0000 0.0000
# 2 28.1974 62.8073 2.4826 0.0000 0.0000 0.0000
# 3 34.4351 2.4826 119.4587 0.0000 0.0000 0.0000
# 4 0.0000 0.0000 0.0000 12.0954 0.0000 0.0000
# 5 0.0000 0.0000 0.0000 0.0000 31.9458 0.0000
# 6 0.0000 0.0000 0.0000 0.0000 0.0000 21.4749
#
#
#
# Elastic Compliance Matrix: (Units=1/GPa)
#
#
# Indices 1 2 3 4 5 6 
#
# 1 0.024088 -0.010548 -0.006724 0.000000 0.000000 0.000000
# 2 -0.010548 0.020554 0.002614 0.000000 0.000000 0.000000
# 3 -0.006724 0.002614 0.010255 0.000000 0.000000 0.000000
# 4 0.000000 0.000000 0.000000 0.082676 0.000000 0.000000
# 5 0.000000 0.000000 0.000000 0.000000 0.031303 0.000000
# 6 0.000000 0.000000 0.000000 0.000000 0.000000 0.046566
#
#
# Mechanical properties :
#
#
# Convention : Reuss Voigt Hill
#
# Bulk Modulus (GPa) = 39.09517 41.77466 40.43491
# Shear Modulus (GPa) = 19.74044 25.14498 22.44271
#
# Velocity S-wave (km/s) = 3.05735 3.45059 3.25990
# Velocity P-wave (km/s) = 5.56555 5.97129 5.77199
#
# Compressibility (1/GPa) = 0.02557861
#
# Stress axis : x y z
#
# Youngs Moduli (GPa) = 41.51464 48.65196 97.51215
#
# Poissons Ratio (x) = 0.51320 0.65571
# Poissons Ratio (y) = 0.43792 -0.25485
# Poissons Ratio (z) = 0.27916 -0.12715
#
# Static dielectric constant tensor:
#      x y z
#    x 1.775450 0.000000 0.000000 
#    y 0.000000 1.783950 0.000000 
#    z 0.000000 0.000000 1.802350 
# 
# From -- ./inp_files/6940.got.cif
#   From: 2010.05.17/outbox.cif.g08.bks.cpg/sg73_4_cif.got.tgz:6940.got - 2010.06.03 17:35:07.
