data_PCOD9529756
_publ_section_title
;
Structure prediction by ZEFSAII (Michael W. Deem and Ramdas Pophale) SiO2 
 PCOD9529756
Probable space group: I B C A 
;
_chemical_formula_sum "Si O2"
_cell_formula_units_Z 96
_cell_length_a 18.220346
_cell_length_b 12.093283
_cell_length_c 20.650783
_cell_angle_alpha 90.000000
_cell_angle_beta 90.000000
_cell_angle_gamma 90.000000
_cell_volume 4550.272010
_symmetry_space_group_name_H-M "I B C A "
_symmetry_group_IT_number 73
_symmetry_cell_setting 'orthorhombic'
loop_
_space_group_symop_operation_xyz
x,y,z
-x,1/2-y,z
x,-y,1/2-z
1/2-x,y,-z
-x,-y,-z
x,1/2+y,-z
-x,y,1/2+z
1/2+x,-y,z
1/2+x,1/2+y,1/2+z
1/2-x,-y,1/2+z
1/2+x,1/2-y,-z
-x,1/2+y,1/2-z
1/2-x,1/2-y,1/2-z
1/2+x,y,1/2-z
1/2-x,1/2+y,z
x,1/2-y,1/2+z
loop_
_atom_site_type_symbol
_atom_site_label
_atom_site_fract_x
_atom_site_fract_y
_atom_site_fract_z
Si Si1 0.355936 0.181102 0.464396
Si Si2 0.989901 0.434595 0.568031
Si Si3 0.766748 0.026408 0.124455
Si Si4 0.500000 0.250000 0.145828
Si Si5 0.114135 0.566914 0.595926
Si Si6 0.250000 0.871359 0.500000
Si Si7 0.905691 0.556438 0.684073
O O1 0.441149 0.173586 0.444805
O O2 0.307175 0.134050 0.405681
O O3 0.352823 0.096605 0.525396
O O4 0.320901 0.293246 0.489698
O O5 0.939083 0.500452 0.619271
O O6 0.000000 0.500000 0.500000
O O7 0.071121 0.449956 0.596751
O O8 0.684084 0.060721 0.142686
O O9 0.760456 0.941298 0.064631
O O10 0.819112 0.965493 0.175600
O O11 0.553201 0.162620 0.108544
O O12 0.440368 0.177772 0.184205
O O13 0.930880 0.500000 0.750000
#
# Coordination Sequence:
#
# PCOD9529756 Si02
#       7
#    16  16  16   8  16   8  16
#     4  10  18  33  52  85 129 163 211 265 329 391
#     4   8  18  34  61  86 125 166 212 270 320 390
#     4  11  21  35  60  90 131 164 217 275 331 387
#     4  10  22  40  72  88 118 182 222 252 342 418
#     4  10  17  37  57  90 121 164 217 270 326 397
#     4  12  18  30  58  90 124 174 202 266 348 388
#     4  10  22  41  67  93 131 174 214 276 331 392
#
# _framework density 21.097639000000001
#
# number of rings (size 3 to 8) (size 9 to 14) (size 15 to 20)
#    0.000    2.000    3.333    1.000    0.000    0.000 
#    3.000    4.167   14.667    0.000    0.000    0.000 
#    0.000    0.000    0.000    0.000    0.000    0.000 
#
# Total GULP energy -267251.730447 kJ/mol
# GULP energy per Si atom -5567.744384 kJ/mol
# Density = 2.104962 g / cm^3
# Si number density = 21.097639 Si / 1000 Ang^3
#
#
#
# Elastic Constant Matrix: (Units=GPa)
#
#
# Indices 1 2 3 4 5 6 
#
# 1 146.3399 38.2473 21.8055 0.0000 0.0000 0.0000
# 2 38.2473 64.9041 22.6978 0.0000 0.0000 0.0000
# 3 21.8055 22.6978 52.2834 0.0000 0.0000 0.0000
# 4 0.0000 0.0000 0.0000 13.4976 0.0000 0.0000
# 5 0.0000 0.0000 0.0000 0.0000 12.6552 0.0000
# 6 0.0000 0.0000 0.0000 0.0000 0.0000 53.6203
#
#
#
# Elastic Compliance Matrix: (Units=1/GPa)
#
#
# Indices 1 2 3 4 5 6 
#
# 1 0.008183 -0.004278 -0.001556 0.000000 0.000000 0.000000
# 2 -0.004278 0.020402 -0.007073 0.000000 0.000000 0.000000
# 3 -0.001556 -0.007073 0.022846 0.000000 0.000000 0.000000
# 4 0.000000 0.000000 0.000000 0.074087 0.000000 0.000000
# 5 0.000000 0.000000 0.000000 0.000000 0.079019 0.000000
# 6 0.000000 0.000000 0.000000 0.000000 0.000000 0.018650
#
#
# Mechanical properties :
#
#
# Convention : Reuss Voigt Hill
#
# Bulk Modulus (GPa) = 39.03552 47.66985 43.35268
# Shear Modulus (GPa) = 19.41449 28.00642 23.71045
#
# Velocity S-wave (km/s) = 3.03681 3.64739 3.35601
# Velocity P-wave (km/s) = 5.55326 6.35468 5.96744
#
# Compressibility (1/GPa) = 0.02561770
#
# Stress axis : x y z
#
# Youngs Moduli (GPa) = 122.19870 49.01488 43.77163
#
# Poissons Ratio (x) = 0.20970 0.06809
# Poissons Ratio (y) = 0.52281 0.30959
# Poissons Ratio (z) = 0.19010 0.34667
#
# Static dielectric constant tensor:
#      x y z
#    x 1.917260 0.000000 0.000000 
#    y 0.000000 1.830850 0.000000 
#    z 0.000000 0.000000 1.811140 
# 
# From -- ./inp_files/29820.got.cif
#   From: 2010.05.17/outbox.cif.g08.bks.cpg/sg73_15_cif.got.tgz:29820.got - 2010.06.03 17:35:07.
