data_PCOD9529158
_publ_section_title
;
Structure prediction by ZEFSAII (Michael W. Deem and Ramdas Pophale) SiO2 
 PCOD9529158
Probable space group: I B A M
;
_chemical_formula_sum "Si O2"
_cell_formula_units_Z 68
_cell_length_a 22.389748
_cell_length_b 15.747818
_cell_length_c 8.985110
_cell_angle_alpha 90.000000
_cell_angle_beta 90.000000
_cell_angle_gamma 90.000000
_cell_volume 3168.057029
_symmetry_space_group_name_H-M "I B A M"
_symmetry_group_IT_number 72
_symmetry_cell_setting 'orthorhombic'
loop_
_space_group_symop_operation_xyz
x,y,z
-x,-y,z
x,-y,1/2-z
-x,y,1/2-z
-x,-y,-z
x,y,-z
-x,y,1/2+z
x,-y,1/2+z
1/2+x,1/2+y,1/2+z
1/2-x,1/2-y,1/2+z
1/2+x,1/2-y,-z
1/2-x,1/2+y,-z
1/2-x,1/2-y,1/2-z
1/2+x,1/2+y,1/2-z
1/2-x,1/2+y,z
1/2+x,1/2-y,z
loop_
_atom_site_type_symbol
_atom_site_label
_atom_site_fract_x
_atom_site_fract_y
_atom_site_fract_z
Si Si1 0.408226 0.141974 0.839173
Si Si2 0.203957 0.407035 0.824272
Si Si3 0.560031 0.334370 0.328872
Si Si4 0.500000 0.000000 0.250000
Si Si5 0.822757 0.094077 0.321663
O O1 0.358413 0.137683 0.712367
O O2 0.440854 0.231941 0.832832
O O3 0.455017 0.064894 0.830961
O O4 0.376606 0.136258 0.000000
O O5 0.197042 0.500000 0.750000
O O6 0.261770 0.366682 0.745122
O O7 0.213955 0.413830 0.000000
O O8 0.500000 0.366009 0.250000
O O9 0.564382 0.364506 0.500000
O O10 0.618333 0.360004 0.236969
O O11 0.820445 0.090607 0.500000
O O12 0.825057 0.000000 0.250000
#
# Coordination Sequence:
#
# PCOD9529158 Si02
#       5
#    16  16  16   4  16
#     4  11  24  40  63  95 132 172 215 261 310 373
#     4  11  22  38  63  93 127 167 213 264 316 376
#     4  11  24  43  64  94 131 167 211 263 319 377
#     4  12  22  40  68  98 132 176 216 252 306 368
#     4  11  23  43  69  95 125 164 210 263 322 381
#
# _framework density 21.464261
#
# number of rings (size 3 to 8) (size 9 to 14) (size 15 to 20)
#    0.000    0.941    2.353    6.706    0.000    4.235 
#    0.000    2.353    0.000    0.000    0.000    0.000 
#    0.000    0.000    0.000    0.000    0.000    0.000 
#
# Total GULP energy -190021.092856 kJ/mol
# GULP energy per Si atom -5588.855672 kJ/mol
# Density = 2.141541 g / cm^3
# Si number density = 21.464261 Si / 1000 Ang^3
#
#
#
# Elastic Constant Matrix: (Units=GPa)
#
#
# Indices 1 2 3 4 5 6 
#
# 1 131.3251 5.0172 67.6215 0.0000 0.0000 0.0000
# 2 5.0172 32.1044 12.3312 0.0000 0.0000 0.0000
# 3 67.6215 12.3312 213.5777 0.0000 0.0000 0.0000
# 4 0.0000 0.0000 0.0000 21.0767 0.0000 0.0000
# 5 0.0000 0.0000 0.0000 0.0000 26.5245 0.0000
# 6 0.0000 0.0000 0.0000 0.0000 0.0000 17.5647
#
#
#
# Elastic Compliance Matrix: (Units=1/GPa)
#
#
# Indices 1 2 3 4 5 6 
#
# 1 0.009101 -0.000323 -0.002863 0.000000 0.000000 0.000000
# 2 -0.000323 0.031866 -0.001738 0.000000 0.000000 0.000000
# 3 -0.002863 -0.001738 0.005689 0.000000 0.000000 0.000000
# 4 0.000000 0.000000 0.000000 0.047446 0.000000 0.000000
# 5 0.000000 0.000000 0.000000 0.000000 0.037701 0.000000
# 6 0.000000 0.000000 0.000000 0.000000 0.000000 0.056932
#
#
# Mechanical properties :
#
#
# Convention : Reuss Voigt Hill
#
# Bulk Modulus (GPa) = 27.16669 60.77190 43.96929
# Shear Modulus (GPa) = 23.71334 32.50234 28.10784
#
# Velocity S-wave (km/s) = 3.32743 3.89556 3.62265
# Velocity P-wave (km/s) = 5.23895 6.97197 6.16664
#
# Compressibility (1/GPa) = 0.03680978
#
# Stress axis : x y z
#
# Youngs Moduli (GPa) = 109.87583 31.38118 175.78080
#
# Poissons Ratio (x) = 0.01013 0.50325
# Poissons Ratio (y) = 0.03545 0.30545
# Poissons Ratio (z) = 0.31457 0.05453
#
# Static dielectric constant tensor:
#      x y z
#    x 1.785070 0.000000 0.000000 
#    y 0.000000 1.792470 0.000000 
#    z 0.000000 0.000000 1.769270 
# 
# From -- ./inp_files/4405.got.cif
#   From: 2010.05.17/outbox.cif.g08.bks.cpg/sg72_3_cif.got.tgz:4405.got - 2010.06.03 17:03:01.
