data_PCOD9529066
_publ_section_title
;
Structure prediction by ZEFSAII (Michael W. Deem and Ramdas Pophale) SiO2 
 PCOD9529066
Probable space group: I B A M
;
_chemical_formula_sum "Si O2"
_cell_formula_units_Z 116
_cell_length_a 7.806239
_cell_length_b 28.555713
_cell_length_c 25.022314
_cell_angle_alpha 90.000000
_cell_angle_beta 90.000000
_cell_angle_gamma 90.000000
_cell_volume 5577.792087
_symmetry_space_group_name_H-M "I B A M"
_symmetry_group_IT_number 72
_symmetry_cell_setting 'orthorhombic'
loop_
_space_group_symop_operation_xyz
x,y,z
-x,-y,z
x,-y,1/2-z
-x,y,1/2-z
-x,-y,-z
x,y,-z
-x,y,1/2+z
x,-y,1/2+z
1/2+x,1/2+y,1/2+z
1/2-x,1/2-y,1/2+z
1/2+x,1/2-y,-z
1/2-x,1/2+y,-z
1/2-x,1/2-y,1/2-z
1/2+x,1/2+y,1/2-z
1/2-x,1/2+y,z
1/2+x,1/2-y,z
loop_
_atom_site_type_symbol
_atom_site_label
_atom_site_fract_x
_atom_site_fract_y
_atom_site_fract_z
Si Si1 0.171009 0.469102 0.823078
Si Si2 0.664423 0.466564 0.560856
Si Si3 0.125271 0.288883 0.628416
Si Si4 0.778439 0.138309 0.058399
Si Si5 0.948827 0.221390 0.439335
Si Si6 0.409360 0.136033 0.668475
Si Si7 0.842795 0.210901 0.215284
Si Si8 0.500000 0.500000 0.750000
O O1 0.218448 0.474759 0.886529
O O2 0.105145 0.416400 0.811979
O O3 0.352588 0.477137 0.790436
O O4 0.000000 0.500000 0.811528
O O5 0.500000 0.500000 0.565507
O O6 0.736680 0.474370 0.500000
O O7 0.617711 0.411007 0.562446
O O8 0.306379 0.295544 0.601604
O O9 0.110414 0.241718 0.663683
O O10 0.002461 0.273229 0.579680
O O11 0.080331 0.333066 0.665098
O O12 0.649274 0.135536 0.106927
O O13 0.897135 0.183983 0.062074
O O14 0.695409 0.138290 0.000000
O O15 0.883742 0.223201 0.500000
O O16 0.277851 0.168811 0.699577
O O17 0.750000 0.250000 0.250000
O O18 0.000000 0.193525 0.250000
#
# Coordination Sequence:
#
# PCOD9529066 Si02
#       8
#    16  16  16  16  16  16  16   4
#     4  11  26  49  74 107 143 181 235 296 357 430
#     4   9  18  38  70 102 135 178 229 290 358 422
#     4  12  22  40  57  90 131 167 224 276 325 396
#     4   9  19  36  60  91 130 171 216 264 329 407
#     4  11  21  35  59  89 132 185 220 263 329 407
#     4  11  24  43  67  99 129 172 219 281 342 395
#     4  12  23  41  61  88 124 169 223 279 328 383
#     4  12  26  56  74  98 140 188 234 286 356 418
#
# _framework density 20.796759999999999
#
# number of rings (size 3 to 8) (size 9 to 14) (size 15 to 20)
#    0.000    1.241    4.828    0.621    0.966    3.586 
#    4.966    0.000    0.000    0.000    0.000    0.000 
#    0.000    0.000    0.000    0.000    0.000    0.000 
#
# Total GULP energy -323198.234580 kJ/mol
# GULP energy per Si atom -5572.383355 kJ/mol
# Density = 2.074943 g / cm^3
# Si number density = 20.796760 Si / 1000 Ang^3
#
#
#
# Elastic Constant Matrix: (Units=GPa)
#
#
# Indices 1 2 3 4 5 6 
#
# 1 72.5131 32.6679 28.3091 0.0000 0.0000 0.0000
# 2 32.6679 134.6298 28.0009 0.0000 0.0000 0.0000
# 3 28.3091 28.0009 110.4700 0.0000 0.0000 0.0000
# 4 0.0000 0.0000 0.0000 25.2869 0.0000 0.0000
# 5 0.0000 0.0000 0.0000 0.0000 31.6550 0.0000
# 6 0.0000 0.0000 0.0000 0.0000 0.0000 27.8440
#
#
#
# Elastic Compliance Matrix: (Units=1/GPa)
#
#
# Indices 1 2 3 4 5 6 
#
# 1 0.016622 -0.003322 -0.003417 0.000000 0.000000 0.000000
# 2 -0.003322 0.008505 -0.001304 0.000000 0.000000 0.000000
# 3 -0.003417 -0.001304 0.010259 0.000000 0.000000 0.000000
# 4 0.000000 0.000000 0.000000 0.039546 0.000000 0.000000
# 5 0.000000 0.000000 0.000000 0.000000 0.031591 0.000000
# 6 0.000000 0.000000 0.000000 0.000000 0.000000 0.035914
#
#
# Mechanical properties :
#
#
# Convention : Reuss Voigt Hill
#
# Bulk Modulus (GPa) = 51.82147 55.06318 53.44232
# Shear Modulus (GPa) = 30.31087 32.19950 31.25519
#
# Velocity S-wave (km/s) = 3.82184 3.93911 3.88091
# Velocity P-wave (km/s) = 6.66689 6.87190 6.77017
#
# Compressibility (1/GPa) = 0.01929702
#
# Stress axis : x y z
#
# Youngs Moduli (GPa) = 60.16289 117.57419 97.47933
#
# Poissons Ratio (x) = 0.39064 0.33312
# Poissons Ratio (y) = 0.19989 0.12715
# Poissons Ratio (z) = 0.20560 0.15337
#
# Static dielectric constant tensor:
#      x y z
#    x 1.738510 0.000000 0.000000 
#    y 0.000000 1.727790 0.000000 
#    z 0.000000 0.000000 1.878860 
# 
# From -- ./inp_files/42705.got.cif
#   From: 2010.05.17/outbox.cif.g08.bks.cpg/sg72_22_cif.got.tgz:42705.got - 2010.06.03 17:03:01.
