data_PCOD9529995
_publ_section_title
;
Structure prediction by ZEFSAII (Michael W. Deem and Ramdas Pophale) SiO2 
 PCOD9529995
Probable space group: I B C A 
;
_chemical_formula_sum "Si O2"
_cell_formula_units_Z 104
_cell_length_a 18.317647
_cell_length_b 25.386354
_cell_length_c 11.701984
_cell_angle_alpha 90.000000
_cell_angle_beta 90.000000
_cell_angle_gamma 90.000000
_cell_volume 5441.636369
_symmetry_space_group_name_H-M "I B C A "
_symmetry_group_IT_number 73
_symmetry_cell_setting 'orthorhombic'
loop_
_space_group_symop_operation_xyz
x,y,z
-x,1/2-y,z
x,-y,1/2-z
1/2-x,y,-z
-x,-y,-z
x,1/2+y,-z
-x,y,1/2+z
1/2+x,-y,z
1/2+x,1/2+y,1/2+z
1/2-x,-y,1/2+z
1/2+x,1/2-y,-z
-x,1/2+y,1/2-z
1/2-x,1/2-y,1/2-z
1/2+x,y,1/2-z
1/2-x,1/2+y,z
x,1/2-y,1/2+z
loop_
_atom_site_type_symbol
_atom_site_label
_atom_site_fract_x
_atom_site_fract_y
_atom_site_fract_z
Si Si1 0.750000 0.156532 0.500000
Si Si2 0.449787 0.002763 0.613950
Si Si3 0.890189 0.118971 0.867569
Si Si4 0.016246 0.691943 0.045978
Si Si5 0.153146 0.286007 0.310303
Si Si6 0.888881 0.887896 0.893420
Si Si7 0.261504 0.686605 0.371736
O O1 0.799887 0.189529 0.413907
O O2 0.805298 0.123379 0.576613
O O3 0.409738 0.058943 0.603979
O O4 0.477459 0.000000 0.750000
O O5 0.500000 0.000000 0.500000
O O6 0.402907 0.949959 0.598213
O O7 0.907802 0.126541 0.735062
O O8 0.805108 0.132276 0.881948
O O9 0.940996 0.161374 0.931207
O O10 0.069025 0.705050 0.155767
O O11 0.000000 0.750000 0.994650
O O12 0.062543 0.650250 0.972203
O O13 0.185532 0.312673 0.196343
O O14 0.181701 0.225800 0.307048
O O15 0.250000 0.705894 0.500000
#
# Coordination Sequence:
#
# PCOD9529995 Si02
#       7
#     8  16  16  16  16  16  16
#     4  10  18  38  60  84 112 160 212 234 300 364
#     4  10  21  42  66  90 123 165 207 262 322 374
#     4  11  22  40  61  91 126 161 210 256 318 365
#     4  11  22  36  59  96 126 160 208 254 309 377
#     4  10  21  36  58  84 121 161 203 241 301 369
#     4  10  22  39  65  85 123 165 208 261 306 379
#     4  11  22  38  58  84 122 166 196 249 307 366
#
# _framework density 19.111899000000001
#
# number of rings (size 3 to 8) (size 9 to 14) (size 15 to 20)
#    0.000    1.538    5.385    0.000    0.000    1.846 
#    1.385    0.000    0.000    0.000    0.000    0.000 
#    0.000    0.000    0.000    0.000    0.000    0.000 
#
# Total GULP energy -289563.491179 kJ/mol
# GULP energy per Si atom -5568.528677 kJ/mol
# Density = 1.906840 g / cm^3
# Si number density = 19.111899 Si / 1000 Ang^3
#
#
#
# Elastic Constant Matrix: (Units=GPa)
#
#
# Indices 1 2 3 4 5 6 
#
# 1 39.1010 23.7828 2.5907 0.0000 0.0000 0.0000
# 2 23.7828 125.3750 23.5377 0.0000 0.0000 0.0000
# 3 2.5907 23.5377 48.1066 0.0000 0.0000 0.0000
# 4 0.0000 0.0000 0.0000 6.5674 0.0000 0.0000
# 5 0.0000 0.0000 0.0000 0.0000 23.1584 0.0000
# 6 0.0000 0.0000 0.0000 0.0000 0.0000 -73.5183
#
#
#
# Elastic Compliance Matrix: (Units=1/GPa)
#
#
# Indices 1 2 3 4 5 6 
#
# 1 0.028978 -0.005730 0.001243 0.000000 0.000000 0.000000
# 2 -0.005730 0.009916 -0.004543 0.000000 0.000000 0.000000
# 3 0.001243 -0.004543 0.022943 0.000000 0.000000 0.000000
# 4 0.000000 0.000000 0.000000 0.152268 0.000000 0.000000
# 5 0.000000 0.000000 0.000000 0.000000 0.043181 0.000000
# 6 0.000000 0.000000 0.000000 0.000000 0.000000 -0.013602
#
#
# Mechanical properties :
#
#
# Convention : Reuss Voigt Hill
#
# Bulk Modulus (GPa) = 22.84335 34.71166 28.77750
# Shear Modulus (GPa) = 18.09388 2.08626 10.09007
#
# Velocity S-wave (km/s) = 3.08024 1.04593 2.30020
# Velocity P-wave (km/s) = 4.96275 4.43400 4.70581
#
# Compressibility (1/GPa) = 0.04377641
#
# Stress axis : x y z
#
# Youngs Moduli (GPa) = 34.50914 100.84724 43.58609
#
# Poissons Ratio (x) = 0.57788 -0.05418
# Poissons Ratio (y) = 0.19775 0.19802
# Poissons Ratio (z) = -0.04290 0.45816
#
# Static dielectric constant tensor:
#      x y z
#    x 1.685010 0.000000 0.000000 
#    y 0.000000 1.690870 0.000000 
#    z 0.000000 0.000000 1.715110 
# 
# From -- ./inp_files/12188.got.cif
#   From: 2010.05.17/outbox.cif.g08.bks.cpg/sg73_7_cif.got.tgz:12188.got - 2010.06.03 17:35:07.
