data_PCOD9529642
_publ_section_title
;
Structure prediction by ZEFSAII (Michael W. Deem and Ramdas Pophale) SiO2 
 PCOD9529642
Probable space group: I B C A 
;
_chemical_formula_sum "Si O2"
_cell_formula_units_Z 64
_cell_length_a 5.152607
_cell_length_b 13.750120
_cell_length_c 35.205006
_cell_angle_alpha 90.000000
_cell_angle_beta 90.000000
_cell_angle_gamma 90.000000
_cell_volume 2494.238223
_symmetry_space_group_name_H-M "I B C A "
_symmetry_group_IT_number 73
_symmetry_cell_setting 'orthorhombic'
loop_
_space_group_symop_operation_xyz
x,y,z
-x,1/2-y,z
x,-y,1/2-z
1/2-x,y,-z
-x,-y,-z
x,1/2+y,-z
-x,y,1/2+z
1/2+x,-y,z
1/2+x,1/2+y,1/2+z
1/2-x,-y,1/2+z
1/2+x,1/2-y,-z
-x,1/2+y,1/2-z
1/2-x,1/2-y,1/2-z
1/2+x,y,1/2-z
1/2-x,1/2+y,z
x,1/2-y,1/2+z
loop_
_atom_site_type_symbol
_atom_site_label
_atom_site_fract_x
_atom_site_fract_y
_atom_site_fract_z
Si Si1 0.553070 0.862946 0.573482
Si Si2 0.890309 0.611833 0.765581
Si Si3 0.758928 0.063501 0.848897
Si Si4 0.437346 0.134051 0.035923
O O1 0.500000 0.750000 0.564893
O O2 0.680020 0.873842 0.614612
O O3 0.257148 0.899680 0.569734
O O4 0.769948 0.902969 0.543891
O O5 0.930234 0.500000 0.750000
O O6 0.674672 0.654683 0.737923
O O7 0.790953 0.612664 0.808360
O O8 0.551923 0.974718 0.849811
O O9 0.500000 0.250000 0.034941
O O10 0.250000 0.113777 0.000000
#
# Coordination Sequence:
#
# PCOD9529642 Si02
#       4
#    16  16  16  16
#     4  10  22  36  54  84 117 142 177 234 289 329
#     4  10  16  30  50  79 100 132 187 245 255 297
#     4  12  21  34  57  82 111 148 186 231 278 334
#     4  10  18  34  59  83 105 142 192 233 263 319
#
# _framework density 25.659137999999999
#
# number of rings (size 3 to 8) (size 9 to 14) (size 15 to 20)
#    0.000    1.500    5.000    4.500    0.000    0.000 
#    0.000    0.000    0.000   16.500    0.000    0.000 
#    0.000    0.000    0.000    0.000    0.000    0.000 
#
# Total GULP energy -178692.294799 kJ/mol
# GULP energy per Si atom -5584.134212 kJ/mol
# Density = 2.560074 g / cm^3
# Si number density = 25.659138 Si / 1000 Ang^3
#
#
#
# Elastic Constant Matrix: (Units=GPa)
#
#
# Indices 1 2 3 4 5 6 
#
# 1 140.4606 5.5591 36.8688 0.0000 0.0000 0.0000
# 2 5.5591 75.9104 -5.5788 0.0000 0.0000 0.0000
# 3 36.8688 -5.5788 137.6469 0.0000 0.0000 0.0000
# 4 0.0000 0.0000 0.0000 -9.2093 0.0000 0.0000
# 5 0.0000 0.0000 0.0000 0.0000 42.7987 0.0000
# 6 0.0000 0.0000 0.0000 0.0000 0.0000 1.0485
#
#
#
# Elastic Compliance Matrix: (Units=1/GPa)
#
#
# Indices 1 2 3 4 5 6 
#
# 1 0.007697 -0.000717 -0.002091 0.000000 0.000000 0.000000
# 2 -0.000717 0.013280 0.000730 0.000000 0.000000 0.000000
# 3 -0.002091 0.000730 0.007855 0.000000 0.000000 0.000000
# 4 0.000000 0.000000 0.000000 -0.108586 0.000000 0.000000
# 5 0.000000 0.000000 0.000000 0.000000 0.023365 0.000000
# 6 0.000000 0.000000 0.000000 0.000000 0.000000 0.953760
#
#
# Mechanical properties :
#
#
# Convention : Reuss Voigt Hill
#
# Bulk Modulus (GPa) = 40.52578 47.52401 44.02489
# Shear Modulus (GPa) = 5.49601 28.07218 16.78409
#
# Velocity S-wave (km/s) = 1.46512 3.31122 2.56035
# Velocity P-wave (km/s) = 4.32323 5.76024 5.09267
#
# Compressibility (1/GPa) = 0.02467565
#
# Stress axis : x y z
#
# Youngs Moduli (GPa) = 129.92792 75.30335 127.31495
#
# Poissons Ratio (x) = 0.05401 0.26617
# Poissons Ratio (y) = 0.09319 -0.09298
# Poissons Ratio (z) = 0.27163 -0.05500
#
# Static dielectric constant tensor:
#      x y z
#    x 2.044230 0.000000 0.000000 
#    y 0.000000 2.370010 0.000000 
#    z 0.000000 0.000000 2.030480 
# 
# From -- ./inp_files/1762.got.cif
#   From: 2010.05.17/outbox.cif.g08.bks.cpg/sg73_1_cif.got.tgz:1762.got - 2010.06.03 17:35:07.
