data_PCOD9529379
_publ_section_title
;
Structure prediction by ZEFSAII (Michael W. Deem and Ramdas Pophale) SiO2 
 PCOD9529379
Probable space group: I B A M
;
_chemical_formula_sum "Si O2"
_cell_formula_units_Z 48
_cell_length_a 15.559675
_cell_length_b 8.125818
_cell_length_c 14.969295
_cell_angle_alpha 90.000000
_cell_angle_beta 90.000000
_cell_angle_gamma 90.000000
_cell_volume 1892.644118
_symmetry_space_group_name_H-M "I B A M"
_symmetry_group_IT_number 72
_symmetry_cell_setting 'orthorhombic'
loop_
_space_group_symop_operation_xyz
x,y,z
-x,-y,z
x,-y,1/2-z
-x,y,1/2-z
-x,-y,-z
x,y,-z
-x,y,1/2+z
x,-y,1/2+z
1/2+x,1/2+y,1/2+z
1/2-x,1/2-y,1/2+z
1/2+x,1/2-y,-z
1/2-x,1/2+y,-z
1/2-x,1/2-y,1/2-z
1/2+x,1/2+y,1/2-z
1/2-x,1/2+y,z
1/2+x,1/2-y,z
loop_
_atom_site_type_symbol
_atom_site_label
_atom_site_fract_x
_atom_site_fract_y
_atom_site_fract_z
Si Si1 0.689513 0.143063 0.683828
Si Si2 0.888752 0.237152 0.500000
Si Si3 0.238163 0.994916 0.000000
Si Si4 0.482839 0.694618 0.648937
O O1 0.750000 0.250000 0.750000
O O2 0.737318 0.065299 0.598779
O O3 0.615313 0.251862 0.637983
O O4 0.656488 0.000000 0.750000
O O5 0.862780 0.043648 0.500000
O O6 0.798620 0.333260 0.500000
O O7 0.948579 0.277378 0.416191
O O8 0.500000 0.500000 0.642287
O O9 0.500000 0.742962 0.750000
#
# Coordination Sequence:
#
# PCOD9529379 Si02
#       4
#    16   8   8  16
#     4  12  28  49  83 116 159 210 271 332 405 481
#     4  12  28  49  78 110 162 208 268 326 399 480
#     4  12  27  47  77 115 154 207 269 323 399 469
#     4  11  26  47  75 112 156 206 260 332 405 470
#
# _framework density 25.361345
#
# number of rings (size 3 to 8) (size 9 to 14) (size 15 to 20)
#    0.000    0.333    0.000    7.500   14.000    6.000 
#    0.000    0.000    0.000    0.000    0.000    0.000 
#    0.000    0.000    0.000    0.000    0.000    0.000 
#
# Total GULP energy -134181.577130 kJ/mol
# GULP energy per Si atom -5590.899047 kJ/mol
# Density = 2.530362 g / cm^3
# Si number density = 25.361345 Si / 1000 Ang^3
#
#
#
# Elastic Constant Matrix: (Units=GPa)
#
#
# Indices 1 2 3 4 5 6 
#
# 1 124.0393 45.0219 37.9406 0.0000 0.0000 0.0000
# 2 45.0219 97.6377 44.1674 0.0000 0.0000 0.0000
# 3 37.9406 44.1674 193.1758 0.0000 0.0000 0.0000
# 4 0.0000 0.0000 0.0000 55.2901 0.0000 0.0000
# 5 0.0000 0.0000 0.0000 0.0000 45.2558 0.0000
# 6 0.0000 0.0000 0.0000 0.0000 0.0000 31.0862
#
#
#
# Elastic Compliance Matrix: (Units=1/GPa)
#
#
# Indices 1 2 3 4 5 6 
#
# 1 0.009853 -0.004091 -0.001000 0.000000 0.000000 0.000000
# 2 -0.004091 0.013122 -0.002197 0.000000 0.000000 0.000000
# 3 -0.001000 -0.002197 0.005875 0.000000 0.000000 0.000000
# 4 0.000000 0.000000 0.000000 0.018086 0.000000 0.000000
# 5 0.000000 0.000000 0.000000 0.000000 0.022097 0.000000
# 6 0.000000 0.000000 0.000000 0.000000 0.000000 0.032169
#
#
# Mechanical properties :
#
#
# Convention : Reuss Voigt Hill
#
# Bulk Modulus (GPa) = 70.05204 74.34583 72.19894
# Shear Modulus (GPa) = 41.48185 45.50796 43.49491
#
# Velocity S-wave (km/s) = 4.04868 4.24061 4.14576
# Velocity P-wave (km/s) = 7.03828 7.30447 7.17261
#
# Compressibility (1/GPa) = 0.01427510
#
# Stress axis : x y z
#
# Youngs Moduli (GPa) = 101.49586 76.20777 170.20566
#
# Poissons Ratio (x) = 0.31176 0.17016
# Poissons Ratio (y) = 0.41521 0.37390
# Poissons Ratio (z) = 0.10147 0.16741
#
# Static dielectric constant tensor:
#      x y z
#    x 2.251810 0.000000 0.000000 
#    y 0.000000 2.152050 0.000000 
#    z 0.000000 0.000000 1.881850 
# 
# From -- ./inp_files/29973.got.cif
#   From: 2010.05.17/outbox.cif.g08.bks.cpg/sg72_15_cif.got.tgz:29973.got - 2010.06.03 17:03:01.
