data_PCOD9529661
_publ_section_title
;
Structure prediction by ZEFSAII (Michael W. Deem and Ramdas Pophale) SiO2 
 PCOD9529661
Probable space group: I B C A 
;
_chemical_formula_sum "Si O2"
_cell_formula_units_Z 88
_cell_length_a 23.932966
_cell_length_b 5.324285
_cell_length_c 29.819580
_cell_angle_alpha 90.000000
_cell_angle_beta 90.000000
_cell_angle_gamma 90.000000
_cell_volume 3799.787770
_symmetry_space_group_name_H-M "I B C A "
_symmetry_group_IT_number 73
_symmetry_cell_setting 'orthorhombic'
loop_
_space_group_symop_operation_xyz
x,y,z
-x,1/2-y,z
x,-y,1/2-z
1/2-x,y,-z
-x,-y,-z
x,1/2+y,-z
-x,y,1/2+z
1/2+x,-y,z
1/2+x,1/2+y,1/2+z
1/2-x,-y,1/2+z
1/2+x,1/2-y,-z
-x,1/2+y,1/2-z
1/2-x,1/2-y,1/2-z
1/2+x,y,1/2-z
1/2-x,1/2+y,z
x,1/2-y,1/2+z
loop_
_atom_site_type_symbol
_atom_site_label
_atom_site_fract_x
_atom_site_fract_y
_atom_site_fract_z
Si Si1 0.000000 0.750000 0.774473
Si Si2 0.436268 0.291011 0.122135
Si Si3 0.895687 0.806302 0.334747
Si Si4 0.772993 0.982172 0.551223
Si Si5 0.098395 0.930062 0.028187
Si Si6 0.273177 0.767250 0.198554
O O1 0.021373 0.500000 0.750000
O O2 0.947849 0.650715 0.802426
O O3 0.500000 0.250000 0.138439
O O4 0.406154 0.527902 0.145615
O O5 0.439715 0.371181 0.070447
O O6 0.401749 0.033230 0.129489
O O7 0.838400 0.818681 0.307282
O O8 0.750000 0.012448 0.500000
O O9 0.739363 0.751811 0.572477
O O10 0.837883 0.920267 0.546590
O O11 0.090776 0.705466 0.992663
O O12 0.250000 0.750000 0.250000
O O13 0.259499 0.499459 0.177505
#
# Coordination Sequence:
#
# PCOD9529661 Si02
#       6
#     8  16  16  16  16  16
#     4  12  26  40  78 114 126 182 250 292 330 416
#     4  12  26  48  69  99 146 195 230 310 374 415
#     4  12  25  49  71 102 151 187 236 288 364 433
#     4  10  16  32  57  84 120 158 207 289 354 386
#     4  12  23  39  67  99 127 181 245 299 353 416
#     4  10  23  42  70 101 140 186 222 284 346 419
#
# _framework density 23.159186999999999
#
# number of rings (size 3 to 8) (size 9 to 14) (size 15 to 20)
#    0.000    0.727    5.455    3.273    5.091    0.727 
#    0.000    5.455    0.000    0.000    0.000    0.000 
#    0.000    0.000    0.000    0.000    0.000    0.000 
#
# Total GULP energy -246002.728145 kJ/mol
# GULP energy per Si atom -5590.971094 kJ/mol
# Density = 2.310648 g / cm^3
# Si number density = 23.159187 Si / 1000 Ang^3
#
#
#
# Elastic Constant Matrix: (Units=GPa)
#
#
# Indices 1 2 3 4 5 6 
#
# 1 98.7490 -6.5081 8.1677 0.0000 0.0000 0.0000
# 2 -6.5081 145.1755 -0.8645 0.0000 0.0000 0.0000
# 3 8.1677 -0.8645 37.3154 0.0000 0.0000 0.0000
# 4 0.0000 0.0000 0.0000 24.5336 0.0000 0.0000
# 5 0.0000 0.0000 0.0000 0.0000 38.3990 0.0000
# 6 0.0000 0.0000 0.0000 0.0000 0.0000 38.7705
#
#
#
# Elastic Compliance Matrix: (Units=1/GPa)
#
#
# Indices 1 2 3 4 5 6 
#
# 1 0.010343 0.000450 -0.002253 0.000000 0.000000 0.000000
# 2 0.000450 0.006909 0.000062 0.000000 0.000000 0.000000
# 3 -0.002253 0.000062 0.027293 0.000000 0.000000 0.000000
# 4 0.000000 0.000000 0.000000 0.040760 0.000000 0.000000
# 5 0.000000 0.000000 0.000000 0.000000 0.026042 0.000000
# 6 0.000000 0.000000 0.000000 0.000000 0.000000 0.025793
#
#
# Mechanical properties :
#
#
# Convention : Reuss Voigt Hill
#
# Bulk Modulus (GPa) = 24.35375 31.42556 27.88965
# Shear Modulus (GPa) = 32.40215 39.03695 35.71955
#
# Velocity S-wave (km/s) = 3.74452 4.11005 3.93154
# Velocity P-wave (km/s) = 5.40684 6.01017 5.71647
#
# Compressibility (1/GPa) = 0.04106144
#
# Stress axis : x y z
#
# Youngs Moduli (GPa) = 96.68613 144.74369 36.63909
#
# Poissons Ratio (x) = -0.06517 0.08256
# Poissons Ratio (y) = -0.04353 -0.00225
# Poissons Ratio (z) = 0.21787 -0.00890
#
# Static dielectric constant tensor:
#      x y z
#    x 1.838640 0.000000 0.000000 
#    y 0.000000 1.719920 0.000000 
#    z 0.000000 0.000000 1.876660 
# 
# From -- ./inp_files/33263.got.cif
#   From: 2010.05.17/outbox.cif.g08.bks.cpg/sg73_17_cif.got.tgz:33263.got - 2010.06.03 17:35:07.
