data_PCOD9529566
_publ_section_title
;
Structure prediction by ZEFSAII (Michael W. Deem and Ramdas Pophale) SiO2 
 PCOD9529566
Probable space group: I B A M
;
_chemical_formula_sum "Si O2"
_cell_formula_units_Z 58
_cell_length_a 30.000000
_cell_length_b 24.000000
_cell_length_c 9.000000
_cell_angle_alpha 90.000000
_cell_angle_beta 90.000000
_cell_angle_gamma 90.000000
_cell_volume 6480.000000
_symmetry_space_group_name_H-M "I B A M"
_symmetry_group_IT_number 72
_symmetry_cell_setting 'orthorhombic'
loop_
_space_group_symop_operation_xyz
x,y,z
-x,-y,z
x,-y,1/2-z
-x,y,1/2-z
-x,-y,-z
x,y,-z
-x,y,1/2+z
x,-y,1/2+z
1/2+x,1/2+y,1/2+z
1/2-x,1/2-y,1/2+z
1/2+x,1/2-y,-z
1/2-x,1/2+y,-z
1/2-x,1/2-y,1/2-z
1/2+x,1/2+y,1/2-z
1/2-x,1/2+y,z
1/2+x,1/2-y,z
loop_
_atom_site_type_symbol
_atom_site_label
_atom_site_fract_x
_atom_site_fract_y
_atom_site_fract_z
Si Si1 0.400601 0.831292 0.679919
Si Si2 0.288606 0.329021 0.822752
Si Si3 0.950061 0.560210 0.182268
Si Si4 0.548287 0.284798 0.321839
Si Si5 0.812807 0.287690 0.676892
Si Si6 0.669489 0.559531 0.678689
Si Si7 0.577148 0.588247 0.827735
Si Si8 0.000000 0.000000 0.250000
O O1 0.402174 0.837851 0.500000
O O2 0.423099 0.885386 0.758258
O O3 0.424090 0.771330 0.717647
O O4 0.350554 0.823081 0.740110
O O5 0.235732 0.316505 0.804516
O O6 0.311260 0.274519 0.747749
O O7 0.304690 0.386659 0.747312
O O8 0.298547 0.330290 0.000000
O O9 0.933936 0.500000 0.250000
O O10 0.000000 0.566356 0.250000
O O11 0.950620 0.558414 0.000000
O O12 0.500000 0.279250 0.250000
O O13 0.544779 0.284860 0.500000
O O14 0.566026 0.347347 0.283485
O O15 0.821661 0.283735 0.500000
O O16 0.683885 0.500000 0.750000
O O17 0.674013 0.558230 0.500000
O O18 0.617616 0.567651 0.725265
O O19 0.535215 0.545107 0.820431
O O20 0.592192 0.589217 0.000000
#
# Coordination Sequence:
#
# PCOD9529566 Si02
#       8
#    16  16  16  16  16  16  16   4
#     4  11  22  37  59  88 123 160 197 244 302 354
#     4  10  21  40  64  89 120 153 193 243 296 356
#     4  11  22  39  62  88 120 157 201 245 292 356
#     4  10  22  37  54  80 115 156 198 245 294 343
#     4  10  21  38  63  93 120 153 194 240 296 355
#     4  12  25  40  61  87 116 153 198 245 299 355
#     4  11  23  39  58  84 118 158 207 254 302 351
#     4  12  22  36  64  82 118 164 212 256 302 352
#
# _framework density 8.9506169999999994
#
# number of rings (size 3 to 8) (size 9 to 14) (size 15 to 20)
#    0.000    1.241    1.379    5.586    0.000    6.069 
#    0.000    0.690    0.000    3.310    0.000    0.000 
#    0.000    0.000    0.000    0.000    0.000    0.000 
#
# Total GULP energy -323779.119829 kJ/mol
# GULP energy per Si atom -5582.398618 kJ/mol
# Density = 0.893025 g / cm^3
# Si number density = 8.950617 Si / 1000 Ang^3
#
#
#
# Elastic Constant Matrix: (Units=GPa)
#
#
# Indices 1 2 3 4 5 6 
#
# 1 72.3572 59.1215 43.2439 0.0000 0.0000 0.0000
# 2 59.1215 177.7169 70.2550 0.0000 0.0000 0.0000
# 3 43.2439 70.2550 136.7400 0.0000 0.0000 0.0000
# 4 0.0000 0.0000 0.0000 37.4711 0.0000 0.0000
# 5 0.0000 0.0000 0.0000 0.0000 32.2184 0.0000
# 6 0.0000 0.0000 0.0000 0.0000 0.0000 35.4757
#
#
#
# Elastic Compliance Matrix: (Units=1/GPa)
#
#
# Indices 1 2 3 4 5 6 
#
# 1 0.020381 -0.005311 -0.003717 0.000000 0.000000 0.000000
# 2 -0.005311 0.008445 -0.002659 0.000000 0.000000 0.000000
# 3 -0.003717 -0.002659 0.009855 0.000000 0.000000 0.000000
# 4 0.000000 0.000000 0.000000 0.026687 0.000000 0.000000
# 5 0.000000 0.000000 0.000000 0.000000 0.031038 0.000000
# 6 0.000000 0.000000 0.000000 0.000000 0.000000 0.028188
#
#
# Mechanical properties :
#
#
# Convention : Reuss Voigt Hill
#
# Bulk Modulus (GPa) = 65.33019 81.33942 73.33481
# Shear Modulus (GPa) = 32.66454 35.31262 33.98858
#
# Velocity S-wave (km/s) = 4.27630 4.44626 4.36210
# Velocity P-wave (km/s) = 7.80745 8.47912 8.15021
#
# Compressibility (1/GPa) = 0.01530686
#
# Stress axis : x y z
#
# Youngs Moduli (GPa) = 49.06511 118.41318 101.47201
#
# Poissons Ratio (x) = 0.62888 0.37716
# Poissons Ratio (y) = 0.26058 0.26985
# Poissons Ratio (z) = 0.18237 0.31490
#
# Static dielectric constant tensor:
#      x y z
#    x 1.618070 0.000000 0.000000 
#    y 0.000000 1.616850 0.000000 
#    z 0.000000 0.000000 1.609140 
# 
# From -- ./inp_files/9395.got.cif
#   From: 2010.05.17/outbox.ucp.g08.bks.cvg/sg72_5_cif.got.tgz:9395.got - 2010.06.11 16:33:07.
