data_PCOD9529101
_publ_section_title
;
Structure prediction by ZEFSAII (Michael W. Deem and Ramdas Pophale) SiO2 
 PCOD9529101
Probable space group: I B A M
;
_chemical_formula_sum "Si O2"
_cell_formula_units_Z 68
_cell_length_a 5.192413
_cell_length_b 18.984489
_cell_length_c 25.726788
_cell_angle_alpha 90.000000
_cell_angle_beta 90.000000
_cell_angle_gamma 90.000000
_cell_volume 2536.026038
_symmetry_space_group_name_H-M "I B A M"
_symmetry_group_IT_number 72
_symmetry_cell_setting 'orthorhombic'
loop_
_space_group_symop_operation_xyz
x,y,z
-x,-y,z
x,-y,1/2-z
-x,y,1/2-z
-x,-y,-z
x,y,-z
-x,y,1/2+z
x,-y,1/2+z
1/2+x,1/2+y,1/2+z
1/2-x,1/2-y,1/2+z
1/2+x,1/2-y,-z
1/2-x,1/2+y,-z
1/2-x,1/2-y,1/2-z
1/2+x,1/2+y,1/2-z
1/2-x,1/2+y,z
1/2+x,1/2-y,z
loop_
_atom_site_type_symbol
_atom_site_label
_atom_site_fract_x
_atom_site_fract_y
_atom_site_fract_z
Si Si1 0.923463 0.581245 0.172726
Si Si2 0.922267 0.163537 0.696934
Si Si3 0.580103 0.709921 0.419404
Si Si4 0.265528 0.085655 0.441838
Si Si5 0.000000 0.500000 0.000000
O O1 0.143305 0.628600 0.197954
O O2 0.000000 0.500000 0.179616
O O3 0.639105 0.602059 0.191870
O O4 0.911409 0.600523 0.111384
O O5 0.933619 0.206764 0.643495
O O6 0.000000 0.202246 0.750000
O O7 0.858324 0.735481 0.436442
O O8 0.478511 0.635421 0.439848
O O9 0.406382 0.094785 0.500000
O O10 0.273249 0.002905 0.451889
#
# Coordination Sequence:
#
# PCOD9529101 Si02
#       5
#    16  16  16  16   4
#     4  11  21  40  64  96 136 174 218 280 342 416
#     4  11  25  41  63  93 129 176 231 281 346 407
#     4  11  24  43  66  94 129 173 225 278 330 394
#     4   9  19  39  69  96 133 171 216 265 336 404
#     4   8  16  40  68  98 130 174 208 264 332 408
#
# _framework density 26.813601999999999
#
# number of rings (size 3 to 8) (size 9 to 14) (size 15 to 20)
#    0.706    0.941    1.176    4.235    0.000    4.706 
#    0.000    9.412    0.000   19.765    0.000    0.000 
#    0.000    0.000    0.000    0.000    0.000    0.000 
#
# Total GULP energy -189666.985545 kJ/mol
# GULP energy per Si atom -5578.440751 kJ/mol
# Density = 2.675257 g / cm^3
# Si number density = 26.813602 Si / 1000 Ang^3
#
#
#
# Elastic Constant Matrix: (Units=GPa)
#
#
# Indices 1 2 3 4 5 6 
#
# 1 131.4193 41.1027 19.4323 0.0000 0.0000 0.0000
# 2 41.1027 104.5522 2.9454 0.0000 0.0000 0.0000
# 3 19.4323 2.9454 169.8222 0.0000 0.0000 0.0000
# 4 0.0000 0.0000 0.0000 16.2018 0.0000 0.0000
# 5 0.0000 0.0000 0.0000 0.0000 -3.2703 0.0000
# 6 0.0000 0.0000 0.0000 0.0000 0.0000 56.0746
#
#
#
# Elastic Compliance Matrix: (Units=1/GPa)
#
#
# Indices 1 2 3 4 5 6 
#
# 1 0.008827 -0.003443 -0.000950 0.000000 0.000000 0.000000
# 2 -0.003443 0.010912 0.000205 0.000000 0.000000 0.000000
# 3 -0.000950 0.000205 0.005994 0.000000 0.000000 0.000000
# 4 0.000000 0.000000 0.000000 0.061722 0.000000 0.000000
# 5 0.000000 0.000000 0.000000 0.000000 -0.305784 0.000000
# 6 0.000000 0.000000 0.000000 0.000000 0.000000 0.017833
#
#
# Mechanical properties :
#
#
# Convention : Reuss Voigt Hill
#
# Bulk Modulus (GPa) = 57.61959 59.19496 58.40728
# Shear Modulus (GPa) = -26.83362 36.62211 4.89424
#
# Velocity S-wave (km/s) = -3.16689 3.69969 1.35250
# Velocity P-wave (km/s) = 2.85716 6.35410 4.92636
#
# Compressibility (1/GPa) = 0.01735521
#
# Stress axis : x y z
#
# Youngs Moduli (GPa) = 113.29309 91.63814 166.84183
#
# Poissons Ratio (x) = 0.31553 0.15855
# Poissons Ratio (y) = 0.39010 -0.03416
# Poissons Ratio (z) = 0.10766 -0.01876
#
# Static dielectric constant tensor:
#      x y z
#    x 2.289480 0.000000 0.000000 
#    y 0.000000 2.076220 0.000000 
#    z 0.000000 0.000000 2.143420 
# 
# From -- ./inp_files/49282.got.cif
#   From: 2010.05.17/outbox.cif.g08.bks.cpg/sg72_25_cif.got.tgz:49282.got - 2010.06.03 17:03:01.
