data_PCOD9529764
_publ_section_title
;
Structure prediction by ZEFSAII (Michael W. Deem and Ramdas Pophale) SiO2 
 PCOD9529764
Probable space group: I B C A 
;
_chemical_formula_sum "Si O2"
_cell_formula_units_Z 88
_cell_length_a 24.851700
_cell_length_b 12.244141
_cell_length_c 11.758070
_cell_angle_alpha 90.000000
_cell_angle_beta 90.000000
_cell_angle_gamma 90.000000
_cell_volume 3577.836299
_symmetry_space_group_name_H-M "I B C A "
_symmetry_group_IT_number 73
_symmetry_cell_setting 'orthorhombic'
loop_
_space_group_symop_operation_xyz
x,y,z
-x,1/2-y,z
x,-y,1/2-z
1/2-x,y,-z
-x,-y,-z
x,1/2+y,-z
-x,y,1/2+z
1/2+x,-y,z
1/2+x,1/2+y,1/2+z
1/2-x,-y,1/2+z
1/2+x,1/2-y,-z
-x,1/2+y,1/2-z
1/2-x,1/2-y,1/2-z
1/2+x,y,1/2-z
1/2-x,1/2+y,z
x,1/2-y,1/2+z
loop_
_atom_site_type_symbol
_atom_site_label
_atom_site_fract_x
_atom_site_fract_y
_atom_site_fract_z
Si Si1 0.641883 0.895914 0.167297
Si Si2 0.157658 0.760043 0.643880
Si Si3 0.250000 0.145550 0.500000
Si Si4 0.332556 0.492410 0.580443
Si Si5 0.023844 0.569196 0.856443
Si Si6 0.427631 0.369378 0.995671
O O1 0.668015 0.797921 0.235798
O O2 0.663749 0.933782 0.045837
O O3 0.578601 0.864131 0.164344
O O4 0.645566 0.000000 0.250000
O O5 0.205059 0.717460 0.561370
O O6 0.159326 0.889133 0.659314
O O7 0.102220 0.718004 0.579048
O O8 0.278697 0.062057 0.412702
O O9 0.380689 0.578180 0.579297
O O10 0.001591 0.500000 0.750000
O O11 0.979098 0.642669 0.915126
O O12 0.049402 0.469753 0.929284
#
# Coordination Sequence:
#
# PCOD9529764 Si02
#       6
#    16  16   8  16  16  16
#     4  10  17  39  65  80 115 173 196 228 310 372
#     4  11  20  38  64  85 121 159 199 254 303 356
#     4  10  20  38  62  86 114 158 190 248 316 356
#     4  10  21  37  60  90 120 152 209 250 295 366
#     4   9  15  32  60  79 109 162 198 229 290 355
#     4   9  18  33  58  82 116 159 196 245 292 341
#
# _framework density 24.595870000000001
#
# number of rings (size 3 to 8) (size 9 to 14) (size 15 to 20)
#    0.000    2.182    7.273    0.545    0.000    0.000 
#    3.273   13.636   12.000    0.000    0.000    0.000 
#    0.000    0.000    0.000    0.000    0.000    0.000 
#
# Total GULP energy -245748.867485 kJ/mol
# GULP energy per Si atom -5585.201534 kJ/mol
# Density = 2.453989 g / cm^3
# Si number density = 24.595870 Si / 1000 Ang^3
#
#
#
# Elastic Constant Matrix: (Units=GPa)
#
#
# Indices 1 2 3 4 5 6 
#
# 1 82.7139 19.7106 2.8161 0.0000 0.0000 0.0000
# 2 19.7106 83.6662 -14.9318 0.0000 0.0000 0.0000
# 3 2.8161 -14.9318 60.3390 0.0000 0.0000 0.0000
# 4 0.0000 0.0000 0.0000 23.4023 0.0000 0.0000
# 5 0.0000 0.0000 0.0000 0.0000 27.2768 0.0000
# 6 0.0000 0.0000 0.0000 0.0000 0.0000 10.4873
#
#
#
# Elastic Compliance Matrix: (Units=1/GPa)
#
#
# Indices 1 2 3 4 5 6 
#
# 1 0.012924 -0.003298 -0.001419 0.000000 0.000000 0.000000
# 2 -0.003298 0.013346 0.003457 0.000000 0.000000 0.000000
# 3 -0.001419 0.003457 0.017495 0.000000 0.000000 0.000000
# 4 0.000000 0.000000 0.000000 0.042731 0.000000 0.000000
# 5 0.000000 0.000000 0.000000 0.000000 0.036661 0.000000
# 6 0.000000 0.000000 0.000000 0.000000 0.000000 0.095353
#
#
# Mechanical properties :
#
#
# Convention : Reuss Voigt Hill
#
# Bulk Modulus (GPa) = 24.24631 26.87877 25.56254
# Shear Modulus (GPa) = 21.29656 26.84156 24.06906
#
# Velocity S-wave (km/s) = 2.94574 3.30707 3.13162
# Velocity P-wave (km/s) = 4.63132 5.05314 4.84682
#
# Compressibility (1/GPa) = 0.04124340
#
# Stress axis : x y z
#
# Youngs Moduli (GPa) = 77.37480 74.92808 57.16027
#
# Poissons Ratio (x) = 0.24712 0.08113
# Poissons Ratio (y) = 0.25519 -0.19758
# Poissons Ratio (z) = 0.10982 -0.25900
#
# Static dielectric constant tensor:
#      x y z
#    x 1.983930 0.000000 0.000000 
#    y 0.000000 1.948360 0.000000 
#    z 0.000000 0.000000 2.083850 
# 
# From -- ./inp_files/19334.got.cif
#   From: 2010.05.17/outbox.cif.g08.bks.cpg/sg73_10_cif.got.tgz:19334.got - 2010.06.03 17:35:07.
