data_PCOD9529556
_publ_section_title
;
Structure prediction by ZEFSAII (Michael W. Deem and Ramdas Pophale) SiO2 
 PCOD9529556
Probable space group: I B A M
;
_chemical_formula_sum "Si O2"
_cell_formula_units_Z 24
_cell_length_a 9.000000
_cell_length_b 30.000000
_cell_length_c 9.000000
_cell_angle_alpha 90.000000
_cell_angle_beta 90.000000
_cell_angle_gamma 90.000000
_cell_volume 2430.000000
_symmetry_space_group_name_H-M "I B A M"
_symmetry_group_IT_number 72
_symmetry_cell_setting 'orthorhombic'
loop_
_space_group_symop_operation_xyz
x,y,z
-x,-y,z
x,-y,1/2-z
-x,y,1/2-z
-x,-y,-z
x,y,-z
-x,y,1/2+z
x,-y,1/2+z
1/2+x,1/2+y,1/2+z
1/2-x,1/2-y,1/2+z
1/2+x,1/2-y,-z
1/2-x,1/2+y,-z
1/2-x,1/2-y,1/2-z
1/2+x,1/2+y,1/2-z
1/2-x,1/2+y,z
1/2+x,1/2-y,z
loop_
_atom_site_type_symbol
_atom_site_label
_atom_site_fract_x
_atom_site_fract_y
_atom_site_fract_z
Si Si1 0.155992 0.540077 0.831446
Si Si2 0.155189 0.127701 0.829141
Si Si3 0.838305 0.788992 0.324602
O O1 0.238236 0.500000 0.750000
O O2 0.247937 0.584368 0.828956
O O3 0.000000 0.546727 0.750000
O O4 0.131331 0.527221 0.000000
O O5 0.233054 0.165087 0.729912
O O6 0.000000 0.117774 0.750000
O O7 0.132088 0.142872 0.000000
O O8 0.845927 0.785045 0.500000
O O9 0.750000 0.750000 0.250000
O O10 0.000000 0.789438 0.250000
#
# Coordination Sequence:
#
# PCOD9529556 Si02
#       3
#    16  16  16
#     4  10  21  36  56  80 109 142 180 223 269 321
#     4  10  21  37  56  81 110 143 182 225 271 323
#     4  11  22  38  59  83 112 146 183 227 274 326
#
# _framework density 9.8765429999999999
#
# number of rings (size 3 to 8) (size 9 to 14) (size 15 to 20)
#    0.000    1.667    0.000    8.000    0.000    7.333 
#    0.000    6.667    0.000    0.000    0.000    0.000 
#    0.000    0.000    0.000    0.000    0.000    0.000 
#
# Total GULP energy -133698.404762 kJ/mol
# GULP energy per Si atom -5570.766865 kJ/mol
# Density = 0.985406 g / cm^3
# Si number density = 9.876543 Si / 1000 Ang^3
#
#
#
# Elastic Constant Matrix: (Units=GPa)
#
#
# Indices 1 2 3 4 5 6 
#
# 1 17.6630 48.0827 41.2051 0.0005 0.0000 0.0000
# 2 48.0827 127.7018 86.8484 0.0013 0.0000 0.0000
# 3 41.2051 86.8484 222.4055 0.0234 0.0004 -0.0001
# 4 0.0005 0.0013 0.0234 269.1384 0.0018 0.0002
# 5 0.0000 0.0000 0.0004 0.0018 22.0219 0.0000
# 6 0.0000 0.0000 -0.0001 0.0002 0.0000 40.3522
#
#
#
# Elastic Compliance Matrix: (Units=1/GPa)
#
#
# Indices 1 2 3 4 5 6 
#
# 1 -1.131116 0.385839 0.058894 -0.000005 -0.000002 0.000000
# 2 0.385839 -0.120952 -0.024253 0.000002 0.000001 0.000000
# 3 0.058894 -0.024253 0.003056 0.000000 0.000000 0.000000
# 4 -0.000005 0.000002 0.000000 0.003716 0.000000 0.000000
# 5 -0.000002 0.000001 0.000000 0.000000 0.045409 0.000000
# 6 0.000000 0.000000 0.000000 0.000000 0.000000 0.024782
#
#
# Mechanical properties :
#
#
# Convention : Reuss Voigt Hill
#
# Bulk Modulus (GPa) = -2.45066 80.00475 38.77705
# Shear Modulus (GPa) = -2.32333 79.07811 38.37739
#
# Velocity S-wave (km/s) = -1.08570 6.33405 4.41257
# Velocity P-wave (km/s) = 1.67779 9.69969 6.75533
#
# Compressibility (1/GPa) = -0.40805396
#
# Stress axis : x y z
#
# Youngs Moduli (GPa) = -0.88408 -8.26772 327.25282
#
# Poissons Ratio (x) = 3.19001 -19.27315
# Poissons Ratio (y) = 0.34111 7.93688
# Poissons Ratio (z) = 0.05207 -0.20052
#
# Static dielectric constant tensor:
#      x y z
#    x 1.642650 0.000000 0.000000 
#    y 0.000000 1.868510 0.000000 
#    z 0.000000 0.000000 1.631830 
# 
# From -- ./inp_files/1643.got.cif
#   From: 2010.05.17/outbox.ucp.g08.bks.cvg/sg72_1_cif.got.tgz:1643.got - 2010.06.11 16:33:07.
