data_PCOD9529375
_publ_section_title
;
Structure prediction by ZEFSAII (Michael W. Deem and Ramdas Pophale) SiO2 
 PCOD9529375
Probable space group: I B A M
;
_chemical_formula_sum "Si O2"
_cell_formula_units_Z 56
_cell_length_a 22.292866
_cell_length_b 5.071571
_cell_length_c 20.863724
_cell_angle_alpha 90.000000
_cell_angle_beta 90.000000
_cell_angle_gamma 90.000000
_cell_volume 2358.849562
_symmetry_space_group_name_H-M "I B A M"
_symmetry_group_IT_number 72
_symmetry_cell_setting 'orthorhombic'
loop_
_space_group_symop_operation_xyz
x,y,z
-x,-y,z
x,-y,1/2-z
-x,y,1/2-z
-x,-y,-z
x,y,-z
-x,y,1/2+z
x,-y,1/2+z
1/2+x,1/2+y,1/2+z
1/2-x,1/2-y,1/2+z
1/2+x,1/2-y,-z
1/2-x,1/2+y,-z
1/2-x,1/2-y,1/2-z
1/2+x,1/2+y,1/2-z
1/2-x,1/2+y,z
1/2+x,1/2-y,z
loop_
_atom_site_type_symbol
_atom_site_label
_atom_site_fract_x
_atom_site_fract_y
_atom_site_fract_z
Si Si1 0.165591 0.725692 0.000000
Si Si2 0.086430 0.256357 0.705696
Si Si3 0.000000 0.000000 0.606381
Si Si4 0.085488 0.230568 0.000000
Si Si5 0.787053 0.378046 0.859801
O O1 0.201609 0.658899 0.935780
O O2 0.141407 0.025362 0.000000
O O3 0.108545 0.528223 0.000000
O O4 0.069351 0.500000 0.750000
O O5 0.150589 0.315670 0.674133
O O6 0.038878 0.191455 0.650723
O O7 0.090623 0.000000 0.750000
O O8 0.045441 0.837784 0.561540
O O9 0.763937 0.666939 0.842643
#
# Coordination Sequence:
#
# PCOD9529375 Si02
#       5
#     8  16   8   8  16
#     4  12  24  48  74 113 147 184 249 308 382 436
#     4  12  29  49  75 109 151 201 250 302 364 442
#     4  11  27  52  76 116 149 195 248 310 376 445
#     4  11  26  45  82 107 151 191 236 317 377 441
#     4  12  26  48  77 107 147 192 250 309 370 439
#
# _framework density 23.740383999999999
#
# number of rings (size 3 to 8) (size 9 to 14) (size 15 to 20)
#    0.000    0.286    2.857    4.714    4.000   10.286 
#    0.000    0.000    0.000    0.000    0.000    0.000 
#    0.000    0.000    0.000    0.000    0.000    0.000 
#
# Total GULP energy -157330.763018 kJ/mol
# GULP energy per Si atom -5618.955822 kJ/mol
# Density = 2.368635 g / cm^3
# Si number density = 23.740384 Si / 1000 Ang^3
#
#
#
# Elastic Constant Matrix: (Units=GPa)
#
#
# Indices 1 2 3 4 5 6 
#
# 1 96.6870 18.3284 46.0232 0.0000 0.0000 0.0000
# 2 18.3284 83.9247 56.5825 0.0000 0.0000 0.0000
# 3 46.0232 56.5825 114.7093 0.0000 0.0000 0.0000
# 4 0.0000 0.0000 0.0000 9.3955 0.0000 0.0000
# 5 0.0000 0.0000 0.0000 0.0000 -37.5289 0.0000
# 6 0.0000 0.0000 0.0000 0.0000 0.0000 30.7077
#
#
#
# Elastic Compliance Matrix: (Units=1/GPa)
#
#
# Indices 1 2 3 4 5 6 
#
# 1 0.012840 0.001003 -0.005646 0.000000 0.000000 0.000000
# 2 0.001003 0.017931 -0.009247 0.000000 0.000000 0.000000
# 3 -0.005646 -0.009247 0.015544 0.000000 0.000000 0.000000
# 4 0.000000 0.000000 0.000000 0.106433 0.000000 0.000000
# 5 0.000000 0.000000 0.000000 0.000000 -0.026646 0.000000
# 6 0.000000 0.000000 0.000000 0.000000 0.000000 0.032565
#
#
# Mechanical properties :
#
#
# Convention : Reuss Voigt Hill
#
# Bulk Modulus (GPa) = 53.95475 59.68769 56.82122
# Shear Modulus (GPa) = 25.95690 12.14067 19.04879
#
# Velocity S-wave (km/s) = 3.31019 2.26385 2.83570
# Velocity P-wave (km/s) = 6.11442 5.65949 5.89135
#
# Compressibility (1/GPa) = 0.01853405
#
# Stress axis : x y z
#
# Youngs Moduli (GPa) = 77.88025 55.76981 64.33239
#
# Poissons Ratio (x) = -0.05591 0.36323
# Poissons Ratio (y) = -0.07808 0.59488
# Poissons Ratio (z) = 0.43973 0.51570
#
# Static dielectric constant tensor:
#      x y z
#    x 1.866190 0.000000 0.000000 
#    y 0.000000 1.834350 0.000000 
#    z 0.000000 0.000000 1.875910 
# 
# From -- ./inp_files/40007.got.cif
#   From: 2010.05.17/outbox.cif.g08.bks.cpg/sg72_21_cif.got.tgz:40007.got - 2010.06.03 17:03:01.
