data_PCOD9529274
_publ_section_title
;
Structure prediction by ZEFSAII (Michael W. Deem and Ramdas Pophale) SiO2 
 PCOD9529274
Probable space group: I B A M
;
_chemical_formula_sum "Si O2"
_cell_formula_units_Z 88
_cell_length_a 12.299818
_cell_length_b 24.196994
_cell_length_c 14.796656
_cell_angle_alpha 90.000000
_cell_angle_beta 90.000000
_cell_angle_gamma 90.000000
_cell_volume 4403.760374
_symmetry_space_group_name_H-M "I B A M"
_symmetry_group_IT_number 72
_symmetry_cell_setting 'orthorhombic'
loop_
_space_group_symop_operation_xyz
x,y,z
-x,-y,z
x,-y,1/2-z
-x,y,1/2-z
-x,-y,-z
x,y,-z
-x,y,1/2+z
x,-y,1/2+z
1/2+x,1/2+y,1/2+z
1/2-x,1/2-y,1/2+z
1/2+x,1/2-y,-z
1/2-x,1/2+y,-z
1/2-x,1/2-y,1/2-z
1/2+x,1/2+y,1/2-z
1/2-x,1/2+y,z
1/2+x,1/2-y,z
loop_
_atom_site_type_symbol
_atom_site_label
_atom_site_fract_x
_atom_site_fract_y
_atom_site_fract_z
Si Si1 0.286033 0.326416 0.000000
Si Si2 0.788331 0.491888 0.105000
Si Si3 0.757621 0.695882 0.500000
Si Si4 0.463498 0.360025 0.500000
Si Si5 0.937522 0.052016 0.344542
Si Si6 0.389799 0.122642 0.861115
Si Si7 0.139692 0.615602 0.649447
O O1 0.279204 0.260519 0.000000
O O2 0.412293 0.342132 0.000000
O O3 0.225863 0.352336 0.087494
O O4 0.685524 0.469486 0.161614
O O5 0.871147 0.441061 0.110818
O O6 0.836761 0.550095 0.136697
O O7 0.754086 0.498300 0.000000
O O8 0.628380 0.686545 0.500000
O O9 0.813367 0.663696 0.416614
O O10 0.442330 0.397007 0.588546
O O11 0.000000 0.063001 0.250000
O O12 0.000000 0.000000 0.386861
O O13 0.517300 0.132337 0.878532
O O14 0.358663 0.127787 0.755976
#
# Coordination Sequence:
#
# PCOD9529274 Si02
#       7
#     8  16   8   8  16  16  16
#     4  12  29  44  74  99 134 180 235 297 337 400
#     4  12  22  40  68 107 140 179 225 276 341 415
#     4  12  27  48  73  95 136 178 239 296 346 393
#     4  12  25  46  65 101 131 180 233 277 341 412
#     4  11  24  37  63  98 144 186 213 266 335 414
#     4  11  24  46  71 102 140 183 226 281 342 413
#     4  11  26  44  71 104 140 180 230 278 344 410
#
# _framework density 19.982921000000001
#
# number of rings (size 3 to 8) (size 9 to 14) (size 15 to 20)
#    0.000    0.545    4.545    3.000   10.182    2.909 
#    0.000    0.000    0.000    0.000    0.000    0.000 
#    0.000    0.000    0.000    0.000    0.000    0.000 
#
# Total GULP energy -246021.007798 kJ/mol
# GULP energy per Si atom -5591.386541 kJ/mol
# Density = 1.993744 g / cm^3
# Si number density = 19.982921 Si / 1000 Ang^3
#
#
#
# Elastic Constant Matrix: (Units=GPa)
#
#
# Indices 1 2 3 4 5 6 
#
# 1 150.7306 42.2551 47.9146 0.0000 0.0000 0.0000
# 2 42.2551 120.6983 29.9823 0.0000 0.0000 0.0000
# 3 47.9146 29.9823 120.2370 0.0000 0.0000 0.0000
# 4 0.0000 0.0000 0.0000 -5.7700 0.0000 0.0000
# 5 0.0000 0.0000 0.0000 0.0000 26.8506 0.0000
# 6 0.0000 0.0000 0.0000 0.0000 0.0000 -6.7840
#
#
#
# Elastic Compliance Matrix: (Units=1/GPa)
#
#
# Indices 1 2 3 4 5 6 
#
# 1 0.008096 -0.002167 -0.002686 0.000000 0.000000 0.000000
# 2 -0.002167 0.009412 -0.001483 0.000000 0.000000 0.000000
# 3 -0.002686 -0.001483 0.009757 0.000000 0.000000 0.000000
# 4 0.000000 0.000000 0.000000 -0.173309 0.000000 -0.000001
# 5 0.000000 0.000000 0.000000 0.000000 0.037243 0.000000
# 6 0.000000 0.000000 0.000000 -0.000001 0.000000 -0.147405
#
#
# Mechanical properties :
#
#
# Convention : Reuss Voigt Hill
#
# Bulk Modulus (GPa) = 68.52841 70.21886 69.37363
# Shear Modulus (GPa) = -20.94947 20.96024 0.00538
#
# Velocity S-wave (km/s) = -3.24136 3.24220 0.05196
# Velocity P-wave (km/s) = 4.51213 7.01652 5.89877
#
# Compressibility (1/GPa) = 0.01459249
#
# Stress axis : x y z
#
# Youngs Moduli (GPa) = 123.52401 106.24417 102.48948
#
# Poissons Ratio (x) = 0.23023 0.27526
# Poissons Ratio (y) = 0.26768 0.15204
# Poissons Ratio (z) = 0.33175 0.15761
#
# Static dielectric constant tensor:
#      x y z
#    x 1.770280 0.000000 0.000000 
#    y 0.000000 1.656130 0.000000 
#    z 0.000000 0.000000 1.734730 
# 
# From -- ./inp_files/20337.got.cif
#   From: 2010.05.17/outbox.cif.g08.bks.cpg/sg72_11_cif.got.tgz:20337.got - 2010.06.03 17:03:01.
