data_PCOD9529656
_publ_section_title
;
Structure prediction by ZEFSAII (Michael W. Deem and Ramdas Pophale) SiO2 
 PCOD9529656
Probable space group: I B C A 
;
_chemical_formula_sum "Si O2"
_cell_formula_units_Z 72
_cell_length_a 8.570327
_cell_length_b 15.069687
_cell_length_c 29.042730
_cell_angle_alpha 90.000000
_cell_angle_beta 90.000000
_cell_angle_gamma 90.000000
_cell_volume 3750.930887
_symmetry_space_group_name_H-M "I B C A "
_symmetry_group_IT_number 73
_symmetry_cell_setting 'orthorhombic'
loop_
_space_group_symop_operation_xyz
x,y,z
-x,1/2-y,z
x,-y,1/2-z
1/2-x,y,-z
-x,-y,-z
x,1/2+y,-z
-x,y,1/2+z
1/2+x,-y,z
1/2+x,1/2+y,1/2+z
1/2-x,-y,1/2+z
1/2+x,1/2-y,-z
-x,1/2+y,1/2-z
1/2-x,1/2-y,1/2-z
1/2+x,y,1/2-z
1/2-x,1/2+y,z
x,1/2-y,1/2+z
loop_
_atom_site_type_symbol
_atom_site_label
_atom_site_fract_x
_atom_site_fract_y
_atom_site_fract_z
Si Si1 0.242448 0.561177 0.682926
Si Si2 0.171074 0.115537 0.589175
Si Si3 0.690003 0.936545 0.100793
Si Si4 0.323177 0.716628 0.953298
Si Si5 0.499575 0.000000 0.250000
O O1 0.265981 0.630317 0.641623
O O2 0.216636 0.470154 0.653155
O O3 0.393764 0.552477 0.714072
O O4 0.103059 0.565708 0.718987
O O5 0.215146 0.199343 0.559278
O O6 0.987862 0.092843 0.592310
O O7 0.262321 0.026479 0.573632
O O8 0.803405 0.857842 0.085701
O O9 0.500000 0.750000 0.958066
O O10 0.250000 0.677720 0.000000
#
# Coordination Sequence:
#
# PCOD9529656 Si02
#       5
#    16  16  16  16   8
#     4   9  18  32  59  92 120 158 197 246 298 347
#     4  10  20  39  62  91 124 162 198 245 307 352
#     4  10  20  39  62  91 124 162 198 245 307 352
#     4  12  26  42  64  89 120 159 203 251 298 363
#     4  10  16  30  60  92 118 154 210 238 288 368
#
# _framework density 19.195235
#
# number of rings (size 3 to 8) (size 9 to 14) (size 15 to 20)
#    1.333    0.444    2.222    3.333    3.111    0.889 
#    0.000    4.444    0.000    8.000    0.000    0.000 
#    0.000    0.000    0.000    0.000    0.000    0.000 
#
# Total GULP energy -200446.299099 kJ/mol
# GULP energy per Si atom -5567.952753 kJ/mol
# Density = 1.915155 g / cm^3
# Si number density = 19.195235 Si / 1000 Ang^3
#
#
#
# Elastic Constant Matrix: (Units=GPa)
#
#
# Indices 1 2 3 4 5 6 
#
# 1 77.9452 -2.2793 30.3456 0.0000 0.0000 0.0000
# 2 -2.2793 50.6501 9.2734 0.0000 0.0000 0.0000
# 3 30.3456 9.2734 60.3645 0.0000 0.0000 0.0000
# 4 0.0000 0.0000 0.0000 11.4930 0.0000 0.0000
# 5 0.0000 0.0000 0.0000 0.0000 31.4924 0.0000
# 6 0.0000 0.0000 0.0000 0.0000 0.0000 23.4177
#
#
#
# Elastic Compliance Matrix: (Units=1/GPa)
#
#
# Indices 1 2 3 4 5 6 
#
# 1 0.016204 0.002285 -0.008497 0.000000 0.000000 0.000000
# 2 0.002285 0.020637 -0.004319 0.000000 0.000000 0.000000
# 3 -0.008497 -0.004319 0.021501 0.000000 0.000000 0.000000
# 4 0.000000 0.000000 0.000000 0.087009 0.000000 0.000000
# 5 0.000000 0.000000 0.000000 0.000000 0.031754 0.000000
# 6 0.000000 0.000000 0.000000 0.000000 0.000000 0.042703
#
#
# Mechanical properties :
#
#
# Convention : Reuss Voigt Hill
#
# Bulk Modulus (GPa) = 26.82395 29.29325 28.05860
# Shear Modulus (GPa) = 19.73965 23.38862 21.56414
#
# Velocity S-wave (km/s) = 3.21029 3.49443 3.35537
# Velocity P-wave (km/s) = 5.26744 5.61918 5.44615
#
# Compressibility (1/GPa) = 0.03728012
#
# Stress axis : x y z
#
# Youngs Moduli (GPa) = 61.71148 48.45698 46.50930
#
# Poissons Ratio (x) = -0.11072 0.39519
# Poissons Ratio (y) = -0.14101 0.20087
# Poissons Ratio (z) = 0.52437 0.20928
#
# Static dielectric constant tensor:
#      x y z
#    x 1.694050 0.000000 0.000000 
#    y 0.000000 1.645580 0.000000 
#    z 0.000000 0.000000 1.676730 
# 
# From -- ./inp_files/33505.got.cif
#   From: 2010.05.17/outbox.cif.g08.bks.cpg/sg73_17_cif.got.tgz:33505.got - 2010.06.03 17:35:07.
