data_PCOD9529734
_publ_section_title
;
Structure prediction by ZEFSAII (Michael W. Deem and Ramdas Pophale) SiO2 
 PCOD9529734
Probable space group: I B C A 
;
_chemical_formula_sum "Si O2"
_cell_formula_units_Z 96
_cell_length_a 14.148952
_cell_length_b 15.879025
_cell_length_c 19.940823
_cell_angle_alpha 90.000000
_cell_angle_beta 90.000000
_cell_angle_gamma 90.000000
_cell_volume 4480.135862
_symmetry_space_group_name_H-M "I B C A "
_symmetry_group_IT_number 73
_symmetry_cell_setting 'orthorhombic'
loop_
_space_group_symop_operation_xyz
x,y,z
-x,1/2-y,z
x,-y,1/2-z
1/2-x,y,-z
-x,-y,-z
x,1/2+y,-z
-x,y,1/2+z
1/2+x,-y,z
1/2+x,1/2+y,1/2+z
1/2-x,-y,1/2+z
1/2+x,1/2-y,-z
-x,1/2+y,1/2-z
1/2-x,1/2-y,1/2-z
1/2+x,y,1/2-z
1/2-x,1/2+y,z
x,1/2-y,1/2+z
loop_
_atom_site_type_symbol
_atom_site_label
_atom_site_fract_x
_atom_site_fract_y
_atom_site_fract_z
Si Si1 0.984937 0.148625 0.614645
Si Si2 0.251428 0.573972 0.296572
Si Si3 0.182337 0.113803 0.561962
Si Si4 0.217756 0.815246 0.426427
Si Si5 0.358280 0.817001 0.301691
Si Si6 0.950591 0.634027 0.229220
O O1 0.878478 0.136218 0.590006
O O2 0.982783 0.125199 0.693413
O O3 0.000000 0.250000 0.613130
O O4 0.067853 0.107494 0.569470
O O5 0.214646 0.500000 0.250000
O O6 0.221021 0.567998 0.372416
O O7 0.203786 0.655657 0.262327
O O8 0.364352 0.575668 0.291320
O O9 0.250000 0.088396 0.500000
O O10 0.199178 0.214508 0.569926
O O11 0.250000 0.841828 0.500000
O O12 0.293463 0.823869 0.366963
O O13 0.452180 0.873431 0.310934
O O14 0.403005 0.725737 0.285182
#
# Coordination Sequence:
#
# PCOD9529734 Si02
#       6
#    16  16  16  16  16  16
#     4  10  17  32  59  89 118 158 196 256 312 352
#     4  12  24  38  60  90 123 166 211 254 310 371
#     4  10  21  38  60  89 126 163 205 253 312 378
#     4  10  20  34  58  93 130 159 199 257 319 371
#     4  11  20  37  63  89 119 163 206 264 301 359
#     4  11  20  35  64  91 120 150 214 268 302 357
#
# _framework density 21.427921999999999
#
# number of rings (size 3 to 8) (size 9 to 14) (size 15 to 20)
#    0.000    1.333    6.667    1.500    0.000    2.000 
#    6.000    0.833    0.000    1.000    0.000    0.000 
#    0.000    0.000    0.000    0.000    0.000    0.000 
#
# Total GULP energy -267883.836980 kJ/mol
# GULP energy per Si atom -5580.913270 kJ/mol
# Density = 2.137915 g / cm^3
# Si number density = 21.427922 Si / 1000 Ang^3
#
#
#
# Elastic Constant Matrix: (Units=GPa)
#
#
# Indices 1 2 3 4 5 6 
#
# 1 193.3966 13.6520 83.0225 0.0000 0.0000 0.0000
# 2 13.6520 18.2468 11.9268 0.0000 0.0000 0.0000
# 3 83.0225 11.9268 163.4479 0.0000 0.0000 0.0000
# 4 0.0000 0.0000 0.0000 12.0879 0.0000 0.0000
# 5 0.0000 0.0000 0.0000 0.0000 31.7054 0.0000
# 6 0.0000 0.0000 0.0000 0.0000 0.0000 4.9508
#
#
#
# Elastic Compliance Matrix: (Units=1/GPa)
#
#
# Indices 1 2 3 4 5 6 
#
# 1 0.006761 -0.002955 -0.003219 0.000000 0.000000 0.000000
# 2 -0.002955 0.058840 -0.002793 0.000000 0.000000 0.000000
# 3 -0.003219 -0.002793 0.007957 0.000000 0.000000 0.000000
# 4 0.000000 0.000000 0.000000 0.082727 0.000000 0.000000
# 5 0.000000 0.000000 0.000000 0.000000 0.031540 0.000000
# 6 0.000000 0.000000 0.000000 0.000000 0.000000 0.201986
#
#
# Mechanical properties :
#
#
# Convention : Reuss Voigt Hill
#
# Bulk Modulus (GPa) = 17.97726 65.81044 41.89385
# Shear Modulus (GPa) = 11.72922 27.51483 19.62202
#
# Velocity S-wave (km/s) = 2.34215 3.58727 3.02937
# Velocity P-wave (km/s) = 3.96511 6.92367 5.64178
#
# Compressibility (1/GPa) = 0.05562582
#
# Stress axis : x y z
#
# Youngs Moduli (GPa) = 147.90715 16.99522 125.67833
#
# Poissons Ratio (x) = 0.05022 0.40451
# Poissons Ratio (y) = 0.43702 0.35099
# Poissons Ratio (z) = 0.47606 0.04746
#
# Static dielectric constant tensor:
#      x y z
#    x 1.804020 0.000000 0.000000 
#    y 0.000000 2.332340 0.000000 
#    z 0.000000 0.000000 1.737480 
# 
# From -- ./inp_files/25989.got.cif
#   From: 2010.05.17/outbox.cif.g08.bks.cpg/sg73_13_cif.got.tgz:25989.got - 2010.06.03 17:35:07.
