data_PCOD9529993
_publ_section_title
;
Structure prediction by ZEFSAII (Michael W. Deem and Ramdas Pophale) SiO2 
 PCOD9529993
Probable space group: I B C A 
;
_chemical_formula_sum "Si O2"
_cell_formula_units_Z 120
_cell_length_a 24.984592
_cell_length_b 17.496709
_cell_length_c 13.587674
_cell_angle_alpha 90.000000
_cell_angle_beta 90.000000
_cell_angle_gamma 90.000000
_cell_volume 5939.826358
_symmetry_space_group_name_H-M "I B C A "
_symmetry_group_IT_number 73
_symmetry_cell_setting 'orthorhombic'
loop_
_space_group_symop_operation_xyz
x,y,z
-x,1/2-y,z
x,-y,1/2-z
1/2-x,y,-z
-x,-y,-z
x,1/2+y,-z
-x,y,1/2+z
1/2+x,-y,z
1/2+x,1/2+y,1/2+z
1/2-x,-y,1/2+z
1/2+x,1/2-y,-z
-x,1/2+y,1/2-z
1/2-x,1/2-y,1/2-z
1/2+x,y,1/2-z
1/2-x,1/2+y,z
x,1/2-y,1/2+z
loop_
_atom_site_type_symbol
_atom_site_label
_atom_site_fract_x
_atom_site_fract_y
_atom_site_fract_z
Si Si1 0.703247 0.767692 0.916970
Si Si2 0.750000 0.509018 0.500000
Si Si3 0.950780 0.691056 0.965462
Si Si4 0.939847 0.914056 0.649671
Si Si5 0.271665 0.879655 0.680311
Si Si6 0.526557 0.419724 0.872009
Si Si7 0.624783 0.324670 0.934055
Si Si8 0.181027 0.592864 0.620612
O O1 0.730358 0.809566 0.825246
O O2 0.681668 0.683523 0.897323
O O3 0.750000 0.762049 0.000000
O O4 0.656835 0.819279 0.963946
O O5 0.749292 0.563299 0.595412
O O6 0.799038 0.452519 0.475086
O O7 0.901231 0.739985 0.923376
O O8 0.000000 0.750000 0.967576
O O9 0.971267 0.620076 0.900992
O O10 0.943492 0.655644 0.073806
O O11 0.959198 0.897584 0.759626
O O12 0.877248 0.935873 0.650986
O O13 0.972278 0.989253 0.616809
O O14 0.330566 0.849454 0.645638
O O15 0.279013 0.915772 0.787016
O O16 0.575732 0.383463 0.933482
#
# Coordination Sequence:
#
# PCOD9529993 Si02
#       8
#    16   8  16  16  16  16  16  16
#     4  10  20  38  58  84 125 165 206 257 306 366
#     4  12  24  36  60  92 132 158 208 262 296 376
#     4  10  22  38  63  89 121 159 202 269 327 368
#     4  11  22  38  63  91 123 163 215 256 317 396
#     4  11  22  39  62  88 128 168 208 258 310 372
#     4  10  22  38  60  90 123 157 209 262 318 390
#     4  10  18  38  59  89 120 160 205 254 315 366
#     4  12  23  38  62  94 122 171 216 255 310 378
#
# _framework density 20.202611000000001
#
# number of rings (size 3 to 8) (size 9 to 14) (size 15 to 20)
#    0.000    1.333    5.333    2.000    1.867    1.600 
#    0.000    0.000    0.000    0.000    6.933    0.000 
#    0.000    0.000    0.000    0.000    0.000    0.000 
#
# Total GULP energy -334760.286992 kJ/mol
# GULP energy per Si atom -5579.338117 kJ/mol
# Density = 2.015663 g / cm^3
# Si number density = 20.202611 Si / 1000 Ang^3
#
#
#
# Elastic Constant Matrix: (Units=GPa)
#
#
# Indices 1 2 3 4 5 6 
#
# 1 55.5976 4.4207 10.6535 0.0000 0.0000 0.0000
# 2 4.4207 71.8754 8.9693 0.0000 0.0000 0.0000
# 3 10.6535 8.9693 64.0428 0.0000 0.0000 0.0000
# 4 0.0000 0.0000 0.0000 29.3607 0.0000 0.0000
# 5 0.0000 0.0000 0.0000 0.0000 27.3045 0.0000
# 6 0.0000 0.0000 0.0000 0.0000 0.0000 17.0343
#
#
#
# Elastic Compliance Matrix: (Units=1/GPa)
#
#
# Indices 1 2 3 4 5 6 
#
# 1 0.018621 -0.000772 -0.002989 0.000000 0.000000 0.000000
# 2 -0.000772 0.014192 -0.001859 0.000000 0.000000 0.000000
# 3 -0.002989 -0.001859 0.016372 0.000000 0.000000 0.000000
# 4 0.000000 0.000000 0.000000 0.034059 0.000000 0.000000
# 5 0.000000 0.000000 0.000000 0.000000 0.036624 0.000000
# 6 0.000000 0.000000 0.000000 0.000000 0.000000 0.058705
#
#
# Mechanical properties :
#
#
# Convention : Reuss Voigt Hill
#
# Bulk Modulus (GPa) = 26.35486 26.62253 26.48869
# Shear Modulus (GPa) = 24.69586 25.90472 25.30029
#
# Velocity S-wave (km/s) = 3.50009 3.58473 3.54266
# Velocity P-wave (km/s) = 5.42289 5.50819 5.46571
#
# Compressibility (1/GPa) = 0.03794367
#
# Stress axis : x y z
#
# Youngs Moduli (GPa) = 53.70395 70.45986 61.07903
#
# Poissons Ratio (x) = 0.05441 0.18259
# Poissons Ratio (y) = 0.04147 0.11356
# Poissons Ratio (z) = 0.16054 0.13100
#
# Static dielectric constant tensor:
#      x y z
#    x 1.714080 0.000000 0.000000 
#    y 0.000000 1.778070 0.000000 
#    z 0.000000 0.000000 1.722870 
# 
# From -- ./inp_files/19882.got.cif
#   From: 2010.05.17/outbox.cif.g08.bks.cpg/sg73_10_cif.got.tgz:19882.got - 2010.06.03 17:35:07.
