data_PCOD9529205
_publ_section_title
;
Structure prediction by ZEFSAII (Michael W. Deem and Ramdas Pophale) SiO2 
 PCOD9529205
Probable space group: I B A M
;
_chemical_formula_sum "Si O2"
_cell_formula_units_Z 116
_cell_length_a 22.023734
_cell_length_b 14.259262
_cell_length_c 18.510527
_cell_angle_alpha 90.000000
_cell_angle_beta 90.000000
_cell_angle_gamma 90.000000
_cell_volume 5813.086499
_symmetry_space_group_name_H-M "I B A M"
_symmetry_group_IT_number 72
_symmetry_cell_setting 'orthorhombic'
loop_
_space_group_symop_operation_xyz
x,y,z
-x,-y,z
x,-y,1/2-z
-x,y,1/2-z
-x,-y,-z
x,y,-z
-x,y,1/2+z
x,-y,1/2+z
1/2+x,1/2+y,1/2+z
1/2-x,1/2-y,1/2+z
1/2+x,1/2-y,-z
1/2-x,1/2+y,-z
1/2-x,1/2-y,1/2-z
1/2+x,1/2+y,1/2-z
1/2-x,1/2+y,z
1/2+x,1/2-y,z
loop_
_atom_site_type_symbol
_atom_site_label
_atom_site_fract_x
_atom_site_fract_y
_atom_site_fract_z
Si Si1 0.500000 0.500000 0.250000
Si Si2 0.272640 0.479341 0.665725
Si Si3 0.025344 0.393208 0.674087
Si Si4 0.100575 0.125770 0.181895
Si Si5 0.275142 0.199457 0.084176
Si Si6 0.926742 0.301335 0.415032
Si Si7 0.642449 0.784092 0.791572
Si Si8 0.694218 0.849180 0.355970
O O1 0.456746 0.436434 0.298797
O O2 0.259981 0.500000 0.750000
O O3 0.342055 0.441802 0.664712
O O4 0.235937 0.398367 0.624635
O O5 0.245015 0.573130 0.630749
O O6 0.095820 0.366469 0.684126
O O7 0.000000 0.500000 0.668817
O O8 0.000000 0.355314 0.750000
O O9 0.992366 0.336883 0.610863
O O10 0.085802 0.199387 0.118783
O O11 0.114449 0.193650 0.250964
O O12 0.325211 0.247257 0.135200
O O13 0.214818 0.260135 0.097283
O O14 0.289284 0.190967 0.000000
O O15 0.921444 0.302305 0.500000
O O16 0.874874 0.369350 0.380214
O O17 0.687975 0.821754 0.728768
#
# Coordination Sequence:
#
# PCOD9529205 Si02
#       8
#     4  16  16  16  16  16  16  16
#     4  12  24  40  74 108 118 164 234 290 312 396
#     4  12  23  40  69  99 131 175 221 279 330 400
#     4  11  23  40  67  99 125 167 226 281 326 390
#     4  11  23  42  69 100 129 171 227 276 328 394
#     4  12  26  42  65 100 140 173 218 280 344 404
#     4  11  24  45  68  93 136 180 215 272 344 400
#     4  11  22  44  68  93 131 177 222 268 332 400
#     4  11  23  41  69  97 127 179 223 270 329 410
#
# _framework density 19.954975000000001
#
# number of rings (size 3 to 8) (size 9 to 14) (size 15 to 20)
#    0.000    0.690    7.586    2.483    1.931    1.931 
#    0.000    0.345    0.000    0.000    0.000    0.000 
#    0.000    0.000    0.000    0.000    0.000    0.000 
#
# Total GULP energy -323373.891562 kJ/mol
# GULP energy per Si atom -5575.411923 kJ/mol
# Density = 1.990956 g / cm^3
# Si number density = 19.954975 Si / 1000 Ang^3
#
#
#
# Elastic Constant Matrix: (Units=GPa)
#
#
# Indices 1 2 3 4 5 6 
#
# 1 70.3068 39.6374 25.5806 0.0000 0.0000 0.0000
# 2 39.6374 104.8604 21.7077 0.0000 0.0000 0.0000
# 3 25.5806 21.7077 140.1672 0.0000 0.0000 0.0000
# 4 0.0000 0.0000 0.0000 9.6471 0.0000 0.0000
# 5 0.0000 0.0000 0.0000 0.0000 24.6066 0.0000
# 6 0.0000 0.0000 0.0000 0.0000 0.0000 29.4046
#
#
#
# Elastic Compliance Matrix: (Units=1/GPa)
#
#
# Indices 1 2 3 4 5 6 
#
# 1 0.018833 -0.006620 -0.002412 0.000000 0.000000 0.000000
# 2 -0.006620 0.012179 -0.000678 0.000000 0.000000 0.000000
# 3 -0.002412 -0.000678 0.007680 0.000000 0.000000 0.000000
# 4 0.000000 0.000000 0.000000 0.103658 0.000000 0.000000
# 5 0.000000 0.000000 0.000000 0.000000 0.040640 0.000000
# 6 0.000000 0.000000 0.000000 0.000000 0.000000 0.034008
#
#
# Mechanical properties :
#
#
# Convention : Reuss Voigt Hill
#
# Bulk Modulus (GPa) = 51.88752 54.35396 53.12074
# Shear Modulus (GPa) = 20.58962 27.95889 24.27425
#
# Velocity S-wave (km/s) = 3.21566 3.74719 3.49155
# Velocity P-wave (km/s) = 6.31237 6.78375 6.55230
#
# Compressibility (1/GPa) = 0.01927246
#
# Stress axis : x y z
#
# Youngs Moduli (GPa) = 53.09862 82.10803 130.21655
#
# Poissons Ratio (x) = 0.54352 0.31406
# Poissons Ratio (y) = 0.35149 0.08830
# Poissons Ratio (z) = 0.12807 0.05568
#
# Static dielectric constant tensor:
#      x y z
#    x 1.827320 0.000000 0.000000 
#    y 0.000000 1.736910 0.000000 
#    z 0.000000 0.000000 1.674950 
# 
# From -- ./inp_files/33429.got.cif
#   From: 2010.05.17/outbox.cif.g08.bks.cpg/sg72_17_cif.got.tgz:33429.got - 2010.06.03 17:03:01.
