data_PCOD9529541
_publ_section_title
;
Structure prediction by ZEFSAII (Michael W. Deem and Ramdas Pophale) SiO2 
 PCOD9529541
Probable space group: I B A M
;
_chemical_formula_sum "Si O2"
_cell_formula_units_Z 40
_cell_length_a 27.000000
_cell_length_b 9.000000
_cell_length_c 18.000000
_cell_angle_alpha 90.000000
_cell_angle_beta 90.000000
_cell_angle_gamma 90.000000
_cell_volume 4374.000000
_symmetry_space_group_name_H-M "I B A M"
_symmetry_group_IT_number 72
_symmetry_cell_setting 'orthorhombic'
loop_
_space_group_symop_operation_xyz
x,y,z
-x,-y,z
x,-y,1/2-z
-x,y,1/2-z
-x,-y,-z
x,y,-z
-x,y,1/2+z
x,-y,1/2+z
1/2+x,1/2+y,1/2+z
1/2-x,1/2-y,1/2+z
1/2+x,1/2-y,-z
1/2-x,1/2+y,-z
1/2-x,1/2-y,1/2-z
1/2+x,1/2+y,1/2-z
1/2-x,1/2+y,z
1/2+x,1/2-y,z
loop_
_atom_site_type_symbol
_atom_site_label
_atom_site_fract_x
_atom_site_fract_y
_atom_site_fract_z
Si Si1 0.053955 0.191607 0.409534
Si Si2 0.697948 0.675523 0.270228
Si Si3 0.373604 0.897283 0.318698
Si Si4 0.343529 0.826901 0.089645
Si Si5 0.941794 0.144547 0.588593
O O1 0.058133 0.207886 0.500000
O O2 0.084904 0.316875 0.367871
O O3 0.996132 0.194715 0.386444
O O4 0.070919 0.023830 0.386959
O O5 0.696816 0.500000 0.250000
O O6 0.750000 0.750000 0.250000
O O7 0.658445 0.767837 0.220666
O O8 0.688084 0.716627 0.357254
O O9 0.391780 0.000000 0.250000
O O10 0.342782 0.009241 0.372910
O O11 0.399122 0.763083 0.101492
O O12 0.333260 0.826145 0.000000
O O13 0.946940 0.129253 0.500000
#
# Coordination Sequence:
#
# PCOD9529541 Si02
#       5
#    16  16  16  16  16
#     4   9  16  31  53  79 110 148 188 228 271 323
#     4  11  23  43  64  82 111 146 180 229 290 338
#     4  10  21  35  54  80 112 148 184 227 280 330
#     4  10  20  37  59  86 115 148 189 230 270 330
#     4   8  16  30  53  81 110 144 186 229 272 318
#
# _framework density 9.1449470000000002
#
# number of rings (size 3 to 8) (size 9 to 14) (size 15 to 20)
#    0.000    2.400    0.000    4.800    0.000    0.800 
#    0.000   16.000    0.000   10.800    0.000    0.000 
#    0.000    0.000    0.000    0.000    0.000    0.000 
#
# Total GULP energy -222907.659257 kJ/mol
# GULP energy per Si atom -5572.691481 kJ/mol
# Density = 0.912413 g / cm^3
# Si number density = 9.144947 Si / 1000 Ang^3
#
#
#
# Elastic Constant Matrix: (Units=GPa)
#
#
# Indices 1 2 3 4 5 6 
#
# 1 55.7305 38.7990 34.0313 0.0000 0.0000 0.0000
# 2 38.7990 142.6780 56.5775 0.0000 0.0000 0.0000
# 3 34.0313 56.5775 120.9520 0.0000 0.0000 0.0000
# 4 0.0000 0.0000 0.0000 37.0134 0.0000 0.0000
# 5 0.0000 0.0000 0.0000 0.0000 27.1820 0.0000
# 6 0.0000 0.0000 0.0000 0.0000 0.0000 31.7348
#
#
#
# Elastic Compliance Matrix: (Units=1/GPa)
#
#
# Indices 1 2 3 4 5 6 
#
# 1 0.024009 -0.004727 -0.004544 0.000000 0.000000 0.000000
# 2 -0.004727 0.009536 -0.003130 0.000000 0.000000 0.000000
# 3 -0.004544 -0.003130 0.011011 0.000000 0.000000 0.000000
# 4 0.000000 0.000000 0.000000 0.027017 0.000000 0.000000
# 5 0.000000 0.000000 0.000000 0.000000 0.036789 0.000000
# 6 0.000000 0.000000 0.000000 0.000000 0.000000 0.031511
#
#
# Mechanical properties :
#
#
# Convention : Reuss Voigt Hill
#
# Bulk Modulus (GPa) = 50.62713 64.24177 57.43445
# Shear Modulus (GPa) = 29.19536 31.84955 30.52245
#
# Velocity S-wave (km/s) = 3.99965 4.17750 4.08955
# Velocity P-wave (km/s) = 7.00501 7.64651 7.33278
#
# Compressibility (1/GPa) = 0.01975226
#
# Stress axis : x y z
#
# Youngs Moduli (GPa) = 41.65064 104.87063 90.82141
#
# Poissons Ratio (x) = 0.49572 0.41271
# Poissons Ratio (y) = 0.19688 0.28431
# Poissons Ratio (z) = 0.18927 0.32829
#
# Static dielectric constant tensor:
#      x y z
#    x 1.660250 0.000000 0.000000 
#    y 0.000000 1.643760 0.000000 
#    z 0.000000 0.000000 1.636010 
# 
# From -- ./inp_files/28309.got.cif
#   From: 2010.05.17/outbox.ucp.g08.bks.cvg/sg72_15_cif.got.tgz:28309.got - 2010.06.11 16:33:07.
