data_PCOD9529732
_publ_section_title
;
Structure prediction by ZEFSAII (Michael W. Deem and Ramdas Pophale) SiO2 
 PCOD9529732
Probable space group: I B C A 
;
_chemical_formula_sum "Si O2"
_cell_formula_units_Z 80
_cell_length_a 24.874441
_cell_length_b 5.602081
_cell_length_c 27.128195
_cell_angle_alpha 90.000000
_cell_angle_beta 90.000000
_cell_angle_gamma 90.000000
_cell_volume 3780.276897
_symmetry_space_group_name_H-M "I B C A "
_symmetry_group_IT_number 73
_symmetry_cell_setting 'orthorhombic'
loop_
_space_group_symop_operation_xyz
x,y,z
-x,1/2-y,z
x,-y,1/2-z
1/2-x,y,-z
-x,-y,-z
x,1/2+y,-z
-x,y,1/2+z
1/2+x,-y,z
1/2+x,1/2+y,1/2+z
1/2-x,-y,1/2+z
1/2+x,1/2-y,-z
-x,1/2+y,1/2-z
1/2-x,1/2-y,1/2-z
1/2+x,y,1/2-z
1/2-x,1/2+y,z
x,1/2-y,1/2+z
loop_
_atom_site_type_symbol
_atom_site_label
_atom_site_fract_x
_atom_site_fract_y
_atom_site_fract_z
Si Si1 0.603973 0.234113 0.484303
Si Si2 0.055710 0.349098 0.615818
Si Si3 0.611530 0.375742 0.696858
Si Si4 0.270707 0.732201 0.807155
Si Si5 0.000000 0.250000 0.450911
Si Si6 0.000000 0.250000 0.278566
O O1 0.630671 0.470122 0.508627
O O2 0.587667 0.287239 0.427544
O O3 0.547985 0.174724 0.512915
O O4 0.098676 0.424556 0.656337
O O5 0.029408 0.565299 0.584839
O O6 0.000000 0.250000 0.638990
O O7 0.618242 0.500000 0.750000
O O8 0.665026 0.225377 0.689631
O O9 0.556776 0.223504 0.694249
O O10 0.250000 0.750000 0.750000
O O11 0.246866 0.488500 0.828736
O O12 0.993910 0.500000 0.250000
#
# Coordination Sequence:
#
# PCOD9529732 Si02
#       6
#    16  16  16  16   8   8
#     4  10  17  32  55  74 107 156 192 233 274 337
#     4  11  20  34  52  82 119 158 196 228 292 362
#     4  11  24  39  57  87 121 167 197 249 299 369
#     4  10  21  42  67  80  99 151 217 263 294 325
#     4  10  17  34  51  78 114 166 193 230 279 352
#     4  10  25  40  55  78 120 160 191 226 299 376
#
# _framework density 21.162472000000001
#
# number of rings (size 3 to 8) (size 9 to 14) (size 15 to 20)
#    0.000    1.600    5.000    1.800    8.400    0.000 
#    3.600    0.000    0.000    0.000    0.000    0.000 
#    0.000   19.200    0.000    0.000    0.000    0.000 
#
# Total GULP energy -222789.588211 kJ/mol
# GULP energy per Si atom -5569.739705 kJ/mol
# Density = 2.111431 g / cm^3
# Si number density = 21.162472 Si / 1000 Ang^3
#
#
#
# Elastic Constant Matrix: (Units=GPa)
#
#
# Indices 1 2 3 4 5 6 
#
# 1 115.3211 21.4900 3.5067 0.0000 0.0000 0.0000
# 2 21.4900 109.0694 4.8103 0.0000 0.0000 0.0000
# 3 3.5067 4.8103 76.6851 0.0000 0.0000 0.0000
# 4 0.0000 0.0000 0.0000 15.2867 0.0000 0.0000
# 5 0.0000 0.0000 0.0000 0.0000 8.1370 0.0000
# 6 0.0000 0.0000 0.0000 0.0000 0.0000 23.8669
#
#
#
# Elastic Compliance Matrix: (Units=1/GPa)
#
#
# Indices 1 2 3 4 5 6 
#
# 1 0.009009 -0.001762 -0.000301 0.000000 0.000000 0.000000
# 2 -0.001762 0.009538 -0.000518 0.000000 0.000000 0.000000
# 3 -0.000301 -0.000518 0.013087 0.000000 0.000000 0.000000
# 4 0.000000 0.000000 0.000000 0.065416 0.000000 0.000000
# 5 0.000000 0.000000 0.000000 0.000000 0.122895 0.000000
# 6 0.000000 0.000000 0.000000 0.000000 0.000000 0.041899
#
#
# Mechanical properties :
#
#
# Convention : Reuss Voigt Hill
#
# Bulk Modulus (GPa) = 37.77571 40.07662 38.92616
# Shear Modulus (GPa) = 18.12709 27.54269 22.83489
#
# Velocity S-wave (km/s) = 2.92989 3.61153 3.28842
# Velocity P-wave (km/s) = 5.41616 6.03072 5.73168
#
# Compressibility (1/GPa) = 0.02647204
#
# Stress axis : x y z
#
# Youngs Moduli (GPa) = 111.00127 104.83914 76.41397
#
# Poissons Ratio (x) = 0.18470 0.02304
# Poissons Ratio (y) = 0.19555 0.03956
# Poissons Ratio (z) = 0.03346 0.05428
#
# Static dielectric constant tensor:
#      x y z
#    x 1.748270 0.000000 0.000000 
#    y 0.000000 1.944350 0.000000 
#    z 0.000000 0.000000 1.797530 
# 
# From -- ./inp_files/34732.got.cif
#   From: 2010.05.17/outbox.cif.g08.bks.cpg/sg73_18_cif.got.tgz:34732.got - 2010.06.03 17:35:07.
