data_PCOD9529065
_publ_section_title
;
Structure prediction by ZEFSAII (Michael W. Deem and Ramdas Pophale) SiO2 
 PCOD9529065
Probable space group: I B A M
;
_chemical_formula_sum "Si O2"
_cell_formula_units_Z 80
_cell_length_a 7.774948
_cell_length_b 29.955111
_cell_length_c 16.306750
_cell_angle_alpha 90.000000
_cell_angle_beta 90.000000
_cell_angle_gamma 90.000000
_cell_volume 3797.832786
_symmetry_space_group_name_H-M "I B A M"
_symmetry_group_IT_number 72
_symmetry_cell_setting 'orthorhombic'
loop_
_space_group_symop_operation_xyz
x,y,z
-x,-y,z
x,-y,1/2-z
-x,y,1/2-z
-x,-y,-z
x,y,-z
-x,y,1/2+z
x,-y,1/2+z
1/2+x,1/2+y,1/2+z
1/2-x,1/2-y,1/2+z
1/2+x,1/2-y,-z
1/2-x,1/2+y,-z
1/2-x,1/2-y,1/2-z
1/2+x,1/2+y,1/2-z
1/2-x,1/2+y,z
1/2+x,1/2-y,z
loop_
_atom_site_type_symbol
_atom_site_label
_atom_site_fract_x
_atom_site_fract_y
_atom_site_fract_z
Si Si1 0.825365 0.610311 0.145201
Si Si2 0.014325 0.948901 0.149556
Si Si3 0.358500 0.202439 0.409663
Si Si4 0.780521 0.618868 0.659519
Si Si5 0.295117 0.219599 0.829589
O O1 0.696563 0.571209 0.120452
O O2 0.810719 0.610649 0.243643
O O3 0.756766 0.657728 0.112394
O O4 0.028246 0.610524 0.121831
O O5 0.000000 0.949109 0.250000
O O6 0.859903 0.915453 0.125288
O O7 0.000000 0.000000 0.122558
O O8 0.432689 0.197268 0.500000
O O9 0.505977 0.207583 0.341568
O O10 0.249362 0.246949 0.402779
O O11 0.714316 0.670458 0.659308
O O12 0.250000 0.250000 0.750000
#
# Coordination Sequence:
#
# PCOD9529065 Si02
#       5
#    16  16  16  16  16
#     4   9  18  33  52  75 111 149 189 236 292 352
#     4   9  18  31  52  83 114 143 186 247 304 347
#     4  11  23  36  52  82 118 153 194 245 299 351
#     4   9  18  32  52  81 108 147 195 236 290 355
#     4  11  21  35  57  81 110 156 201 240 286 359
#
# _framework density 21.064644000000001
#
# number of rings (size 3 to 8) (size 9 to 14) (size 15 to 20)
#    0.000    2.200    2.000    1.200    2.800    2.400 
#    0.000    4.000    0.000    0.600    0.000    5.600 
#    0.000    0.000    0.000    0.000    0.000    0.000 
#
# Total GULP energy -222725.623001 kJ/mol
# GULP energy per Si atom -5568.140575 kJ/mol
# Density = 2.101670 g / cm^3
# Si number density = 21.064644 Si / 1000 Ang^3
#
#
#
# Elastic Constant Matrix: (Units=GPa)
#
#
# Indices 1 2 3 4 5 6 
#
# 1 76.8595 89.8179 16.9325 0.0000 0.0000 0.0000
# 2 89.8179 216.4082 15.8845 0.0000 0.0000 0.0000
# 3 16.9325 15.8845 48.8639 -0.0001 0.0000 -0.0002
# 4 0.0000 0.0000 -0.0001 -2.3038 0.0000 0.0000
# 5 0.0000 0.0000 0.0000 0.0000 9.9345 0.0000
# 6 0.0000 0.0000 -0.0002 0.0000 0.0000 28.2484
#
#
#
# Elastic Compliance Matrix: (Units=1/GPa)
#
#
# Indices 1 2 3 4 5 6 
#
# 1 0.026781 -0.010689 -0.005806 0.000000 0.000000 0.000000
# 2 -0.010689 0.009000 0.000778 0.000000 0.000000 0.000000
# 3 -0.005806 0.000778 0.022224 -0.000001 0.000000 0.000000
# 4 0.000000 0.000000 -0.000001 -0.434070 0.000000 -0.000001
# 5 0.000000 0.000000 0.000000 0.000000 0.100659 0.000000
# 6 0.000000 0.000000 0.000000 -0.000001 0.000000 0.035400
#
#
# Mechanical properties :
#
#
# Convention : Reuss Voigt Hill
#
# Bulk Modulus (GPa) = 37.63315 65.26682 51.44999
# Shear Modulus (GPa) = -25.03556 21.80895 -1.61331
#
# Velocity S-wave (km/s) = -3.45122 3.22115 -0.87610
# Velocity P-wave (km/s) = 1.42236 6.69968 4.84298
#
# Compressibility (1/GPa) = 0.02657232
#
# Stress axis : x y z
#
# Youngs Moduli (GPa) = 37.34002 111.10949 44.99692
#
# Poissons Ratio (x) = 1.18765 0.26123
# Poissons Ratio (y) = 0.39913 -0.03502
# Poissons Ratio (z) = 0.21678 -0.08647
#
# Static dielectric constant tensor:
#      x y z
#    x 1.755110 0.000000 0.000000 
#    y 0.000000 1.837060 0.000000 
#    z 0.000000 0.000000 1.756720 
# 
# From -- ./inp_files/28196.got.cif
#   From: 2010.05.17/outbox.cif.g08.bks.cpg/sg72_15_cif.got.tgz:28196.got - 2010.06.03 17:03:01.
