data_PCOD9529046
_publ_section_title
;
Structure prediction by ZEFSAII (Michael W. Deem and Ramdas Pophale) SiO2 
 PCOD9529046
Probable space group: I B A M
;
_chemical_formula_sum "Si O2"
_cell_formula_units_Z 80
_cell_length_a 25.826328
_cell_length_b 21.893432
_cell_length_c 9.623528
_cell_angle_alpha 90.000000
_cell_angle_beta 90.000000
_cell_angle_gamma 90.000000
_cell_volume 5441.402142
_symmetry_space_group_name_H-M "I B A M"
_symmetry_group_IT_number 72
_symmetry_cell_setting 'orthorhombic'
loop_
_space_group_symop_operation_xyz
x,y,z
-x,-y,z
x,-y,1/2-z
-x,y,1/2-z
-x,-y,-z
x,y,-z
-x,y,1/2+z
x,-y,1/2+z
1/2+x,1/2+y,1/2+z
1/2-x,1/2-y,1/2+z
1/2+x,1/2-y,-z
1/2-x,1/2+y,-z
1/2-x,1/2-y,1/2-z
1/2+x,1/2+y,1/2-z
1/2-x,1/2+y,z
1/2+x,1/2-y,z
loop_
_atom_site_type_symbol
_atom_site_label
_atom_site_fract_x
_atom_site_fract_y
_atom_site_fract_z
Si Si1 0.883038 0.377521 0.739127
Si Si2 0.044943 0.588173 0.500000
Si Si3 0.721506 0.337602 0.839836
Si Si4 0.224109 0.438179 0.161711
Si Si5 0.926056 0.445792 0.000000
Si Si6 0.671053 0.760191 0.842086
O O1 0.930797 0.380239 0.634380
O O2 0.831057 0.403084 0.667318
O O3 0.895650 0.422429 0.866208
O O4 0.870818 0.310028 0.794721
O O5 0.065864 0.518258 0.500000
O O6 0.983265 0.583815 0.500000
O O7 0.735257 0.394848 0.742312
O O8 0.679319 0.294683 0.765570
O O9 0.774608 0.297724 0.844262
O O10 0.709203 0.353426 0.000000
O O11 0.219387 0.500000 0.250000
O O12 0.237167 0.448893 0.000000
O O13 0.661524 0.739229 0.000000
#
# Coordination Sequence:
#
# PCOD9529046 Si02
#       6
#    16   8  16  16   8  16
#     4  11  21  32  48  65  84 114 153 194 232 271
#     4  11  22  34  48  63  84 114 153 194 241 279
#     4   9  18  29  46  66  87 111 141 179 221 261
#     4  11  21  31  46  66  92 119 150 184 221 264
#     4  11  22  36  46  61  86 116 149 196 241 281
#     4   9  17  30  45  62  86 110 142 182 223 266
#
# _framework density 14.702093
#
# number of rings (size 3 to 8) (size 9 to 14) (size 15 to 20)
#    0.000    1.800    2.000    3.600    4.200    4.000 
#    0.000    0.000    0.000    0.000    0.000    0.000 
#    0.000    0.000    0.000    0.000    0.000    6.000 
#
# Total GULP energy -223143.291142 kJ/mol
# GULP energy per Si atom -5578.582279 kJ/mol
# Density = 1.466863 g / cm^3
# Si number density = 14.702093 Si / 1000 Ang^3
#
#
#
# Elastic Constant Matrix: (Units=GPa)
#
#
# Indices 1 2 3 4 5 6 
#
# 1 34.1442 20.1181 20.3498 0.0000 0.0000 0.0000
# 2 20.1181 41.1409 29.2494 0.0000 0.0000 0.0000
# 3 20.3498 29.2494 130.9285 0.0000 0.0000 0.0000
# 4 0.0000 0.0000 0.0000 17.6323 0.0000 0.0000
# 5 0.0000 0.0000 0.0000 0.0000 8.9640 0.0000
# 6 0.0000 0.0000 0.0000 0.0000 0.0000 24.4247
#
#
#
# Elastic Compliance Matrix: (Units=1/GPa)
#
#
# Indices 1 2 3 4 5 6 
#
# 1 0.041711 -0.018769 -0.002290 0.000000 0.000000 0.000000
# 2 -0.018769 0.037342 -0.005425 0.000000 0.000000 0.000000
# 3 -0.002290 -0.005425 0.009206 0.000000 0.000000 0.000000
# 4 0.000000 0.000000 0.000000 0.056714 0.000000 0.000000
# 5 0.000000 0.000000 0.000000 0.000000 0.111557 0.000000
# 6 0.000000 0.000000 0.000000 0.000000 0.000000 0.040942
#
#
# Mechanical properties :
#
#
# Convention : Reuss Voigt Hill
#
# Bulk Modulus (GPa) = 28.33600 38.40536 33.37068
# Shear Modulus (GPa) = 13.80443 19.30397 16.55420
#
# Velocity S-wave (km/s) = 3.06754 3.62748 3.35920
# Velocity P-wave (km/s) = 5.64462 6.61240 6.14758
#
# Compressibility (1/GPa) = 0.03529079
#
# Stress axis : x y z
#
# Youngs Moduli (GPa) = 23.97442 26.77983 108.62915
#
# Poissons Ratio (x) = 0.50262 0.24877
# Poissons Ratio (y) = 0.44997 0.58931
# Poissons Ratio (z) = 0.05490 0.14528
#
# Static dielectric constant tensor:
#      x y z
#    x 1.460200 0.000000 0.000000 
#    y 0.000000 1.479290 0.000000 
#    z 0.000000 0.000000 1.443130 
# 
# From -- ./inp_files/4854.got.cif
#   From: 2010.05.17/outbox.cif.g08.bks.cpg/sg72_3_cif.got.tgz:4854.got - 2010.06.03 17:03:01.
