data_PCOD9529693
_publ_section_title
;
Structure prediction by ZEFSAII (Michael W. Deem and Ramdas Pophale) SiO2 
 PCOD9529693
Probable space group: I B C A 
;
_chemical_formula_sum "Si O2"
_cell_formula_units_Z 112
_cell_length_a 20.580682
_cell_length_b 12.074554
_cell_length_c 23.084229
_cell_angle_alpha 90.000000
_cell_angle_beta 90.000000
_cell_angle_gamma 90.000000
_cell_volume 5736.489914
_symmetry_space_group_name_H-M "I B C A "
_symmetry_group_IT_number 73
_symmetry_cell_setting 'orthorhombic'
loop_
_space_group_symop_operation_xyz
x,y,z
-x,1/2-y,z
x,-y,1/2-z
1/2-x,y,-z
-x,-y,-z
x,1/2+y,-z
-x,y,1/2+z
1/2+x,-y,z
1/2+x,1/2+y,1/2+z
1/2-x,-y,1/2+z
1/2+x,1/2-y,-z
-x,1/2+y,1/2-z
1/2-x,1/2-y,1/2-z
1/2+x,y,1/2-z
1/2-x,1/2+y,z
x,1/2-y,1/2+z
loop_
_atom_site_type_symbol
_atom_site_label
_atom_site_fract_x
_atom_site_fract_y
_atom_site_fract_z
Si Si1 0.250000 0.579794 0.000000
Si Si2 0.375541 0.886258 0.429464
Si Si3 0.666366 0.004862 0.686037
Si Si4 0.179162 0.035451 0.186757
Si Si5 0.601520 0.369737 0.477088
Si Si6 0.301624 0.892783 0.917012
Si Si7 0.324912 0.271283 0.875154
Si Si8 0.500000 0.750000 0.961659
O O1 0.314355 0.638706 0.973751
O O2 0.234552 0.498569 0.945852
O O3 0.437562 0.805107 0.431093
O O4 0.357278 0.908264 0.362341
O O5 0.394848 0.008154 0.451548
O O6 0.660887 0.879666 0.662917
O O7 0.636317 0.000000 0.750000
O O8 0.742672 0.031483 0.691742
O O9 0.166063 0.157367 0.159859
O O10 0.152893 0.000000 0.250000
O O11 0.163197 0.940505 0.139691
O O12 0.648739 0.364488 0.532522
O O13 0.627274 0.282648 0.429697
O O14 0.530017 0.343632 0.497701
O O15 0.248099 0.800517 0.899335
#
# Coordination Sequence:
#
# PCOD9529693 Si02
#       8
#     8  16  16  16  16  16  16   8
#     4  10  16  36  60  86 126 156 206 270 320 380
#     4  10  21  40  57  90 127 160 212 263 321 394
#     4   9  19  36  58  84 118 161 205 262 307 371
#     4  10  21  33  55  91 129 162 196 260 325 376
#     4  10  22  38  58  86 120 160 210 252 320 390
#     4  10  18  36  58  90 120 155 202 267 304 374
#     4  10  19  36  58  87 119 160 206 243 325 380
#     4  12  26  36  58  90 126 170 190 256 334 386
#
# _framework density 19.524134
#
# number of rings (size 3 to 8) (size 9 to 14) (size 15 to 20)
#    0.000    2.000    5.714    0.429    6.000    5.143 
#    0.000    0.000    0.000    4.286    0.000    0.000 
#    0.000    0.000    0.000    0.000    0.000    0.143 
#
# Total GULP energy -311889.733582 kJ/mol
# GULP energy per Si atom -5569.459528 kJ/mol
# Density = 1.947970 g / cm^3
# Si number density = 19.524134 Si / 1000 Ang^3
#
#
#
# Elastic Constant Matrix: (Units=GPa)
#
#
# Indices 1 2 3 4 5 6 
#
# 1 49.7855 22.6991 28.1318 0.0000 0.0000 0.0000
# 2 22.6991 74.7318 27.9506 0.0000 0.0000 0.0000
# 3 28.1318 27.9506 124.5970 0.0000 0.0000 0.0000
# 4 0.0000 0.0000 0.0000 8.6690 0.0000 0.0000
# 5 0.0000 0.0000 0.0000 0.0000 6.9408 0.0000
# 6 0.0000 0.0000 0.0000 0.0000 0.0000 25.8748
#
#
#
# Elastic Compliance Matrix: (Units=1/GPa)
#
#
# Indices 1 2 3 4 5 6 
#
# 1 0.025310 -0.006059 -0.004355 0.000000 0.000000 0.000000
# 2 -0.006059 0.016057 -0.002234 0.000000 0.000000 0.000000
# 3 -0.004355 -0.002234 0.009510 0.000000 0.000000 0.000000
# 4 0.000000 0.000000 0.000000 0.115354 0.000000 0.000000
# 5 0.000000 0.000000 0.000000 0.000000 0.144076 0.000000
# 6 0.000000 0.000000 0.000000 0.000000 0.000000 0.038648
#
#
# Mechanical properties :
#
#
# Convention : Reuss Voigt Hill
#
# Bulk Modulus (GPa) = 39.09169 45.18637 42.13903
# Shear Modulus (GPa) = 13.06240 19.65242 16.35741
#
# Velocity S-wave (km/s) = 2.58938 3.17609 2.89763
# Velocity P-wave (km/s) = 5.38568 6.05344 5.72930
#
# Compressibility (1/GPa) = 0.02558088
#
# Stress axis : x y z
#
# Youngs Moduli (GPa) = 39.51083 62.27807 105.14797
#
# Poissons Ratio (x) = 0.37732 0.45795
# Poissons Ratio (y) = 0.23938 0.23491
# Poissons Ratio (z) = 0.17208 0.13914
#
# Static dielectric constant tensor:
#      x y z
#    x 1.699990 0.000000 0.000000 
#    y 0.000000 1.758140 0.000000 
#    z 0.000000 0.000000 1.736760 
# 
# From -- ./inp_files/30164.got.cif
#   From: 2010.05.17/outbox.cif.g08.bks.cpg/sg73_16_cif.got.tgz:30164.got - 2010.06.03 17:35:07.
