data_PCOD9529140
_publ_section_title
;
Structure prediction by ZEFSAII (Michael W. Deem and Ramdas Pophale) SiO2 
 PCOD9529140
Probable space group: I B A M
;
_chemical_formula_sum "Si O2"
_cell_formula_units_Z 104
_cell_length_a 29.339674
_cell_length_b 9.057450
_cell_length_c 20.787086
_cell_angle_alpha 90.000000
_cell_angle_beta 90.000000
_cell_angle_gamma 90.000000
_cell_volume 5524.014909
_symmetry_space_group_name_H-M "I B A M"
_symmetry_group_IT_number 72
_symmetry_cell_setting 'orthorhombic'
loop_
_space_group_symop_operation_xyz
x,y,z
-x,-y,z
x,-y,1/2-z
-x,y,1/2-z
-x,-y,-z
x,y,-z
-x,y,1/2+z
x,-y,1/2+z
1/2+x,1/2+y,1/2+z
1/2-x,1/2-y,1/2+z
1/2+x,1/2-y,-z
1/2-x,1/2+y,-z
1/2-x,1/2-y,1/2-z
1/2+x,1/2+y,1/2-z
1/2-x,1/2+y,z
1/2+x,1/2-y,z
loop_
_atom_site_type_symbol
_atom_site_label
_atom_site_fract_x
_atom_site_fract_y
_atom_site_fract_z
Si Si1 0.287978 0.268268 0.925386
Si Si2 0.578620 0.500000 0.250000
Si Si3 0.382087 0.315179 0.136516
Si Si4 0.029515 0.277374 0.189313
Si Si5 0.381590 0.977191 0.823732
Si Si6 0.194030 0.418667 0.075552
Si Si7 0.475223 0.658535 0.428353
O O1 0.330766 0.335036 0.887680
O O2 0.238181 0.323491 0.905870
O O3 0.292015 0.091329 0.921218
O O4 0.293156 0.310968 0.000000
O O5 0.608248 0.595268 0.201091
O O6 0.548352 0.615866 0.289967
O O7 0.421773 0.360568 0.087071
O O8 0.389238 0.141542 0.149572
O O9 0.072151 0.383724 0.178545
O O10 0.000000 0.328741 0.250000
O O11 0.998096 0.257159 0.127011
O O12 0.346255 0.900319 0.872811
O O13 0.364784 0.000000 0.750000
O O14 0.181787 0.388042 0.000000
O O15 0.500000 0.500000 0.426183
O O16 0.481069 0.720488 0.500000
#
# Coordination Sequence:
#
# PCOD9529140 Si02
#       7
#    16   8  16  16  16  16  16
#     4   9  19  39  63  87 116 156 197 239 299 359
#     4  12  21  38  60  82 118 156 204 236 293 350
#     4  11  22  39  59  88 118 157 197 247 297 355
#     4  12  22  40  61  84 117 161 199 245 291 357
#     4  11  23  40  60  89 121 153 200 245 303 351
#     4   9  20  40  64  88 121 157 193 244 299 357
#     4  11  22  37  58  87 120 154 198 250 295 343
#
# _framework density 18.826886999999999
#
# number of rings (size 3 to 8) (size 9 to 14) (size 15 to 20)
#    0.000    1.385    4.615    0.692    0.000    4.615 
#    1.385    2.308    0.000    0.000    0.000    0.000 
#    0.000    0.000    0.000    0.000    0.000    0.000 
#
# Total GULP energy -290431.747181 kJ/mol
# GULP energy per Si atom -5585.225907 kJ/mol
# Density = 1.878404 g / cm^3
# Si number density = 18.826887 Si / 1000 Ang^3
#
#
#
# Elastic Constant Matrix: (Units=GPa)
#
#
# Indices 1 2 3 4 5 6 
#
# 1 132.3527 30.9571 71.1929 0.0000 0.0000 0.0000
# 2 30.9571 34.9881 12.7907 0.0000 0.0000 0.0000
# 3 71.1929 12.7907 127.2903 0.0000 0.0000 0.0000
# 4 0.0000 0.0000 0.0000 16.2124 0.0000 0.0000
# 5 0.0000 0.0000 0.0000 0.0000 21.4890 0.0000
# 6 0.0000 0.0000 0.0000 0.0000 0.0000 30.7990
#
#
#
# Elastic Compliance Matrix: (Units=1/GPa)
#
#
# Indices 1 2 3 4 5 6 
#
# 1 0.013206 -0.009327 -0.006449 0.000000 0.000000 0.000000
# 2 -0.009327 0.036258 0.001573 0.000000 0.000000 0.000000
# 3 -0.006449 0.001573 0.011305 0.000000 0.000000 0.000000
# 4 0.000000 0.000000 0.000000 0.061681 0.000000 0.000000
# 5 0.000000 0.000000 0.000000 0.000000 0.046535 0.000000
# 6 0.000000 0.000000 0.000000 0.000000 0.000000 0.032469
#
#
# Mechanical properties :
#
#
# Convention : Reuss Voigt Hill
#
# Bulk Modulus (GPa) = 30.89866 58.27915 44.58891
# Shear Modulus (GPa) = 20.77725 25.67944 23.22834
#
# Velocity S-wave (km/s) = 3.32564 3.69721 3.51634
# Velocity P-wave (km/s) = 5.58517 7.01771 6.34202
#
# Compressibility (1/GPa) = 0.03236386
#
# Stress axis : x y z
#
# Youngs Moduli (GPa) = 75.72324 27.57977 88.45814
#
# Poissons Ratio (x) = 0.25724 0.57045
# Poissons Ratio (y) = 0.70627 -0.13916
# Poissons Ratio (z) = 0.48833 -0.04339
#
# Static dielectric constant tensor:
#      x y z
#    x 1.646110 0.000000 0.000000 
#    y 0.000000 1.651040 0.000000 
#    z 0.000000 0.000000 1.661830 
# 
# From -- ./inp_files/41060.got.cif
#   From: 2010.05.17/outbox.cif.g08.bks.cpg/sg72_21_cif.got.tgz:41060.got - 2010.06.03 17:03:01.
