data_PCOD9529069
_publ_section_title
;
Structure prediction by ZEFSAII (Michael W. Deem and Ramdas Pophale) SiO2 
 PCOD9529069
Probable space group: I B A M
;
_chemical_formula_sum "Si O2"
_cell_formula_units_Z 104
_cell_length_a 23.659764
_cell_length_b 14.231572
_cell_length_c 14.524955
_cell_angle_alpha 90.000000
_cell_angle_beta 90.000000
_cell_angle_gamma 90.000000
_cell_volume 4890.779444
_symmetry_space_group_name_H-M "I B A M"
_symmetry_group_IT_number 72
_symmetry_cell_setting 'orthorhombic'
loop_
_space_group_symop_operation_xyz
x,y,z
-x,-y,z
x,-y,1/2-z
-x,y,1/2-z
-x,-y,-z
x,y,-z
-x,y,1/2+z
x,-y,1/2+z
1/2+x,1/2+y,1/2+z
1/2-x,1/2-y,1/2+z
1/2+x,1/2-y,-z
1/2-x,1/2+y,-z
1/2-x,1/2-y,1/2-z
1/2+x,1/2+y,1/2-z
1/2-x,1/2+y,z
1/2+x,1/2-y,z
loop_
_atom_site_type_symbol
_atom_site_label
_atom_site_fract_x
_atom_site_fract_y
_atom_site_fract_z
Si Si1 0.264554 0.470230 0.393307
Si Si2 0.916606 0.756434 0.603774
Si Si3 0.311772 0.726431 0.861143
Si Si4 0.137277 0.558651 0.888692
Si Si5 0.583102 0.860788 0.393355
Si Si6 0.000000 0.266140 0.750000
Si Si7 0.199791 0.170200 0.347354
O O1 0.257852 0.500743 0.500000
O O2 0.305578 0.380893 0.392404
O O3 0.202579 0.438396 0.357712
O O4 0.286328 0.560655 0.339576
O O5 0.940773 0.754032 0.500000
O O6 0.898277 0.650886 0.634732
O O7 0.858342 0.813296 0.600440
O O8 0.957774 0.791618 0.684020
O O9 0.366321 0.784419 0.890818
O O10 0.254799 0.780646 0.890518
O O11 0.310373 0.718739 0.750908
O O12 0.108888 0.460630 0.861904
O O13 0.139375 0.559959 0.000000
O O14 0.563969 0.870514 0.500000
O O15 0.534936 0.827357 0.323928
#
# Coordination Sequence:
#
# PCOD9529069 Si02
#       7
#    16  16  16  16  16   8  16
#     4  11  21  35  61  94 132 168 198 247 319 388
#     4  11  23  42  65  90 128 169 214 264 313 372
#     4  11  22  38  61  96 130 164 206 256 318 384
#     4   9  20  36  59  94 129 167 207 254 310 379
#     4  11  23  42  65  90 128 169 214 264 313 372
#     4  12  26  45  60  91 122 170 230 263 314 359
#     4  11  22  38  61  96 130 164 206 256 318 384
#
# _framework density 21.264503999999999
#
# number of rings (size 3 to 8) (size 9 to 14) (size 15 to 20)
#    0.000    1.231    4.615    1.846    0.000    3.077 
#    2.769    2.308    0.000    1.846    0.000    3.231 
#    0.000    0.000    0.000    0.000    0.000    0.000 
#
# Total GULP energy -290754.426360 kJ/mol
# GULP energy per Si atom -5591.431276 kJ/mol
# Density = 2.121610 g / cm^3
# Si number density = 21.264504 Si / 1000 Ang^3
#
#
#
# Elastic Constant Matrix: (Units=GPa)
#
#
# Indices 1 2 3 4 5 6 
#
# 1 95.5080 17.4176 34.9862 0.0000 0.0000 0.0000
# 2 17.4176 79.8850 3.7477 0.0000 0.0000 0.0000
# 3 34.9862 3.7477 107.2277 0.0000 0.0000 0.0000
# 4 0.0000 0.0000 0.0000 43.0742 0.0000 0.0000
# 5 0.0000 0.0000 0.0000 0.0000 24.0011 0.0000
# 6 0.0000 0.0000 0.0000 0.0000 0.0000 11.4768
#
#
#
# Elastic Compliance Matrix: (Units=1/GPa)
#
#
# Indices 1 2 3 4 5 6 
#
# 1 0.012376 -0.002513 -0.003950 0.000000 0.000000 0.000000
# 2 -0.002513 0.013049 0.000364 0.000000 0.000000 0.000000
# 3 -0.003950 0.000364 0.010602 0.000000 0.000000 0.000000
# 4 0.000000 0.000000 0.000000 0.023216 0.000000 0.000000
# 5 0.000000 0.000000 0.000000 0.000000 0.041665 0.000000
# 6 0.000000 0.000000 0.000000 0.000000 0.000000 0.087132
#
#
# Mechanical properties :
#
#
# Convention : Reuss Voigt Hill
#
# Bulk Modulus (GPa) = 41.96719 43.88038 42.92379
# Shear Modulus (GPa) = 24.01765 30.80836 27.41301
#
# Velocity S-wave (km/s) = 3.36441 3.81046 3.59436
# Velocity P-wave (km/s) = 5.90516 6.32770 6.12008
#
# Compressibility (1/GPa) = 0.02382814
#
# Stress axis : x y z
#
# Youngs Moduli (GPa) = 80.80424 76.63515 94.32131
#
# Poissons Ratio (x) = 0.19258 0.37258
# Poissons Ratio (y) = 0.20306 -0.03432
# Poissons Ratio (z) = 0.31918 -0.02789
#
# Static dielectric constant tensor:
#      x y z
#    x 1.785260 0.000000 0.000000 
#    y 0.000000 1.726500 0.000000 
#    z 0.000000 0.000000 1.834950 
# 
# From -- ./inp_files/25223.got.cif
#   From: 2010.05.17/outbox.cif.g08.bks.cpg/sg72_13_cif.got.tgz:25223.got - 2010.06.03 17:03:01.
