data_PCOD9529874
_publ_section_title
;
Structure prediction by ZEFSAII (Michael W. Deem and Ramdas Pophale) SiO2 
 PCOD9529874
Probable space group: I B C A 
;
_chemical_formula_sum "Si O2"
_cell_formula_units_Z 96
_cell_length_a 18.900648
_cell_length_b 16.960687
_cell_length_c 11.988349
_cell_angle_alpha 90.000000
_cell_angle_beta 90.000000
_cell_angle_gamma 90.000000
_cell_volume 3843.080760
_symmetry_space_group_name_H-M "I B C A "
_symmetry_group_IT_number 73
_symmetry_cell_setting 'orthorhombic'
loop_
_space_group_symop_operation_xyz
x,y,z
-x,1/2-y,z
x,-y,1/2-z
1/2-x,y,-z
-x,-y,-z
x,1/2+y,-z
-x,y,1/2+z
1/2+x,-y,z
1/2+x,1/2+y,1/2+z
1/2-x,-y,1/2+z
1/2+x,1/2-y,-z
-x,1/2+y,1/2-z
1/2-x,1/2-y,1/2-z
1/2+x,y,1/2-z
1/2-x,1/2+y,z
x,1/2-y,1/2+z
loop_
_atom_site_type_symbol
_atom_site_label
_atom_site_fract_x
_atom_site_fract_y
_atom_site_fract_z
Si Si1 0.406291 0.925894 0.166872
Si Si2 0.674250 0.506149 0.508431
Si Si3 0.482038 0.843860 0.788990
Si Si4 0.567560 0.804784 0.978261
Si Si5 0.348426 0.870379 0.684251
Si Si6 0.687944 0.343690 0.164198
O O1 0.481952 0.887954 0.185447
O O2 0.349269 0.865863 0.219719
O O3 0.401996 0.000000 0.250000
O O4 0.385782 0.952896 0.044646
O O5 0.750000 0.464071 0.500000
O O6 0.660888 0.543281 0.628994
O O7 0.684075 0.581678 0.423302
O O8 0.500000 0.750000 0.780402
O O9 0.527945 0.868864 0.898128
O O10 0.400194 0.866821 0.789472
O O11 0.500000 0.750000 0.001307
O O12 0.635674 0.782925 0.899213
O O13 0.605240 0.824203 0.092624
O O14 0.270716 0.832172 0.687595
#
# Coordination Sequence:
#
# PCOD9529874 Si02
#       6
#    16  16  16  16  16  16
#     4   9  17  34  55  77 110 147 185 236 294 346
#     4   8  15  29  52  78 103 138 185 236 282 335
#     4  10  21  35  52  79 115 151 189 238 295 351
#     4   9  17  32  52  74 103 142 188 235 284 341
#     4  10  18  33  56  81 109 149 194 235 292 361
#     4   8  16  31  54  78 102 141 188 234 289 345
#
# _framework density 24.979959000000001
#
# number of rings (size 3 to 8) (size 9 to 14) (size 15 to 20)
#    0.000    3.000    0.000    3.000    0.000    0.667 
#    0.000   13.333    0.000    5.000    0.000    0.000 
#    0.000    0.000    0.000    0.000    0.000    0.000 
#
# Total GULP energy -267619.581069 kJ/mol
# GULP energy per Si atom -5575.407939 kJ/mol
# Density = 2.492310 g / cm^3
# Si number density = 24.979959 Si / 1000 Ang^3
#
#
#
# Elastic Constant Matrix: (Units=GPa)
#
#
# Indices 1 2 3 4 5 6 
#
# 1 211.0556 21.5273 27.1681 0.0000 0.0000 0.0000
# 2 21.5273 30.4278 18.0674 0.0000 0.0000 0.0000
# 3 27.1681 18.0674 48.8064 0.0000 0.0000 0.0000
# 4 0.0000 0.0000 0.0000 30.5304 0.0000 0.0000
# 5 0.0000 0.0000 0.0000 0.0000 41.8874 0.0000
# 6 0.0000 0.0000 0.0000 0.0000 0.0000 30.9287
#
#
#
# Elastic Compliance Matrix: (Units=1/GPa)
#
#
# Indices 1 2 3 4 5 6 
#
# 1 0.005252 -0.002538 -0.001984 0.000000 0.000000 0.000000
# 2 -0.002538 0.043350 -0.014635 0.000000 0.000000 0.000000
# 3 -0.001984 -0.014635 0.027011 0.000000 0.000000 0.000000
# 4 0.000000 0.000000 0.000000 0.032754 0.000000 0.000000
# 5 0.000000 0.000000 0.000000 0.000000 0.023874 0.000000
# 6 0.000000 0.000000 0.000000 0.000000 0.000000 0.032332
#
#
# Mechanical properties :
#
#
# Convention : Reuss Voigt Hill
#
# Bulk Modulus (GPa) = 26.80981 47.09059 36.95020
# Shear Modulus (GPa) = 23.22113 35.57110 29.39611
#
# Velocity S-wave (km/s) = 3.05223 3.77767 3.43416
# Velocity P-wave (km/s) = 4.81428 6.15792 5.52708
#
# Compressibility (1/GPa) = 0.03729979
#
# Stress axis : x y z
#
# Youngs Moduli (GPa) = 190.39058 23.06803 37.02148
#
# Poissons Ratio (x) = 0.05854 0.07346
# Poissons Ratio (y) = 0.48316 0.54181
# Poissons Ratio (z) = 0.37779 0.33760
#
# Static dielectric constant tensor:
#      x y z
#    x 1.996510 0.000000 0.000000 
#    y 0.000000 2.084410 0.000000 
#    z 0.000000 0.000000 2.050430 
# 
# From -- ./inp_files/22707.got.cif
#   From: 2010.05.17/outbox.cif.g08.bks.cpg/sg73_12_cif.got.tgz:22707.got - 2010.06.03 17:35:07.
