data_PCOD9529715
_publ_section_title
;
Structure prediction by ZEFSAII (Michael W. Deem and Ramdas Pophale) SiO2 
 PCOD9529715
Probable space group: I B C A 
;
_chemical_formula_sum "Si O2"
_cell_formula_units_Z 88
_cell_length_a 24.610600
_cell_length_b 5.514081
_cell_length_c 25.316320
_cell_angle_alpha 90.000000
_cell_angle_beta 90.000000
_cell_angle_gamma 90.000000
_cell_volume 3435.547202
_symmetry_space_group_name_H-M "I B C A "
_symmetry_group_IT_number 73
_symmetry_cell_setting 'orthorhombic'
loop_
_space_group_symop_operation_xyz
x,y,z
-x,1/2-y,z
x,-y,1/2-z
1/2-x,y,-z
-x,-y,-z
x,1/2+y,-z
-x,y,1/2+z
1/2+x,-y,z
1/2+x,1/2+y,1/2+z
1/2-x,-y,1/2+z
1/2+x,1/2-y,-z
-x,1/2+y,1/2-z
1/2-x,1/2-y,1/2-z
1/2+x,y,1/2-z
1/2-x,1/2+y,z
x,1/2-y,1/2+z
loop_
_atom_site_type_symbol
_atom_site_label
_atom_site_fract_x
_atom_site_fract_y
_atom_site_fract_z
Si Si1 0.204745 0.500000 0.250000
Si Si2 0.874583 0.125948 0.703246
Si Si3 0.581721 0.858738 0.607138
Si Si4 0.338158 0.645104 0.515949
Si Si5 0.947085 0.851546 0.556678
Si Si6 0.728954 0.502818 0.640954
O O1 0.167125 0.728818 0.259564
O O2 0.238562 0.480555 0.303271
O O3 0.909007 0.307615 0.668102
O O4 0.908181 0.000000 0.750000
O O5 0.834746 0.999458 0.658623
O O6 0.638951 0.868110 0.575141
O O7 0.552745 0.615431 0.583833
O O8 0.558025 0.125649 0.597279
O O9 0.310915 0.399394 0.496876
O O10 0.394272 0.650665 0.480507
O O11 0.000000 0.750000 0.525618
O O12 0.750303 0.753571 0.614664
#
# Coordination Sequence:
#
# PCOD9529715 Si02
#       6
#     8  16  16  16  16  16
#     4  10  18  32  50  74 100 140 176 212 252 290
#     4  11  20  32  50  74 111 143 168 211 260 293
#     4  10  22  31  51  83 104 130 172 207 263 324
#     4   8  16  31  49  75 104 123 153 206 266 317
#     4  10  20  37  57  77 102 128 165 223 276 311
#     4  10  17  30  48  72  99 134 167 211 252 293
#
# _framework density 25.614549
#
# number of rings (size 3 to 8) (size 9 to 14) (size 15 to 20)
#    0.000    2.182    2.727    1.636    2.545    6.545 
#    0.000    0.000    0.000    2.182    0.000    0.000 
#    0.000  157.091    0.000    0.000    0.000    0.000 
#
# Total GULP energy -245629.633137 kJ/mol
# GULP energy per Si atom -5582.491662 kJ/mol
# Density = 2.555625 g / cm^3
# Si number density = 25.614549 Si / 1000 Ang^3
#
#
#
# Elastic Constant Matrix: (Units=GPa)
#
#
# Indices 1 2 3 4 5 6 
#
# 1 60.2400 12.6200 2.3429 0.0000 0.0000 0.0000
# 2 12.6200 206.8118 28.2492 0.0000 0.0000 0.0000
# 3 2.3429 28.2492 84.7313 0.0000 0.0000 0.0000
# 4 0.0000 0.0000 0.0000 23.1804 0.0000 0.0000
# 5 0.0000 0.0000 0.0000 0.0000 17.8606 0.0000
# 6 0.0000 0.0000 0.0000 0.0000 0.0000 0.7664
#
#
#
# Elastic Compliance Matrix: (Units=1/GPa)
#
#
# Indices 1 2 3 4 5 6 
#
# 1 0.016817 -0.001009 -0.000129 0.000000 0.000000 0.000000
# 2 -0.001009 0.005127 -0.001681 0.000000 0.000000 0.000000
# 3 -0.000129 -0.001681 0.012366 0.000000 0.000000 0.000000
# 4 0.000000 0.000000 0.000000 0.043140 0.000000 0.000000
# 5 0.000000 0.000000 0.000000 0.000000 0.055989 0.000000
# 6 0.000000 0.000000 0.000000 0.000000 0.000000 1.304808
#
#
# Mechanical properties :
#
#
# Convention : Reuss Voigt Hill
#
# Bulk Modulus (GPa) = 34.87725 48.68969 41.78347
# Shear Modulus (GPa) = 3.44011 28.93288 16.18650
#
# Velocity S-wave (km/s) = 1.16015 3.36452 2.51654
# Velocity P-wave (km/s) = 3.92942 5.84322 4.97913
#
# Compressibility (1/GPa) = 0.02867198
#
# Stress axis : x y z
#
# Youngs Moduli (GPa) = 59.46517 195.06439 80.86617
#
# Poissons Ratio (x) = 0.19674 0.01041
# Poissons Ratio (y) = 0.05998 0.13596
# Poissons Ratio (z) = 0.00766 0.32796
#
# Static dielectric constant tensor:
#      x y z
#    x 2.176950 0.000000 0.000000 
#    y 0.000000 2.266030 0.000000 
#    z 0.000000 0.000000 2.060230 
# 
# From -- ./inp_files/2734.got.cif
#   From: 2010.05.17/outbox.cif.g08.bks.cpg/sg73_2_cif.got.tgz:2734.got - 2010.06.03 17:35:07.
