data_PCOD9529933
_publ_section_title
;
Structure prediction by ZEFSAII (Michael W. Deem and Ramdas Pophale) SiO2 
 PCOD9529933
Probable space group: I B C A 
;
_chemical_formula_sum "Si O2"
_cell_formula_units_Z 120
_cell_length_a 14.069123
_cell_length_b 20.318324
_cell_length_c 19.471380
_cell_angle_alpha 90.000000
_cell_angle_beta 90.000000
_cell_angle_gamma 90.000000
_cell_volume 5566.108149
_symmetry_space_group_name_H-M "I B C A "
_symmetry_group_IT_number 73
_symmetry_cell_setting 'orthorhombic'
loop_
_space_group_symop_operation_xyz
x,y,z
-x,1/2-y,z
x,-y,1/2-z
1/2-x,y,-z
-x,-y,-z
x,1/2+y,-z
-x,y,1/2+z
1/2+x,-y,z
1/2+x,1/2+y,1/2+z
1/2-x,-y,1/2+z
1/2+x,1/2-y,-z
-x,1/2+y,1/2-z
1/2-x,1/2-y,1/2-z
1/2+x,y,1/2-z
1/2-x,1/2+y,z
x,1/2-y,1/2+z
loop_
_atom_site_type_symbol
_atom_site_label
_atom_site_fract_x
_atom_site_fract_y
_atom_site_fract_z
Si Si1 0.585976 0.524650 0.046829
Si Si2 0.368633 0.579875 0.250630
Si Si3 0.447816 0.612998 0.672999
Si Si4 0.239061 0.188323 0.152604
Si Si5 0.944124 0.191357 0.562420
Si Si6 0.258323 0.664093 0.346430
Si Si7 0.750000 0.621265 0.000000
Si Si8 0.843969 0.385912 0.954075
O O1 0.550840 0.554022 0.118335
O O2 0.646810 0.460959 0.065674
O O3 0.500000 0.500000 0.000000
O O4 0.656360 0.575968 0.009724
O O5 0.350726 0.500000 0.250000
O O6 0.478871 0.594142 0.232391
O O7 0.307915 0.628242 0.197613
O O8 0.339061 0.613320 0.322030
O O9 0.491824 0.671090 0.626916
O O10 0.339705 0.634232 0.685414
O O11 0.156678 0.205926 0.097073
O O12 0.268531 0.260814 0.178850
O O13 0.328295 0.158614 0.112049
O O14 0.927387 0.136658 0.504883
O O15 0.000000 0.250000 0.527325
O O16 0.255239 0.661559 0.429204
O O17 0.750000 0.380143 0.000000
#
# Coordination Sequence:
#
# PCOD9529933 Si02
#       8
#    16  16  16  16  16  16   8  16
#     4  11  21  38  65  96 142 178 223 285 359 415
#     4  11  27  45  70  98 138 184 242 295 348 424
#     4  10  23  41  67  96 127 185 234 275 355 421
#     4  10  23  41  67  96 135 185 231 282 359 418
#     4  10  18  35  62  97 132 174 226 279 341 420
#     4  11  24  46  74 100 142 186 234 296 351 434
#     4  10  26  38  70 110 132 174 240 294 358 416
#     4  10  21  35  62  98 144 174 225 289 345 422
#
# _framework density 21.559049999999999
#
# number of rings (size 3 to 8) (size 9 to 14) (size 15 to 20)
#    0.000    1.600    3.333    0.400    8.400    0.533 
#    0.000    0.000    0.000    0.000    0.000    0.000 
#    0.000    0.000    0.000    0.000    0.000    0.000 
#
# Total GULP energy -334516.187444 kJ/mol
# GULP energy per Si atom -5575.269791 kJ/mol
# Density = 2.150998 g / cm^3
# Si number density = 21.559050 Si / 1000 Ang^3
#
#
#
# Elastic Constant Matrix: (Units=GPa)
#
#
# Indices 1 2 3 4 5 6 
#
# 1 59.3062 13.4012 29.8259 0.0000 0.0000 0.0000
# 2 13.4012 142.5850 45.1505 0.0000 0.0000 0.0000
# 3 29.8259 45.1505 74.6915 0.0000 0.0000 0.0000
# 4 0.0000 0.0000 0.0000 16.5283 0.0000 0.0000
# 5 0.0000 0.0000 0.0000 0.0000 20.0293 0.0000
# 6 0.0000 0.0000 0.0000 0.0000 0.0000 20.5738
#
#
#
# Elastic Compliance Matrix: (Units=1/GPa)
#
#
# Indices 1 2 3 4 5 6 
#
# 1 0.021182 0.000850 -0.008972 0.000000 0.000000 0.000000
# 2 0.000850 0.008708 -0.005603 0.000000 0.000000 0.000000
# 3 -0.008972 -0.005603 0.020358 0.000000 0.000000 0.000000
# 4 0.000000 0.000000 0.000000 0.060502 0.000000 0.000000
# 5 0.000000 0.000000 0.000000 0.000000 0.049927 0.000000
# 6 0.000000 0.000000 0.000000 0.000000 0.000000 0.048606
#
#
# Mechanical properties :
#
#
# Convention : Reuss Voigt Hill
#
# Bulk Modulus (GPa) = 43.86489 50.37088 47.11788
# Shear Modulus (GPa) = 20.46388 23.97327 22.21858
#
# Velocity S-wave (km/s) = 3.08425 3.33826 3.21377
# Velocity P-wave (km/s) = 5.75101 6.18656 5.97275
#
# Compressibility (1/GPa) = 0.02279727
#
# Stress axis : x y z
#
# Youngs Moduli (GPa) = 47.21026 114.83993 49.11963
#
# Poissons Ratio (x) = -0.09765 0.44072
# Poissons Ratio (y) = -0.04015 0.27523
# Poissons Ratio (z) = 0.42359 0.64349
#
# Static dielectric constant tensor:
#      x y z
#    x 1.890390 0.000000 0.000000 
#    y 0.000000 1.415400 0.000000 
#    z 0.000000 0.000000 1.826300 
# 
# From -- ./inp_files/26223.got.cif
#   From: 2010.05.17/outbox.cif.g08.bks.cpg/sg73_14_cif.got.tgz:26223.got - 2010.06.03 17:35:07.
