data_PCOD9529022
_publ_section_title
;
Structure prediction by ZEFSAII (Michael W. Deem and Ramdas Pophale) SiO2 
 PCOD9529022
Probable space group: I B A M
;
_chemical_formula_sum "Si O2"
_cell_formula_units_Z 116
_cell_length_a 12.059333
_cell_length_b 22.229896
_cell_length_c 17.248214
_cell_angle_alpha 90.000000
_cell_angle_beta 90.000000
_cell_angle_gamma 90.000000
_cell_volume 4623.861856
_symmetry_space_group_name_H-M "I B A M"
_symmetry_group_IT_number 72
_symmetry_cell_setting 'orthorhombic'
loop_
_space_group_symop_operation_xyz
x,y,z
-x,-y,z
x,-y,1/2-z
-x,y,1/2-z
-x,-y,-z
x,y,-z
-x,y,1/2+z
x,-y,1/2+z
1/2+x,1/2+y,1/2+z
1/2-x,1/2-y,1/2+z
1/2+x,1/2-y,-z
1/2-x,1/2+y,-z
1/2-x,1/2-y,1/2-z
1/2+x,1/2+y,1/2-z
1/2-x,1/2+y,z
1/2+x,1/2-y,z
loop_
_atom_site_type_symbol
_atom_site_label
_atom_site_fract_x
_atom_site_fract_y
_atom_site_fract_z
Si Si1 0.921169 0.101802 0.324818
Si Si2 0.353693 0.052861 0.617649
Si Si3 0.035034 0.650636 0.087445
Si Si4 0.619147 0.393041 0.588325
Si Si5 0.676136 0.093445 0.275179
Si Si6 0.259190 0.703484 0.320920
Si Si7 0.409524 0.271684 0.409826
Si Si8 0.500000 0.000000 0.000000
O O1 0.799748 0.076447 0.304979
O O2 0.904174 0.170894 0.353467
O O3 0.000000 0.096537 0.250000
O O4 0.001791 0.077003 0.391574
O O5 0.425210 0.108731 0.583285
O O6 0.224322 0.064374 0.602884
O O7 0.371804 0.049658 0.709225
O O8 0.403758 0.998882 0.568230
O O9 0.107665 0.619708 0.153452
O O10 0.000630 0.719318 0.107019
O O11 0.083158 0.649840 0.000000
O O12 0.622624 0.373188 0.500000
O O13 0.638129 0.334673 0.644492
O O14 0.688934 0.150305 0.217395
O O15 0.250000 0.750000 0.250000
O O16 0.204508 0.736422 0.393510
O O17 0.418862 0.288858 0.500000
#
# Coordination Sequence:
#
# PCOD9529022 Si02
#       8
#    16  16  16  16  16  16  16   4
#     4  12  23  38  56  88 133 188 251 283 319 415
#     4  11  22  42  70 101 129 167 215 294 380 455
#     4  11  23  40  60  88 137 183 231 297 374 417
#     4  11  21  38  62  89 136 185 240 297 363 415
#     4  11  24  39  61  90 135 185 234 287 363 426
#     4  11  20  35  53  79 122 187 251 305 335 397
#     4  11  23  34  53  86 129 189 255 303 334 392
#     4  12  24  44  82 112 132 144 220 304 382 494
#
# _framework density 25.087254999999999
#
# number of rings (size 3 to 8) (size 9 to 14) (size 15 to 20)
#    0.000    0.828    8.276    1.241    3.862    1.103 
#    0.000    1.379    0.000    0.000    0.000    1.931 
#    0.000    0.000    0.000    0.000    0.000    0.000 
#
# Total GULP energy -323315.666786 kJ/mol
# GULP energy per Si atom -5574.408048 kJ/mol
# Density = 2.503016 g / cm^3
# Si number density = 25.087255 Si / 1000 Ang^3
#
#
#
# Elastic Constant Matrix: (Units=GPa)
#
#
# Indices 1 2 3 4 5 6 
#
# 1 109.1812 -14.5700 31.3646 0.0000 0.0000 0.0000
# 2 -14.5700 48.5796 25.4504 0.0000 0.0000 0.0000
# 3 31.3646 25.4504 167.5960 0.0001 0.0000 0.0000
# 4 0.0000 0.0000 0.0001 78.6350 0.0000 0.0000
# 5 0.0000 0.0000 0.0000 0.0000 31.8259 0.0000
# 6 0.0000 0.0000 0.0000 0.0000 0.0000 7.6612
#
#
#
# Elastic Compliance Matrix: (Units=1/GPa)
#
#
# Indices 1 2 3 4 5 6 
#
# 1 0.010532 0.004553 -0.002662 0.000000 0.000000 0.000000
# 2 0.004553 0.024333 -0.004547 0.000000 0.000000 0.000000
# 3 -0.002662 -0.004547 0.007156 0.000000 0.000000 0.000000
# 4 0.000000 0.000000 0.000000 0.012717 0.000000 0.000000
# 5 0.000000 0.000000 0.000000 0.000000 0.031421 0.000000
# 6 0.000000 0.000000 0.000000 0.000000 0.000000 0.130527
#
#
# Mechanical properties :
#
#
# Convention : Reuss Voigt Hill
#
# Bulk Modulus (GPa) = 27.24242 45.53852 36.39047
# Shear Modulus (GPa) = 21.34625 42.49855 31.92240
#
# Velocity S-wave (km/s) = 2.92015 4.12032 3.57102
# Velocity P-wave (km/s) = 4.71724 6.38964 5.61604
#
# Compressibility (1/GPa) = 0.03670746
#
# Stress axis : x y z
#
# Youngs Moduli (GPa) = 94.95268 41.09694 139.75264
#
# Poissons Ratio (x) = -0.18713 0.37208
# Poissons Ratio (y) = -0.43236 0.63548
# Poissons Ratio (z) = 0.25280 0.18688
#
# Static dielectric constant tensor:
#      x y z
#    x 2.037310 0.000000 0.000000 
#    y 0.000000 2.206250 0.000000 
#    z 0.000000 0.000000 2.067940 
# 
# From -- ./inp_files/29724.got.cif
#   From: 2010.05.17/outbox.cif.g08.bks.cpg/sg72_15_cif.got.tgz:29724.got - 2010.06.03 17:03:01.
