data_PCOD9529340
_publ_section_title
;
Structure prediction by ZEFSAII (Michael W. Deem and Ramdas Pophale) SiO2 
 PCOD9529340
Probable space group: I B A M
;
_chemical_formula_sum "Si O2"
_cell_formula_units_Z 48
_cell_length_a 8.962749
_cell_length_b 12.050783
_cell_length_c 18.640760
_cell_angle_alpha 90.000000
_cell_angle_beta 90.000000
_cell_angle_gamma 90.000000
_cell_volume 2013.353877
_symmetry_space_group_name_H-M "I B A M"
_symmetry_group_IT_number 72
_symmetry_cell_setting 'orthorhombic'
loop_
_space_group_symop_operation_xyz
x,y,z
-x,-y,z
x,-y,1/2-z
-x,y,1/2-z
-x,-y,-z
x,y,-z
-x,y,1/2+z
x,-y,1/2+z
1/2+x,1/2+y,1/2+z
1/2-x,1/2-y,1/2+z
1/2+x,1/2-y,-z
1/2-x,1/2+y,-z
1/2-x,1/2-y,1/2-z
1/2+x,1/2+y,1/2-z
1/2-x,1/2+y,z
1/2+x,1/2-y,z
loop_
_atom_site_type_symbol
_atom_site_label
_atom_site_fract_x
_atom_site_fract_y
_atom_site_fract_z
Si Si1 0.055205 0.120986 0.142349
Si Si2 0.253423 0.000000 0.250000
Si Si3 0.651953 0.784650 0.079514
Si Si4 0.500000 0.000000 0.133649
O O1 0.146680 0.092511 0.214932
O O2 0.178424 0.180301 0.093304
O O3 0.913796 0.201321 0.138604
O O4 0.000000 0.000000 0.116865
O O5 0.364081 0.035922 0.313906
O O6 0.557900 0.897576 0.087997
O O7 0.635834 0.736439 0.000000
#
# Coordination Sequence:
#
# PCOD9529340 Si02
#       4
#    16   8  16   8
#     4  11  26  48  70 107 143 191 241 296 364 423
#     4   9  21  46  68 102 142 184 236 296 354 418
#     4  11  25  44  73 104 144 193 239 295 357 429
#     4   9  21  44  70 108 141 191 244 288 358 425
#
# _framework density 23.840814999999999
#
# number of rings (size 3 to 8) (size 9 to 14) (size 15 to 20)
#    0.000    1.667    0.000    2.000    9.333    4.000 
#   18.000    0.000    0.000    0.000    0.000    0.000 
#    0.000    0.000    0.000    0.000    0.000    0.000 
#
# Total GULP energy -134199.022676 kJ/mol
# GULP energy per Si atom -5591.625945 kJ/mol
# Density = 2.378655 g / cm^3
# Si number density = 23.840815 Si / 1000 Ang^3
#
#
#
# Elastic Constant Matrix: (Units=GPa)
#
#
# Indices 1 2 3 4 5 6 
#
# 1 156.5950 47.3909 39.2380 0.0000 0.0000 0.0000
# 2 47.3909 95.2212 5.8025 0.0000 0.0000 0.0000
# 3 39.2380 5.8025 107.2225 0.0000 0.0000 0.0000
# 4 0.0000 0.0000 0.0000 14.3034 0.0000 0.0000
# 5 0.0000 0.0000 0.0000 0.0000 18.0738 0.0000
# 6 0.0000 0.0000 0.0000 0.0000 0.0000 47.7170
#
#
#
# Elastic Compliance Matrix: (Units=1/GPa)
#
#
# Indices 1 2 3 4 5 6 
#
# 1 0.008289 -0.003953 -0.002819 0.000000 0.000000 0.000000
# 2 -0.003953 0.012422 0.000775 0.000000 0.000000 0.000000
# 3 -0.002819 0.000775 0.010316 0.000000 0.000000 0.000000
# 4 0.000000 0.000000 0.000000 0.069914 0.000000 0.000000
# 5 0.000000 0.000000 0.000000 0.000000 0.055329 0.000000
# 6 0.000000 0.000000 0.000000 0.000000 0.000000 0.020957
#
#
# Mechanical properties :
#
#
# Convention : Reuss Voigt Hill
#
# Bulk Modulus (GPa) = 52.54661 60.43352 56.49006
# Shear Modulus (GPa) = 25.56674 33.79265 29.67969
#
# Velocity S-wave (km/s) = 3.27829 3.76896 3.53216
# Velocity P-wave (km/s) = 6.03474 6.65912 6.35460
#
# Compressibility (1/GPa) = 0.01903072
#
# Stress axis : x y z
#
# Youngs Moduli (GPa) = 120.64476 80.50053 96.93471
#
# Poissons Ratio (x) = 0.31826 0.27329
# Poissons Ratio (y) = 0.47697 -0.07508
# Poissons Ratio (z) = 0.34014 -0.06235
#
# Static dielectric constant tensor:
#      x y z
#    x 1.942870 0.000000 0.000000 
#    y 0.000000 1.859470 0.000000 
#    z 0.000000 0.000000 1.882050 
# 
# From -- ./inp_files/35136.got.cif
#   From: 2010.05.17/outbox.cif.g08.bks.cpg/sg72_18_cif.got.tgz:35136.got - 2010.06.03 17:03:01.
