data_PCOD9529751
_publ_section_title
;
Structure prediction by ZEFSAII (Michael W. Deem and Ramdas Pophale) SiO2 
 PCOD9529751
Probable space group: I B C A 
;
_chemical_formula_sum "Si O2"
_cell_formula_units_Z 104
_cell_length_a 16.750413
_cell_length_b 11.567077
_cell_length_c 24.048569
_cell_angle_alpha 90.000000
_cell_angle_beta 90.000000
_cell_angle_gamma 90.000000
_cell_volume 4659.490012
_symmetry_space_group_name_H-M "I B C A "
_symmetry_group_IT_number 73
_symmetry_cell_setting 'orthorhombic'
loop_
_space_group_symop_operation_xyz
x,y,z
-x,1/2-y,z
x,-y,1/2-z
1/2-x,y,-z
-x,-y,-z
x,1/2+y,-z
-x,y,1/2+z
1/2+x,-y,z
1/2+x,1/2+y,1/2+z
1/2-x,-y,1/2+z
1/2+x,1/2-y,-z
-x,1/2+y,1/2-z
1/2-x,1/2-y,1/2-z
1/2+x,y,1/2-z
1/2-x,1/2+y,z
x,1/2-y,1/2+z
loop_
_atom_site_type_symbol
_atom_site_label
_atom_site_fract_x
_atom_site_fract_y
_atom_site_fract_z
Si Si1 0.419321 0.658381 0.608300
Si Si2 0.861369 0.093576 0.860555
Si Si3 0.062496 0.057522 0.043274
Si Si4 0.500000 0.250000 0.286999
Si Si5 0.132400 0.086808 0.933232
Si Si6 0.500000 0.250000 0.615349
Si Si7 0.739592 0.269044 0.434206
Si Si8 0.919138 0.000000 0.750000
O O1 0.504013 0.641006 0.577565
O O2 0.431839 0.703262 0.670479
O O3 0.382107 0.529372 0.600928
O O4 0.353762 0.735400 0.577568
O O5 0.782478 0.144456 0.889737
O O6 0.863407 0.021528 0.804007
O O7 0.929511 0.191416 0.849890
O O8 0.902248 0.022930 0.909752
O O9 0.133498 0.076966 0.999702
O O10 0.000000 0.000000 0.000000
O O11 0.530971 0.123255 0.260991
O O12 0.054663 0.166652 0.921830
O O13 0.213530 0.152092 0.919744
O O14 0.750000 0.300466 0.500000
#
# Coordination Sequence:
#
# PCOD9529751 Si02
#       8
#    16  16  16   8  16   8  16   8
#     4  11  24  44  68 105 144 197 249 316 384 462
#     4  11  22  43  68 100 144 188 253 312 380 460
#     4  10  18  38  68  99 141 188 244 310 384 464
#     4  12  27  49  82 106 146 201 281 340 388 470
#     4  10  22  37  65 103 148 189 242 311 387 470
#     4  10  17  35  64  96 128 183 237 308 370 446
#     4  11  26  40  68 110 158 199 243 315 400 471
#     4  12  26  48  76 112 144 208 270 342 388 462
#
# _framework density 22.320038
#
# number of rings (size 3 to 8) (size 9 to 14) (size 15 to 20)
#    0.000    1.231    4.615    2.308    4.308    4.308 
#    0.000    1.538    0.000    0.000    0.000    0.000 
#    0.000    0.000    0.000    0.000    0.000    0.000 
#
# Total GULP energy -289499.195507 kJ/mol
# GULP energy per Si atom -5567.292221 kJ/mol
# Density = 2.226924 g / cm^3
# Si number density = 22.320038 Si / 1000 Ang^3
#
#
#
# Elastic Constant Matrix: (Units=GPa)
#
#
# Indices 1 2 3 4 5 6 
#
# 1 134.6873 32.4588 21.0403 0.0000 0.0000 0.0000
# 2 32.4588 114.5484 35.4266 0.0000 0.0000 0.0000
# 3 21.0403 35.4266 129.8871 0.0000 0.0000 0.0000
# 4 0.0000 0.0000 0.0000 31.7810 0.0000 0.0000
# 5 0.0000 0.0000 0.0000 0.0000 26.9667 0.0000
# 6 0.0000 0.0000 0.0000 0.0000 0.0000 34.7446
#
#
#
# Elastic Compliance Matrix: (Units=1/GPa)
#
#
# Indices 1 2 3 4 5 6 
#
# 1 0.008034 -0.002047 -0.000743 0.000000 0.000000 0.000000
# 2 -0.002047 0.010056 -0.002411 0.000000 0.000000 0.000000
# 3 -0.000743 -0.002411 0.008477 0.000000 0.000000 0.000000
# 4 0.000000 0.000000 0.000000 0.031465 0.000000 0.000000
# 5 0.000000 0.000000 0.000000 0.000000 0.037083 0.000000
# 6 0.000000 0.000000 0.000000 0.000000 0.000000 0.028781
#
#
# Mechanical properties :
#
#
# Convention : Reuss Voigt Hill
#
# Bulk Modulus (GPa) = 61.86364 61.88603 61.87483
# Shear Modulus (GPa) = 35.79451 38.04494 36.91973
#
# Velocity S-wave (km/s) = 4.00896 4.13306 4.07148
# Velocity P-wave (km/s) = 7.01469 7.11077 7.06289
#
# Compressibility (1/GPa) = 0.01616458
#
# Stress axis : x y z
#
# Youngs Moduli (GPa) = 124.47194 99.44735 117.96615
#
# Poissons Ratio (x) = 0.20354 0.08767
# Poissons Ratio (y) = 0.25475 0.28443
# Poissons Ratio (z) = 0.09251 0.23978
#
# Static dielectric constant tensor:
#      x y z
#    x 1.835770 0.000000 0.000000 
#    y 0.000000 2.002440 0.000000 
#    z 0.000000 0.000000 1.890990 
# 
# From -- ./inp_files/32427.got.cif
#   From: 2010.05.17/outbox.cif.g08.bks.cpg/sg73_17_cif.got.tgz:32427.got - 2010.06.03 17:35:07.
