data_PCOD9529587
_publ_section_title
;
Structure prediction by ZEFSAII (Michael W. Deem and Ramdas Pophale) SiO2 
 PCOD9529587
Probable space group: I B A M
;
_chemical_formula_sum "Si O2"
_cell_formula_units_Z 48
_cell_length_a 15.000000
_cell_length_b 15.000000
_cell_length_c 21.000000
_cell_angle_alpha 90.000000
_cell_angle_beta 90.000000
_cell_angle_gamma 90.000000
_cell_volume 4725.000000
_symmetry_space_group_name_H-M "I B A M"
_symmetry_group_IT_number 72
_symmetry_cell_setting 'orthorhombic'
loop_
_space_group_symop_operation_xyz
x,y,z
-x,-y,z
x,-y,1/2-z
-x,y,1/2-z
-x,-y,-z
x,y,-z
-x,y,1/2+z
x,-y,1/2+z
1/2+x,1/2+y,1/2+z
1/2-x,1/2-y,1/2+z
1/2+x,1/2-y,-z
1/2-x,1/2+y,-z
1/2-x,1/2-y,1/2-z
1/2+x,1/2+y,1/2-z
1/2-x,1/2+y,z
1/2+x,1/2-y,z
loop_
_atom_site_type_symbol
_atom_site_label
_atom_site_fract_x
_atom_site_fract_y
_atom_site_fract_z
Si Si1 0.744703 0.595602 0.000000
Si Si2 0.632080 0.643530 0.361237
Si Si3 0.138873 0.348979 0.120717
Si Si4 0.930356 0.325866 0.860969
Si Si5 0.158916 0.279043 0.500000
Si Si6 0.207238 0.524147 0.818201
Si Si7 0.000000 0.193867 0.750000
Si Si8 0.841520 0.896727 0.000000
O O1 0.809609 0.617722 0.941470
O O2 0.671013 0.672742 0.000000
O O3 0.700213 0.497366 0.000000
O O4 0.664756 0.747248 0.361589
O O5 0.711331 0.572381 0.353848
O O6 0.563760 0.640993 0.300787
O O7 0.603017 0.624770 0.435027
O O8 0.168933 0.426807 0.166780
O O9 0.031863 0.349068 0.119676
O O10 0.874022 0.406845 0.830345
O O11 0.943107 0.254252 0.801841
O O12 0.886028 0.301659 0.930476
O O13 0.254909 0.330414 0.500000
O O14 0.245836 0.500000 0.750000
#
# Coordination Sequence:
#
# PCOD9529587 Si02
#       8
#     8  16  16  16   8  16   8   8
#     4  12  21  39  68 106 131 185 236 288 365 418
#     4  11  23  46  69 102 142 187 247 293 364 432
#     4  11  22  39  69  98 140 180 224 297 358 422
#     4  11  23  43  67 109 146 181 239 297 372 431
#     4  12  23  42  72 103 139 187 239 299 361 434
#     4  12  24  39  67 101 136 185 232 292 353 437
#     4  10  26  44  70  96 142 200 232 298 368 428
#     4  12  22  43  71 102 139 179 248 298 349 439
#
# _framework density 10.15873
#
# number of rings (size 3 to 8) (size 9 to 14) (size 15 to 20)
#    0.000    0.667    5.000    3.000    0.000    6.667 
#    0.000    2.917    3.667    4.000    0.000    0.000 
#    0.000    0.000    0.000    0.000    0.000    0.000 
#
# Total GULP energy -267258.894124 kJ/mol
# GULP energy per Si atom -5567.893628 kJ/mol
# Density = 1.013561 g / cm^3
# Si number density = 10.158730 Si / 1000 Ang^3
#
#
#
# Elastic Constant Matrix: (Units=GPa)
#
#
# Indices 1 2 3 4 5 6 
#
# 1 34.9200 11.7624 31.6402 0.0000 0.0000 0.0000
# 2 11.7624 91.6889 13.6432 0.0000 0.0000 0.0000
# 3 31.6402 13.6432 117.0652 0.0000 0.0000 0.0000
# 4 0.0000 0.0000 0.0000 39.2843 0.0000 0.0000
# 5 0.0000 0.0000 0.0000 0.0000 74.3683 0.0000
# 6 0.0000 0.0000 0.0000 0.0000 0.0000 52.9669
#
#
#
# Elastic Compliance Matrix: (Units=1/GPa)
#
#
# Indices 1 2 3 4 5 6 
#
# 1 0.038995 -0.003495 -0.010132 0.000000 0.000000 0.000000
# 2 -0.003495 0.011412 -0.000385 0.000000 0.000000 0.000000
# 3 -0.010132 -0.000385 0.011326 0.000000 0.000000 0.000000
# 4 0.000000 0.000000 0.000000 0.025455 0.000000 0.000000
# 5 0.000000 0.000000 0.000000 0.000000 0.013447 0.000000
# 6 0.000000 0.000000 0.000000 0.000000 0.000000 0.018880
#
#
# Mechanical properties :
#
#
# Convention : Reuss Voigt Hill
#
# Bulk Modulus (GPa) = 29.66687 39.75177 34.70932
# Shear Modulus (GPa) = 31.49116 45.76578 38.62847
#
# Velocity S-wave (km/s) = 3.94122 4.75124 4.36506
# Velocity P-wave (km/s) = 5.94511 7.05030 6.52116
#
# Compressibility (1/GPa) = 0.03370764
#
# Stress axis : x y z
#
# Youngs Moduli (GPa) = 25.64459 87.62602 88.29506
#
# Poissons Ratio (x) = 0.30624 0.89462
# Poissons Ratio (y) = 0.08962 0.03403
# Poissons Ratio (z) = 0.25983 0.03377
#
# Static dielectric constant tensor:
#      x y z
#    x 1.717530 0.000000 0.000000 
#    y 0.000000 1.659360 0.000000 
#    z 0.000000 0.000000 1.537260 
# 
# From -- ./inp_files/38125.got.cif
#   From: 2010.05.17/outbox.ucp.g08.bks.cvg/sg72_20_cif.got.tgz:38125.got - 2010.06.11 16:33:07.
