data_PCOD9529890
_publ_section_title
;
Structure prediction by ZEFSAII (Michael W. Deem and Ramdas Pophale) SiO2 
 PCOD9529890
Probable space group: I B C A 
;
_chemical_formula_sum "Si O2"
_cell_formula_units_Z 112
_cell_length_a 11.052344
_cell_length_b 24.393050
_cell_length_c 18.564035
_cell_angle_alpha 90.000000
_cell_angle_beta 90.000000
_cell_angle_gamma 90.000000
_cell_volume 5004.870887
_symmetry_space_group_name_H-M "I B C A "
_symmetry_group_IT_number 73
_symmetry_cell_setting 'orthorhombic'
loop_
_space_group_symop_operation_xyz
x,y,z
-x,1/2-y,z
x,-y,1/2-z
1/2-x,y,-z
-x,-y,-z
x,1/2+y,-z
-x,y,1/2+z
1/2+x,-y,z
1/2+x,1/2+y,1/2+z
1/2-x,-y,1/2+z
1/2+x,1/2-y,-z
-x,1/2+y,1/2-z
1/2-x,1/2-y,1/2-z
1/2+x,y,1/2-z
1/2-x,1/2+y,z
x,1/2-y,1/2+z
loop_
_atom_site_type_symbol
_atom_site_label
_atom_site_fract_x
_atom_site_fract_y
_atom_site_fract_z
Si Si1 0.186115 0.676664 0.234650
Si Si2 0.500000 0.750000 0.848909
Si Si3 0.291454 0.425274 0.892487
Si Si4 0.384067 0.286247 0.378685
Si Si5 0.250000 0.023576 0.000000
Si Si6 0.577164 0.588705 0.602480
Si Si7 0.228629 0.807147 0.100785
Si Si8 0.750430 0.439183 0.237286
O O1 0.078196 0.710692 0.201563
O O2 0.303657 0.695572 0.189861
O O3 0.217919 0.687101 0.317302
O O4 0.162357 0.612075 0.222696
O O5 0.408601 0.787146 0.894786
O O6 0.436207 0.421613 0.881946
O O7 0.249659 0.367979 0.927348
O O8 0.210297 0.427772 0.819752
O O9 0.278588 0.481189 0.936128
O O10 0.500000 0.250000 0.360036
O O11 0.414012 0.345736 0.410445
O O12 0.305997 0.244422 0.427187
O O13 0.359868 0.059625 0.966832
O O14 0.651519 0.567725 0.673640
O O15 0.698618 0.500000 0.250000
#
# Coordination Sequence:
#
# PCOD9529890 Si02
#       8
#    16   8  16  16   8  16  16  16
#     4   9  21  28  57  93 135 183 208 268 346 415
#     4  10  18  34  50  94 140 174 210 270 338 428
#     4  11  24  44  69 100 137 184 227 290 355 416
#     4  10  18  35  64  93 132 168 222 277 334 416
#     4  12  26  50  66  96 134 182 250 286 350 430
#     4  11  24  45  71 100 135 186 231 291 357 423
#     4  10  21  33  59  94 133 173 224 272 347 409
#     4  10  21  42  63 104 135 169 230 290 344 421
#
# _framework density 22.378198999999999
#
# number of rings (size 3 to 8) (size 9 to 14) (size 15 to 20)
#    0.000    1.714    2.857    2.143    4.000    4.000 
#    2.571    3.571    0.000    0.000    1.857    0.000 
#    0.000    0.000    0.000    0.000    0.000    0.000 
#
# Total GULP energy -312138.815716 kJ/mol
# GULP energy per Si atom -5573.907424 kJ/mol
# Density = 2.232727 g / cm^3
# Si number density = 22.378199 Si / 1000 Ang^3
#
#
#
# Elastic Constant Matrix: (Units=GPa)
#
#
# Indices 1 2 3 4 5 6 
#
# 1 109.2343 52.8836 22.7431 0.0000 0.0000 0.0000
# 2 52.8836 217.5861 28.7382 0.0000 0.0000 0.0000
# 3 22.7431 28.7382 75.8483 0.0000 0.0000 0.0000
# 4 0.0000 0.0000 0.0000 -102.6346 0.0000 0.0000
# 5 0.0000 0.0000 0.0000 0.0000 9.1223 0.0000
# 6 0.0000 0.0000 0.0000 0.0000 0.0000 18.1161
#
#
#
# Elastic Compliance Matrix: (Units=1/GPa)
#
#
# Indices 1 2 3 4 5 6 
#
# 1 0.010760 -0.002304 -0.002353 0.000000 0.000000 0.000000
# 2 -0.002304 0.005332 -0.001329 0.000000 0.000000 0.000000
# 3 -0.002353 -0.001329 0.014393 0.000000 0.000000 0.000000
# 4 0.000000 0.000000 0.000000 -0.009743 0.000000 0.000000
# 5 0.000000 0.000000 0.000000 0.000000 0.109622 0.000000
# 6 0.000000 0.000000 0.000000 0.000000 0.000000 0.055200
#
#
# Mechanical properties :
#
#
# Convention : Reuss Voigt Hill
#
# Bulk Modulus (GPa) = 54.02041 67.93315 60.97678
# Shear Modulus (GPa) = 24.54498 4.80767 14.67632
#
# Velocity S-wave (km/s) = 3.31543 1.46732 2.56370
# Velocity P-wave (km/s) = 6.23284 5.77005 6.00590
#
# Compressibility (1/GPa) = 0.01851152
#
# Stress axis : x y z
#
# Youngs Moduli (GPa) = 92.93463 187.56433 69.47618
#
# Poissons Ratio (x) = 0.43223 0.16350
# Poissons Ratio (y) = 0.21416 0.09234
# Poissons Ratio (z) = 0.21871 0.24929
#
# Static dielectric constant tensor:
#      x y z
#    x 1.802440 0.000000 0.000000 
#    y 0.000000 1.923190 0.000000 
#    z 0.000000 0.000000 1.932450 
# 
# From -- ./inp_files/29048.got.cif
#   From: 2010.05.17/outbox.cif.g08.bks.cpg/sg73_15_cif.got.tgz:29048.got - 2010.06.03 17:35:07.
