data_PCOD9529388
_publ_section_title
;
Structure prediction by ZEFSAII (Michael W. Deem and Ramdas Pophale) SiO2 
 PCOD9529388
Probable space group: I B A M
;
_chemical_formula_sum "Si O2"
_cell_formula_units_Z 32
_cell_length_a 4.857518
_cell_length_b 16.104176
_cell_length_c 15.590701
_cell_angle_alpha 90.000000
_cell_angle_beta 90.000000
_cell_angle_gamma 90.000000
_cell_volume 1219.603240
_symmetry_space_group_name_H-M "I B A M"
_symmetry_group_IT_number 72
_symmetry_cell_setting 'orthorhombic'
loop_
_space_group_symop_operation_xyz
x,y,z
-x,-y,z
x,-y,1/2-z
-x,y,1/2-z
-x,-y,-z
x,y,-z
-x,y,1/2+z
x,-y,1/2+z
1/2+x,1/2+y,1/2+z
1/2-x,1/2-y,1/2+z
1/2+x,1/2-y,-z
1/2-x,1/2+y,-z
1/2-x,1/2-y,1/2-z
1/2+x,1/2+y,1/2-z
1/2-x,1/2+y,z
1/2+x,1/2-y,z
loop_
_atom_site_type_symbol
_atom_site_label
_atom_site_fract_x
_atom_site_fract_y
_atom_site_fract_z
Si Si1 0.500000 0.183528 0.250000
Si Si2 0.373307 0.300847 0.000000
Si Si3 0.395328 0.409843 0.652068
O O1 0.250000 0.250000 0.250000
O O2 0.419059 0.120671 0.171522
O O3 0.475179 0.347076 0.084750
O O4 0.051045 0.283739 0.000000
O O5 0.500000 0.500000 0.621699
O O6 0.500000 0.406227 0.750000
#
# Coordination Sequence:
#
# PCOD9529388 Si02
#       3
#     8   8  16
#     4  12  24  47  77 112 154 208 264 324 387 474
#     4  12  29  50  77 116 158 214 268 332 397 485
#     4  11  27  51  81 117 165 207 269 331 414 477
#
# _framework density 26.238043999999999
#
# number of rings (size 3 to 8) (size 9 to 14) (size 15 to 20)
#    0.000    0.500    2.500    3.750    7.000    4.000 
#    0.000    2.500    0.000    0.000    0.000    0.000 
#    0.000    0.000    0.000    0.000    0.000    0.000 
#
# Total GULP energy -89309.758076 kJ/mol
# GULP energy per Si atom -5581.859880 kJ/mol
# Density = 2.617833 g / cm^3
# Si number density = 26.238044 Si / 1000 Ang^3
#
#
#
# Elastic Constant Matrix: (Units=GPa)
#
#
# Indices 1 2 3 4 5 6 
#
# 1 168.0309 41.4080 24.2752 0.0000 0.0000 0.0000
# 2 41.4080 154.4256 18.8956 0.0000 0.0000 0.0000
# 3 24.2752 18.8956 127.5632 0.0000 0.0000 0.0000
# 4 0.0000 0.0000 0.0000 58.3162 0.0000 0.0000
# 5 0.0000 0.0000 0.0000 0.0000 39.9546 0.0000
# 6 0.0000 0.0000 0.0000 0.0000 0.0000 38.7185
#
#
#
# Elastic Compliance Matrix: (Units=1/GPa)
#
#
# Indices 1 2 3 4 5 6 
#
# 1 0.006494 -0.001620 -0.000996 0.000000 0.000000 0.000000
# 2 -0.001620 0.006999 -0.000729 0.000000 0.000000 0.000000
# 3 -0.000996 -0.000729 0.008137 0.000000 0.000000 0.000000
# 4 0.000000 0.000000 0.000000 0.017148 0.000000 0.000000
# 5 0.000000 0.000000 0.000000 0.000000 0.025028 0.000000
# 6 0.000000 0.000000 0.000000 0.000000 0.000000 0.025827
#
#
# Mechanical properties :
#
#
# Convention : Reuss Voigt Hill
#
# Bulk Modulus (GPa) = 66.92579 68.79748 67.86164
# Shear Modulus (GPa) = 49.35716 51.76059 50.55888
#
# Velocity S-wave (km/s) = 4.34190 4.44636 4.39444
# Velocity P-wave (km/s) = 7.12030 7.25518 7.18806
#
# Compressibility (1/GPa) = 0.01494192
#
# Stress axis : x y z
#
# Youngs Moduli (GPa) = 153.98185 142.87716 122.89999
#
# Poissons Ratio (x) = 0.23139 0.12240
# Poissons Ratio (y) = 0.24938 0.08954
# Poissons Ratio (z) = 0.15336 0.10409
#
# Static dielectric constant tensor:
#      x y z
#    x 2.359730 0.000000 0.000000 
#    y 0.000000 2.138460 0.000000 
#    z 0.000000 0.000000 2.037930 
# 
# From -- ./inp_files/17140.got.cif
#   From: 2010.05.17/outbox.cif.g08.bks.cpg/sg72_9_cif.got.tgz:17140.got - 2010.06.03 17:03:01.
