data_PCOD9529447
_publ_section_title
;
Structure prediction by ZEFSAII (Michael W. Deem and Ramdas Pophale) SiO2 
 PCOD9529447
Probable space group: I B A M
;
_chemical_formula_sum "Si O2"
_cell_formula_units_Z 64
_cell_length_a 18.665328
_cell_length_b 16.418860
_cell_length_c 10.075454
_cell_angle_alpha 90.000000
_cell_angle_beta 90.000000
_cell_angle_gamma 90.000000
_cell_volume 3087.757963
_symmetry_space_group_name_H-M "I B A M"
_symmetry_group_IT_number 72
_symmetry_cell_setting 'orthorhombic'
loop_
_space_group_symop_operation_xyz
x,y,z
-x,-y,z
x,-y,1/2-z
-x,y,1/2-z
-x,-y,-z
x,y,-z
-x,y,1/2+z
x,-y,1/2+z
1/2+x,1/2+y,1/2+z
1/2-x,1/2-y,1/2+z
1/2+x,1/2-y,-z
1/2-x,1/2+y,-z
1/2-x,1/2-y,1/2-z
1/2+x,1/2+y,1/2-z
1/2-x,1/2+y,z
1/2+x,1/2-y,z
loop_
_atom_site_type_symbol
_atom_site_label
_atom_site_fract_x
_atom_site_fract_y
_atom_site_fract_z
Si Si1 0.834575 0.405000 0.500000
Si Si2 0.632384 0.095745 0.500000
Si Si3 0.617619 0.421495 0.843354
Si Si4 0.500000 0.293176 0.250000
Si Si5 0.268123 0.155382 0.770944
Si Si6 0.509439 0.822244 0.500000
O O1 0.848095 0.501103 0.500000
O O2 0.790333 0.381360 0.369912
O O3 0.909476 0.355157 0.500000
O O4 0.667279 0.139553 0.627343
O O5 0.547361 0.105158 0.500000
O O6 0.607834 0.500000 0.750000
O O7 0.566460 0.351419 0.785074
O O8 0.698820 0.390112 0.829188
O O9 0.601912 0.436398 0.000000
O O10 0.507347 0.234209 0.374694
O O11 0.250000 0.250000 0.750000
#
# Coordination Sequence:
#
# PCOD9529447 Si02
#       6
#     8   8  16   8  16   8
#     4  12  26  45  71 106 146 186 238 296 349 427
#     4  12  24  45  71 104 142 190 238 292 363 417
#     4  12  27  48  73 107 144 185 238 295 361 431
#     4  12  27  46  73 100 146 186 238 296 351 426
#     4  12  26  45  73 104 143 189 237 294 354 424
#     4  12  25  46  71 106 142 190 240 292 355 424
#
# _framework density 20.727014
#
# number of rings (size 3 to 8) (size 9 to 14) (size 15 to 20)
#    0.000    0.000    2.500    8.250    3.500    1.000 
#    0.000    3.750    0.000    0.000    0.000    0.000 
#    0.000    0.000    0.000    0.000    0.000    0.000 
#
# Total GULP energy -179251.620710 kJ/mol
# GULP energy per Si atom -5601.613147 kJ/mol
# Density = 2.067984 g / cm^3
# Si number density = 20.727014 Si / 1000 Ang^3
#
#
#
# Elastic Constant Matrix: (Units=GPa)
#
#
# Indices 1 2 3 4 5 6 
#
# 1 85.5133 11.7842 15.5272 0.0000 0.0000 0.0000
# 2 11.7842 149.6522 52.2663 0.0000 0.0000 0.0000
# 3 15.5272 52.2663 164.8797 0.0000 0.0000 0.0000
# 4 0.0000 0.0000 0.0000 23.4122 0.0000 0.0000
# 5 0.0000 0.0000 0.0000 0.0000 43.9198 0.0000
# 6 0.0000 0.0000 0.0000 0.0000 0.0000 11.5729
#
#
#
# Elastic Compliance Matrix: (Units=1/GPa)
#
#
# Indices 1 2 3 4 5 6 
#
# 1 0.011948 -0.000616 -0.000930 0.000000 0.000000 0.000000
# 2 -0.000616 0.007546 -0.002334 0.000000 0.000000 0.000000
# 3 -0.000930 -0.002334 0.006892 0.000000 0.000000 0.000000
# 4 0.000000 0.000000 0.000000 0.042713 0.000000 0.000000
# 5 0.000000 0.000000 0.000000 0.000000 0.022769 0.000000
# 6 0.000000 0.000000 0.000000 0.000000 0.000000 0.086409
#
#
# Mechanical properties :
#
#
# Convention : Reuss Voigt Hill
#
# Bulk Modulus (GPa) = 53.68759 62.13340 57.91049
# Shear Modulus (GPa) = 26.00849 37.14548 31.57698
#
# Velocity S-wave (km/s) = 3.54617 4.23795 3.90740
# Velocity P-wave (km/s) = 6.53648 7.34772 6.95394
#
# Compressibility (1/GPa) = 0.01862628
#
# Stress axis : x y z
#
# Youngs Moduli (GPa) = 83.69719 132.52373 145.08601
#
# Poissons Ratio (x) = 0.08164 0.13491
# Poissons Ratio (y) = 0.05156 0.33863
# Poissons Ratio (z) = 0.07783 0.30931
#
# Static dielectric constant tensor:
#      x y z
#    x 1.741340 0.000000 0.000000 
#    y 0.000000 1.712210 0.000000 
#    z 0.000000 0.000000 1.519710 
# 
# From -- ./inp_files/13532.got.cif
#   From: 2010.05.17/outbox.cif.g08.bks.cpg/sg72_7_cif.got.tgz:13532.got - 2010.06.03 17:03:01.
