data_PCOD9529161
_publ_section_title
;
Structure prediction by ZEFSAII (Michael W. Deem and Ramdas Pophale) SiO2 
 PCOD9529161
Probable space group: I B A M
;
_chemical_formula_sum "Si O2"
_cell_formula_units_Z 72
_cell_length_a 18.600983
_cell_length_b 10.102169
_cell_length_c 21.238445
_cell_angle_alpha 90.000000
_cell_angle_beta 90.000000
_cell_angle_gamma 90.000000
_cell_volume 3990.922016
_symmetry_space_group_name_H-M "I B A M"
_symmetry_group_IT_number 72
_symmetry_cell_setting 'orthorhombic'
loop_
_space_group_symop_operation_xyz
x,y,z
-x,-y,z
x,-y,1/2-z
-x,y,1/2-z
-x,-y,-z
x,y,-z
-x,y,1/2+z
x,-y,1/2+z
1/2+x,1/2+y,1/2+z
1/2-x,1/2-y,1/2+z
1/2+x,1/2-y,-z
1/2-x,1/2+y,-z
1/2-x,1/2-y,1/2-z
1/2+x,1/2+y,1/2-z
1/2-x,1/2+y,z
1/2+x,1/2-y,z
loop_
_atom_site_type_symbol
_atom_site_label
_atom_site_fract_x
_atom_site_fract_y
_atom_site_fract_z
Si Si1 0.402060 0.242393 0.798477
Si Si2 0.956291 0.638253 0.167624
Si Si3 0.824734 0.000000 0.750000
Si Si4 0.231882 0.610348 0.865379
Si Si5 0.824253 0.654239 0.074357
O O1 0.414198 0.160751 0.733386
O O2 0.479662 0.245434 0.831488
O O3 0.372637 0.385331 0.780285
O O4 0.343475 0.170324 0.841469
O O5 0.899581 0.651075 0.111996
O O6 0.000000 0.500000 0.166240
O O7 0.775323 0.934899 0.803525
O O8 0.216299 0.481527 0.907144
O O9 0.277314 0.722566 0.900757
O O10 0.834905 0.662551 0.000000
#
# Coordination Sequence:
#
# PCOD9529161 Si02
#       5
#    16  16   8  16  16
#     4  11  22  38  64  98 128 159 206 276 330 376
#     4  11  23  39  64  94 128 165 210 263 321 383
#     4  12  22  37  68  99 132 162 204 274 344 373
#     4  12  23  42  67  99 127 166 217 269 322 381
#     4  12  26  45  65  91 132 177 217 259 308 382
#
# _framework density 18.040942999999999
#
# number of rings (size 3 to 8) (size 9 to 14) (size 15 to 20)
#    0.000    0.444    6.667    4.000    0.000    2.222 
#    0.000    0.000    0.000    1.333    0.000    0.000 
#    0.000    0.000    0.000    0.000    0.000    0.000 
#
# Total GULP energy -201280.050744 kJ/mol
# GULP energy per Si atom -5591.112521 kJ/mol
# Density = 1.799988 g / cm^3
# Si number density = 18.040943 Si / 1000 Ang^3
#
#
#
# Elastic Constant Matrix: (Units=GPa)
#
#
# Indices 1 2 3 4 5 6 
#
# 1 107.3795 50.2109 61.5827 0.0000 0.0000 0.0000
# 2 50.2109 103.8302 58.5408 0.0000 0.0000 0.0000
# 3 61.5827 58.5408 114.5525 0.0000 0.0000 0.0000
# 4 0.0000 0.0000 0.0000 10.4557 0.0000 0.0000
# 5 0.0000 0.0000 0.0000 0.0000 8.6455 0.0000
# 6 0.0000 0.0000 0.0000 0.0000 0.0000 -10.7392
#
#
#
# Elastic Compliance Matrix: (Units=1/GPa)
#
#
# Indices 1 2 3 4 5 6 
#
# 1 0.014384 -0.003647 -0.005869 0.000000 0.000000 0.000000
# 2 -0.003647 0.014454 -0.005426 0.000000 0.000000 0.000000
# 3 -0.005869 -0.005426 0.014658 0.000000 0.000000 0.000000
# 4 0.000000 0.000000 0.000000 0.095641 0.000000 0.000000
# 5 0.000000 0.000000 0.000000 0.000000 0.115667 0.000000
# 6 0.000000 0.000000 0.000000 0.000000 0.000000 -0.093117
#
#
# Mechanical properties :
#
#
# Convention : Reuss Voigt Hill
#
# Bulk Modulus (GPa) = 73.46575 74.04789 73.75682
# Shear Modulus (GPa) = 25.49616 12.03427 18.76521
#
# Velocity S-wave (km/s) = 3.76339 2.58554 3.22863
# Velocity P-wave (km/s) = 7.72620 7.07438 7.40746
#
# Compressibility (1/GPa) = 0.01361178
#
# Stress axis : x y z
#
# Youngs Moduli (GPa) = 69.52184 69.18539 68.22356
#
# Poissons Ratio (x) = 0.25231 0.40041
# Poissons Ratio (y) = 0.25354 0.37018
# Poissons Ratio (z) = 0.40803 0.37540
#
# Static dielectric constant tensor:
#      x y z
#    x 1.620110 0.000000 0.000000 
#    y 0.000000 1.632860 0.000000 
#    z 0.000000 0.000000 1.584830 
# 
# From -- ./inp_files/36763.got.cif
#   From: 2010.05.17/outbox.cif.g08.bks.cpg/sg72_19_cif.got.tgz:36763.got - 2010.06.03 17:03:01.
