data_PCOD9529623
_publ_section_title
;
Structure prediction by ZEFSAII (Michael W. Deem and Ramdas Pophale) SiO2 
 PCOD9529623
Probable space group: I B C A 
;
_chemical_formula_sum "Si O2"
_cell_formula_units_Z 72
_cell_length_a 24.443356
_cell_length_b 16.251455
_cell_length_c 8.628076
_cell_angle_alpha 90.000000
_cell_angle_beta 90.000000
_cell_angle_gamma 90.000000
_cell_volume 3427.417774
_symmetry_space_group_name_H-M "I B C A "
_symmetry_group_IT_number 73
_symmetry_cell_setting 'orthorhombic'
loop_
_space_group_symop_operation_xyz
x,y,z
-x,1/2-y,z
x,-y,1/2-z
1/2-x,y,-z
-x,-y,-z
x,1/2+y,-z
-x,y,1/2+z
1/2+x,-y,z
1/2+x,1/2+y,1/2+z
1/2-x,-y,1/2+z
1/2+x,1/2-y,-z
-x,1/2+y,1/2-z
1/2-x,1/2-y,1/2-z
1/2+x,y,1/2-z
1/2-x,1/2+y,z
x,1/2-y,1/2+z
loop_
_atom_site_type_symbol
_atom_site_label
_atom_site_fract_x
_atom_site_fract_y
_atom_site_fract_z
Si Si1 0.000000 0.250000 0.246965
Si Si2 0.292876 0.421971 0.861564
Si Si3 0.194393 0.176865 0.938737
Si Si4 0.925750 0.670843 0.507721
Si Si5 0.359925 0.522881 0.070768
O O1 0.033012 0.313023 0.353685
O O2 0.045018 0.206234 0.142170
O O3 0.278719 0.500000 0.750000
O O4 0.299936 0.347952 0.741104
O O5 0.250000 0.410131 0.000000
O O6 0.347397 0.448452 0.954819
O O7 0.250000 0.217323 0.000000
O O8 0.133820 0.213897 0.963196
O O9 0.187507 0.091667 0.038504
O O10 0.911924 0.575319 0.482629
O O11 0.361355 0.500000 0.250000
#
# Coordination Sequence:
#
# PCOD9529623 Si02
#       5
#     8  16  16  16  16
#     4  10  20  50  60  70  98 158 216 240 276 306
#     4  10  16  26  50  83 132 157 166 196 279 373
#     4   9  18  33  54  90 123 145 179 218 289 353
#     4   9  22  38  66  77 102 152 200 240 273 342
#     4   9  17  32  54  90 120 147 171 223 289 349
#
# _framework density 21.007069999999999
#
# number of rings (size 3 to 8) (size 9 to 14) (size 15 to 20)
#    1.333    1.333    0.000    4.667    0.000    0.000 
#    8.000    2.222    0.000    0.000    0.000    0.000 
#    0.000    0.000    0.000    0.000    0.000    0.000 
#
# Total GULP energy -200550.055596 kJ/mol
# GULP energy per Si atom -5570.834878 kJ/mol
# Density = 2.095926 g / cm^3
# Si number density = 21.007070 Si / 1000 Ang^3
#
#
#
# Elastic Constant Matrix: (Units=GPa)
#
#
# Indices 1 2 3 4 5 6 
#
# 1 136.3413 35.0239 90.1094 0.0000 0.0000 0.0000
# 2 35.0239 43.4126 50.5315 0.0000 0.0000 0.0000
# 3 90.1094 50.5315 186.7158 0.0000 0.0000 0.0000
# 4 0.0000 0.0000 0.0000 5.7664 0.0000 0.0000
# 5 0.0000 0.0000 0.0000 0.0000 -19.9151 0.0000
# 6 0.0000 0.0000 0.0000 0.0000 0.0000 20.7956
#
#
#
# Elastic Compliance Matrix: (Units=1/GPa)
#
#
# Indices 1 2 3 4 5 6 
#
# 1 0.011230 -0.004017 -0.004332 0.000000 0.000000 0.000000
# 2 -0.004017 0.035065 -0.007551 0.000000 0.000000 0.000000
# 3 -0.004332 -0.007551 0.009490 0.000000 0.000000 0.000000
# 4 0.000000 0.000000 0.000000 0.173419 0.000000 0.000000
# 5 0.000000 0.000000 0.000000 0.000000 -0.050213 0.000000
# 6 0.000000 0.000000 0.000000 0.000000 0.000000 0.048087
#
#
# Mechanical properties :
#
#
# Convention : Reuss Voigt Hill
#
# Bulk Modulus (GPa) = 41.69477 79.75546 60.72512
# Shear Modulus (GPa) = 18.73547 14.04972 16.39260
#
# Velocity S-wave (km/s) = 2.98965 2.58894 2.79648
# Velocity P-wave (km/s) = 5.63989 6.85458 6.27669
#
# Compressibility (1/GPa) = 0.02398382
#
# Stress axis : x y z
#
# Youngs Moduli (GPa) = 89.04929 28.51856 105.37279
#
# Poissons Ratio (x) = 0.11456 0.45651
# Poissons Ratio (y) = 0.35771 0.79568
# Poissons Ratio (z) = 0.38579 0.21535
#
# Static dielectric constant tensor:
#      x y z
#    x 1.795200 0.000000 0.000000 
#    y 0.000000 1.788170 0.000000 
#    z 0.000000 0.000000 1.728700 
# 
# From -- ./inp_files/6175.got.cif
#   From: 2010.05.17/outbox.cif.g08.bks.cpg/sg73_4_cif.got.tgz:6175.got - 2010.06.03 17:35:07.
