data_PCOD9529666
_publ_section_title
;
Structure prediction by ZEFSAII (Michael W. Deem and Ramdas Pophale) SiO2 
 PCOD9529666
Probable space group: I B C A 
;
_chemical_formula_sum "Si O2"
_cell_formula_units_Z 112
_cell_length_a 25.977648
_cell_length_b 11.104860
_cell_length_c 14.208310
_cell_angle_alpha 90.000000
_cell_angle_beta 90.000000
_cell_angle_gamma 90.000000
_cell_volume 4098.786901
_symmetry_space_group_name_H-M "I B C A "
_symmetry_group_IT_number 73
_symmetry_cell_setting 'orthorhombic'
loop_
_space_group_symop_operation_xyz
x,y,z
-x,1/2-y,z
x,-y,1/2-z
1/2-x,y,-z
-x,-y,-z
x,1/2+y,-z
-x,y,1/2+z
1/2+x,-y,z
1/2+x,1/2+y,1/2+z
1/2-x,-y,1/2+z
1/2+x,1/2-y,-z
-x,1/2+y,1/2-z
1/2-x,1/2-y,1/2-z
1/2+x,y,1/2-z
1/2-x,1/2+y,z
x,1/2-y,1/2+z
loop_
_atom_site_type_symbol
_atom_site_label
_atom_site_fract_x
_atom_site_fract_y
_atom_site_fract_z
Si Si1 0.616538 0.096356 0.147837
Si Si2 0.750000 0.883598 0.500000
Si Si3 0.680524 0.500000 0.250000
Si Si4 0.050914 0.675331 0.465705
Si Si5 0.415067 0.960261 0.371817
Si Si6 0.839965 0.421375 0.026824
Si Si7 0.560075 0.752360 0.223866
Si Si8 0.207516 0.275029 0.367564
O O1 0.642559 0.967331 0.129540
O O2 0.574960 0.125703 0.225570
O O3 0.661110 0.194005 0.170104
O O4 0.587196 0.136377 0.051396
O O5 0.699550 0.967204 0.493435
O O6 0.747625 0.814822 0.601579
O O7 0.637289 0.475791 0.331625
O O8 0.712190 0.609725 0.299025
O O9 0.040616 0.550416 0.406323
O O10 0.081804 0.741769 0.381589
O O11 0.000000 0.750000 0.494901
O O12 0.392538 0.907626 0.467526
O O13 0.429300 0.858789 0.296291
O O14 0.808400 0.317168 0.973774
O O15 0.500000 0.750000 0.207175
#
# Coordination Sequence:
#
# PCOD9529666 Si02
#       8
#    16   8   8  16  16  16  16  16
#     4  10  19  35  54  84 114 150 196 237 290 345
#     4  10  20  34  56  88 120 134 190 242 290 340
#     4  10  16  32  62  80 102 154 196 222 284 352
#     4  10  20  33  53  82 113 148 197 245 290 338
#     4  10  17  35  56  78 111 148 197 231 288 348
#     4   9  19  33  57  82 111 153 182 230 293 350
#     4  11  20  34  56  82 113 151 199 248 283 339
#     4  10  19  35  58  83 115 150 190 236 284 354
#
# _framework density 27.32516
#
# number of rings (size 3 to 8) (size 9 to 14) (size 15 to 20)
#    0.000    2.000    4.286    0.857    0.000    0.000 
#    2.571    5.000    0.000    8.571    0.000    0.000 
#    0.000    0.000    0.000    0.000    0.000    0.000 
#
# Total GULP energy -311983.473175 kJ/mol
# GULP energy per Si atom -5571.133450 kJ/mol
# Density = 2.726297 g / cm^3
# Si number density = 27.325160 Si / 1000 Ang^3
#
#
#
# Elastic Constant Matrix: (Units=GPa)
#
#
# Indices 1 2 3 4 5 6 
#
# 1 48.8809 24.8140 15.6255 0.0000 0.0000 0.0000
# 2 24.8140 88.5750 33.4101 0.0000 0.0000 0.0000
# 3 15.6255 33.4101 124.5296 0.0000 0.0000 0.0000
# 4 0.0000 0.0000 0.0000 66.7463 0.0000 0.0000
# 5 0.0000 0.0000 0.0000 0.0000 16.8607 0.0000
# 6 0.0000 0.0000 0.0000 0.0000 0.0000 23.3162
#
#
#
# Elastic Compliance Matrix: (Units=1/GPa)
#
#
# Indices 1 2 3 4 5 6 
#
# 1 0.024051 -0.006230 -0.001346 0.000000 0.000000 0.000000
# 2 -0.006230 0.014175 -0.003021 0.000000 0.000000 0.000000
# 3 -0.001346 -0.003021 0.009010 0.000000 0.000000 0.000000
# 4 0.000000 0.000000 0.000000 0.014982 0.000000 0.000000
# 5 0.000000 0.000000 0.000000 0.000000 0.059309 0.000000
# 6 0.000000 0.000000 0.000000 0.000000 0.000000 0.042889
#
#
# Mechanical properties :
#
#
# Convention : Reuss Voigt Hill
#
# Bulk Modulus (GPa) = 38.40211 45.52052 41.96131
# Shear Modulus (GPa) = 25.73465 33.92704 29.83085
#
# Velocity S-wave (km/s) = 3.07219 3.52746 3.30767
# Velocity P-wave (km/s) = 5.16418 5.76937 5.47515
#
# Compressibility (1/GPa) = 0.02604024
#
# Stress axis : x y z
#
# Youngs Moduli (GPa) = 41.57862 70.54794 110.99119
#
# Poissons Ratio (x) = 0.43951 0.14944
# Poissons Ratio (y) = 0.25903 0.33533
# Poissons Ratio (z) = 0.05598 0.21314
#
# Static dielectric constant tensor:
#      x y z
#    x 2.090160 0.000000 0.000000 
#    y 0.000000 2.394390 0.000000 
#    z 0.000000 0.000000 2.209140 
# 
# From -- ./inp_files/20129.got.cif
#   From: 2010.05.17/outbox.cif.g08.bks.cpg/sg73_11_cif.got.tgz:20129.got - 2010.06.03 17:35:07.
