data_PCOD9529443
_publ_section_title
;
Structure prediction by ZEFSAII (Michael W. Deem and Ramdas Pophale) SiO2 
 PCOD9529443
Probable space group: I B A M
;
_chemical_formula_sum "Si O2"
_cell_formula_units_Z 104
_cell_length_a 20.565073
_cell_length_b 8.344273
_cell_length_c 25.601141
_cell_angle_alpha 90.000000
_cell_angle_beta 90.000000
_cell_angle_gamma 90.000000
_cell_volume 4393.170731
_symmetry_space_group_name_H-M "I B A M"
_symmetry_group_IT_number 72
_symmetry_cell_setting 'orthorhombic'
loop_
_space_group_symop_operation_xyz
x,y,z
-x,-y,z
x,-y,1/2-z
-x,y,1/2-z
-x,-y,-z
x,y,-z
-x,y,1/2+z
x,-y,1/2+z
1/2+x,1/2+y,1/2+z
1/2-x,1/2-y,1/2+z
1/2+x,1/2-y,-z
1/2-x,1/2+y,-z
1/2-x,1/2-y,1/2-z
1/2+x,1/2+y,1/2-z
1/2-x,1/2+y,z
1/2+x,1/2-y,z
loop_
_atom_site_type_symbol
_atom_site_label
_atom_site_fract_x
_atom_site_fract_y
_atom_site_fract_z
Si Si1 0.144710 0.839414 0.500000
Si Si2 0.206349 0.412060 0.500000
Si Si3 0.364136 0.341084 0.858993
Si Si4 0.082294 0.182099 0.500000
Si Si5 0.106679 0.796772 0.616655
Si Si6 0.722229 0.063342 0.884361
Si Si7 0.521635 0.826208 0.905792
Si Si8 0.301966 0.850033 0.282995
O O1 0.223183 0.822071 0.500000
O O2 0.113933 0.778682 0.553593
O O3 0.125624 0.025593 0.500000
O O4 0.137302 0.320310 0.500000
O O5 0.208060 0.499389 0.443026
O O6 0.392611 0.517775 0.867185
O O7 0.294282 0.360718 0.887168
O O8 0.408403 0.194225 0.879156
O O9 0.351354 0.288103 0.800217
O O10 0.034181 0.200170 0.451686
O O11 0.168429 0.692583 0.633748
O O12 0.037213 0.724921 0.631170
O O13 0.723545 0.933137 0.837166
O O14 0.500000 0.000000 0.925797
O O15 0.250000 0.750000 0.250000
O O16 0.327050 0.000000 0.250000
#
# Coordination Sequence:
#
# PCOD9529443 Si02
#       8
#     8   8  16   8  16  16  16  16
#     4  12  26  35  66 106 156 215 256 308 384 453
#     4  12  25  41  70 114 168 203 246 329 381 475
#     4  12  25  45  74 114 143 194 258 316 397 453
#     4  12  24  42  63 100 158 217 280 300 381 467
#     4  12  26  44  73 107 160 205 261 316 387 472
#     4  12  26  47  75 119 157 203 256 320 402 457
#     4  12  26  46  69 102 152 216 259 325 377 468
#     4  12  27  48  80 117 154 197 259 328 385 464
#
# _framework density 23.673107000000002
#
# number of rings (size 3 to 8) (size 9 to 14) (size 15 to 20)
#    0.000    0.000    4.615    5.308    4.308    0.615 
#    0.000    0.000    0.000    4.154    8.000    0.000 
#    0.000    0.000    0.000    0.000    0.000    0.000 
#
# Total GULP energy -290486.641026 kJ/mol
# GULP energy per Si atom -5586.281558 kJ/mol
# Density = 2.361923 g / cm^3
# Si number density = 23.673107 Si / 1000 Ang^3
#
#
#
# Elastic Constant Matrix: (Units=GPa)
#
#
# Indices 1 2 3 4 5 6 
#
# 1 130.1266 26.7725 3.5819 0.0000 0.0000 0.0000
# 2 26.7725 96.5891 31.4386 0.0000 0.0000 0.0000
# 3 3.5819 31.4386 88.1423 0.0000 0.0000 0.0000
# 4 0.0000 0.0000 0.0000 49.3780 0.0000 0.0000
# 5 0.0000 0.0000 0.0000 0.0000 -27.4021 0.0000
# 6 0.0000 0.0000 0.0000 0.0000 0.0000 36.6965
#
#
#
# Elastic Compliance Matrix: (Units=1/GPa)
#
#
# Indices 1 2 3 4 5 6 
#
# 1 0.008172 -0.002440 0.000538 0.000000 0.000000 0.000000
# 2 -0.002440 0.012442 -0.004339 0.000000 0.000000 0.000000
# 3 0.000538 -0.004339 0.012871 0.000000 0.000000 0.000000
# 4 0.000000 0.000000 0.000000 0.020252 0.000000 0.000000
# 5 0.000000 0.000000 0.000000 0.000000 -0.036494 0.000000
# 6 0.000000 0.000000 0.000000 0.000000 0.000000 0.027251
#
#
# Mechanical properties :
#
#
# Convention : Reuss Voigt Hill
#
# Bulk Modulus (GPa) = 47.61100 48.71600 48.16350
# Shear Modulus (GPa) = 78.15441 28.60548 53.37994
#
# Velocity S-wave (km/s) = 5.75202 3.47991 4.75371
# Velocity P-wave (km/s) = 8.01684 6.06380 7.10772
#
# Compressibility (1/GPa) = 0.02100355
#
# Stress axis : x y z
#
# Youngs Moduli (GPa) = 122.36768 80.37497 77.69479
#
# Poissons Ratio (x) = 0.19614 -0.04183
# Poissons Ratio (y) = 0.29862 0.33708
# Poissons Ratio (z) = -0.06587 0.34871
#
# Static dielectric constant tensor:
#      x y z
#    x 1.952890 0.000000 0.000000 
#    y 0.000000 1.971150 0.000000 
#    z 0.000000 0.000000 2.004730 
# 
# From -- ./inp_files/49457.got.cif
#   From: 2010.05.17/outbox.cif.g08.bks.cpg/sg72_25_cif.got.tgz:49457.got - 2010.06.03 17:03:01.
