data_PCOD9529350
_publ_section_title
;
Structure prediction by ZEFSAII (Michael W. Deem and Ramdas Pophale) SiO2 
 PCOD9529350
Probable space group: I B A M
;
_chemical_formula_sum "Si O2"
_cell_formula_units_Z 64
_cell_length_a 10.124141
_cell_length_b 9.770919
_cell_length_c 24.567822
_cell_angle_alpha 90.000000
_cell_angle_beta 90.000000
_cell_angle_gamma 90.000000
_cell_volume 2430.302059
_symmetry_space_group_name_H-M "I B A M"
_symmetry_group_IT_number 72
_symmetry_cell_setting 'orthorhombic'
loop_
_space_group_symop_operation_xyz
x,y,z
-x,-y,z
x,-y,1/2-z
-x,y,1/2-z
-x,-y,-z
x,y,-z
-x,y,1/2+z
x,-y,1/2+z
1/2+x,1/2+y,1/2+z
1/2-x,1/2-y,1/2+z
1/2+x,1/2-y,-z
1/2-x,1/2+y,-z
1/2-x,1/2-y,1/2-z
1/2+x,1/2+y,1/2-z
1/2-x,1/2+y,z
1/2+x,1/2-y,z
loop_
_atom_site_type_symbol
_atom_site_label
_atom_site_fract_x
_atom_site_fract_y
_atom_site_fract_z
Si Si1 0.763609 0.995464 0.000000
Si Si2 0.397325 0.753415 0.500000
Si Si3 0.500000 0.786073 0.750000
Si Si4 0.581254 0.876956 0.592308
Si Si5 0.083687 0.118142 0.842449
Si Si6 0.726101 0.000000 0.250000
O O1 0.888811 0.091978 0.000000
O O2 0.687569 0.048578 0.054216
O O3 0.745413 0.832320 0.000000
O O4 0.474796 0.808982 0.551938
O O5 0.478764 0.691020 0.698073
O O6 0.627302 0.875873 0.737366
O O7 0.638248 0.746108 0.623772
O O8 0.500000 0.000000 0.622797
O O9 0.189645 0.049821 0.801938
O O10 0.000000 0.000000 0.872404
#
# Coordination Sequence:
#
# PCOD9529350 Si02
#       6
#     8   8   8  16  16   8
#     4   9  19  41  64  94 138 178 214 274 338 398
#     4   9  19  41  66  92 136 173 217 272 337 399
#     4  11  25  46  68  94 136 182 228 292 354 400
#     4   9  22  42  65  96 136 178 222 275 336 410
#     4  12  24  44  68 101 136 176 238 284 344 415
#     4  11  25  46  70  94 135 185 228 294 350 405
#
# _framework density 26.334173
#
# number of rings (size 3 to 8) (size 9 to 14) (size 15 to 20)
#    0.000    1.750    2.500    2.250    3.500    4.000 
#    4.500    2.500    0.000    0.000    0.000    0.000 
#    0.000    0.000    0.000    0.000    0.000    0.000 
#
# Total GULP energy -178998.581250 kJ/mol
# GULP energy per Si atom -5593.705664 kJ/mol
# Density = 2.627424 g / cm^3
# Si number density = 26.334173 Si / 1000 Ang^3
#
#
#
# Elastic Constant Matrix: (Units=GPa)
#
#
# Indices 1 2 3 4 5 6 
#
# 1 64.9194 77.3615 16.1025 0.0000 0.0000 0.0000
# 2 77.3615 167.1917 41.5521 0.0000 0.0000 0.0000
# 3 16.1025 41.5521 70.3441 0.0000 0.0000 0.0000
# 4 0.0000 0.0000 0.0000 29.8876 0.0000 0.0000
# 5 0.0000 0.0000 0.0000 0.0000 5.1241 0.0000
# 6 0.0000 0.0000 0.0000 0.0000 0.0000 43.2129
#
#
#
# Elastic Compliance Matrix: (Units=1/GPa)
#
#
# Indices 1 2 3 4 5 6 
#
# 1 0.034529 -0.016424 0.001797 0.000000 0.000000 0.000000
# 2 -0.016424 0.014822 -0.004996 0.000000 0.000000 0.000000
# 3 0.001797 -0.004996 0.016755 0.000000 0.000000 0.000000
# 4 0.000000 0.000000 0.000000 0.033459 0.000000 0.000000
# 5 0.000000 0.000000 0.000000 0.000000 0.195155 0.000000
# 6 0.000000 0.000000 0.000000 0.000000 0.000000 0.023141
#
#
# Mechanical properties :
#
#
# Convention : Reuss Voigt Hill
#
# Bulk Modulus (GPa) = 37.22670 63.60972 50.41821
# Shear Modulus (GPa) = 13.65890 26.80753 20.23322
#
# Velocity S-wave (km/s) = 2.27992 3.19403 2.77488
# Velocity P-wave (km/s) = 4.59322 6.14896 5.42713
#
# Compressibility (1/GPa) = 0.02686244
#
# Stress axis : x y z
#
# Youngs Moduli (GPa) = 28.96075 67.46596 59.68209
#
# Poissons Ratio (x) = 1.10805 -0.10727
# Poissons Ratio (y) = 0.47565 0.29816
# Poissons Ratio (z) = -0.05205 0.33705
#
# Static dielectric constant tensor:
#      x y z
#    x 2.096790 0.000000 0.000000 
#    y 0.000000 2.083010 0.000000 
#    z 0.000000 0.000000 2.156290 
# 
# From -- ./inp_files/51159.got.cif
#   From: 2010.05.17/outbox.cif.g08.bks.cpg/sg72_26_cif.got.tgz:51159.got - 2010.06.03 17:03:01.
