data_PCOD9529114
_publ_section_title
;
Structure prediction by ZEFSAII (Michael W. Deem and Ramdas Pophale) SiO2 
 PCOD9529114
Probable space group: I B A M
;
_chemical_formula_sum "Si O2"
_cell_formula_units_Z 80
_cell_length_a 11.592460
_cell_length_b 14.514702
_cell_length_c 20.546512
_cell_angle_alpha 90.000000
_cell_angle_beta 90.000000
_cell_angle_gamma 90.000000
_cell_volume 3457.178759
_symmetry_space_group_name_H-M "I B A M"
_symmetry_group_IT_number 72
_symmetry_cell_setting 'orthorhombic'
loop_
_space_group_symop_operation_xyz
x,y,z
-x,-y,z
x,-y,1/2-z
-x,y,1/2-z
-x,-y,-z
x,y,-z
-x,y,1/2+z
x,-y,1/2+z
1/2+x,1/2+y,1/2+z
1/2-x,1/2-y,1/2+z
1/2+x,1/2-y,-z
1/2-x,1/2+y,-z
1/2-x,1/2-y,1/2-z
1/2+x,1/2+y,1/2-z
1/2-x,1/2+y,z
1/2+x,1/2-y,z
loop_
_atom_site_type_symbol
_atom_site_label
_atom_site_fract_x
_atom_site_fract_y
_atom_site_fract_z
Si Si1 0.000000 0.500000 0.399979
Si Si2 0.595535 0.617376 0.500000
Si Si3 0.296000 0.966353 0.000000
Si Si4 0.806001 0.060723 0.692907
Si Si5 0.500000 0.500000 0.606455
Si Si6 0.295599 0.740765 0.500000
Si Si7 0.604125 0.181886 0.635560
Si Si8 0.500000 0.693043 0.750000
O O1 0.882834 0.486572 0.440880
O O2 0.986663 0.597967 0.366207
O O3 0.694999 0.540041 0.500000
O O4 0.519395 0.590493 0.562269
O O5 0.668731 0.709819 0.500000
O O6 0.238128 0.866390 0.000000
O O7 0.719504 0.128168 0.656907
O O8 0.901738 0.127293 0.722532
O O9 0.749634 0.000000 0.750000
O O10 0.882468 0.993883 0.647334
O O11 0.366121 0.773751 0.564674
O O12 0.557386 0.249600 0.691096
#
# Coordination Sequence:
#
# PCOD9529114 Si02
#       8
#     8   8   8  16   8   8  16   8
#     4  11  24  49  72 100 156 200 244 306 384 450
#     4  11  23  44  67 112 147 188 254 312 380 455
#     4  11  24  44  73 107 150 197 236 314 384 445
#     4  12  25  49  75 104 151 198 252 315 376 454
#     4  11  21  42  74  98 145 199 242 310 384 434
#     4  12  25  47  76 111 149 194 250 326 371 448
#     4  12  29  48  77 110 152 195 264 308 380 457
#     4  12  29  47  72 114 150 202 248 317 373 460
#
# _framework density 23.140255
#
# number of rings (size 3 to 8) (size 9 to 14) (size 15 to 20)
#    0.000    0.400    6.000    1.200    8.400    1.600 
#    3.600    0.000    0.000    0.000    0.000    0.000 
#    0.000    0.000    0.000    0.000    0.000    0.000 
#
# Total GULP energy -223796.567133 kJ/mol
# GULP energy per Si atom -5594.914178 kJ/mol
# Density = 2.308759 g / cm^3
# Si number density = 23.140255 Si / 1000 Ang^3
#
#
#
# Elastic Constant Matrix: (Units=GPa)
#
#
# Indices 1 2 3 4 5 6 
#
# 1 90.5045 54.4943 45.6490 0.0000 0.0000 0.0000
# 2 54.4943 113.9300 40.7057 0.0000 0.0000 0.0000
# 3 45.6490 40.7057 128.9845 0.0000 0.0000 0.0000
# 4 0.0000 0.0000 0.0000 -3.3476 0.0000 0.0000
# 5 0.0000 0.0000 0.0000 0.0000 -68.5993 0.0000
# 6 0.0000 0.0000 0.0000 0.0000 0.0000 21.2284
#
#
#
# Elastic Compliance Matrix: (Units=1/GPa)
#
#
# Indices 1 2 3 4 5 6 
#
# 1 0.017108 -0.006785 -0.003914 0.000000 0.000000 0.000000
# 2 -0.006785 0.012584 -0.001570 0.000000 0.000000 0.000000
# 3 -0.003914 -0.001570 0.009633 0.000000 0.000000 0.000000
# 4 0.000000 0.000000 0.000000 -0.298723 0.000000 0.000000
# 5 0.000000 0.000000 0.000000 0.000000 -0.014577 0.000000
# 6 0.000000 0.000000 0.000000 0.000000 0.000000 0.047107
#
#
# Mechanical properties :
#
#
# Convention : Reuss Voigt Hill
#
# Bulk Modulus (GPa) = 67.62049 68.34635 67.98342
# Shear Modulus (GPa) = -25.32904 2.69431 -11.31737
#
# Velocity S-wave (km/s) = -3.31204 1.08022 -2.21391
# Velocity P-wave (km/s) = 3.82874 5.58172 4.78617
#
# Compressibility (1/GPa) = 0.01478842
#
# Stress axis : x y z
#
# Youngs Moduli (GPa) = 58.45052 79.46874 103.80552
#
# Poissons Ratio (x) = 0.53919 0.40626
# Poissons Ratio (y) = 0.39658 0.16297
# Poissons Ratio (z) = 0.22875 0.12476
#
# Static dielectric constant tensor:
#      x y z
#    x -12.635940 0.000000 0.000000 
#    y 0.000000 1.816320 0.000000 
#    z 0.000000 0.000000 2.008830 
# 
# From -- ./inp_files/43196.got.cif
#   From: 2010.05.17/outbox.cif.g08.bks.cpg/sg72_22_cif.got.tgz:43196.got - 2010.06.03 17:03:01.
