data_PCOD9529053
_publ_section_title
;
Structure prediction by ZEFSAII (Michael W. Deem and Ramdas Pophale) SiO2 
 PCOD9529053
Probable space group: I B A M
;
_chemical_formula_sum "Si O2"
_cell_formula_units_Z 80
_cell_length_a 14.365895
_cell_length_b 29.288456
_cell_length_c 8.220902
_cell_angle_alpha 90.000000
_cell_angle_beta 90.000000
_cell_angle_gamma 90.000000
_cell_volume 3458.984664
_symmetry_space_group_name_H-M "I B A M"
_symmetry_group_IT_number 72
_symmetry_cell_setting 'orthorhombic'
loop_
_space_group_symop_operation_xyz
x,y,z
-x,-y,z
x,-y,1/2-z
-x,y,1/2-z
-x,-y,-z
x,y,-z
-x,y,1/2+z
x,-y,1/2+z
1/2+x,1/2+y,1/2+z
1/2-x,1/2-y,1/2+z
1/2+x,1/2-y,-z
1/2-x,1/2+y,-z
1/2-x,1/2-y,1/2-z
1/2+x,1/2+y,1/2-z
1/2-x,1/2+y,z
1/2+x,1/2-y,z
loop_
_atom_site_type_symbol
_atom_site_label
_atom_site_fract_x
_atom_site_fract_y
_atom_site_fract_z
Si Si1 0.171966 0.853224 0.193915
Si Si2 0.099072 0.562845 0.315966
Si Si3 0.122312 0.341174 0.310131
Si Si4 0.692737 0.549609 0.309934
Si Si5 0.643045 0.256104 0.304806
O O1 0.265793 0.845996 0.297242
O O2 0.146046 0.905772 0.227302
O O3 0.112764 0.807744 0.238165
O O4 0.191983 0.849781 0.000000
O O5 0.111911 0.547543 0.500000
O O6 0.091234 0.617672 0.303317
O O7 0.194925 0.551516 0.223341
O O8 0.000000 0.546476 0.250000
O O9 0.096273 0.347741 0.500000
O O10 0.097823 0.290900 0.244452
O O11 0.660456 0.500000 0.250000
O O12 0.677273 0.553541 0.500000
O O13 0.638803 0.252560 0.500000
O O14 0.750000 0.250000 0.250000
#
# Coordination Sequence:
#
# PCOD9529053 Si02
#       5
#    16  16  16  16  16
#     4   9  15  25  39  57  77  98 121 150 185 225
#     4  11  21  33  45  58  74  97 128 165 202 237
#     4   9  15  25  39  57  77  98 121 150 185 225
#     4  11  21  33  45  58  74  97 128 165 202 237
#     4   8  14  22  36  56  78  98 118 143 178 221
#
# _framework density 23.128174000000001
#
# number of rings (size 3 to 8) (size 9 to 14) (size 15 to 20)
#    0.000    2.400    0.000    7.200    0.000    2.000 
#    0.000    2.000    0.000    0.000    0.000    0.000 
#    0.000    0.000    0.000    0.000    0.000    1.000 
#
# Total GULP energy -222911.170990 kJ/mol
# GULP energy per Si atom -5572.779275 kJ/mol
# Density = 2.307553 g / cm^3
# Si number density = 23.128174 Si / 1000 Ang^3
#
#
#
# Elastic Constant Matrix: (Units=GPa)
#
#
# Indices 1 2 3 4 5 6 
#
# 1 23.3232 2.8586 -6.4084 -0.0001 -0.0001 0.0001
# 2 2.8586 242.6464 18.5691 -0.0008 -0.0003 -0.0002
# 3 -6.4084 18.5691 70.8023 -0.0023 -0.0021 -0.0002
# 4 -0.0001 -0.0008 -0.0023 53.7045 -0.0004 0.0011
# 5 -0.0001 -0.0003 -0.0021 -0.0004 2.3434 0.0000
# 6 0.0001 -0.0002 -0.0002 0.0011 0.0000 -28.0814
#
#
#
# Elastic Compliance Matrix: (Units=1/GPa)
#
#
# Indices 1 2 3 4 5 6 
#
# 1 0.044137 -0.000843 0.004216 0.000000 0.000006 0.000000
# 2 -0.000843 0.004222 -0.001183 0.000000 -0.000001 0.000000
# 3 0.004216 -0.001183 0.014816 0.000001 0.000014 0.000000
# 4 0.000000 0.000000 0.000001 0.018620 0.000003 0.000001
# 5 0.000006 -0.000001 0.000014 0.000003 0.426733 -0.000001
# 6 0.000000 0.000000 0.000000 0.000001 -0.000001 -0.035611
#
#
# Mechanical properties :
#
#
# Convention : Reuss Voigt Hill
#
# Bulk Modulus (GPa) = 14.80283 40.75672 27.77978
# Shear Modulus (GPa) = 10.18214 27.04347 18.61280
#
# Velocity S-wave (km/s) = 2.10049 3.42319 2.83992
# Velocity P-wave (km/s) = 3.50670 5.76929 4.77397
#
# Compressibility (1/GPa) = 0.06755465
#
# Stress axis : x y z
#
# Youngs Moduli (GPa) = 22.65649 236.87030 67.49545
#
# Poissons Ratio (x) = 0.19959 -0.28456
# Poissons Ratio (y) = 0.01909 0.07988
# Poissons Ratio (z) = -0.09552 0.28033
#
# Static dielectric constant tensor:
#      x y z
#    x 1.932500 0.000000 0.000000 
#    y 0.000000 2.003930 0.000000 
#    z 0.000000 0.000000 1.788330 
# 
# From -- ./inp_files/6250.got.cif
#   From: 2010.05.17/outbox.cif.g08.bks.cpg/sg72_4_cif.got.tgz:6250.got - 2010.06.03 17:03:01.
