data_PCOD9529463
_publ_section_title
;
Structure prediction by ZEFSAII (Michael W. Deem and Ramdas Pophale) SiO2 
 PCOD9529463
Probable space group: I B A M
;
_chemical_formula_sum "Si O2"
_cell_formula_units_Z 52
_cell_length_a 13.470554
_cell_length_b 7.445790
_cell_length_c 21.107344
_cell_angle_alpha 90.000000
_cell_angle_beta 90.000000
_cell_angle_gamma 90.000000
_cell_volume 2117.043728
_symmetry_space_group_name_H-M "I B A M"
_symmetry_group_IT_number 72
_symmetry_cell_setting 'orthorhombic'
loop_
_space_group_symop_operation_xyz
x,y,z
-x,-y,z
x,-y,1/2-z
-x,y,1/2-z
-x,-y,-z
x,y,-z
-x,y,1/2+z
x,-y,1/2+z
1/2+x,1/2+y,1/2+z
1/2-x,1/2-y,1/2+z
1/2+x,1/2-y,-z
1/2-x,1/2+y,-z
1/2-x,1/2-y,1/2-z
1/2+x,1/2+y,1/2-z
1/2-x,1/2+y,z
1/2+x,1/2-y,z
loop_
_atom_site_type_symbol
_atom_site_label
_atom_site_fract_x
_atom_site_fract_y
_atom_site_fract_z
Si Si1 0.709733 0.037477 0.500000
Si Si2 0.436791 0.815981 0.601447
Si Si3 0.363905 0.789145 0.260703
Si Si4 0.000000 0.000000 0.750000
Si Si5 0.415501 0.672463 0.000000
O O1 0.660808 0.133803 0.560736
O O2 0.828813 0.024864 0.500000
O O3 0.656407 0.845397 0.500000
O O4 0.396193 0.745540 0.667678
O O5 0.511106 0.693890 0.559874
O O6 0.500000 0.000000 0.611496
O O7 0.250000 0.750000 0.250000
O O8 0.424769 0.645557 0.218831
O O9 0.384269 0.000000 0.250000
#
# Coordination Sequence:
#
# PCOD9529463 Si02
#       5
#     8  16  16   4   8
#     4   9  19  37  66  94 130 176 225 280 355 427
#     4   9  20  41  67  94 138 184 227 294 358 429
#     4  12  26  48  74 106 146 195 250 302 369 441
#     4  12  26  48  72 106 144 192 246 308 372 430
#     4   9  19  41  64 100 134 177 230 287 367 417
#
# _framework density 24.562552
#
# number of rings (size 3 to 8) (size 9 to 14) (size 15 to 20)
#    0.000    1.846    1.538    4.154    0.000    7.385 
#    5.538    1.538    0.000    0.000    0.000    0.000 
#    0.000    0.000    0.000    0.000    0.000    0.000 
#
# Total GULP energy -145270.671471 kJ/mol
# GULP energy per Si atom -5587.333518 kJ/mol
# Density = 2.450665 g / cm^3
# Si number density = 24.562552 Si / 1000 Ang^3
#
#
#
# Elastic Constant Matrix: (Units=GPa)
#
#
# Indices 1 2 3 4 5 6 
#
# 1 240.8699 64.2747 67.2343 0.0000 0.0000 0.0000
# 2 64.2747 180.8047 18.2863 0.0000 0.0000 0.0000
# 3 67.2343 18.2863 145.2521 0.0000 0.0000 0.0000
# 4 0.0000 0.0000 0.0000 7.7558 0.0000 0.0000
# 5 0.0000 0.0000 0.0000 0.0000 22.8488 0.0000
# 6 0.0000 0.0000 0.0000 0.0000 0.0000 51.5476
#
#
#
# Elastic Compliance Matrix: (Units=1/GPa)
#
#
# Indices 1 2 3 4 5 6 
#
# 1 0.005200 -0.001626 -0.002202 0.000000 0.000000 0.000000
# 2 -0.001626 0.006111 -0.000017 0.000000 0.000000 0.000000
# 3 -0.002202 -0.000017 0.007906 0.000000 0.000000 0.000000
# 4 0.000000 0.000000 0.000000 0.128936 0.000000 0.000000
# 5 0.000000 0.000000 0.000000 0.000000 0.043766 0.000000
# 6 0.000000 0.000000 0.000000 0.000000 0.000000 0.019400
#
#
# Mechanical properties :
#
#
# Convention : Reuss Voigt Hill
#
# Bulk Modulus (GPa) = 86.75336 96.27970 91.51653
# Shear Modulus (GPa) = 22.43656 44.23919 33.33787
#
# Velocity S-wave (km/s) = 3.02561 4.24852 3.68810
# Velocity P-wave (km/s) = 6.89940 7.95924 7.44819
#
# Compressibility (1/GPa) = 0.01152693
#
# Stress axis : x y z
#
# Youngs Moduli (GPa) = 192.29884 163.65245 126.48416
#
# Poissons Ratio (x) = 0.26608 0.27857
# Poissons Ratio (y) = 0.31266 0.00211
# Poissons Ratio (z) = 0.42352 0.00273
#
# Static dielectric constant tensor:
#      x y z
#    x 1.955290 0.000000 0.000000 
#    y 0.000000 2.098650 0.000000 
#    z 0.000000 0.000000 2.046090 
# 
# From -- ./inp_files/37604.got.cif
#   From: 2010.05.17/outbox.cif.g08.bks.cpg/sg72_19_cif.got.tgz:37604.got - 2010.06.03 17:03:01.
