data_PCOD9529011
_publ_section_title
;
Structure prediction by ZEFSAII (Michael W. Deem and Ramdas Pophale) SiO2 
 PCOD9529011
Probable space group: I B A M
;
_chemical_formula_sum "Si O2"
_cell_formula_units_Z 128
_cell_length_a 17.555250
_cell_length_b 22.760814
_cell_length_c 17.750708
_cell_angle_alpha 90.000000
_cell_angle_beta 90.000000
_cell_angle_gamma 90.000000
_cell_volume 7092.681991
_symmetry_space_group_name_H-M "I B A M"
_symmetry_group_IT_number 72
_symmetry_cell_setting 'orthorhombic'
loop_
_space_group_symop_operation_xyz
x,y,z
-x,-y,z
x,-y,1/2-z
-x,y,1/2-z
-x,-y,-z
x,y,-z
-x,y,1/2+z
x,-y,1/2+z
1/2+x,1/2+y,1/2+z
1/2-x,1/2-y,1/2+z
1/2+x,1/2-y,-z
1/2-x,1/2+y,-z
1/2-x,1/2-y,1/2-z
1/2+x,1/2+y,1/2-z
1/2-x,1/2+y,z
1/2+x,1/2-y,z
loop_
_atom_site_type_symbol
_atom_site_label
_atom_site_fract_x
_atom_site_fract_y
_atom_site_fract_z
Si Si1 0.395415 0.256461 0.915001
Si Si2 0.967503 0.787989 0.166964
Si Si3 0.752752 0.695275 0.146345
Si Si4 0.408837 0.012158 0.083891
Si Si5 0.851875 0.631159 0.349384
Si Si6 0.088150 0.669062 0.411909
Si Si7 0.424602 0.076430 0.704345
Si Si8 0.194820 0.825758 0.306743
O O1 0.456743 0.301292 0.880288
O O2 0.313522 0.286622 0.910064
O O3 0.387132 0.195160 0.868739
O O4 0.415509 0.241180 0.000000
O O5 0.938077 0.730877 0.121996
O O6 0.894870 0.831131 0.174515
O O7 0.000000 0.773820 0.250000
O O8 0.822002 0.662544 0.106399
O O9 0.787459 0.756942 0.176927
O O10 0.713842 0.665154 0.218678
O O11 0.382929 0.079066 0.097855
O O12 0.500000 0.000000 0.084200
O O13 0.383562 0.975482 0.158161
O O14 0.382392 0.993249 0.000000
O O15 0.874417 0.612120 0.264486
O O16 0.759938 0.639128 0.352204
O O17 0.073666 0.664134 0.500000
O O18 0.048635 0.619995 0.361693
O O19 0.500000 0.059246 0.750000
#
# Coordination Sequence:
#
# PCOD9529011 Si02
#       8
#    16  16  16  16  16  16  16  16
#     4  11  21  33  51  77 106 142 183 220 264 312
#     4  11  20  32  50  72 105 139 179 225 262 308
#     4   9  17  32  49  71 103 136 177 223 261 308
#     4  11  24  39  53  75 107 136 172 223 266 306
#     4  11  21  37  57  73 101 144 184 217 256 318
#     4  11  21  32  48  74 106 143 180 219 265 312
#     4  12  22  35  53  75 101 138 176 221 261 309
#     4   9  18  33  52  74  95 136 184 219 259 311
#
# _framework density 18.046769999999999
#
# number of rings (size 3 to 8) (size 9 to 14) (size 15 to 20)
#    0.000    1.375    3.750    3.750    0.000    0.000 
#    0.000    1.875    0.000    0.000    0.000    0.000 
#    0.000    7.000    0.000    7.125    0.000    0.000 
#
# Total GULP energy -356747.953508 kJ/mol
# GULP energy per Si atom -5574.186774 kJ/mol
# Density = 1.800570 g / cm^3
# Si number density = 18.046770 Si / 1000 Ang^3
#
#
#
# Elastic Constant Matrix: (Units=GPa)
#
#
# Indices 1 2 3 4 5 6 
#
# 1 85.0490 14.3500 44.2782 0.0000 0.0000 0.0000
# 2 14.3500 35.0237 22.5601 0.0000 0.0000 0.0000
# 3 44.2782 22.5601 118.8755 -0.0001 0.0000 0.0000
# 4 0.0000 0.0000 -0.0001 12.8912 0.0000 0.0000
# 5 0.0000 0.0000 0.0000 0.0000 19.3537 0.0000
# 6 0.0000 0.0000 0.0000 0.0000 0.0000 17.0805
#
#
#
# Elastic Compliance Matrix: (Units=1/GPa)
#
#
# Indices 1 2 3 4 5 6 
#
# 1 0.014835 -0.002870 -0.004981 0.000000 0.000000 0.000000
# 2 -0.002870 0.033084 -0.005210 0.000000 0.000000 0.000000
# 3 -0.004981 -0.005210 0.011256 0.000000 0.000000 0.000000
# 4 0.000000 0.000000 0.000000 0.077572 0.000000 0.000000
# 5 0.000000 0.000000 0.000000 0.000000 0.051670 0.000000
# 6 0.000000 0.000000 0.000000 0.000000 0.000000 0.058546
#
#
# Mechanical properties :
#
#
# Convention : Reuss Voigt Hill
#
# Bulk Modulus (GPa) = 30.25358 44.59167 37.42262
# Shear Modulus (GPa) = 17.59926 20.38241 18.99084
#
# Velocity S-wave (km/s) = 3.12621 3.36433 3.24746
# Velocity P-wave (km/s) = 5.46180 6.31302 5.90278
#
# Compressibility (1/GPa) = 0.03305394
#
# Stress axis : x y z
#
# Youngs Moduli (GPa) = 67.40607 30.22638 88.83969
#
# Poissons Ratio (x) = 0.08675 0.44253
# Poissons Ratio (y) = 0.19345 0.46282
# Poissons Ratio (z) = 0.33576 0.15747
#
# Static dielectric constant tensor:
#      x y z
#    x 1.683390 0.000000 0.000000 
#    y 0.000000 1.638930 0.000000 
#    z 0.000000 0.000000 1.671850 
# 
# From -- ./inp_files/32080.got.cif
#   From: 2010.05.17/outbox.cif.g08.bks.cpg/sg72_17_cif.got.tgz:32080.got - 2010.06.03 17:03:01.
