data_PCOD9529358
_publ_section_title
;
Structure prediction by ZEFSAII (Michael W. Deem and Ramdas Pophale) SiO2 
 PCOD9529358
Probable space group: I B A M
;
_chemical_formula_sum "Si O2"
_cell_formula_units_Z 104
_cell_length_a 9.089464
_cell_length_b 19.617369
_cell_length_c 26.145441
_cell_angle_alpha 90.000000
_cell_angle_beta 90.000000
_cell_angle_gamma 90.000000
_cell_volume 4662.029386
_symmetry_space_group_name_H-M "I B A M"
_symmetry_group_IT_number 72
_symmetry_cell_setting 'orthorhombic'
loop_
_space_group_symop_operation_xyz
x,y,z
-x,-y,z
x,-y,1/2-z
-x,y,1/2-z
-x,-y,-z
x,y,-z
-x,y,1/2+z
x,-y,1/2+z
1/2+x,1/2+y,1/2+z
1/2-x,1/2-y,1/2+z
1/2+x,1/2-y,-z
1/2-x,1/2+y,-z
1/2-x,1/2-y,1/2-z
1/2+x,1/2+y,1/2-z
1/2-x,1/2+y,z
1/2+x,1/2-y,z
loop_
_atom_site_type_symbol
_atom_site_label
_atom_site_fract_x
_atom_site_fract_y
_atom_site_fract_z
Si Si1 0.150990 0.365024 0.500000
Si Si2 0.588178 0.714131 0.000000
Si Si3 0.651362 0.527717 0.913539
Si Si4 0.773391 0.604065 0.615737
Si Si5 0.032289 0.581789 0.308015
Si Si6 0.784448 0.838481 0.359120
Si Si7 0.817716 0.590034 0.000000
Si Si8 0.940592 0.226342 0.389190
O O1 0.178726 0.284274 0.500000
O O2 0.207344 0.393160 0.553994
O O3 0.976723 0.378137 0.500000
O O4 0.496704 0.716402 0.052608
O O5 0.693797 0.648781 0.000000
O O6 0.500000 0.500000 0.937860
O O7 0.698773 0.469168 0.874329
O O8 0.630720 0.601876 0.889658
O O9 0.785421 0.542479 0.951666
O O10 0.669478 0.666957 0.627613
O O11 0.921245 0.608705 0.648297
O O12 0.191947 0.615060 0.319572
O O13 0.000000 0.500000 0.310326
O O14 0.000000 0.602608 0.250000
O O15 0.655315 0.795346 0.386858
O O16 0.915213 0.782838 0.352909
#
# Coordination Sequence:
#
# PCOD9529358 Si02
#       8
#     8   8  16  16  16  16   8  16
#     4  12  28  39  65 102 146 191 232 296 356 423
#     4  12  23  39  59  95 145 189 244 269 350 420
#     4  12  23  42  66  98 141 188 234 305 352 419
#     4  12  25  45  70 105 145 182 245 289 363 428
#     4  11  25  47  77 106 139 185 238 301 361 428
#     4  12  24  46  69 102 141 180 241 290 359 421
#     4  12  24  38  59  93 138 192 244 287 348 421
#     4  12  26  43  72 103 144 197 232 298 353 430
#
# _framework density 22.307881999999999
#
# number of rings (size 3 to 8) (size 9 to 14) (size 15 to 20)
#    0.000    0.154    4.615    5.769    2.154    0.615 
#    0.000    3.846    0.000    2.769    0.000    0.000 
#    0.000    0.000    0.000    0.000    0.000    0.000 
#
# Total GULP energy -290241.286272 kJ/mol
# GULP energy per Si atom -5581.563198 kJ/mol
# Density = 2.225711 g / cm^3
# Si number density = 22.307882 Si / 1000 Ang^3
#
#
#
# Elastic Constant Matrix: (Units=GPa)
#
#
# Indices 1 2 3 4 5 6 
#
# 1 108.2933 37.9804 25.9482 0.0000 0.0000 0.0000
# 2 37.9804 139.7733 14.7183 0.0000 0.0000 0.0000
# 3 25.9482 14.7183 59.6974 0.0000 0.0000 0.0000
# 4 0.0000 0.0000 0.0000 49.1800 0.0000 0.0000
# 5 0.0000 0.0000 0.0000 0.0000 -48.4213 0.0000
# 6 0.0000 0.0000 0.0000 0.0000 0.0000 45.5918
#
#
#
# Elastic Compliance Matrix: (Units=1/GPa)
#
#
# Indices 1 2 3 4 5 6 
#
# 1 0.011150 -0.002587 -0.004209 0.000000 0.000000 0.000000
# 2 -0.002587 0.007945 -0.000835 0.000000 0.000000 0.000000
# 3 -0.004209 -0.000835 0.018786 0.000000 0.000000 0.000000
# 4 0.000000 0.000000 0.000000 0.020333 0.000000 0.000000
# 5 0.000000 0.000000 0.000000 0.000000 -0.020652 0.000000
# 6 0.000000 0.000000 0.000000 0.000000 0.000000 0.021934
#
#
# Mechanical properties :
#
#
# Convention : Reuss Voigt Hill
#
# Bulk Modulus (GPa) = 44.20557 51.67308 47.93932
# Shear Modulus (GPa) = 60.75594 24.54457 42.65025
#
# Velocity S-wave (km/s) = 5.22440 3.32062 4.37726
# Velocity P-wave (km/s) = 7.50010 6.15759 6.86176
#
# Compressibility (1/GPa) = 0.02262158
#
# Stress axis : x y z
#
# Youngs Moduli (GPa) = 89.68801 125.86278 53.23042
#
# Poissons Ratio (x) = 0.32555 0.22403
# Poissons Ratio (y) = 0.23198 0.04443
# Poissons Ratio (z) = 0.37747 0.10504
#
# Static dielectric constant tensor:
#      x y z
#    x 1.846090 0.000000 0.000000 
#    y 0.000000 1.860500 0.000000 
#    z 0.000000 0.000000 1.894510 
# 
# From -- ./inp_files/47441.got.cif
#   From: 2010.05.17/outbox.cif.g08.bks.cpg/sg72_24_cif.got.tgz:47441.got - 2010.06.03 17:03:01.
