data_PCOD9529680
_publ_section_title
;
Structure prediction by ZEFSAII (Michael W. Deem and Ramdas Pophale) SiO2 
 PCOD9529680
Probable space group: I B C A 
;
_chemical_formula_sum "Si O2"
_cell_formula_units_Z 96
_cell_length_a 15.526654
_cell_length_b 15.836851
_cell_length_c 20.594423
_cell_angle_alpha 90.000000
_cell_angle_beta 90.000000
_cell_angle_gamma 90.000000
_cell_volume 5064.030755
_symmetry_space_group_name_H-M "I B C A "
_symmetry_group_IT_number 73
_symmetry_cell_setting 'orthorhombic'
loop_
_space_group_symop_operation_xyz
x,y,z
-x,1/2-y,z
x,-y,1/2-z
1/2-x,y,-z
-x,-y,-z
x,1/2+y,-z
-x,y,1/2+z
1/2+x,-y,z
1/2+x,1/2+y,1/2+z
1/2-x,-y,1/2+z
1/2+x,1/2-y,-z
-x,1/2+y,1/2-z
1/2-x,1/2-y,1/2-z
1/2+x,y,1/2-z
1/2-x,1/2+y,z
x,1/2-y,1/2+z
loop_
_atom_site_type_symbol
_atom_site_label
_atom_site_fract_x
_atom_site_fract_y
_atom_site_fract_z
Si Si1 0.555445 0.111794 0.344505
Si Si2 0.675507 0.183624 0.732320
Si Si3 0.000000 0.250000 0.761747
Si Si4 0.406648 0.754301 0.539258
Si Si5 0.250000 0.850712 0.500000
Si Si6 0.762050 0.051926 0.634841
Si Si7 0.868646 0.600089 0.869394
O O1 0.535368 0.171789 0.282781
O O2 0.576682 0.180410 0.400891
O O3 0.638455 0.051484 0.341074
O O4 0.466419 0.064832 0.362628
O O5 0.750000 0.250000 0.750000
O O6 0.586889 0.220622 0.702585
O O7 0.713667 0.111968 0.686190
O O8 0.647756 0.148565 0.802289
O O9 0.500000 0.750000 0.506683
O O10 0.333578 0.792216 0.494396
O O11 0.374704 0.667426 0.572088
O O12 0.239343 0.905647 0.435841
O O13 0.707818 0.966723 0.627028
#
# Coordination Sequence:
#
# PCOD9529680 Si02
#       7
#    16  16   8  16   8  16  16
#     4   9  16  36  61  77 107 156 191 212 285 371
#     4  11  19  36  59  85 113 148 191 230 285 349
#     4  10  16  34  62  80 106 152 194 222 272 362
#     4   9  16  36  61  76  99 151 202 220 270 362
#     4  10  22  38  56  78 114 156 192 238 276 338
#     4  11  22  37  54  87 120 146 185 246 290 332
#     4  10  20  36  60  85 107 146 189 240 294 342
#
# _framework density 18.957229999999999
#
# number of rings (size 3 to 8) (size 9 to 14) (size 15 to 20)
#    0.000    2.000    5.833    1.500    0.000    0.667 
#    4.500   10.833    0.000    0.000    0.000    0.000 
#    0.000    0.000    0.000    0.000    0.000    0.000 
#
# Total GULP energy -267399.202656 kJ/mol
# GULP energy per Si atom -5570.816722 kJ/mol
# Density = 1.891408 g / cm^3
# Si number density = 18.957230 Si / 1000 Ang^3
#
#
#
# Elastic Constant Matrix: (Units=GPa)
#
#
# Indices 1 2 3 4 5 6 
#
# 1 173.8187 58.4736 6.7176 0.0000 0.0000 0.0000
# 2 58.4736 64.5413 0.3083 0.0000 0.0000 0.0000
# 3 6.7176 0.3083 21.9480 0.0000 0.0000 0.0000
# 4 0.0000 0.0000 0.0000 13.6011 0.0000 0.0000
# 5 0.0000 0.0000 0.0000 0.0000 22.8960 0.0000
# 6 0.0000 0.0000 0.0000 0.0000 0.0000 59.4308
#
#
#
# Elastic Compliance Matrix: (Units=1/GPa)
#
#
# Indices 1 2 3 4 5 6 
#
# 1 0.008407 -0.007605 -0.002466 0.000000 0.000000 0.000000
# 2 -0.007605 0.022374 0.002013 0.000000 0.000000 0.000000
# 3 -0.002466 0.002013 0.046289 0.000000 0.000000 0.000000
# 4 0.000000 0.000000 0.000000 0.073523 0.000000 0.000000
# 5 0.000000 0.000000 0.000000 0.000000 0.043676 0.000000
# 6 0.000000 0.000000 0.000000 0.000000 0.000000 0.016826
#
#
# Mechanical properties :
#
#
# Convention : Reuss Voigt Hill
#
# Bulk Modulus (GPa) = 16.40570 43.47854 29.94212
# Shear Modulus (GPa) = 20.19973 32.17281 26.18627
#
# Velocity S-wave (km/s) = 3.26781 4.12409 3.72066
# Velocity P-wave (km/s) = 4.78654 6.75739 5.85548
#
# Compressibility (1/GPa) = 0.06095444
#
# Stress axis : x y z
#
# Youngs Moduli (GPa) = 118.95359 44.69483 21.60347
#
# Poissons Ratio (x) = 0.33988 0.05328
# Poissons Ratio (y) = 0.90459 -0.04349
# Poissons Ratio (z) = 0.29336 -0.08998
#
# Static dielectric constant tensor:
#      x y z
#    x 1.744120 0.000000 0.000000 
#    y 0.000000 1.685470 0.000000 
#    z 0.000000 0.000000 1.634360 
# 
# From -- ./inp_files/26016.got.cif
#   From: 2010.05.17/outbox.cif.g08.bks.cpg/sg73_14_cif.got.tgz:26016.got - 2010.06.03 17:35:07.
