data_PCOD9529421
_publ_section_title
;
Structure prediction by ZEFSAII (Michael W. Deem and Ramdas Pophale) SiO2 
 PCOD9529421
Probable space group: I B A M
;
_chemical_formula_sum "Si O2"
_cell_formula_units_Z 104
_cell_length_a 9.056120
_cell_length_b 28.504878
_cell_length_c 20.678941
_cell_angle_alpha 90.000000
_cell_angle_beta 90.000000
_cell_angle_gamma 90.000000
_cell_volume 5338.136186
_symmetry_space_group_name_H-M "I B A M"
_symmetry_group_IT_number 72
_symmetry_cell_setting 'orthorhombic'
loop_
_space_group_symop_operation_xyz
x,y,z
-x,-y,z
x,-y,1/2-z
-x,y,1/2-z
-x,-y,-z
x,y,-z
-x,y,1/2+z
x,-y,1/2+z
1/2+x,1/2+y,1/2+z
1/2-x,1/2-y,1/2+z
1/2+x,1/2-y,-z
1/2-x,1/2+y,-z
1/2-x,1/2-y,1/2-z
1/2+x,1/2+y,1/2-z
1/2-x,1/2+y,z
1/2+x,1/2-y,z
loop_
_atom_site_type_symbol
_atom_site_label
_atom_site_fract_x
_atom_site_fract_y
_atom_site_fract_z
Si Si1 0.673537 0.698997 0.245335
Si Si2 0.231113 0.048206 0.000000
Si Si3 0.468258 0.052603 0.113273
Si Si4 0.974530 0.125387 0.000000
Si Si5 0.134313 0.195566 0.397693
Si Si6 0.529433 0.209758 0.926370
Si Si7 0.409514 0.144488 0.185323
Si Si8 0.793562 0.557648 0.000000
O O1 0.500000 0.706121 0.250000
O O2 0.750000 0.750000 0.250000
O O3 0.685456 0.678876 0.172915
O O4 0.746872 0.664092 0.297217
O O5 0.329940 0.054802 0.935873
O O6 0.102149 0.086524 0.000000
O O7 0.205717 0.991917 0.000000
O O8 0.436325 0.090161 0.168731
O O9 0.500000 0.000000 0.137798
O O10 0.604665 0.061653 0.063811
O O11 0.962818 0.158633 0.937493
O O12 0.820330 0.098821 0.000000
O O13 0.292857 0.208377 0.428584
O O14 0.034502 0.242147 0.397024
O O15 0.469193 0.170315 0.878379
O O16 0.474554 0.204324 0.000000
O O17 0.500000 0.157699 0.250000
#
# Coordination Sequence:
#
# PCOD9529421 Si02
#       8
#    16   8  16   8  16  16  16   8
#     4  12  25  44  63  88 132 181 228 269 322 404
#     4   9  21  39  65  95 126 163 208 264 347 399
#     4   9  21  42  67  96 124 159 214 276 330 392
#     4  12  23  36  62  96 130 164 211 266 334 398
#     4  12  25  40  60  90 130 174 221 275 327 390
#     4  12  24  42  59  92 129 175 222 276 331 387
#     4  12  25  41  67  93 126 177 220 261 339 402
#     4   9  19  41  65  93 130 163 206 276 331 403
#
# _framework density 19.482455000000002
#
# number of rings (size 3 to 8) (size 9 to 14) (size 15 to 20)
#    0.000    0.923    4.615    3.462    4.308    0.308 
#    0.000    0.000    0.000    0.000    0.000    1.077 
#    0.000    0.000    0.000    0.000    0.000    0.000 
#
# Total GULP energy -290259.313994 kJ/mol
# GULP energy per Si atom -5581.909884 kJ/mol
# Density = 1.943811 g / cm^3
# Si number density = 19.482455 Si / 1000 Ang^3
#
#
#
# Elastic Constant Matrix: (Units=GPa)
#
#
# Indices 1 2 3 4 5 6 
#
# 1 86.8640 40.3547 6.4558 0.0000 0.0000 0.0000
# 2 40.3547 116.2052 22.4965 0.0000 0.0000 0.0000
# 3 6.4558 22.4965 65.5021 0.0001 0.0000 0.0000
# 4 0.0000 0.0000 0.0001 30.1475 0.0000 0.0000
# 5 0.0000 0.0000 0.0000 0.0000 93.2823 0.0000
# 6 0.0000 0.0000 0.0000 0.0000 0.0000 31.2848
#
#
#
# Elastic Compliance Matrix: (Units=1/GPa)
#
#
# Indices 1 2 3 4 5 6 
#
# 1 0.013733 -0.004828 0.000305 0.000000 0.000000 0.000000
# 2 -0.004828 0.010916 -0.003273 0.000000 0.000000 0.000000
# 3 0.000305 -0.003273 0.016361 0.000000 0.000000 0.000000
# 4 0.000000 0.000000 0.000000 0.033170 0.000000 0.000000
# 5 0.000000 0.000000 0.000000 0.000000 0.010720 0.000000
# 6 0.000000 0.000000 0.000000 0.000000 0.000000 0.031964
#
#
# Mechanical properties :
#
#
# Convention : Reuss Voigt Hill
#
# Bulk Modulus (GPa) = 39.34480 45.24281 42.29381
# Shear Modulus (GPa) = 35.47891 44.22718 39.85305
#
# Velocity S-wave (km/s) = 4.27203 4.76973 4.52772
# Velocity P-wave (km/s) = 6.67626 7.32165 7.00639
#
# Compressibility (1/GPa) = 0.02541632
#
# Stress axis : x y z
#
# Youngs Moduli (GPa) = 72.81982 91.61101 61.12165
#
# Poissons Ratio (x) = 0.44229 -0.01862
# Poissons Ratio (y) = 0.35157 0.20006
# Poissons Ratio (z) = -0.02219 0.29986
#
# Static dielectric constant tensor:
#      x y z
#    x 1.712270 0.000000 0.000000 
#    y 0.000000 1.706520 0.000000 
#    z 0.000000 0.000000 1.623490 
# 
# From -- ./inp_files/36178.got.cif
#   From: 2010.05.17/outbox.cif.g08.bks.cpg/sg72_19_cif.got.tgz:36178.got - 2010.06.03 17:03:01.
