data_PCOD9529504
_publ_section_title
;
Structure prediction by ZEFSAII (Michael W. Deem and Ramdas Pophale) SiO2 
 PCOD9529504
Probable space group: I B A M
;
_chemical_formula_sum "Si O2"
_cell_formula_units_Z 56
_cell_length_a 15.000000
_cell_length_b 27.000000
_cell_length_c 15.000000
_cell_angle_alpha 90.000000
_cell_angle_beta 90.000000
_cell_angle_gamma 90.000000
_cell_volume 6075.000000
_symmetry_space_group_name_H-M "I B A M"
_symmetry_group_IT_number 72
_symmetry_cell_setting 'orthorhombic'
loop_
_space_group_symop_operation_xyz
x,y,z
-x,-y,z
x,-y,1/2-z
-x,y,1/2-z
-x,-y,-z
x,y,-z
-x,y,1/2+z
x,-y,1/2+z
1/2+x,1/2+y,1/2+z
1/2-x,1/2-y,1/2+z
1/2+x,1/2-y,-z
1/2-x,1/2+y,-z
1/2-x,1/2-y,1/2-z
1/2+x,1/2+y,1/2-z
1/2-x,1/2+y,z
1/2+x,1/2-y,z
loop_
_atom_site_type_symbol
_atom_site_label
_atom_site_fract_x
_atom_site_fract_y
_atom_site_fract_z
Si Si1 0.679327 0.410490 0.096255
Si Si2 0.557375 0.696437 0.103106
Si Si3 0.398139 0.517221 0.600165
Si Si4 0.319883 0.842079 0.594496
Si Si5 0.103592 0.718977 0.229700
Si Si6 0.851206 0.230626 0.598062
Si Si7 0.596974 0.602019 0.222255
O O1 0.658439 0.467705 0.103050
O O2 0.782072 0.397026 0.092616
O O3 0.643073 0.385865 0.185479
O O4 0.638793 0.393793 0.000000
O O5 0.611070 0.740252 0.151462
O O6 0.450548 0.706880 0.108874
O O7 0.581357 0.648099 0.158596
O O8 0.580524 0.692378 0.000000
O O9 0.500000 0.500000 0.617504
O O10 0.398816 0.538326 0.500000
O O11 0.361681 0.557127 0.668301
O O12 0.366366 0.830877 0.500000
O O13 0.370992 0.831527 0.683570
O O14 0.230159 0.808003 0.597349
O O15 0.157136 0.733693 0.317332
O O16 0.000000 0.718872 0.250000
O O17 0.851336 0.254839 0.500000
O O18 0.500000 0.583544 0.250000
#
# Coordination Sequence:
#
# PCOD9529504 Si02
#       7
#    16  16  16  16  16  16  16
#     4  10  21  33  45  66  96 130 173 213 248 290
#     4  10  20  32  45  68 100 134 173 216 252 292
#     4  10  20  32  46  67  97 135 174 213 245 286
#     4  10  19  32  50  69  93 128 165 205 249 301
#     4  10  19  33  51  72  95 126 166 212 254 300
#     4   9  18  30  45  66  94 126 162 202 248 295
#     4  12  20  28  45  67  96 136 177 210 248 289
#
# _framework density 9.2181069999999998
#
# number of rings (size 3 to 8) (size 9 to 14) (size 15 to 20)
#    0.000    1.857    1.429    4.714    0.000    2.286 
#    0.000    0.000    0.000    0.857    0.000    0.000 
#    0.000    2.286    0.000   15.286    0.000    2.000 
#
# Total GULP energy -311797.355277 kJ/mol
# GULP energy per Si atom -5567.809916 kJ/mol
# Density = 0.919713 g / cm^3
# Si number density = 9.218107 Si / 1000 Ang^3
#
#
#
# Elastic Constant Matrix: (Units=GPa)
#
#
# Indices 1 2 3 4 5 6 
#
# 1 2.7078 8.2594 19.6927 0.0000 0.0000 0.0000
# 2 8.2594 44.6323 45.6797 0.0001 0.0000 0.0000
# 3 19.6927 45.6797 152.1711 0.0001 0.0000 0.0000
# 4 0.0000 0.0001 0.0001 -40.6445 0.0001 0.0000
# 5 0.0000 0.0000 0.0000 0.0001 -5.8568 0.0000
# 6 0.0000 0.0000 0.0000 0.0000 0.0000 11.0798
#
#
#
# Elastic Compliance Matrix: (Units=1/GPa)
#
#
# Indices 1 2 3 4 5 6 
#
# 1 -52.661226 3.998918 5.614536 0.000024 0.000113 0.000016
# 2 3.998918 -0.271323 -0.436058 -0.000002 -0.000008 -0.000001
# 3 5.614536 -0.436058 -0.589114 -0.000003 -0.000012 -0.000002
# 4 0.000024 -0.000002 -0.000003 -0.024604 0.000000 0.000000
# 5 0.000113 -0.000008 -0.000012 0.000000 -0.170741 0.000000
# 6 0.000016 -0.000001 -0.000002 0.000000 0.000000 0.090254
#
#
# Mechanical properties :
#
#
# Convention : Reuss Voigt Hill
#
# Bulk Modulus (GPa) = -0.02844 38.53053 19.25105
# Shear Modulus (GPa) = -0.05973 1.30765 0.62396
#
# Velocity S-wave (km/s) = -0.18020 0.84310 0.58239
# Velocity P-wave (km/s) = 0.24239 4.67894 3.30407
#
# Compressibility (1/GPa) = -35.16687020
#
# Stress axis : x y z
#
# Youngs Moduli (GPa) = -0.01899 -3.68565 -1.69746
#
# Poissons Ratio (x) = 14.73859 9.53047
# Poissons Ratio (y) = 0.07594 -0.74019
# Poissons Ratio (z) = 0.10662 -1.60715
#
# Static dielectric constant tensor:
#      x y z
#    x 1.652500 0.000000 0.000000 
#    y 0.000000 1.697590 0.000000 
#    z 0.000000 0.000000 1.689320 
# 
# From -- ./inp_files/22277.got.cif
#   From: 2010.05.17/outbox.ucp.g08.bks.cvg/sg72_12_cif.got.tgz:22277.got - 2010.06.11 16:33:07.
