data_PCOD9529185
_publ_section_title
;
Structure prediction by ZEFSAII (Michael W. Deem and Ramdas Pophale) SiO2 
 PCOD9529185
Probable space group: I B A M
;
_chemical_formula_sum "Si O2"
_cell_formula_units_Z 80
_cell_length_a 10.781107
_cell_length_b 15.518511
_cell_length_c 22.631806
_cell_angle_alpha 90.000000
_cell_angle_beta 90.000000
_cell_angle_gamma 90.000000
_cell_volume 3786.453401
_symmetry_space_group_name_H-M "I B A M"
_symmetry_group_IT_number 72
_symmetry_cell_setting 'orthorhombic'
loop_
_space_group_symop_operation_xyz
x,y,z
-x,-y,z
x,-y,1/2-z
-x,y,1/2-z
-x,-y,-z
x,y,-z
-x,y,1/2+z
x,-y,1/2+z
1/2+x,1/2+y,1/2+z
1/2-x,1/2-y,1/2+z
1/2+x,1/2-y,-z
1/2-x,1/2+y,-z
1/2-x,1/2-y,1/2-z
1/2+x,1/2+y,1/2-z
1/2-x,1/2+y,z
1/2+x,1/2-y,z
loop_
_atom_site_type_symbol
_atom_site_label
_atom_site_fract_x
_atom_site_fract_y
_atom_site_fract_z
Si Si1 0.864944 0.679022 0.934128
Si Si2 0.215513 0.378974 0.697690
Si Si3 0.389890 0.256379 0.888493
Si Si4 0.873695 0.442252 0.678730
Si Si5 0.514886 0.597120 0.680100
O O1 0.737413 0.731280 0.923988
O O2 0.872812 0.608665 0.881987
O O3 0.988613 0.736449 0.926854
O O4 0.863445 0.641124 0.000000
O O5 0.126167 0.321351 0.658231
O O6 0.223048 0.479467 0.679964
O O7 0.164519 0.382423 0.765168
O O8 0.354015 0.351189 0.680187
O O9 0.415554 0.342407 0.851173
O O10 0.000000 0.500000 0.686273
O O11 0.500000 0.500000 0.655511
O O12 0.500000 0.589234 0.750000
#
# Coordination Sequence:
#
# PCOD9529185 Si02
#       5
#    16  16  16  16  16
#     4  12  27  47  67  97 138 187 243 290 341 423
#     4  11  22  41  67 109 138 169 229 291 362 434
#     4  12  25  44  73  97 137 186 233 298 356 415
#     4  11  23  41  69 103 145 178 220 293 362 428
#     4  11  23  40  65  99 142 175 218 279 358 429
#
# _framework density 21.127949000000001
#
# number of rings (size 3 to 8) (size 9 to 14) (size 15 to 20)
#    0.000    0.600    4.000    6.600    2.800    2.000 
#    0.000    0.000    0.000    2.400    0.000    0.000 
#    0.000    0.000    0.000    0.000    0.000    0.000 
#
# Total GULP energy -223200.335870 kJ/mol
# GULP energy per Si atom -5580.008397 kJ/mol
# Density = 2.107986 g / cm^3
# Si number density = 21.127949 Si / 1000 Ang^3
#
#
#
# Elastic Constant Matrix: (Units=GPa)
#
#
# Indices 1 2 3 4 5 6 
#
# 1 136.6399 9.7055 45.1165 0.0000 0.0000 0.0000
# 2 9.7055 60.0990 47.1949 0.0000 0.0000 0.0000
# 3 45.1165 47.1949 139.8322 0.0000 0.0000 0.0000
# 4 0.0000 0.0000 0.0000 21.2400 0.0000 0.0000
# 5 0.0000 0.0000 0.0000 0.0000 9.0711 0.0000
# 6 0.0000 0.0000 0.0000 0.0000 0.0000 1412.5818
#
#
#
# Elastic Compliance Matrix: (Units=1/GPa)
#
#
# Indices 1 2 3 4 5 6 
#
# 1 0.008238 0.001030 -0.003005 0.000000 0.000000 0.000000
# 2 0.001030 0.022768 -0.008017 0.000000 0.000000 0.000000
# 3 -0.003005 -0.008017 0.010827 0.000000 0.000000 0.000000
# 4 0.000000 0.000000 0.000000 0.047081 0.000000 0.000000
# 5 0.000000 0.000000 0.000000 0.000000 0.110240 0.000000
# 6 0.000000 0.000000 0.000000 0.000000 0.000000 0.000708
#
#
# Mechanical properties :
#
#
# Convention : Reuss Voigt Hill
#
# Bulk Modulus (GPa) = 45.77067 60.06722 52.91895
# Shear Modulus (GPa) = 22.01387 304.21553 163.11470
#
# Velocity S-wave (km/s) = 3.23140 12.01249 8.79607
# Velocity P-wave (km/s) = 5.96935 14.86243 11.32530
#
# Compressibility (1/GPa) = 0.02184805
#
# Stress axis : x y z
#
# Youngs Moduli (GPa) = 121.39292 43.92044 92.36246
#
# Poissons Ratio (x) = -0.04523 0.27759
# Poissons Ratio (y) = -0.12501 0.74046
# Poissons Ratio (z) = 0.36484 0.35210
#
# Static dielectric constant tensor:
#      x y z
#    x 1.953490 0.000000 0.000000 
#    y 0.000000 1.771790 0.000000 
#    z 0.000000 0.000000 1.704910 
# 
# From -- ./inp_files/43117.got.cif
#   From: 2010.05.17/outbox.cif.g08.bks.cpg/sg72_22_cif.got.tgz:43117.got - 2010.06.03 17:03:01.
