data_PCOD9529120
_publ_section_title
;
Structure prediction by ZEFSAII (Michael W. Deem and Ramdas Pophale) SiO2 
 PCOD9529120
Probable space group: I B A M
;
_chemical_formula_sum "Si O2"
_cell_formula_units_Z 112
_cell_length_a 11.018107
_cell_length_b 17.446880
_cell_length_c 28.664286
_cell_angle_alpha 90.000000
_cell_angle_beta 90.000000
_cell_angle_gamma 90.000000
_cell_volume 5510.181293
_symmetry_space_group_name_H-M "I B A M"
_symmetry_group_IT_number 72
_symmetry_cell_setting 'orthorhombic'
loop_
_space_group_symop_operation_xyz
x,y,z
-x,-y,z
x,-y,1/2-z
-x,y,1/2-z
-x,-y,-z
x,y,-z
-x,y,1/2+z
x,-y,1/2+z
1/2+x,1/2+y,1/2+z
1/2-x,1/2-y,1/2+z
1/2+x,1/2-y,-z
1/2-x,1/2+y,-z
1/2-x,1/2-y,1/2-z
1/2+x,1/2+y,1/2-z
1/2-x,1/2+y,z
1/2+x,1/2-y,z
loop_
_atom_site_type_symbol
_atom_site_label
_atom_site_fract_x
_atom_site_fract_y
_atom_site_fract_z
Si Si1 0.952354 0.914501 0.890259
Si Si2 0.076781 0.648567 0.097838
Si Si3 0.944906 0.821646 0.204755
Si Si4 0.692663 0.755958 0.178350
Si Si5 0.229256 0.478603 0.444052
Si Si6 0.197489 0.637459 0.609976
Si Si7 0.378914 0.301409 0.051932
O O1 0.931683 0.874684 0.840614
O O2 0.841245 0.926734 0.925989
O O3 0.047488 0.858934 0.915450
O O4 0.000000 0.000000 0.882258
O O5 0.167059 0.680451 0.137935
O O6 0.114903 0.571819 0.071678
O O7 0.074215 0.716627 0.060285
O O8 0.944220 0.639980 0.119241
O O9 0.809726 0.784360 0.208043
O O10 0.000000 0.864466 0.250000
O O11 0.056898 0.761050 0.197625
O O12 0.734940 0.675463 0.154262
O O13 0.233590 0.492886 0.500000
O O14 0.228585 0.554807 0.412014
O O15 0.239592 0.694581 0.568568
O O16 0.391685 0.328063 0.000000
#
# Coordination Sequence:
#
# PCOD9529120 Si02
#       7
#    16  16  16  16  16  16  16
#     4  12  23  42  62  90 131 169 210 272 335 387
#     4  11  23  40  62  88 130 175 218 269 321 385
#     4  12  24  43  73 101 125 161 216 274 338 408
#     4  11  21  44  68  99 129 170 212 270 342 393
#     4  12  25  39  61  94 132 181 227 267 323 396
#     4  11  22  40  62  87 132 173 216 266 326 389
#     4  11  23  37  60  89 124 174 223 267 314 385
#
# _framework density 20.32601
#
# number of rings (size 3 to 8) (size 9 to 14) (size 15 to 20)
#    0.000    0.571    7.143    2.143    2.000    3.714 
#    0.000    0.000    0.000    0.000    0.000    1.000 
#    0.000    0.000    0.000    0.000    0.000    0.000 
#
# Total GULP energy -312065.131701 kJ/mol
# GULP energy per Si atom -5572.591638 kJ/mol
# Density = 2.027975 g / cm^3
# Si number density = 20.326010 Si / 1000 Ang^3
#
#
#
# Elastic Constant Matrix: (Units=GPa)
#
#
# Indices 1 2 3 4 5 6 
#
# 1 116.3846 8.8780 23.5800 0.0000 0.0000 0.0000
# 2 8.8780 41.0384 -5.4591 0.0000 0.0000 0.0000
# 3 23.5800 -5.4591 67.8188 0.0000 0.0000 0.0000
# 4 0.0000 0.0000 0.0000 -8.3765 0.0000 0.0000
# 5 0.0000 0.0000 0.0000 0.0000 27.4569 0.0000
# 6 0.0000 0.0000 0.0000 0.0000 0.0000 30.5593
#
#
#
# Elastic Compliance Matrix: (Units=1/GPa)
#
#
# Indices 1 2 3 4 5 6 
#
# 1 0.009494 -0.002520 -0.003504 0.000000 0.000000 0.000000
# 2 -0.002520 0.025300 0.002913 0.000000 0.000000 0.000000
# 3 -0.003504 0.002913 0.016198 0.000000 0.000000 0.000000
# 4 0.000000 0.000000 0.000000 -0.119382 0.000000 0.000000
# 5 0.000000 0.000000 0.000000 0.000000 0.036421 0.000000
# 6 0.000000 0.000000 0.000000 0.000000 0.000000 0.032723
#
#
# Mechanical properties :
#
#
# Convention : Reuss Voigt Hill
#
# Bulk Modulus (GPa) = 22.33650 31.02664 26.68157
# Shear Modulus (GPa) = 228.30876 23.14414 125.72645
#
# Velocity S-wave (km/s) = 10.60977 3.37804 7.87332
# Velocity P-wave (km/s) = 12.69262 5.52382 9.78814
#
# Compressibility (1/GPa) = 0.04476977
#
# Stress axis : x y z
#
# Youngs Moduli (GPa) = 105.32582 39.52561 61.73632
#
# Poissons Ratio (x) = 0.09961 0.21632
# Poissons Ratio (y) = 0.26543 -0.17982
# Poissons Ratio (z) = 0.36906 -0.11513
#
# Static dielectric constant tensor:
#      x y z
#    x 1.816270 0.000000 0.000000 
#    y 0.000000 1.730000 0.000000 
#    z 0.000000 0.000000 1.754310 
# 
# From -- ./inp_files/51478.got.cif
#   From: 2010.05.17/outbox.cif.g08.bks.cpg/sg72_26_cif.got.tgz:51478.got - 2010.06.03 17:03:01.
