data_PCOD9529110
_publ_section_title
;
Structure prediction by ZEFSAII (Michael W. Deem and Ramdas Pophale) SiO2 
 PCOD9529110
Probable space group: I B A M
;
_chemical_formula_sum "Si O2"
_cell_formula_units_Z 64
_cell_length_a 10.267970
_cell_length_b 8.439990
_cell_length_c 31.537660
_cell_angle_alpha 90.000000
_cell_angle_beta 90.000000
_cell_angle_gamma 90.000000
_cell_volume 2733.102944
_symmetry_space_group_name_H-M "I B A M"
_symmetry_group_IT_number 72
_symmetry_cell_setting 'orthorhombic'
loop_
_space_group_symop_operation_xyz
x,y,z
-x,-y,z
x,-y,1/2-z
-x,y,1/2-z
-x,-y,-z
x,y,-z
-x,y,1/2+z
x,-y,1/2+z
1/2+x,1/2+y,1/2+z
1/2-x,1/2-y,1/2+z
1/2+x,1/2-y,-z
1/2-x,1/2+y,-z
1/2-x,1/2-y,1/2-z
1/2+x,1/2+y,1/2-z
1/2-x,1/2+y,z
1/2+x,1/2-y,z
loop_
_atom_site_type_symbol
_atom_site_label
_atom_site_fract_x
_atom_site_fract_y
_atom_site_fract_z
Si Si1 0.656719 0.662759 0.400758
Si Si2 0.930550 0.328722 0.951348
Si Si3 0.177993 0.628867 0.781398
Si Si4 0.690584 0.382241 0.342535
O O1 0.793277 0.661669 0.426802
O O2 0.537177 0.717613 0.429168
O O3 0.637516 0.490691 0.380117
O O4 0.686424 0.791243 0.363470
O O5 0.000000 0.500000 0.951076
O O6 0.906683 0.280444 0.000000
O O7 0.117800 0.500000 0.750000
O O8 0.250000 0.750000 0.750000
O O9 0.271058 0.515308 0.808658
O O10 0.112528 0.744443 0.816937
#
# Coordination Sequence:
#
# PCOD9529110 Si02
#       4
#    16  16  16  16
#     4  11  21  41  63  96 129 174 224 273 334 395
#     4  11  24  43  65  93 132 174 222 283 341 400
#     4   8  14  28  53  92 130 170 212 259 324 387
#     4   9  18  31  57  92 130 170 215 268 325 386
#
# _framework density 23.416609000000001
#
# number of rings (size 3 to 8) (size 9 to 14) (size 15 to 20)
#    0.000    2.250    2.500    0.750    0.000    1.000 
#    0.000    1.250    0.000    0.000    0.000  367.500 
#    0.000    0.000    0.000    0.250    0.000    0.000 
#
# Total GULP energy -178354.291371 kJ/mol
# GULP energy per Si atom -5573.571605 kJ/mol
# Density = 2.336331 g / cm^3
# Si number density = 23.416609 Si / 1000 Ang^3
#
#
#
# Elastic Constant Matrix: (Units=GPa)
#
#
# Indices 1 2 3 4 5 6 
#
# 1 136.2443 48.6778 75.1520 0.0000 0.0000 0.0000
# 2 48.6778 174.0602 79.9599 0.0000 0.0000 0.0000
# 3 75.1520 79.9599 153.1844 0.0000 0.0000 0.0000
# 4 0.0000 0.0000 0.0000 51.3090 0.0000 0.0000
# 5 0.0000 0.0000 0.0000 0.0000 -29.0986 0.0000
# 6 0.0000 0.0000 0.0000 0.0000 0.0000 7.7419
#
#
#
# Elastic Compliance Matrix: (Units=1/GPa)
#
#
# Indices 1 2 3 4 5 6 
#
# 1 0.010132 -0.000724 -0.004593 0.000000 0.000000 0.000000
# 2 -0.000724 0.007609 -0.003617 0.000000 0.000000 0.000000
# 3 -0.004593 -0.003617 0.010669 0.000000 0.000000 0.000000
# 4 0.000000 0.000000 0.000000 0.019490 0.000000 0.000000
# 5 0.000000 0.000000 0.000000 0.000000 -0.034366 0.000000
# 6 0.000000 0.000000 0.000000 0.000000 0.000000 0.129167
#
#
# Mechanical properties :
#
#
# Convention : Reuss Voigt Hill
#
# Bulk Modulus (GPa) = 94.84578 96.78536 95.81557
# Shear Modulus (GPa) = 30.47252 23.30374 26.88813
#
# Velocity S-wave (km/s) = 3.61130 3.15807 3.39226
# Velocity P-wave (km/s) = 7.61447 7.39726 7.50665
#
# Compressibility (1/GPa) = 0.01054343
#
# Stress axis : x y z
#
# Youngs Moduli (GPa) = 98.70006 131.42378 93.72707
#
# Poissons Ratio (x) = 0.09509 0.43048
# Poissons Ratio (y) = 0.07141 0.33899
# Poissons Ratio (z) = 0.45332 0.47533
#
# Static dielectric constant tensor:
#      x y z
#    x 1.842540 0.000000 0.000000 
#    y 0.000000 1.867700 0.000000 
#    z 0.000000 0.000000 1.948100 
# 
# From -- ./inp_files/51126.got.cif
#   From: 2010.05.17/outbox.cif.g08.bks.cpg/sg72_26_cif.got.tgz:51126.got - 2010.06.03 17:03:01.
