data_PCOD9529246
_publ_section_title
;
Structure prediction by ZEFSAII (Michael W. Deem and Ramdas Pophale) SiO2 
 PCOD9529246
Probable space group: I B A M
;
_chemical_formula_sum "Si O2"
_cell_formula_units_Z 88
_cell_length_a 12.278748
_cell_length_b 16.324747
_cell_length_c 21.287087
_cell_angle_alpha 90.000000
_cell_angle_beta 90.000000
_cell_angle_gamma 90.000000
_cell_volume 4266.942405
_symmetry_space_group_name_H-M "I B A M"
_symmetry_group_IT_number 72
_symmetry_cell_setting 'orthorhombic'
loop_
_space_group_symop_operation_xyz
x,y,z
-x,-y,z
x,-y,1/2-z
-x,y,1/2-z
-x,-y,-z
x,y,-z
-x,y,1/2+z
x,-y,1/2+z
1/2+x,1/2+y,1/2+z
1/2-x,1/2-y,1/2+z
1/2+x,1/2-y,-z
1/2-x,1/2+y,-z
1/2-x,1/2-y,1/2-z
1/2+x,1/2+y,1/2-z
1/2-x,1/2+y,z
1/2+x,1/2-y,z
loop_
_atom_site_type_symbol
_atom_site_label
_atom_site_fract_x
_atom_site_fract_y
_atom_site_fract_z
Si Si1 0.799463 0.000000 0.750000
Si Si2 0.971428 0.135204 0.071389
Si Si3 0.597643 0.943627 0.074134
Si Si4 0.673007 0.172032 0.237124
Si Si5 0.513888 0.202190 0.646395
Si Si6 0.340845 0.483512 0.612301
O O1 0.730431 0.083386 0.761812
O O2 0.865527 0.984794 0.813601
O O3 0.972075 0.205291 0.123656
O O4 0.874419 0.070864 0.083807
O O5 0.082660 0.083326 0.079400
O O6 0.964936 0.166540 0.000000
O O7 0.555296 0.853475 0.089528
O O8 0.500000 0.000000 0.099718
O O9 0.714128 0.962948 0.104247
O O10 0.609071 0.957267 0.000000
O O11 0.750000 0.250000 0.250000
O O12 0.589567 0.177009 0.295237
O O13 0.607481 0.185307 0.172093
#
# Coordination Sequence:
#
# PCOD9529246 Si02
#       6
#     8  16  16  16  16  16
#     4  12  22  40  72  94 140 178 215 279 356 398
#     4  11  24  44  68  97 135 180 227 284 342 407
#     4  11  23  42  64  94 133 174 224 275 326 402
#     4  11  24  42  63  99 138 172 220 282 333 419
#     4  11  24  39  66  94 132 170 225 268 338 394
#     4  11  23  43  69  99 132 178 228 276 347 416
#
# _framework density 20.623667000000001
#
# number of rings (size 3 to 8) (size 9 to 14) (size 15 to 20)
#    0.000    0.909    1.818    6.000    0.000    3.636 
#    0.000    0.000    0.000    0.000    0.000    0.000 
#    0.000    0.000    0.000    0.000    0.000    0.000 
#
# Total GULP energy -245883.782092 kJ/mol
# GULP energy per Si atom -5588.267775 kJ/mol
# Density = 2.057673 g / cm^3
# Si number density = 20.623667 Si / 1000 Ang^3
#
#
#
# Elastic Constant Matrix: (Units=GPa)
#
#
# Indices 1 2 3 4 5 6 
#
# 1 95.9462 28.8075 0.7697 0.0000 0.0000 0.0000
# 2 28.8075 121.5743 -12.3170 0.0000 0.0000 0.0000
# 3 0.7697 -12.3170 72.0701 0.0000 0.0000 0.0000
# 4 0.0000 0.0000 0.0000 23.9468 0.0000 0.0000
# 5 0.0000 0.0000 0.0000 0.0000 21.7929 0.0000
# 6 0.0000 0.0000 0.0000 0.0000 0.0000 16.2915
#
#
#
# Elastic Compliance Matrix: (Units=1/GPa)
#
#
# Indices 1 2 3 4 5 6 
#
# 1 0.011245 -0.002724 -0.000586 0.000000 0.000000 0.000000
# 2 -0.002724 0.009030 0.001572 0.000000 0.000000 0.000000
# 3 -0.000586 0.001572 0.014150 0.000000 0.000000 0.000000
# 4 0.000000 0.000000 0.000000 0.041759 0.000000 0.000000
# 5 0.000000 0.000000 0.000000 0.000000 0.045887 0.000000
# 6 0.000000 0.000000 0.000000 0.000000 0.000000 0.061382
#
#
# Mechanical properties :
#
#
# Convention : Reuss Voigt Hill
#
# Bulk Modulus (GPa) = 32.30883 36.01234 34.16058
# Shear Modulus (GPa) = 25.34926 30.56160 27.95543
#
# Velocity S-wave (km/s) = 3.50971 3.85368 3.68571
# Velocity P-wave (km/s) = 5.66780 6.10743 5.89172
#
# Compressibility (1/GPa) = 0.03095130
#
# Stress axis : x y z
#
# Youngs Moduli (GPa) = 88.92811 110.74001 70.66956
#
# Poissons Ratio (x) = 0.30164 0.04139
# Poissons Ratio (y) = 0.24223 -0.11112
# Poissons Ratio (z) = 0.05208 -0.17412
#
# Static dielectric constant tensor:
#      x y z
#    x 1.731020 0.000000 0.000000 
#    y 0.000000 1.750600 0.000000 
#    z 0.000000 0.000000 1.693180 
# 
# From -- ./inp_files/43233.got.cif
#   From: 2010.05.17/outbox.cif.g08.bks.cpg/sg72_22_cif.got.tgz:43233.got - 2010.06.03 17:03:01.
