data_PCOD9529582
_publ_section_title
;
Structure prediction by ZEFSAII (Michael W. Deem and Ramdas Pophale) SiO2 
 PCOD9529582
Probable space group: I B A M
;
_chemical_formula_sum "Si O2"
_cell_formula_units_Z 44
_cell_length_a 12.000000
_cell_length_b 24.000000
_cell_length_c 15.000000
_cell_angle_alpha 90.000000
_cell_angle_beta 90.000000
_cell_angle_gamma 90.000000
_cell_volume 4320.000000
_symmetry_space_group_name_H-M "I B A M"
_symmetry_group_IT_number 72
_symmetry_cell_setting 'orthorhombic'
loop_
_space_group_symop_operation_xyz
x,y,z
-x,-y,z
x,-y,1/2-z
-x,y,1/2-z
-x,-y,-z
x,y,-z
-x,y,1/2+z
x,-y,1/2+z
1/2+x,1/2+y,1/2+z
1/2-x,1/2-y,1/2+z
1/2+x,1/2-y,-z
1/2-x,1/2+y,-z
1/2-x,1/2-y,1/2-z
1/2+x,1/2+y,1/2-z
1/2-x,1/2+y,z
1/2+x,1/2-y,z
loop_
_atom_site_type_symbol
_atom_site_label
_atom_site_fract_x
_atom_site_fract_y
_atom_site_fract_z
Si Si1 0.000000 0.642221 0.750000
Si Si2 0.594714 0.415622 0.899569
Si Si3 0.206961 0.785404 0.893278
Si Si4 0.755205 0.386693 0.257677
Si Si5 0.542895 0.234943 0.105331
Si Si6 0.651959 0.546650 0.099962
O O1 0.883716 0.612360 0.728447
O O2 0.971501 0.680698 0.834429
O O3 0.669440 0.387278 0.824724
O O4 0.462105 0.418510 0.882606
O O5 0.625792 0.481182 0.900318
O O6 0.611794 0.392817 0.000000
O O7 0.228528 0.835452 0.824336
O O8 0.323600 0.748188 0.879470
O O9 0.077186 0.766304 0.875042
O O10 0.208425 0.798884 0.000000
O O11 0.733371 0.439492 0.320674
O O12 0.537379 0.224545 0.000000
O O13 0.690806 0.561275 0.000000
#
# Coordination Sequence:
#
# PCOD9529582 Si02
#       6
#     8  16  16  16  16  16
#     4  10  24  38  53  78 114 154 187 220 276 336
#     4   9  19  36  57  83 114 145 179 226 282 334
#     4   9  19  37  60  82 109 147 192 233 279 333
#     4  11  20  34  56  83 113 144 184 231 271 324
#     4   9  19  39  59  77 108 151 189 233 285 332
#     4   9  18  36  59  82 112 145 180 226 284 334
#
# _framework density 10.185185000000001
#
# number of rings (size 3 to 8) (size 9 to 14) (size 15 to 20)
#    0.000    2.545    0.000    2.727    0.000    5.818 
#    9.818    1.818    0.000    2.182    0.000    0.000 
#    0.000    0.000    0.000    0.000    0.000    0.000 
#
# Total GULP energy -244978.311760 kJ/mol
# GULP energy per Si atom -5567.688904 kJ/mol
# Density = 1.016200 g / cm^3
# Si number density = 10.185185 Si / 1000 Ang^3
#
#
#
# Elastic Constant Matrix: (Units=GPa)
#
#
# Indices 1 2 3 4 5 6 
#
# 1 101.4325 31.9578 32.7197 0.0000 0.0000 0.0000
# 2 31.9578 30.9608 28.3543 0.0001 0.0000 0.0000
# 3 32.7197 28.3543 67.2599 0.0001 0.0000 0.0000
# 4 0.0000 0.0001 0.0001 8.9803 0.0000 0.0000
# 5 0.0000 0.0000 0.0000 0.0000 35.1735 0.0000
# 6 0.0000 0.0000 0.0000 0.0000 0.0000 33.5138
#
#
#
# Elastic Compliance Matrix: (Units=1/GPa)
#
#
# Indices 1 2 3 4 5 6 
#
# 1 0.014672 -0.014021 -0.001227 0.000000 0.000000 0.000000
# 2 -0.014021 0.066009 -0.021006 -0.000001 0.000000 0.000000
# 3 -0.001227 -0.021006 0.024320 0.000000 0.000000 0.000000
# 4 0.000000 -0.000001 0.000000 0.111355 0.000000 0.000000
# 5 0.000000 0.000000 0.000000 0.000000 0.028430 0.000000
# 6 0.000000 0.000000 0.000000 0.000000 0.000000 0.029838
#
#
# Mechanical properties :
#
#
# Convention : Reuss Voigt Hill
#
# Bulk Modulus (GPa) = 30.77576 42.85742 36.81659
# Shear Modulus (GPa) = 13.96786 22.64162 18.30474
#
# Velocity S-wave (km/s) = 2.62142 3.33753 3.00091
# Velocity P-wave (km/s) = 4.92984 5.99474 5.48818
#
# Compressibility (1/GPa) = 0.03249311
#
# Stress axis : x y z
#
# Youngs Moduli (GPa) = 68.15697 15.14937 41.11850
#
# Poissons Ratio (x) = 0.21241 0.05044
# Poissons Ratio (y) = 0.95563 0.86375
# Poissons Ratio (z) = 0.08361 0.31823
#
# Static dielectric constant tensor:
#      x y z
#    x 1.784810 0.000000 0.000000 
#    y 0.000000 1.792480 0.000000 
#    z 0.000000 0.000000 1.702580 
# 
# From -- ./inp_files/20318.got.cif
#   From: 2010.05.17/outbox.ucp.g08.bks.cvg/sg72_11_cif.got.tgz:20318.got - 2010.06.11 16:33:07.
