data_PCOD9529117
_publ_section_title
;
Structure prediction by ZEFSAII (Michael W. Deem and Ramdas Pophale) SiO2 
 PCOD9529117
Probable space group: I B A M
;
_chemical_formula_sum "Si O2"
_cell_formula_units_Z 112
_cell_length_a 14.665072
_cell_length_b 11.592952
_cell_length_c 29.232150
_cell_angle_alpha 90.000000
_cell_angle_beta 90.000000
_cell_angle_gamma 90.000000
_cell_volume 4969.800962
_symmetry_space_group_name_H-M "I B A M"
_symmetry_group_IT_number 72
_symmetry_cell_setting 'orthorhombic'
loop_
_space_group_symop_operation_xyz
x,y,z
-x,-y,z
x,-y,1/2-z
-x,y,1/2-z
-x,-y,-z
x,y,-z
-x,y,1/2+z
x,-y,1/2+z
1/2+x,1/2+y,1/2+z
1/2-x,1/2-y,1/2+z
1/2+x,1/2-y,-z
1/2-x,1/2+y,-z
1/2-x,1/2-y,1/2-z
1/2+x,1/2+y,1/2-z
1/2-x,1/2+y,z
1/2+x,1/2-y,z
loop_
_atom_site_type_symbol
_atom_site_label
_atom_site_fract_x
_atom_site_fract_y
_atom_site_fract_z
Si Si1 0.982181 0.131192 0.320847
Si Si2 0.936803 0.390919 0.049251
Si Si3 0.311493 0.993645 0.373009
Si Si4 0.648599 0.801999 0.202286
Si Si5 0.663282 0.186696 0.802129
Si Si6 0.519564 0.655576 0.571750
Si Si7 0.162445 0.984685 0.050273
O O1 0.059135 0.227367 0.309807
O O2 0.977276 0.125328 0.375276
O O3 0.888301 0.190668 0.305537
O O4 0.000000 0.000000 0.303970
O O5 0.867908 0.426015 0.088421
O O6 0.002354 0.288163 0.063669
O O7 0.000000 0.500000 0.044373
O O8 0.893153 0.362984 0.000000
O O9 0.314310 0.898973 0.332482
O O10 0.222812 0.029122 0.403621
O O11 0.351660 0.106063 0.346531
O O12 0.633953 0.857792 0.252218
O O13 0.729206 0.707835 0.202265
O O14 0.613947 0.609695 0.551429
O O15 0.427448 0.595791 0.552957
O O16 0.207032 0.966368 0.000000
#
# Coordination Sequence:
#
# PCOD9529117 Si02
#       7
#    16  16  16  16  16  16  16
#     4  12  24  46  78 108 140 191 237 294 359 440
#     4  11  24  43  66  95 135 181 227 279 346 417
#     4  12  25  44  69  98 141 185 229 293 348 422
#     4  11  26  46  70 105 142 186 240 298 366 424
#     4  11  27  45  70 105 143 186 238 301 362 429
#     4  11  21  43  70 102 140 182 228 292 354 423
#     4  11  23  41  71 107 140 183 236 291 352 424
#
# _framework density 22.536114000000001
#
# number of rings (size 3 to 8) (size 9 to 14) (size 15 to 20)
#    0.000    0.714    2.857    5.571    2.000    1.143 
#    0.000    1.429    0.000    0.000    0.000    0.000 
#    0.000    0.000    0.000    0.000    0.000    0.000 
#
# Total GULP energy -312415.893355 kJ/mol
# GULP energy per Si atom -5578.855238 kJ/mol
# Density = 2.248482 g / cm^3
# Si number density = 22.536114 Si / 1000 Ang^3
#
#
#
# Elastic Constant Matrix: (Units=GPa)
#
#
# Indices 1 2 3 4 5 6 
#
# 1 42.6208 -3.7062 19.8378 0.0000 0.0000 0.0000
# 2 -3.7062 86.5652 29.3540 0.0000 0.0000 0.0000
# 3 19.8378 29.3540 183.9552 0.0000 0.0000 0.0000
# 4 0.0000 0.0000 0.0000 22.2868 0.0000 0.0000
# 5 0.0000 0.0000 0.0000 0.0000 -367.5800 0.0000
# 6 0.0000 0.0000 0.0000 0.0000 0.0000 19.5298
#
#
#
# Elastic Compliance Matrix: (Units=1/GPa)
#
#
# Indices 1 2 3 4 5 6 
#
# 1 0.025060 0.002103 -0.003038 0.000000 0.000000 0.000000
# 2 0.002103 0.012389 -0.002204 0.000000 0.000000 0.000000
# 3 -0.003038 -0.002204 0.006115 0.000000 0.000000 0.000000
# 4 0.000000 0.000000 0.000000 0.044870 0.000000 0.000000
# 5 0.000000 0.000000 0.000000 0.000000 -0.002720 0.000000
# 6 0.000000 0.000000 0.000000 0.000000 0.000000 0.051204
#
#
# Mechanical properties :
#
#
# Convention : Reuss Voigt Hill
#
# Bulk Modulus (GPa) = 26.81906 44.90139 35.86023
# Shear Modulus (GPa) = 32.12879 -47.30898 -7.59010
#
# Velocity S-wave (km/s) = 3.77988 -4.58673 -1.83719
# Velocity P-wave (km/s) = 5.56564 2.84312 3.38327
#
# Compressibility (1/GPa) = 0.03728691
#
# Stress axis : x y z
#
# Youngs Moduli (GPa) = 39.90479 80.71460 163.52185
#
# Poissons Ratio (x) = -0.16975 0.49679
# Poissons Ratio (y) = -0.08392 0.36037
# Poissons Ratio (z) = 0.12123 0.17788
#
# Static dielectric constant tensor:
#      x y z
#    x 1.837520 0.000000 0.000000 
#    y 0.000000 1.836920 0.000000 
#    z 0.000000 0.000000 2.544770 
# 
# From -- ./inp_files/51768.got.cif
#   From: 2010.05.17/outbox.cif.g08.bks.cpg/sg72_26_cif.got.tgz:51768.got - 2010.06.03 17:03:01.
