data_PCOD9529523
_publ_section_title
;
Structure prediction by ZEFSAII (Michael W. Deem and Ramdas Pophale) SiO2 
 PCOD9529523
Probable space group: I B A M
;
_chemical_formula_sum "Si O2"
_cell_formula_units_Z 56
_cell_length_a 15.000000
_cell_length_b 24.000000
_cell_length_c 15.000000
_cell_angle_alpha 90.000000
_cell_angle_beta 90.000000
_cell_angle_gamma 90.000000
_cell_volume 5400.000000
_symmetry_space_group_name_H-M "I B A M"
_symmetry_group_IT_number 72
_symmetry_cell_setting 'orthorhombic'
loop_
_space_group_symop_operation_xyz
x,y,z
-x,-y,z
x,-y,1/2-z
-x,y,1/2-z
-x,-y,-z
x,y,-z
-x,y,1/2+z
x,-y,1/2+z
1/2+x,1/2+y,1/2+z
1/2-x,1/2-y,1/2+z
1/2+x,1/2-y,-z
1/2-x,1/2+y,-z
1/2-x,1/2-y,1/2-z
1/2+x,1/2+y,1/2-z
1/2-x,1/2+y,z
1/2+x,1/2-y,z
loop_
_atom_site_type_symbol
_atom_site_label
_atom_site_fract_x
_atom_site_fract_y
_atom_site_fract_z
Si Si1 0.092250 0.357346 0.195996
Si Si2 0.902934 0.483127 0.646101
Si Si3 0.270744 0.452358 0.397054
Si Si4 0.592743 0.739140 0.603690
Si Si5 0.081951 0.966740 0.104157
Si Si6 0.220054 0.839498 0.714067
Si Si7 0.058399 0.845121 0.163766
O O1 0.111951 0.416030 0.145242
O O2 0.080714 0.302424 0.135962
O O3 0.176202 0.340955 0.259135
O O4 0.000000 0.366474 0.250000
O O5 0.901191 0.500000 0.750000
O O6 0.828407 0.522844 0.604598
O O7 0.000000 0.500000 0.610835
O O8 0.290901 0.436493 0.500000
O O9 0.328347 0.504908 0.361871
O O10 0.291712 0.398940 0.336010
O O11 0.610341 0.737539 0.500000
O O12 0.675839 0.708360 0.652571
O O13 0.501083 0.704399 0.623012
O O14 0.067410 0.901460 0.109559
O O15 0.084807 0.980095 0.000000
O O16 0.000000 0.000000 0.145260
O O17 0.157992 0.832834 0.801845
O O18 0.000000 0.860860 0.250000
#
# Coordination Sequence:
#
# PCOD9529523 Si02
#       7
#    16  16  16  16  16  16  16
#     4  12  23  42  70  93 125 166 220 267 319 388
#     4  11  21  42  67  94 123 162 207 267 324 380
#     4  11  23  37  61  97 133 168 210 264 324 382
#     4  11  25  44  64  93 131 167 211 269 329 380
#     4  10  20  33  52  84 126 165 202 250 310 370
#     4  11  22  41  66  93 126 170 217 261 312 391
#     4  10  21  37  61  87 119 165 216 261 309 378
#
# _framework density 10.370369999999999
#
# number of rings (size 3 to 8) (size 9 to 14) (size 15 to 20)
#    0.000    1.143    2.857    5.143    0.000    3.429 
#    0.000    5.714    0.000    0.000    0.000    0.000 
#    0.000    0.000    0.000    0.000    0.000    0.000 
#
# Total GULP energy -312422.625257 kJ/mol
# GULP energy per Si atom -5578.975451 kJ/mol
# Density = 1.034677 g / cm^3
# Si number density = 10.370370 Si / 1000 Ang^3
#
#
#
# Elastic Constant Matrix: (Units=GPa)
#
#
# Indices 1 2 3 4 5 6 
#
# 1 73.7551 4.4231 0.5684 0.0000 0.0000 0.0000
# 2 4.4231 140.3134 19.9012 -0.0001 0.0001 0.0000
# 3 0.5684 19.9012 53.7078 -0.0001 0.0001 0.0000
# 4 0.0000 -0.0001 -0.0001 16.4710 0.0001 0.0001
# 5 0.0000 0.0001 0.0001 0.0001 8.9920 0.0000
# 6 0.0000 0.0000 0.0000 0.0001 0.0000 29.7908
#
#
#
# Elastic Compliance Matrix: (Units=1/GPa)
#
#
# Indices 1 2 3 4 5 6 
#
# 1 0.013584 -0.000430 0.000016 0.000000 0.000000 0.000000
# 2 -0.000430 0.007536 -0.002788 0.000000 0.000000 0.000000
# 3 0.000016 -0.002788 0.019652 0.000000 0.000000 0.000000
# 4 0.000000 0.000000 0.000000 0.060713 -0.000001 0.000000
# 5 0.000000 0.000000 0.000000 -0.000001 0.111211 0.000000
# 6 0.000000 0.000000 0.000000 0.000000 0.000000 0.033567
#
#
# Mechanical properties :
#
#
# Convention : Reuss Voigt Hill
#
# Bulk Modulus (GPa) = 29.09769 35.28464 32.19117
# Shear Modulus (GPa) = 18.93054 27.24300 23.08677
#
# Velocity S-wave (km/s) = 3.02441 3.62816 3.33995
# Velocity P-wave (km/s) = 5.12404 5.88222 5.51617
#
# Compressibility (1/GPa) = 0.03436698
#
# Stress axis : x y z
#
# Youngs Moduli (GPa) = 73.61556 132.69853 50.88513
#
# Poissons Ratio (x) = 0.05712 -0.00080
# Poissons Ratio (y) = 0.03169 0.14186
# Poissons Ratio (z) = -0.00116 0.36994
#
# Static dielectric constant tensor:
#      x y z
#    x 1.784220 0.000000 0.000000 
#    y 0.000000 1.727810 0.000000 
#    z 0.000000 0.000000 1.775140 
# 
# From -- ./inp_files/22138.got.cif
#   From: 2010.05.17/outbox.ucp.g08.bks.cvg/sg72_12_cif.got.tgz:22138.got - 2010.06.11 16:33:07.
