data_PCOD9529532
_publ_section_title
;
Structure prediction by ZEFSAII (Michael W. Deem and Ramdas Pophale) SiO2 
 PCOD9529532
Probable space group: I B A M
;
_chemical_formula_sum "Si O2"
_cell_formula_units_Z 48
_cell_length_a 21.000000
_cell_length_b 27.000000
_cell_length_c 9.000000
_cell_angle_alpha 90.000000
_cell_angle_beta 90.000000
_cell_angle_gamma 90.000000
_cell_volume 5103.000000
_symmetry_space_group_name_H-M "I B A M"
_symmetry_group_IT_number 72
_symmetry_cell_setting 'orthorhombic'
loop_
_space_group_symop_operation_xyz
x,y,z
-x,-y,z
x,-y,1/2-z
-x,y,1/2-z
-x,-y,-z
x,y,-z
-x,y,1/2+z
x,-y,1/2+z
1/2+x,1/2+y,1/2+z
1/2-x,1/2-y,1/2+z
1/2+x,1/2-y,-z
1/2-x,1/2+y,-z
1/2-x,1/2-y,1/2-z
1/2+x,1/2+y,1/2-z
1/2-x,1/2+y,z
1/2+x,1/2-y,z
loop_
_atom_site_type_symbol
_atom_site_label
_atom_site_fract_x
_atom_site_fract_y
_atom_site_fract_z
Si Si1 0.314342 0.625011 0.322724
Si Si2 0.700395 0.947837 0.677264
Si Si3 0.565028 0.099479 0.820378
Si Si4 0.934388 0.053293 0.823701
Si Si5 0.566969 0.790976 0.819752
Si Si6 0.184135 0.769028 0.321522
O O1 0.310415 0.637550 0.500000
O O2 0.250775 0.594646 0.281003
O O3 0.375307 0.589781 0.301556
O O4 0.320983 0.673731 0.224881
O O5 0.705032 0.953108 0.500000
O O6 0.628185 0.931885 0.712651
O O7 0.716585 0.000000 0.750000
O O8 0.500000 0.078248 0.750000
O O9 0.573454 0.153066 0.743091
O O10 0.559033 0.104942 0.000000
O O11 0.000000 0.071900 0.750000
O O12 0.920991 0.000000 0.750000
O O13 0.943791 0.046972 0.000000
O O14 0.500000 0.772403 0.750000
O O15 0.625650 0.759973 0.754702
O O16 0.565321 0.790396 0.000000
O O17 0.183794 0.762185 0.500000
O O18 0.250000 0.750000 0.250000
#
# Coordination Sequence:
#
# PCOD9529532 Si02
#       6
#    16  16  16  16  16  16
#     4  10  22  40  59  83 114 150 191 239 290 343
#     4  10  22  38  58  82 112 148 189 237 288 341
#     4  10  20  36  58  85 116 152 191 236 286 342
#     4  10  20  35  58  84 115 151 189 234 284 340
#     4  11  22  39  63  90 120 156 195 240 291 349
#     4  12  25  41  62  88 118 155 196 243 294 350
#
# _framework density 9.4062319999999993
#
# number of rings (size 3 to 8) (size 9 to 14) (size 15 to 20)
#    0.000    1.500    0.000    7.000    0.000    5.667 
#    0.000    3.333    0.000    0.000    0.000    0.000 
#    0.000    0.000    0.000    0.000    0.000    0.000 
#
# Total GULP energy -268282.668844 kJ/mol
# GULP energy per Si atom -5589.222268 kJ/mol
# Density = 0.938482 g / cm^3
# Si number density = 9.406232 Si / 1000 Ang^3
#
#
#
# Elastic Constant Matrix: (Units=GPa)
#
#
# Indices 1 2 3 4 5 6 
#
# 1 79.5306 3.5039 31.7719 0.0000 0.0000 0.0000
# 2 3.5039 29.6796 16.9749 0.0000 0.0000 0.0000
# 3 31.7719 16.9749 115.8563 0.0000 0.0000 0.0000
# 4 0.0000 0.0000 0.0000 34.2631 0.0000 0.0000
# 5 0.0000 0.0000 0.0000 0.0000 31.8823 0.0000
# 6 0.0000 0.0000 0.0000 0.0000 0.0000 34.3676
#
#
#
# Elastic Compliance Matrix: (Units=1/GPa)
#
#
# Indices 1 2 3 4 5 6 
#
# 1 0.014131 0.000598 -0.003963 0.000000 0.000000 0.000000
# 2 0.000598 0.036800 -0.005556 0.000000 0.000000 0.000000
# 3 -0.003963 -0.005556 0.010532 0.000000 0.000000 0.000000
# 4 0.000000 0.000000 0.000000 0.029186 0.000000 0.000000
# 5 0.000000 0.000000 0.000000 0.000000 0.031365 0.000000
# 6 0.000000 0.000000 0.000000 0.000000 0.000000 0.029097
#
#
# Mechanical properties :
#
#
# Convention : Reuss Voigt Hill
#
# Bulk Modulus (GPa) = 22.92418 36.61866 29.77142
# Shear Modulus (GPa) = 27.24900 31.62363 29.43632
#
# Velocity S-wave (km/s) = 3.80999 4.10444 3.95995
# Velocity P-wave (km/s) = 5.61843 6.47837 6.06366
#
# Compressibility (1/GPa) = 0.04362206
#
# Stress axis : x y z
#
# Youngs Moduli (GPa) = 70.76883 27.17373 94.94738
#
# Poissons Ratio (x) = -0.01626 0.37625
# Poissons Ratio (y) = -0.04234 0.52752
# Poissons Ratio (z) = 0.28044 0.15098
#
# Static dielectric constant tensor:
#      x y z
#    x 1.657510 0.000000 0.000000 
#    y 0.000000 1.635360 0.000000 
#    z 0.000000 0.000000 1.628930 
# 
# From -- ./inp_files/6005.got.cif
#   From: 2010.05.17/outbox.ucp.g08.bks.cvg/sg72_4_cif.got.tgz:6005.got - 2010.06.11 16:33:07.
