data_PCOD9529352
_publ_section_title
;
Structure prediction by ZEFSAII (Michael W. Deem and Ramdas Pophale) SiO2 
 PCOD9529352
Probable space group: I B A M
;
_chemical_formula_sum "Si O2"
_cell_formula_units_Z 80
_cell_length_a 11.397639
_cell_length_b 13.453041
_cell_length_c 22.086515
_cell_angle_alpha 90.000000
_cell_angle_beta 90.000000
_cell_angle_gamma 90.000000
_cell_volume 3386.589501
_symmetry_space_group_name_H-M "I B A M"
_symmetry_group_IT_number 72
_symmetry_cell_setting 'orthorhombic'
loop_
_space_group_symop_operation_xyz
x,y,z
-x,-y,z
x,-y,1/2-z
-x,y,1/2-z
-x,-y,-z
x,y,-z
-x,y,1/2+z
x,-y,1/2+z
1/2+x,1/2+y,1/2+z
1/2-x,1/2-y,1/2+z
1/2+x,1/2-y,-z
1/2-x,1/2+y,-z
1/2-x,1/2-y,1/2-z
1/2+x,1/2+y,1/2-z
1/2-x,1/2+y,z
1/2+x,1/2-y,z
loop_
_atom_site_type_symbol
_atom_site_label
_atom_site_fract_x
_atom_site_fract_y
_atom_site_fract_z
Si Si1 0.718293 0.658093 0.159979
Si Si2 0.864520 0.342933 0.000000
Si Si3 0.120175 0.758543 0.500000
Si Si4 0.364287 0.979886 0.616773
Si Si5 0.795321 0.872631 0.202063
Si Si6 0.520705 0.391413 0.104475
O O1 0.796711 0.584663 0.119711
O O2 0.783757 0.758598 0.179379
O O3 0.691008 0.614934 0.226817
O O4 0.596219 0.666421 0.124591
O O5 0.839702 0.411394 0.058729
O O6 0.005924 0.317282 0.000000
O O7 0.765158 0.253435 0.000000
O O8 0.091782 0.823301 0.559014
O O9 0.321674 0.923173 0.676745
O O10 0.500000 0.000000 0.618471
O O11 0.902625 0.914465 0.163730
O O12 0.500000 0.500000 0.076299
#
# Coordination Sequence:
#
# PCOD9529352 Si02
#       6
#    16   8   8  16  16  16
#     4  11  26  44  74 103 148 197 239 311 369 450
#     4  12  27  52  76 115 150 203 258 315 386 461
#     4  12  27  46  80 107 152 197 246 314 377 457
#     4  12  27  47  72 106 153 190 251 309 380 456
#     4  11  25  46  69 108 145 192 252 297 380 444
#     4  12  24  45  73 104 144 187 254 306 367 437
#
# _framework density 23.622584
#
# number of rings (size 3 to 8) (size 9 to 14) (size 15 to 20)
#    0.000    0.400    4.000    3.000    5.600    3.200 
#    0.000    1.000    0.000    0.000    0.000    0.000 
#    0.000    0.000    0.000    0.000    0.000    0.000 
#
# Total GULP energy -223705.796906 kJ/mol
# GULP energy per Si atom -5592.644923 kJ/mol
# Density = 2.356882 g / cm^3
# Si number density = 23.622584 Si / 1000 Ang^3
#
#
#
# Elastic Constant Matrix: (Units=GPa)
#
#
# Indices 1 2 3 4 5 6 
#
# 1 135.3787 12.1438 45.7212 0.0000 0.0000 0.0000
# 2 12.1438 67.9266 4.2433 0.0000 0.0000 0.0000
# 3 45.7212 4.2433 88.7814 0.0000 0.0000 0.0000
# 4 0.0000 0.0000 0.0000 24.4438 0.0000 0.0000
# 5 0.0000 0.0000 0.0000 0.0000 174.8706 0.0000
# 6 0.0000 0.0000 0.0000 0.0000 0.0000 41.8063
#
#
#
# Elastic Compliance Matrix: (Units=1/GPa)
#
#
# Indices 1 2 3 4 5 6 
#
# 1 0.009061 -0.001332 -0.004602 0.000000 0.000000 0.000000
# 2 -0.001332 0.014962 -0.000029 0.000000 0.000000 0.000000
# 3 -0.004602 -0.000029 0.013635 0.000000 0.000000 0.000000
# 4 0.000000 0.000000 0.000000 0.040910 0.000000 0.000000
# 5 0.000000 0.000000 0.000000 0.000000 0.005719 0.000000
# 6 0.000000 0.000000 0.000000 0.000000 0.000000 0.023920
#
#
# Mechanical properties :
#
#
# Convention : Reuss Voigt Hill
#
# Bulk Modulus (GPa) = 38.86493 46.25593 42.56043
# Shear Modulus (GPa) = 38.84701 63.55603 51.20152
#
# Velocity S-wave (km/s) = 4.05963 5.19261 4.66067
# Velocity P-wave (km/s) = 6.20179 7.45484 6.85700
#
# Compressibility (1/GPa) = 0.02573014
#
# Stress axis : x y z
#
# Youngs Moduli (GPa) = 110.36851 66.83704 73.33979
#
# Poissons Ratio (x) = 0.08905 0.33754
# Poissons Ratio (y) = 0.14705 0.00212
# Poissons Ratio (z) = 0.50796 0.00194
#
# Static dielectric constant tensor:
#      x y z
#    x 1.895800 0.000000 0.000000 
#    y 0.000000 2.023160 0.000000 
#    z 0.000000 0.000000 1.852870 
# 
# From -- ./inp_files/43170.got.cif
#   From: 2010.05.17/outbox.cif.g08.bks.cpg/sg72_22_cif.got.tgz:43170.got - 2010.06.03 17:03:01.
