data_PCOD9529579
_publ_section_title
;
Structure prediction by ZEFSAII (Michael W. Deem and Ramdas Pophale) SiO2 
 PCOD9529579
Probable space group: I B A M
;
_chemical_formula_sum "Si O2"
_cell_formula_units_Z 48
_cell_length_a 15.000000
_cell_length_b 15.000000
_cell_length_c 21.000000
_cell_angle_alpha 90.000000
_cell_angle_beta 90.000000
_cell_angle_gamma 90.000000
_cell_volume 4725.000000
_symmetry_space_group_name_H-M "I B A M"
_symmetry_group_IT_number 72
_symmetry_cell_setting 'orthorhombic'
loop_
_space_group_symop_operation_xyz
x,y,z
-x,-y,z
x,-y,1/2-z
-x,y,1/2-z
-x,-y,-z
x,y,-z
-x,y,1/2+z
x,-y,1/2+z
1/2+x,1/2+y,1/2+z
1/2-x,1/2-y,1/2+z
1/2+x,1/2-y,-z
1/2-x,1/2+y,-z
1/2-x,1/2-y,1/2-z
1/2+x,1/2+y,1/2-z
1/2-x,1/2+y,z
1/2+x,1/2-y,z
loop_
_atom_site_type_symbol
_atom_site_label
_atom_site_fract_x
_atom_site_fract_y
_atom_site_fract_z
Si Si1 0.625043 0.902861 0.427853
Si Si2 0.802525 0.599143 0.614258
Si Si3 0.586394 0.615950 0.175218
Si Si4 0.888886 0.901825 0.820822
Si Si5 0.698813 0.290434 0.567733
Si Si6 0.483193 0.894203 0.318686
O O1 0.588942 0.911005 0.500000
O O2 0.700854 0.827523 0.427199
O O3 0.549457 0.874366 0.377304
O O4 0.672008 0.999381 0.411070
O O5 0.704381 0.609291 0.643951
O O6 0.808091 0.683911 0.568253
O O7 0.880362 0.617998 0.664931
O O8 0.613785 0.633527 0.248264
O O9 0.483882 0.637360 0.157185
O O10 0.597320 0.508808 0.174312
O O11 0.647624 0.666898 0.126339
O O12 0.662756 0.324709 0.500000
O O13 0.500000 0.851138 0.250000
O O14 0.500000 0.000000 0.312646
#
# Coordination Sequence:
#
# PCOD9529579 Si02
#       6
#    16  16  16  16  16  16
#     4  10  22  42  63  86 126 169 202 247 313 369
#     4  11  22  38  63  90 120 159 210 254 296 362
#     4   9  19  39  62  91 122 157 199 246 309 363
#     4   9  19  37  66  91 119 157 199 251 306 361
#     4  11  24  40  61  91 123 161 204 250 300 362
#     4   9  21  38  61  91 121 159 206 256 307 359
#
# _framework density 10.15873
#
# number of rings (size 3 to 8) (size 9 to 14) (size 15 to 20)
#    0.000    2.167    1.667    1.500    2.333    7.000 
#    3.000    5.000    0.000    0.000    0.000    0.000 
#    0.000    0.000    0.000    0.000    0.000    0.000 
#
# Total GULP energy -267337.130493 kJ/mol
# GULP energy per Si atom -5569.523552 kJ/mol
# Density = 1.013561 g / cm^3
# Si number density = 10.158730 Si / 1000 Ang^3
#
#
#
# Elastic Constant Matrix: (Units=GPa)
#
#
# Indices 1 2 3 4 5 6 
#
# 1 94.6873 -3.7821 76.1306 0.0000 0.0000 0.0000
# 2 -3.7821 43.1356 14.5117 0.0000 0.0000 0.0000
# 3 76.1306 14.5117 120.5647 0.0000 0.0000 0.0000
# 4 0.0000 0.0000 0.0000 74.7548 0.0000 0.0000
# 5 0.0000 0.0000 0.0000 0.0000 14.5422 0.0000
# 6 0.0000 0.0000 0.0000 0.0000 0.0000 -9.8927
#
#
#
# Elastic Compliance Matrix: (Units=1/GPa)
#
#
# Indices 1 2 3 4 5 6 
#
# 1 0.023493 0.007348 -0.015719 0.000000 0.000000 0.000000
# 2 0.007348 0.026459 -0.007825 0.000000 0.000000 0.000000
# 3 -0.015719 -0.007825 0.019162 0.000000 0.000000 0.000000
# 4 0.000000 0.000000 0.000000 0.013377 0.000000 0.000000
# 5 0.000000 0.000000 0.000000 0.000000 0.068765 0.000000
# 6 0.000000 0.000000 0.000000 0.000000 0.000000 -0.101084
#
#
# Mechanical properties :
#
#
# Convention : Reuss Voigt Hill
#
# Bulk Modulus (GPa) = 27.23098 48.01202 37.62150
# Shear Modulus (GPa) = 52.73970 27.31603 40.02786
#
# Velocity S-wave (km/s) = 5.10041 3.67067 4.44342
# Velocity P-wave (km/s) = 6.93667 6.45347 6.69943
#
# Compressibility (1/GPa) = 0.03672288
#
# Stress axis : x y z
#
# Youngs Moduli (GPa) = 42.56557 37.79381 52.18657
#
# Poissons Ratio (x) = -0.27771 0.82033
# Poissons Ratio (y) = -0.31278 0.40835
# Poissons Ratio (z) = 0.66910 0.29573
#
# Static dielectric constant tensor:
#      x y z
#    x 1.712720 0.000000 0.000000 
#    y 0.000000 1.769050 0.000000 
#    z 0.000000 0.000000 1.764120 
# 
# From -- ./inp_files/38055.got.cif
#   From: 2010.05.17/outbox.ucp.g08.bks.cvg/sg72_20_cif.got.tgz:38055.got - 2010.06.11 16:33:07.
