data_PCOD9529624
_publ_section_title
;
Structure prediction by ZEFSAII (Michael W. Deem and Ramdas Pophale) SiO2 
 PCOD9529624
Probable space group: I B C A 
;
_chemical_formula_sum "Si O2"
_cell_formula_units_Z 88
_cell_length_a 4.976394
_cell_length_b 29.546915
_cell_length_c 25.957751
_cell_angle_alpha 90.000000
_cell_angle_beta 90.000000
_cell_angle_gamma 90.000000
_cell_volume 3816.752184
_symmetry_space_group_name_H-M "I B C A "
_symmetry_group_IT_number 73
_symmetry_cell_setting 'orthorhombic'
loop_
_space_group_symop_operation_xyz
x,y,z
-x,1/2-y,z
x,-y,1/2-z
1/2-x,y,-z
-x,-y,-z
x,1/2+y,-z
-x,y,1/2+z
1/2+x,-y,z
1/2+x,1/2+y,1/2+z
1/2-x,-y,1/2+z
1/2+x,1/2-y,-z
-x,1/2+y,1/2-z
1/2-x,1/2-y,1/2-z
1/2+x,y,1/2-z
1/2-x,1/2+y,z
x,1/2-y,1/2+z
loop_
_atom_site_type_symbol
_atom_site_label
_atom_site_fract_x
_atom_site_fract_y
_atom_site_fract_z
Si Si1 0.500000 0.250000 0.462200
Si Si2 0.572260 0.203034 0.714119
Si Si3 0.759501 0.660123 0.937399
Si Si4 0.038528 0.604350 0.715394
Si Si5 0.240822 0.892200 0.561756
Si Si6 0.511647 0.469225 0.129233
O O1 0.750000 0.236015 0.500000
O O2 0.387413 0.208956 0.428138
O O3 0.500000 0.250000 0.685816
O O4 0.373981 0.203769 0.764302
O O5 0.511876 0.153945 0.690840
O O6 0.458734 0.648472 0.922738
O O7 0.963352 0.621129 0.918967
O O8 0.750000 0.658614 0.000000
O O9 0.842791 0.602046 0.764865
O O10 0.963497 0.563453 0.678398
O O11 0.250000 0.894715 0.500000
O O12 0.109219 0.937684 0.582627
O O13 0.211466 0.488228 0.129018
#
# Coordination Sequence:
#
# PCOD9529624 Si02
#       6
#     8  16  16  16  16  16
#     4  10  16  26  50  86 118 148 194 236 282 360
#     4   8  14  27  51  81 109 141 180 217 269 340
#     4   9  17  31  54  82 113 151 190 235 292 347
#     4  10  21  38  61  88 117 152 188 240 301 361
#     4  10  21  38  58  81 113 156 199 249 300 350
#     4  12  26  41  60  86 113 155 203 254 307 358
#
# _framework density 23.056253000000002
#
# number of rings (size 3 to 8) (size 9 to 14) (size 15 to 20)
#    0.000    2.182    0.000    4.909    0.000    2.909 
#    0.000    0.000    4.000    0.000    4.727    0.000 
#    0.000    0.000    0.000    0.000    0.000    0.000 
#
# Total GULP energy -245742.321411 kJ/mol
# GULP energy per Si atom -5585.052759 kJ/mol
# Density = 2.300378 g / cm^3
# Si number density = 23.056253 Si / 1000 Ang^3
#
#
#
# Elastic Constant Matrix: (Units=GPa)
#
#
# Indices 1 2 3 4 5 6 
#
# 1 82.9642 3.9042 -1.3322 0.0000 0.0000 0.0000
# 2 3.9042 108.5036 19.0437 0.0000 0.0000 0.0000
# 3 -1.3322 19.0437 50.1236 0.0000 0.0000 0.0000
# 4 0.0000 0.0000 0.0000 25.1186 0.0000 0.0000
# 5 0.0000 0.0000 0.0000 0.0000 2.3334 0.0000
# 6 0.0000 0.0000 0.0000 0.0000 0.0000 45.2785
#
#
#
# Elastic Compliance Matrix: (Units=1/GPa)
#
#
# Indices 1 2 3 4 5 6 
#
# 1 0.012087 -0.000526 0.000521 0.000000 0.000000 0.000000
# 2 -0.000526 0.009898 -0.003774 0.000000 0.000000 0.000000
# 3 0.000521 -0.003774 0.021399 0.000000 0.000000 0.000000
# 4 0.000000 0.000000 0.000000 0.039811 0.000000 0.000000
# 5 0.000000 0.000000 0.000000 0.000000 0.428559 0.000000
# 6 0.000000 0.000000 0.000000 0.000000 0.000000 0.022086
#
#
# Mechanical properties :
#
#
# Convention : Reuss Voigt Hill
#
# Bulk Modulus (GPa) = 27.91461 31.64701 29.78081
# Shear Modulus (GPa) = 9.03606 29.21114 19.12360
#
# Velocity S-wave (km/s) = 1.98183 3.56329 2.88311
# Velocity P-wave (km/s) = 4.16777 5.53942 4.90181
#
# Compressibility (1/GPa) = 0.03582354
#
# Stress axis : x y z
#
# Youngs Moduli (GPa) = 82.73675 101.03366 46.73205
#
# Poissons Ratio (x) = 0.05318 -0.02436
# Poissons Ratio (y) = 0.04355 0.17639
# Poissons Ratio (z) = -0.04312 0.38135
#
# Static dielectric constant tensor:
#      x y z
#    x 1.821330 0.000000 0.000000 
#    y 0.000000 1.911320 0.000000 
#    z 0.000000 0.000000 1.874640 
# 
# From -- ./inp_files/33302.got.cif
#   From: 2010.05.17/outbox.cif.g08.bks.cpg/sg73_17_cif.got.tgz:33302.got - 2010.06.03 17:35:07.
