data_PCOD9529637
_publ_section_title
;
Structure prediction by ZEFSAII (Michael W. Deem and Ramdas Pophale) SiO2 
 PCOD9529637
Probable space group: I B C A 
;
_chemical_formula_sum "Si O2"
_cell_formula_units_Z 96
_cell_length_a 21.498085
_cell_length_b 31.688167
_cell_length_c 5.525126
_cell_angle_alpha 90.000000
_cell_angle_beta 90.000000
_cell_angle_gamma 90.000000
_cell_volume 3763.908700
_symmetry_space_group_name_H-M "I B C A "
_symmetry_group_IT_number 73
_symmetry_cell_setting 'orthorhombic'
loop_
_space_group_symop_operation_xyz
x,y,z
-x,1/2-y,z
x,-y,1/2-z
1/2-x,y,-z
-x,-y,-z
x,1/2+y,-z
-x,y,1/2+z
1/2+x,-y,z
1/2+x,1/2+y,1/2+z
1/2-x,-y,1/2+z
1/2+x,1/2-y,-z
-x,1/2+y,1/2-z
1/2-x,1/2-y,1/2-z
1/2+x,y,1/2-z
1/2-x,1/2+y,z
x,1/2-y,1/2+z
loop_
_atom_site_type_symbol
_atom_site_label
_atom_site_fract_x
_atom_site_fract_y
_atom_site_fract_z
Si Si1 0.614313 0.888743 0.490526
Si Si2 0.975174 0.702806 0.707169
Si Si3 0.071018 0.482617 0.997664
Si Si4 0.853183 0.137022 0.485534
Si Si5 0.250000 0.565195 0.000000
Si Si6 0.250000 0.570092 0.500000
Si Si7 0.331353 0.725502 0.878889
O O1 0.575958 0.932223 0.478460
O O2 0.612582 0.861195 0.245461
O O3 0.687944 0.901424 0.503957
O O4 0.601817 0.869060 0.754336
O O5 0.904693 0.714726 0.634737
O O6 0.000000 0.750000 0.749390
O O7 0.009592 0.683190 0.472241
O O8 0.100624 0.500000 0.750000
O O9 0.098996 0.500000 0.250000
O O10 0.000000 0.500000 0.000000
O O11 0.810295 0.095714 0.501991
O O12 0.810998 0.177392 0.422200
O O13 0.249961 0.544069 0.743287
O O14 0.315952 0.752838 0.120153
#
# Coordination Sequence:
#
# PCOD9529637 Si02
#       7
#    16  16  16  16   8   8  16
#     4  10  19  38  60  85 116 148 200 238 280 343
#     4  10  16  30  49  62  86 129 167 213 271 342
#     4  10  21  38  64  84 116 165 188 215 282 349
#     4  10  21  35  58  83 112 150 194 248 281 341
#     4   8  16  34  52  76 110 150 188 228 304 340
#     4   8  16  30  58  84 108 150 186 240 286 326
#     4  12  21  33  53  78 108 144 190 237 302 348
#
# _framework density 25.505400999999999
#
# number of rings (size 3 to 8) (size 9 to 14) (size 15 to 20)
#    0.000    2.000    3.333    2.000    0.000    0.000 
#    0.000    1.667   22.000    0.000    0.000    0.000 
#    0.000    0.000    0.000    0.000    0.000    0.000 
#
# Total GULP energy -267756.745345 kJ/mol
# GULP energy per Si atom -5578.265528 kJ/mol
# Density = 2.544735 g / cm^3
# Si number density = 25.505401 Si / 1000 Ang^3
#
#
#
# Elastic Constant Matrix: (Units=GPa)
#
#
# Indices 1 2 3 4 5 6 
#
# 1 79.8786 -10.7165 5.2094 0.0000 0.0000 0.0000
# 2 -10.7165 105.3567 51.9722 0.0000 0.0000 0.0000
# 3 5.2094 51.9722 340.3478 0.0000 0.0000 0.0000
# 4 0.0000 0.0000 0.0000 59.6534 0.0000 0.0000
# 5 0.0000 0.0000 0.0000 0.0000 12.7026 0.0000
# 6 0.0000 0.0000 0.0000 0.0000 0.0000 -106.1839
#
#
#
# Elastic Compliance Matrix: (Units=1/GPa)
#
#
# Indices 1 2 3 4 5 6 
#
# 1 0.012749 0.001507 -0.000425 0.000000 0.000000 0.000000
# 2 0.001507 0.010443 -0.001618 0.000000 0.000000 0.000000
# 3 -0.000425 -0.001618 0.003192 0.000000 0.000000 0.000000
# 4 0.000000 0.000000 0.000000 0.016764 0.000000 0.000000
# 5 0.000000 0.000000 0.000000 0.000000 0.078724 0.000000
# 6 0.000000 0.000000 0.000000 0.000000 0.000000 -0.009418
#
#
# Mechanical properties :
#
#
# Convention : Reuss Voigt Hill
#
# Bulk Modulus (GPa) = 39.50919 68.72374 54.11646
# Shear Modulus (GPa) = 40.99608 25.17562 33.08585
#
# Velocity S-wave (km/s) = 4.01353 3.14518 3.60559
# Velocity P-wave (km/s) = 6.08293 6.33978 6.21268
#
# Compressibility (1/GPa) = 0.02531057
#
# Stress axis : x y z
#
# Youngs Moduli (GPa) = 78.43856 95.75965 313.31183
#
# Poissons Ratio (x) = -0.14426 0.13322
# Poissons Ratio (y) = -0.11817 0.50685
# Poissons Ratio (z) = 0.03335 0.15491
#
# Static dielectric constant tensor:
#      x y z
#    x 2.114870 0.000000 0.000000 
#    y 0.000000 1.419730 0.000000 
#    z 0.000000 0.000000 2.101430 
# 
# From -- ./inp_files/3234.got.cif
#   From: 2010.05.17/outbox.cif.g08.bks.cpg/sg73_2_cif.got.tgz:3234.got - 2010.06.03 17:35:07.
