data_PCOD9529172
_publ_section_title
;
Structure prediction by ZEFSAII (Michael W. Deem and Ramdas Pophale) SiO2 
 PCOD9529172
Probable space group: I B A M
;
_chemical_formula_sum "Si O2"
_cell_formula_units_Z 68
_cell_length_a 15.051438
_cell_length_b 22.589828
_cell_length_c 8.197195
_cell_angle_alpha 90.000000
_cell_angle_beta 90.000000
_cell_angle_gamma 90.000000
_cell_volume 2787.123317
_symmetry_space_group_name_H-M "I B A M"
_symmetry_group_IT_number 72
_symmetry_cell_setting 'orthorhombic'
loop_
_space_group_symop_operation_xyz
x,y,z
-x,-y,z
x,-y,1/2-z
-x,y,1/2-z
-x,-y,-z
x,y,-z
-x,y,1/2+z
x,-y,1/2+z
1/2+x,1/2+y,1/2+z
1/2-x,1/2-y,1/2+z
1/2+x,1/2-y,-z
1/2-x,1/2+y,-z
1/2-x,1/2-y,1/2-z
1/2+x,1/2+y,1/2-z
1/2-x,1/2+y,z
1/2+x,1/2-y,z
loop_
_atom_site_type_symbol
_atom_site_label
_atom_site_fract_x
_atom_site_fract_y
_atom_site_fract_z
Si Si1 0.000000 0.000000 0.500000
Si Si2 0.826428 0.561453 0.315844
Si Si3 0.382564 0.569160 0.808104
Si Si4 0.900088 0.800358 0.309422
Si Si5 0.900228 0.679852 0.811991
O O1 0.066797 0.040753 0.347929
O O2 0.865418 0.500000 0.250000
O O3 0.857600 0.572620 0.500000
O O4 0.720294 0.553561 0.318259
O O5 0.847797 0.619145 0.211781
O O6 0.379360 0.639964 0.787445
O O7 0.420735 0.555938 0.000000
O O8 0.894610 0.813839 0.500000
O O9 0.856556 0.736375 0.277528
O O10 0.000000 0.787969 0.250000
O O11 0.000000 0.667521 0.750000
O O12 0.904701 0.696499 0.000000
#
# Coordination Sequence:
#
# PCOD9529172 Si02
#       5
#     4  16  16  16  16
#     4   8  20  44  72  96 134 190 230 290 342 430
#     4  11  24  43  65  97 139 183 233 298 359 435
#     4   9  21  42  66  96 137 184 237 293 356 431
#     4  11  22  39  65  98 136 181 237 300 362 435
#     4  11  23  43  71 101 135 179 234 299 371 441
#
# _framework density 24.397915999999999
#
# number of rings (size 3 to 8) (size 9 to 14) (size 15 to 20)
#    0.706    0.941    0.000    6.353    0.000    5.176 
#    0.000    2.941    0.000    0.000    0.000    0.000 
#    0.000    0.000    0.000    0.000    0.000    0.000 
#
# Total GULP energy -189585.332521 kJ/mol
# GULP energy per Si atom -5576.039192 kJ/mol
# Density = 2.434238 g / cm^3
# Si number density = 24.397916 Si / 1000 Ang^3
#
#
#
# Elastic Constant Matrix: (Units=GPa)
#
#
# Indices 1 2 3 4 5 6 
#
# 1 51.8299 12.2202 21.7951 0.0000 0.0000 0.0000
# 2 12.2202 194.9122 60.5690 0.0000 0.0000 0.0000
# 3 21.7951 60.5690 155.3511 0.0000 0.0000 0.0000
# 4 0.0000 0.0000 0.0000 61.6750 0.0000 0.0000
# 5 0.0000 0.0000 0.0000 0.0000 22.1666 0.0000
# 6 0.0000 0.0000 0.0000 0.0000 0.0000 15.7155
#
#
#
# Elastic Compliance Matrix: (Units=1/GPa)
#
#
# Indices 1 2 3 4 5 6 
#
# 1 0.020538 -0.000446 -0.002707 0.000000 0.000000 0.000000
# 2 -0.000446 0.005848 -0.002217 0.000000 0.000000 0.000000
# 3 -0.002707 -0.002217 0.007681 0.000000 0.000000 0.000000
# 4 0.000000 0.000000 0.000000 0.016214 0.000000 0.000000
# 5 0.000000 0.000000 0.000000 0.000000 0.045113 0.000000
# 6 0.000000 0.000000 0.000000 0.000000 0.000000 0.063632
#
#
# Mechanical properties :
#
#
# Convention : Reuss Voigt Hill
#
# Bulk Modulus (GPa) = 42.87311 65.69577 54.28444
# Shear Modulus (GPa) = 28.16242 40.41201 34.28721
#
# Velocity S-wave (km/s) = 3.40118 4.07427 3.75284
# Velocity P-wave (km/s) = 5.74758 7.00843 6.40909
#
# Compressibility (1/GPa) = 0.02332465
#
# Stress axis : x y z
#
# Youngs Moduli (GPa) = 48.69123 171.01313 130.18590
#
# Poissons Ratio (x) = 0.07633 0.35246
# Poissons Ratio (y) = 0.02173 0.28865
# Poissons Ratio (z) = 0.13182 0.37918
#
# Static dielectric constant tensor:
#      x y z
#    x 1.977870 0.000000 0.000000 
#    y 0.000000 2.100050 0.000000 
#    z 0.000000 0.000000 2.116300 
# 
# From -- ./inp_files/4420.got.cif
#   From: 2010.05.17/outbox.cif.g08.bks.cpg/sg72_3_cif.got.tgz:4420.got - 2010.06.03 17:03:01.
