data_PCOD9529026
_publ_section_title
;
Structure prediction by ZEFSAII (Michael W. Deem and Ramdas Pophale) SiO2 
 PCOD9529026
Probable space group: I B A M
;
_chemical_formula_sum "Si O2"
_cell_formula_units_Z 88
_cell_length_a 14.594755
_cell_length_b 18.991036
_cell_length_c 15.140613
_cell_angle_alpha 90.000000
_cell_angle_beta 90.000000
_cell_angle_gamma 90.000000
_cell_volume 4196.516402
_symmetry_space_group_name_H-M "I B A M"
_symmetry_group_IT_number 72
_symmetry_cell_setting 'orthorhombic'
loop_
_space_group_symop_operation_xyz
x,y,z
-x,-y,z
x,-y,1/2-z
-x,y,1/2-z
-x,-y,-z
x,y,-z
-x,y,1/2+z
x,-y,1/2+z
1/2+x,1/2+y,1/2+z
1/2-x,1/2-y,1/2+z
1/2+x,1/2-y,-z
1/2-x,1/2+y,-z
1/2-x,1/2-y,1/2-z
1/2+x,1/2+y,1/2-z
1/2-x,1/2+y,z
1/2+x,1/2-y,z
loop_
_atom_site_type_symbol
_atom_site_label
_atom_site_fract_x
_atom_site_fract_y
_atom_site_fract_z
Si Si1 0.002483 0.916461 0.899101
Si Si2 0.135119 0.642914 0.601839
Si Si3 0.833556 0.158045 0.837595
Si Si4 0.162767 0.809277 0.362904
Si Si5 0.629897 0.194834 0.595304
Si Si6 0.500000 0.137072 0.250000
O O1 0.081276 0.892850 0.833133
O O2 0.912119 0.868555 0.885763
O O3 0.032811 0.903036 0.000000
O O4 0.000000 0.000000 0.890024
O O5 0.117370 0.624613 0.500000
O O6 0.239707 0.625766 0.627504
O O7 0.131044 0.729702 0.610565
O O8 0.069367 0.607247 0.675120
O O9 0.821416 0.190849 0.741605
O O10 0.863114 0.221212 0.900997
O O11 0.263407 0.827505 0.399996
O O12 0.590935 0.172087 0.500000
O O13 0.570517 0.174552 0.681105
#
# Coordination Sequence:
#
# PCOD9529026 Si02
#       6
#    16  16  16  16  16   8
#     4  11  24  39  57  85 118 157 200 239 287 351
#     4  11  21  35  56  82 116 156 191 236 297 344
#     4  11  20  37  55  79 117 149 196 242 283 354
#     4  11  20  37  55  79 117 149 196 242 283 354
#     4  11  21  35  56  82 116 156 191 236 297 344
#     4  12  20  34  48  84 110 140 186 236 288 336
#
# _framework density 20.969774000000001
#
# number of rings (size 3 to 8) (size 9 to 14) (size 15 to 20)
#    0.000    0.909    3.636    7.636    0.000    1.455 
#    0.000    0.000    0.000    0.000    0.000    2.545 
#    0.000    5.818    0.000    0.000    0.000    0.000 
#
# Total GULP energy -245308.403198 kJ/mol
# GULP energy per Si atom -5575.190982 kJ/mol
# Density = 2.092205 g / cm^3
# Si number density = 20.969774 Si / 1000 Ang^3
#
#
#
# Elastic Constant Matrix: (Units=GPa)
#
#
# Indices 1 2 3 4 5 6 
#
# 1 94.5296 24.5848 14.4756 0.0000 0.0000 0.0000
# 2 24.5848 26.8420 -3.5351 0.0000 0.0000 0.0000
# 3 14.4756 -3.5351 163.1139 -0.0001 0.0000 0.0000
# 4 0.0000 0.0000 -0.0001 5.6282 0.0000 0.0000
# 5 0.0000 0.0000 0.0000 0.0000 14.6991 0.0000
# 6 0.0000 0.0000 0.0000 0.0000 0.0000 -4.4074
#
#
#
# Elastic Compliance Matrix: (Units=1/GPa)
#
#
# Indices 1 2 3 4 5 6 
#
# 1 0.014269 -0.013273 -0.001554 0.000000 0.000000 0.000000
# 2 -0.013273 0.049709 0.002255 0.000000 0.000000 0.000000
# 3 -0.001554 0.002255 0.006317 0.000000 0.000000 0.000000
# 4 0.000000 0.000000 0.000000 0.177676 0.000000 0.000000
# 5 0.000000 0.000000 0.000000 0.000000 0.068031 0.000000
# 6 0.000000 0.000000 0.000000 0.000000 0.000000 -0.226893
#
#
# Mechanical properties :
#
#
# Convention : Reuss Voigt Hill
#
# Bulk Modulus (GPa) = 22.14780 39.50400 30.82590
# Shear Modulus (GPa) = 38.66865 19.78135 29.22500
#
# Velocity S-wave (km/s) = 4.29886 3.07469 3.73724
# Velocity P-wave (km/s) = 5.93506 5.61110 5.77535
#
# Compressibility (1/GPa) = 0.04515121
#
# Stress axis : x y z
#
# Youngs Moduli (GPa) = 70.08317 20.11696 158.29122
#
# Poissons Ratio (x) = 0.26702 0.24598
# Poissons Ratio (y) = 0.93025 -0.35699
# Poissons Ratio (z) = 0.10891 -0.04537
#
# Static dielectric constant tensor:
#      x y z
#    x 1.813120 0.000000 0.000000 
#    y 0.000000 1.798710 0.000000 
#    z 0.000000 0.000000 1.802180 
# 
# From -- ./inp_files/21677.got.cif
#   From: 2010.05.17/outbox.cif.g08.bks.cpg/sg72_11_cif.got.tgz:21677.got - 2010.06.03 17:03:01.
