data_PCOD9529089
_publ_section_title
;
Structure prediction by ZEFSAII (Michael W. Deem and Ramdas Pophale) SiO2 
 PCOD9529089
Probable space group: I B A M
;
_chemical_formula_sum "Si O2"
_cell_formula_units_Z 116
_cell_length_a 11.853754
_cell_length_b 17.528012
_cell_length_c 29.465749
_cell_angle_alpha 90.000000
_cell_angle_beta 90.000000
_cell_angle_gamma 90.000000
_cell_volume 6122.179475
_symmetry_space_group_name_H-M "I B A M"
_symmetry_group_IT_number 72
_symmetry_cell_setting 'orthorhombic'
loop_
_space_group_symop_operation_xyz
x,y,z
-x,-y,z
x,-y,1/2-z
-x,y,1/2-z
-x,-y,-z
x,y,-z
-x,y,1/2+z
x,-y,1/2+z
1/2+x,1/2+y,1/2+z
1/2-x,1/2-y,1/2+z
1/2+x,1/2-y,-z
1/2-x,1/2+y,-z
1/2-x,1/2-y,1/2-z
1/2+x,1/2+y,1/2-z
1/2-x,1/2+y,z
1/2+x,1/2-y,z
loop_
_atom_site_type_symbol
_atom_site_label
_atom_site_fract_x
_atom_site_fract_y
_atom_site_fract_z
Si Si1 0.500000 0.000000 0.250000
Si Si2 0.957099 0.587811 0.447153
Si Si3 0.315176 0.068449 0.314976
Si Si4 0.245089 0.032721 0.101523
Si Si5 0.830390 0.876700 0.446294
Si Si6 0.864681 0.311753 0.391135
Si Si7 0.961624 0.144075 0.384893
Si Si8 0.559858 0.417257 0.705628
O O1 0.417029 0.049369 0.281637
O O2 0.955794 0.610246 0.500000
O O3 0.833825 0.584768 0.425113
O O4 0.000000 0.500000 0.444643
O O5 0.040297 0.640616 0.418406
O O6 0.339396 0.143986 0.344373
O O7 0.194336 0.074269 0.289967
O O8 0.300073 0.001682 0.352753
O O9 0.134111 0.079814 0.113124
O O10 0.211910 0.959621 0.071003
O O11 0.822613 0.871834 0.500000
O O12 0.747540 0.817151 0.421707
O O13 0.955675 0.864304 0.427665
O O14 0.905645 0.226561 0.383770
O O15 0.035293 0.129080 0.339967
O O16 0.500000 0.500000 0.700120
O O17 0.500000 0.382785 0.750000
#
# Coordination Sequence:
#
# PCOD9529089 Si02
#       8
#     4  16  16  16  16  16  16  16
#     4  12  24  40  66 108 122 168 226 274 316 392
#     4  11  21  38  64  91 123 171 222 261 308 381
#     4  11  22  42  66  95 133 164 212 274 326 381
#     4  11  22  40  69  95 124 175 219 269 323 383
#     4  11  23  43  66  94 133 172 222 276 318 378
#     4  11  25  43  63  93 136 176 209 268 333 388
#     4  12  25  43  65  97 135 173 218 267 336 395
#     4  11  21  42  72  98 120 167 218 268 330 396
#
# _framework density 18.947500999999999
#
# number of rings (size 3 to 8) (size 9 to 14) (size 15 to 20)
#    0.000    0.828    6.897    2.897    1.931    2.759 
#    1.241    0.690    0.000    0.000    0.000    0.000 
#    0.000    0.000    0.000    0.000    0.000    0.000 
#
# Total GULP energy -324288.550608 kJ/mol
# GULP energy per Si atom -5591.181907 kJ/mol
# Density = 1.890438 g / cm^3
# Si number density = 18.947501 Si / 1000 Ang^3
#
#
#
# Elastic Constant Matrix: (Units=GPa)
#
#
# Indices 1 2 3 4 5 6 
#
# 1 123.6080 20.1198 49.3433 0.0000 0.0000 0.0000
# 2 20.1198 54.7425 21.6744 0.0000 0.0000 0.0000
# 3 49.3433 21.6744 120.7030 0.0000 0.0000 0.0000
# 4 0.0000 0.0000 0.0000 4.4412 0.0000 0.0000
# 5 0.0000 0.0000 0.0000 0.0000 34.0345 0.0000
# 6 0.0000 0.0000 0.0000 0.0000 0.0000 18.9311
#
#
#
# Elastic Compliance Matrix: (Units=1/GPa)
#
#
# Indices 1 2 3 4 5 6 
#
# 1 0.009907 -0.002194 -0.003656 0.000000 0.000000 0.000000
# 2 -0.002194 0.020151 -0.002722 0.000000 0.000000 0.000000
# 3 -0.003656 -0.002722 0.010268 0.000000 0.000000 0.000000
# 4 0.000000 0.000000 0.000000 0.225165 0.000000 0.000000
# 5 0.000000 0.000000 0.000000 0.000000 0.029382 0.000000
# 6 0.000000 0.000000 0.000000 0.000000 0.000000 0.052823
#
#
# Mechanical properties :
#
#
# Convention : Reuss Voigt Hill
#
# Bulk Modulus (GPa) = 43.13434 53.48093 48.30763
# Shear Modulus (GPa) = 13.42044 25.34244 19.38144
#
# Velocity S-wave (km/s) = 2.66427 3.66116 3.20175
# Velocity P-wave (km/s) = 5.68147 6.79406 6.26252
#
# Compressibility (1/GPa) = 0.02318339
#
# Stress axis : x y z
#
# Youngs Moduli (GPa) = 100.94342 49.62487 97.38919
#
# Poissons Ratio (x) = 0.10885 0.35605
# Poissons Ratio (y) = 0.22142 0.26507
# Poissons Ratio (z) = 0.36904 0.13507
#
# Static dielectric constant tensor:
#      x y z
#    x 1.667730 0.000000 0.000000 
#    y 0.000000 1.631720 0.000000 
#    z 0.000000 0.000000 1.651660 
# 
# From -- ./inp_files/48214.got.cif
#   From: 2010.05.17/outbox.cif.g08.bks.cpg/sg72_25_cif.got.tgz:48214.got - 2010.06.03 17:03:01.
