data_PCOD9529124
_publ_section_title
;
Structure prediction by ZEFSAII (Michael W. Deem and Ramdas Pophale) SiO2 
 PCOD9529124
Probable space group: I B A M
;
_chemical_formula_sum "Si O2"
_cell_formula_units_Z 112
_cell_length_a 16.209724
_cell_length_b 28.618238
_cell_length_c 14.580161
_cell_angle_alpha 90.000000
_cell_angle_beta 90.000000
_cell_angle_gamma 90.000000
_cell_volume 6763.645407
_symmetry_space_group_name_H-M "I B A M"
_symmetry_group_IT_number 72
_symmetry_cell_setting 'orthorhombic'
loop_
_space_group_symop_operation_xyz
x,y,z
-x,-y,z
x,-y,1/2-z
-x,y,1/2-z
-x,-y,-z
x,y,-z
-x,y,1/2+z
x,-y,1/2+z
1/2+x,1/2+y,1/2+z
1/2-x,1/2-y,1/2+z
1/2+x,1/2-y,-z
1/2-x,1/2+y,-z
1/2-x,1/2-y,1/2-z
1/2+x,1/2+y,1/2-z
1/2-x,1/2+y,z
1/2+x,1/2-y,z
loop_
_atom_site_type_symbol
_atom_site_label
_atom_site_fract_x
_atom_site_fract_y
_atom_site_fract_z
Si Si1 0.802509 0.736071 0.894301
Si Si2 0.267352 0.161015 0.109400
Si Si3 0.887178 0.209436 0.891091
Si Si4 0.045710 0.890426 0.110535
Si Si5 0.408316 0.510031 0.357000
Si Si6 0.362195 0.412609 0.394049
Si Si7 0.411154 0.200896 0.773075
O O1 0.786298 0.791421 0.880156
O O2 0.711917 0.713174 0.881660
O O3 0.864174 0.716028 0.819531
O O4 0.828634 0.729048 0.000000
O O5 0.212448 0.117778 0.144169
O O6 0.349962 0.168906 0.167209
O O7 0.286059 0.156916 0.000000
O O8 0.920521 0.159436 0.858894
O O9 0.923904 0.252045 0.833376
O O10 0.905246 0.215267 0.000000
O O11 0.103855 0.935030 0.130271
O O12 0.952896 0.901101 0.146729
O O13 0.040975 0.888351 0.000000
O O14 0.500000 0.500000 0.396735
O O15 0.411359 0.500000 0.250000
O O16 0.351117 0.468536 0.393212
O O17 0.366644 0.397514 0.500000
O O18 0.500000 0.180160 0.750000
#
# Coordination Sequence:
#
# PCOD9529124 Si02
#       7
#    16  16  16  16  16  16  16
#     4   9  19  34  48  63  90 122 157 200 244 288
#     4   9  18  33  50  68  93 125 162 205 244 290
#     4   9  18  33  49  68  94 125 161 202 243 289
#     4   9  17  29  46  67  94 127 162 194 231 282
#     4   9  17  27  38  64  97 127 158 194 228 266
#     4   9  17  29  47  66  91 130 163 189 231 283
#     4  11  22  32  47  70  93 124 162 208 250 290
#
# _framework density 16.559118000000002
#
# number of rings (size 3 to 8) (size 9 to 14) (size 15 to 20)
#    0.000    2.714    0.000    3.429    2.000    5.143 
#    2.571    0.000    0.000    0.000    0.000    0.000 
#    0.000    5.143    0.000   18.000    0.000    0.286 
#
# Total GULP energy -312106.602830 kJ/mol
# GULP energy per Si atom -5573.332193 kJ/mol
# Density = 1.652143 g / cm^3
# Si number density = 16.559118 Si / 1000 Ang^3
#
#
#
# Elastic Constant Matrix: (Units=GPa)
#
#
# Indices 1 2 3 4 5 6 
#
# 1 67.6791 45.4977 31.2206 0.0000 0.0000 0.0000
# 2 45.4977 108.3506 11.0827 0.0000 0.0000 0.0000
# 3 31.2206 11.0827 58.8507 0.0001 0.0000 0.0000
# 4 0.0000 0.0000 0.0001 15.0214 0.0000 0.0000
# 5 0.0000 0.0000 0.0000 0.0000 14.3464 0.0000
# 6 0.0000 0.0000 0.0000 0.0000 0.0000 26.1781
#
#
#
# Elastic Compliance Matrix: (Units=1/GPa)
#
#
# Indices 1 2 3 4 5 6 
#
# 1 0.027514 -0.010258 -0.012664 0.000000 0.000000 0.000000
# 2 -0.010258 0.013235 0.002950 0.000000 0.000000 0.000000
# 3 -0.012664 0.002950 0.023155 0.000000 0.000000 0.000000
# 4 0.000000 0.000000 0.000000 0.066572 0.000000 0.000000
# 5 0.000000 0.000000 0.000000 0.000000 0.069704 0.000000
# 6 0.000000 0.000000 0.000000 0.000000 0.000000 0.038200
#
#
# Mechanical properties :
#
#
# Convention : Reuss Voigt Hill
#
# Bulk Modulus (GPa) = 41.73924 45.60915 43.67419
# Shear Modulus (GPa) = 17.46350 20.91447 19.18899
#
# Velocity S-wave (km/s) = 3.25101 3.55775 3.40783
# Velocity P-wave (km/s) = 6.27320 6.66932 6.47429
#
# Compressibility (1/GPa) = 0.02395827
#
# Stress axis : x y z
#
# Youngs Moduli (GPa) = 36.34545 75.55694 43.18667
#
# Poissons Ratio (x) = 0.77506 0.54694
# Poissons Ratio (y) = 0.37283 -0.12738
# Poissons Ratio (z) = 0.46030 -0.22286
#
# Static dielectric constant tensor:
#      x y z
#    x 1.557790 0.000000 0.000000 
#    y 0.000000 1.573970 0.000000 
#    z 0.000000 0.000000 1.618010 
# 
# From -- ./inp_files/22316.got.cif
#   From: 2010.05.17/outbox.cif.g08.bks.cpg/sg72_12_cif.got.tgz:22316.got - 2010.06.03 17:03:01.
