data_PCOD9529478
_publ_section_title
;
Structure prediction by ZEFSAII (Michael W. Deem and Ramdas Pophale) SiO2 
 PCOD9529478
Probable space group: I B A M
;
_chemical_formula_sum "Si O2"
_cell_formula_units_Z 48
_cell_length_a 13.808336
_cell_length_b 11.319026
_cell_length_c 13.536471
_cell_angle_alpha 90.000000
_cell_angle_beta 90.000000
_cell_angle_gamma 90.000000
_cell_volume 2115.708646
_symmetry_space_group_name_H-M "I B A M"
_symmetry_group_IT_number 72
_symmetry_cell_setting 'orthorhombic'
loop_
_space_group_symop_operation_xyz
x,y,z
-x,-y,z
x,-y,1/2-z
-x,y,1/2-z
-x,-y,-z
x,y,-z
-x,y,1/2+z
x,-y,1/2+z
1/2+x,1/2+y,1/2+z
1/2-x,1/2-y,1/2+z
1/2+x,1/2-y,-z
1/2-x,1/2+y,-z
1/2-x,1/2-y,1/2-z
1/2+x,1/2+y,1/2-z
1/2-x,1/2+y,z
1/2+x,1/2-y,z
loop_
_atom_site_type_symbol
_atom_site_label
_atom_site_fract_x
_atom_site_fract_y
_atom_site_fract_z
Si Si1 0.058536 0.839432 0.890750
Si Si2 0.148512 0.142358 0.187821
Si Si3 0.860936 0.377747 0.206327
O O1 0.119897 0.894805 0.800814
O O2 0.070954 0.699262 0.865412
O O3 0.946639 0.875242 0.877621
O O4 0.093293 0.864958 0.000000
O O5 0.156388 0.285245 0.203640
O O6 0.254926 0.102323 0.158255
O O7 0.895716 0.500000 0.250000
#
# Coordination Sequence:
#
# PCOD9529478 Si02
#       3
#    16  16  16
#     4   9  17  32  54  74 101 137 171 210 255 305
#     4   8  18  33  51  74 103 136 167 213 262 302
#     4   9  17  34  54  72 101 136 171 214 255 306
#
# _framework density 22.687432999999999
#
# number of rings (size 3 to 8) (size 9 to 14) (size 15 to 20)
#    2.000    1.333    0.000    0.000    0.000    4.000 
#    0.000    8.333    0.000    2.000    0.000    0.000 
#    0.000    0.000    0.000    0.000    0.000    0.000 
#
# Total GULP energy -133647.615319 kJ/mol
# GULP energy per Si atom -5568.650638 kJ/mol
# Density = 2.263580 g / cm^3
# Si number density = 22.687433 Si / 1000 Ang^3
#
#
#
# Elastic Constant Matrix: (Units=GPa)
#
#
# Indices 1 2 3 4 5 6 
#
# 1 142.4129 23.6294 10.9456 0.0000 0.0000 0.0000
# 2 23.6294 97.0981 29.5176 0.0000 0.0000 0.0000
# 3 10.9456 29.5176 97.3150 0.0000 0.0000 0.0000
# 4 0.0000 0.0000 0.0000 17.3465 0.0000 0.0000
# 5 0.0000 0.0000 0.0000 0.0000 5.6599 0.0000
# 6 0.0000 0.0000 0.0000 0.0000 0.0000 31.2464
#
#
#
# Elastic Compliance Matrix: (Units=1/GPa)
#
#
# Indices 1 2 3 4 5 6 
#
# 1 0.007326 -0.001688 -0.000312 0.000000 0.000000 0.000000
# 2 -0.001688 0.011734 -0.003369 0.000000 0.000000 0.000000
# 3 -0.000312 -0.003369 0.011333 0.000000 0.000000 0.000000
# 4 0.000000 0.000000 0.000000 0.057649 0.000000 0.000000
# 5 0.000000 0.000000 0.000000 0.000000 0.176681 0.000000
# 6 0.000000 0.000000 0.000000 0.000000 0.000000 0.032004
#
#
# Mechanical properties :
#
#
# Convention : Reuss Voigt Hill
#
# Bulk Modulus (GPa) = 50.87947 51.66793 51.27370
# Shear Modulus (GPa) = 15.92278 29.03277 22.47778
#
# Velocity S-wave (km/s) = 2.65209 3.58115 3.15105
# Velocity P-wave (km/s) = 5.64385 6.31845 5.99065
#
# Compressibility (1/GPa) = 0.01965429
#
# Stress axis : x y z
#
# Youngs Moduli (GPa) = 136.50228 85.22326 88.23812
#
# Poissons Ratio (x) = 0.14385 0.02753
# Poissons Ratio (y) = 0.23041 0.29730
# Poissons Ratio (z) = 0.04259 0.28714
#
# Static dielectric constant tensor:
#      x y z
#    x 1.887770 0.000000 0.000000 
#    y 0.000000 2.045880 0.000000 
#    z 0.000000 0.000000 1.792490 
# 
# From -- ./inp_files/12070.got.cif
#   From: 2010.05.17/outbox.cif.g08.bks.cpg/sg72_7_cif.got.tgz:12070.got - 2010.06.03 17:03:01.
