data_PCOD9529251
_publ_section_title
;
Structure prediction by ZEFSAII (Michael W. Deem and Ramdas Pophale) SiO2 
 PCOD9529251
Probable space group: I B A M
;
_chemical_formula_sum "Si O2"
_cell_formula_units_Z 88
_cell_length_a 8.521269
_cell_length_b 20.455279
_cell_length_c 23.853488
_cell_angle_alpha 90.000000
_cell_angle_beta 90.000000
_cell_angle_gamma 90.000000
_cell_volume 4157.780671
_symmetry_space_group_name_H-M "I B A M"
_symmetry_group_IT_number 72
_symmetry_cell_setting 'orthorhombic'
loop_
_space_group_symop_operation_xyz
x,y,z
-x,-y,z
x,-y,1/2-z
-x,y,1/2-z
-x,-y,-z
x,y,-z
-x,y,1/2+z
x,-y,1/2+z
1/2+x,1/2+y,1/2+z
1/2-x,1/2-y,1/2+z
1/2+x,1/2-y,-z
1/2-x,1/2+y,-z
1/2-x,1/2-y,1/2-z
1/2+x,1/2+y,1/2-z
1/2-x,1/2+y,z
1/2+x,1/2-y,z
loop_
_atom_site_type_symbol
_atom_site_label
_atom_site_fract_x
_atom_site_fract_y
_atom_site_fract_z
Si Si1 0.401165 0.102765 0.800389
Si Si2 0.382665 0.824425 0.110320
Si Si3 0.395260 0.900398 0.000000
Si Si4 0.464867 0.299092 0.861101
Si Si5 0.617955 0.439858 0.123551
Si Si6 0.000000 0.724871 0.250000
Si Si7 0.265340 0.953313 0.500000
O O1 0.500000 0.069605 0.750000
O O2 0.515957 0.127632 0.850088
O O3 0.260884 0.064688 0.830944
O O4 0.364677 0.172761 0.769361
O O5 0.341303 0.862970 0.054713
O O6 0.480309 0.758669 0.097250
O O7 0.221283 0.804400 0.139182
O O8 0.584246 0.905691 0.000000
O O9 0.329100 0.973007 0.000000
O O10 0.533987 0.369892 0.872189
O O11 0.525919 0.270241 0.802657
O O12 0.500000 0.500000 0.135334
O O13 0.676333 0.445304 0.059085
#
# Coordination Sequence:
#
# PCOD9529251 Si02
#       7
#    16  16   8  16  16   8   8
#     4   9  21  42  73 105 137 191 246 300 369 436
#     4  11  23  42  69 110 137 187 249 314 368 443
#     4  11  24  45  73 100 141 195 246 299 386 435
#     4  11  24  40  71 106 143 185 246 308 379 443
#     4  12  25  45  73 110 149 196 251 307 374 463
#     4   8  20  40  71 100 145 192 240 302 378 432
#     4  11  25  47  75  96 144 205 242 300 371 472
#
# _framework density 21.165137999999999
#
# number of rings (size 3 to 8) (size 9 to 14) (size 15 to 20)
#    0.545    0.909    1.818    3.545    2.545    4.364 
#    0.000    0.455    4.000    4.364    0.000    0.000 
#    0.000    0.000    0.000    0.000    0.000    0.000 
#
# Total GULP energy -245461.474467 kJ/mol
# GULP energy per Si atom -5578.669874 kJ/mol
# Density = 2.111697 g / cm^3
# Si number density = 21.165138 Si / 1000 Ang^3
#
#
#
# Elastic Constant Matrix: (Units=GPa)
#
#
# Indices 1 2 3 4 5 6 
#
# 1 131.2303 49.7762 59.8198 0.0000 0.0000 0.0000
# 2 49.7762 120.1733 64.0777 0.0000 0.0000 0.0000
# 3 59.8198 64.0777 126.1992 0.0000 0.0000 0.0000
# 4 0.0000 0.0000 0.0000 24.1563 0.0000 0.0000
# 5 0.0000 0.0000 0.0000 0.0000 4.1573 0.0000
# 6 0.0000 0.0000 0.0000 0.0000 0.0000 42.3563
#
#
#
# Elastic Compliance Matrix: (Units=1/GPa)
#
#
# Indices 1 2 3 4 5 6 
#
# 1 0.010144 -0.002246 -0.003668 0.000000 0.000000 0.000000
# 2 -0.002246 0.011908 -0.004982 0.000000 0.000000 0.000000
# 3 -0.003668 -0.004982 0.012192 0.000000 0.000000 0.000000
# 4 0.000000 0.000000 0.000000 0.041397 0.000000 0.000000
# 5 0.000000 0.000000 0.000000 0.000000 0.240543 0.000000
# 6 0.000000 0.000000 0.000000 0.000000 0.000000 0.023609
#
#
# Mechanical properties :
#
#
# Convention : Reuss Voigt Hill
#
# Bulk Modulus (GPa) = 80.30270 80.55005 80.42637
# Shear Modulus (GPa) = 13.67106 27.72922 20.70014
#
# Velocity S-wave (km/s) = 2.54426 3.62351 3.13074
# Velocity P-wave (km/s) = 6.83040 7.45969 7.15197
#
# Compressibility (1/GPa) = 0.01245288
#
# Stress axis : x y z
#
# Youngs Moduli (GPa) = 98.57935 83.97839 82.02020
#
# Poissons Ratio (x) = 0.18860 0.30086
# Poissons Ratio (y) = 0.22140 0.40859
# Poissons Ratio (z) = 0.36160 0.41835
#
# Static dielectric constant tensor:
#      x y z
#    x 1.806160 0.000000 0.000000 
#    y 0.000000 1.756390 0.000000 
#    z 0.000000 0.000000 1.783850 
# 
# From -- ./inp_files/42311.got.cif
#   From: 2010.05.17/outbox.cif.g08.bks.cpg/sg72_22_cif.got.tgz:42311.got - 2010.06.03 17:03:01.
