data_PCOD9529486
_publ_section_title
;
Structure prediction by ZEFSAII (Michael W. Deem and Ramdas Pophale) SiO2 
 PCOD9529486
Probable space group: I B A M
;
_chemical_formula_sum "Si O2"
_cell_formula_units_Z 48
_cell_length_a 15.420351
_cell_length_b 9.383791
_cell_length_c 13.382644
_cell_angle_alpha 90.000000
_cell_angle_beta 90.000000
_cell_angle_gamma 90.000000
_cell_volume 1936.486666
_symmetry_space_group_name_H-M "I B A M"
_symmetry_group_IT_number 72
_symmetry_cell_setting 'orthorhombic'
loop_
_space_group_symop_operation_xyz
x,y,z
-x,-y,z
x,-y,1/2-z
-x,y,1/2-z
-x,-y,-z
x,y,-z
-x,y,1/2+z
x,-y,1/2+z
1/2+x,1/2+y,1/2+z
1/2-x,1/2-y,1/2+z
1/2+x,1/2-y,-z
1/2-x,1/2+y,-z
1/2-x,1/2-y,1/2-z
1/2+x,1/2+y,1/2-z
1/2-x,1/2+y,z
1/2+x,1/2-y,z
loop_
_atom_site_type_symbol
_atom_site_label
_atom_site_fract_x
_atom_site_fract_y
_atom_site_fract_z
Si Si1 0.119443 0.000000 0.250000
Si Si2 0.500000 0.751530 0.750000
Si Si3 0.752112 0.665434 0.880813
Si Si4 0.365743 0.920435 0.379972
O O1 0.174721 0.928703 0.163072
O O2 0.065874 0.866904 0.295711
O O3 0.448179 0.848810 0.671778
O O4 0.719539 0.823447 0.853575
O O5 0.840024 0.582150 0.850347
O O6 0.752910 0.661132 0.000000
O O7 0.377237 0.915090 0.500000
#
# Coordination Sequence:
#
# PCOD9529486 Si02
#       4
#     8   8  16  16
#     4   9  18  32  52  77 106 142 182 219 260 318
#     4   9  18  30  50  81 110 137 174 221 272 319
#     4   9  18  32  53  79 106 140 181 222 264 316
#     4   9  18  34  56  81 107 138 179 224 269 317
#
# _framework density 24.787158000000002
#
# number of rings (size 3 to 8) (size 9 to 14) (size 15 to 20)
#    0.000    3.000    0.000    0.000    0.000    6.667 
#    0.000    6.667    0.000   19.000    0.000   23.333 
#    0.000    0.000    0.000    0.000    0.000    0.000 
#
# Total GULP energy -134110.942255 kJ/mol
# GULP energy per Si atom -5587.955927 kJ/mol
# Density = 2.473074 g / cm^3
# Si number density = 24.787158 Si / 1000 Ang^3
#
#
#
# Elastic Constant Matrix: (Units=GPa)
#
#
# Indices 1 2 3 4 5 6 
#
# 1 100.1824 68.6490 33.7952 0.0000 0.0000 0.0000
# 2 68.6490 169.0529 76.6781 0.0000 0.0000 0.0000
# 3 33.7952 76.6781 61.8354 0.0000 0.0000 0.0000
# 4 0.0000 0.0000 0.0000 40.3453 0.0000 0.0000
# 5 0.0000 0.0000 0.0000 0.0000 29.7807 0.0000
# 6 0.0000 0.0000 0.0000 0.0000 0.0000 141.0046
#
#
#
# Elastic Compliance Matrix: (Units=1/GPa)
#
#
# Indices 1 2 3 4 5 6 
#
# 1 0.013880 -0.005018 -0.001363 0.000000 0.000000 0.000000
# 2 -0.005018 0.015333 -0.016271 0.000000 0.000000 0.000000
# 3 -0.001363 -0.016271 0.037094 0.000000 0.000000 0.000000
# 4 0.000000 0.000000 0.000000 0.024786 0.000000 0.000000
# 5 0.000000 0.000000 0.000000 0.000000 0.033579 0.000000
# 6 0.000000 0.000000 0.000000 0.000000 0.000000 0.007092
#
#
# Mechanical properties :
#
#
# Convention : Reuss Voigt Hill
#
# Bulk Modulus (GPa) = 47.61436 76.59059 62.10247
# Shear Modulus (GPa) = 27.16346 52.35602 39.75974
#
# Velocity S-wave (km/s) = 3.31398 4.60088 4.00940
# Velocity P-wave (km/s) = 5.82188 7.69354 6.82220
#
# Compressibility (1/GPa) = 0.02100207
#
# Stress axis : x y z
#
# Youngs Moduli (GPa) = 72.04438 65.21754 26.95848
#
# Poissons Ratio (x) = 0.32727 0.03676
# Poissons Ratio (y) = 0.36153 0.43865
# Poissons Ratio (z) = 0.09823 1.06117
#
# Static dielectric constant tensor:
#      x y z
#    x 2.087460 0.000000 0.000000 
#    y 0.000000 2.022480 0.000000 
#    z 0.000000 0.000000 1.921570 
# 
# From -- ./inp_files/19371.got.cif
#   From: 2010.05.17/outbox.cif.g08.bks.cpg/sg72_10_cif.got.tgz:19371.got - 2010.06.03 17:03:01.
