data_PCOD9529738
_publ_section_title
;
Structure prediction by ZEFSAII (Michael W. Deem and Ramdas Pophale) SiO2 
 PCOD9529738
Probable space group: I B C A 
;
_chemical_formula_sum "Si O2"
_cell_formula_units_Z 104
_cell_length_a 17.965358
_cell_length_b 18.429860
_cell_length_c 16.282054
_cell_angle_alpha 90.000000
_cell_angle_beta 90.000000
_cell_angle_gamma 90.000000
_cell_volume 5390.972331
_symmetry_space_group_name_H-M "I B C A "
_symmetry_group_IT_number 73
_symmetry_cell_setting 'orthorhombic'
loop_
_space_group_symop_operation_xyz
x,y,z
-x,1/2-y,z
x,-y,1/2-z
1/2-x,y,-z
-x,-y,-z
x,1/2+y,-z
-x,y,1/2+z
1/2+x,-y,z
1/2+x,1/2+y,1/2+z
1/2-x,-y,1/2+z
1/2+x,1/2-y,-z
-x,1/2+y,1/2-z
1/2-x,1/2-y,1/2-z
1/2+x,y,1/2-z
1/2-x,1/2+y,z
x,1/2-y,1/2+z
loop_
_atom_site_type_symbol
_atom_site_label
_atom_site_fract_x
_atom_site_fract_y
_atom_site_fract_z
Si Si1 0.522584 0.042053 0.141672
Si Si2 0.750000 0.922785 0.500000
Si Si3 0.522215 0.106943 0.812837
Si Si4 0.508124 0.173606 0.525343
Si Si5 0.375927 0.662167 0.110647
Si Si6 0.690811 0.489621 0.843059
Si Si7 0.133759 0.820826 0.908768
O O1 0.486330 0.075874 0.222511
O O2 0.512624 0.101568 0.072948
O O3 0.487028 0.962949 0.126737
O O4 0.608898 0.026297 0.159219
O O5 0.813977 0.869513 0.465161
O O6 0.769942 0.971856 0.579452
O O7 0.449267 0.156377 0.830570
O O8 0.602684 0.140749 0.827417
O O9 0.500000 0.250000 0.574681
O O10 0.586564 0.158684 0.480139
O O11 0.444381 0.187091 0.457339
O O12 0.324301 0.594697 0.134567
O O13 0.337868 0.740751 0.112897
O O14 0.722313 0.500000 0.750000
#
# Coordination Sequence:
#
# PCOD9529738 Si02
#       7
#    16   8  16  16  16  16  16
#     4  10  17  33  59  90 120 148 195 262 311 358
#     4  12  26  40  64  82 126 176 202 254 288 378
#     4   9  18  32  58  86 116 152 191 255 317 354
#     4   9  18  31  55  91 118 143 194 253 314 360
#     4   9  19  36  61  84 116 150 198 263 301 359
#     4  11  22  43  62  86 116 169 214 240 306 367
#     4  10  21  37  54  88 121 156 198 242 314 357
#
# _framework density 19.291509999999999
#
# number of rings (size 3 to 8) (size 9 to 14) (size 15 to 20)
#    0.000    2.154    4.615    1.385    2.154    3.692 
#    2.769    0.769    0.000    0.000    0.000    0.000 
#    0.000    0.000    0.000    0.000    0.000    0.000 
#
# Total GULP energy -289470.154268 kJ/mol
# GULP energy per Si atom -5566.733736 kJ/mol
# Density = 1.924760 g / cm^3
# Si number density = 19.291510 Si / 1000 Ang^3
#
#
#
# Elastic Constant Matrix: (Units=GPa)
#
#
# Indices 1 2 3 4 5 6 
#
# 1 36.2586 26.0842 15.0780 0.0000 0.0000 0.0000
# 2 26.0842 113.1758 58.6219 0.0000 0.0000 0.0000
# 3 15.0780 58.6219 80.7810 0.0000 0.0000 0.0000
# 4 0.0000 0.0000 0.0000 8.4280 0.0000 0.0000
# 5 0.0000 0.0000 0.0000 0.0000 9.6347 0.0000
# 6 0.0000 0.0000 0.0000 0.0000 0.0000 10.1597
#
#
#
# Elastic Compliance Matrix: (Units=1/GPa)
#
#
# Indices 1 2 3 4 5 6 
#
# 1 0.033115 -0.007099 -0.001029 0.000000 0.000000 0.000000
# 2 -0.007099 0.015679 -0.010053 0.000000 0.000000 0.000000
# 3 -0.001029 -0.010053 0.019867 0.000000 0.000000 0.000000
# 4 0.000000 0.000000 0.000000 0.118652 0.000000 0.000000
# 5 0.000000 0.000000 0.000000 0.000000 0.103791 0.000000
# 6 0.000000 0.000000 0.000000 0.000000 0.000000 0.098428
#
#
# Mechanical properties :
#
#
# Convention : Reuss Voigt Hill
#
# Bulk Modulus (GPa) = 30.96192 47.75373 39.35783
# Shear Modulus (GPa) = 11.45053 14.33990 12.89521
#
# Velocity S-wave (km/s) = 2.43894 2.72936 2.58822
# Velocity P-wave (km/s) = 4.90057 5.89407 5.42013
#
# Compressibility (1/GPa) = 0.03229774
#
# Stress axis : x y z
#
# Youngs Moduli (GPa) = 30.19808 63.77859 50.33525
#
# Poissons Ratio (x) = 0.45276 0.05181
# Poissons Ratio (y) = 0.21438 0.50603
# Poissons Ratio (z) = 0.03108 0.64118
#
# Static dielectric constant tensor:
#      x y z
#    x 1.652130 0.000000 0.000000 
#    y 0.000000 1.789160 0.000000 
#    z 0.000000 0.000000 1.718530 
# 
# From -- ./inp_files/22638.got.cif
#   From: 2010.05.17/outbox.cif.g08.bks.cpg/sg73_12_cif.got.tgz:22638.got - 2010.06.03 17:35:07.
