data_PCOD9529980
_publ_section_title
;
Structure prediction by ZEFSAII (Michael W. Deem and Ramdas Pophale) SiO2 
 PCOD9529980
Probable space group: I B C A 
;
_chemical_formula_sum "Si O2"
_cell_formula_units_Z 88
_cell_length_a 11.308857
_cell_length_b 14.100475
_cell_length_c 24.695018
_cell_angle_alpha 90.000000
_cell_angle_beta 90.000000
_cell_angle_gamma 90.000000
_cell_volume 3937.873878
_symmetry_space_group_name_H-M "I B C A "
_symmetry_group_IT_number 73
_symmetry_cell_setting 'orthorhombic'
loop_
_space_group_symop_operation_xyz
x,y,z
-x,1/2-y,z
x,-y,1/2-z
1/2-x,y,-z
-x,-y,-z
x,1/2+y,-z
-x,y,1/2+z
1/2+x,-y,z
1/2+x,1/2+y,1/2+z
1/2-x,-y,1/2+z
1/2+x,1/2-y,-z
-x,1/2+y,1/2-z
1/2-x,1/2-y,1/2-z
1/2+x,y,1/2-z
1/2-x,1/2+y,z
x,1/2-y,1/2+z
loop_
_atom_site_type_symbol
_atom_site_label
_atom_site_fract_x
_atom_site_fract_y
_atom_site_fract_z
Si Si1 0.653980 0.713401 0.551607
Si Si2 0.140661 0.407157 0.404355
Si Si3 0.067668 0.883929 0.896434
Si Si4 0.000000 0.750000 0.045530
Si Si5 0.705135 0.395468 0.221502
Si Si6 0.471654 0.392758 0.273914
O O1 0.757073 0.638561 0.559715
O O2 0.539930 0.651078 0.567040
O O3 0.661760 0.798774 0.595514
O O4 0.614507 0.760033 0.494304
O O5 0.115623 0.516170 0.415783
O O6 0.183875 0.403216 0.342479
O O7 0.027351 0.341260 0.417638
O O8 0.014049 0.893254 0.836321
O O9 0.707135 0.500000 0.250000
O O10 0.584967 0.347803 0.243865
O O11 0.837197 0.355129 0.230815
O O12 0.463950 0.500000 0.250000
#
# Coordination Sequence:
#
# PCOD9529980 Si02
#       6
#    16  16  16   8  16  16
#     4  10  25  46  68 105 144 184 258 327 365 472
#     4  12  22  45  75 103 144 202 242 318 403 449
#     4  10  21  42  73  96 143 198 242 298 392 452
#     4  10  26  46  66 102 142 168 264 316 360 464
#     4  10  20  36  69 102 145 191 245 308 367 462
#     4  10  18  37  64 103 144 190 242 309 362 458
#
# _framework density 22.347085
#
# number of rings (size 3 to 8) (size 9 to 14) (size 15 to 20)
#    0.000    1.818    5.455    0.545    0.000    4.364 
#    3.273    6.364    0.000    0.000    0.000    0.000 
#    0.000    0.000    0.000    0.000    0.000    0.000 
#
# Total GULP energy -245184.284190 kJ/mol
# GULP energy per Si atom -5572.370095 kJ/mol
# Density = 2.229622 g / cm^3
# Si number density = 22.347085 Si / 1000 Ang^3
#
#
#
# Elastic Constant Matrix: (Units=GPa)
#
#
# Indices 1 2 3 4 5 6 
#
# 1 135.9002 78.3308 44.0400 0.0000 0.0000 0.0000
# 2 78.3308 137.0854 34.8552 0.0000 0.0000 0.0000
# 3 44.0400 34.8552 101.6605 0.0000 0.0000 0.0000
# 4 0.0000 0.0000 0.0000 242.7782 0.0000 0.0000
# 5 0.0000 0.0000 0.0000 0.0000 29.0484 0.0000
# 6 0.0000 0.0000 0.0000 0.0000 0.0000 16.1166
#
#
#
# Elastic Compliance Matrix: (Units=1/GPa)
#
#
# Indices 1 2 3 4 5 6 
#
# 1 0.011783 -0.005954 -0.003063 0.000000 0.000000 0.000000
# 2 -0.005954 0.011000 -0.001192 0.000000 0.000000 0.000000
# 3 -0.003063 -0.001192 0.011572 0.000000 0.000000 0.000000
# 4 0.000000 0.000000 0.000000 0.004119 0.000000 0.000000
# 5 0.000000 0.000000 0.000000 0.000000 0.034425 0.000000
# 6 0.000000 0.000000 0.000000 0.000000 0.000000 0.062048
#
#
# Mechanical properties :
#
#
# Convention : Reuss Voigt Hill
#
# Bulk Modulus (GPa) = 71.75225 76.56649 74.15937
# Shear Modulus (GPa) = 31.24791 72.08331 51.66561
#
# Velocity S-wave (km/s) = 3.74344 5.68562 4.81350
# Velocity P-wave (km/s) = 7.13178 8.79991 8.00939
#
# Compressibility (1/GPa) = 0.01393684
#
# Stress axis : x y z
#
# Youngs Moduli (GPa) = 84.87068 90.91023 86.41315
#
# Poissons Ratio (x) = 0.54126 0.26468
# Poissons Ratio (y) = 0.50530 0.10302
# Poissons Ratio (z) = 0.25996 0.10838
#
# Static dielectric constant tensor:
#      x y z
#    x 1.985450 0.000000 0.000000 
#    y 0.000000 1.804630 0.000000 
#    z 0.000000 0.000000 1.879560 
# 
# From -- ./inp_files/28830.got.cif
#   From: 2010.05.17/outbox.cif.g08.bks.cpg/sg73_15_cif.got.tgz:28830.got - 2010.06.03 17:35:07.
