data_PCOD9529554
_publ_section_title
;
Structure prediction by ZEFSAII (Michael W. Deem and Ramdas Pophale) SiO2 
 PCOD9529554
Probable space group: I B A M
;
_chemical_formula_sum "Si O2"
_cell_formula_units_Z 48
_cell_length_a 18.000000
_cell_length_b 12.000000
_cell_length_c 24.000000
_cell_angle_alpha 90.000000
_cell_angle_beta 90.000000
_cell_angle_gamma 90.000000
_cell_volume 5184.000000
_symmetry_space_group_name_H-M "I B A M"
_symmetry_group_IT_number 72
_symmetry_cell_setting 'orthorhombic'
loop_
_space_group_symop_operation_xyz
x,y,z
-x,-y,z
x,-y,1/2-z
-x,y,1/2-z
-x,-y,-z
x,y,-z
-x,y,1/2+z
x,-y,1/2+z
1/2+x,1/2+y,1/2+z
1/2-x,1/2-y,1/2+z
1/2+x,1/2-y,-z
1/2-x,1/2+y,-z
1/2-x,1/2-y,1/2-z
1/2+x,1/2+y,1/2-z
1/2-x,1/2+y,z
1/2+x,1/2-y,z
loop_
_atom_site_type_symbol
_atom_site_label
_atom_site_fract_x
_atom_site_fract_y
_atom_site_fract_z
Si Si1 0.110600 0.201787 0.115654
Si Si2 0.022130 0.788930 0.191636
Si Si3 0.255706 0.223268 0.330450
Si Si4 0.044357 0.831271 0.500000
Si Si5 0.612964 0.580857 0.000000
Si Si6 0.349151 0.128182 0.770215
Si Si7 0.863354 0.062340 0.125582
O O1 0.190376 0.258114 0.118147
O O2 0.074782 0.219455 0.056062
O O3 0.051933 0.247329 0.160262
O O4 0.122863 0.069833 0.129102
O O5 0.074497 0.685537 0.209667
O O6 0.064971 0.872207 0.149820
O O7 0.000000 0.846200 0.250000
O O8 0.311681 0.198093 0.279900
O O9 0.208646 0.335895 0.319107
O O10 0.202330 0.117609 0.338546
O O11 0.955989 0.834963 0.500000
O O12 0.075971 0.957830 0.500000
O O13 0.650955 0.589945 0.939729
O O14 0.354198 0.000000 0.750000
#
# Coordination Sequence:
#
# PCOD9529554 Si02
#       7
#    16  16  16   8   8  16  16
#     4  11  20  36  55  83 110 140 189 229 276 327
#     4  11  21  35  52  85 107 140 189 224 268 334
#     4  10  21  36  53  82 111 147 187 215 276 340
#     4   9  18  31  56  78 108 141 174 239 280 318
#     4   9  16  33  52  82 107 140 187 218 288 328
#     4  10  21  38  54  75 116 149 176 222 274 328
#     4  10  21  34  57  78 114 148 176 235 277 325
#
# _framework density 9.2592590000000001
#
# number of rings (size 3 to 8) (size 9 to 14) (size 15 to 20)
#    0.000    1.833    3.333    1.500    0.000    2.333 
#    0.000    0.000    0.000    0.000    0.000    3.500 
#    0.000    0.000    0.000    0.000    0.000    0.000 
#
# Total GULP energy -267294.740602 kJ/mol
# GULP energy per Si atom -5568.640429 kJ/mol
# Density = 0.923818 g / cm^3
# Si number density = 9.259259 Si / 1000 Ang^3
#
#
#
# Elastic Constant Matrix: (Units=GPa)
#
#
# Indices 1 2 3 4 5 6 
#
# 1 96.4052 21.9061 24.3336 0.0000 0.0000 0.0000
# 2 21.9061 64.2635 -5.3680 0.0000 0.0000 0.0000
# 3 24.3336 -5.3680 79.4445 0.0000 0.0000 0.0000
# 4 0.0000 0.0000 0.0000 14.8377 0.0000 0.0000
# 5 0.0000 0.0000 0.0000 0.0000 8.7913 0.0000
# 6 0.0000 0.0000 0.0000 0.0000 0.0000 16.7531
#
#
#
# Elastic Compliance Matrix: (Units=1/GPa)
#
#
# Indices 1 2 3 4 5 6 
#
# 1 0.012458 -0.004591 -0.004126 0.000000 0.000000 0.000000
# 2 -0.004591 0.017341 0.002578 0.000000 0.000000 0.000000
# 3 -0.004126 0.002578 0.014025 0.000000 0.000000 0.000000
# 4 0.000000 0.000000 0.000000 0.067396 0.000000 0.000000
# 5 0.000000 0.000000 0.000000 0.000000 0.113749 0.000000
# 6 0.000000 0.000000 0.000000 0.000000 0.000000 0.059690
#
#
# Mechanical properties :
#
#
# Convention : Reuss Voigt Hill
#
# Bulk Modulus (GPa) = 31.69972 35.76185 33.73078
# Shear Modulus (GPa) = 16.26263 21.35919 18.81091
#
# Velocity S-wave (km/s) = 2.96663 3.39985 3.19060
# Velocity P-wave (km/s) = 5.37490 5.89621 5.64158
#
# Compressibility (1/GPa) = 0.03154602
#
# Stress axis : x y z
#
# Youngs Moduli (GPa) = 80.27249 57.66575 71.29944
#
# Poissons Ratio (x) = 0.26475 0.29418
# Poissons Ratio (y) = 0.36855 -0.18381
# Poissons Ratio (z) = 0.33120 -0.14866
#
# Static dielectric constant tensor:
#      x y z
#    x 1.674570 0.000000 0.000000 
#    y 0.000000 1.611520 0.000000 
#    z 0.000000 0.000000 1.698020 
# 
# From -- ./inp_files/43410.got.cif
#   From: 2010.05.17/outbox.ucp.g08.bks.cvg/sg72_22_cif.got.tgz:43410.got - 2010.06.11 16:33:07.
