data_PCOD9529374
_publ_section_title
;
Structure prediction by ZEFSAII (Michael W. Deem and Ramdas Pophale) SiO2 
 PCOD9529374
Probable space group: I B A M
;
_chemical_formula_sum "Si O2"
_cell_formula_units_Z 72
_cell_length_a 10.514883
_cell_length_b 18.835712
_cell_length_c 17.134920
_cell_angle_alpha 90.000000
_cell_angle_beta 90.000000
_cell_angle_gamma 90.000000
_cell_volume 3393.661856
_symmetry_space_group_name_H-M "I B A M"
_symmetry_group_IT_number 72
_symmetry_cell_setting 'orthorhombic'
loop_
_space_group_symop_operation_xyz
x,y,z
-x,-y,z
x,-y,1/2-z
-x,y,1/2-z
-x,-y,-z
x,y,-z
-x,y,1/2+z
x,-y,1/2+z
1/2+x,1/2+y,1/2+z
1/2-x,1/2-y,1/2+z
1/2+x,1/2-y,-z
1/2-x,1/2+y,-z
1/2-x,1/2-y,1/2-z
1/2+x,1/2+y,1/2-z
1/2-x,1/2+y,z
1/2+x,1/2-y,z
loop_
_atom_site_type_symbol
_atom_site_label
_atom_site_fract_x
_atom_site_fract_y
_atom_site_fract_z
Si Si1 0.040242 0.160515 0.837507
Si Si2 0.753194 0.045529 0.686785
Si Si3 0.000000 0.385199 0.250000
Si Si4 0.567302 0.189101 0.911365
Si Si5 0.696901 0.415381 0.412083
O O1 0.167853 0.114155 0.836046
O O2 0.062548 0.227300 0.894027
O O3 0.000000 0.184451 0.750000
O O4 0.925985 0.110570 0.865883
O O5 0.627672 0.070487 0.733024
O O6 0.831866 0.000000 0.750000
O O7 0.737242 0.987768 0.618654
O O8 0.007774 0.343197 0.167987
O O9 0.704216 0.150238 0.910693
O O10 0.515143 0.175573 0.000000
O O11 0.656589 0.428796 0.500000
#
# Coordination Sequence:
#
# PCOD9529374 Si02
#       5
#    16  16   8  16  16
#     4  12  24  42  73 101 136 185 236 293 354 422
#     4  12  25  43  72 104 137 185 232 290 358 425
#     4  12  25  46  74 104 143 186 244 292 353 438
#     4  11  26  45  69 103 143 187 236 299 363 423
#     4  11  26  46  69 105 145 181 239 302 352 424
#
# _framework density 21.216021999999999
#
# number of rings (size 3 to 8) (size 9 to 14) (size 15 to 20)
#    0.000    0.444    5.556    1.667    3.111    5.333 
#    0.000    2.222    0.000    0.000    0.000    0.000 
#    0.000    0.000    0.000    0.000    0.000    0.000 
#
# Total GULP energy -200715.198210 kJ/mol
# GULP energy per Si atom -5575.422172 kJ/mol
# Density = 2.116773 g / cm^3
# Si number density = 21.216022 Si / 1000 Ang^3
#
#
#
# Elastic Constant Matrix: (Units=GPa)
#
#
# Indices 1 2 3 4 5 6 
#
# 1 58.4427 41.0335 31.8075 0.0000 0.0000 0.0000
# 2 41.0335 116.2494 49.3923 0.0000 0.0000 0.0000
# 3 31.8075 49.3923 166.7959 0.0000 0.0000 0.0000
# 4 0.0000 0.0000 0.0000 35.0665 0.0000 0.0000
# 5 0.0000 0.0000 0.0000 0.0000 23.8870 0.0000
# 6 0.0000 0.0000 0.0000 0.0000 0.0000 19.9302
#
#
#
# Elastic Compliance Matrix: (Units=1/GPa)
#
#
# Indices 1 2 3 4 5 6 
#
# 1 0.023506 -0.007313 -0.002317 0.000000 0.000000 0.000000
# 2 -0.007313 0.012115 -0.002193 0.000000 0.000000 0.000000
# 3 -0.002317 -0.002193 0.007087 0.000000 0.000000 0.000000
# 4 0.000000 0.000000 0.000000 0.028517 0.000000 0.000000
# 5 0.000000 0.000000 0.000000 0.000000 0.041864 0.000000
# 6 0.000000 0.000000 0.000000 0.000000 0.000000 0.050175
#
#
# Mechanical properties :
#
#
# Convention : Reuss Voigt Hill
#
# Bulk Modulus (GPa) = 52.45959 65.10607 58.78283
# Shear Modulus (GPa) = 25.87133 30.39371 28.13252
#
# Velocity S-wave (km/s) = 3.49581 3.78905 3.64538
# Velocity P-wave (km/s) = 6.40893 7.06374 6.74429
#
# Compressibility (1/GPa) = 0.01906229
#
# Stress axis : x y z
#
# Youngs Moduli (GPa) = 42.54197 82.54078 141.11048
#
# Poissons Ratio (x) = 0.60359 0.32697
# Poissons Ratio (y) = 0.31110 0.30947
# Poissons Ratio (z) = 0.09857 0.18102
#
# Static dielectric constant tensor:
#      x y z
#    x 1.755380 0.000000 0.000000 
#    y 0.000000 1.783580 0.000000 
#    z 0.000000 0.000000 1.842380 
# 
# From -- ./inp_files/29061.got.cif
#   From: 2010.05.17/outbox.cif.g08.bks.cpg/sg72_15_cif.got.tgz:29061.got - 2010.06.03 17:03:01.
