data_PCOD9529402
_publ_section_title
;
Structure prediction by ZEFSAII (Michael W. Deem and Ramdas Pophale) SiO2 
 PCOD9529402
Probable space group: I B A M
;
_chemical_formula_sum "Si O2"
_cell_formula_units_Z 48
_cell_length_a 8.799856
_cell_length_b 13.447354
_cell_length_c 17.016988
_cell_angle_alpha 90.000000
_cell_angle_beta 90.000000
_cell_angle_gamma 90.000000
_cell_volume 2013.701510
_symmetry_space_group_name_H-M "I B A M"
_symmetry_group_IT_number 72
_symmetry_cell_setting 'orthorhombic'
loop_
_space_group_symop_operation_xyz
x,y,z
-x,-y,z
x,-y,1/2-z
-x,y,1/2-z
-x,-y,-z
x,y,-z
-x,y,1/2+z
x,-y,1/2+z
1/2+x,1/2+y,1/2+z
1/2-x,1/2-y,1/2+z
1/2+x,1/2-y,-z
1/2-x,1/2+y,-z
1/2-x,1/2-y,1/2-z
1/2+x,1/2+y,1/2-z
1/2-x,1/2+y,z
1/2+x,1/2-y,z
loop_
_atom_site_type_symbol
_atom_site_label
_atom_site_fract_x
_atom_site_fract_y
_atom_site_fract_z
Si Si1 0.661742 0.624540 0.652459
Si Si2 0.266549 0.923672 0.811812
Si Si3 0.986861 0.299380 0.092428
O O1 0.670023 0.505408 0.640232
O O2 0.669673 0.637704 0.747578
O O3 0.819042 0.669343 0.618642
O O4 0.526917 0.685677 0.613266
O O5 0.386478 0.862928 0.861091
O O6 0.345175 0.000000 0.750000
O O7 0.002778 0.315913 0.000000
#
# Coordination Sequence:
#
# PCOD9529402 Si02
#       3
#    16  16  16
#     4   9  22  38  60  82 118 156 196 241 284 353
#     4   8  21  40  61  79 116 158 207 233 274 359
#     4  12  21  35  60  91 119 150 193 249 299 340
#
# _framework density 23.836698999999999
#
# number of rings (size 3 to 8) (size 9 to 14) (size 15 to 20)
#    2.000    0.000    0.000    4.000    4.667    4.000 
#    0.000    1.667    7.333    4.000    0.000    0.000 
#    0.000    0.000    0.000    0.000    0.000    0.000 
#
# Total GULP energy -133973.972515 kJ/mol
# GULP energy per Si atom -5582.248855 kJ/mol
# Density = 2.378245 g / cm^3
# Si number density = 23.836699 Si / 1000 Ang^3
#
#
#
# Elastic Constant Matrix: (Units=GPa)
#
#
# Indices 1 2 3 4 5 6 
#
# 1 100.7924 22.7935 40.1338 0.0000 0.0000 0.0000
# 2 22.7935 106.9605 34.6422 0.0000 0.0000 0.0000
# 3 40.1338 34.6422 129.7147 0.0000 0.0000 0.0000
# 4 0.0000 0.0000 0.0000 -21.5557 0.0000 0.0000
# 5 0.0000 0.0000 0.0000 0.0000 -33.4358 0.0000
# 6 0.0000 0.0000 0.0000 0.0000 0.0000 20.0349
#
#
#
# Elastic Compliance Matrix: (Units=1/GPa)
#
#
# Indices 1 2 3 4 5 6 
#
# 1 0.011510 -0.001422 -0.003181 0.000000 0.000000 0.000000
# 2 -0.001422 0.010410 -0.002340 0.000000 0.000000 0.000000
# 3 -0.003181 -0.002340 0.009318 0.000000 0.000000 0.000000
# 4 0.000000 0.000000 0.000000 -0.046391 0.000000 0.000000
# 5 0.000000 0.000000 0.000000 0.000000 -0.029908 0.000000
# 6 0.000000 0.000000 0.000000 0.000000 0.000000 0.049913
#
#
# Mechanical properties :
#
#
# Convention : Reuss Voigt Hill
#
# Bulk Modulus (GPa) = 57.63378 59.17853 58.40615
# Shear Modulus (GPa) = 203.88929 9.00189 106.44559
#
# Velocity S-wave (km/s) = 9.25859 1.94543 6.68978
# Velocity P-wave (km/s) = 11.76973 5.47054 9.17751
#
# Compressibility (1/GPa) = 0.01735094
#
# Stress axis : x y z
#
# Youngs Moduli (GPa) = 86.88270 96.05894 107.31373
#
# Poissons Ratio (x) = 0.13664 0.34139
# Poissons Ratio (y) = 0.12358 0.25113
# Poissons Ratio (z) = 0.27640 0.22479
#
# Static dielectric constant tensor:
#      x y z
#    x 1.919770 0.000000 0.000000 
#    y 0.000000 2.015470 0.000000 
#    z 0.000000 0.000000 1.895560 
# 
# From -- ./inp_files/18108.got.cif
#   From: 2010.05.17/outbox.cif.g08.bks.cpg/sg72_10_cif.got.tgz:18108.got - 2010.06.03 17:03:01.
