data_PCOD9529910
_publ_section_title
;
Structure prediction by ZEFSAII (Michael W. Deem and Ramdas Pophale) SiO2 
 PCOD9529910
Probable space group: I B C A 
;
_chemical_formula_sum "Si O2"
_cell_formula_units_Z 88
_cell_length_a 17.993358
_cell_length_b 14.000927
_cell_length_c 18.766464
_cell_angle_alpha 90.000000
_cell_angle_beta 90.000000
_cell_angle_gamma 90.000000
_cell_volume 4727.716894
_symmetry_space_group_name_H-M "I B C A "
_symmetry_group_IT_number 73
_symmetry_cell_setting 'orthorhombic'
loop_
_space_group_symop_operation_xyz
x,y,z
-x,1/2-y,z
x,-y,1/2-z
1/2-x,y,-z
-x,-y,-z
x,1/2+y,-z
-x,y,1/2+z
1/2+x,-y,z
1/2+x,1/2+y,1/2+z
1/2-x,-y,1/2+z
1/2+x,1/2-y,-z
-x,1/2+y,1/2-z
1/2-x,1/2-y,1/2-z
1/2+x,y,1/2-z
1/2-x,1/2+y,z
x,1/2-y,1/2+z
loop_
_atom_site_type_symbol
_atom_site_label
_atom_site_fract_x
_atom_site_fract_y
_atom_site_fract_z
Si Si1 0.614472 0.000000 0.750000
Si Si2 0.378772 0.438902 0.405980
Si Si3 0.166641 0.783565 0.515891
Si Si4 0.510850 0.637283 0.162985
Si Si5 0.899397 0.594357 0.981923
Si Si6 0.205643 0.033997 0.891117
O O1 0.563317 0.913832 0.720628
O O2 0.667095 0.972347 0.815274
O O3 0.367103 0.339985 0.448668
O O4 0.431611 0.416112 0.340230
O O5 0.417582 0.513758 0.459823
O O6 0.294737 0.471472 0.389193
O O7 0.250000 0.749720 0.500000
O O8 0.117554 0.690433 0.525607
O O9 0.178449 0.865818 0.574405
O O10 0.500000 0.750000 0.174420
O O11 0.545986 0.618728 0.083753
O O12 0.827567 0.549017 0.941602
#
# Coordination Sequence:
#
# PCOD9529910 Si02
#       6
#     8  16  16  16  16  16
#     4  10  24  44  56  76 120 166 204 234 284 350
#     4  10  19  34  58  92 110 145 193 244 297 351
#     4   9  16  30  56  88 114 136 182 239 295 341
#     4  11  22  40  60  82 122 162 189 240 301 357
#     4  10  18  34  61  89 119 145 184 243 312 343
#     4   9  20  36  59  84 116 151 196 243 284 349
#
# _framework density 18.613636
#
# number of rings (size 3 to 8) (size 9 to 14) (size 15 to 20)
#    0.000    2.182    1.818    3.273    0.000    0.727 
#    3.273    0.909    0.000    0.000    0.000    0.000 
#    0.000    0.000    0.000    0.000    0.000    0.000 
#
# Total GULP energy -245227.565171 kJ/mol
# GULP energy per Si atom -5573.353754 kJ/mol
# Density = 1.857127 g / cm^3
# Si number density = 18.613636 Si / 1000 Ang^3
#
#
#
# Elastic Constant Matrix: (Units=GPa)
#
#
# Indices 1 2 3 4 5 6 
#
# 1 74.0590 35.8589 28.3498 0.0000 0.0000 0.0000
# 2 35.8589 92.0539 20.9511 0.0000 0.0000 0.0000
# 3 28.3498 20.9511 70.4360 0.0000 0.0000 0.0000
# 4 0.0000 0.0000 0.0000 7.1434 0.0000 0.0000
# 5 0.0000 0.0000 0.0000 0.0000 26.6047 0.0000
# 6 0.0000 0.0000 0.0000 0.0000 0.0000 20.2438
#
#
#
# Elastic Compliance Matrix: (Units=1/GPa)
#
#
# Indices 1 2 3 4 5 6 
#
# 1 0.018558 -0.005931 -0.005705 0.000000 0.000000 0.000000
# 2 -0.005931 0.013547 -0.001643 0.000000 0.000000 0.000000
# 3 -0.005705 -0.001643 0.016982 0.000000 0.000000 0.000000
# 4 0.000000 0.000000 0.000000 0.139990 0.000000 0.000000
# 5 0.000000 0.000000 0.000000 0.000000 0.037587 0.000000
# 6 0.000000 0.000000 0.000000 0.000000 0.000000 0.049398
#
#
# Mechanical properties :
#
#
# Convention : Reuss Voigt Hill
#
# Bulk Modulus (GPa) = 44.38444 45.20759 44.79601
# Shear Modulus (GPa) = 16.12224 20.89100 18.50662
#
# Velocity S-wave (km/s) = 2.94624 3.35378 3.15659
# Velocity P-wave (km/s) = 5.95572 6.27194 6.11588
#
# Compressibility (1/GPa) = 0.02253042
#
# Stress axis : x y z
#
# Youngs Moduli (GPa) = 53.88389 73.81534 58.88497
#
# Poissons Ratio (x) = 0.43778 0.33597
# Poissons Ratio (y) = 0.31957 0.09672
# Poissons Ratio (z) = 0.30743 0.12125
#
# Static dielectric constant tensor:
#      x y z
#    x 1.687390 0.000000 0.000000 
#    y 0.000000 1.621950 0.000000 
#    z 0.000000 0.000000 1.630290 
# 
# From -- ./inp_files/11856.got.cif
#   From: 2010.05.17/outbox.cif.g08.bks.cpg/sg73_6_cif.got.tgz:11856.got - 2010.06.03 17:35:07.
