data_PCOD9529574
_publ_section_title
;
Structure prediction by ZEFSAII (Michael W. Deem and Ramdas Pophale) SiO2 
 PCOD9529574
Probable space group: I B A M
;
_chemical_formula_sum "Si O2"
_cell_formula_units_Z 58
_cell_length_a 27.000000
_cell_length_b 9.000000
_cell_length_c 24.000000
_cell_angle_alpha 90.000000
_cell_angle_beta 90.000000
_cell_angle_gamma 90.000000
_cell_volume 5832.000000
_symmetry_space_group_name_H-M "I B A M"
_symmetry_group_IT_number 72
_symmetry_cell_setting 'orthorhombic'
loop_
_space_group_symop_operation_xyz
x,y,z
-x,-y,z
x,-y,1/2-z
-x,y,1/2-z
-x,-y,-z
x,y,-z
-x,y,1/2+z
x,-y,1/2+z
1/2+x,1/2+y,1/2+z
1/2-x,1/2-y,1/2+z
1/2+x,1/2-y,-z
1/2-x,1/2+y,-z
1/2-x,1/2-y,1/2-z
1/2+x,1/2+y,1/2-z
1/2-x,1/2+y,z
1/2+x,1/2-y,z
loop_
_atom_site_type_symbol
_atom_site_label
_atom_site_fract_x
_atom_site_fract_y
_atom_site_fract_z
Si Si1 0.525394 0.159340 0.304502
Si Si2 0.867810 0.323695 0.161358
Si Si3 0.121124 0.418221 0.067618
Si Si4 0.809991 0.223219 0.359653
Si Si5 0.892887 0.014516 0.684109
Si Si6 0.964687 0.806252 0.104852
Si Si7 0.500000 0.500000 0.500000
Si Si8 0.232525 0.476838 0.688258
O O1 0.500000 0.230822 0.250000
O O2 0.583975 0.139103 0.301511
O O3 0.511215 0.246908 0.360041
O O4 0.500000 0.000000 0.309320
O O5 0.872265 0.428866 0.104890
O O6 0.816667 0.374193 0.189768
O O7 0.872148 0.142975 0.159224
O O8 0.164357 0.299871 0.086323
O O9 0.071680 0.332221 0.089081
O O10 0.120612 0.441247 0.000000
O O11 0.852619 0.144931 0.323622
O O12 0.784953 0.361204 0.329386
O O13 0.768050 0.095679 0.358490
O O14 0.936940 0.076948 0.645586
O O15 0.904480 0.000000 0.750000
O O16 0.980000 0.886566 0.048799
O O17 0.255237 0.500000 0.750000
#
# Coordination Sequence:
#
# PCOD9529574 Si02
#       8
#    16  16  16  16  16  16   4  16
#     4  11  23  39  65  96 136 172 227 275 341 401
#     4  11  23  39  62  98 127 179 225 270 334 410
#     4  10  22  45  65  88 125 169 222 283 331 384
#     4  10  22  38  64  96 128 170 210 266 331 407
#     4  11  22  40  65  95 139 170 218 269 346 408
#     4  11  23  42  61  91 125 176 222 280 333 400
#     4  12  24  40  64  84 132 164 234 274 348 380
#     4  11  21  36  63  95 136 166 212 261 334 397
#
# _framework density 9.9451300000000007
#
# number of rings (size 3 to 8) (size 9 to 14) (size 15 to 20)
#    0.000    1.241    2.069    4.138    1.931    0.000 
#    4.966    5.172    0.000    0.000    0.000    0.000 
#    0.000    0.000    0.000    0.000    0.000    0.000 
#
# Total GULP energy -323138.346352 kJ/mol
# GULP energy per Si atom -5571.350799 kJ/mol
# Density = 0.992249 g / cm^3
# Si number density = 9.945130 Si / 1000 Ang^3
#
#
#
# Elastic Constant Matrix: (Units=GPa)
#
#
# Indices 1 2 3 4 5 6 
#
# 1 64.7071 -1.5665 19.2864 0.0000 0.0000 0.0000
# 2 -1.5665 106.3742 32.7270 0.0000 0.0000 0.0000
# 3 19.2864 32.7270 152.6832 0.0000 0.0000 0.0000
# 4 0.0000 0.0000 0.0000 26.9444 0.0000 0.0000
# 5 0.0000 0.0000 0.0000 0.0000 16.7559 0.0000
# 6 0.0000 0.0000 0.0000 0.0000 0.0000 37.6610
#
#
#
# Elastic Compliance Matrix: (Units=1/GPa)
#
#
# Indices 1 2 3 4 5 6 
#
# 1 0.016144 0.000926 -0.002238 0.000000 0.000000 0.000000
# 2 0.000926 0.010118 -0.002286 0.000000 0.000000 0.000000
# 3 -0.002238 -0.002286 0.007322 0.000000 0.000000 0.000000
# 4 0.000000 0.000000 0.000000 0.037114 0.000000 0.000000
# 5 0.000000 0.000000 0.000000 0.000000 0.059680 0.000000
# 6 0.000000 0.000000 0.000000 0.000000 0.000000 0.026553
#
#
# Mechanical properties :
#
#
# Convention : Reuss Voigt Hill
#
# Bulk Modulus (GPa) = 37.89464 47.18425 42.53944
# Shear Modulus (GPa) = 28.91500 34.49344 31.70422
#
# Velocity S-wave (km/s) = 3.81691 4.16888 3.99677
# Velocity P-wave (km/s) = 6.20631 6.85175 6.53700
#
# Compressibility (1/GPa) = 0.02638896
#
# Stress axis : x y z
#
# Youngs Moduli (GPa) = 61.94390 98.83743 136.57293
#
# Poissons Ratio (x) = -0.09154 0.30561
# Poissons Ratio (y) = -0.05737 0.31216
# Poissons Ratio (z) = 0.13861 0.22591
#
# Static dielectric constant tensor:
#      x y z
#    x 1.760250 0.000000 0.000000 
#    y 0.000000 1.737200 0.000000 
#    z 0.000000 0.000000 1.668080 
# 
# From -- ./inp_files/45991.got.cif
#   From: 2010.05.17/outbox.ucp.g08.bks.cvg/sg72_23_cif.got.tgz:45991.got - 2010.06.11 16:33:07.
