data_PCOD9529921
_publ_section_title
;
Structure prediction by ZEFSAII (Michael W. Deem and Ramdas Pophale) SiO2 
 PCOD9529921
Probable space group: I B C A 
;
_chemical_formula_sum "Si O2"
_cell_formula_units_Z 112
_cell_length_a 13.788534
_cell_length_b 28.618412
_cell_length_c 12.876722
_cell_angle_alpha 90.000000
_cell_angle_beta 90.000000
_cell_angle_gamma 90.000000
_cell_volume 5081.231078
_symmetry_space_group_name_H-M "I B C A "
_symmetry_group_IT_number 73
_symmetry_cell_setting 'orthorhombic'
loop_
_space_group_symop_operation_xyz
x,y,z
-x,1/2-y,z
x,-y,1/2-z
1/2-x,y,-z
-x,-y,-z
x,1/2+y,-z
-x,y,1/2+z
1/2+x,-y,z
1/2+x,1/2+y,1/2+z
1/2-x,-y,1/2+z
1/2+x,1/2-y,-z
-x,1/2+y,1/2-z
1/2-x,1/2-y,1/2-z
1/2+x,y,1/2-z
1/2-x,1/2+y,z
x,1/2-y,1/2+z
loop_
_atom_site_type_symbol
_atom_site_label
_atom_site_fract_x
_atom_site_fract_y
_atom_site_fract_z
Si Si1 0.823735 0.741173 0.903658
Si Si2 0.123688 0.430035 0.079576
Si Si3 0.813182 0.318666 0.252779
Si Si4 0.669127 0.535892 0.418439
Si Si5 0.214127 0.576857 0.736739
Si Si6 0.008580 0.945648 0.720371
Si Si7 0.132929 0.662147 0.528101
O O1 0.851931 0.787712 0.841638
O O2 0.771873 0.709962 0.812840
O O3 0.899902 0.706057 0.958032
O O4 0.750000 0.754026 0.000000
O O5 0.129969 0.484510 0.047244
O O6 0.230376 0.422733 0.127927
O O7 0.055038 0.421523 0.179263
O O8 0.097904 0.388711 0.002651
O O9 0.780005 0.370348 0.219293
O O10 0.883909 0.327763 0.350970
O O11 0.750000 0.552209 0.500000
O O12 0.731671 0.540968 0.312692
O O13 0.571721 0.562860 0.383328
O O14 0.104096 0.563624 0.717952
O O15 0.022975 0.000000 0.750000
O O16 0.250000 0.661607 0.500000
#
# Coordination Sequence:
#
# PCOD9529921 Si02
#       7
#    16  16  16  16  16  16  16
#     4   8  15  29  49  83 115 139 186 238 296 363
#     4  10  18  35  55  76 112 156 192 245 289 351
#     4   9  17  28  52  83 111 140 191 235 292 357
#     4  10  22  36  55  81 119 153 204 250 300 346
#     4  11  19  35  55  79 113 157 196 244 297 355
#     4   9  20  37  53  79 114 155 198 242 297 352
#     4   9  15  29  51  83 106 136 190 230 286 354
#
# _framework density 22.041900999999999
#
# number of rings (size 3 to 8) (size 9 to 14) (size 15 to 20)
#    0.000    2.857    2.857    2.571    0.000    0.571 
#    2.571    2.143    0.000    0.857    0.000    2.000 
#    0.000    0.000    0.000    0.000    0.000    0.000 
#
# Total GULP energy -311753.692377 kJ/mol
# GULP energy per Si atom -5567.030221 kJ/mol
# Density = 2.199173 g / cm^3
# Si number density = 22.041901 Si / 1000 Ang^3
#
#
#
# Elastic Constant Matrix: (Units=GPa)
#
#
# Indices 1 2 3 4 5 6 
#
# 1 93.8620 5.8797 17.4768 0.0000 0.0000 0.0000
# 2 5.8797 81.4581 57.9015 0.0000 0.0000 0.0000
# 3 17.4768 57.9015 100.0620 0.0000 0.0000 0.0000
# 4 0.0000 0.0000 0.0000 42.7314 0.0000 0.0000
# 5 0.0000 0.0000 0.0000 0.0000 4.9555 0.0000
# 6 0.0000 0.0000 0.0000 0.0000 0.0000 3.6174
#
#
#
# Elastic Compliance Matrix: (Units=1/GPa)
#
#
# Indices 1 2 3 4 5 6 
#
# 1 0.011058 0.000976 -0.002496 0.000000 0.000000 0.000000
# 2 0.000976 0.020940 -0.012288 0.000000 0.000000 0.000000
# 3 -0.002496 -0.012288 0.017540 0.000000 0.000000 0.000000
# 4 0.000000 0.000000 0.000000 0.023402 0.000000 0.000000
# 5 0.000000 0.000000 0.000000 0.000000 0.201797 0.000000
# 6 0.000000 0.000000 0.000000 0.000000 0.000000 0.276444
#
#
# Mechanical properties :
#
#
# Convention : Reuss Voigt Hill
#
# Bulk Modulus (GPa) = 45.61527 48.65534 47.13530
# Shear Modulus (GPa) = 8.53092 23.20246 15.86669
#
# Velocity S-wave (km/s) = 1.96945 3.24798 2.68590
# Velocity P-wave (km/s) = 5.09032 6.01563 5.57221
#
# Compressibility (1/GPa) = 0.02192249
#
# Stress axis : x y z
#
# Youngs Moduli (GPa) = 90.43575 47.75570 57.01243
#
# Poissons Ratio (x) = -0.04662 0.14231
# Poissons Ratio (y) = -0.08828 0.70054
# Poissons Ratio (z) = 0.22575 0.58680
#
# Static dielectric constant tensor:
#      x y z
#    x 1.833210 0.000000 0.000000 
#    y 0.000000 1.904940 0.000000 
#    z 0.000000 0.000000 1.910510 
# 
# From -- ./inp_files/17394.got.cif
#   From: 2010.05.17/outbox.cif.g08.bks.cpg/sg73_9_cif.got.tgz:17394.got - 2010.06.03 17:35:07.
