data_PCOD9529420
_publ_section_title
;
Structure prediction by ZEFSAII (Michael W. Deem and Ramdas Pophale) SiO2 
 PCOD9529420
Probable space group: I B A M
;
_chemical_formula_sum "Si O2"
_cell_formula_units_Z 64
_cell_length_a 10.400218
_cell_length_b 21.260386
_cell_length_c 14.892734
_cell_angle_alpha 90.000000
_cell_angle_beta 90.000000
_cell_angle_gamma 90.000000
_cell_volume 3292.971868
_symmetry_space_group_name_H-M "I B A M"
_symmetry_group_IT_number 72
_symmetry_cell_setting 'orthorhombic'
loop_
_space_group_symop_operation_xyz
x,y,z
-x,-y,z
x,-y,1/2-z
-x,y,1/2-z
-x,-y,-z
x,y,-z
-x,y,1/2+z
x,-y,1/2+z
1/2+x,1/2+y,1/2+z
1/2-x,1/2-y,1/2+z
1/2+x,1/2-y,-z
1/2-x,1/2+y,-z
1/2-x,1/2-y,1/2-z
1/2+x,1/2+y,1/2-z
1/2-x,1/2+y,z
1/2+x,1/2-y,z
loop_
_atom_site_type_symbol
_atom_site_label
_atom_site_fract_x
_atom_site_fract_y
_atom_site_fract_z
Si Si1 0.129583 0.775624 0.806822
Si Si2 0.150669 0.520941 0.105635
Si Si3 0.440607 0.851869 0.606689
Si Si4 0.727333 0.888774 0.609462
O O1 0.250000 0.750000 0.750000
O O2 0.103190 0.718046 0.874109
O O3 0.168825 0.840787 0.853033
O O4 0.000000 0.783487 0.750000
O O5 0.149531 0.591636 0.144012
O O6 0.230523 0.461561 0.141213
O O7 0.000000 0.500000 0.110589
O O8 0.184452 0.524817 0.000000
O O9 0.444185 0.861636 0.500000
O O10 0.586765 0.862508 0.638332
O O11 0.731324 0.888449 0.500000
#
# Coordination Sequence:
#
# PCOD9529420 Si02
#       4
#    16  16  16  16
#     4  12  23  36  51  78 120 156 183 223 278 339
#     4   7  12  26  53  82 104 126 173 237 277 309
#     4   9  17  33  57  83 106 141 189 236 282 330
#     4   9  17  33  57  83 108 141 188 238 280 327
#
# _framework density 19.435331999999999
#
# number of rings (size 3 to 8) (size 9 to 14) (size 15 to 20)
#    0.000    2.750    2.500    3.750    0.000    0.000 
#    0.000    1.250    0.000    3.000    0.000    5.250 
#    0.000    0.000    0.000    0.000    0.000    0.000 
#
# Total GULP energy -178282.058891 kJ/mol
# GULP energy per Si atom -5571.314340 kJ/mol
# Density = 1.939110 g / cm^3
# Si number density = 19.435332 Si / 1000 Ang^3
#
#
#
# Elastic Constant Matrix: (Units=GPa)
#
#
# Indices 1 2 3 4 5 6 
#
# 1 70.9708 52.9324 22.1656 0.0000 0.0000 0.0000
# 2 52.9324 186.3535 31.9638 0.0000 0.0000 0.0000
# 3 22.1656 31.9638 30.1271 0.0000 0.0000 0.0000
# 4 0.0000 0.0000 0.0000 13.8802 0.0000 0.0000
# 5 0.0000 0.0000 0.0000 0.0000 19.4880 0.0000
# 6 0.0000 0.0000 0.0000 0.0000 0.0000 35.9075
#
#
#
# Elastic Compliance Matrix: (Units=1/GPa)
#
#
# Indices 1 2 3 4 5 6 
#
# 1 0.020414 -0.003939 -0.010840 0.000000 0.000000 0.000000
# 2 -0.003939 0.007320 -0.004868 0.000000 0.000000 0.000000
# 3 -0.010840 -0.004868 0.046333 0.000000 0.000000 0.000000
# 4 0.000000 0.000000 0.000000 0.072045 0.000000 0.000000
# 5 0.000000 0.000000 0.000000 0.000000 0.051314 0.000000
# 6 0.000000 0.000000 0.000000 0.000000 0.000000 0.027849
#
#
# Mechanical properties :
#
#
# Convention : Reuss Voigt Hill
#
# Bulk Modulus (GPa) = 28.75836 55.73054 42.24445
# Shear Modulus (GPa) = 18.10548 25.88113 21.99331
#
# Velocity S-wave (km/s) = 3.05548 3.65314 3.36760
# Velocity P-wave (km/s) = 5.22274 6.82137 6.07487
#
# Compressibility (1/GPa) = 0.03477249
#
# Stress axis : x y z
#
# Youngs Moduli (GPa) = 48.98669 136.61169 21.58289
#
# Poissons Ratio (x) = 0.53813 0.23396
# Poissons Ratio (y) = 0.19296 0.10507
# Poissons Ratio (z) = 0.53101 0.66505
#
# Static dielectric constant tensor:
#      x y z
#    x 1.595740 0.000000 0.000000 
#    y 0.000000 1.744660 0.000000 
#    z 0.000000 0.000000 1.742670 
# 
# From -- ./inp_files/18638.got.cif
#   From: 2010.05.17/outbox.cif.g08.bks.cpg/sg72_10_cif.got.tgz:18638.got - 2010.06.03 17:03:01.
