data_PCOD9529971
_publ_section_title
;
Structure prediction by ZEFSAII (Michael W. Deem and Ramdas Pophale) SiO2 
 PCOD9529971
Probable space group: I B C A 
;
_chemical_formula_sum "Si O2"
_cell_formula_units_Z 72
_cell_length_a 15.587384
_cell_length_b 19.881472
_cell_length_c 12.173689
_cell_angle_alpha 90.000000
_cell_angle_beta 90.000000
_cell_angle_gamma 90.000000
_cell_volume 3772.627908
_symmetry_space_group_name_H-M "I B C A "
_symmetry_group_IT_number 73
_symmetry_cell_setting 'orthorhombic'
loop_
_space_group_symop_operation_xyz
x,y,z
-x,1/2-y,z
x,-y,1/2-z
1/2-x,y,-z
-x,-y,-z
x,1/2+y,-z
-x,y,1/2+z
1/2+x,-y,z
1/2+x,1/2+y,1/2+z
1/2-x,-y,1/2+z
1/2+x,1/2-y,-z
-x,1/2+y,1/2-z
1/2-x,1/2-y,1/2-z
1/2+x,y,1/2-z
1/2-x,1/2+y,z
x,1/2-y,1/2+z
loop_
_atom_site_type_symbol
_atom_site_label
_atom_site_fract_x
_atom_site_fract_y
_atom_site_fract_z
Si Si1 0.651991 0.754961 0.717744
Si Si2 0.919594 0.148267 0.557488
Si Si3 0.081663 0.473509 0.428627
Si Si4 0.578248 0.598618 0.194999
Si Si5 0.500000 0.750000 0.388170
O O1 0.750000 0.750000 0.750000
O O2 0.635883 0.705403 0.615590
O O3 0.630925 0.832836 0.695926
O O4 0.582191 0.735507 0.811335
O O5 0.874003 0.083628 0.503117
O O6 0.986411 0.118850 0.645362
O O7 0.974921 0.187410 0.465176
O O8 0.063174 0.433693 0.314814
O O9 0.121824 0.542528 0.383400
O O10 0.000000 0.500000 0.500000
#
# Coordination Sequence:
#
# PCOD9529971 Si02
#       5
#    16  16  16  16   8
#     4  12  24  37  63  98 130 163 213 270 317 378
#     4  11  19  38  62  90 123 167 213 258 316 377
#     4   9  19  32  64  90 119 170 212 251 321 384
#     4  10  18  37  58  92 127 162 210 265 310 380
#     4  12  20  40  64  88 126 168 212 262 320 378
#
# _framework density 19.08484
#
# number of rings (size 3 to 8) (size 9 to 14) (size 15 to 20)
#    0.000    1.333    6.667    0.000    0.000    0.889 
#    0.000    0.000    0.000   37.333    0.000    0.000 
#    0.000    0.000    0.000    0.000    0.000    0.000 
#
# Total GULP energy -200484.462383 kJ/mol
# GULP energy per Si atom -5569.012844 kJ/mol
# Density = 1.904140 g / cm^3
# Si number density = 19.084840 Si / 1000 Ang^3
#
#
#
# Elastic Constant Matrix: (Units=GPa)
#
#
# Indices 1 2 3 4 5 6 
#
# 1 81.4594 37.3538 43.4615 0.0000 0.0000 0.0000
# 2 37.3538 176.7505 71.5505 0.0000 0.0000 0.0000
# 3 43.4615 71.5505 96.0234 0.0000 0.0000 0.0000
# 4 0.0000 0.0000 0.0000 49.1661 0.0000 0.0000
# 5 0.0000 0.0000 0.0000 0.0000 2.3307 0.0000
# 6 0.0000 0.0000 0.0000 0.0000 0.0000 3.8978
#
#
#
# Elastic Compliance Matrix: (Units=1/GPa)
#
#
# Indices 1 2 3 4 5 6 
#
# 1 0.016237 -0.000654 -0.006862 0.000000 0.000000 0.000000
# 2 -0.000654 0.008128 -0.005760 0.000000 0.000000 0.000000
# 3 -0.006862 -0.005760 0.017812 0.000000 0.000000 0.000000
# 4 0.000000 0.000000 0.000000 0.020339 0.000000 0.000000
# 5 0.000000 0.000000 0.000000 0.000000 0.429058 0.000000
# 6 0.000000 0.000000 0.000000 0.000000 0.000000 0.256553
#
#
# Mechanical properties :
#
#
# Convention : Reuss Voigt Hill
#
# Bulk Modulus (GPa) = 64.00092 73.21836 68.60964
# Shear Modulus (GPa) = 6.41118 24.53677 15.47398
#
# Velocity S-wave (km/s) = 1.83483 3.58951 2.85054
# Velocity P-wave (km/s) = 6.17224 7.45838 6.84558
#
# Compressibility (1/GPa) = 0.01562477
#
# Stress axis : x y z
#
# Youngs Moduli (GPa) = 61.58810 123.03608 56.14119
#
# Poissons Ratio (x) = 0.08042 0.38524
# Poissons Ratio (y) = 0.04026 0.32340
# Poissons Ratio (z) = 0.42262 0.70874
#
# Static dielectric constant tensor:
#      x y z
#    x 1.532160 0.000000 0.000000 
#    y 0.000000 1.755560 0.000000 
#    z 0.000000 0.000000 1.719580 
# 
# From -- ./inp_files/10653.got.cif
#   From: 2010.05.17/outbox.cif.g08.bks.cpg/sg73_6_cif.got.tgz:10653.got - 2010.06.03 17:35:07.
