data_PCOD9529356
_publ_section_title
;
Structure prediction by ZEFSAII (Michael W. Deem and Ramdas Pophale) SiO2 
 PCOD9529356
Probable space group: I B A M
;
_chemical_formula_sum "Si O2"
_cell_formula_units_Z 52
_cell_length_a 9.047248
_cell_length_b 11.017163
_cell_length_c 20.252345
_cell_angle_alpha 90.000000
_cell_angle_beta 90.000000
_cell_angle_gamma 90.000000
_cell_volume 2018.652608
_symmetry_space_group_name_H-M "I B A M"
_symmetry_group_IT_number 72
_symmetry_cell_setting 'orthorhombic'
loop_
_space_group_symop_operation_xyz
x,y,z
-x,-y,z
x,-y,1/2-z
-x,y,1/2-z
-x,-y,-z
x,y,-z
-x,y,1/2+z
x,-y,1/2+z
1/2+x,1/2+y,1/2+z
1/2-x,1/2-y,1/2+z
1/2+x,1/2-y,-z
1/2-x,1/2+y,-z
1/2-x,1/2-y,1/2-z
1/2+x,1/2+y,1/2-z
1/2-x,1/2+y,z
1/2+x,1/2-y,z
loop_
_atom_site_type_symbol
_atom_site_label
_atom_site_fract_x
_atom_site_fract_y
_atom_site_fract_z
Si Si1 0.226807 0.110462 0.576020
Si Si2 0.991668 0.711734 0.854367
Si Si3 0.000000 0.500000 0.750000
Si Si4 0.662072 0.562108 0.685851
O O1 0.186851 0.098629 0.500000
O O2 0.391620 0.158813 0.587180
O O3 0.116863 0.203456 0.613844
O O4 0.219906 0.983700 0.615507
O O5 0.878368 0.797351 0.812290
O O6 0.043892 0.605086 0.806492
O O7 0.500000 0.500000 0.686601
O O8 0.739399 0.500000 0.750000
#
# Coordination Sequence:
#
# PCOD9529356 Si02
#       4
#    16  16   4  16
#     4  11  25  46  73 107 147 196 246 305 373 439
#     4  11  26  45  72 107 146 192 244 303 363 440
#     4  12  28  48  72 114 152 192 242 312 372 424
#     4   9  20  41  69  99 134 185 246 297 354 428
#
# _framework density 25.759754999999998
#
# number of rings (size 3 to 8) (size 9 to 14) (size 15 to 20)
#    0.000    1.538    0.000    4.615    6.462    9.231 
#    0.000    1.538    0.000    0.000    0.000    0.000 
#    0.000    0.000    0.000    0.000    0.000    0.000 
#
# Total GULP energy -145305.107976 kJ/mol
# GULP energy per Si atom -5588.657999 kJ/mol
# Density = 2.570112 g / cm^3
# Si number density = 25.759755 Si / 1000 Ang^3
#
#
#
# Elastic Constant Matrix: (Units=GPa)
#
#
# Indices 1 2 3 4 5 6 
#
# 1 59.5035 47.1386 59.5975 0.0000 0.0000 0.0000
# 2 47.1386 146.8480 84.8316 0.0000 0.0000 0.0000
# 3 59.5975 84.8316 218.7905 0.0000 0.0000 0.0000
# 4 0.0000 0.0000 0.0000 33.2817 0.0000 0.0000
# 5 0.0000 0.0000 0.0000 0.0000 21.8812 0.0000
# 6 0.0000 0.0000 0.0000 0.0000 0.0000 44.7560
#
#
#
# Elastic Compliance Matrix: (Units=1/GPa)
#
#
# Indices 1 2 3 4 5 6 
#
# 1 0.026177 -0.005520 -0.004990 0.000000 0.000000 0.000000
# 2 -0.005520 0.009939 -0.002350 0.000000 0.000000 0.000000
# 3 -0.004990 -0.002350 0.006841 0.000000 0.000000 0.000000
# 4 0.000000 0.000000 0.000000 0.030047 0.000000 0.000000
# 5 0.000000 0.000000 0.000000 0.000000 0.045701 0.000000
# 6 0.000000 0.000000 0.000000 0.000000 0.000000 0.022343
#
#
# Mechanical properties :
#
#
# Convention : Reuss Voigt Hill
#
# Bulk Modulus (GPa) = 58.01646 89.80859 73.91252
# Shear Modulus (GPa) = 28.98305 35.55541 32.26923
#
# Velocity S-wave (km/s) = 3.35793 3.71923 3.54319
# Velocity P-wave (km/s) = 6.13232 7.30638 6.74494
#
# Compressibility (1/GPa) = 0.01723649
#
# Stress axis : x y z
#
# Youngs Moduli (GPa) = 38.20187 100.61009 146.17572
#
# Poissons Ratio (x) = 0.55538 0.72943
# Poissons Ratio (y) = 0.21088 0.34353
# Poissons Ratio (z) = 0.19063 0.23645
#
# Static dielectric constant tensor:
#      x y z
#    x 2.437940 0.000000 0.000000 
#    y 0.000000 2.113280 0.000000 
#    z 0.000000 0.000000 1.921040 
# 
# From -- ./inp_files/30010.got.cif
#   From: 2010.05.17/outbox.cif.g08.bks.cpg/sg72_16_cif.got.tgz:30010.got - 2010.06.03 17:03:01.
