data_PCOD9529311
_publ_section_title
;
Structure prediction by ZEFSAII (Michael W. Deem and Ramdas Pophale) SiO2 
 PCOD9529311
Probable space group: I B A M
;
_chemical_formula_sum "Si O2"
_cell_formula_units_Z 56
_cell_length_a 21.339760
_cell_length_b 7.393616
_cell_length_c 13.838943
_cell_angle_alpha 90.000000
_cell_angle_beta 90.000000
_cell_angle_gamma 90.000000
_cell_volume 2183.480624
_symmetry_space_group_name_H-M "I B A M"
_symmetry_group_IT_number 72
_symmetry_cell_setting 'orthorhombic'
loop_
_space_group_symop_operation_xyz
x,y,z
-x,-y,z
x,-y,1/2-z
-x,y,1/2-z
-x,-y,-z
x,y,-z
-x,y,1/2+z
x,-y,1/2+z
1/2+x,1/2+y,1/2+z
1/2-x,1/2-y,1/2+z
1/2+x,1/2-y,-z
1/2-x,1/2+y,-z
1/2-x,1/2-y,1/2-z
1/2+x,1/2+y,1/2-z
1/2-x,1/2+y,z
1/2+x,1/2-y,z
loop_
_atom_site_type_symbol
_atom_site_label
_atom_site_fract_x
_atom_site_fract_y
_atom_site_fract_z
Si Si1 0.134202 0.673928 0.500000
Si Si2 0.567415 0.213766 0.281951
Si Si3 0.179555 0.028174 0.500000
Si Si4 0.911302 0.314687 0.000000
Si Si5 0.694151 0.292639 0.823108
O O1 0.080550 0.530908 0.500000
O O2 0.175555 0.644694 0.404713
O O3 0.119025 0.887342 0.500000
O O4 0.500000 0.281514 0.250000
O O5 0.566123 0.243043 0.396326
O O6 0.629322 0.303344 0.236468
O O7 0.571360 0.000000 0.250000
O O8 0.160404 0.234914 0.500000
O O9 0.207139 0.959349 0.397588
O O10 0.750000 0.250000 0.750000
#
# Coordination Sequence:
#
# PCOD9529311 Si02
#       5
#     8  16   8   8  16
#     4   8  20  42  72 100 150 187 247 307 363 436
#     4  11  24  43  72 109 143 191 248 308 374 448
#     4   8  22  42  73 105 146 191 251 298 368 448
#     4  12  22  45  74 108 142 198 252 299 378 450
#     4   9  20  46  68  99 149 192 236 310 372 433
#
# _framework density 25.647124999999999
#
# number of rings (size 3 to 8) (size 9 to 14) (size 15 to 20)
#    1.714    0.286    2.857    0.000    0.000    8.000 
#    5.143    8.571    0.000    0.000    0.000    0.000 
#    0.000    0.000    0.000    0.000    0.000    0.000 
#
# Total GULP energy -155973.040341 kJ/mol
# GULP energy per Si atom -5570.465726 kJ/mol
# Density = 2.558875 g / cm^3
# Si number density = 25.647125 Si / 1000 Ang^3
#
#
#
# Elastic Constant Matrix: (Units=GPa)
#
#
# Indices 1 2 3 4 5 6 
#
# 1 161.6922 21.4009 111.2580 0.0000 0.0000 0.0000
# 2 21.4009 77.6237 27.8549 0.0000 0.0000 0.0000
# 3 111.2580 27.8549 294.3244 0.0000 0.0000 0.0000
# 4 0.0000 0.0000 0.0000 21.9801 0.0000 0.0000
# 5 0.0000 0.0000 0.0000 0.0000 -44.7652 0.0000
# 6 0.0000 0.0000 0.0000 0.0000 0.0000 9.8443
#
#
#
# Elastic Compliance Matrix: (Units=1/GPa)
#
#
# Indices 1 2 3 4 5 6 
#
# 1 0.008470 -0.001228 -0.003086 0.000000 0.000000 0.000000
# 2 -0.001228 0.013514 -0.000815 0.000000 0.000000 0.000000
# 3 -0.003086 -0.000815 0.004641 0.000000 0.000000 0.000000
# 4 0.000000 0.000000 0.000000 0.045496 0.000000 0.000000
# 5 0.000000 0.000000 0.000000 0.000000 -0.022339 0.000000
# 6 0.000000 0.000000 0.000000 0.000000 0.000000 0.101581
#
#
# Mechanical properties :
#
#
# Convention : Reuss Voigt Hill
#
# Bulk Modulus (GPa) = 61.09384 94.96309 78.02846
# Shear Modulus (GPa) = 29.92644 22.28693 26.10669
#
# Velocity S-wave (km/s) = 3.41963 2.95105 3.19395
# Velocity P-wave (km/s) = 6.28208 6.97988 6.64015
#
# Compressibility (1/GPa) = 0.01636826
#
# Stress axis : x y z
#
# Youngs Moduli (GPa) = 118.05927 73.99964 215.46462
#
# Poissons Ratio (x) = 0.09087 0.66485
# Poissons Ratio (y) = 0.14498 0.17555
# Poissons Ratio (z) = 0.36429 0.06029
#
# Static dielectric constant tensor:
#      x y z
#    x 2.072720 0.000000 0.000000 
#    y 0.000000 2.055870 0.000000 
#    z 0.000000 0.000000 1.891540 
# 
# From -- ./inp_files/23801.got.cif
#   From: 2010.05.17/outbox.cif.g08.bks.cpg/sg72_12_cif.got.tgz:23801.got - 2010.06.03 17:03:01.
