data_PCOD9529982
_publ_section_title
;
Structure prediction by ZEFSAII (Michael W. Deem and Ramdas Pophale) SiO2 
 PCOD9529982
Probable space group: I B C A 
;
_chemical_formula_sum "Si O2"
_cell_formula_units_Z 96
_cell_length_a 18.709316
_cell_length_b 8.852466
_cell_length_c 26.412331
_cell_angle_alpha 90.000000
_cell_angle_beta 90.000000
_cell_angle_gamma 90.000000
_cell_volume 4374.504916
_symmetry_space_group_name_H-M "I B C A "
_symmetry_group_IT_number 73
_symmetry_cell_setting 'orthorhombic'
loop_
_space_group_symop_operation_xyz
x,y,z
-x,1/2-y,z
x,-y,1/2-z
1/2-x,y,-z
-x,-y,-z
x,1/2+y,-z
-x,y,1/2+z
1/2+x,-y,z
1/2+x,1/2+y,1/2+z
1/2-x,-y,1/2+z
1/2+x,1/2-y,-z
-x,1/2+y,1/2-z
1/2-x,1/2-y,1/2-z
1/2+x,y,1/2-z
1/2-x,1/2+y,z
x,1/2-y,1/2+z
loop_
_atom_site_type_symbol
_atom_site_label
_atom_site_fract_x
_atom_site_fract_y
_atom_site_fract_z
Si Si1 0.154154 0.696365 0.356321
Si Si2 0.899451 0.159939 0.836277
Si Si3 0.547446 0.601846 0.938851
Si Si4 0.435741 0.865558 0.051145
Si Si5 0.232469 0.007240 0.191976
Si Si6 0.955705 0.990189 0.190813
O O1 0.128767 0.700119 0.415403
O O2 0.192798 0.842641 0.330934
O O3 0.206789 0.555187 0.345481
O O4 0.079927 0.642773 0.330541
O O5 0.893814 0.121468 0.895834
O O6 0.920521 0.333576 0.829188
O O7 0.960817 0.046094 0.817033
O O8 0.828145 0.121524 0.807479
O O9 0.500000 0.750000 0.941264
O O10 0.483889 0.490698 0.921179
O O11 0.580003 0.571467 0.994507
O O12 0.500000 0.750000 0.043093
O O13 0.260351 0.000000 0.250000
O O14 0.942394 0.000000 0.250000
#
# Coordination Sequence:
#
# PCOD9529982 Si02
#       6
#    16  16  16  16  16  16
#     4  12  24  42  64  91 132 174 231 276 341 403
#     4  11  21  40  63  94 130 171 219 272 338 388
#     4  10  18  37  64  96 128 162 207 274 349 392
#     4  10  21  37  65  98 125 161 217 283 339 399
#     4  12  26  42  62  89 134 188 224 272 334 410
#     4  11  22  37  62  93 128 169 220 278 319 390
#
# _framework density 21.945340999999999
#
# number of rings (size 3 to 8) (size 9 to 14) (size 15 to 20)
#    0.000    1.000    3.333    4.500    0.000    1.333 
#    0.000    0.833    0.000    2.000    0.000    0.000 
#    0.000    0.000    0.000    0.000    0.000    0.000 
#
# Total GULP energy -267472.092145 kJ/mol
# GULP energy per Si atom -5572.335253 kJ/mol
# Density = 2.189539 g / cm^3
# Si number density = 21.945341 Si / 1000 Ang^3
#
#
#
# Elastic Constant Matrix: (Units=GPa)
#
#
# Indices 1 2 3 4 5 6 
#
# 1 73.3047 17.1436 13.7979 0.0000 0.0000 0.0000
# 2 17.1436 60.9462 20.7594 0.0000 0.0000 0.0000
# 3 13.7979 20.7594 120.6213 0.0000 0.0000 0.0000
# 4 0.0000 0.0000 0.0000 25.3654 0.0000 0.0000
# 5 0.0000 0.0000 0.0000 0.0000 39.1235 0.0000
# 6 0.0000 0.0000 0.0000 0.0000 0.0000 34.6898
#
#
#
# Elastic Compliance Matrix: (Units=1/GPa)
#
#
# Indices 1 2 3 4 5 6 
#
# 1 0.014722 -0.003790 -0.001032 0.000000 0.000000 0.000000
# 2 -0.003790 0.018405 -0.002734 0.000000 0.000000 0.000000
# 3 -0.001032 -0.002734 0.008879 0.000000 0.000000 0.000000
# 4 0.000000 0.000000 0.000000 0.039424 0.000000 0.000000
# 5 0.000000 0.000000 0.000000 0.000000 0.025560 0.000000
# 6 0.000000 0.000000 0.000000 0.000000 0.000000 0.028827
#
#
# Mechanical properties :
#
#
# Convention : Reuss Voigt Hill
#
# Bulk Modulus (GPa) = 37.18161 39.80824 38.49492
# Shear Modulus (GPa) = 31.27076 33.38047 32.32562
#
# Velocity S-wave (km/s) = 3.77893 3.90433 3.84214
# Velocity P-wave (km/s) = 6.00167 6.20517 6.10427
#
# Compressibility (1/GPa) = 0.02689502
#
# Stress axis : x y z
#
# Youngs Moduli (GPa) = 67.92458 54.33237 112.62542
#
# Poissons Ratio (x) = 0.20591 0.11621
# Poissons Ratio (y) = 0.25742 0.30793
# Poissons Ratio (z) = 0.07009 0.14855
#
# Static dielectric constant tensor:
#      x y z
#    x 1.788950 0.000000 0.000000 
#    y 0.000000 1.915430 0.000000 
#    z 0.000000 0.000000 1.876480 
# 
# From -- ./inp_files/32619.got.cif
#   From: 2010.05.17/outbox.cif.g08.bks.cpg/sg73_17_cif.got.tgz:32619.got - 2010.06.03 17:35:07.
