data_PCOD9529093
_publ_section_title
;
Structure prediction by ZEFSAII (Michael W. Deem and Ramdas Pophale) SiO2 
 PCOD9529093
Probable space group: I B A M
;
_chemical_formula_sum "Si O2"
_cell_formula_units_Z 68
_cell_length_a 5.166169
_cell_length_b 18.864851
_cell_length_c 28.519679
_cell_angle_alpha 90.000000
_cell_angle_beta 90.000000
_cell_angle_gamma 90.000000
_cell_volume 2779.499636
_symmetry_space_group_name_H-M "I B A M"
_symmetry_group_IT_number 72
_symmetry_cell_setting 'orthorhombic'
loop_
_space_group_symop_operation_xyz
x,y,z
-x,-y,z
x,-y,1/2-z
-x,y,1/2-z
-x,-y,-z
x,y,-z
-x,y,1/2+z
x,-y,1/2+z
1/2+x,1/2+y,1/2+z
1/2-x,1/2-y,1/2+z
1/2+x,1/2-y,-z
1/2-x,1/2+y,-z
1/2-x,1/2-y,1/2-z
1/2+x,1/2+y,1/2-z
1/2-x,1/2+y,z
1/2+x,1/2-y,z
loop_
_atom_site_type_symbol
_atom_site_label
_atom_site_fract_x
_atom_site_fract_y
_atom_site_fract_z
Si Si1 0.072318 0.290255 0.096381
Si Si2 0.418807 0.833403 0.202476
Si Si3 0.916968 0.079123 0.683999
Si Si4 0.000000 0.000000 0.000000
Si Si5 0.183665 0.562980 0.087363
O O1 0.352518 0.264842 0.080873
O O2 0.056588 0.292560 0.153369
O O3 0.992400 0.367998 0.079547
O O4 0.500000 0.793502 0.250000
O O5 0.635070 0.895868 0.200484
O O6 0.136617 0.867716 0.201436
O O7 0.891839 0.082172 0.627411
O O8 0.000000 0.000000 0.696712
O O9 0.180777 0.036242 0.041027
O O10 0.000000 0.500000 0.106348
#
# Coordination Sequence:
#
# PCOD9529093 Si02
#       5
#    16  16  16   4  16
#     4  11  25  45  73 101 147 200 235 293 366 427
#     4  11  24  39  62  99 140 191 253 298 343 417
#     4  11  21  38  65  95 144 190 230 299 366 424
#     4  12  26  44  84 110 138 176 236 310 358 450
#     4  11  25  46  75 111 146 183 249 297 372 447
#
# _framework density 24.464832000000001
#
# number of rings (size 3 to 8) (size 9 to 14) (size 15 to 20)
#    0.000    0.941    1.176    7.412    3.294    3.765 
#    0.000    1.176    0.000    0.000    0.000    0.000 
#    0.000    0.000    0.000    0.000    0.000    0.000 
#
# Total GULP energy -190111.346438 kJ/mol
# GULP energy per Si atom -5591.510189 kJ/mol
# Density = 2.440915 g / cm^3
# Si number density = 24.464832 Si / 1000 Ang^3
#
#
#
# Elastic Constant Matrix: (Units=GPa)
#
#
# Indices 1 2 3 4 5 6 
#
# 1 125.4006 37.5258 37.1620 0.0000 0.0000 0.0000
# 2 37.5258 101.5934 -16.0736 0.0000 0.0000 0.0000
# 3 37.1620 -16.0736 107.0908 0.0000 0.0000 0.0000
# 4 0.0000 0.0000 0.0000 -98.9150 0.0000 0.0000
# 5 0.0000 0.0000 0.0000 0.0000 34.2896 0.0000
# 6 0.0000 0.0000 0.0000 0.0000 0.0000 36.6554
#
#
#
# Elastic Compliance Matrix: (Units=1/GPa)
#
#
# Indices 1 2 3 4 5 6 
#
# 1 0.010664 -0.004635 -0.004396 0.000000 0.000000 0.000000
# 2 -0.004635 0.012097 0.003424 0.000000 0.000000 0.000000
# 3 -0.004396 0.003424 0.011377 0.000000 0.000000 0.000000
# 4 0.000000 0.000000 0.000000 -0.010110 0.000000 0.000000
# 5 0.000000 0.000000 0.000000 0.000000 0.029163 0.000000
# 6 0.000000 0.000000 0.000000 0.000000 0.000000 0.027281
#
#
# Mechanical properties :
#
#
# Convention : Reuss Voigt Hill
#
# Bulk Modulus (GPa) = 43.62161 50.14590 46.88376
# Shear Modulus (GPa) = 50.33816 12.77072 31.55444
#
# Velocity S-wave (km/s) = 4.54097 2.28722 3.59526
# Velocity P-wave (km/s) = 6.73520 5.24564 6.03654
#
# Compressibility (1/GPa) = 0.02292442
#
# Stress axis : x y z
#
# Youngs Moduli (GPa) = 93.77229 82.66682 87.89416
#
# Poissons Ratio (x) = 0.38313 0.38640
# Poissons Ratio (y) = 0.43460 -0.30094
# Poissons Ratio (z) = 0.41224 -0.28304
#
# Static dielectric constant tensor:
#      x y z
#    x 1.936710 0.000000 0.000000 
#    y 0.000000 1.939390 0.000000 
#    z 0.000000 0.000000 1.952130 
# 
# From -- ./inp_files/50213.got.cif
#   From: 2010.05.17/outbox.cif.g08.bks.cpg/sg72_26_cif.got.tgz:50213.got - 2010.06.03 17:03:01.
