data_PCOD9529485
_publ_section_title
;
Structure prediction by ZEFSAII (Michael W. Deem and Ramdas Pophale) SiO2 
 PCOD9529485
Probable space group: I B A M
;
_chemical_formula_sum "Si O2"
_cell_formula_units_Z 64
_cell_length_a 14.583568
_cell_length_b 13.219334
_cell_length_c 14.693482
_cell_angle_alpha 90.000000
_cell_angle_beta 90.000000
_cell_angle_gamma 90.000000
_cell_volume 2832.683755
_symmetry_space_group_name_H-M "I B A M"
_symmetry_group_IT_number 72
_symmetry_cell_setting 'orthorhombic'
loop_
_space_group_symop_operation_xyz
x,y,z
-x,-y,z
x,-y,1/2-z
-x,y,1/2-z
-x,-y,-z
x,y,-z
-x,y,1/2+z
x,-y,1/2+z
1/2+x,1/2+y,1/2+z
1/2-x,1/2-y,1/2+z
1/2+x,1/2-y,-z
1/2-x,1/2+y,-z
1/2-x,1/2-y,1/2-z
1/2+x,1/2+y,1/2-z
1/2-x,1/2+y,z
1/2+x,1/2-y,z
loop_
_atom_site_type_symbol
_atom_site_label
_atom_site_fract_x
_atom_site_fract_y
_atom_site_fract_z
Si Si1 0.896648 0.268725 0.395865
Si Si2 0.546402 0.098587 0.349392
Si Si3 0.290981 0.030949 0.389663
Si Si4 0.097025 0.955641 0.611562
O O1 0.866133 0.258987 0.500000
O O2 0.837637 0.363516 0.359421
O O3 0.888516 0.158743 0.353231
O O4 0.003767 0.302876 0.394839
O O5 0.500000 0.103562 0.250000
O O6 0.651489 0.065629 0.352111
O O7 0.500000 0.000000 0.395740
O O8 0.297724 0.025271 0.500000
O O9 0.185287 0.021718 0.363821
O O10 0.094329 0.951496 0.500000
O O11 0.000000 0.000000 0.641070
#
# Coordination Sequence:
#
# PCOD9529485 Si02
#       4
#    16  16  16  16
#     4   9  17  30  50  74  98 128 165 206 251 294
#     4   9  17  30  49  73  98 127 165 208 249 292
#     4   9  17  30  49  74 101 130 167 206 245 294
#     4   9  18  31  48  74 105 132 162 203 248 293
#
# _framework density 22.593416999999999
#
# number of rings (size 3 to 8) (size 9 to 14) (size 15 to 20)
#    0.000    3.000    0.000    0.750    0.000    5.000 
#    0.000    8.750    0.000    6.750    0.000    5.250 
#    0.000    0.000    0.000    0.000    0.000    0.250 
#
# Total GULP energy -178305.838577 kJ/mol
# GULP energy per Si atom -5572.057456 kJ/mol
# Density = 2.254199 g / cm^3
# Si number density = 22.593417 Si / 1000 Ang^3
#
#
#
# Elastic Constant Matrix: (Units=GPa)
#
#
# Indices 1 2 3 4 5 6 
#
# 1 195.5512 74.5338 10.1602 0.0000 0.0000 0.0000
# 2 74.5338 125.1587 10.3082 0.0000 0.0000 0.0000
# 3 10.1602 10.3082 67.2169 0.0000 0.0000 0.0000
# 4 0.0000 0.0000 0.0000 3.2380 0.0000 0.0000
# 5 0.0000 0.0000 0.0000 0.0000 5.5359 0.0000
# 6 0.0000 0.0000 0.0000 0.0000 0.0000 23.2062
#
#
#
# Elastic Compliance Matrix: (Units=1/GPa)
#
#
# Indices 1 2 3 4 5 6 
#
# 1 0.006626 -0.003913 -0.000401 0.000000 0.000000 0.000000
# 2 -0.003913 0.010403 -0.001004 0.000000 0.000000 0.000000
# 3 -0.000401 -0.001004 0.015092 0.000000 0.000000 0.000000
# 4 0.000000 0.000000 0.000000 0.308828 0.000000 0.000000
# 5 0.000000 0.000000 0.000000 0.000000 0.180639 0.000000
# 6 0.000000 0.000000 0.000000 0.000000 0.000000 0.043092
#
#
# Mechanical properties :
#
#
# Convention : Reuss Voigt Hill
#
# Bulk Modulus (GPa) = 46.54597 64.21456 55.38027
# Shear Modulus (GPa) = 8.58402 25.92435 17.25419
#
# Velocity S-wave (km/s) = 1.95131 3.39105 2.76648
# Velocity P-wave (km/s) = 5.07179 6.61935 5.89656
#
# Compressibility (1/GPa) = 0.02148414
#
# Stress axis : x y z
#
# Youngs Moduli (GPa) = 150.92162 96.12934 66.26094
#
# Poissons Ratio (x) = 0.37613 0.02660
# Poissons Ratio (y) = 0.59052 0.06652
# Poissons Ratio (z) = 0.06059 0.09650
#
# Static dielectric constant tensor:
#      x y z
#    x 1.872490 0.000000 0.000000 
#    y 0.000000 1.856880 0.000000 
#    z 0.000000 0.000000 1.884900 
# 
# From -- ./inp_files/28803.got.cif
#   From: 2010.05.17/outbox.cif.g08.bks.cpg/sg72_15_cif.got.tgz:28803.got - 2010.06.03 17:03:01.
