data_PCOD9529377
_publ_section_title
;
Structure prediction by ZEFSAII (Michael W. Deem and Ramdas Pophale) SiO2 
 PCOD9529377
Probable space group: I B A M
;
_chemical_formula_sum "Si O2"
_cell_formula_units_Z 56
_cell_length_a 9.746945
_cell_length_b 10.398958
_cell_length_c 25.625724
_cell_angle_alpha 90.000000
_cell_angle_beta 90.000000
_cell_angle_gamma 90.000000
_cell_volume 2597.373970
_symmetry_space_group_name_H-M "I B A M"
_symmetry_group_IT_number 72
_symmetry_cell_setting 'orthorhombic'
loop_
_space_group_symop_operation_xyz
x,y,z
-x,-y,z
x,-y,1/2-z
-x,y,1/2-z
-x,-y,-z
x,y,-z
-x,y,1/2+z
x,-y,1/2+z
1/2+x,1/2+y,1/2+z
1/2-x,1/2-y,1/2+z
1/2+x,1/2-y,-z
1/2-x,1/2+y,-z
1/2-x,1/2-y,1/2-z
1/2+x,1/2+y,1/2-z
1/2-x,1/2+y,z
1/2+x,1/2-y,z
loop_
_atom_site_type_symbol
_atom_site_label
_atom_site_fract_x
_atom_site_fract_y
_atom_site_fract_z
Si Si1 0.500000 0.000000 0.669376
Si Si2 0.447320 0.356190 0.440137
Si Si3 0.259579 0.378033 0.783780
Si Si4 0.673128 0.778184 0.883256
O O1 0.604475 0.914922 0.702009
O O2 0.400265 0.906173 0.637568
O O3 0.500000 0.500000 0.429755
O O4 0.399349 0.349034 0.500000
O O5 0.580547 0.269619 0.430687
O O6 0.326780 0.310227 0.401576
O O7 0.315723 0.500000 0.750000
O O8 0.250000 0.250000 0.750000
O O9 0.329196 0.331264 0.837841
#
# Coordination Sequence:
#
# PCOD9529377 Si02
#       4
#     8  16  16  16
#     4  12  25  46  71 106 152 188 245 308 361 440
#     4  11  26  47  74 109 145 191 250 309 377 451
#     4  12  26  44  72 107 149 199 243 303 366 442
#     4  12  25  48  75 107 149 195 246 306 379 434
#
# _framework density 21.560237999999998
#
# number of rings (size 3 to 8) (size 9 to 14) (size 15 to 20)
#    0.000    0.286    5.714    3.000    0.000    0.000 
#    0.000    5.714    0.000    0.000    0.000    0.000 
#    0.000    0.000    0.000    0.000    0.000    0.000 
#
# Total GULP energy -156538.004988 kJ/mol
# GULP energy per Si atom -5590.643035 kJ/mol
# Density = 2.151117 g / cm^3
# Si number density = 21.560238 Si / 1000 Ang^3
#
#
#
# Elastic Constant Matrix: (Units=GPa)
#
#
# Indices 1 2 3 4 5 6 
#
# 1 85.7269 35.9778 21.7470 0.0000 0.0000 0.0000
# 2 35.9778 138.8096 54.8812 0.0000 0.0000 0.0000
# 3 21.7470 54.8812 92.0102 0.0000 0.0000 0.0000
# 4 0.0000 0.0000 0.0000 -23.9425 0.0000 0.0000
# 5 0.0000 0.0000 0.0000 0.0000 14.7749 0.0000
# 6 0.0000 0.0000 0.0000 0.0000 0.0000 47.7575
#
#
#
# Elastic Compliance Matrix: (Units=1/GPa)
#
#
# Indices 1 2 3 4 5 6 
#
# 1 0.013228 -0.002869 -0.001415 0.000000 0.000000 0.000000
# 2 -0.002869 0.010050 -0.005316 0.000000 0.000000 0.000000
# 3 -0.001415 -0.005316 0.014374 0.000000 0.000000 0.000000
# 4 0.000000 0.000000 0.000000 -0.041767 0.000000 0.000000
# 5 0.000000 0.000000 0.000000 0.000000 0.067682 0.000000
# 6 0.000000 0.000000 0.000000 0.000000 0.000000 0.020939
#
#
# Mechanical properties :
#
#
# Convention : Reuss Voigt Hill
#
# Bulk Modulus (GPa) = 54.19880 60.19542 57.19711
# Shear Modulus (GPa) = 45.51364 21.31403 33.41383
#
# Velocity S-wave (km/s) = 4.59955 3.14758 3.94101
# Velocity P-wave (km/s) = 7.30757 6.41794 6.87716
#
# Compressibility (1/GPa) = 0.01845059
#
# Stress axis : x y z
#
# Youngs Moduli (GPa) = 75.59707 99.50675 69.57120
#
# Poissons Ratio (x) = 0.28549 0.09846
# Poissons Ratio (y) = 0.21689 0.36985
# Poissons Ratio (z) = 0.10699 0.52899
#
# Static dielectric constant tensor:
#      x y z
#    x 1.695530 0.000000 0.000000 
#    y 0.000000 1.584040 0.000000 
#    z 0.000000 0.000000 1.701080 
# 
# From -- ./inp_files/46855.got.cif
#   From: 2010.05.17/outbox.cif.g08.bks.cpg/sg72_24_cif.got.tgz:46855.got - 2010.06.03 17:03:01.
