data_PCOD9529505
_publ_section_title
;
Structure prediction by ZEFSAII (Michael W. Deem and Ramdas Pophale) SiO2 
 PCOD9529505
Probable space group: I B A M
;
_chemical_formula_sum "Si O2"
_cell_formula_units_Z 56
_cell_length_a 24.000000
_cell_length_b 12.000000
_cell_length_c 21.000000
_cell_angle_alpha 90.000000
_cell_angle_beta 90.000000
_cell_angle_gamma 90.000000
_cell_volume 6048.000000
_symmetry_space_group_name_H-M "I B A M"
_symmetry_group_IT_number 72
_symmetry_cell_setting 'orthorhombic'
loop_
_space_group_symop_operation_xyz
x,y,z
-x,-y,z
x,-y,1/2-z
-x,y,1/2-z
-x,-y,-z
x,y,-z
-x,y,1/2+z
x,-y,1/2+z
1/2+x,1/2+y,1/2+z
1/2-x,1/2-y,1/2+z
1/2+x,1/2-y,-z
1/2-x,1/2+y,-z
1/2-x,1/2-y,1/2-z
1/2+x,1/2+y,1/2-z
1/2-x,1/2+y,z
1/2+x,1/2-y,z
loop_
_atom_site_type_symbol
_atom_site_label
_atom_site_fract_x
_atom_site_fract_y
_atom_site_fract_z
Si Si1 0.817228 0.750053 0.316528
Si Si2 0.884310 0.381654 0.075309
Si Si3 0.495796 0.832199 0.074575
Si Si4 0.048754 0.911116 0.070457
Si Si5 0.365954 0.484115 0.821753
Si Si6 0.371018 0.134540 0.426066
Si Si7 0.312257 0.278299 0.674628
O O1 0.854385 0.696772 0.372909
O O2 0.754077 0.710088 0.322014
O O3 0.834026 0.729598 0.242606
O O4 0.821078 0.884385 0.320382
O O5 0.949303 0.398968 0.095158
O O6 0.858457 0.503761 0.076075
O O7 0.883355 0.343574 0.000000
O O8 0.518823 0.706911 0.080610
O O9 0.433778 0.843971 0.100575
O O10 0.488946 0.860582 0.000000
O O11 0.089532 0.944586 0.126746
O O12 0.076061 0.909604 0.000000
O O13 0.000000 0.000000 0.068714
O O14 0.389355 0.500000 0.750000
O O15 0.339494 0.602113 0.837958
O O16 0.369233 0.171236 0.500000
O O17 0.328481 0.199310 0.382710
#
# Coordination Sequence:
#
# PCOD9529505 Si02
#       7
#    16  16  16  16  16  16  16
#     4  10  22  40  60  82 111 149 195 235 281 341
#     4  10  20  36  60  87 115 150 188 231 281 336
#     4   9  17  33  56  83 115 148 182 223 278 338
#     4  10  19  32  55  84 113 148 185 224 276 336
#     4  10  21  38  57  83 112 145 191 233 280 333
#     4  10  21  37  58  87 118 148 188 233 282 335
#     4  10  23  39  59  83 112 152 189 237 287 331
#
# _framework density 9.2592590000000001
#
# number of rings (size 3 to 8) (size 9 to 14) (size 15 to 20)
#    0.000    2.143    1.429    1.286    2.000    4.857 
#    0.000    0.714    0.000    1.714    0.000    0.000 
#    0.000    0.000    0.000    0.000    0.000    0.000 
#
# Total GULP energy -311882.132738 kJ/mol
# GULP energy per Si atom -5569.323799 kJ/mol
# Density = 0.923818 g / cm^3
# Si number density = 9.259259 Si / 1000 Ang^3
#
#
#
# Elastic Constant Matrix: (Units=GPa)
#
#
# Indices 1 2 3 4 5 6 
#
# 1 20.6106 6.2204 10.3445 0.0000 0.0000 0.0000
# 2 6.2204 60.3498 37.1396 0.0000 0.0000 0.0000
# 3 10.3445 37.1396 72.9370 0.0000 0.0000 0.0000
# 4 0.0000 0.0000 0.0000 31.2574 0.0000 0.0000
# 5 0.0000 0.0000 0.0000 0.0000 29.0967 0.0000
# 6 0.0000 0.0000 0.0000 0.0000 0.0000 8.1730
#
#
#
# Elastic Compliance Matrix: (Units=1/GPa)
#
#
# Indices 1 2 3 4 5 6 
#
# 1 0.052297 -0.001203 -0.006805 0.000000 0.000000 0.000000
# 2 -0.001203 0.024160 -0.012132 0.000000 0.000000 0.000000
# 3 -0.006805 -0.012132 0.020853 0.000000 0.000000 0.000000
# 4 0.000000 0.000000 0.000000 0.031992 0.000000 0.000000
# 5 0.000000 0.000000 0.000000 0.000000 0.034368 0.000000
# 6 0.000000 0.000000 0.000000 0.000000 0.000000 0.122354
#
#
# Mechanical properties :
#
#
# Convention : Reuss Voigt Hill
#
# Bulk Modulus (GPa) = 17.53413 29.03405 23.28409
# Shear Modulus (GPa) = 14.47959 20.38495 17.43227
#
# Velocity S-wave (km/s) = 2.79928 3.32141 3.07146
# Velocity P-wave (km/s) = 4.46508 5.51556 5.01789
#
# Compressibility (1/GPa) = 0.05703164
#
# Stress axis : x y z
#
# Youngs Moduli (GPa) = 19.12157 41.39082 47.95458
#
# Poissons Ratio (x) = 0.04978 0.32632
# Poissons Ratio (y) = 0.02300 0.58177
# Poissons Ratio (z) = 0.13012 0.50214
#
# Static dielectric constant tensor:
#      x y z
#    x 1.624800 0.000000 0.000000 
#    y 0.000000 1.878950 0.000000 
#    z 0.000000 0.000000 1.643660 
# 
# From -- ./inp_files/37282.got.cif
#   From: 2010.05.17/outbox.ucp.g08.bks.cvg/sg72_19_cif.got.tgz:37282.got - 2010.06.11 16:33:07.
