data_PCOD9529268
_publ_section_title
;
Structure prediction by ZEFSAII (Michael W. Deem and Ramdas Pophale) SiO2 
 PCOD9529268
Probable space group: I B A M
;
_chemical_formula_sum "Si O2"
_cell_formula_units_Z 64
_cell_length_a 16.378571
_cell_length_b 9.776053
_cell_length_c 14.385001
_cell_angle_alpha 90.000000
_cell_angle_beta 90.000000
_cell_angle_gamma 90.000000
_cell_volume 2303.294399
_symmetry_space_group_name_H-M "I B A M"
_symmetry_group_IT_number 72
_symmetry_cell_setting 'orthorhombic'
loop_
_space_group_symop_operation_xyz
x,y,z
-x,-y,z
x,-y,1/2-z
-x,y,1/2-z
-x,-y,-z
x,y,-z
-x,y,1/2+z
x,-y,1/2+z
1/2+x,1/2+y,1/2+z
1/2-x,1/2-y,1/2+z
1/2+x,1/2-y,-z
1/2-x,1/2+y,-z
1/2-x,1/2-y,1/2-z
1/2+x,1/2+y,1/2-z
1/2-x,1/2+y,z
1/2+x,1/2-y,z
loop_
_atom_site_type_symbol
_atom_site_label
_atom_site_fract_x
_atom_site_fract_y
_atom_site_fract_z
Si Si1 0.756580 0.510326 0.604016
Si Si2 0.506136 0.155056 0.135061
Si Si3 0.584523 0.593883 0.849684
Si Si4 0.168596 0.246328 0.827588
O O1 0.790426 0.499070 0.500000
O O2 0.659909 0.476292 0.600915
O O3 0.800001 0.404273 0.673534
O O4 0.748497 0.666364 0.637503
O O5 0.500000 0.151724 0.250000
O O6 0.439270 0.262391 0.104721
O O7 0.590712 0.225435 0.108632
O O8 0.500000 0.000000 0.104819
O O9 0.500000 0.500000 0.845522
O O10 0.626786 0.348817 0.747211
#
# Coordination Sequence:
#
# PCOD9529268 Si02
#       4
#    16  16  16  16
#     4  12  27  45  66 101 148 193 239 299 381 462
#     4   9  20  39  68 101 137 173 234 307 361 421
#     4  11  23  45  75 107 136 183 254 319 366 432
#     4  11  25  45  73 101 143 194 247 304 370 450
#
# _framework density 27.786286
#
# number of rings (size 3 to 8) (size 9 to 14) (size 15 to 20)
#    0.000    1.250    2.500    2.250   10.500    0.500 
#    4.500    0.000    0.000    3.750    0.000    0.000 
#    0.000    0.000    0.000    0.000    0.000    0.000 
#
# Total GULP energy -178403.374244 kJ/mol
# GULP energy per Si atom -5575.105445 kJ/mol
# Density = 2.772304 g / cm^3
# Si number density = 27.786286 Si / 1000 Ang^3
#
#
#
# Elastic Constant Matrix: (Units=GPa)
#
#
# Indices 1 2 3 4 5 6 
#
# 1 113.0660 17.5934 3.5211 0.0000 0.0000 0.0000
# 2 17.5934 188.2600 33.8615 0.0000 0.0000 0.0000
# 3 3.5211 33.8615 147.7220 0.0000 0.0000 0.0000
# 4 0.0000 0.0000 0.0000 -17.8434 0.0000 0.0000
# 5 0.0000 0.0000 0.0000 0.0000 -3.7664 0.0000
# 6 0.0000 0.0000 0.0000 0.0000 0.0000 71.4281
#
#
#
# Elastic Compliance Matrix: (Units=1/GPa)
#
#
# Indices 1 2 3 4 5 6 
#
# 1 0.008975 -0.000835 -0.000023 0.000000 0.000000 0.000000
# 2 -0.000835 0.005618 -0.001268 0.000000 0.000000 0.000000
# 3 -0.000023 -0.001268 0.007061 0.000000 0.000000 0.000000
# 4 0.000000 0.000000 0.000000 -0.056043 0.000000 0.000000
# 5 0.000000 0.000000 0.000000 0.000000 -0.265509 0.000000
# 6 0.000000 0.000000 0.000000 0.000000 0.000000 0.014000
#
#
# Mechanical properties :
#
#
# Convention : Reuss Voigt Hill
#
# Bulk Modulus (GPa) = 57.46067 62.11111 59.78589
# Shear Modulus (GPa) = -18.12597 36.23516 9.05459
#
# Velocity S-wave (km/s) = -2.55686 3.61510 1.80713
# Velocity P-wave (km/s) = 3.46522 6.31086 5.09091
#
# Compressibility (1/GPa) = 0.01740321
#
# Stress axis : x y z
#
# Youngs Moduli (GPa) = 111.42096 178.00414 141.63036
#
# Poissons Ratio (x) = 0.14858 0.00320
# Poissons Ratio (y) = 0.09300 0.17957
# Poissons Ratio (z) = 0.00252 0.22568
#
# Static dielectric constant tensor:
#      x y z
#    x 2.134900 0.000000 0.000000 
#    y 0.000000 2.219590 0.000000 
#    z 0.000000 0.000000 2.373700 
# 
# From -- ./inp_files/48891.got.cif
#   From: 2010.05.17/outbox.cif.g08.bks.cpg/sg72_25_cif.got.tgz:48891.got - 2010.06.03 17:03:01.
