data_PCOD9529891
_publ_section_title
;
Structure prediction by ZEFSAII (Michael W. Deem and Ramdas Pophale) SiO2 
 PCOD9529891
Probable space group: I B C A 
;
_chemical_formula_sum "Si O2"
_cell_formula_units_Z 80
_cell_length_a 20.663096
_cell_length_b 9.577379
_cell_length_c 21.097787
_cell_angle_alpha 90.000000
_cell_angle_beta 90.000000
_cell_angle_gamma 90.000000
_cell_volume 4175.216217
_symmetry_space_group_name_H-M "I B C A "
_symmetry_group_IT_number 73
_symmetry_cell_setting 'orthorhombic'
loop_
_space_group_symop_operation_xyz
x,y,z
-x,1/2-y,z
x,-y,1/2-z
1/2-x,y,-z
-x,-y,-z
x,1/2+y,-z
-x,y,1/2+z
1/2+x,-y,z
1/2+x,1/2+y,1/2+z
1/2-x,-y,1/2+z
1/2+x,1/2-y,-z
-x,1/2+y,1/2-z
1/2-x,1/2-y,1/2-z
1/2+x,y,1/2-z
1/2-x,1/2+y,z
x,1/2-y,1/2+z
loop_
_atom_site_type_symbol
_atom_site_label
_atom_site_fract_x
_atom_site_fract_y
_atom_site_fract_z
Si Si1 0.829039 0.457094 0.605825
Si Si2 0.774165 0.274531 0.933447
Si Si3 0.000000 0.750000 0.906519
Si Si4 0.401901 0.151869 0.504823
Si Si5 0.500000 0.250000 0.101891
Si Si6 0.451223 0.494352 0.823650
O O1 0.789993 0.599492 0.612649
O O2 0.779762 0.331480 0.592101
O O3 0.874875 0.468334 0.542118
O O4 0.878508 0.439654 0.663114
O O5 0.839827 0.198271 0.954954
O O6 0.750000 0.339297 0.000000
O O7 0.004600 0.885149 0.862169
O O8 0.063558 0.748309 0.951887
O O9 0.458572 0.146861 0.556541
O O10 0.542301 0.352603 0.145149
O O11 0.466862 0.500000 0.750000
#
# Coordination Sequence:
#
# PCOD9529891 Si02
#       6
#    16  16   8  16   8  16
#     4  10  21  36  57  85 118 152 192 243 292 357
#     4  10  18  34  55  86 118 147 182 237 305 353
#     4   9  21  36  58  88 119 147 190 254 302 357
#     4   9  19  32  59  93 116 143 185 244 314 364
#     4  11  21  36  66  84 119 155 194 246 312 367
#     4  11  23  41  58  82 119 163 208 246 289 352
#
# _framework density 19.160684
#
# number of rings (size 3 to 8) (size 9 to 14) (size 15 to 20)
#    0.000    2.000    2.000    2.400    2.800    2.400 
#    3.600    1.000    0.000    0.000    0.000    0.000 
#    0.000    0.000    0.000    0.000    0.000    0.000 
#
# Total GULP energy -222725.527844 kJ/mol
# GULP energy per Si atom -5568.138196 kJ/mol
# Density = 1.911707 g / cm^3
# Si number density = 19.160684 Si / 1000 Ang^3
#
#
#
# Elastic Constant Matrix: (Units=GPa)
#
#
# Indices 1 2 3 4 5 6 
#
# 1 83.3955 17.3712 28.6876 0.0000 0.0000 0.0000
# 2 17.3712 67.4485 31.4805 0.0000 0.0000 0.0000
# 3 28.6876 31.4805 83.8059 0.0000 0.0000 0.0000
# 4 0.0000 0.0000 0.0000 18.5970 0.0000 0.0000
# 5 0.0000 0.0000 0.0000 0.0000 11.3511 0.0000
# 6 0.0000 0.0000 0.0000 0.0000 0.0000 25.8454
#
#
#
# Elastic Compliance Matrix: (Units=1/GPa)
#
#
# Indices 1 2 3 4 5 6 
#
# 1 0.013737 -0.001629 -0.004091 0.000000 0.000000 0.000000
# 2 -0.001629 0.018171 -0.006268 0.000000 0.000000 0.000000
# 3 -0.004091 -0.006268 0.015687 0.000000 0.000000 0.000000
# 4 0.000000 0.000000 0.000000 0.053772 0.000000 0.000000
# 5 0.000000 0.000000 0.000000 0.000000 0.088097 0.000000
# 6 0.000000 0.000000 0.000000 0.000000 0.000000 0.038692
#
#
# Mechanical properties :
#
#
# Convention : Reuss Voigt Hill
#
# Bulk Modulus (GPa) = 42.33600 43.30315 42.81958
# Shear Modulus (GPa) = 19.23035 21.63274 20.43154
#
# Velocity S-wave (km/s) = 3.17146 3.36373 3.26901
# Velocity P-wave (km/s) = 5.96272 6.14291 6.05349
#
# Compressibility (1/GPa) = 0.02362056
#
# Stress axis : x y z
#
# Youngs Moduli (GPa) = 72.79351 55.03217 63.74649
#
# Poissons Ratio (x) = 0.08964 0.26076
# Poissons Ratio (y) = 0.11857 0.39957
# Poissons Ratio (z) = 0.29777 0.34495
#
# Static dielectric constant tensor:
#      x y z
#    x 1.715260 0.000000 0.000000 
#    y 0.000000 1.688120 0.000000 
#    z 0.000000 0.000000 1.650570 
# 
# From -- ./inp_files/6221.got.cif
#   From: 2010.05.17/outbox.cif.g08.bks.cpg/sg73_4_cif.got.tgz:6221.got - 2010.06.03 17:35:07.
