data_PCOD9529150
_publ_section_title
;
Structure prediction by ZEFSAII (Michael W. Deem and Ramdas Pophale) SiO2 
 PCOD9529150
Probable space group: I B A M
;
_chemical_formula_sum "Si O2"
_cell_formula_units_Z 88
_cell_length_a 11.805007
_cell_length_b 23.646562
_cell_length_c 15.495764
_cell_angle_alpha 90.000000
_cell_angle_beta 90.000000
_cell_angle_gamma 90.000000
_cell_volume 4325.608894
_symmetry_space_group_name_H-M "I B A M"
_symmetry_group_IT_number 72
_symmetry_cell_setting 'orthorhombic'
loop_
_space_group_symop_operation_xyz
x,y,z
-x,-y,z
x,-y,1/2-z
-x,y,1/2-z
-x,-y,-z
x,y,-z
-x,y,1/2+z
x,-y,1/2+z
1/2+x,1/2+y,1/2+z
1/2-x,1/2-y,1/2+z
1/2+x,1/2-y,-z
1/2-x,1/2+y,-z
1/2-x,1/2-y,1/2-z
1/2+x,1/2+y,1/2-z
1/2-x,1/2+y,z
1/2+x,1/2-y,z
loop_
_atom_site_type_symbol
_atom_site_label
_atom_site_fract_x
_atom_site_fract_y
_atom_site_fract_z
Si Si1 0.624791 0.526235 0.098140
Si Si2 0.368349 0.874881 0.755616
Si Si3 0.214585 0.500000 0.250000
Si Si4 0.752427 0.799766 0.599906
Si Si5 0.280882 0.667791 0.903318
Si Si6 0.529731 0.353948 0.649469
O O1 0.500000 0.500000 0.099890
O O2 0.704579 0.495150 0.166218
O O3 0.602732 0.590349 0.128301
O O4 0.668044 0.524416 0.000000
O O5 0.500000 0.860127 0.750000
O O6 0.354172 0.942507 0.764164
O O7 0.313020 0.840710 0.834853
O O8 0.298343 0.857563 0.670378
O O9 0.735834 0.816083 0.500000
O O10 0.713243 0.735309 0.611044
O O11 0.886547 0.803887 0.621370
O O12 0.409094 0.644919 0.897178
O O13 0.236804 0.657367 0.000000
O O14 0.500000 0.351169 0.750000
#
# Coordination Sequence:
#
# PCOD9529150 Si02
#       6
#    16  16   8  16  16  16
#     4  11  22  37  64  98 133 170 217 276 338 399
#     4  12  27  45  68  94 133 180 232 277 332 398
#     4  12  24  44  64  94 130 179 227 274 332 392
#     4  11  25  44  68  99 135 177 221 273 339 407
#     4  11  25  43  69 103 137 173 221 280 338 404
#     4  12  22  40  69 101 136 173 217 276 341 407
#
# _framework density 20.343957
#
# number of rings (size 3 to 8) (size 9 to 14) (size 15 to 20)
#    0.000    0.545    3.636    4.909    2.545    2.909 
#    0.000    0.000    0.000    3.273    0.000    0.000 
#    0.000    0.000    0.000    0.000    0.000    0.000 
#
# Total GULP energy -246165.443261 kJ/mol
# GULP energy per Si atom -5594.669165 kJ/mol
# Density = 2.029765 g / cm^3
# Si number density = 20.343957 Si / 1000 Ang^3
#
#
#
# Elastic Constant Matrix: (Units=GPa)
#
#
# Indices 1 2 3 4 5 6 
#
# 1 110.8862 8.5966 39.5273 0.0000 0.0000 0.0000
# 2 8.5966 50.8444 33.3544 0.0001 0.0000 0.0000
# 3 39.5273 33.3544 150.9815 0.0000 0.0001 0.0000
# 4 0.0000 0.0001 0.0000 155.7486 -0.0001 0.0000
# 5 0.0000 0.0000 0.0001 -0.0001 -62.3276 0.0000
# 6 0.0000 0.0000 0.0000 0.0000 0.0000 26.5268
#
#
#
# Elastic Compliance Matrix: (Units=1/GPa)
#
#
# Indices 1 2 3 4 5 6 
#
# 1 0.009947 0.000031 -0.002611 0.000000 0.000000 0.000000
# 2 0.000031 0.023001 -0.005090 0.000000 0.000000 0.000000
# 3 -0.002611 -0.005090 0.008431 0.000000 0.000000 0.000000
# 4 0.000000 0.000000 0.000000 0.006421 0.000000 0.000000
# 5 0.000000 0.000000 0.000000 0.000000 -0.016044 0.000000
# 6 0.000000 0.000000 0.000000 0.000000 0.000000 0.037698
#
#
# Mechanical properties :
#
#
# Convention : Reuss Voigt Hill
#
# Bulk Modulus (GPa) = 38.40189 52.85208 45.62698
# Shear Modulus (GPa) = 53.49195 39.40514 46.44854
#
# Velocity S-wave (km/s) = 5.13331 4.40585 4.78343
# Velocity P-wave (km/s) = 7.35199 7.20539 7.27906
#
# Compressibility (1/GPa) = 0.02604038
#
# Stress axis : x y z
#
# Youngs Moduli (GPa) = 100.53740 43.47570 118.60673
#
# Poissons Ratio (x) = -0.00135 0.30967
# Poissons Ratio (y) = -0.00312 0.60365
# Poissons Ratio (z) = 0.26249 0.22127
#
# Static dielectric constant tensor:
#      x y z
#    x 1.694090 0.000000 0.000000 
#    y 0.000000 1.771090 0.000000 
#    z 0.000000 0.000000 1.716680 
# 
# From -- ./inp_files/20314.got.cif
#   From: 2010.05.17/outbox.cif.g08.bks.cpg/sg72_11_cif.got.tgz:20314.got - 2010.06.03 17:03:01.
