data_PCOD9529082
_publ_section_title
;
Structure prediction by ZEFSAII (Michael W. Deem and Ramdas Pophale) SiO2 
 PCOD9529082
Probable space group: I B A M
;
_chemical_formula_sum "Si O2"
_cell_formula_units_Z 68
_cell_length_a 12.693817
_cell_length_b 12.592412
_cell_length_c 20.662051
_cell_angle_alpha 90.000000
_cell_angle_beta 90.000000
_cell_angle_gamma 90.000000
_cell_volume 3302.741525
_symmetry_space_group_name_H-M "I B A M"
_symmetry_group_IT_number 72
_symmetry_cell_setting 'orthorhombic'
loop_
_space_group_symop_operation_xyz
x,y,z
-x,-y,z
x,-y,1/2-z
-x,y,1/2-z
-x,-y,-z
x,y,-z
-x,y,1/2+z
x,-y,1/2+z
1/2+x,1/2+y,1/2+z
1/2-x,1/2-y,1/2+z
1/2+x,1/2-y,-z
1/2-x,1/2+y,-z
1/2-x,1/2-y,1/2-z
1/2+x,1/2+y,1/2-z
1/2-x,1/2+y,z
1/2+x,1/2-y,z
loop_
_atom_site_type_symbol
_atom_site_label
_atom_site_fract_x
_atom_site_fract_y
_atom_site_fract_z
Si Si1 0.000000 0.000000 0.250000
Si Si2 0.181081 0.580569 0.421924
Si Si3 0.893797 0.806914 0.925248
Si Si4 0.852130 0.349612 0.076170
Si Si5 0.594925 0.368302 0.360485
O O1 0.075781 0.078238 0.291344
O O2 0.192921 0.587091 0.500000
O O3 0.116428 0.684992 0.401238
O O4 0.122660 0.470783 0.407438
O O5 0.298878 0.585971 0.392665
O O6 0.774865 0.847283 0.921532
O O7 0.978929 0.880775 0.891744
O O8 0.923712 0.803668 0.000000
O O9 0.889624 0.258216 0.124853
O O10 0.880461 0.327748 0.000000
#
# Coordination Sequence:
#
# PCOD9529082 Si02
#       5
#     4  16  16  16  16
#     4  12  28  40  54  74 100 154 208 226 252 306
#     4   9  18  34  59  91 117 136 167 219 288 347
#     4   9  17  31  57  88 112 140 175 218 283 342
#     4   9  18  33  56  86 115 139 170 220 283 342
#     4  11  21  38  54  75 111 148 186 230 261 307
#
# _framework density 20.588954999999999
#
# number of rings (size 3 to 8) (size 9 to 14) (size 15 to 20)
#    0.000    2.353    0.000    4.941    0.000    0.941 
#    0.000   21.765    0.000    1.412    0.000    0.000 
#    0.000    0.000    0.000    0.000    0.000    0.000 
#
# Total GULP energy -189439.657958 kJ/mol
# GULP energy per Si atom -5571.754646 kJ/mol
# Density = 2.054209 g / cm^3
# Si number density = 20.588955 Si / 1000 Ang^3
#
#
#
# Elastic Constant Matrix: (Units=GPa)
#
#
# Indices 1 2 3 4 5 6 
#
# 1 102.8519 23.5492 32.9894 0.0000 0.0000 0.0000
# 2 23.5492 153.9615 50.1384 0.0000 0.0000 0.0000
# 3 32.9894 50.1384 58.0761 0.0000 0.0000 0.0000
# 4 0.0000 0.0000 0.0000 35.2958 0.0000 0.0000
# 5 0.0000 0.0000 0.0000 0.0000 14.6548 0.0000
# 6 0.0000 0.0000 0.0000 0.0000 0.0000 17.9374
#
#
#
# Elastic Compliance Matrix: (Units=1/GPa)
#
#
# Indices 1 2 3 4 5 6 
#
# 1 0.011920 0.000531 -0.007229 0.000000 0.000000 0.000000
# 2 0.000531 0.009059 -0.008123 0.000000 0.000000 0.000000
# 3 -0.007229 -0.008123 0.028338 0.000000 0.000000 0.000000
# 4 0.000000 0.000000 0.000000 0.028332 0.000000 0.000000
# 5 0.000000 0.000000 0.000000 0.000000 0.068237 0.000000
# 6 0.000000 0.000000 0.000000 0.000000 0.000000 0.055749
#
#
# Mechanical properties :
#
#
# Convention : Reuss Voigt Hill
#
# Bulk Modulus (GPa) = 50.82621 58.69373 54.75997
# Shear Modulus (GPa) = 21.02294 27.45844 24.24069
#
# Velocity S-wave (km/s) = 3.19890 3.65588 3.43500
# Velocity P-wave (km/s) = 6.19546 6.81101 6.51051
#
# Compressibility (1/GPa) = 0.01967489
#
# Stress axis : x y z
#
# Youngs Moduli (GPa) = 83.89298 110.38677 35.28855
#
# Poissons Ratio (x) = -0.05863 0.25512
# Poissons Ratio (y) = -0.04456 0.28663
# Poissons Ratio (z) = 0.60650 0.89663
#
# Static dielectric constant tensor:
#      x y z
#    x 1.781860 0.000000 0.000000 
#    y 0.000000 1.836980 0.000000 
#    z 0.000000 0.000000 1.702550 
# 
# From -- ./inp_files/36646.got.cif
#   From: 2010.05.17/outbox.cif.g08.bks.cpg/sg72_19_cif.got.tgz:36646.got - 2010.06.03 17:03:01.
