data_PCOD9529511
_publ_section_title
;
Structure prediction by ZEFSAII (Michael W. Deem and Ramdas Pophale) SiO2 
 PCOD9529511
Probable space group: I B A M
;
_chemical_formula_sum "Si O2"
_cell_formula_units_Z 48
_cell_length_a 21.000000
_cell_length_b 27.000000
_cell_length_c 9.000000
_cell_angle_alpha 90.000000
_cell_angle_beta 90.000000
_cell_angle_gamma 90.000000
_cell_volume 5103.000000
_symmetry_space_group_name_H-M "I B A M"
_symmetry_group_IT_number 72
_symmetry_cell_setting 'orthorhombic'
loop_
_space_group_symop_operation_xyz
x,y,z
-x,-y,z
x,-y,1/2-z
-x,y,1/2-z
-x,-y,-z
x,y,-z
-x,y,1/2+z
x,-y,1/2+z
1/2+x,1/2+y,1/2+z
1/2-x,1/2-y,1/2+z
1/2+x,1/2-y,-z
1/2-x,1/2+y,-z
1/2-x,1/2-y,1/2-z
1/2+x,1/2+y,1/2-z
1/2-x,1/2+y,z
1/2+x,1/2-y,z
loop_
_atom_site_type_symbol
_atom_site_label
_atom_site_fract_x
_atom_site_fract_y
_atom_site_fract_z
Si Si1 0.563602 0.890627 0.675070
Si Si2 0.436904 0.445786 0.178818
Si Si3 0.688114 0.612319 0.820107
Si Si4 0.934599 0.727414 0.176166
Si Si5 0.688734 0.053461 0.180353
Si Si6 0.311415 0.725564 0.321400
O O1 0.500000 0.909681 0.750000
O O2 0.558656 0.898696 0.500000
O O3 0.568695 0.831844 0.698547
O O4 0.626369 0.917319 0.729812
O O5 0.430524 0.500000 0.250000
O O6 0.500000 0.423039 0.250000
O O7 0.376084 0.414568 0.223391
O O8 0.441814 0.449196 0.000000
O O9 0.749303 0.582815 0.768160
O O10 0.689168 0.668602 0.774097
O O11 0.689895 0.611904 0.000000
O O12 0.874747 0.750236 0.258035
O O13 0.000000 0.745296 0.250000
O O14 0.933663 0.737152 0.000000
O O15 0.688999 0.000000 0.250000
O O16 0.689271 0.051043 0.000000
O O17 0.309442 0.728989 0.500000
O O18 0.250000 0.750000 0.250000
#
# Coordination Sequence:
#
# PCOD9529511 Si02
#       6
#    16  16  16  16  16  16
#     4   9  19  35  56  78 107 142 176 215 264 318
#     4  10  19  34  55  79 106 139 174 215 262 315
#     4   9  20  37  56  76 105 141 178 219 268 318
#     4  10  20  37  59  84 112 146 184 226 273 326
#     4  10  20  36  55  77 104 138 176 219 266 315
#     4  11  22  38  58  82 111 146 185 229 276 327
#
# _framework density 9.4062319999999993
#
# number of rings (size 3 to 8) (size 9 to 14) (size 15 to 20)
#    0.000    2.167    0.000    3.500    0.000    5.000 
#    0.000   10.833    0.000    0.000    0.000    0.000 
#    0.000    0.000    0.000    0.000    0.000    0.000 
#
# Total GULP energy -267799.684643 kJ/mol
# GULP energy per Si atom -5579.160097 kJ/mol
# Density = 0.938482 g / cm^3
# Si number density = 9.406232 Si / 1000 Ang^3
#
#
#
# Elastic Constant Matrix: (Units=GPa)
#
#
# Indices 1 2 3 4 5 6 
#
# 1 233.3442 97.0501 73.2885 0.0000 0.0000 0.0000
# 2 97.0501 44.7338 66.5262 0.0000 0.0000 0.0000
# 3 73.2885 66.5262 41.8133 0.0000 0.0000 0.0000
# 4 0.0000 0.0000 0.0000 27.5607 0.0000 0.0000
# 5 0.0000 0.0000 0.0000 0.0000 32.1273 0.0000
# 6 0.0000 0.0000 0.0000 0.0000 0.0000 34.9770
#
#
#
# Elastic Compliance Matrix: (Units=1/GPa)
#
#
# Indices 1 2 3 4 5 6 
#
# 1 0.008997 -0.002879 -0.011190 0.000000 0.000000 0.000000
# 2 -0.002879 -0.015442 0.029615 0.000000 0.000000 0.000000
# 3 -0.011190 0.029615 -0.003590 0.000000 0.000000 0.000000
# 4 0.000000 0.000000 0.000000 0.036284 0.000000 0.000000
# 5 0.000000 0.000000 0.000000 0.000000 0.031126 0.000000
# 6 0.000000 0.000000 0.000000 0.000000 0.000000 0.028590
#
#
# Mechanical properties :
#
#
# Convention : Reuss Voigt Hill
#
# Bulk Modulus (GPa) = 47.48759 88.18012 67.83385
# Shear Modulus (GPa) = 80.78767 24.46808 52.62787
#
# Velocity S-wave (km/s) = 6.56025 3.61034 5.29488
# Velocity P-wave (km/s) = 9.09285 8.02212 8.57422
#
# Compressibility (1/GPa) = 0.02105813
#
# Stress axis : x y z
#
# Youngs Moduli (GPa) = 111.14431 -64.75684 -278.53071
#
# Poissons Ratio (x) = -0.18643 -3.11667
# Poissons Ratio (y) = 0.31997 8.24877
# Poissons Ratio (z) = 1.24367 1.91779
#
# Static dielectric constant tensor:
#      x y z
#    x 2.037240 0.000000 0.000000 
#    y 0.000000 1.642300 0.000000 
#    z 0.000000 0.000000 1.629540 
# 
# From -- ./inp_files/5960.got.cif
#   From: 2010.05.17/outbox.ucp.g08.bks.cvg/sg72_3_cif.got.tgz:5960.got - 2010.06.11 16:33:07.
