data_PCOD9529491
_publ_section_title
;
Structure prediction by ZEFSAII (Michael W. Deem and Ramdas Pophale) SiO2 
 PCOD9529491
Probable space group: I B A M
;
_chemical_formula_sum "Si O2"
_cell_formula_units_Z 56
_cell_length_a 30.000000
_cell_length_b 12.000000
_cell_length_c 15.000000
_cell_angle_alpha 90.000000
_cell_angle_beta 90.000000
_cell_angle_gamma 90.000000
_cell_volume 5400.000000
_symmetry_space_group_name_H-M "I B A M"
_symmetry_group_IT_number 72
_symmetry_cell_setting 'orthorhombic'
loop_
_space_group_symop_operation_xyz
x,y,z
-x,-y,z
x,-y,1/2-z
-x,y,1/2-z
-x,-y,-z
x,y,-z
-x,y,1/2+z
x,-y,1/2+z
1/2+x,1/2+y,1/2+z
1/2-x,1/2-y,1/2+z
1/2+x,1/2-y,-z
1/2-x,1/2+y,-z
1/2-x,1/2-y,1/2-z
1/2+x,1/2+y,1/2-z
1/2-x,1/2+y,z
1/2+x,1/2-y,z
loop_
_atom_site_type_symbol
_atom_site_label
_atom_site_fract_x
_atom_site_fract_y
_atom_site_fract_z
Si Si1 0.885988 0.719966 0.898454
Si Si2 0.801258 0.178731 0.896828
Si Si3 0.246301 0.902104 0.396359
Si Si4 0.609898 0.187289 0.405310
Si Si5 0.337924 0.394660 0.285388
Si Si6 0.668716 0.016145 0.147853
Si Si7 0.950000 0.366858 0.260789
O O1 0.872233 0.808389 0.824426
O O2 0.845300 0.632596 0.892094
O O3 0.928868 0.659791 0.856802
O O4 0.891379 0.757611 0.000000
O O5 0.767806 0.281563 0.879757
O O6 0.853060 0.216965 0.902110
O O7 0.804496 0.127290 0.797467
O O8 0.791391 0.138665 0.000000
O O9 0.250327 0.917154 0.500000
O O10 0.196014 0.912047 0.366679
O O11 0.279103 0.993510 0.355488
O O12 0.585487 0.190950 0.500000
O O13 0.579091 0.182065 0.319910
O O14 0.641399 0.078141 0.403060
O O15 0.364364 0.500000 0.250000
O O16 0.654549 0.000000 0.250000
O O17 0.949799 0.500000 0.250000
O O18 0.000000 0.325604 0.250000
#
# Coordination Sequence:
#
# PCOD9529491 Si02
#       7
#    16  16  16  16  16  16  16
#     4  12  23  40  63  89 121 165 203 245 301 363
#     4   9  19  36  60  81 108 151 204 249 297 358
#     4  10  21  36  55  87 117 152 199 249 298 358
#     4  10  17  33  58  85 116 155 193 228 283 360
#     4  12  25  40  55  79 115 158 205 264 309 344
#     4  11  18  34  59  84 121 162 199 236 290 355
#     4  11  22  37  60  97 135 159 187 233 293 370
#
# _framework density 10.370369999999999
#
# number of rings (size 3 to 8) (size 9 to 14) (size 15 to 20)
#    0.000    1.286    4.286    4.286    0.000    2.857 
#    0.000    2.857    0.000    0.429    0.000    1.000 
#    0.000    0.000    0.000    0.000    0.000    0.000 
#
# Total GULP energy -311810.092884 kJ/mol
# GULP energy per Si atom -5568.037373 kJ/mol
# Density = 1.034677 g / cm^3
# Si number density = 10.370370 Si / 1000 Ang^3
#
#
#
# Elastic Constant Matrix: (Units=GPa)
#
#
# Indices 1 2 3 4 5 6 
#
# 1 44.1669 13.2398 6.0675 0.0000 0.0000 0.0000
# 2 13.2398 31.0205 -7.8875 0.0000 0.0000 0.0000
# 3 6.0675 -7.8875 75.1837 0.0000 0.0000 0.0000
# 4 0.0000 0.0000 0.0000 -156.2164 0.0000 0.0000
# 5 0.0000 0.0000 0.0000 0.0000 -34.7214 0.0000
# 6 0.0000 0.0000 0.0000 0.0000 0.0000 1.0360
#
#
#
# Elastic Compliance Matrix: (Units=1/GPa)
#
#
# Indices 1 2 3 4 5 6 
#
# 1 0.026810 -0.012321 -0.003456 0.000000 0.000000 0.000000
# 2 -0.012321 0.038783 0.005063 0.000000 0.000000 0.000000
# 3 -0.003456 0.005063 0.014111 0.000000 0.000000 0.000000
# 4 0.000000 0.000000 0.000000 -0.006401 0.000000 0.000000
# 5 0.000000 0.000000 0.000000 0.000000 -0.028801 0.000000
# 6 0.000000 0.000000 0.000000 0.000000 0.000000 0.965261
#
#
# Mechanical properties :
#
#
# Convention : Reuss Voigt Hill
#
# Bulk Modulus (GPa) = 17.16021 19.24565 18.20293
# Shear Modulus (GPa) = 4.75911 -28.71695 -11.97892
#
# Velocity S-wave (km/s) = 1.51643 -3.72501 -2.40584
# Velocity P-wave (km/s) = 3.37012 3.03343 1.03827
#
# Compressibility (1/GPa) = 0.05827435
#
# Stress axis : x y z
#
# Youngs Moduli (GPa) = 37.29976 25.78448 70.86744
#
# Poissons Ratio (x) = 0.31770 0.24494
# Poissons Ratio (y) = 0.45959 -0.35881
# Poissons Ratio (z) = 0.12892 -0.13055
#
# Static dielectric constant tensor:
#      x y z
#    x 1.712400 0.000000 0.000000 
#    y 0.000000 1.920980 0.000000 
#    z 0.000000 0.000000 1.760440 
# 
# From -- ./inp_files/26424.got.cif
#   From: 2010.05.17/outbox.ucp.g08.bks.cvg/sg72_14_cif.got.tgz:26424.got - 2010.06.11 16:33:07.
