data_PCOD9529701
_publ_section_title
;
Structure prediction by ZEFSAII (Michael W. Deem and Ramdas Pophale) SiO2 
 PCOD9529701
Probable space group: I B C A 
;
_chemical_formula_sum "Si O2"
_cell_formula_units_Z 56
_cell_length_a 29.584012
_cell_length_b 5.316114
_cell_length_c 14.112776
_cell_angle_alpha 90.000000
_cell_angle_beta 90.000000
_cell_angle_gamma 90.000000
_cell_volume 2219.544230
_symmetry_space_group_name_H-M "I B C A "
_symmetry_group_IT_number 73
_symmetry_cell_setting 'orthorhombic'
loop_
_space_group_symop_operation_xyz
x,y,z
-x,1/2-y,z
x,-y,1/2-z
1/2-x,y,-z
-x,-y,-z
x,1/2+y,-z
-x,y,1/2+z
1/2+x,-y,z
1/2+x,1/2+y,1/2+z
1/2-x,-y,1/2+z
1/2+x,1/2-y,-z
-x,1/2+y,1/2-z
1/2-x,1/2-y,1/2-z
1/2+x,y,1/2-z
1/2-x,1/2+y,z
x,1/2-y,1/2+z
loop_
_atom_site_type_symbol
_atom_site_label
_atom_site_fract_x
_atom_site_fract_y
_atom_site_fract_z
Si Si1 0.000000 0.250000 0.435445
Si Si2 0.129042 0.449492 0.639812
Si Si3 0.408051 0.944351 0.360139
Si Si4 0.231542 0.767879 0.358619
O O1 0.044053 0.305675 0.372181
O O2 0.000000 0.500000 0.500000
O O3 0.116628 0.500000 0.750000
O O4 0.126060 0.732971 0.599923
O O5 0.179550 0.344804 0.638694
O O6 0.096832 0.227955 0.599162
O O7 0.398283 0.000000 0.250000
O O8 0.250000 0.750000 0.250000
O O9 0.239252 0.494086 0.400440
#
# Coordination Sequence:
#
# PCOD9529701 Si02
#       4
#     8  16  16  16
#     4  12  26  46  68  90 122 164 222 266 312 386
#     4  10  18  31  50  82 121 164 189 242 300 377
#     4  10  23  38  61  87 122 159 201 253 324 368
#     4  10  17  24  43  72 120 165 190 223 299 364
#
# _framework density 25.230405999999999
#
# number of rings (size 3 to 8) (size 9 to 14) (size 15 to 20)
#    0.000    1.714    2.857    3.429    8.000    4.571 
#    0.000    0.000    0.000    0.000    0.000    0.000 
#    0.000   80.000    0.000    0.000    0.000    0.000 
#
# Total GULP energy -156349.091428 kJ/mol
# GULP energy per Si atom -5583.896122 kJ/mol
# Density = 2.517298 g / cm^3
# Si number density = 25.230406 Si / 1000 Ang^3
#
#
#
# Elastic Constant Matrix: (Units=GPa)
#
#
# Indices 1 2 3 4 5 6 
#
# 1 137.6980 75.5238 -9.6149 0.0000 0.0000 0.0000
# 2 75.5238 286.9147 9.4279 0.0000 0.0000 0.0000
# 3 -9.6149 9.4279 88.8057 0.0000 0.0000 0.0000
# 4 0.0000 0.0000 0.0000 -5.1269 0.0000 0.0000
# 5 0.0000 0.0000 0.0000 0.0000 2.6012 0.0000
# 6 0.0000 0.0000 0.0000 0.0000 0.0000 52.1964
#
#
#
# Elastic Compliance Matrix: (Units=1/GPa)
#
#
# Indices 1 2 3 4 5 6 
#
# 1 0.008608 -0.002305 0.001177 0.000000 0.000000 0.000000
# 2 -0.002305 0.004115 -0.000686 0.000000 0.000000 0.000000
# 3 0.001177 -0.000686 0.011461 0.000000 0.000000 0.000000
# 4 0.000000 0.000000 0.000000 -0.195049 0.000000 0.000000
# 5 0.000000 0.000000 0.000000 0.000000 0.384442 0.000000
# 6 0.000000 0.000000 0.000000 0.000000 0.000000 0.019158
#
#
# Mechanical properties :
#
#
# Convention : Reuss Voigt Hill
#
# Bulk Modulus (GPa) = 48.64932 73.78799 61.21865
# Shear Modulus (GPa) = 20.55787 39.13957 29.84872
#
# Velocity S-wave (km/s) = 2.85758 3.94291 3.44327
# Velocity P-wave (km/s) = 5.49650 7.07374 6.33441
#
# Compressibility (1/GPa) = 0.02055527
#
# Stress axis : x y z
#
# Youngs Moduli (GPa) = 116.16452 243.03952 87.25389
#
# Poissons Ratio (x) = 0.56012 -0.10267
# Poissons Ratio (y) = 0.26772 0.05989
# Poissons Ratio (z) = -0.13669 0.16681
#
# Static dielectric constant tensor:
#      x y z
#    x 1.999440 0.000000 0.000000 
#    y 0.000000 2.094740 0.000000 
#    z 0.000000 0.000000 1.970410 
# 
# From -- ./inp_files/24033.got.cif
#   From: 2010.05.17/outbox.cif.g08.bks.cpg/sg73_13_cif.got.tgz:24033.got - 2010.06.03 17:35:07.
