data_PCOD9529099
_publ_section_title
;
Structure prediction by ZEFSAII (Michael W. Deem and Ramdas Pophale) SiO2 
 PCOD9529099
Probable space group: I B A M
;
_chemical_formula_sum "Si O2"
_cell_formula_units_Z 80
_cell_length_a 8.599261
_cell_length_b 16.042446
_cell_length_c 25.868496
_cell_angle_alpha 90.000000
_cell_angle_beta 90.000000
_cell_angle_gamma 90.000000
_cell_volume 3568.641291
_symmetry_space_group_name_H-M "I B A M"
_symmetry_group_IT_number 72
_symmetry_cell_setting 'orthorhombic'
loop_
_space_group_symop_operation_xyz
x,y,z
-x,-y,z
x,-y,1/2-z
-x,y,1/2-z
-x,-y,-z
x,y,-z
-x,y,1/2+z
x,-y,1/2+z
1/2+x,1/2+y,1/2+z
1/2-x,1/2-y,1/2+z
1/2+x,1/2-y,-z
1/2-x,1/2+y,-z
1/2-x,1/2-y,1/2-z
1/2+x,1/2+y,1/2-z
1/2-x,1/2+y,z
1/2+x,1/2-y,z
loop_
_atom_site_type_symbol
_atom_site_label
_atom_site_fract_x
_atom_site_fract_y
_atom_site_fract_z
Si Si1 0.936308 0.587443 0.168022
Si Si2 0.064853 0.914055 0.164908
Si Si3 0.148028 0.685757 0.098916
Si Si4 0.146036 0.237889 0.199272
Si Si5 0.970985 0.153083 0.557491
O O1 0.750437 0.582177 0.165933
O O2 0.951007 0.676784 0.195495
O O3 0.000000 0.500000 0.189207
O O4 0.039689 0.609186 0.117355
O O5 0.973667 0.839269 0.193768
O O6 0.022207 0.904982 0.104528
O O7 0.000000 0.000000 0.186172
O O8 0.243614 0.724330 0.148454
O O9 0.285105 0.658665 0.061087
O O10 0.043486 0.757233 0.073376
O O11 0.250000 0.250000 0.250000
O O12 0.021903 0.129738 0.500000
#
# Coordination Sequence:
#
# PCOD9529099 Si02
#       5
#    16  16  16  16  16
#     4  12  23  42  70 100 142 186 233 291 355 427
#     4  11  24  46  70 103 145 184 236 301 362 425
#     4  11  21  42  64 101 139 181 230 299 356 430
#     4  11  24  47  75 103 140 191 239 293 363 434
#     4  11  21  39  70  98 134 184 241 295 368 432
#
# _framework density 22.417496
#
# number of rings (size 3 to 8) (size 9 to 14) (size 15 to 20)
#    0.000    0.800    6.000    3.000    0.000    3.600 
#    0.000    9.000    0.000    4.200    0.000    0.000 
#    0.000    0.000    0.000    0.000    0.000    0.000 
#
# Total GULP energy -223382.939731 kJ/mol
# GULP energy per Si atom -5584.573493 kJ/mol
# Density = 2.236647 g / cm^3
# Si number density = 22.417496 Si / 1000 Ang^3
#
#
#
# Elastic Constant Matrix: (Units=GPa)
#
#
# Indices 1 2 3 4 5 6 
#
# 1 169.5498 70.6971 36.8287 0.0000 0.0000 0.0000
# 2 70.6971 191.2649 34.0705 0.0000 0.0000 0.0000
# 3 36.8287 34.0705 135.9324 0.0000 0.0000 0.0000
# 4 0.0000 0.0000 0.0000 11.7029 0.0000 0.0000
# 5 0.0000 0.0000 0.0000 0.0000 30.4241 0.0000
# 6 0.0000 0.0000 0.0000 0.0000 0.0000 48.4575
#
#
#
# Elastic Compliance Matrix: (Units=1/GPa)
#
#
# Indices 1 2 3 4 5 6 
#
# 1 0.007200 -0.002422 -0.001344 0.000000 0.000000 0.000000
# 2 -0.002422 0.006287 -0.000920 0.000000 0.000000 0.000000
# 3 -0.001344 -0.000920 0.007951 0.000000 0.000000 0.000000
# 4 0.000000 0.000000 0.000000 0.085449 0.000000 0.000000
# 5 0.000000 0.000000 0.000000 0.000000 0.032869 0.000000
# 6 0.000000 0.000000 0.000000 0.000000 0.000000 0.020637
#
#
# Mechanical properties :
#
#
# Convention : Reuss Voigt Hill
#
# Bulk Modulus (GPa) = 82.86515 86.65995 84.76255
# Shear Modulus (GPa) = 28.77115 41.79364 35.28240
#
# Velocity S-wave (km/s) = 3.58638 4.32247 3.97152
# Velocity P-wave (km/s) = 7.36167 7.97828 7.67617
#
# Compressibility (1/GPa) = 0.01206780
#
# Stress axis : x y z
#
# Youngs Moduli (GPa) = 138.89534 159.04886 125.76797
#
# Poissons Ratio (x) = 0.38520 0.16898
# Poissons Ratio (y) = 0.33639 0.11567
# Poissons Ratio (z) = 0.18662 0.14628
#
# Static dielectric constant tensor:
#      x y z
#    x 1.895010 0.000000 0.000000 
#    y 0.000000 1.855060 0.000000 
#    z 0.000000 0.000000 1.867560 
# 
# From -- ./inp_files/47199.got.cif
#   From: 2010.05.17/outbox.cif.g08.bks.cpg/sg72_24_cif.got.tgz:47199.got - 2010.06.03 17:03:01.
