data_PCOD9529052
_publ_section_title
;
Structure prediction by ZEFSAII (Michael W. Deem and Ramdas Pophale) SiO2 
 PCOD9529052
Probable space group: I B A M
;
_chemical_formula_sum "Si O2"
_cell_formula_units_Z 112
_cell_length_a 13.477928
_cell_length_b 27.115034
_cell_length_c 14.806568
_cell_angle_alpha 90.000000
_cell_angle_beta 90.000000
_cell_angle_gamma 90.000000
_cell_volume 5411.126549
_symmetry_space_group_name_H-M "I B A M"
_symmetry_group_IT_number 72
_symmetry_cell_setting 'orthorhombic'
loop_
_space_group_symop_operation_xyz
x,y,z
-x,-y,z
x,-y,1/2-z
-x,y,1/2-z
-x,-y,-z
x,y,-z
-x,y,1/2+z
x,-y,1/2+z
1/2+x,1/2+y,1/2+z
1/2-x,1/2-y,1/2+z
1/2+x,1/2-y,-z
1/2-x,1/2+y,-z
1/2-x,1/2-y,1/2-z
1/2+x,1/2+y,1/2-z
1/2-x,1/2+y,z
1/2+x,1/2-y,z
loop_
_atom_site_type_symbol
_atom_site_label
_atom_site_fract_x
_atom_site_fract_y
_atom_site_fract_z
Si Si1 0.404782 0.243748 0.607919
Si Si2 0.630502 0.598272 0.600534
Si Si3 0.395257 0.148209 0.273170
Si Si4 0.461837 0.334407 0.110450
Si Si5 0.227288 0.892736 0.106474
Si Si6 0.281883 0.811473 0.602840
Si Si7 0.112788 0.005719 0.643658
O O1 0.412584 0.238655 0.500000
O O2 0.413500 0.192138 0.656103
O O3 0.489324 0.282789 0.638213
O O4 0.296083 0.267908 0.624627
O O5 0.592260 0.591776 0.500000
O O6 0.535161 0.622666 0.648176
O O7 0.713024 0.639863 0.600183
O O8 0.670253 0.544773 0.622711
O O9 0.500000 0.123433 0.250000
O O10 0.316245 0.112578 0.322290
O O11 0.355954 0.175735 0.183010
O O12 0.350379 0.349268 0.132977
O O13 0.464456 0.333282 0.000000
O O14 0.167529 0.944390 0.115487
O O15 0.255070 0.886873 0.000000
O O16 0.321615 0.803343 0.500000
O O17 0.103297 0.000000 0.750000
O O18 0.000000 0.000000 0.606822
#
# Coordination Sequence:
#
# PCOD9529052 Si02
#       7
#    16  16  16  16  16  16  16
#     4   9  19  38  62  91 122 157 204 262 325 387
#     4   9  16  32  57  86 120 156 190 232 300 380
#     4  12  26  41  57  82 117 166 224 274 310 355
#     4   8  16  32  57  89 125 159 192 242 311 380
#     4  11  23  40  63  93 130 169 206 255 316 377
#     4   9  20  39  63  85 114 157 208 263 319 376
#     4  11  21  32  55  97 139 166 189 230 301 390
#
# _framework density 20.698091999999999
#
# number of rings (size 3 to 8) (size 9 to 14) (size 15 to 20)
#    0.000    2.143    1.429    3.857    0.000    4.000 
#    0.000    2.857    0.000    3.857    0.000    6.000 
#    0.000    0.000    0.000    0.000    0.000    0.000 
#
# Total GULP energy -312350.434329 kJ/mol
# GULP energy per Si atom -5577.686327 kJ/mol
# Density = 2.065098 g / cm^3
# Si number density = 20.698092 Si / 1000 Ang^3
#
#
#
# Elastic Constant Matrix: (Units=GPa)
#
#
# Indices 1 2 3 4 5 6 
#
# 1 92.8639 22.8834 39.8346 0.0000 0.0000 0.0000
# 2 22.8834 73.4739 -1.3184 0.0000 0.0001 0.0000
# 3 39.8346 -1.3184 76.3351 0.0001 0.0004 0.0001
# 4 0.0000 0.0000 0.0001 -1.8972 0.0002 0.0000
# 5 0.0000 0.0001 0.0004 0.0002 19.7858 0.0001
# 6 0.0000 0.0000 0.0001 0.0000 0.0001 11.0120
#
#
#
# Elastic Compliance Matrix: (Units=1/GPa)
#
#
# Indices 1 2 3 4 5 6 
#
# 1 0.015501 -0.004974 -0.008175 -0.000001 0.000000 0.000000
# 2 -0.004974 0.015211 0.002859 0.000000 0.000000 0.000000
# 3 -0.008175 0.002859 0.017415 0.000001 0.000000 0.000000
# 4 -0.000001 0.000000 0.000001 -0.527089 0.000004 0.000002
# 5 0.000000 0.000000 0.000000 0.000004 0.050541 0.000000
# 6 0.000000 0.000000 0.000000 0.000002 0.000000 0.090810
#
#
# Mechanical properties :
#
#
# Convention : Reuss Voigt Hill
#
# Bulk Modulus (GPa) = 36.30327 40.60800 38.45564
# Shear Modulus (GPa) = -16.24185 17.86501 0.81158
#
# Velocity S-wave (km/s) = -2.80429 2.94108 0.62686
# Velocity P-wave (km/s) = 2.66310 5.58526 4.37534
#
# Compressibility (1/GPa) = 0.02754573
#
# Stress axis : x y z
#
# Youngs Moduli (GPa) = 64.51231 65.74248 57.42019
#
# Poissons Ratio (x) = 0.32703 0.46940
# Poissons Ratio (y) = 0.32091 -0.16414
# Poissons Ratio (z) = 0.52738 -0.18793
#
# Static dielectric constant tensor:
#      x y z
#    x 1.775740 0.000000 0.000000 
#    y 0.000000 1.804000 0.000000 
#    z 0.000000 0.000000 1.750080 
# 
# From -- ./inp_files/20732.got.cif
#   From: 2010.05.17/outbox.cif.g08.bks.cpg/sg72_11_cif.got.tgz:20732.got - 2010.06.03 17:03:01.
