data_PCOD9529047
_publ_section_title
;
Structure prediction by ZEFSAII (Michael W. Deem and Ramdas Pophale) SiO2 
 PCOD9529047
Probable space group: I B A M
;
_chemical_formula_sum "Si O2"
_cell_formula_units_Z 116
_cell_length_a 19.281068
_cell_length_b 23.027464
_cell_length_c 14.574553
_cell_angle_alpha 90.000000
_cell_angle_beta 90.000000
_cell_angle_gamma 90.000000
_cell_volume 6471.015531
_symmetry_space_group_name_H-M "I B A M"
_symmetry_group_IT_number 72
_symmetry_cell_setting 'orthorhombic'
loop_
_space_group_symop_operation_xyz
x,y,z
-x,-y,z
x,-y,1/2-z
-x,y,1/2-z
-x,-y,-z
x,y,-z
-x,y,1/2+z
x,-y,1/2+z
1/2+x,1/2+y,1/2+z
1/2-x,1/2-y,1/2+z
1/2+x,1/2-y,-z
1/2-x,1/2+y,-z
1/2-x,1/2-y,1/2-z
1/2+x,1/2+y,1/2-z
1/2-x,1/2+y,z
1/2+x,1/2-y,z
loop_
_atom_site_type_symbol
_atom_site_label
_atom_site_fract_x
_atom_site_fract_y
_atom_site_fract_z
Si Si1 0.189875 0.567373 0.229606
Si Si2 0.000000 0.500000 0.000000
Si Si3 0.960251 0.404846 0.847736
Si Si4 0.779653 0.853123 0.890257
Si Si5 0.967239 0.272139 0.150567
Si Si6 0.317435 0.258611 0.891501
Si Si7 0.692101 0.157240 0.890054
Si Si8 0.107981 0.768090 0.395855
O O1 0.198143 0.500000 0.250000
O O2 0.119423 0.578566 0.172721
O O3 0.252597 0.594002 0.170150
O O4 0.183728 0.602200 0.325446
O O5 0.991976 0.449453 0.919720
O O6 0.962098 0.338328 0.884118
O O7 0.000000 0.407905 0.750000
O O8 0.725382 0.800273 0.872988
O O9 0.853010 0.824820 0.859077
O O10 0.779452 0.866732 0.000000
O O11 0.891870 0.243874 0.154809
O O12 0.000000 0.276703 0.250000
O O13 0.025608 0.233687 0.101547
O O14 0.266213 0.311917 0.871722
O O15 0.331405 0.259519 0.000000
O O16 0.636303 0.206340 0.859523
O O17 0.685463 0.145431 0.000000
O O18 0.135865 0.766290 0.500000
#
# Coordination Sequence:
#
# PCOD9529047 Si02
#       8
#    16   4  16  16  16  16  16  16
#     4  12  24  38  58  80 114 154 204 241 267 343
#     4  12  26  40  64  66 116 180 194 244 288 306
#     4  11  25  43  52  84 114 154 208 242 274 338
#     4   9  20  37  56  80 113 146 185 240 295 345
#     4  11  21  31  54  86 115 145 185 236 291 358
#     4   9  18  34  57  81 110 142 185 235 292 362
#     4   9  20  38  57  81 111 149 184 239 302 341
#     4   9  19  34  55  83 111 144 184 232 297 353
#
# _framework density 17.926089999999999
#
# number of rings (size 3 to 8) (size 9 to 14) (size 15 to 20)
#    0.000    1.931    1.379    4.759    4.828    1.655 
#    6.207    0.000    0.000    0.000    0.000    1.931 
#    0.000    4.414    0.000    0.000    0.000    0.000 
#
# Total GULP energy -323154.244192 kJ/mol
# GULP energy per Si atom -5571.624900 kJ/mol
# Density = 1.788529 g / cm^3
# Si number density = 17.926090 Si / 1000 Ang^3
#
#
#
# Elastic Constant Matrix: (Units=GPa)
#
#
# Indices 1 2 3 4 5 6 
#
# 1 79.8857 24.4867 20.4713 0.0000 0.0000 0.0000
# 2 24.4867 63.1110 18.6532 0.0000 0.0000 0.0000
# 3 20.4713 18.6532 64.0051 0.0000 0.0000 0.0000
# 4 0.0000 0.0000 0.0000 -10.2026 0.0000 0.0000
# 5 0.0000 0.0000 0.0000 0.0000 17.6843 0.0000
# 6 0.0000 0.0000 0.0000 0.0000 0.0000 11.6487
#
#
#
# Elastic Compliance Matrix: (Units=1/GPa)
#
#
# Indices 1 2 3 4 5 6 
#
# 1 0.014839 -0.004765 -0.003357 0.000000 0.000000 0.000000
# 2 -0.004765 0.018869 -0.003975 0.000000 0.000000 0.000000
# 3 -0.003357 -0.003975 0.017856 0.000000 0.000000 0.000000
# 4 0.000000 0.000000 0.000000 -0.098014 0.000000 0.000000
# 5 0.000000 0.000000 0.000000 0.000000 0.056547 0.000000
# 6 0.000000 0.000000 0.000000 0.000000 0.000000 0.085847
#
#
# Mechanical properties :
#
#
# Convention : Reuss Voigt Hill
#
# Bulk Modulus (GPa) = 36.53783 37.13603 36.83693
# Shear Modulus (GPa) = 38.68141 13.38545 26.03343
#
# Velocity S-wave (km/s) = 4.65028 2.73555 3.81499
# Velocity P-wave (km/s) = 7.01856 5.54426 6.32452
#
# Compressibility (1/GPa) = 0.02736890
#
# Stress axis : x y z
#
# Youngs Moduli (GPa) = 67.39082 52.99768 56.00358
#
# Poissons Ratio (x) = 0.25254 0.18802
# Poissons Ratio (y) = 0.32112 0.22261
# Poissons Ratio (z) = 0.22625 0.21066
#
# Static dielectric constant tensor:
#      x y z
#    x 1.657250 0.000000 0.000000 
#    y 0.000000 1.589580 0.000000 
#    z 0.000000 0.000000 1.708420 
# 
# From -- ./inp_files/23521.got.cif
#   From: 2010.05.17/outbox.cif.g08.bks.cpg/sg72_12_cif.got.tgz:23521.got - 2010.06.03 17:03:01.
