data_PCOD9529614
_publ_section_title
;
Structure prediction by ZEFSAII (Michael W. Deem and Ramdas Pophale) SiO2 
 PCOD9529614
Probable space group: I B C A 
;
_chemical_formula_sum "Si O2"
_cell_formula_units_Z 64
_cell_length_a 13.941269
_cell_length_b 33.026511
_cell_length_c 5.514532
_cell_angle_alpha 90.000000
_cell_angle_beta 90.000000
_cell_angle_gamma 90.000000
_cell_volume 2539.064097
_symmetry_space_group_name_H-M "I B C A "
_symmetry_group_IT_number 73
_symmetry_cell_setting 'orthorhombic'
loop_
_space_group_symop_operation_xyz
x,y,z
-x,1/2-y,z
x,-y,1/2-z
1/2-x,y,-z
-x,-y,-z
x,1/2+y,-z
-x,y,1/2+z
1/2+x,-y,z
1/2+x,1/2+y,1/2+z
1/2-x,-y,1/2+z
1/2+x,1/2-y,-z
-x,1/2+y,1/2-z
1/2-x,1/2-y,1/2-z
1/2+x,y,1/2-z
1/2-x,1/2+y,z
x,1/2-y,1/2+z
loop_
_atom_site_type_symbol
_atom_site_label
_atom_site_fract_x
_atom_site_fract_y
_atom_site_fract_z
Si Si1 0.359791 0.736131 0.800815
Si Si2 0.608365 0.516744 0.997283
Si Si3 0.113123 0.643893 0.102666
Si Si4 0.607315 0.387840 0.598638
O O1 0.250000 0.750000 0.750000
O O2 0.399617 0.736235 0.523124
O O3 0.371312 0.691679 0.913745
O O4 0.652361 0.500000 0.750000
O O5 0.604636 0.564884 0.967190
O O6 0.648503 0.500000 0.250000
O O7 0.500000 0.500000 0.000000
O O8 0.154235 0.632139 0.363949
O O9 0.000978 0.630421 0.116371
O O10 0.150110 0.621622 0.862113
#
# Coordination Sequence:
#
# PCOD9529614 Si02
#       4
#    16  16  16  16
#     4  10  21  37  54  70  89 122 166 217 264 304
#     4  10  16  25  41  63  96 141 172 190 219 279
#     4  10  18  32  48  67  97 130 164 208 250 301
#     4  10  19  30  45  72 104 137 167 197 246 302
#
# _framework density 25.206135
#
# number of rings (size 3 to 8) (size 9 to 14) (size 15 to 20)
#    0.000    2.000    0.000    9.000    0.000    0.000 
#    0.000   15.000    0.000    0.000    0.000    0.000 
#    0.000    0.000    0.000  819.000    0.000    0.000 
#
# Total GULP energy -178767.514800 kJ/mol
# GULP energy per Si atom -5586.484837 kJ/mol
# Density = 2.514876 g / cm^3
# Si number density = 25.206135 Si / 1000 Ang^3
#
#
#
# Elastic Constant Matrix: (Units=GPa)
#
#
# Indices 1 2 3 4 5 6 
#
# 1 119.0684 2.3930 24.4840 0.0006 0.1790 0.0133
# 2 2.3930 172.6469 34.6638 0.0255 0.0161 0.0618
# 3 24.4840 34.6638 288.2058 0.0254 0.4746 0.0837
# 4 0.0006 0.0255 0.0254 58.2648 0.0344 0.1653
# 5 0.1790 0.0161 0.4746 0.0344 -8.3987 -0.2806
# 6 0.0133 0.0618 0.0837 0.1653 -0.2806 -315.8678
#
#
#
# Elastic Compliance Matrix: (Units=1/GPa)
#
#
# Indices 1 2 3 4 5 6 
#
# 1 0.008548 0.000028 -0.000730 0.000000 0.000141 0.000000
# 2 0.000028 0.005936 -0.000716 -0.000002 -0.000029 0.000001
# 3 -0.000730 -0.000716 0.003618 -0.000001 0.000187 0.000001
# 4 0.000000 -0.000002 -0.000001 0.017163 0.000070 0.000009
# 5 0.000141 -0.000029 0.000187 0.000070 -0.119056 0.000106
# 6 0.000000 0.000001 0.000001 0.000009 0.000106 -0.003166
#
#
# Mechanical properties :
#
#
# Convention : Reuss Voigt Hill
#
# Bulk Modulus (GPa) = 65.50916 78.11142 71.81029
# Shear Modulus (GPa) = -63.26411 -18.64164 -40.95288
#
# Velocity S-wave (km/s) = -5.01529 -2.72245 -4.03515
# Velocity P-wave (km/s) = 2.73711 4.60152 2.61555
#
# Compressibility (1/GPa) = 0.01526504
#
# Stress axis : x y z
#
# Youngs Moduli (GPa) = 116.98887 168.47536 276.42831
#
# Poissons Ratio (x) = -0.00472 0.20173
# Poissons Ratio (y) = -0.00328 0.19799
# Poissons Ratio (z) = 0.08537 0.12067
#
# Static dielectric constant tensor:
#      x y z
#    x 1.584260 0.002450 0.004330 
#    y 0.002450 2.188940 0.002790 
#    z 0.004330 0.002790 1.960060 
# 
# From -- ./inp_files/1144.got.cif
#   From: 2010.05.17/outbox.cif.g08.bks.cpg/sg73_1_cif.got.tgz:1144.got - 2010.06.03 17:35:07.
