data_PCOD9529329
_publ_section_title
;
Structure prediction by ZEFSAII (Michael W. Deem and Ramdas Pophale) SiO2 
 PCOD9529329
Probable space group: I B A M
;
_chemical_formula_sum "Si O2"
_cell_formula_units_Z 64
_cell_length_a 22.381050
_cell_length_b 7.703123
_cell_length_c 15.103493
_cell_angle_alpha 90.000000
_cell_angle_beta 90.000000
_cell_angle_gamma 90.000000
_cell_volume 2603.902320
_symmetry_space_group_name_H-M "I B A M"
_symmetry_group_IT_number 72
_symmetry_cell_setting 'orthorhombic'
loop_
_space_group_symop_operation_xyz
x,y,z
-x,-y,z
x,-y,1/2-z
-x,y,1/2-z
-x,-y,-z
x,y,-z
-x,y,1/2+z
x,-y,1/2+z
1/2+x,1/2+y,1/2+z
1/2-x,1/2-y,1/2+z
1/2+x,1/2-y,-z
1/2-x,1/2+y,-z
1/2-x,1/2-y,1/2-z
1/2+x,1/2+y,1/2-z
1/2-x,1/2+y,z
1/2+x,1/2-y,z
loop_
_atom_site_type_symbol
_atom_site_label
_atom_site_fract_x
_atom_site_fract_y
_atom_site_fract_z
Si Si1 0.235818 0.315980 0.897115
Si Si2 0.555767 0.234713 0.500000
Si Si3 0.863936 0.163694 0.309149
Si Si4 0.649212 0.857396 0.142710
Si Si5 0.425524 0.652686 0.000000
O O1 0.206369 0.174548 0.831903
O O2 0.306640 0.307497 0.880134
O O3 0.193388 0.483365 0.881436
O O4 0.228618 0.267372 0.000000
O O5 0.591185 0.153247 0.417895
O O6 0.484552 0.227500 0.500000
O O7 0.564864 0.444173 0.500000
O O8 0.871938 0.322922 0.242075
O O9 0.894050 0.182967 0.404995
O O10 0.883241 0.000000 0.250000
#
# Coordination Sequence:
#
# PCOD9529329 Si02
#       5
#    16   8  16  16   8
#     4  12  24  44  75 110 154 192 230 301 373 443
#     4  11  24  46  76 109 138 193 250 304 350 433
#     4  12  25  45  74 105 147 189 242 295 367 432
#     4  12  25  44  73 112 148 189 243 294 369 439
#     4  11  26  48  74 105 142 193 250 301 356 417
#
# _framework density 24.578495
#
# number of rings (size 3 to 8) (size 9 to 14) (size 15 to 20)
#    0.000    0.250    6.250    3.000    0.000    1.000 
#    0.000    2.500    0.000    3.000    0.000    0.000 
#    0.000    0.000    0.000    0.000    0.000    0.000 
#
# Total GULP energy -178763.456089 kJ/mol
# GULP energy per Si atom -5586.358003 kJ/mol
# Density = 2.452255 g / cm^3
# Si number density = 24.578495 Si / 1000 Ang^3
#
#
#
# Elastic Constant Matrix: (Units=GPa)
#
#
# Indices 1 2 3 4 5 6 
#
# 1 135.6822 10.6779 60.8433 0.0000 0.0000 0.0000
# 2 10.6779 108.1091 13.2947 0.0000 0.0000 0.0000
# 3 60.8433 13.2947 224.6032 0.0000 0.0000 0.0000
# 4 0.0000 0.0000 0.0000 24.8498 0.0000 0.0000
# 5 0.0000 0.0000 0.0000 0.0000 16.5046 0.0000
# 6 0.0000 0.0000 0.0000 0.0000 0.0000 34.2096
#
#
#
# Elastic Compliance Matrix: (Units=1/GPa)
#
#
# Indices 1 2 3 4 5 6 
#
# 1 0.008422 -0.000555 -0.002249 0.000000 0.000000 0.000000
# 2 -0.000555 0.009354 -0.000403 0.000000 0.000000 0.000000
# 3 -0.002249 -0.000403 0.005085 0.000000 0.000000 0.000000
# 4 0.000000 0.000000 0.000000 0.040242 0.000000 0.000000
# 5 0.000000 0.000000 0.000000 0.000000 0.060589 0.000000
# 6 0.000000 0.000000 0.000000 0.000000 0.000000 0.029232
#
#
# Mechanical properties :
#
#
# Convention : Reuss Voigt Hill
#
# Bulk Modulus (GPa) = 60.79994 70.89183 65.84589
# Shear Modulus (GPa) = 30.33589 40.68471 35.51030
#
# Velocity S-wave (km/s) = 3.51699 4.07295 3.80514
# Velocity P-wave (km/s) = 6.42519 7.14312 6.79365
#
# Compressibility (1/GPa) = 0.01644738
#
# Stress axis : x y z
#
# Youngs Moduli (GPa) = 118.73365 106.90210 196.64494
#
# Poissons Ratio (x) = 0.05937 0.44218
# Poissons Ratio (y) = 0.06594 0.07930
# Poissons Ratio (z) = 0.26699 0.04311
#
# Static dielectric constant tensor:
#      x y z
#    x 1.910050 0.000000 0.000000 
#    y 0.000000 2.177570 0.000000 
#    z 0.000000 0.000000 1.976750 
# 
# From -- ./inp_files/32228.got.cif
#   From: 2010.05.17/outbox.cif.g08.bks.cpg/sg72_17_cif.got.tgz:32228.got - 2010.06.03 17:03:01.
