data_PCOD9529487
_publ_section_title
;
Structure prediction by ZEFSAII (Michael W. Deem and Ramdas Pophale) SiO2 
 PCOD9529487
Probable space group: I B A M
;
_chemical_formula_sum "Si O2"
_cell_formula_units_Z 112
_cell_length_a 15.567362
_cell_length_b 11.124398
_cell_length_c 29.748668
_cell_angle_alpha 90.000000
_cell_angle_beta 90.000000
_cell_angle_gamma 90.000000
_cell_volume 5151.800866
_symmetry_space_group_name_H-M "I B A M"
_symmetry_group_IT_number 72
_symmetry_cell_setting 'orthorhombic'
loop_
_space_group_symop_operation_xyz
x,y,z
-x,-y,z
x,-y,1/2-z
-x,y,1/2-z
-x,-y,-z
x,y,-z
-x,y,1/2+z
x,-y,1/2+z
1/2+x,1/2+y,1/2+z
1/2-x,1/2-y,1/2+z
1/2+x,1/2-y,-z
1/2-x,1/2+y,-z
1/2-x,1/2-y,1/2-z
1/2+x,1/2+y,1/2-z
1/2-x,1/2+y,z
1/2+x,1/2-y,z
loop_
_atom_site_type_symbol
_atom_site_label
_atom_site_fract_x
_atom_site_fract_y
_atom_site_fract_z
Si Si1 0.210987 0.627471 0.062679
Si Si2 0.309429 0.137106 0.671251
Si Si3 0.237973 0.126664 0.571886
Si Si4 0.999951 0.644783 0.301322
Si Si5 0.542483 0.373974 0.445120
Si Si6 0.510693 0.873499 0.050345
Si Si7 0.309128 0.858530 0.329783
O O1 0.259709 0.747756 0.048387
O O2 0.245091 0.499111 0.048518
O O3 0.113225 0.635512 0.047142
O O4 0.211241 0.632763 0.117093
O O5 0.287932 0.125384 0.618625
O O6 0.408307 0.175560 0.677414
O O7 0.248934 0.247336 0.688477
O O8 0.297563 0.997163 0.688752
O O9 0.135228 0.130441 0.578003
O O10 0.000000 0.500000 0.300415
O O11 0.000000 0.689218 0.250000
O O12 0.909418 0.676612 0.324128
O O13 0.500000 0.500000 0.434480
O O14 0.552665 0.367190 0.500000
O O15 0.487075 0.256864 0.431108
O O16 0.500000 0.000000 0.075746
O O17 0.472146 0.885246 0.000000
#
# Coordination Sequence:
#
# PCOD9529487 Si02
#       7
#    16  16  16  16  16  16  16
#     4   9  18  31  47  68  96 126 161 204 251 303
#     4   9  18  34  53  76 106 136 174 217 259 313
#     4   9  18  32  48  70  97 129 168 210 259 308
#     4   9  18  33  55  80 104 137 177 211 255 320
#     4   9  18  33  50  69  98 135 174 217 266 320
#     4   9  18  31  46  67  93 122 162 211 255 295
#     4   9  18  34  54  77 104 138 173 211 260 311
#
# _framework density 21.73997
#
# number of rings (size 3 to 8) (size 9 to 14) (size 15 to 20)
#    0.000    3.000    0.000    0.000    0.000    5.143 
#    0.000   12.143    0.000    0.857    0.000    0.000 
#    0.000    0.000    0.000    0.000    0.000    0.000 
#
# Total GULP energy -311833.504353 kJ/mol
# GULP energy per Si atom -5568.455435 kJ/mol
# Density = 2.169049 g / cm^3
# Si number density = 21.739970 Si / 1000 Ang^3
#
#
#
# Elastic Constant Matrix: (Units=GPa)
#
#
# Indices 1 2 3 4 5 6 
#
# 1 115.5692 64.1423 24.1654 0.0000 0.0000 0.0000
# 2 64.1423 223.2276 17.7943 0.0000 0.0000 0.0000
# 3 24.1654 17.7943 56.9282 0.0000 0.0000 0.0000
# 4 0.0000 0.0000 0.0000 -9.4714 0.0000 0.0000
# 5 0.0000 0.0000 0.0000 0.0000 -8.1167 0.0000
# 6 0.0000 0.0000 0.0000 0.0000 0.0000 41.1248
#
#
#
# Elastic Compliance Matrix: (Units=1/GPa)
#
#
# Indices 1 2 3 4 5 6 
#
# 1 0.011038 -0.002870 -0.003788 0.000000 0.000000 0.000000
# 2 -0.002870 0.005340 -0.000451 0.000000 0.000000 0.000000
# 3 -0.003788 -0.000451 0.019315 0.000000 0.000000 0.000000
# 4 0.000000 0.000000 0.000000 -0.105581 0.000000 0.000000
# 5 0.000000 0.000000 0.000000 0.000000 -0.123202 0.000000
# 6 0.000000 0.000000 0.000000 0.000000 0.000000 0.024316
#
#
# Mechanical properties :
#
#
# Convention : Reuss Voigt Hill
#
# Bulk Modulus (GPa) = 46.56614 67.54765 57.05690
# Shear Modulus (GPa) = -33.92176 24.01554 -4.95311
#
# Velocity S-wave (km/s) = -3.95440 3.32727 -1.51106
# Velocity P-wave (km/s) = 0.78511 6.77489 4.82263
#
# Compressibility (1/GPa) = 0.02147483
#
# Stress axis : x y z
#
# Youngs Moduli (GPa) = 90.59929 187.25769 51.77286
#
# Poissons Ratio (x) = 0.53735 0.19614
# Poissons Ratio (y) = 0.25998 0.02336
# Poissons Ratio (z) = 0.34323 0.08448
#
# Static dielectric constant tensor:
#      x y z
#    x 1.775260 0.000000 0.000000 
#    y 0.000000 1.935470 0.000000 
#    z 0.000000 0.000000 1.725780 
# 
# From -- ./inp_files/51766.got.cif
#   From: 2010.05.17/outbox.cif.g08.bks.cpg/sg72_26_cif.got.tgz:51766.got - 2010.06.03 17:03:01.
