data_PCOD9529080
_publ_section_title
;
Structure prediction by ZEFSAII (Michael W. Deem and Ramdas Pophale) SiO2 
 PCOD9529080
Probable space group: I B A M
;
_chemical_formula_sum "Si O2"
_cell_formula_units_Z 64
_cell_length_a 8.472826
_cell_length_b 22.190618
_cell_length_c 14.322258
_cell_angle_alpha 90.000000
_cell_angle_beta 90.000000
_cell_angle_gamma 90.000000
_cell_volume 2692.831493
_symmetry_space_group_name_H-M "I B A M"
_symmetry_group_IT_number 72
_symmetry_cell_setting 'orthorhombic'
loop_
_space_group_symop_operation_xyz
x,y,z
-x,-y,z
x,-y,1/2-z
-x,y,1/2-z
-x,-y,-z
x,y,-z
-x,y,1/2+z
x,-y,1/2+z
1/2+x,1/2+y,1/2+z
1/2-x,1/2-y,1/2+z
1/2+x,1/2-y,-z
1/2-x,1/2+y,-z
1/2-x,1/2-y,1/2-z
1/2+x,1/2+y,1/2-z
1/2-x,1/2+y,z
1/2+x,1/2-y,z
loop_
_atom_site_type_symbol
_atom_site_label
_atom_site_fract_x
_atom_site_fract_y
_atom_site_fract_z
Si Si1 0.766366 0.428800 0.259295
Si Si2 0.618922 0.729635 0.176931
Si Si3 0.529952 0.571654 0.395720
Si Si4 0.900304 0.337592 0.396169
O O1 0.804579 0.500000 0.250000
O O2 0.615607 0.417646 0.326746
O O3 0.694623 0.412986 0.156959
O O4 0.891678 0.389510 0.317806
O O5 0.500000 0.697709 0.250000
O O6 0.750000 0.750000 0.250000
O O7 0.726205 0.693300 0.105287
O O8 0.525513 0.785450 0.131461
O O9 0.500000 0.500000 0.406208
O O10 0.525012 0.598353 0.500000
O O11 0.933148 0.360877 0.500000
#
# Coordination Sequence:
#
# PCOD9529080 Si02
#       4
#    16  16  16  16
#     4   9  18  30  51  90 135 182 228 285 350 417
#     4   9  21  41  65  94 130 177 233 285 347 413
#     4   8  14  27  47  74 120 184 244 285 328 397
#     4  11  21  37  66 103 139 181 231 291 350 418
#
# _framework density 23.766805000000002
#
# number of rings (size 3 to 8) (size 9 to 14) (size 15 to 20)
#    0.000    2.750    0.000    3.000    3.500    1.000 
#    0.000    0.000    0.000   21.750    0.000   21.000 
#    0.000    0.000    0.000    2.250    0.000    0.000 
#
# Total GULP energy -178185.004218 kJ/mol
# GULP energy per Si atom -5568.281382 kJ/mol
# Density = 2.371271 g / cm^3
# Si number density = 23.766805 Si / 1000 Ang^3
#
#
#
# Elastic Constant Matrix: (Units=GPa)
#
#
# Indices 1 2 3 4 5 6 
#
# 1 80.1355 45.4774 51.9464 0.0000 0.0000 0.0000
# 2 45.4774 132.1242 52.6889 0.0000 0.0000 0.0000
# 3 51.9464 52.6889 197.9203 0.0000 0.0000 0.0000
# 4 0.0000 0.0000 0.0000 30.1373 0.0000 0.0000
# 5 0.0000 0.0000 0.0000 0.0000 16.5764 0.0000
# 6 0.0000 0.0000 0.0000 0.0000 0.0000 -1.9208
#
#
#
# Elastic Compliance Matrix: (Units=1/GPa)
#
#
# Indices 1 2 3 4 5 6 
#
# 1 0.017235 -0.004619 -0.003294 0.000000 0.000000 0.000000
# 2 -0.004619 0.009705 -0.001371 0.000000 0.000000 0.000000
# 3 -0.003294 -0.001371 0.006282 0.000000 0.000000 0.000000
# 4 0.000000 0.000000 0.000000 0.033182 0.000000 0.000000
# 5 0.000000 0.000000 0.000000 0.000000 0.060327 0.000000
# 6 0.000000 0.000000 0.000000 0.000000 0.000000 -0.520616
#
#
# Mechanical properties :
#
#
# Convention : Reuss Voigt Hill
#
# Bulk Modulus (GPa) = 68.23923 78.93395 73.58659
# Shear Modulus (GPa) = -13.49779 26.29639 6.39930
#
# Velocity S-wave (km/s) = -2.38571 3.32992 1.64268
# Velocity P-wave (km/s) = 4.60278 6.93314 5.88447
#
# Compressibility (1/GPa) = 0.01465433
#
# Stress axis : x y z
#
# Youngs Moduli (GPa) = 58.02022 103.03594 159.18043
#
# Poissons Ratio (x) = 0.47591 0.52434
# Poissons Ratio (y) = 0.26799 0.21830
# Poissons Ratio (z) = 0.19112 0.14131
#
# Static dielectric constant tensor:
#      x y z
#    x 1.890080 0.000000 0.000000 
#    y 0.000000 2.126030 0.000000 
#    z 0.000000 0.000000 1.910950 
# 
# From -- ./inp_files/18664.got.cif
#   From: 2010.05.17/outbox.cif.g08.bks.cpg/sg72_10_cif.got.tgz:18664.got - 2010.06.03 17:03:01.
