data_PCOD9529991
_publ_section_title
;
Structure prediction by ZEFSAII (Michael W. Deem and Ramdas Pophale) SiO2 
 PCOD9529991
Probable space group: I B C A 
;
_chemical_formula_sum "Si O2"
_cell_formula_units_Z 120
_cell_length_a 18.968500
_cell_length_b 10.924612
_cell_length_c 23.570880
_cell_angle_alpha 90.000000
_cell_angle_beta 90.000000
_cell_angle_gamma 90.000000
_cell_volume 4884.440316
_symmetry_space_group_name_H-M "I B C A "
_symmetry_group_IT_number 73
_symmetry_cell_setting 'orthorhombic'
loop_
_space_group_symop_operation_xyz
x,y,z
-x,1/2-y,z
x,-y,1/2-z
1/2-x,y,-z
-x,-y,-z
x,1/2+y,-z
-x,y,1/2+z
1/2+x,-y,z
1/2+x,1/2+y,1/2+z
1/2-x,-y,1/2+z
1/2+x,1/2-y,-z
-x,1/2+y,1/2-z
1/2-x,1/2-y,1/2-z
1/2+x,y,1/2-z
1/2-x,1/2+y,z
x,1/2-y,1/2+z
loop_
_atom_site_type_symbol
_atom_site_label
_atom_site_fract_x
_atom_site_fract_y
_atom_site_fract_z
Si Si1 0.429293 0.819760 0.273489
Si Si2 0.173195 0.312836 0.862121
Si Si3 0.000000 0.250000 0.962858
Si Si4 0.271797 0.204066 0.943072
Si Si5 0.882304 0.601184 0.969304
Si Si6 0.212410 0.631074 0.279305
Si Si7 0.106240 0.041972 0.078984
Si Si8 0.536808 0.022761 0.620695
O O1 0.500000 0.750000 0.254939
O O2 0.381161 0.737063 0.315913
O O3 0.371567 0.850779 0.225602
O O4 0.453249 0.930085 0.315394
O O5 0.202966 0.212231 0.904679
O O6 0.245114 0.370150 0.837464
O O7 0.133459 0.414599 0.896556
O O8 0.976114 0.358031 0.919842
O O9 0.938588 0.198595 0.004126
O O10 0.308137 0.329628 0.965302
O O11 0.334883 0.141351 0.909231
O O12 0.250000 0.133477 0.000000
O O13 0.900397 0.552713 0.907038
O O14 0.894622 0.486868 0.012013
O O15 0.226943 0.500000 0.250000
O O16 0.250000 0.750000 0.250000
O O17 0.031790 0.060751 0.108639
#
# Coordination Sequence:
#
# PCOD9529991 Si02
#       8
#    16  16   8  16  16  16  16  16
#     4  11  22  47  75 101 135 182 246 305 372 449
#     4  11  25  45  67 101 139 187 234 288 372 431
#     4  10  18  38  58  92 132 184 228 270 344 420
#     4  12  27  39  61  98 148 191 233 282 346 435
#     4  11  22  37  58  96 139 185 228 280 336 418
#     4  10  26  49  79 109 140 189 246 311 385 446
#     4  11  23  40  63 100 138 188 234 284 352 425
#     4  11  21  37  70  96 134 182 235 293 351 425
#
# _framework density 24.567810999999999
#
# number of rings (size 3 to 8) (size 9 to 14) (size 15 to 20)
#    0.000    1.067    3.333    4.000    9.333    0.000 
#    0.000    4.000    1.467    0.000    0.000    0.000 
#    0.000    0.000    0.000    0.000    0.000    0.000 
#
# Total GULP energy -335498.076509 kJ/mol
# GULP energy per Si atom -5591.634608 kJ/mol
# Density = 2.451189 g / cm^3
# Si number density = 24.567811 Si / 1000 Ang^3
#
#
#
# Elastic Constant Matrix: (Units=GPa)
#
#
# Indices 1 2 3 4 5 6 
#
# 1 149.4476 28.6484 24.3054 0.0000 0.0000 0.0000
# 2 28.6484 62.3532 -7.5179 0.0000 0.0000 0.0000
# 3 24.3054 -7.5179 46.5868 0.0000 0.0000 0.0000
# 4 0.0000 0.0000 0.0000 16.0402 0.0000 0.0000
# 5 0.0000 0.0000 0.0000 0.0000 46.1797 0.0000
# 6 0.0000 0.0000 0.0000 0.0000 0.0000 103.8367
#
#
#
# Elastic Compliance Matrix: (Units=1/GPa)
#
#
# Indices 1 2 3 4 5 6 
#
# 1 0.008374 -0.004461 -0.005089 0.000000 0.000000 0.000000
# 2 -0.004461 0.018732 0.005350 0.000000 0.000000 0.000000
# 3 -0.005089 0.005350 0.024984 0.000000 0.000000 0.000000
# 4 0.000000 0.000000 0.000000 0.062343 0.000000 0.000000
# 5 0.000000 0.000000 0.000000 0.000000 0.021655 0.000000
# 6 0.000000 0.000000 0.000000 0.000000 0.000000 0.009631
#
#
# Mechanical properties :
#
#
# Convention : Reuss Voigt Hill
#
# Bulk Modulus (GPa) = 22.88794 38.80658 30.84726
# Shear Modulus (GPa) = 29.64169 47.40812 38.52491
#
# Velocity S-wave (km/s) = 3.47728 4.39758 3.96423
# Velocity P-wave (km/s) = 5.04563 6.45097 5.79109
#
# Compressibility (1/GPa) = 0.04369113
#
# Stress axis : x y z
#
# Youngs Moduli (GPa) = 119.41588 53.38341 40.02608
#
# Poissons Ratio (x) = 0.23815 0.20369
# Poissons Ratio (y) = 0.53272 -0.21415
# Poissons Ratio (z) = 0.60769 -0.28562
#
# Static dielectric constant tensor:
#      x y z
#    x 1.959160 0.000000 0.000000 
#    y 0.000000 1.982090 0.000000 
#    z 0.000000 0.000000 1.937180 
# 
# From -- ./inp_files/32449.got.cif
#   From: 2010.05.17/outbox.cif.g08.bks.cpg/sg73_17_cif.got.tgz:32449.got - 2010.06.03 17:35:07.
