data_PCOD9529580
_publ_section_title
;
Structure prediction by ZEFSAII (Michael W. Deem and Ramdas Pophale) SiO2 
 PCOD9529580
Probable space group: I B A M
;
_chemical_formula_sum "Si O2"
_cell_formula_units_Z 48
_cell_length_a 15.000000
_cell_length_b 21.000000
_cell_length_c 15.000000
_cell_angle_alpha 90.000000
_cell_angle_beta 90.000000
_cell_angle_gamma 90.000000
_cell_volume 4725.000000
_symmetry_space_group_name_H-M "I B A M"
_symmetry_group_IT_number 72
_symmetry_cell_setting 'orthorhombic'
loop_
_space_group_symop_operation_xyz
x,y,z
-x,-y,z
x,-y,1/2-z
-x,y,1/2-z
-x,-y,-z
x,y,-z
-x,y,1/2+z
x,-y,1/2+z
1/2+x,1/2+y,1/2+z
1/2-x,1/2-y,1/2+z
1/2+x,1/2-y,-z
1/2-x,1/2+y,-z
1/2-x,1/2-y,1/2-z
1/2+x,1/2+y,1/2-z
1/2-x,1/2+y,z
1/2+x,1/2-y,z
loop_
_atom_site_type_symbol
_atom_site_label
_atom_site_fract_x
_atom_site_fract_y
_atom_site_fract_z
Si Si1 0.753374 0.558720 0.818092
Si Si2 0.531829 0.691063 0.653894
Si Si3 0.950083 0.566157 0.892837
Si Si4 0.344838 0.484070 0.000000
Si Si5 0.268076 0.683490 0.797569
Si Si6 0.026248 0.907659 0.500000
Si Si7 0.921001 0.681660 0.393481
O O1 0.742832 0.500000 0.750000
O O2 0.857128 0.568967 0.841816
O O3 0.720346 0.623729 0.770143
O O4 0.706217 0.538242 0.910881
O O5 0.500000 0.669081 0.750000
O O6 0.639029 0.696950 0.652071
O O7 0.513211 0.636891 0.584106
O O8 0.474304 0.754654 0.635050
O O9 0.000000 0.500000 0.875771
O O10 0.016093 0.622929 0.867126
O O11 0.933318 0.570438 0.000000
O O12 0.441051 0.452316 0.000000
O O13 0.376534 0.558116 0.000000
O O14 0.250000 0.750000 0.750000
O O15 0.177960 0.672617 0.854271
O O16 0.913540 0.682729 0.500000
#
# Coordination Sequence:
#
# PCOD9529580 Si02
#       7
#    16  16  16   8  16   8  16
#     4  12  25  45  72 102 139 185 232 293 360 426
#     4  12  24  46  69 100 143 181 240 290 357 422
#     4  10  22  42  66  97 137 179 227 290 352 428
#     4  11  26  48  70 101 137 177 248 288 352 433
#     4  12  26  43  69 106 140 182 230 294 353 420
#     4  11  26  46  71  99 132 187 233 304 351 403
#     4  11  25  44  68 102 141 185 238 288 354 430
#
# _framework density 10.15873
#
# number of rings (size 3 to 8) (size 9 to 14) (size 15 to 20)
#    0.000    0.667    3.333    4.000    1.167    1.667 
#    1.500    1.667    0.000    0.000    0.000    0.000 
#    0.000    0.000    0.000    0.000    0.000    0.000 
#
# Total GULP energy -268264.275625 kJ/mol
# GULP energy per Si atom -5588.839076 kJ/mol
# Density = 1.013561 g / cm^3
# Si number density = 10.158730 Si / 1000 Ang^3
#
#
#
# Elastic Constant Matrix: (Units=GPa)
#
#
# Indices 1 2 3 4 5 6 
#
# 1 136.3536 26.6212 53.2492 0.0000 0.0000 0.0000
# 2 26.6212 105.3543 56.2340 0.0001 0.0000 0.0000
# 3 53.2492 56.2340 128.9421 0.0001 0.0000 0.0000
# 4 0.0000 0.0001 0.0001 76.8490 0.0000 0.0000
# 5 0.0000 0.0000 0.0000 0.0000 41.4359 0.0000
# 6 0.0000 0.0000 0.0000 0.0000 0.0000 35.8519
#
#
#
# Elastic Compliance Matrix: (Units=1/GPa)
#
#
# Indices 1 2 3 4 5 6 
#
# 1 0.008755 -0.000368 -0.003455 0.000000 0.000000 0.000000
# 2 -0.000368 0.012387 -0.005250 0.000000 0.000000 0.000000
# 3 -0.003455 -0.005250 0.011472 0.000000 0.000000 0.000000
# 4 0.000000 0.000000 0.000000 0.013013 0.000000 0.000000
# 5 0.000000 0.000000 0.000000 0.000000 0.024134 0.000000
# 6 0.000000 0.000000 0.000000 0.000000 0.000000 0.027893
#
#
# Mechanical properties :
#
#
# Convention : Reuss Voigt Hill
#
# Bulk Modulus (GPa) = 69.12088 71.42876 70.27482
# Shear Modulus (GPa) = 41.45178 46.46374 43.95776
#
# Velocity S-wave (km/s) = 4.52176 4.78733 4.65644
# Velocity P-wave (km/s) = 7.83301 8.11115 7.97329
#
# Compressibility (1/GPa) = 0.01446741
#
# Stress axis : x y z
#
# Youngs Moduli (GPa) = 114.22045 80.72868 87.16893
#
# Poissons Ratio (x) = 0.02971 0.30117
# Poissons Ratio (y) = 0.04204 0.45766
# Poissons Ratio (z) = 0.39463 0.42385
#
# Static dielectric constant tensor:
#      x y z
#    x 1.711120 0.000000 0.000000 
#    y 0.000000 1.626130 0.000000 
#    z 0.000000 0.000000 1.738040 
# 
# From -- ./inp_files/21900.got.cif
#   From: 2010.05.17/outbox.ucp.g08.bks.cvg/sg72_11_cif.got.tgz:21900.got - 2010.06.11 16:33:07.
