data_PCOD9529094
_publ_section_title
;
Structure prediction by ZEFSAII (Michael W. Deem and Ramdas Pophale) SiO2 
 PCOD9529094
Probable space group: I B A M
;
_chemical_formula_sum "Si O2"
_cell_formula_units_Z 112
_cell_length_a 10.655107
_cell_length_b 31.829782
_cell_length_c 15.743365
_cell_angle_alpha 90.000000
_cell_angle_beta 90.000000
_cell_angle_gamma 90.000000
_cell_volume 5339.358036
_symmetry_space_group_name_H-M "I B A M"
_symmetry_group_IT_number 72
_symmetry_cell_setting 'orthorhombic'
loop_
_space_group_symop_operation_xyz
x,y,z
-x,-y,z
x,-y,1/2-z
-x,y,1/2-z
-x,-y,-z
x,y,-z
-x,y,1/2+z
x,-y,1/2+z
1/2+x,1/2+y,1/2+z
1/2-x,1/2-y,1/2+z
1/2+x,1/2-y,-z
1/2-x,1/2+y,-z
1/2-x,1/2-y,1/2-z
1/2+x,1/2+y,1/2-z
1/2-x,1/2+y,z
1/2+x,1/2-y,z
loop_
_atom_site_type_symbol
_atom_site_label
_atom_site_fract_x
_atom_site_fract_y
_atom_site_fract_z
Si Si1 0.259567 0.914514 0.404883
Si Si2 0.351675 0.502379 0.352463
Si Si3 0.860017 0.636290 0.261039
Si Si4 0.216152 0.723826 0.167571
Si Si5 0.010209 0.132748 0.848626
Si Si6 0.982954 0.773348 0.098023
Si Si7 0.741605 0.406405 0.404764
O O1 0.306718 0.907419 0.500000
O O2 0.353898 0.900260 0.331422
O O3 0.135984 0.886166 0.388410
O O4 0.216689 0.962128 0.391344
O O5 0.500000 0.500000 0.375797
O O6 0.345733 0.500000 0.250000
O O7 0.284334 0.544869 0.382736
O O8 0.785674 0.675662 0.300866
O O9 0.811955 0.617583 0.171971
O O10 0.000000 0.651902 0.250000
O O11 0.250000 0.750000 0.250000
O O12 0.333299 0.734315 0.106121
O O13 0.080456 0.738782 0.133251
O O14 0.998806 0.182816 0.853009
O O15 0.000000 0.118656 0.750000
O O16 0.895796 0.113955 0.900740
O O17 0.014051 0.780043 0.000000
O O18 0.795120 0.401862 0.500000
#
# Coordination Sequence:
#
# PCOD9529094 Si02
#       7
#    16  16  16  16  16  16  16
#     4  12  24  41  68 102 139 182 231 283 353 428
#     4  11  21  38  66 105 145 179 223 287 363 433
#     4  12  27  48  70  94 136 191 244 289 349 423
#     4  12  25  46  71  98 138 185 230 293 364 426
#     4  12  21  40  66 100 140 182 221 281 359 430
#     4  12  25  42  68 104 138 179 237 296 355 429
#     4  12  24  41  68 104 141 178 232 298 355 419
#
# _framework density 20.976303000000001
#
# number of rings (size 3 to 8) (size 9 to 14) (size 15 to 20)
#    0.000    0.143    5.714    5.143    0.000    1.714 
#    0.000    5.000    0.000    1.714    0.000    0.000 
#    0.000    0.000    0.000    0.000    0.000    0.000 
#
# Total GULP energy -313069.341488 kJ/mol
# GULP energy per Si atom -5590.523955 kJ/mol
# Density = 2.092856 g / cm^3
# Si number density = 20.976303 Si / 1000 Ang^3
#
#
#
# Elastic Constant Matrix: (Units=GPa)
#
#
# Indices 1 2 3 4 5 6 
#
# 1 68.9519 28.0771 27.2862 0.0001 0.0000 0.0000
# 2 28.0771 113.6127 22.5774 0.0000 0.0000 0.0000
# 3 27.2862 22.5774 143.0546 0.0004 -0.0001 0.0000
# 4 0.0001 0.0000 0.0004 73.9865 -0.0001 0.0000
# 5 0.0000 0.0000 -0.0001 -0.0001 16.0852 0.0000
# 6 0.0000 0.0000 0.0000 0.0000 0.0000 27.0127
#
#
#
# Elastic Compliance Matrix: (Units=1/GPa)
#
#
# Indices 1 2 3 4 5 6 
#
# 1 0.017061 -0.003685 -0.002673 0.000000 0.000000 0.000000
# 2 -0.003685 0.009883 -0.000857 0.000000 0.000000 0.000000
# 3 -0.002673 -0.000857 0.007635 0.000000 0.000000 0.000000
# 4 0.000000 0.000000 0.000000 0.013516 0.000000 0.000000
# 5 0.000000 0.000000 0.000000 0.000000 0.062169 0.000000
# 6 0.000000 0.000000 0.000000 0.000000 0.000000 0.037020
#
#
# Mechanical properties :
#
#
# Convention : Reuss Voigt Hill
#
# Bulk Modulus (GPa) = 49.62788 53.50009 51.56398
# Shear Modulus (GPa) = 29.68596 39.92879 34.80738
#
# Velocity S-wave (km/s) = 3.76601 4.36767 4.07795
# Velocity P-wave (km/s) = 6.52847 7.14113 6.84166
#
# Compressibility (1/GPa) = 0.02014996
#
# Stress axis : x y z
#
# Youngs Moduli (GPa) = 58.61287 101.18562 130.96996
#
# Poissons Ratio (x) = 0.37289 0.35003
# Poissons Ratio (y) = 0.21600 0.11222
# Poissons Ratio (z) = 0.15665 0.08670
#
# Static dielectric constant tensor:
#      x y z
#    x 1.777300 0.000000 0.000000 
#    y 0.000000 1.757810 0.000000 
#    z 0.000000 0.000000 1.890310 
# 
# From -- ./inp_files/20691.got.cif
#   From: 2010.05.17/outbox.cif.g08.bks.cpg/sg72_11_cif.got.tgz:20691.got - 2010.06.03 17:03:01.
