data_PCOD9529711
_publ_section_title
;
Structure prediction by ZEFSAII (Michael W. Deem and Ramdas Pophale) SiO2 
 PCOD9529711
Probable space group: I B C A 
;
_chemical_formula_sum "Si O2"
_cell_formula_units_Z 112
_cell_length_a 11.738162
_cell_length_b 24.320329
_cell_length_c 18.780255
_cell_angle_alpha 90.000000
_cell_angle_beta 90.000000
_cell_angle_gamma 90.000000
_cell_volume 5361.311357
_symmetry_space_group_name_H-M "I B C A "
_symmetry_group_IT_number 73
_symmetry_cell_setting 'orthorhombic'
loop_
_space_group_symop_operation_xyz
x,y,z
-x,1/2-y,z
x,-y,1/2-z
1/2-x,y,-z
-x,-y,-z
x,1/2+y,-z
-x,y,1/2+z
1/2+x,-y,z
1/2+x,1/2+y,1/2+z
1/2-x,-y,1/2+z
1/2+x,1/2-y,-z
-x,1/2+y,1/2-z
1/2-x,1/2-y,1/2-z
1/2+x,y,1/2-z
1/2-x,1/2+y,z
x,1/2-y,1/2+z
loop_
_atom_site_type_symbol
_atom_site_label
_atom_site_fract_x
_atom_site_fract_y
_atom_site_fract_z
Si Si1 0.669376 0.344852 0.634369
Si Si2 0.985174 0.084136 0.949249
Si Si3 0.670033 0.950536 0.843409
Si Si4 0.857023 0.032069 0.555196
Si Si5 0.631498 0.074205 0.819995
Si Si6 0.676100 0.242628 0.819943
Si Si7 0.961969 0.337096 0.212170
O O1 0.593517 0.364073 0.568012
O O2 0.768074 0.390607 0.644750
O O3 0.740254 0.288539 0.626271
O O4 0.592957 0.342306 0.708020
O O5 0.084383 0.085170 0.890021
O O6 0.911487 0.028375 0.939045
O O7 0.050012 0.073829 0.023166
O O8 0.797102 0.949695 0.872759
O O9 0.666199 0.933509 0.762240
O O10 0.626695 0.013449 0.851803
O O11 0.750000 0.029075 0.500000
O O12 0.512318 0.106025 0.816043
O O13 0.750000 0.250000 0.750000
O O14 0.627354 0.302979 0.835999
O O15 0.573904 0.202251 0.794448
#
# Coordination Sequence:
#
# PCOD9529711 Si02
#       7
#    16  16  16  16  16  16  16
#     4  10  17  29  47  71  98 141 179 222 272 344
#     4  10  18  32  50  65  94 144 190 231 271 319
#     4  10  19  31  43  69 100 143 185 226 274 326
#     4   9  19  33  48  64  92 141 188 234 270 311
#     4  10  19  28  44  69 106 140 177 224 275 345
#     4   8  16  28  47  67 100 142 162 211 276 341
#     4   9  16  29  43  69 100 140 168 211 271 343
#
# _framework density 20.890411
#
# number of rings (size 3 to 8) (size 9 to 14) (size 15 to 20)
#    0.000    2.571    2.857    0.000    0.000    1.143 
#    0.000    0.000    0.000    0.000    0.000    0.000 
#    0.000    0.000  174.857    1.714    0.000    0.000 
#
# Total GULP energy -312224.032551 kJ/mol
# GULP energy per Si atom -5575.429153 kJ/mol
# Density = 2.084286 g / cm^3
# Si number density = 20.890411 Si / 1000 Ang^3
#
#
#
# Elastic Constant Matrix: (Units=GPa)
#
#
# Indices 1 2 3 4 5 6 
#
# 1 112.3536 47.7402 26.8669 0.0000 0.0000 0.0000
# 2 47.7402 68.3491 23.8946 0.0000 0.0000 0.0000
# 3 26.8669 23.8946 34.4877 0.0000 0.0000 0.0000
# 4 0.0000 0.0000 0.0000 21.0006 0.0000 0.0000
# 5 0.0000 0.0000 0.0000 0.0000 34.2129 0.0000
# 6 0.0000 0.0000 0.0000 0.0000 0.0000 32.7965
#
#
#
# Elastic Compliance Matrix: (Units=1/GPa)
#
#
# Indices 1 2 3 4 5 6 
#
# 1 0.013325 -0.007493 -0.005189 0.000000 0.000000 0.000000
# 2 -0.007493 0.023521 -0.010459 0.000000 0.000000 0.000000
# 3 -0.005189 -0.010459 0.040285 0.000000 0.000000 0.000000
# 4 0.000000 0.000000 0.000000 0.047618 0.000000 0.000000
# 5 0.000000 0.000000 0.000000 0.000000 0.029229 0.000000
# 6 0.000000 0.000000 0.000000 0.000000 0.000000 0.030491
#
#
# Mechanical properties :
#
#
# Convention : Reuss Voigt Hill
#
# Bulk Modulus (GPa) = 32.41657 45.79930 39.10793
# Shear Modulus (GPa) = 20.74395 25.38126 23.06261
#
# Velocity S-wave (km/s) = 3.15459 3.48943 3.32622
# Velocity P-wave (km/s) = 5.36840 6.18110 5.78903
#
# Compressibility (1/GPa) = 0.03084842
#
# Stress axis : x y z
#
# Youngs Moduli (GPa) = 75.04509 42.51509 24.82330
#
# Poissons Ratio (x) = 0.31858 0.12881
# Poissons Ratio (y) = 0.56234 0.25962
# Poissons Ratio (z) = 0.38942 0.44466
#
# Static dielectric constant tensor:
#      x y z
#    x 1.789340 0.000000 0.000000 
#    y 0.000000 1.773420 0.000000 
#    z 0.000000 0.000000 1.741590 
# 
# From -- ./inp_files/25577.got.cif
#   From: 2010.05.17/outbox.cif.g08.bks.cpg/sg73_13_cif.got.tgz:25577.got - 2010.06.03 17:35:07.
