data_PCOD9529450
_publ_section_title
;
Structure prediction by ZEFSAII (Michael W. Deem and Ramdas Pophale) SiO2 
 PCOD9529450
Probable space group: I B A M
;
_chemical_formula_sum "Si O2"
_cell_formula_units_Z 80
_cell_length_a 24.207328
_cell_length_b 11.524917
_cell_length_c 14.280342
_cell_angle_alpha 90.000000
_cell_angle_beta 90.000000
_cell_angle_gamma 90.000000
_cell_volume 3984.036142
_symmetry_space_group_name_H-M "I B A M"
_symmetry_group_IT_number 72
_symmetry_cell_setting 'orthorhombic'
loop_
_space_group_symop_operation_xyz
x,y,z
-x,-y,z
x,-y,1/2-z
-x,y,1/2-z
-x,-y,-z
x,y,-z
-x,y,1/2+z
x,-y,1/2+z
1/2+x,1/2+y,1/2+z
1/2-x,1/2-y,1/2+z
1/2+x,1/2-y,-z
1/2-x,1/2+y,-z
1/2-x,1/2-y,1/2-z
1/2+x,1/2+y,1/2-z
1/2-x,1/2+y,z
1/2+x,1/2-y,z
loop_
_atom_site_type_symbol
_atom_site_label
_atom_site_fract_x
_atom_site_fract_y
_atom_site_fract_z
Si Si1 0.352593 0.781818 0.892663
Si Si2 0.938716 0.465559 0.613851
Si Si3 0.351207 0.840394 0.387276
Si Si4 0.739339 0.984565 0.608313
Si Si5 0.341772 0.615430 0.275294
O O1 0.410031 0.843310 0.860973
O O2 0.307967 0.885598 0.892275
O O3 0.333418 0.683391 0.821933
O O4 0.357593 0.740925 0.000000
O O5 0.938415 0.464208 0.500000
O O6 0.897666 0.568379 0.642808
O O7 0.000000 0.500000 0.643848
O O8 0.350308 0.834505 0.500000
O O9 0.362604 0.716035 0.343708
O O10 0.292425 0.898511 0.358897
O O11 0.756982 0.001143 0.500000
O O12 0.788568 0.936234 0.670653
O O13 0.376249 0.500000 0.250000
#
# Coordination Sequence:
#
# PCOD9529450 Si02
#       5
#    16  16  16  16  16
#     4   9  20  37  54  80 114 141 179 238 283 326
#     4   8  15  34  66  92 107 134 180 239 302 340
#     4   9  20  38  57  83 115 140 182 242 285 331
#     4   9  20  36  55  78 106 142 185 234 281 322
#     4  12  25  34  52  77 112 158 196 217 264 339
#
# _framework density 20.08014
#
# number of rings (size 3 to 8) (size 9 to 14) (size 15 to 20)
#    0.000    2.600    0.000    3.600    5.600    4.000 
#    0.000    2.000    0.000    2.400    0.000    5.600 
#    0.000    0.000    0.000    0.000    0.000    0.000 
#
# Total GULP energy -223205.171152 kJ/mol
# GULP energy per Si atom -5580.129279 kJ/mol
# Density = 2.003444 g / cm^3
# Si number density = 20.080140 Si / 1000 Ang^3
#
#
#
# Elastic Constant Matrix: (Units=GPa)
#
#
# Indices 1 2 3 4 5 6 
#
# 1 87.3891 31.3775 26.5211 0.0000 0.0000 0.0000
# 2 31.3775 122.5918 34.6631 0.0000 0.0000 0.0000
# 3 26.5211 34.6631 92.0324 0.0000 0.0000 0.0000
# 4 0.0000 0.0000 0.0000 -101.3848 0.0000 0.0000
# 5 0.0000 0.0000 0.0000 0.0000 -25.1032 0.0000
# 6 0.0000 0.0000 0.0000 0.0000 0.0000 13.6146
#
#
#
# Elastic Compliance Matrix: (Units=1/GPa)
#
#
# Indices 1 2 3 4 5 6 
#
# 1 0.013233 -0.002584 -0.002840 0.000000 0.000000 0.000000
# 2 -0.002584 0.009634 -0.002884 0.000000 0.000000 0.000000
# 3 -0.002840 -0.002884 0.012770 0.000000 0.000000 0.000000
# 4 0.000000 0.000000 0.000000 -0.009863 0.000000 0.000000
# 5 0.000000 0.000000 0.000000 0.000000 -0.039836 0.000000
# 6 0.000000 0.000000 0.000000 0.000000 0.000000 0.073451
#
#
# Mechanical properties :
#
#
# Convention : Reuss Voigt Hill
#
# Bulk Modulus (GPa) = 52.57282 54.12629 53.34956
# Shear Modulus (GPa) = 60.72007 -8.61124 26.05441
#
# Velocity S-wave (km/s) = 5.50495 -2.07310 3.60602
# Velocity P-wave (km/s) = 8.16360 4.61339 6.63052
#
# Compressibility (1/GPa) = 0.01902123
#
# Stress axis : x y z
#
# Youngs Moduli (GPa) = 75.57003 103.79966 78.30620
#
# Poissons Ratio (x) = 0.26821 0.22240
# Poissons Ratio (y) = 0.19526 0.22583
# Poissons Ratio (z) = 0.21463 0.29935
#
# Static dielectric constant tensor:
#      x y z
#    x 1.723890 0.000000 0.000000 
#    y 0.000000 1.717480 0.000000 
#    z 0.000000 0.000000 1.777760 
# 
# From -- ./inp_files/24878.got.cif
#   From: 2010.05.17/outbox.cif.g08.bks.cpg/sg72_13_cif.got.tgz:24878.got - 2010.06.03 17:03:01.
