data_PCOD9529271
_publ_section_title
;
Structure prediction by ZEFSAII (Michael W. Deem and Ramdas Pophale) SiO2 
 PCOD9529271
Probable space group: I B A M
;
_chemical_formula_sum "Si O2"
_cell_formula_units_Z 64
_cell_length_a 18.337437
_cell_length_b 14.252751
_cell_length_c 9.731541
_cell_angle_alpha 90.000000
_cell_angle_beta 90.000000
_cell_angle_gamma 90.000000
_cell_volume 2543.425080
_symmetry_space_group_name_H-M "I B A M"
_symmetry_group_IT_number 72
_symmetry_cell_setting 'orthorhombic'
loop_
_space_group_symop_operation_xyz
x,y,z
-x,-y,z
x,-y,1/2-z
-x,y,1/2-z
-x,-y,-z
x,y,-z
-x,y,1/2+z
x,-y,1/2+z
1/2+x,1/2+y,1/2+z
1/2-x,1/2-y,1/2+z
1/2+x,1/2-y,-z
1/2-x,1/2+y,-z
1/2-x,1/2-y,1/2-z
1/2+x,1/2+y,1/2-z
1/2-x,1/2+y,z
1/2+x,1/2-y,z
loop_
_atom_site_type_symbol
_atom_site_label
_atom_site_fract_x
_atom_site_fract_y
_atom_site_fract_z
Si Si1 0.393114 0.109875 0.221726
Si Si2 0.384224 0.500000 0.750000
Si Si3 0.775219 0.672206 0.500000
Si Si4 0.710571 0.521577 0.000000
Si Si5 0.522004 0.201932 0.500000
Si Si6 0.000000 0.153448 0.250000
Si Si7 0.336072 0.840700 0.000000
O O1 0.327182 0.156239 0.131387
O O2 0.460510 0.122719 0.121071
O O3 0.387891 0.163425 0.368129
O O4 0.380265 0.000000 0.250000
O O5 0.333270 0.453367 0.864622
O O6 0.436053 0.583449 0.800826
O O7 0.716953 0.589808 0.500000
O O8 0.729068 0.766462 0.500000
O O9 0.791476 0.562593 0.000000
O O10 0.523490 0.283292 0.622040
#
# Coordination Sequence:
#
# PCOD9529271 Si02
#       7
#    16   8   8   8   8   8   8
#     4  11  23  47  69 105 147 192 225 297 360 424
#     4  11  26  42  76  98 156 192 228 293 362 406
#     4  11  24  39  66 108 153 193 231 276 345 442
#     4  12  23  41  70 115 149 196 230 275 353 446
#     4  11  27  46  82  95 133 182 249 299 359 418
#     4  11  26  52  67 110 136 186 251 308 344 415
#     4  12  24  40  69 108 159 184 236 278 348 447
#
# _framework density 25.162918999999999
#
# number of rings (size 3 to 8) (size 9 to 14) (size 15 to 20)
#    0.000    0.750    2.500    4.500   10.500    3.000 
#    0.000    1.875    0.000    0.000    0.000    0.000 
#    0.000    0.000    0.000    0.000    0.000    0.000 
#
# Total GULP energy -178314.745592 kJ/mol
# GULP energy per Si atom -5572.335800 kJ/mol
# Density = 2.510565 g / cm^3
# Si number density = 25.162919 Si / 1000 Ang^3
#
#
#
# Elastic Constant Matrix: (Units=GPa)
#
#
# Indices 1 2 3 4 5 6 
#
# 1 100.6079 2.7578 36.7452 0.0000 0.0000 0.0000
# 2 2.7578 96.9954 40.1157 0.0000 0.0000 0.0000
# 3 36.7452 40.1157 207.6637 0.0000 0.0000 0.0000
# 4 0.0000 0.0000 0.0000 40.6130 0.0000 0.0000
# 5 0.0000 0.0000 0.0000 0.0000 7.2535 0.0000
# 6 0.0000 0.0000 0.0000 0.0000 0.0000 43.4002
#
#
#
# Elastic Compliance Matrix: (Units=1/GPa)
#
#
# Indices 1 2 3 4 5 6 
#
# 1 0.010650 0.000518 -0.001985 0.000000 0.000000 0.000000
# 2 0.000518 0.011230 -0.002261 0.000000 0.000000 0.000000
# 3 -0.001985 -0.002261 0.005603 0.000000 0.000000 0.000000
# 4 0.000000 0.000000 0.000000 0.024623 0.000000 0.000000
# 5 0.000000 0.000000 0.000000 0.000000 0.137864 0.000000
# 6 0.000000 0.000000 0.000000 0.000000 0.000000 0.023041
#
#
# Mechanical properties :
#
#
# Convention : Reuss Voigt Hill
#
# Bulk Modulus (GPa) = 49.92887 62.72273 56.32580
# Shear Modulus (GPa) = 22.01249 39.96323 30.98786
#
# Velocity S-wave (km/s) = 2.96091 3.98952 3.51307
# Velocity P-wave (km/s) = 5.61913 6.79724 6.23607
#
# Compressibility (1/GPa) = 0.02002849
#
# Stress axis : x y z
#
# Youngs Moduli (GPa) = 93.89484 89.04585 178.46239
#
# Poissons Ratio (x) = -0.04612 0.35417
# Poissons Ratio (y) = -0.04863 0.40351
# Poissons Ratio (z) = 0.18634 0.20134
#
# Static dielectric constant tensor:
#      x y z
#    x 2.167150 0.000000 0.000000 
#    y 0.000000 1.907230 0.000000 
#    z 0.000000 0.000000 1.781520 
# 
# From -- ./inp_files/6663.got.cif
#   From: 2010.05.17/outbox.cif.g08.bks.cpg/sg72_4_cif.got.tgz:6663.got - 2010.06.03 17:03:01.
