data_PCOD9529033
_publ_section_title
;
Structure prediction by ZEFSAII (Michael W. Deem and Ramdas Pophale) SiO2 
 PCOD9529033
Probable space group: I B A M
;
_chemical_formula_sum "Si O2"
_cell_formula_units_Z 88
_cell_length_a 23.645779
_cell_length_b 10.473219
_cell_length_c 16.297201
_cell_angle_alpha 90.000000
_cell_angle_beta 90.000000
_cell_angle_gamma 90.000000
_cell_volume 4035.959812
_symmetry_space_group_name_H-M "I B A M"
_symmetry_group_IT_number 72
_symmetry_cell_setting 'orthorhombic'
loop_
_space_group_symop_operation_xyz
x,y,z
-x,-y,z
x,-y,1/2-z
-x,y,1/2-z
-x,-y,-z
x,y,-z
-x,y,1/2+z
x,-y,1/2+z
1/2+x,1/2+y,1/2+z
1/2-x,1/2-y,1/2+z
1/2+x,1/2-y,-z
1/2-x,1/2+y,-z
1/2-x,1/2-y,1/2-z
1/2+x,1/2+y,1/2-z
1/2-x,1/2+y,z
1/2+x,1/2-y,z
loop_
_atom_site_type_symbol
_atom_site_label
_atom_site_fract_x
_atom_site_fract_y
_atom_site_fract_z
Si Si1 0.633551 0.925291 0.840228
Si Si2 0.383526 0.500000 0.250000
Si Si3 0.318139 0.163027 0.590619
Si Si4 0.709509 0.694677 0.819150
Si Si5 0.489530 0.147111 0.847543
Si Si6 0.581989 0.651930 0.597956
O O1 0.682919 0.824310 0.853227
O O2 0.577517 0.843419 0.854797
O O3 0.633127 0.000000 0.750000
O O4 0.642100 0.040345 0.902219
O O5 0.340516 0.394812 0.212116
O O6 0.420381 0.451499 0.328286
O O7 0.305481 0.204174 0.500000
O O8 0.257358 0.126876 0.627099
O O9 0.359137 0.275452 0.622156
O O10 0.750000 0.750000 0.750000
O O11 0.500000 0.156317 0.750000
O O12 0.530241 0.248104 0.891104
O O13 0.500000 0.000000 0.873071
O O14 0.584017 0.614370 0.500000
#
# Coordination Sequence:
#
# PCOD9529033 Si02
#       6
#    16   8  16  16  16  16
#     4  12  21  39  68 101 132 175 238 293 356 424
#     4  12  24  46  71 100 146 203 236 294 366 444
#     4  11  24  40  62  99 138 175 232 303 361 421
#     4  12  23  39  66  96 136 188 237 284 352 430
#     4  11  20  38  69 106 138 177 237 308 365 426
#     4  11  25  45  70 104 144 191 241 297 366 435
#
# _framework density 21.803982000000001
#
# number of rings (size 3 to 8) (size 9 to 14) (size 15 to 20)
#    0.000    0.545    7.273    2.182    0.000    2.545 
#    0.000    4.091    0.000    7.636    0.000    0.000 
#    0.000    0.000    0.000    0.000    0.000    0.000 
#
# Total GULP energy -245139.993807 kJ/mol
# GULP energy per Si atom -5571.363496 kJ/mol
# Density = 2.175436 g / cm^3
# Si number density = 21.803982 Si / 1000 Ang^3
#
#
#
# Elastic Constant Matrix: (Units=GPa)
#
#
# Indices 1 2 3 4 5 6 
#
# 1 103.1082 11.8716 33.9300 0.0000 0.0000 0.0000
# 2 11.8716 61.2326 38.5213 0.0000 0.0000 0.0000
# 3 33.9300 38.5213 73.2578 0.0000 0.0000 0.0000
# 4 0.0000 0.0000 0.0000 18.6423 0.0000 0.0000
# 5 0.0000 0.0000 0.0000 0.0000 8.6474 0.0000
# 6 0.0000 0.0000 0.0000 0.0000 0.0000 47.0346
#
#
#
# Elastic Compliance Matrix: (Units=1/GPa)
#
#
# Indices 1 2 3 4 5 6 
#
# 1 0.011558 0.001684 -0.006238 0.000000 0.000000 0.000000
# 2 0.001684 0.024649 -0.013741 0.000000 0.000000 0.000000
# 3 -0.006238 -0.013741 0.023765 0.000000 0.000000 0.000000
# 4 0.000000 0.000000 0.000000 0.053641 0.000000 0.000000
# 5 0.000000 0.000000 0.000000 0.000000 0.115642 0.000000
# 6 0.000000 0.000000 0.000000 0.000000 0.000000 0.021261
#
#
# Mechanical properties :
#
#
# Convention : Reuss Voigt Hill
#
# Bulk Modulus (GPa) = 42.77053 45.13824 43.95439
# Shear Modulus (GPa) = 16.95479 25.08322 21.01901
#
# Velocity S-wave (km/s) = 2.79157 3.39543 3.10820
# Velocity P-wave (km/s) = 5.48170 6.00988 5.75186
#
# Compressibility (1/GPa) = 0.02338058
#
# Stress axis : x y z
#
# Youngs Moduli (GPa) = 86.52347 40.56902 42.07799
#
# Poissons Ratio (x) = -0.06831 0.26250
# Poissons Ratio (y) = -0.14569 0.57821
# Poissons Ratio (z) = 0.53977 0.55747
#
# Static dielectric constant tensor:
#      x y z
#    x 1.598640 0.000000 0.000000 
#    y 0.000000 1.820880 0.000000 
#    z 0.000000 0.000000 1.229450 
# 
# From -- ./inp_files/32501.got.cif
#   From: 2010.05.17/outbox.cif.g08.bks.cpg/sg72_17_cif.got.tgz:32501.got - 2010.06.03 17:03:01.
