data_PCOD9529935
_publ_section_title
;
Structure prediction by ZEFSAII (Michael W. Deem and Ramdas Pophale) SiO2 
 PCOD9529935
Probable space group: I B C A 
;
_chemical_formula_sum "Si O2"
_cell_formula_units_Z 120
_cell_length_a 8.461535
_cell_length_b 31.073060
_cell_length_c 19.727336
_cell_angle_alpha 90.000000
_cell_angle_beta 90.000000
_cell_angle_gamma 90.000000
_cell_volume 5186.825299
_symmetry_space_group_name_H-M "I B C A "
_symmetry_group_IT_number 73
_symmetry_cell_setting 'orthorhombic'
loop_
_space_group_symop_operation_xyz
x,y,z
-x,1/2-y,z
x,-y,1/2-z
1/2-x,y,-z
-x,-y,-z
x,1/2+y,-z
-x,y,1/2+z
1/2+x,-y,z
1/2+x,1/2+y,1/2+z
1/2-x,-y,1/2+z
1/2+x,1/2-y,-z
-x,1/2+y,1/2-z
1/2-x,1/2-y,1/2-z
1/2+x,y,1/2-z
1/2-x,1/2+y,z
x,1/2-y,1/2+z
loop_
_atom_site_type_symbol
_atom_site_label
_atom_site_fract_x
_atom_site_fract_y
_atom_site_fract_z
Si Si1 0.135326 0.714901 0.063812
Si Si2 0.271672 0.000000 0.250000
Si Si3 0.113906 0.884250 0.295700
Si Si4 0.023214 0.563404 0.419736
Si Si5 0.935872 0.152959 0.015022
Si Si6 0.858227 0.978003 0.603338
Si Si7 0.063687 0.796566 0.354029
Si Si8 0.941143 0.421281 0.820321
O O1 0.254117 0.709765 0.125345
O O2 0.000000 0.750000 0.072747
O O3 0.250000 0.726553 0.000000
O O4 0.043598 0.671382 0.044804
O O5 0.175439 0.010070 0.317853
O O6 0.373842 0.040507 0.227061
O O7 0.016149 0.915595 0.346250
O O8 0.053724 0.835706 0.302020
O O9 0.086310 0.899660 0.219250
O O10 0.292835 0.889336 0.321884
O O11 0.910000 0.522446 0.431085
O O12 0.012861 0.604714 0.467231
O O13 0.199473 0.544071 0.422228
O O14 0.974742 0.184472 0.078910
O O15 0.750000 0.154302 0.000000
O O16 0.000092 0.943625 0.610829
O O17 0.000000 0.750000 0.334339
#
# Coordination Sequence:
#
# PCOD9529935 Si02
#       8
#    16   8  16  16  16  16  16  16
#     4  10  18  35  64  91 110 140 184 239 296 354
#     4  12  18  28  58  80 112 144 200 242 272 312
#     4  11  21  36  55  87 117 151 191 242 286 334
#     4  11  21  35  53  84 116 150 195 247 283 332
#     4  10  21  37  60  85 116 146 188 237 300 345
#     4  12  20  33  56  83 117 157 198 240 284 322
#     4  10  22  39  62  88 116 144 188 241 290 351
#     4  12  20  33  56  84 119 156 198 237 283 330
#
# _framework density 23.135539999999999
#
# number of rings (size 3 to 8) (size 9 to 14) (size 15 to 20)
#    0.000    1.067    5.333    3.200    0.000    1.067 
#    0.000    5.333    0.000    0.000    0.000    0.000 
#    0.000    0.000    0.000    0.000    0.000    0.000 
#
# Total GULP energy -335643.656920 kJ/mol
# GULP energy per Si atom -5594.060949 kJ/mol
# Density = 2.308288 g / cm^3
# Si number density = 23.135540 Si / 1000 Ang^3
#
#
#
# Elastic Constant Matrix: (Units=GPa)
#
#
# Indices 1 2 3 4 5 6 
#
# 1 100.8503 42.5375 -0.4606 0.0000 0.0000 0.0000
# 2 42.5375 176.2020 20.5840 0.0000 0.0000 0.0000
# 3 -0.4606 20.5840 19.7373 0.0000 0.0000 -0.0001
# 4 0.0000 0.0000 0.0000 8.3340 0.0000 -0.0001
# 5 0.0000 0.0000 0.0000 0.0000 2.7243 0.0000
# 6 0.0000 0.0000 -0.0001 -0.0001 0.0000 -45.6246
#
#
#
# Elastic Compliance Matrix: (Units=1/GPa)
#
#
# Indices 1 2 3 4 5 6 
#
# 1 0.011251 -0.003128 0.003525 0.000000 0.000000 0.000000
# 2 -0.003128 0.007332 -0.007720 0.000000 0.000000 0.000000
# 3 0.003525 -0.007720 0.058799 0.000000 0.000000 0.000000
# 4 0.000000 0.000000 0.000000 0.119991 0.000000 0.000000
# 5 0.000000 0.000000 0.000000 0.000000 0.367064 0.000000
# 6 0.000000 0.000000 0.000000 0.000000 0.000000 -0.021918
#
#
# Mechanical properties :
#
#
# Convention : Reuss Voigt Hill
#
# Bulk Modulus (GPa) = 15.93983 46.90127 31.42055
# Shear Modulus (GPa) = 8.64937 8.69531 8.67234
#
# Velocity S-wave (km/s) = 1.93563 1.94077 1.93820
# Velocity P-wave (km/s) = 3.44968 5.03374 4.31502
#
# Compressibility (1/GPa) = 0.06273591
#
# Stress axis : x y z
#
# Youngs Moduli (GPa) = 88.88021 136.38383 17.00719
#
# Poissons Ratio (x) = 0.42660 -0.05994
# Poissons Ratio (y) = 0.27801 0.13129
# Poissons Ratio (z) = -0.31327 1.05285
#
# Static dielectric constant tensor:
#      x y z
#    x 1.891840 0.000000 0.000000 
#    y 0.000000 1.870300 0.000000 
#    z 0.000000 0.000000 1.888620 
# 
# From -- ./inp_files/28594.got.cif
#   From: 2010.05.17/outbox.cif.g08.bks.cpg/sg73_15_cif.got.tgz:28594.got - 2010.06.03 17:35:07.
