data_PCOD9529044
_publ_section_title
;
Structure prediction by ZEFSAII (Michael W. Deem and Ramdas Pophale) SiO2 
 PCOD9529044
Probable space group: I B A M
;
_chemical_formula_sum "Si O2"
_cell_formula_units_Z 64
_cell_length_a 14.643013
_cell_length_b 12.411969
_cell_length_c 17.706307
_cell_angle_alpha 90.000000
_cell_angle_beta 90.000000
_cell_angle_gamma 90.000000
_cell_volume 3218.096923
_symmetry_space_group_name_H-M "I B A M"
_symmetry_group_IT_number 72
_symmetry_cell_setting 'orthorhombic'
loop_
_space_group_symop_operation_xyz
x,y,z
-x,-y,z
x,-y,1/2-z
-x,y,1/2-z
-x,-y,-z
x,y,-z
-x,y,1/2+z
x,-y,1/2+z
1/2+x,1/2+y,1/2+z
1/2-x,1/2-y,1/2+z
1/2+x,1/2-y,-z
1/2-x,1/2+y,-z
1/2-x,1/2-y,1/2-z
1/2+x,1/2+y,1/2-z
1/2-x,1/2+y,z
1/2+x,1/2-y,z
loop_
_atom_site_type_symbol
_atom_site_label
_atom_site_fract_x
_atom_site_fract_y
_atom_site_fract_z
Si Si1 0.844941 0.770922 0.206592
Si Si2 0.600380 0.963877 0.663197
Si Si3 0.405551 0.566541 0.682971
Si Si4 0.718866 0.449984 0.087999
O O1 0.750000 0.750000 0.250000
O O2 0.885645 0.664294 0.169008
O O3 0.907416 0.819286 0.275260
O O4 0.823393 0.853436 0.138188
O O5 0.500000 0.000000 0.637461
O O6 0.610977 0.000000 0.750000
O O7 0.679903 0.019743 0.615102
O O8 0.500000 0.500000 0.672131
O O9 0.354366 0.500000 0.750000
O O10 0.344702 0.553313 0.609654
O O11 0.715454 0.426306 0.000000
#
# Coordination Sequence:
#
# PCOD9529044 Si02
#       4
#    16  16  16  16
#     4  11  20  42  69  90 125 172 219 261 316 381
#     4  11  23  40  67  97 127 167 221 269 316 383
#     4   9  19  37  66  94 123 161 216 269 309 372
#     4  11  23  40  61  94 135 173 209 263 325 380
#
# _framework density 19.887530000000002
#
# number of rings (size 3 to 8) (size 9 to 14) (size 15 to 20)
#    0.000    1.500    5.000    0.750    0.000   10.000 
#    0.000    0.000    0.000    0.000    0.000    0.000 
#    0.000    0.000    0.000    0.000    0.000    0.000 
#
# Total GULP energy -178261.922146 kJ/mol
# GULP energy per Si atom -5570.685067 kJ/mol
# Density = 1.984226 g / cm^3
# Si number density = 19.887530 Si / 1000 Ang^3
#
#
#
# Elastic Constant Matrix: (Units=GPa)
#
#
# Indices 1 2 3 4 5 6 
#
# 1 155.1136 54.1252 51.1417 0.0000 0.0000 0.0000
# 2 54.1252 119.8215 41.2657 0.0000 0.0000 0.0000
# 3 51.1417 41.2657 120.4903 0.0000 0.0000 0.0000
# 4 0.0000 0.0000 0.0000 18.2557 0.0000 0.0000
# 5 0.0000 0.0000 0.0000 0.0000 8.8160 0.0000
# 6 0.0000 0.0000 0.0000 0.0000 0.0000 26.4788
#
#
#
# Elastic Compliance Matrix: (Units=1/GPa)
#
#
# Indices 1 2 3 4 5 6 
#
# 1 0.008283 -0.002869 -0.002533 0.000000 0.000000 0.000000
# 2 -0.002869 0.010456 -0.002363 0.000000 0.000000 0.000000
# 3 -0.002533 -0.002363 0.010184 0.000000 0.000000 0.000000
# 4 0.000000 0.000000 0.000000 0.054777 0.000000 0.000000
# 5 0.000000 0.000000 0.000000 0.000000 0.113431 0.000000
# 6 0.000000 0.000000 0.000000 0.000000 0.000000 0.037766
#
#
# Mechanical properties :
#
#
# Convention : Reuss Voigt Hill
#
# Bulk Modulus (GPa) = 74.67166 76.49897 75.58531
# Shear Modulus (GPa) = 19.61617 27.30294 23.45956
#
# Velocity S-wave (km/s) = 3.14404 3.70924 3.43827
# Velocity P-wave (km/s) = 7.12800 7.54281 7.33834
#
# Compressibility (1/GPa) = 0.01339196
#
# Stress axis : x y z
#
# Youngs Moduli (GPa) = 120.72508 95.64198 98.19431
#
# Poissons Ratio (x) = 0.27442 0.24874
# Poissons Ratio (y) = 0.34640 0.23203
# Poissons Ratio (z) = 0.30581 0.22600
#
# Static dielectric constant tensor:
#      x y z
#    x 1.787170 0.000000 0.000000 
#    y 0.000000 1.905520 0.000000 
#    z 0.000000 0.000000 1.669950 
# 
# From -- ./inp_files/30131.got.cif
#   From: 2010.05.17/outbox.cif.g08.bks.cpg/sg72_16_cif.got.tgz:30131.got - 2010.06.03 17:03:01.
