data_PCOD9529769
_publ_section_title
;
Structure prediction by ZEFSAII (Michael W. Deem and Ramdas Pophale) SiO2 
 PCOD9529769
Probable space group: I B C A 
;
_chemical_formula_sum "Si O2"
_cell_formula_units_Z 128
_cell_length_a 24.404141
_cell_length_b 10.419157
_cell_length_c 25.939678
_cell_angle_alpha 90.000000
_cell_angle_beta 90.000000
_cell_angle_gamma 90.000000
_cell_volume 6595.696880
_symmetry_space_group_name_H-M "I B C A "
_symmetry_group_IT_number 73
_symmetry_cell_setting 'orthorhombic'
loop_
_space_group_symop_operation_xyz
x,y,z
-x,1/2-y,z
x,-y,1/2-z
1/2-x,y,-z
-x,-y,-z
x,1/2+y,-z
-x,y,1/2+z
1/2+x,-y,z
1/2+x,1/2+y,1/2+z
1/2-x,-y,1/2+z
1/2+x,1/2-y,-z
-x,1/2+y,1/2-z
1/2-x,1/2-y,1/2-z
1/2+x,y,1/2-z
1/2-x,1/2+y,z
x,1/2-y,1/2+z
loop_
_atom_site_type_symbol
_atom_site_label
_atom_site_fract_x
_atom_site_fract_y
_atom_site_fract_z
Si Si1 0.625474 0.531354 0.191214
Si Si2 0.368576 0.883450 0.565523
Si Si3 0.093702 0.974315 0.978437
Si Si4 0.445424 0.326634 0.889774
Si Si5 0.218856 0.007758 0.133260
Si Si6 0.269948 0.781104 0.192950
Si Si7 0.809404 0.288002 0.486741
Si Si8 0.326165 0.393146 0.600733
O O1 0.611268 0.500000 0.250000
O O2 0.575387 0.583628 0.156697
O O3 0.672994 0.640055 0.192783
O O4 0.652024 0.411548 0.159095
O O5 0.395370 0.771052 0.598766
O O6 0.321755 0.828424 0.526954
O O7 0.416037 0.938190 0.528097
O O8 0.337403 0.982561 0.602151
O O9 0.048922 0.901143 0.944655
O O10 0.125123 0.055532 0.935013
O O11 0.139421 0.877917 0.001075
O O12 0.500000 0.250000 0.877065
O O13 0.227319 0.883239 0.168267
O O14 0.223968 0.145666 0.163111
O O15 0.273251 0.014529 0.097701
O O16 0.250000 0.750000 0.250000
O O17 0.750000 0.341565 0.500000
O O18 0.809801 0.236910 0.428210
#
# Coordination Sequence:
#
# PCOD9529769 Si02
#       8
#    16  16  16  16  16  16  16  16
#     4  10  20  39  61  81 110 148 205 246 301 373
#     4  10  20  34  50  86 117 150 197 244 288 364
#     4   9  21  32  51  84 117 150 197 233 295 363
#     4  10  21  41  64  80 109 155 204 263 310 357
#     4  11  21  32  55  81 124 160 201 236 294 360
#     4  11  22  37  55  86 120 166 198 243 299 368
#     4  10  18  27  48  76 120 158 188 219 277 351
#     4   9  19  31  47  81 114 157 186 228 280 354
#
# _framework density 19.406593000000001
#
# number of rings (size 3 to 8) (size 9 to 14) (size 15 to 20)
#    0.000    2.000    2.500    1.875    5.250    0.500 
#    0.000    0.000    2.750    0.000    0.000    1.750 
#    0.000    0.000    0.000    0.000    0.000    0.000 
#
# Total GULP energy -356715.720727 kJ/mol
# GULP energy per Si atom -5573.683136 kJ/mol
# Density = 1.936242 g / cm^3
# Si number density = 19.406593 Si / 1000 Ang^3
#
#
#
# Elastic Constant Matrix: (Units=GPa)
#
#
# Indices 1 2 3 4 5 6 
#
# 1 53.7218 2.8566 30.7266 0.0000 0.0000 0.0000
# 2 2.8566 66.4445 51.3917 0.0000 0.0000 0.0000
# 3 30.7266 51.3917 135.4509 0.0000 0.0000 0.0000
# 4 0.0000 0.0000 0.0000 31.4794 0.0000 0.0000
# 5 0.0000 0.0000 0.0000 0.0000 13.9601 0.0000
# 6 0.0000 0.0000 0.0000 0.0000 0.0000 15.9600
#
#
#
# Elastic Compliance Matrix: (Units=1/GPa)
#
#
# Indices 1 2 3 4 5 6 
#
# 1 0.022172 0.004157 -0.006607 0.000000 0.000000 0.000000
# 2 0.004157 0.022080 -0.009321 0.000000 0.000000 0.000000
# 3 -0.006607 -0.009321 0.012418 0.000000 0.000000 0.000000
# 4 0.000000 0.000000 0.000000 0.031767 0.000000 0.000000
# 5 0.000000 0.000000 0.000000 0.000000 0.071633 0.000000
# 6 0.000000 0.000000 0.000000 0.000000 0.000000 0.062656
#
#
# Mechanical properties :
#
#
# Convention : Reuss Voigt Hill
#
# Bulk Modulus (GPa) = 30.18466 47.28520 38.73493
# Shear Modulus (GPa) = 19.43177 23.65607 21.54392
#
# Velocity S-wave (km/s) = 3.16776 3.49516 3.33548
# Velocity P-wave (km/s) = 5.38212 6.38018 5.90228
#
# Compressibility (1/GPa) = 0.03312941
#
# Stress axis : x y z
#
# Youngs Moduli (GPa) = 45.10148 45.28888 80.52935
#
# Poissons Ratio (x) = -0.18826 0.53205
# Poissons Ratio (y) = -0.18748 0.75058
# Poissons Ratio (z) = 0.29798 0.42212
#
# Static dielectric constant tensor:
#      x y z
#    x 1.678270 0.000000 0.000000 
#    y 0.000000 1.791700 0.000000 
#    z 0.000000 0.000000 1.720000 
# 
# From -- ./inp_files/30389.got.cif
#   From: 2010.05.17/outbox.cif.g08.bks.cpg/sg73_16_cif.got.tgz:30389.got - 2010.06.03 17:35:07.
