data_PCOD9529972
_publ_section_title
;
Structure prediction by ZEFSAII (Michael W. Deem and Ramdas Pophale) SiO2 
 PCOD9529972
Probable space group: I B C A 
;
_chemical_formula_sum "Si O2"
_cell_formula_units_Z 128
_cell_length_a 16.871785
_cell_length_b 19.912761
_cell_length_c 20.552819
_cell_angle_alpha 90.000000
_cell_angle_beta 90.000000
_cell_angle_gamma 90.000000
_cell_volume 6905.003631
_symmetry_space_group_name_H-M "I B C A "
_symmetry_group_IT_number 73
_symmetry_cell_setting 'orthorhombic'
loop_
_space_group_symop_operation_xyz
x,y,z
-x,1/2-y,z
x,-y,1/2-z
1/2-x,y,-z
-x,-y,-z
x,1/2+y,-z
-x,y,1/2+z
1/2+x,-y,z
1/2+x,1/2+y,1/2+z
1/2-x,-y,1/2+z
1/2+x,1/2-y,-z
-x,1/2+y,1/2-z
1/2-x,1/2-y,1/2-z
1/2+x,y,1/2-z
1/2-x,1/2+y,z
x,1/2-y,1/2+z
loop_
_atom_site_type_symbol
_atom_site_label
_atom_site_fract_x
_atom_site_fract_y
_atom_site_fract_z
Si Si1 0.192331 0.310994 0.161896
Si Si2 0.528913 0.961914 0.563938
Si Si3 0.266490 0.036032 0.180241
Si Si4 0.489155 0.177056 0.381551
Si Si5 0.542994 0.680099 0.763565
Si Si6 0.283356 0.070423 0.428028
Si Si7 0.953602 0.951159 0.187801
Si Si8 0.709625 0.169241 0.282025
O O1 0.100258 0.322359 0.146480
O O2 0.231199 0.357737 0.107027
O O3 0.214275 0.335844 0.234303
O O4 0.212164 0.232359 0.169280
O O5 0.493591 0.887434 0.574936
O O6 0.623229 0.946904 0.565196
O O7 0.500000 0.000000 0.500000
O O8 0.512137 0.008995 0.626062
O O9 0.359264 0.057588 0.175534
O O10 0.209284 0.099816 0.179998
O O11 0.256927 0.000000 0.250000
O O12 0.249868 0.984703 0.122012
O O13 0.500000 0.250000 0.413720
O O14 0.538159 0.173693 0.314979
O O15 0.500000 0.750000 0.781158
O O16 0.499017 0.617826 0.796851
O O17 0.637932 0.679903 0.769608
O O18 0.250000 0.068718 0.500000
O O19 0.960933 0.000000 0.250000
#
# Coordination Sequence:
#
# PCOD9529972 Si02
#       8
#    16  16  16  16  16  16  16  16
#     4  10  20  36  57  84 113 157 192 233 301 350
#     4  10  22  39  63  84 115 161 197 238 295 357
#     4  10  20  37  60  88 118 155 194 245 302 353
#     4  10  18  37  59  84 113 153 196 235 286 354
#     4  11  21  33  54  90 119 147 188 246 293 349
#     4  10  22  41  61  82 120 161 198 241 296 362
#     4  10  20  37  60  85 118 154 190 241 304 355
#     4  11  21  32  58  89 119 147 196 247 291 355
#
# _framework density 18.537282999999999
#
# number of rings (size 3 to 8) (size 9 to 14) (size 15 to 20)
#    0.000    1.750    5.000    0.750    1.750    2.500 
#    0.000    1.250    8.250    0.000    0.000    0.000 
#    0.000    0.000    0.000    0.000    0.000    0.000 
#
# Total GULP energy -356752.559157 kJ/mol
# GULP energy per Si atom -5574.258737 kJ/mol
# Density = 1.849509 g / cm^3
# Si number density = 18.537283 Si / 1000 Ang^3
#
#
#
# Elastic Constant Matrix: (Units=GPa)
#
#
# Indices 1 2 3 4 5 6 
#
# 1 34.2298 44.2291 18.8359 0.0000 0.0000 0.0000
# 2 44.2291 164.0639 66.1540 0.0000 0.0000 0.0000
# 3 18.8359 66.1540 107.8047 0.0000 0.0000 0.0000
# 4 0.0000 0.0000 0.0000 27.9061 0.0000 0.0000
# 5 0.0000 0.0000 0.0000 0.0000 22.4441 0.0000
# 6 0.0000 0.0000 0.0000 0.0000 0.0000 27.5305
#
#
#
# Elastic Compliance Matrix: (Units=1/GPa)
#
#
# Indices 1 2 3 4 5 6 
#
# 1 0.044855 -0.011869 -0.000554 0.000000 0.000000 0.000000
# 2 -0.011869 0.011240 -0.004823 0.000000 0.000000 0.000000
# 3 -0.000554 -0.004823 0.012333 0.000000 0.000000 0.000000
# 4 0.000000 0.000000 0.000000 0.035834 0.000000 0.000000
# 5 0.000000 0.000000 0.000000 0.000000 0.044555 0.000000
# 6 0.000000 0.000000 0.000000 0.000000 0.000000 0.036323
#
#
# Mechanical properties :
#
#
# Convention : Reuss Voigt Hill
#
# Bulk Modulus (GPa) = 29.46804 62.72627 46.09715
# Shear Modulus (GPa) = 21.65020 27.36812 24.50916
#
# Velocity S-wave (km/s) = 3.42120 3.84654 3.64009
# Velocity P-wave (km/s) = 5.61581 7.32388 6.52597
#
# Compressibility (1/GPa) = 0.03393507
#
# Stress axis : x y z
#
# Youngs Moduli (GPa) = 22.29399 88.96962 81.08501
#
# Poissons Ratio (x) = 1.05597 0.04491
# Poissons Ratio (y) = 0.26461 0.39111
# Poissons Ratio (z) = 0.01235 0.42914
#
# Static dielectric constant tensor:
#      x y z
#    x 1.744360 0.000000 0.000000 
#    y 0.000000 1.688430 0.000000 
#    z 0.000000 0.000000 1.605860 
# 
# From -- ./inp_files/26740.got.cif
#   From: 2010.05.17/outbox.cif.g08.bks.cpg/sg73_14_cif.got.tgz:26740.got - 2010.06.03 17:35:07.
