data_PCOD9529526
_publ_section_title
;
Structure prediction by ZEFSAII (Michael W. Deem and Ramdas Pophale) SiO2 
 PCOD9529526
Probable space group: I B A M
;
_chemical_formula_sum "Si O2"
_cell_formula_units_Z 48
_cell_length_a 21.000000
_cell_length_b 15.000000
_cell_length_c 15.000000
_cell_angle_alpha 90.000000
_cell_angle_beta 90.000000
_cell_angle_gamma 90.000000
_cell_volume 4725.000000
_symmetry_space_group_name_H-M "I B A M"
_symmetry_group_IT_number 72
_symmetry_cell_setting 'orthorhombic'
loop_
_space_group_symop_operation_xyz
x,y,z
-x,-y,z
x,-y,1/2-z
-x,y,1/2-z
-x,-y,-z
x,y,-z
-x,y,1/2+z
x,-y,1/2+z
1/2+x,1/2+y,1/2+z
1/2-x,1/2-y,1/2+z
1/2+x,1/2-y,-z
1/2-x,1/2+y,-z
1/2-x,1/2-y,1/2-z
1/2+x,1/2+y,1/2-z
1/2-x,1/2+y,z
1/2+x,1/2-y,z
loop_
_atom_site_type_symbol
_atom_site_label
_atom_site_fract_x
_atom_site_fract_y
_atom_site_fract_z
Si Si1 0.328675 0.579943 0.000000
Si Si2 0.056457 0.742682 0.801733
Si Si3 0.916970 0.769729 0.500000
Si Si4 0.113988 0.909178 0.297545
Si Si5 0.203366 0.123875 0.500000
Si Si6 0.187107 0.391118 0.500000
Si Si7 0.147407 0.423413 0.302535
Si Si8 0.239951 0.844177 0.799839
O O1 0.368325 0.588899 0.094979
O O2 0.295701 0.482625 0.000000
O O3 0.262240 0.637400 0.000000
O O4 0.045702 0.767088 0.906071
O O5 0.071503 0.826397 0.736914
O O6 0.113042 0.671985 0.805492
O O7 0.000000 0.694816 0.750000
O O8 0.872016 0.855597 0.500000
O O9 0.863295 0.691130 0.500000
O O10 0.178478 0.888858 0.243597
O O11 0.089128 0.000000 0.250000
O O12 0.231856 0.160302 0.593249
O O13 0.171307 0.439251 0.404726
O O14 0.108499 0.500000 0.250000
O O15 0.203390 0.406655 0.231640
O O16 0.250000 0.750000 0.750000
#
# Coordination Sequence:
#
# PCOD9529526 Si02
#       8
#     8  16   8  16   8   8  16  16
#     4  12  22  33  60  94 133 163 198 253 316 384
#     4  11  25  44  65  88 119 165 221 270 311 370
#     4  10  20  41  64  81 116 163 207 251 319 373
#     4  12  23  40  61  92 130 164 206 260 316 373
#     4  12  22  36  61  93 129 172 202 237 324 398
#     4  10  20  34  59  91 120 168 194 234 316 403
#     4  11  22  40  62  92 130 162 208 258 320 383
#     4  12  21  37  62  95 128 164 202 255 311 385
#
# _framework density 10.15873
#
# number of rings (size 3 to 8) (size 9 to 14) (size 15 to 20)
#    0.000    0.667    6.667    2.500    0.000    1.333 
#    0.000    2.500    0.000    6.000    0.000    0.000 
#    0.000    0.000    0.000    0.000    0.000    0.000 
#
# Total GULP energy -267421.705778 kJ/mol
# GULP energy per Si atom -5571.285537 kJ/mol
# Density = 1.013561 g / cm^3
# Si number density = 10.158730 Si / 1000 Ang^3
#
#
#
# Elastic Constant Matrix: (Units=GPa)
#
#
# Indices 1 2 3 4 5 6 
#
# 1 42.0231 -9.8260 35.8051 0.0000 0.0000 0.0000
# 2 -9.8260 81.0297 36.2067 0.0000 0.0000 0.0000
# 3 35.8051 36.2067 244.4300 0.0000 0.0000 0.0000
# 4 0.0000 0.0000 0.0000 33.3481 0.0000 0.0000
# 5 0.0000 0.0000 0.0000 0.0000 26.6040 0.0000
# 6 0.0000 0.0000 0.0000 0.0000 0.0000 -14.2603
#
#
#
# Elastic Compliance Matrix: (Units=1/GPa)
#
#
# Indices 1 2 3 4 5 6 
#
# 1 0.029627 0.005924 -0.005217 0.000000 0.000000 0.000000
# 2 0.005924 0.014400 -0.003001 0.000000 0.000000 0.000000
# 3 -0.005217 -0.003001 0.005300 0.000000 0.000000 0.000000
# 4 0.000000 0.000000 0.000000 0.029987 0.000000 0.000000
# 5 0.000000 0.000000 0.000000 0.000000 0.037588 0.000000
# 6 0.000000 0.000000 0.000000 0.000000 0.000000 -0.070125
#
#
# Mechanical properties :
#
#
# Convention : Reuss Voigt Hill
#
# Bulk Modulus (GPa) = 22.35197 54.65050 38.50123
# Shear Modulus (GPa) = 75.43872 29.49150 52.46511
#
# Velocity S-wave (km/s) = 6.10005 3.81403 5.08711
# Velocity P-wave (km/s) = 7.78713 6.80827 7.31409
#
# Compressibility (1/GPa) = 0.04473878
#
# Stress axis : x y z
#
# Youngs Moduli (GPa) = 33.75299 69.44258 188.68200
#
# Poissons Ratio (x) = -0.41138 0.98443
# Poissons Ratio (y) = -0.19995 0.56621
# Poissons Ratio (z) = 0.17610 0.20839
#
# Static dielectric constant tensor:
#      x y z
#    x 1.788130 0.000000 0.000000 
#    y 0.000000 1.960240 0.000000 
#    z 0.000000 0.000000 1.693060 
# 
# From -- ./inp_files/22059.got.cif
#   From: 2010.05.17/outbox.ucp.g08.bks.cvg/sg72_12_cif.got.tgz:22059.got - 2010.06.11 16:33:07.
