data_PCOD9529771
_publ_section_title
;
Structure prediction by ZEFSAII (Michael W. Deem and Ramdas Pophale) SiO2 
 PCOD9529771
Probable space group: I B C A 
;
_chemical_formula_sum "Si O2"
_cell_formula_units_Z 128
_cell_length_a 24.099688
_cell_length_b 22.823093
_cell_length_c 12.706382
_cell_angle_alpha 90.000000
_cell_angle_beta 90.000000
_cell_angle_gamma 90.000000
_cell_volume 6988.883928
_symmetry_space_group_name_H-M "I B C A "
_symmetry_group_IT_number 73
_symmetry_cell_setting 'orthorhombic'
loop_
_space_group_symop_operation_xyz
x,y,z
-x,1/2-y,z
x,-y,1/2-z
1/2-x,y,-z
-x,-y,-z
x,1/2+y,-z
-x,y,1/2+z
1/2+x,-y,z
1/2+x,1/2+y,1/2+z
1/2-x,-y,1/2+z
1/2+x,1/2-y,-z
-x,1/2+y,1/2-z
1/2-x,1/2-y,1/2-z
1/2+x,y,1/2-z
1/2-x,1/2+y,z
x,1/2-y,1/2+z
loop_
_atom_site_type_symbol
_atom_site_label
_atom_site_fract_x
_atom_site_fract_y
_atom_site_fract_z
Si Si1 0.067463 0.809202 0.707003
Si Si2 0.608620 0.797929 0.022404
Si Si3 0.208680 0.377843 0.592406
Si Si4 0.245830 0.314741 0.207476
Si Si5 0.805831 0.897125 0.562294
Si Si6 0.870890 0.668211 0.906565
Si Si7 0.131277 0.562795 0.751049
Si Si8 0.940257 0.321772 0.238289
O O1 0.091485 0.820939 0.592020
O O2 0.089584 0.844061 0.808164
O O3 0.085031 0.741165 0.728523
O O4 0.001482 0.818138 0.713616
O O5 0.668674 0.824659 0.053424
O O6 0.610429 0.727239 0.032761
O O7 0.564510 0.818793 0.111107
O O8 0.250000 0.396650 0.500000
O O9 0.245062 0.355737 0.691258
O O10 0.165253 0.423838 0.641993
O O11 0.250000 0.250000 0.250000
O O12 0.290559 0.335778 0.121314
O O13 0.187786 0.320223 0.149581
O O14 0.750000 0.914880 0.500000
O O15 0.857006 0.884114 0.485603
O O16 0.824330 0.938796 0.656075
O O17 0.102003 0.500000 0.750000
O O18 0.092885 0.619773 0.731517
#
# Coordination Sequence:
#
# PCOD9529771 Si02
#       8
#    16  16  16  16  16  16  16  16
#     4  10  20  33  54  78 108 139 168 225 282 337
#     4  10  19  30  49  75 109 141 173 212 264 334
#     4  10  20  31  50  80 109 141 183 224 266 322
#     4  10  18  28  46  74 117 152 176 205 264 335
#     4   9  20  32  48  78 108 142 181 218 260 328
#     4  10  19  29  48  76 112 148 175 206 271 332
#     4  10  21  39  58  74 102 145 192 235 265 320
#     4   9  21  36  50  77 102 134 184 219 275 333
#
# _framework density 18.314798
#
# number of rings (size 3 to 8) (size 9 to 14) (size 15 to 20)
#    0.000    2.250    1.250    1.500    5.250    5.500 
#    0.000    0.000    0.000    6.750    0.000    3.500 
#    0.000    0.000    0.000    0.000    0.000    0.000 
#
# Total GULP energy -356487.769931 kJ/mol
# GULP energy per Si atom -5570.121405 kJ/mol
# Density = 1.827311 g / cm^3
# Si number density = 18.314798 Si / 1000 Ang^3
#
#
#
# Elastic Constant Matrix: (Units=GPa)
#
#
# Indices 1 2 3 4 5 6 
#
# 1 40.3437 8.6202 22.3324 0.0000 0.0000 0.0000
# 2 8.6202 51.5903 -1.6087 0.0000 0.0000 0.0000
# 3 22.3324 -1.6087 100.0373 0.0000 0.0000 0.0000
# 4 0.0000 0.0000 0.0000 3.6969 0.0000 0.0000
# 5 0.0000 0.0000 0.0000 0.0000 20.6911 0.0000
# 6 0.0000 0.0000 0.0000 0.0000 0.0000 11.7672
#
#
#
# Elastic Compliance Matrix: (Units=1/GPa)
#
#
# Indices 1 2 3 4 5 6 
#
# 1 0.029591 -0.005153 -0.006689 0.000000 0.000000 0.000000
# 2 -0.005153 0.020291 0.001477 0.000000 0.000000 0.000000
# 3 -0.006689 0.001477 0.011513 0.000000 0.000000 0.000000
# 4 0.000000 0.000000 0.000000 0.270497 0.000000 0.000000
# 5 0.000000 0.000000 0.000000 0.000000 0.048330 0.000000
# 6 0.000000 0.000000 0.000000 0.000000 0.000000 0.084982
#
#
# Mechanical properties :
#
#
# Convention : Reuss Voigt Hill
#
# Bulk Modulus (GPa) = 24.59151 27.85102 26.22127
# Shear Modulus (GPa) = 10.01027 18.07288 14.04157
#
# Velocity S-wave (km/s) = 2.34041 3.14473 2.77190
# Velocity P-wave (km/s) = 4.55628 5.33157 4.95910
#
# Compressibility (1/GPa) = 0.04066444
#
# Stress axis : x y z
#
# Youngs Moduli (GPa) = 33.79456 49.28408 86.85679
#
# Poissons Ratio (x) = 0.25395 0.58096
# Poissons Ratio (y) = 0.17414 -0.12826
# Poissons Ratio (z) = 0.22604 -0.07277
#
# Static dielectric constant tensor:
#      x y z
#    x 1.707580 0.000000 0.000000 
#    y 0.000000 1.637970 0.000000 
#    z 0.000000 0.000000 1.683710 
# 
# From -- ./inp_files/14479.got.cif
#   From: 2010.05.17/outbox.cif.g08.bks.cpg/sg73_8_cif.got.tgz:14479.got - 2010.06.03 17:35:07.
