data_PCOD9529741
_publ_section_title
;
Structure prediction by ZEFSAII (Michael W. Deem and Ramdas Pophale) SiO2 
 PCOD9529741
Probable space group: I B C A 
;
_chemical_formula_sum "Si O2"
_cell_formula_units_Z 112
_cell_length_a 25.967592
_cell_length_b 11.698832
_cell_length_c 17.019210
_cell_angle_alpha 90.000000
_cell_angle_beta 90.000000
_cell_angle_gamma 90.000000
_cell_volume 5170.274252
_symmetry_space_group_name_H-M "I B C A "
_symmetry_group_IT_number 73
_symmetry_cell_setting 'orthorhombic'
loop_
_space_group_symop_operation_xyz
x,y,z
-x,1/2-y,z
x,-y,1/2-z
1/2-x,y,-z
-x,-y,-z
x,1/2+y,-z
-x,y,1/2+z
1/2+x,-y,z
1/2+x,1/2+y,1/2+z
1/2-x,-y,1/2+z
1/2+x,1/2-y,-z
-x,1/2+y,1/2-z
1/2-x,1/2-y,1/2-z
1/2+x,y,1/2-z
1/2-x,1/2+y,z
x,1/2-y,1/2+z
loop_
_atom_site_type_symbol
_atom_site_label
_atom_site_fract_x
_atom_site_fract_y
_atom_site_fract_z
Si Si1 0.559775 0.714338 0.053535
Si Si2 0.770627 0.265979 0.840379
Si Si3 0.654474 0.975240 0.843151
Si Si4 0.142548 0.127886 0.282150
Si Si5 0.045247 0.504032 0.342624
Si Si6 0.541875 0.351065 0.616583
Si Si7 0.659861 0.737236 0.122187
O O1 0.500000 0.750000 0.049088
O O2 0.558377 0.629340 0.127570
O O3 0.612229 0.784387 0.070233
O O4 0.567561 0.660759 0.968111
O O5 0.750000 0.250000 0.750000
O O6 0.802309 0.381436 0.854610
O O7 0.812877 0.164531 0.843932
O O8 0.719093 0.270813 0.892092
O O9 0.596700 0.932355 0.863643
O O10 0.652943 0.000000 0.750000
O O11 0.662744 0.098754 0.881986
O O12 0.086171 0.139150 0.319297
O O13 0.146600 0.216452 0.209584
O O14 0.151110 0.000000 0.250000
O O15 0.036676 0.500000 0.250000
O O16 0.994252 0.462001 0.384378
O O17 0.500000 0.250000 0.632542
#
# Coordination Sequence:
#
# PCOD9529741 Si02
#       7
#    16  16  16  16  16  16  16
#     4  10  24  43  62  88 130 168 211 260 322 382
#     4  10  20  33  60  92 127 159 206 269 317 371
#     4  10  17  34  57  91 124 161 208 255 320 368
#     4  11  24  37  61 101 131 161 211 275 315 370
#     4  10  22  36  64  93 123 167 211 261 305 382
#     4  11  24  40  61  91 128 176 206 256 320 383
#     4  10  23  37  64  93 122 169 210 268 315 380
#
# _framework density 21.662293999999999
#
# number of rings (size 3 to 8) (size 9 to 14) (size 15 to 20)
#    0.000    1.714    2.857    1.714   12.000    0.000 
#    0.000    0.714    0.000    0.000    0.000    0.000 
#    0.000    0.000    0.000    0.000    0.000    0.000 
#
# Total GULP energy -312079.189400 kJ/mol
# GULP energy per Si atom -5572.842668 kJ/mol
# Density = 2.161299 g / cm^3
# Si number density = 21.662294 Si / 1000 Ang^3
#
#
#
# Elastic Constant Matrix: (Units=GPa)
#
#
# Indices 1 2 3 4 5 6 
#
# 1 189.8942 27.2638 32.2276 0.0000 0.0000 0.0000
# 2 27.2638 59.7158 7.6507 0.0000 0.0000 0.0000
# 3 32.2276 7.6507 40.1783 0.0000 0.0000 0.0000
# 4 0.0000 0.0000 0.0000 13.1193 0.0000 0.0000
# 5 0.0000 0.0000 0.0000 0.0000 -18.5649 0.0000
# 6 0.0000 0.0000 0.0000 0.0000 0.0000 -0.8342
#
#
#
# Elastic Compliance Matrix: (Units=1/GPa)
#
#
# Indices 1 2 3 4 5 6 
#
# 1 0.006395 -0.002319 -0.004688 0.000000 0.000000 0.000000
# 2 -0.002319 0.018006 -0.001569 0.000000 0.000000 0.000000
# 3 -0.004688 -0.001569 0.028948 0.000000 0.000000 0.000000
# 4 0.000000 0.000000 0.000000 0.076224 0.000000 0.000000
# 5 0.000000 0.000000 0.000000 0.000000 -0.053865 0.000000
# 6 0.000000 0.000000 0.000000 0.000000 0.000000 -1.198785
#
#
# Mechanical properties :
#
#
# Convention : Reuss Voigt Hill
#
# Bulk Modulus (GPa) = 27.62603 47.11918 37.37260
# Shear Modulus (GPa) = -4.57096 13.58712 4.50808
#
# Velocity S-wave (km/s) = -1.45419 2.50716 1.44416
# Velocity P-wave (km/s) = 3.15613 5.49364 4.48002
#
# Compressibility (1/GPa) = 0.03619775
#
# Stress axis : x y z
#
# Youngs Moduli (GPa) = 156.38240 55.53801 34.54500
#
# Poissons Ratio (x) = 0.12879 0.16193
# Poissons Ratio (y) = 0.36264 0.05419
# Poissons Ratio (z) = 0.73306 0.08712
#
# Static dielectric constant tensor:
#      x y z
#    x 1.893590 0.000000 0.000000 
#    y 0.000000 1.886790 0.000000 
#    z 0.000000 0.000000 1.758030 
# 
# From -- ./inp_files/27286.got.cif
#   From: 2010.05.17/outbox.cif.g08.bks.cpg/sg73_14_cif.got.tgz:27286.got - 2010.06.03 17:35:07.
