data_PCOD9529068
_publ_section_title
;
Structure prediction by ZEFSAII (Michael W. Deem and Ramdas Pophale) SiO2 
 PCOD9529068
Probable space group: I B A M
;
_chemical_formula_sum "Si O2"
_cell_formula_units_Z 96
_cell_length_a 12.253052
_cell_length_b 18.290694
_cell_length_c 22.655324
_cell_angle_alpha 90.000000
_cell_angle_beta 90.000000
_cell_angle_gamma 90.000000
_cell_volume 5077.439277
_symmetry_space_group_name_H-M "I B A M"
_symmetry_group_IT_number 72
_symmetry_cell_setting 'orthorhombic'
loop_
_space_group_symop_operation_xyz
x,y,z
-x,-y,z
x,-y,1/2-z
-x,y,1/2-z
-x,-y,-z
x,y,-z
-x,y,1/2+z
x,-y,1/2+z
1/2+x,1/2+y,1/2+z
1/2-x,1/2-y,1/2+z
1/2+x,1/2-y,-z
1/2-x,1/2+y,-z
1/2-x,1/2-y,1/2-z
1/2+x,1/2+y,1/2-z
1/2-x,1/2+y,z
1/2+x,1/2-y,z
loop_
_atom_site_type_symbol
_atom_site_label
_atom_site_fract_x
_atom_site_fract_y
_atom_site_fract_z
Si Si1 0.575443 0.134600 0.886431
Si Si2 0.730536 0.025285 0.932886
Si Si3 0.130797 0.415167 0.240628
Si Si4 0.130981 0.796052 0.570950
Si Si5 0.460614 0.420298 0.070990
Si Si6 0.682626 0.121771 0.364922
O O1 0.621185 0.072243 0.929291
O O2 0.638771 0.116739 0.824914
O O3 0.600967 0.214707 0.909879
O O4 0.445728 0.127299 0.879033
O O5 0.831475 0.078897 0.917331
O O6 0.722443 0.956907 0.889296
O O7 0.749724 0.998171 0.000000
O O8 0.162713 0.500000 0.250000
O O9 0.189369 0.373226 0.293970
O O10 0.000000 0.413221 0.250000
O O11 0.140991 0.799728 0.500000
O O12 0.243417 0.820111 0.601436
O O13 0.036647 0.853698 0.591123
O O14 0.500000 0.500000 0.092503
O O15 0.472493 0.419991 0.000000
#
# Coordination Sequence:
#
# PCOD9529068 Si02
#       6
#    16  16  16  16  16  16
#     4  11  24  38  59  91 123 158 201 257 315 362
#     4  11  21  35  60  91 120 158 204 251 305 363
#     4   9  18  38  63  86 114 154 203 252 306 359
#     4  11  24  39  58  90 130 167 198 246 314 373
#     4   9  18  36  57  80 117 165 205 232 283 370
#     4  11  22  39  64  87 117 156 210 258 297 366
#
# _framework density 18.907169
#
# number of rings (size 3 to 8) (size 9 to 14) (size 15 to 20)
#    0.000    1.667    3.333    1.500    2.333    4.000 
#    0.000    0.000    0.000    0.000    0.000    0.000 
#    0.000    0.000    0.000    0.000    0.000    0.000 
#
# Total GULP energy -267680.126497 kJ/mol
# GULP energy per Si atom -5576.669302 kJ/mol
# Density = 1.886414 g / cm^3
# Si number density = 18.907169 Si / 1000 Ang^3
#
#
#
# Elastic Constant Matrix: (Units=GPa)
#
#
# Indices 1 2 3 4 5 6 
#
# 1 66.9842 1.2981 30.8012 0.0000 0.0000 0.0000
# 2 1.2981 51.4522 20.3812 0.0000 0.0000 0.0000
# 3 30.8012 20.3812 102.9725 0.0000 0.0000 0.0000
# 4 0.0000 0.0000 0.0000 24.9421 0.0000 0.0000
# 5 0.0000 0.0000 0.0000 0.0000 19.9363 0.0000
# 6 0.0000 0.0000 0.0000 0.0000 0.0000 15.4759
#
#
#
# Elastic Compliance Matrix: (Units=1/GPa)
#
#
# Indices 1 2 3 4 5 6 
#
# 1 0.017456 0.001766 -0.005571 0.000000 0.000000 0.000000
# 2 0.001766 0.021268 -0.004738 0.000000 0.000000 0.000000
# 3 -0.005571 -0.004738 0.012316 0.000000 0.000000 0.000000
# 4 0.000000 0.000000 0.000000 0.040093 0.000000 0.000000
# 5 0.000000 0.000000 0.000000 0.000000 0.050160 0.000000
# 6 0.000000 0.000000 0.000000 0.000000 0.000000 0.064617
#
#
# Mechanical properties :
#
#
# Convention : Reuss Voigt Hill
#
# Bulk Modulus (GPa) = 29.45123 36.26334 32.85728
# Shear Modulus (GPa) = 21.33902 23.33274 22.33588
#
# Velocity S-wave (km/s) = 3.36314 3.51674 3.44080
# Velocity P-wave (km/s) = 5.53999 5.97589 5.76207
#
# Compressibility (1/GPa) = 0.03395444
#
# Stress axis : x y z
#
# Youngs Moduli (GPa) = 57.28531 47.01966 81.19808
#
# Poissons Ratio (x) = -0.08306 0.45237
# Poissons Ratio (y) = -0.10119 0.38471
# Poissons Ratio (z) = 0.31915 0.22277
#
# Static dielectric constant tensor:
#      x y z
#    x 1.679560 0.000000 0.000000 
#    y 0.000000 1.644470 0.000000 
#    z 0.000000 0.000000 1.679530 
# 
# From -- ./inp_files/43373.got.cif
#   From: 2010.05.17/outbox.cif.g08.bks.cpg/sg72_22_cif.got.tgz:43373.got - 2010.06.03 17:03:01.
