data_PCOD9529639
_publ_section_title
;
Structure prediction by ZEFSAII (Michael W. Deem and Ramdas Pophale) SiO2 
 PCOD9529639
Probable space group: I B C A 
;
_chemical_formula_sum "Si O2"
_cell_formula_units_Z 64
_cell_length_a 5.389762
_cell_length_b 17.070520
_cell_length_c 28.610693
_cell_angle_alpha 90.000000
_cell_angle_beta 90.000000
_cell_angle_gamma 90.000000
_cell_volume 2632.356565
_symmetry_space_group_name_H-M "I B C A "
_symmetry_group_IT_number 73
_symmetry_cell_setting 'orthorhombic'
loop_
_space_group_symop_operation_xyz
x,y,z
-x,1/2-y,z
x,-y,1/2-z
1/2-x,y,-z
-x,-y,-z
x,1/2+y,-z
-x,y,1/2+z
1/2+x,-y,z
1/2+x,1/2+y,1/2+z
1/2-x,-y,1/2+z
1/2+x,1/2-y,-z
-x,1/2+y,1/2-z
1/2-x,1/2-y,1/2-z
1/2+x,y,1/2-z
1/2-x,1/2+y,z
x,1/2-y,1/2+z
loop_
_atom_site_type_symbol
_atom_site_label
_atom_site_fract_x
_atom_site_fract_y
_atom_site_fract_z
Si Si1 0.765993 0.957196 0.135381
Si Si2 0.751281 0.789595 0.444456
Si Si3 0.605772 0.407781 0.768558
Si Si4 0.936267 0.927183 0.965596
O O1 0.682426 0.901583 0.177343
O O2 0.721248 0.938495 0.081386
O O3 0.055048 0.975553 0.142711
O O4 0.500000 0.750000 0.425305
O O5 0.750000 0.777055 0.500000
O O6 0.000000 0.750000 0.424167
O O7 0.820713 0.882376 0.445704
O O8 0.586013 0.500000 0.750000
O O9 0.335381 0.373831 0.760075
O O10 0.750000 0.879995 0.000000
O O11 0.000000 0.000000 0.000000
#
# Coordination Sequence:
#
# PCOD9529639 Si02
#       4
#    16  16  16  16
#     4  12  22  33  50  84 121 165 202 248 320 394
#     4  10  22  41  60  77 107 161 218 256 298 366
#     4  10  16  30  50  69 107 164 201 241 299 389
#     4  12  24  38  62  93 135 168 211 267 330 381
#
# _framework density 24.312816000000002
#
# number of rings (size 3 to 8) (size 9 to 14) (size 15 to 20)
#    0.000    1.000    7.500    3.000    0.000    2.000 
#    0.000    0.000    0.000    0.000    0.000    0.000 
#    0.000    6.000    0.000    0.500    0.000   27.750 
#
# Total GULP energy -178170.639417 kJ/mol
# GULP energy per Si atom -5567.832482 kJ/mol
# Density = 2.425748 g / cm^3
# Si number density = 24.312816 Si / 1000 Ang^3
#
#
#
# Elastic Constant Matrix: (Units=GPa)
#
#
# Indices 1 2 3 4 5 6 
#
# 1 158.1273 21.2766 -9.8089 0.0000 0.0000 0.0000
# 2 21.2766 52.3639 4.6530 0.0000 0.0000 0.0000
# 3 -9.8089 4.6530 118.6746 0.0000 0.0000 0.0000
# 4 0.0000 0.0000 0.0000 -3.7685 0.0000 0.0000
# 5 0.0000 0.0000 0.0000 0.0000 40.7330 0.0000
# 6 0.0000 0.0000 0.0000 0.0000 0.0000 -96.2372
#
#
#
# Elastic Compliance Matrix: (Units=1/GPa)
#
#
# Indices 1 2 3 4 5 6 
#
# 1 0.006742 -0.002799 0.000667 0.000000 0.000000 0.000000
# 2 -0.002799 0.020326 -0.001028 0.000000 0.000000 0.000000
# 3 0.000667 -0.001028 0.008522 0.000000 0.000000 0.000000
# 4 0.000000 0.000000 0.000000 -0.265359 0.000000 0.000000
# 5 0.000000 0.000000 0.000000 0.000000 0.024550 0.000000
# 6 0.000000 0.000000 0.000000 0.000000 0.000000 -0.010391
#
#
# Mechanical properties :
#
#
# Convention : Reuss Voigt Hill
#
# Bulk Modulus (GPa) = 34.16519 40.15637 37.16078
# Shear Modulus (GPa) = -25.05845 9.01512 -8.02166
#
# Velocity S-wave (km/s) = -3.21389 1.92770 -1.81838
# Velocity P-wave (km/s) = 0.55746 4.63757 3.30287
#
# Compressibility (1/GPa) = 0.02926956
#
# Stress axis : x y z
#
# Youngs Moduli (GPa) = 148.32475 49.19892 117.34541
#
# Poissons Ratio (x) = 0.13769 -0.07827
# Poissons Ratio (y) = 0.41511 0.12066
# Poissons Ratio (z) = -0.09893 0.05059
#
# Static dielectric constant tensor:
#      x y z
#    x 2.162560 0.000000 0.000000 
#    y 0.000000 2.146540 0.000000 
#    z 0.000000 0.000000 1.903050 
# 
# From -- ./inp_files/33209.got.cif
#   From: 2010.05.17/outbox.cif.g08.bks.cpg/sg73_17_cif.got.tgz:33209.got - 2010.06.03 17:35:07.
