data_PCOD9529170
_publ_section_title
;
Structure prediction by ZEFSAII (Michael W. Deem and Ramdas Pophale) SiO2 
 PCOD9529170
Probable space group: I B A M
;
_chemical_formula_sum "Si O2"
_cell_formula_units_Z 64
_cell_length_a 9.471003
_cell_length_b 11.476589
_cell_length_c 24.629731
_cell_angle_alpha 90.000000
_cell_angle_beta 90.000000
_cell_angle_gamma 90.000000
_cell_volume 2677.123903
_symmetry_space_group_name_H-M "I B A M"
_symmetry_group_IT_number 72
_symmetry_cell_setting 'orthorhombic'
loop_
_space_group_symop_operation_xyz
x,y,z
-x,-y,z
x,-y,1/2-z
-x,y,1/2-z
-x,-y,-z
x,y,-z
-x,y,1/2+z
x,-y,1/2+z
1/2+x,1/2+y,1/2+z
1/2-x,1/2-y,1/2+z
1/2+x,1/2-y,-z
1/2-x,1/2+y,-z
1/2-x,1/2-y,1/2-z
1/2+x,1/2+y,1/2-z
1/2-x,1/2+y,z
1/2+x,1/2-y,z
loop_
_atom_site_type_symbol
_atom_site_label
_atom_site_fract_x
_atom_site_fract_y
_atom_site_fract_z
Si Si1 0.307535 0.897350 0.500000
Si Si2 0.500000 0.297218 0.750000
Si Si3 0.141481 0.420303 0.798307
Si Si4 0.030357 0.166148 0.500000
Si Si5 0.220635 0.955000 0.907232
Si Si6 0.000000 0.000000 0.331127
O O1 0.423726 0.798860 0.500000
O O2 0.139366 0.854549 0.500000
O O3 0.320404 0.975206 0.553128
O O4 0.387701 0.205205 0.727606
O O5 0.456151 0.387366 0.796878
O O6 0.214428 0.500000 0.750000
O O7 0.197522 0.392718 0.858781
O O8 0.000000 0.500000 0.807282
O O9 0.112101 0.112298 0.552684
O O10 0.126062 0.039711 0.869936
#
# Coordination Sequence:
#
# PCOD9529170 Si02
#       6
#     8   8  16   8  16   8
#     4  11  25  47  66 104 132 180 240 293 355 415
#     4   9  23  40  60 102 135 175 226 274 348 419
#     4   9  22  44  64  97 142 178 229 288 349 421
#     4  11  25  45  70  96 140 181 237 299 353 418
#     4  11  23  42  68  93 136 179 230 285 350 417
#     4  11  22  39  64  96 138 175 223 278 344 428
#
# _framework density 23.906251999999999
#
# number of rings (size 3 to 8) (size 9 to 14) (size 15 to 20)
#    0.000    2.000    2.500    0.750    7.000    7.000 
#    0.000    2.500    0.000    0.000    0.000    0.000 
#    0.000    0.000    0.000    0.000    0.000    0.000 
#
# Total GULP energy -178322.157368 kJ/mol
# GULP energy per Si atom -5572.567418 kJ/mol
# Density = 2.385184 g / cm^3
# Si number density = 23.906252 Si / 1000 Ang^3
#
#
#
# Elastic Constant Matrix: (Units=GPa)
#
#
# Indices 1 2 3 4 5 6 
#
# 1 52.7225 17.2483 32.7095 0.0000 0.0000 0.0000
# 2 17.2483 128.2854 64.8676 0.0000 0.0000 0.0000
# 3 32.7095 64.8676 194.7535 0.0000 0.0000 0.0000
# 4 0.0000 0.0000 0.0000 12.6633 0.0000 0.0000
# 5 0.0000 0.0000 0.0000 0.0000 37.4290 0.0000
# 6 0.0000 0.0000 0.0000 0.0000 0.0000 19.4924
#
#
#
# Elastic Compliance Matrix: (Units=1/GPa)
#
#
# Indices 1 2 3 4 5 6 
#
# 1 0.021345 -0.001271 -0.003161 0.000000 0.000000 0.000000
# 2 -0.001271 0.009450 -0.002934 0.000000 0.000000 0.000000
# 3 -0.003161 -0.002934 0.006643 0.000000 0.000000 0.000000
# 4 0.000000 0.000000 0.000000 0.078968 0.000000 0.000000
# 5 0.000000 0.000000 0.000000 0.000000 0.026717 0.000000
# 6 0.000000 0.000000 0.000000 0.000000 0.000000 0.051302
#
#
# Mechanical properties :
#
#
# Convention : Reuss Voigt Hill
#
# Bulk Modulus (GPa) = 44.04558 67.26803 55.65681
# Shear Modulus (GPa) = 23.07065 31.31268 27.19167
#
# Velocity S-wave (km/s) = 3.10989 3.62306 3.37624
# Velocity P-wave (km/s) = 5.59996 6.76028 6.20729
#
# Compressibility (1/GPa) = 0.02270375
#
# Stress axis : x y z
#
# Youngs Moduli (GPa) = 46.85047 105.82486 150.53690
#
# Poissons Ratio (x) = 0.13453 0.47592
# Poissons Ratio (y) = 0.05956 0.44166
# Poissons Ratio (z) = 0.14812 0.31048
#
# Static dielectric constant tensor:
#      x y z
#    x 2.167020 0.000000 0.000000 
#    y 0.000000 1.872850 0.000000 
#    z 0.000000 0.000000 1.903410 
# 
# From -- ./inp_files/42987.got.cif
#   From: 2010.05.17/outbox.cif.g08.bks.cpg/sg72_22_cif.got.tgz:42987.got - 2010.06.03 17:03:01.
