data_PCOD9529667
_publ_section_title
;
Structure prediction by ZEFSAII (Michael W. Deem and Ramdas Pophale) SiO2 
 PCOD9529667
Probable space group: I B C A 
;
_chemical_formula_sum "Si O2"
_cell_formula_units_Z 64
_cell_length_a 28.902930
_cell_length_b 5.229194
_cell_length_c 22.877281
_cell_angle_alpha 90.000000
_cell_angle_beta 90.000000
_cell_angle_gamma 90.000000
_cell_volume 3457.650017
_symmetry_space_group_name_H-M "I B C A "
_symmetry_group_IT_number 73
_symmetry_cell_setting 'orthorhombic'
loop_
_space_group_symop_operation_xyz
x,y,z
-x,1/2-y,z
x,-y,1/2-z
1/2-x,y,-z
-x,-y,-z
x,1/2+y,-z
-x,y,1/2+z
1/2+x,-y,z
1/2+x,1/2+y,1/2+z
1/2-x,-y,1/2+z
1/2+x,1/2-y,-z
-x,1/2+y,1/2-z
1/2-x,1/2-y,1/2-z
1/2+x,y,1/2-z
1/2-x,1/2+y,z
x,1/2-y,1/2+z
loop_
_atom_site_type_symbol
_atom_site_label
_atom_site_fract_x
_atom_site_fract_y
_atom_site_fract_z
Si Si1 0.950908 0.097202 0.377321
Si Si2 0.124681 0.682622 0.539196
Si Si3 0.000000 0.250000 0.042069
Si Si4 0.032090 0.000000 0.750000
Si Si5 0.730338 0.218340 0.566507
O O1 0.912701 0.259005 0.411208
O O2 0.940233 0.043368 0.309842
O O3 0.000000 0.250000 0.378068
O O4 0.959592 0.834632 0.413225
O O5 0.119085 0.409430 0.508473
O O6 0.176917 0.709032 0.562652
O O7 0.000000 0.500000 0.000000
O O8 0.000000 0.750000 0.759374
O O9 0.750000 0.185030 0.500000
O O10 0.759934 0.444818 0.594405
#
# Coordination Sequence:
#
# PCOD9529667 Si02
#       5
#    16  16   8   8  16
#     4  11  25  40  56  81 112 154 192 235 271 327
#     4  12  23  32  54  83 114 144 177 223 287 339
#     4  12  22  36  52  78 116 144 168 218 284 340
#     4  10  22  42  62  72 100 156 208 232 264 314
#     4  10  16  33  50  72 107 142 178 214 262 345
#
# _framework density 18.509682000000002
#
# number of rings (size 3 to 8) (size 9 to 14) (size 15 to 20)
#    0.000    1.000    7.500    1.500    3.500    0.000 
#    0.000    0.000    0.000    0.000    0.000    1.750 
#    0.000    0.000    0.000    0.000    0.000    0.000 
#
# Total GULP energy -178561.009635 kJ/mol
# GULP energy per Si atom -5580.031551 kJ/mol
# Density = 1.846755 g / cm^3
# Si number density = 18.509682 Si / 1000 Ang^3
#
#
#
# Elastic Constant Matrix: (Units=GPa)
#
#
# Indices 1 2 3 4 5 6 
#
# 1 81.8612 -7.9100 24.6522 0.0000 0.0000 0.0000
# 2 -7.9100 111.2177 12.2173 0.0000 0.0000 0.0000
# 3 24.6522 12.2173 94.6583 0.0000 0.0000 0.0000
# 4 0.0000 0.0000 0.0000 -14.5639 0.0000 0.0000
# 5 0.0000 0.0000 0.0000 0.0000 5.3585 0.0000
# 6 0.0000 0.0000 0.0000 0.0000 0.0000 26.6592
#
#
#
# Elastic Compliance Matrix: (Units=1/GPa)
#
#
# Indices 1 2 3 4 5 6 
#
# 1 0.013456 0.001361 -0.003680 0.000000 0.000000 0.000000
# 2 0.001361 0.009258 -0.001549 0.000000 0.000000 0.000000
# 3 -0.003680 -0.001549 0.011723 0.000000 0.000000 0.000000
# 4 0.000000 0.000000 0.000000 -0.068663 0.000000 0.000000
# 5 0.000000 0.000000 0.000000 0.000000 0.186619 0.000000
# 6 0.000000 0.000000 0.000000 0.000000 0.000000 0.037511
#
#
# Mechanical properties :
#
#
# Convention : Reuss Voigt Hill
#
# Bulk Modulus (GPa) = 37.45287 38.40623 37.92955
# Shear Modulus (GPa) = 24.20843 20.74260 22.47552
#
# Velocity S-wave (km/s) = 3.62038 3.35122 3.48840
# Velocity P-wave (km/s) = 6.14446 5.98068 6.06312
#
# Compressibility (1/GPa) = 0.02670022
#
# Stress axis : x y z
#
# Youngs Moduli (GPa) = 74.31881 108.01003 85.30464
#
# Poissons Ratio (x) = -0.14703 0.31392
# Poissons Ratio (y) = -0.10116 0.13218
# Poissons Ratio (z) = 0.27349 0.16736
#
# Static dielectric constant tensor:
#      x y z
#    x 1.660440 0.000000 0.000000 
#    y 0.000000 1.754590 0.000000 
#    z 0.000000 0.000000 1.684620 
# 
# From -- ./inp_files/28035.got.cif
#   From: 2010.05.17/outbox.cif.g08.bks.cpg/sg73_15_cif.got.tgz:28035.got - 2010.06.03 17:35:07.
