data_PCOD9529585
_publ_section_title
;
Structure prediction by ZEFSAII (Michael W. Deem and Ramdas Pophale) SiO2 
 PCOD9529585
Probable space group: I B A M
;
_chemical_formula_sum "Si O2"
_cell_formula_units_Z 44
_cell_length_a 12.000000
_cell_length_b 12.000000
_cell_length_c 30.000000
_cell_angle_alpha 90.000000
_cell_angle_beta 90.000000
_cell_angle_gamma 90.000000
_cell_volume 4320.000000
_symmetry_space_group_name_H-M "I B A M"
_symmetry_group_IT_number 72
_symmetry_cell_setting 'orthorhombic'
loop_
_space_group_symop_operation_xyz
x,y,z
-x,-y,z
x,-y,1/2-z
-x,y,1/2-z
-x,-y,-z
x,y,-z
-x,y,1/2+z
x,-y,1/2+z
1/2+x,1/2+y,1/2+z
1/2-x,1/2-y,1/2+z
1/2+x,1/2-y,-z
1/2-x,1/2+y,-z
1/2-x,1/2-y,1/2-z
1/2+x,1/2+y,1/2-z
1/2-x,1/2+y,z
1/2+x,1/2-y,z
loop_
_atom_site_type_symbol
_atom_site_label
_atom_site_fract_x
_atom_site_fract_y
_atom_site_fract_z
Si Si1 0.106596 0.317371 0.660144
Si Si2 0.000000 0.753237 0.750000
Si Si3 0.836752 0.477231 0.921039
Si Si4 0.113014 0.059064 0.629238
Si Si5 0.310592 0.416248 0.287042
Si Si6 0.900987 0.647513 0.000000
Si Si7 0.828306 0.695256 0.500000
O O1 0.024090 0.314027 0.703656
O O2 0.100917 0.413112 0.620986
O O3 0.101336 0.192649 0.638229
O O4 0.223665 0.342726 0.684891
O O5 0.896661 0.834542 0.762121
O O6 0.723481 0.531679 0.900200
O O7 0.893817 0.570159 0.954511
O O8 0.809090 0.377939 0.955654
O O9 0.131367 0.996311 0.676533
O O10 0.000000 0.000000 0.610439
O O11 0.259164 0.500000 0.250000
O O12 0.028487 0.707144 0.000000
O O13 0.779282 0.715976 0.000000
#
# Coordination Sequence:
#
# PCOD9529585 Si02
#       7
#    16   8  16  16  16   8   8
#     4  11  24  39  64 104 136 193 242 303 370 435
#     4  12  21  40  63  94 132 194 249 296 367 416
#     4  10  24  44  70 109 149 184 235 308 375 452
#     4  11  21  40  67 102 143 189 251 300 361 442
#     4  11  21  39  62  89 136 184 248 308 362 423
#     4  11  25  53  80 110 149 190 238 307 382 459
#     4  11  25  51  80 108 142 192 236 301 394 457
#
# _framework density 10.185185000000001
#
# number of rings (size 3 to 8) (size 9 to 14) (size 15 to 20)
#    0.000    1.091    3.636    3.000    0.000    2.909 
#    6.545    2.273    0.000    0.000    0.000    0.000 
#    0.000    0.000    0.000    0.000    0.000    0.000 
#
# Total GULP energy -245308.672943 kJ/mol
# GULP energy per Si atom -5575.197112 kJ/mol
# Density = 1.016200 g / cm^3
# Si number density = 10.185185 Si / 1000 Ang^3
#
#
#
# Elastic Constant Matrix: (Units=GPa)
#
#
# Indices 1 2 3 4 5 6 
#
# 1 106.1150 51.0480 32.7944 0.0000 0.0000 0.0000
# 2 51.0480 96.1291 31.1628 0.0000 0.0000 0.0000
# 3 32.7944 31.1628 140.4398 0.0000 0.0000 0.0000
# 4 0.0000 0.0000 0.0000 40.4327 0.0000 0.0000
# 5 0.0000 0.0000 0.0000 0.0000 43.6041 0.0000
# 6 0.0000 0.0000 0.0000 0.0000 0.0000 37.5226
#
#
#
# Elastic Compliance Matrix: (Units=1/GPa)
#
#
# Indices 1 2 3 4 5 6 
#
# 1 0.012990 -0.006373 -0.001619 0.000000 0.000000 0.000000
# 2 -0.006373 0.014336 -0.001693 0.000000 0.000000 0.000000
# 3 -0.001619 -0.001693 0.007874 0.000000 0.000000 0.000000
# 4 0.000000 0.000000 0.000000 0.024732 0.000000 0.000000
# 5 0.000000 0.000000 0.000000 0.000000 0.022934 0.000000
# 6 0.000000 0.000000 0.000000 0.000000 0.000000 0.026651
#
#
# Mechanical properties :
#
#
# Convention : Reuss Voigt Hill
#
# Bulk Modulus (GPa) = 63.17255 63.63272 63.40263
# Shear Modulus (GPa) = 37.26780 39.49043 38.37912
#
# Velocity S-wave (km/s) = 4.28192 4.40775 4.34529
# Velocity P-wave (km/s) = 7.45156 7.56374 7.50786
#
# Compressibility (1/GPa) = 0.01582966
#
# Stress axis : x y z
#
# Youngs Moduli (GPa) = 76.98166 69.75490 126.99694
#
# Poissons Ratio (x) = 0.44457 0.20563
# Poissons Ratio (y) = 0.49063 0.21498
# Poissons Ratio (z) = 0.12464 0.11808
#
# Static dielectric constant tensor:
#      x y z
#    x 1.789200 0.000000 0.000000 
#    y 0.000000 1.739260 0.000000 
#    z 0.000000 0.000000 1.732280 
# 
# From -- ./inp_files/51322.got.cif
#   From: 2010.05.17/outbox.ucp.g08.bks.cvg/sg72_26_cif.got.tgz:51322.got - 2010.06.11 16:33:07.
