data_PCOD9529710
_publ_section_title
;
Structure prediction by ZEFSAII (Michael W. Deem and Ramdas Pophale) SiO2 
 PCOD9529710
Probable space group: I B C A 
;
_chemical_formula_sum "Si O2"
_cell_formula_units_Z 80
_cell_length_a 28.445276
_cell_length_b 14.236877
_cell_length_c 8.167940
_cell_angle_alpha 90.000000
_cell_angle_beta 90.000000
_cell_angle_gamma 90.000000
_cell_volume 3307.786145
_symmetry_space_group_name_H-M "I B C A "
_symmetry_group_IT_number 73
_symmetry_cell_setting 'orthorhombic'
loop_
_space_group_symop_operation_xyz
x,y,z
-x,1/2-y,z
x,-y,1/2-z
1/2-x,y,-z
-x,-y,-z
x,1/2+y,-z
-x,y,1/2+z
1/2+x,-y,z
1/2+x,1/2+y,1/2+z
1/2-x,-y,1/2+z
1/2+x,1/2-y,-z
-x,1/2+y,1/2-z
1/2-x,1/2-y,1/2-z
1/2+x,y,1/2-z
1/2-x,1/2+y,z
x,1/2-y,1/2+z
loop_
_atom_site_type_symbol
_atom_site_label
_atom_site_fract_x
_atom_site_fract_y
_atom_site_fract_z
Si Si1 0.647931 0.206026 0.443792
Si Si2 0.539813 0.624409 0.997805
Si Si3 0.250000 0.860013 0.500000
Si Si4 0.285146 0.000000 0.750000
Si Si5 0.943589 0.838095 0.122180
Si Si6 0.864637 0.105583 0.905020
O O1 0.701122 0.194377 0.503508
O O2 0.608989 0.152579 0.553434
O O3 0.640844 0.164812 0.263124
O O4 0.639580 0.317400 0.452955
O O5 0.548747 0.637221 0.189684
O O6 0.547075 0.726784 0.910570
O O7 0.484937 0.604714 0.969428
O O8 0.582922 0.564830 0.923046
O O9 0.254280 0.921512 0.664672
O O10 0.321250 0.965001 0.891368
#
# Coordination Sequence:
#
# PCOD9529710 Si02
#       6
#    16  16   8   8  16  16
#     4  10  20  35  56  83 111 145 195 237 272 327
#     4  10  17  28  51  80 114 144 176 227 282 330
#     4  10  24  40  58  82 110 150 192 236 282 330
#     4  10  24  40  58  80 114 152 184 232 290 342
#     4  10  17  28  50  83 113 142 182 231 276 324
#     4  10  20  36  57  84 114 146 185 232 282 335
#
# _framework density 24.185359999999999
#
# number of rings (size 3 to 8) (size 9 to 14) (size 15 to 20)
#    0.000    2.000    0.000    8.400    0.000    7.200 
#    0.000    0.000    0.000   12.000    0.000    0.000 
#    0.000    0.000    0.000    0.000    0.000    0.000 
#
# Total GULP energy -223525.241159 kJ/mol
# GULP energy per Si atom -5588.131029 kJ/mol
# Density = 2.413031 g / cm^3
# Si number density = 24.185360 Si / 1000 Ang^3
#
#
#
# Elastic Constant Matrix: (Units=GPa)
#
#
# Indices 1 2 3 4 5 6 
#
# 1 187.6502 16.4782 16.4638 0.0000 0.0000 0.0000
# 2 16.4782 34.2549 -5.6130 0.0000 0.0000 0.0000
# 3 16.4638 -5.6130 69.4879 0.0000 0.0000 0.0000
# 4 0.0000 0.0000 0.0000 24.2962 0.0000 0.0000
# 5 0.0000 0.0000 0.0000 0.0000 37.2309 0.0000
# 6 0.0000 0.0000 0.0000 0.0000 0.0000 17.1087
#
#
#
# Elastic Compliance Matrix: (Units=1/GPa)
#
#
# Indices 1 2 3 4 5 6 
#
# 1 0.005735 -0.003021 -0.001603 0.000000 0.000000 0.000000
# 2 -0.003021 0.031176 0.003234 0.000000 0.000000 0.000000
# 3 -0.001603 0.003234 0.015032 0.000000 0.000000 0.000000
# 4 0.000000 0.000000 0.000000 0.041159 0.000000 0.000000
# 5 0.000000 0.000000 0.000000 0.000000 0.026859 0.000000
# 6 0.000000 0.000000 0.000000 0.000000 0.000000 0.058450
#
#
# Mechanical properties :
#
#
# Convention : Reuss Voigt Hill
#
# Bulk Modulus (GPa) = 20.34044 38.45010 29.39527
# Shear Modulus (GPa) = 25.30631 33.33143 29.31887
#
# Velocity S-wave (km/s) = 3.23824 3.71639 3.48553
# Velocity P-wave (km/s) = 4.73393 5.86072 5.32720
#
# Compressibility (1/GPa) = 0.04916314
#
# Stress axis : x y z
#
# Youngs Moduli (GPa) = 174.36740 32.07561 66.52468
#
# Poissons Ratio (x) = 0.09692 0.10663
# Poissons Ratio (y) = 0.52684 -0.21515
# Poissons Ratio (z) = 0.27949 -0.10374
#
# Static dielectric constant tensor:
#      x y z
#    x 1.978670 0.000000 0.000000 
#    y 0.000000 2.029920 0.000000 
#    z 0.000000 0.000000 1.890890 
# 
# From -- ./inp_files/7756.got.cif
#   From: 2010.05.17/outbox.cif.g08.bks.cpg/sg73_4_cif.got.tgz:7756.got - 2010.06.03 17:35:07.
