data_PCOD9529573
_publ_section_title
;
Structure prediction by ZEFSAII (Michael W. Deem and Ramdas Pophale) SiO2 
 PCOD9529573
Probable space group: I B A M
;
_chemical_formula_sum "Si O2"
_cell_formula_units_Z 44
_cell_length_a 24.000000
_cell_length_b 12.000000
_cell_length_c 15.000000
_cell_angle_alpha 90.000000
_cell_angle_beta 90.000000
_cell_angle_gamma 90.000000
_cell_volume 4320.000000
_symmetry_space_group_name_H-M "I B A M"
_symmetry_group_IT_number 72
_symmetry_cell_setting 'orthorhombic'
loop_
_space_group_symop_operation_xyz
x,y,z
-x,-y,z
x,-y,1/2-z
-x,y,1/2-z
-x,-y,-z
x,y,-z
-x,y,1/2+z
x,-y,1/2+z
1/2+x,1/2+y,1/2+z
1/2-x,1/2-y,1/2+z
1/2+x,1/2-y,-z
1/2-x,1/2+y,-z
1/2-x,1/2-y,1/2-z
1/2+x,1/2+y,1/2-z
1/2-x,1/2+y,z
1/2+x,1/2-y,z
loop_
_atom_site_type_symbol
_atom_site_label
_atom_site_fract_x
_atom_site_fract_y
_atom_site_fract_z
Si Si1 0.045664 0.100020 0.000000
Si Si2 0.351049 0.983603 0.350307
Si Si3 0.641728 0.723449 0.158258
Si Si4 0.562515 0.725286 0.000000
Si Si5 0.774943 0.035532 0.106485
Si Si6 0.933823 0.510969 0.500000
Si Si7 0.878000 0.094546 0.677124
O O1 0.083498 0.098188 0.089343
O O2 0.000000 0.000000 0.000000
O O3 0.003052 0.203222 0.000000
O O4 0.345650 0.850674 0.362831
O O5 0.398381 0.030537 0.415556
O O6 0.369360 0.000000 0.250000
O O7 0.289226 0.030928 0.365332
O O8 0.594200 0.681793 0.088453
O O9 0.695537 0.648330 0.139242
O O10 0.623654 0.703777 0.260553
O O11 0.572195 0.856024 0.000000
O O12 0.815381 0.940010 0.146931
O O13 0.777756 0.028783 0.000000
O O14 0.000000 0.500000 0.500000
O O15 0.895781 0.000000 0.750000
#
# Coordination Sequence:
#
# PCOD9529573 Si02
#       7
#     8  16  16   8  16   8  16
#     4  12  22  35  57  90 125 160 212 259 301 364
#     4  11  24  42  67  93 120 161 206 246 307 371
#     4  10  22  42  61  87 126 164 199 252 310 371
#     4  10  22  39  63  83 118 168 209 248 308 359
#     4  11  20  38  65  92 123 160 198 245 311 373
#     4  10  24  46  64  87 119 158 208 261 299 345
#     4  10  22  36  58  90 128 163 200 252 311 367
#
# _framework density 10.185185000000001
#
# number of rings (size 3 to 8) (size 9 to 14) (size 15 to 20)
#    0.000    1.455    2.727    3.818    0.000    7.273 
#    0.000    3.636    0.000    0.000    0.000    0.000 
#    0.000    0.000    0.000    0.000    0.000    0.000 
#
# Total GULP energy -245571.752238 kJ/mol
# GULP energy per Si atom -5581.176187 kJ/mol
# Density = 1.016200 g / cm^3
# Si number density = 10.185185 Si / 1000 Ang^3
#
#
#
# Elastic Constant Matrix: (Units=GPa)
#
#
# Indices 1 2 3 4 5 6 
#
# 1 165.7155 7.8083 81.5567 0.0000 0.0000 0.0000
# 2 7.8083 17.0882 0.3211 0.0000 0.0000 0.0000
# 3 81.5567 0.3211 183.6416 0.0000 0.0000 0.0000
# 4 0.0000 0.0000 0.0000 22.3011 0.0000 0.0000
# 5 0.0000 0.0000 0.0000 0.0000 17.1421 0.0000
# 6 0.0000 0.0000 0.0000 0.0000 0.0000 27.1842
#
#
#
# Elastic Compliance Matrix: (Units=1/GPa)
#
#
# Indices 1 2 3 4 5 6 
#
# 1 0.007933 -0.003559 -0.003517 0.000000 0.000000 0.000000
# 2 -0.003559 0.060118 0.001475 0.000000 0.000000 0.000000
# 3 -0.003517 0.001475 0.007005 0.000000 0.000000 0.000000
# 4 0.000000 0.000000 0.000000 0.044841 0.000000 0.000000
# 5 0.000000 0.000000 0.000000 0.000000 0.058336 0.000000
# 6 0.000000 0.000000 0.000000 0.000000 0.000000 0.036786
#
#
# Mechanical properties :
#
#
# Convention : Reuss Voigt Hill
#
# Bulk Modulus (GPa) = 15.66037 60.64637 38.15337
# Shear Modulus (GPa) = 20.20167 31.77613 25.98890
#
# Velocity S-wave (km/s) = 3.15257 3.95387 3.57574
# Velocity P-wave (km/s) = 4.57779 7.11903 5.98484
#
# Compressibility (1/GPa) = 0.06385544
#
# Stress axis : x y z
#
# Youngs Moduli (GPa) = 126.05672 16.63385 142.76187
#
# Poissons Ratio (x) = 0.05920 0.50207
# Poissons Ratio (y) = 0.44861 -0.21063
# Poissons Ratio (z) = 0.44332 -0.02454
#
# Static dielectric constant tensor:
#      x y z
#    x 1.705170 0.000000 0.000000 
#    y 0.000000 1.822220 0.000000 
#    z 0.000000 0.000000 1.756890 
# 
# From -- ./inp_files/21750.got.cif
#   From: 2010.05.17/outbox.ucp.g08.bks.cvg/sg72_11_cif.got.tgz:21750.got - 2010.06.11 16:33:07.
