data_PCOD9529813
_publ_section_title
;
Structure prediction by ZEFSAII (Michael W. Deem and Ramdas Pophale) SiO2 
 PCOD9529813
Probable space group: I B C A 
;
_chemical_formula_sum "Si O2"
_cell_formula_units_Z 96
_cell_length_a 28.679618
_cell_length_b 18.612056
_cell_length_c 8.117763
_cell_angle_alpha 90.000000
_cell_angle_beta 90.000000
_cell_angle_gamma 90.000000
_cell_volume 4333.153568
_symmetry_space_group_name_H-M "I B C A "
_symmetry_group_IT_number 73
_symmetry_cell_setting 'orthorhombic'
loop_
_space_group_symop_operation_xyz
x,y,z
-x,1/2-y,z
x,-y,1/2-z
1/2-x,y,-z
-x,-y,-z
x,1/2+y,-z
-x,y,1/2+z
1/2+x,-y,z
1/2+x,1/2+y,1/2+z
1/2-x,-y,1/2+z
1/2+x,1/2-y,-z
-x,1/2+y,1/2-z
1/2-x,1/2-y,1/2-z
1/2+x,y,1/2-z
1/2-x,1/2+y,z
x,1/2-y,1/2+z
loop_
_atom_site_type_symbol
_atom_site_label
_atom_site_fract_x
_atom_site_fract_y
_atom_site_fract_z
Si Si1 0.478844 0.578039 0.153981
Si Si2 0.333632 0.664150 0.442659
Si Si3 0.102379 0.024254 0.939644
Si Si4 0.284152 0.793124 0.629267
Si Si5 0.802654 0.004899 0.947550
Si Si6 0.932047 0.121878 0.955818
O O1 0.484895 0.500000 0.250000
O O2 0.457793 0.632648 0.284894
O O3 0.441001 0.571164 0.005708
O O4 0.527831 0.606828 0.087950
O O5 0.310367 0.731606 0.529026
O O6 0.319742 0.665982 0.249176
O O7 0.313426 0.587663 0.504415
O O8 0.388534 0.672689 0.480515
O O9 0.097858 0.000000 0.750000
O O10 0.156156 0.044083 0.972714
O O11 0.094795 0.954501 0.055132
O O12 0.250000 0.833045 0.500000
O O13 0.250000 0.750000 0.750000
O O14 0.806138 0.000000 0.750000
O O15 0.750000 0.989588 0.000000
#
# Coordination Sequence:
#
# PCOD9529813 Si02
#       6
#    16  16  16  16  16  16
#     4  10  18  32  53  80 113 158 202 233 282 354
#     4  10  21  38  60  87 114 150 199 248 297 346
#     4  10  18  31  50  75 110 155 199 233 275 346
#     4   9  18  37  63  83 105 145 197 246 282 337
#     4  11  22  36  53  84 128 161 187 236 306 372
#     4  10  19  32  53  79 110 141 190 251 289 336
#
# _framework density 22.154765999999999
#
# number of rings (size 3 to 8) (size 9 to 14) (size 15 to 20)
#    0.000    2.000    0.000    8.000    0.000    0.667 
#    0.000   18.333    0.000    3.000    0.000    0.000 
#    0.000    0.000    0.000    0.000    0.000    0.000 
#
# Total GULP energy -267553.069481 kJ/mol
# GULP energy per Si atom -5574.022281 kJ/mol
# Density = 2.210434 g / cm^3
# Si number density = 22.154766 Si / 1000 Ang^3
#
#
#
# Elastic Constant Matrix: (Units=GPa)
#
#
# Indices 1 2 3 4 5 6 
#
# 1 227.1972 29.6409 75.2443 0.0000 0.0000 0.0000
# 2 29.6409 46.9844 7.0248 0.0000 0.0000 0.0000
# 3 75.2443 7.0248 115.2350 0.0000 0.0000 0.0000
# 4 0.0000 0.0000 0.0000 14.3039 0.0000 0.0000
# 5 0.0000 0.0000 0.0000 0.0000 32.1072 0.0000
# 6 0.0000 0.0000 0.0000 0.0000 0.0000 16.4286
#
#
#
# Elastic Compliance Matrix: (Units=1/GPa)
#
#
# Indices 1 2 3 4 5 6 
#
# 1 0.006076 -0.003270 -0.003768 0.000000 0.000000 0.000000
# 2 -0.003270 0.023239 0.000718 0.000000 0.000000 0.000000
# 3 -0.003768 0.000718 0.011095 0.000000 0.000000 0.000000
# 4 0.000000 0.000000 0.000000 0.069911 0.000000 0.000000
# 5 0.000000 0.000000 0.000000 0.000000 0.031146 0.000000
# 6 0.000000 0.000000 0.000000 0.000000 0.000000 0.060870
#
#
# Mechanical properties :
#
#
# Convention : Reuss Voigt Hill
#
# Bulk Modulus (GPa) = 36.00924 68.13738 52.07331
# Shear Modulus (GPa) = 22.29841 31.06839 26.68340
#
# Velocity S-wave (km/s) = 3.17595 3.74884 3.47422
# Velocity P-wave (km/s) = 5.45323 7.03991 6.29675
#
# Compressibility (1/GPa) = 0.02777065
#
# Stress axis : x y z
#
# Youngs Moduli (GPa) = 164.58276 43.03105 90.13444
#
# Poissons Ratio (x) = 0.14070 0.33963
# Poissons Ratio (y) = 0.53814 -0.06475
# Poissons Ratio (z) = 0.62016 -0.03091
#
# Static dielectric constant tensor:
#      x y z
#    x 1.920080 0.000000 0.000000 
#    y 0.000000 1.854370 0.000000 
#    z 0.000000 0.000000 1.874760 
# 
# From -- ./inp_files/7825.got.cif
#   From: 2010.05.17/outbox.cif.g08.bks.cpg/sg73_4_cif.got.tgz:7825.got - 2010.06.03 17:35:07.
