data_PCOD9529529
_publ_section_title
;
Structure prediction by ZEFSAII (Michael W. Deem and Ramdas Pophale) SiO2 
 PCOD9529529
Probable space group: I B A M
;
_chemical_formula_sum "Si O2"
_cell_formula_units_Z 56
_cell_length_a 12.000000
_cell_length_b 30.000000
_cell_length_c 15.000000
_cell_angle_alpha 90.000000
_cell_angle_beta 90.000000
_cell_angle_gamma 90.000000
_cell_volume 5400.000000
_symmetry_space_group_name_H-M "I B A M"
_symmetry_group_IT_number 72
_symmetry_cell_setting 'orthorhombic'
loop_
_space_group_symop_operation_xyz
x,y,z
-x,-y,z
x,-y,1/2-z
-x,y,1/2-z
-x,-y,-z
x,y,-z
-x,y,1/2+z
x,-y,1/2+z
1/2+x,1/2+y,1/2+z
1/2-x,1/2-y,1/2+z
1/2+x,1/2-y,-z
1/2-x,1/2+y,-z
1/2-x,1/2-y,1/2-z
1/2+x,1/2+y,1/2-z
1/2-x,1/2+y,z
1/2+x,1/2-y,z
loop_
_atom_site_type_symbol
_atom_site_label
_atom_site_fract_x
_atom_site_fract_y
_atom_site_fract_z
Si Si1 0.886884 0.655470 0.607290
Si Si2 0.262105 0.576971 0.105415
Si Si3 0.631190 0.176872 0.104555
Si Si4 0.684184 0.611519 0.898066
Si Si5 0.126394 0.987402 0.109549
Si Si6 0.957940 0.144325 0.346516
Si Si7 0.703213 0.727394 0.660645
O O1 0.891735 0.651387 0.500000
O O2 0.836899 0.608425 0.641799
O O3 0.802463 0.696127 0.625261
O O4 0.008794 0.667762 0.642142
O O5 0.292824 0.527725 0.139722
O O6 0.370061 0.608826 0.116301
O O7 0.241695 0.571092 0.000000
O O8 0.722660 0.143177 0.145748
O O9 0.665892 0.228410 0.109123
O O10 0.626027 0.166463 0.000000
O O11 0.660085 0.562315 0.859255
O O12 0.571618 0.640732 0.900885
O O13 0.717212 0.602282 0.000000
O O14 0.125972 0.986973 0.000000
O O15 0.000000 0.000000 0.135797
O O16 0.899889 0.192504 0.336602
O O17 0.000000 0.129821 0.250000
O O18 0.750000 0.750000 0.750000
#
# Coordination Sequence:
#
# PCOD9529529 Si02
#       7
#    16  16  16  16  16  16  16
#     4   9  20  38  56  78 107 141 185 226 268 322
#     4   9  17  34  57  79 106 145 180 214 265 328
#     4  10  22  37  55  78 108 143 182 228 271 316
#     4  10  20  35  55  82 113 142 177 220 270 325
#     4   9  15  28  54  84 110 139 175 216 267 323
#     4  11  22  34  52  79 110 137 177 225 273 320
#     4  11  24  38  56  76 104 145 185 229 272 329
#
# _framework density 10.370369999999999
#
# number of rings (size 3 to 8) (size 9 to 14) (size 15 to 20)
#    0.000    2.143    1.429    1.714    4.000    1.714 
#    0.000    2.143    0.000    4.286    0.000    0.000 
#    0.000    4.571    0.000    0.000    0.000    0.000 
#
# Total GULP energy -312200.032663 kJ/mol
# GULP energy per Si atom -5575.000583 kJ/mol
# Density = 1.034677 g / cm^3
# Si number density = 10.370370 Si / 1000 Ang^3
#
#
#
# Elastic Constant Matrix: (Units=GPa)
#
#
# Indices 1 2 3 4 5 6 
#
# 1 138.2342 93.9019 1.1159 -0.0002 0.0000 0.0000
# 2 93.9019 186.1327 6.4643 -0.0002 0.0000 0.0000
# 3 1.1159 6.4643 42.2446 -0.0005 0.0006 0.0003
# 4 -0.0002 -0.0002 -0.0005 -42.4684 0.0006 0.0000
# 5 0.0000 0.0000 0.0006 0.0006 -83.9471 -0.0002
# 6 0.0000 0.0000 0.0003 0.0000 -0.0002 26.4922
#
#
#
# Elastic Compliance Matrix: (Units=1/GPa)
#
#
# Indices 1 2 3 4 5 6 
#
# 1 0.011019 -0.005579 0.000563 0.000000 0.000000 0.000000
# 2 -0.005579 0.008225 -0.001111 0.000000 0.000000 0.000000
# 3 0.000563 -0.001111 0.023827 0.000000 0.000000 0.000000
# 4 0.000000 0.000000 0.000000 -0.023547 0.000000 0.000000
# 5 0.000000 0.000000 0.000000 0.000000 -0.011912 0.000000
# 6 0.000000 0.000000 0.000000 0.000000 0.000000 0.037747
#
#
# Mechanical properties :
#
#
# Convention : Reuss Voigt Hill
#
# Bulk Modulus (GPa) = 32.44985 63.28617 47.86801
# Shear Modulus (GPa) = 73.65303 -2.30936 35.67183
#
# Velocity S-wave (km/s) = 5.96560 -1.05634 4.15166
# Velocity P-wave (km/s) = 7.94548 5.39364 6.79051
#
# Compressibility (1/GPa) = 0.03081678
#
# Stress axis : x y z
#
# Youngs Moduli (GPa) = 90.75220 121.57458 41.96944
#
# Poissons Ratio (x) = 0.67821 -0.02361
# Poissons Ratio (y) = 0.50626 0.04664
# Poissons Ratio (z) = -0.05105 0.13511
#
# Static dielectric constant tensor:
#      x y z
#    x 1.815030 0.000000 0.000000 
#    y 0.000000 1.776950 0.000000 
#    z 0.000000 0.000000 1.581840 
# 
# From -- ./inp_files/20684.got.cif
#   From: 2010.05.17/outbox.ucp.g08.bks.cvg/sg72_11_cif.got.tgz:20684.got - 2010.06.11 16:33:07.
