data_PCOD9529542
_publ_section_title
;
Structure prediction by ZEFSAII (Michael W. Deem and Ramdas Pophale) SiO2 
 PCOD9529542
Probable space group: I B A M
;
_chemical_formula_sum "Si O2"
_cell_formula_units_Z 48
_cell_length_a 27.000000
_cell_length_b 21.000000
_cell_length_c 9.000000
_cell_angle_alpha 90.000000
_cell_angle_beta 90.000000
_cell_angle_gamma 90.000000
_cell_volume 5103.000000
_symmetry_space_group_name_H-M "I B A M"
_symmetry_group_IT_number 72
_symmetry_cell_setting 'orthorhombic'
loop_
_space_group_symop_operation_xyz
x,y,z
-x,-y,z
x,-y,1/2-z
-x,y,1/2-z
-x,-y,-z
x,y,-z
-x,y,1/2+z
x,-y,1/2+z
1/2+x,1/2+y,1/2+z
1/2-x,1/2-y,1/2+z
1/2+x,1/2-y,-z
1/2-x,1/2+y,-z
1/2-x,1/2-y,1/2-z
1/2+x,1/2+y,1/2-z
1/2-x,1/2+y,z
1/2+x,1/2-y,z
loop_
_atom_site_type_symbol
_atom_site_label
_atom_site_fract_x
_atom_site_fract_y
_atom_site_fract_z
Si Si1 0.553435 0.932811 0.177388
Si Si2 0.446515 0.691742 0.820967
Si Si3 0.890321 0.065119 0.322428
Si Si4 0.890230 0.679158 0.173341
Si Si5 0.726646 0.434513 0.176883
Si Si6 0.227378 0.688234 0.326939
O O1 0.500000 0.917182 0.250000
O O2 0.590965 0.877938 0.224997
O O3 0.568637 0.000000 0.250000
O O4 0.548956 0.938509 0.000000
O O5 0.500000 0.694494 0.750000
O O6 0.418480 0.627992 0.770970
O O7 0.416675 0.755334 0.782724
O O8 0.449890 0.689522 0.000000
O O9 0.895174 0.060211 0.500000
O O10 0.831958 0.071567 0.289163
O O11 0.908873 0.000000 0.250000
O O12 0.831821 0.689399 0.181998
O O13 0.902893 0.665026 0.000000
O O14 0.744539 0.500000 0.250000
O O15 0.753605 0.374382 0.245242
O O16 0.732618 0.436847 0.000000
O O17 0.241707 0.686645 0.500000
O O18 0.250000 0.750000 0.250000
#
# Coordination Sequence:
#
# PCOD9529542 Si02
#       6
#    16  16  16  16  16  16
#     4  11  22  38  61  87 116 150 188 231 280 337
#     4  10  21  37  56  79 109 144 182 226 276 327
#     4   9  19  36  57  81 111 147 184 225 273 325
#     4  10  22  40  59  81 112 149 189 235 284 334
#     4  10  20  37  60  85 114 149 189 232 281 338
#     4  11  23  39  60  85 115 151 191 238 289 342
#
# _framework density 9.4062319999999993
#
# number of rings (size 3 to 8) (size 9 to 14) (size 15 to 20)
#    0.000    1.833    0.000    4.500    0.000    8.333 
#    0.000    3.333    0.000    0.000    0.000    0.000 
#    0.000    0.000    0.000    0.000    0.000    0.000 
#
# Total GULP energy -268167.169043 kJ/mol
# GULP energy per Si atom -5586.816022 kJ/mol
# Density = 0.938482 g / cm^3
# Si number density = 9.406232 Si / 1000 Ang^3
#
#
#
# Elastic Constant Matrix: (Units=GPa)
#
#
# Indices 1 2 3 4 5 6 
#
# 1 57.5390 70.9549 49.2408 0.0000 0.0000 0.0000
# 2 70.9549 136.8003 67.9807 0.0000 0.0000 0.0000
# 3 49.2408 67.9807 82.9496 0.0000 0.0000 0.0000
# 4 0.0000 0.0000 0.0000 34.6941 0.0000 0.0000
# 5 0.0000 0.0000 0.0000 0.0000 28.2288 0.0000
# 6 0.0000 0.0000 0.0000 0.0000 0.0000 38.0680
#
#
#
# Elastic Compliance Matrix: (Units=1/GPa)
#
#
# Indices 1 2 3 4 5 6 
#
# 1 0.059662 -0.022515 -0.016965 0.000000 0.000000 0.000000
# 2 -0.022515 0.020829 -0.003705 0.000000 0.000000 0.000000
# 3 -0.016965 -0.003705 0.025163 0.000000 0.000000 0.000000
# 4 0.000000 0.000000 0.000000 0.028823 0.000000 0.000000
# 5 0.000000 0.000000 0.000000 0.000000 0.035425 0.000000
# 6 0.000000 0.000000 0.000000 0.000000 0.000000 0.026269
#
#
# Mechanical properties :
#
#
# Convention : Reuss Voigt Hill
#
# Bulk Modulus (GPa) = 51.85543 72.62683 62.24113
# Shear Modulus (GPa) = 17.30295 26.13901 21.72098
#
# Velocity S-wave (km/s) = 3.03604 3.73158 3.40164
# Velocity P-wave (km/s) = 6.31778 7.56675 6.97030
#
# Compressibility (1/GPa) = 0.01928438
#
# Stress axis : x y z
#
# Youngs Moduli (GPa) = 16.76102 48.01031 39.74152
#
# Poissons Ratio (x) = 1.08094 0.67422
# Poissons Ratio (y) = 0.37737 0.14724
# Poissons Ratio (z) = 0.28435 0.17787
#
# Static dielectric constant tensor:
#      x y z
#    x 1.631410 0.000000 0.000000 
#    y 0.000000 1.623670 0.000000 
#    z 0.000000 0.000000 1.632850 
# 
# From -- ./inp_files/5957.got.cif
#   From: 2010.05.17/outbox.ucp.g08.bks.cvg/sg72_3_cif.got.tgz:5957.got - 2010.06.11 16:33:07.
