data_PCOD9529122
_publ_section_title
;
Structure prediction by ZEFSAII (Michael W. Deem and Ramdas Pophale) SiO2 
 PCOD9529122
Probable space group: I B A M
;
_chemical_formula_sum "Si O2"
_cell_formula_units_Z 92
_cell_length_a 22.637283
_cell_length_b 10.041482
_cell_length_c 20.042113
_cell_angle_alpha 90.000000
_cell_angle_beta 90.000000
_cell_angle_gamma 90.000000
_cell_volume 4555.810180
_symmetry_space_group_name_H-M "I B A M"
_symmetry_group_IT_number 72
_symmetry_cell_setting 'orthorhombic'
loop_
_space_group_symop_operation_xyz
x,y,z
-x,-y,z
x,-y,1/2-z
-x,y,1/2-z
-x,-y,-z
x,y,-z
-x,y,1/2+z
x,-y,1/2+z
1/2+x,1/2+y,1/2+z
1/2-x,1/2-y,1/2+z
1/2+x,1/2-y,-z
1/2-x,1/2+y,-z
1/2-x,1/2-y,1/2-z
1/2+x,1/2+y,1/2-z
1/2-x,1/2+y,z
1/2+x,1/2-y,z
loop_
_atom_site_type_symbol
_atom_site_label
_atom_site_fract_x
_atom_site_fract_y
_atom_site_fract_z
Si Si1 0.063194 0.526444 0.172139
Si Si2 0.000000 0.000000 0.750000
Si Si3 0.169818 0.396665 0.105931
Si Si4 0.411895 0.663771 0.348311
Si Si5 0.890466 0.888647 0.500000
Si Si6 0.172150 0.826772 0.500000
Si Si7 0.722856 0.368875 0.704719
Si Si8 0.810917 0.374977 0.000000
O O1 0.057825 0.500000 0.250000
O O2 0.113994 0.425254 0.151223
O O3 0.078417 0.678684 0.158052
O O4 0.000000 0.500000 0.138623
O O5 0.957051 0.912437 0.701653
O O6 0.157668 0.265200 0.063195
O O7 0.231142 0.381819 0.144317
O O8 0.174527 0.529560 0.061664
O O9 0.420813 0.622160 0.426413
O O10 0.343634 0.643548 0.324176
O O11 0.846208 0.762207 0.500000
O O12 0.857908 0.030574 0.500000
O O13 0.242161 0.844892 0.500000
O O14 0.724692 0.500000 0.750000
O O15 0.750000 0.250000 0.750000
#
# Coordination Sequence:
#
# PCOD9529122 Si02
#       8
#    16   4  16  16   8   8  16   8
#     4  11  24  46  73 100 140 192 246 297 363 447
#     4  12  28  50  74 100 156 190 250 318 376 454
#     4  11  24  43  70 104 141 188 246 295 366 434
#     4  12  26  49  73 107 146 201 247 315 386 446
#     4  12  26  43  74 103 149 191 250 310 381 448
#     4  11  25  39  68 103 144 191 233 298 374 447
#     4  12  26  42  71 110 151 192 248 309 366 446
#     4  11  21  45  65  98 143 194 227 301 371 439
#
# _framework density 20.193994
#
# number of rings (size 3 to 8) (size 9 to 14) (size 15 to 20)
#    0.000    0.522    2.609    6.783    4.870    3.130 
#    0.000    3.913    0.000    0.000    0.000    0.000 
#    0.000    0.000    0.000    0.000    0.000    0.000 
#
# Total GULP energy -257040.579423 kJ/mol
# GULP energy per Si atom -5587.838683 kJ/mol
# Density = 2.014803 g / cm^3
# Si number density = 20.193994 Si / 1000 Ang^3
#
#
#
# Elastic Constant Matrix: (Units=GPa)
#
#
# Indices 1 2 3 4 5 6 
#
# 1 126.8350 37.1181 55.3975 0.0000 0.0000 0.0000
# 2 37.1181 143.1550 55.0124 0.0000 0.0000 0.0000
# 3 55.3975 55.0124 133.2623 0.0000 0.0000 0.0000
# 4 0.0000 0.0000 0.0000 12.2025 0.0000 0.0000
# 5 0.0000 0.0000 0.0000 0.0000 -101.5497 0.0000
# 6 0.0000 0.0000 0.0000 0.0000 0.0000 -3.8685
#
#
#
# Elastic Compliance Matrix: (Units=1/GPa)
#
#
# Indices 1 2 3 4 5 6 
#
# 1 0.009792 -0.001158 -0.003592 0.000000 0.000000 0.000000
# 2 -0.001158 0.008440 -0.003002 0.000000 0.000000 0.000000
# 3 -0.003592 -0.003002 0.010237 0.000000 0.000000 0.000000
# 4 0.000000 0.000000 0.000000 0.081950 0.000000 0.000000
# 5 0.000000 0.000000 0.000000 0.000000 -0.009847 0.000000
# 6 0.000000 0.000000 0.000000 0.000000 0.000000 -0.258496
#
#
# Mechanical properties :
#
#
# Convention : Reuss Voigt Hill
#
# Bulk Modulus (GPa) = 77.14810 77.58982 77.36896
# Shear Modulus (GPa) = -36.20637 -1.59484 -18.90060
#
# Velocity S-wave (km/s) = -4.23889 -0.88965 -3.06265
# Velocity P-wave (km/s) = 3.78534 6.11967 5.08818
#
# Compressibility (1/GPa) = 0.01296208
#
# Stress axis : x y z
#
# Youngs Moduli (GPa) = 102.12034 118.48923 97.68660
#
# Poissons Ratio (x) = 0.13727 0.35094
# Poissons Ratio (y) = 0.11831 0.29329
# Poissons Ratio (z) = 0.36686 0.35575
#
# Static dielectric constant tensor:
#      x y z
#    x 1.406980 0.000000 0.000000 
#    y 0.000000 1.675910 0.000000 
#    z 0.000000 0.000000 1.419800 
# 
# From -- ./inp_files/40221.got.cif
#   From: 2010.05.17/outbox.cif.g08.bks.cpg/sg72_21_cif.got.tgz:40221.got - 2010.06.03 17:03:01.
