data_PCOD9529779
_publ_section_title
;
Structure prediction by ZEFSAII (Michael W. Deem and Ramdas Pophale) SiO2 
 PCOD9529779
Probable space group: I B C A 
;
_chemical_formula_sum "Si O2"
_cell_formula_units_Z 88
_cell_length_a 8.998862
_cell_length_b 22.293872
_cell_length_c 21.708218
_cell_angle_alpha 90.000000
_cell_angle_beta 90.000000
_cell_angle_gamma 90.000000
_cell_volume 4355.091354
_symmetry_space_group_name_H-M "I B C A "
_symmetry_group_IT_number 73
_symmetry_cell_setting 'orthorhombic'
loop_
_space_group_symop_operation_xyz
x,y,z
-x,1/2-y,z
x,-y,1/2-z
1/2-x,y,-z
-x,-y,-z
x,1/2+y,-z
-x,y,1/2+z
1/2+x,-y,z
1/2+x,1/2+y,1/2+z
1/2-x,-y,1/2+z
1/2+x,1/2-y,-z
-x,1/2+y,1/2-z
1/2-x,1/2-y,1/2-z
1/2+x,y,1/2-z
1/2-x,1/2+y,z
x,1/2-y,1/2+z
loop_
_atom_site_type_symbol
_atom_site_label
_atom_site_fract_x
_atom_site_fract_y
_atom_site_fract_z
Si Si1 0.448912 0.682016 0.371549
Si Si2 0.306779 0.500000 0.250000
Si Si3 0.926393 0.314892 0.006118
Si Si4 0.365414 0.990126 0.453273
Si Si5 0.678922 0.872406 0.566357
Si Si6 0.558746 0.433738 0.176645
O O1 0.500000 0.750000 0.358754
O O2 0.520297 0.667080 0.438074
O O3 0.274953 0.664429 0.383504
O O4 0.517390 0.635862 0.323281
O O5 0.415769 0.470172 0.200439
O O6 0.198294 0.548192 0.218453
O O7 0.000000 0.250000 0.017922
O O8 0.005072 0.356248 0.057728
O O9 0.750000 0.310806 0.000000
O O10 0.250000 0.959543 0.500000
O O11 0.307016 0.055518 0.430101
O O12 0.500000 0.000000 0.500000
O O13 0.406345 0.954158 0.392810
O O14 0.750000 0.855656 0.500000
#
# Coordination Sequence:
#
# PCOD9529779 Si02
#       6
#    16   8  16  16  16  16
#     4  10  20  36  56  78 111 153 196 251 302 351
#     4  10  24  42  64  84 112 160 206 250 300 360
#     4  10  18  29  47  75 115 161 197 227 280 360
#     4  11  21  34  58  91 124 153 186 246 314 364
#     4   9  18  32  48  76 118 157 192 234 293 365
#     4  11  22  41  62  87 118 155 202 249 302 367
#
# _framework density 20.206235
#
# number of rings (size 3 to 8) (size 9 to 14) (size 15 to 20)
#    0.000    1.818    0.000    8.182    0.000    4.364 
#    0.000    0.909    0.000    0.000    0.000    0.000 
#    0.000    0.000    0.000    0.000    0.000    0.000 
#
# Total GULP energy -245454.877333 kJ/mol
# GULP energy per Si atom -5578.519939 kJ/mol
# Density = 2.016024 g / cm^3
# Si number density = 20.206235 Si / 1000 Ang^3
#
#
#
# Elastic Constant Matrix: (Units=GPa)
#
#
# Indices 1 2 3 4 5 6 
#
# 1 147.5371 42.7183 32.9717 0.0000 0.0000 0.0000
# 2 42.7183 133.4300 33.8824 0.0000 0.0000 0.0000
# 3 32.9717 33.8824 58.5491 0.0000 0.0000 0.0000
# 4 0.0000 0.0000 0.0000 11.2856 0.0000 0.0000
# 5 0.0000 0.0000 0.0000 0.0000 18.9180 0.0000
# 6 0.0000 0.0000 0.0000 0.0000 0.0000 22.5308
#
#
#
# Elastic Compliance Matrix: (Units=1/GPa)
#
#
# Indices 1 2 3 4 5 6 
#
# 1 0.008061 -0.001674 -0.003571 0.000000 0.000000 0.000000
# 2 -0.001674 0.009133 -0.004343 0.000000 0.000000 0.000000
# 3 -0.003571 -0.004343 0.021604 0.000000 0.000000 0.000000
# 4 0.000000 0.000000 0.000000 0.088608 0.000000 0.000000
# 5 0.000000 0.000000 0.000000 0.000000 0.052860 0.000000
# 6 0.000000 0.000000 0.000000 0.000000 0.000000 0.044384
#
#
# Mechanical properties :
#
#
# Convention : Reuss Voigt Hill
#
# Bulk Modulus (GPa) = 50.96088 62.07345 56.51717
# Shear Modulus (GPa) = 19.97088 25.87647 22.92368
#
# Velocity S-wave (km/s) = 3.14722 3.58246 3.37187
# Velocity P-wave (km/s) = 6.20337 6.92088 6.57192
#
# Compressibility (1/GPa) = 0.01962290
#
# Stress axis : x y z
#
# Youngs Moduli (GPa) = 124.06047 109.48984 46.28863
#
# Poissons Ratio (x) = 0.18328 0.16528
# Poissons Ratio (y) = 0.20767 0.20102
# Poissons Ratio (z) = 0.44297 0.47549
#
# Static dielectric constant tensor:
#      x y z
#    x 2.075910 0.000000 0.000000 
#    y 0.000000 1.757150 0.000000 
#    z 0.000000 0.000000 1.687100 
# 
# From -- ./inp_files/24794.got.cif
#   From: 2010.05.17/outbox.cif.g08.bks.cpg/sg73_13_cif.got.tgz:24794.got - 2010.06.03 17:35:07.
