data_PCOD9529770
_publ_section_title
;
Structure prediction by ZEFSAII (Michael W. Deem and Ramdas Pophale) SiO2 
 PCOD9529770
Probable space group: I B C A 
;
_chemical_formula_sum "Si O2"
_cell_formula_units_Z 72
_cell_length_a 5.091601
_cell_length_b 28.697726
_cell_length_c 28.196429
_cell_angle_alpha 90.000000
_cell_angle_beta 90.000000
_cell_angle_gamma 90.000000
_cell_volume 4119.988060
_symmetry_space_group_name_H-M "I B C A "
_symmetry_group_IT_number 73
_symmetry_cell_setting 'orthorhombic'
loop_
_space_group_symop_operation_xyz
x,y,z
-x,1/2-y,z
x,-y,1/2-z
1/2-x,y,-z
-x,-y,-z
x,1/2+y,-z
-x,y,1/2+z
1/2+x,-y,z
1/2+x,1/2+y,1/2+z
1/2-x,-y,1/2+z
1/2+x,1/2-y,-z
-x,1/2+y,1/2-z
1/2-x,1/2-y,1/2-z
1/2+x,y,1/2-z
1/2-x,1/2+y,z
x,1/2-y,1/2+z
loop_
_atom_site_type_symbol
_atom_site_label
_atom_site_fract_x
_atom_site_fract_y
_atom_site_fract_z
Si Si1 0.000000 0.750000 0.215906
Si Si2 0.500000 0.250000 0.563202
Si Si3 0.750000 0.826816 0.000000
Si Si4 0.849739 0.681377 0.133192
Si Si5 0.734388 0.530303 0.443763
Si Si6 0.135597 0.628430 0.905051
O O1 0.750000 0.750000 0.250000
O O2 0.942616 0.705365 0.181949
O O3 0.570608 0.207964 0.529415
O O4 0.293208 0.226251 0.599068
O O5 0.595685 0.855401 0.040040
O O6 0.601620 0.647231 0.127443
O O7 0.100551 0.653293 0.113451
O O8 0.750000 0.542977 0.500000
O O9 0.441718 0.511344 0.435818
O O10 0.813673 0.573557 0.410825
#
# Coordination Sequence:
#
# PCOD9529770 Si02
#       6
#     8   8   8  16  16  16
#     4  11  22  40  61  82 112 146 175 216 294 349
#     4   9  18  30  43  68 100 136 179 210 250 297
#     4  10  18  28  46  68  98 152 178 216 250 306
#     4  10  22  34  53  77 106 136 176 231 259 320
#     4  10  20  34  50  72 105 147 192 230 269 313
#     4  11  20  34  50  76 107 141 188 222 266 304
#
# _framework density 17.475777999999998
#
# number of rings (size 3 to 8) (size 9 to 14) (size 15 to 20)
#    0.000    1.778    1.111    4.000    0.000    8.889 
#    0.000    0.000    0.000    0.000    0.000    0.000 
#    0.000   62.222    0.000    0.000    0.000    0.000 
#
# Total GULP energy -200482.572732 kJ/mol
# GULP energy per Si atom -5568.960354 kJ/mol
# Density = 1.743600 g / cm^3
# Si number density = 17.475778 Si / 1000 Ang^3
#
#
#
# Elastic Constant Matrix: (Units=GPa)
#
#
# Indices 1 2 3 4 5 6 
#
# 1 105.6131 23.4942 30.6373 0.0000 0.0000 0.0000
# 2 23.4942 81.3669 35.4806 0.0000 0.0000 0.0000
# 3 30.6373 35.4806 78.5490 0.0000 0.0000 0.0000
# 4 0.0000 0.0000 0.0000 79.0487 0.0000 0.0000
# 5 0.0000 0.0000 0.0000 0.0000 24.6602 0.0000
# 6 0.0000 0.0000 0.0000 0.0000 0.0000 22.2268
#
#
#
# Elastic Compliance Matrix: (Units=1/GPa)
#
#
# Indices 1 2 3 4 5 6 
#
# 1 0.010842 -0.001602 -0.003505 0.000000 0.000000 0.000000
# 2 -0.001602 0.015541 -0.006395 0.000000 0.000000 0.000000
# 3 -0.003505 -0.006395 0.016987 0.000000 0.000000 0.000000
# 4 0.000000 0.000000 0.000000 0.012650 0.000000 0.000000
# 5 0.000000 0.000000 0.000000 0.000000 0.040551 0.000000
# 6 0.000000 0.000000 0.000000 0.000000 0.000000 0.044991
#
#
# Mechanical properties :
#
#
# Convention : Reuss Voigt Hill
#
# Bulk Modulus (GPa) = 49.10346 49.41702 49.26024
# Shear Modulus (GPa) = 29.17919 36.91491 33.04705
#
# Velocity S-wave (km/s) = 4.09062 4.60101 4.35330
# Velocity P-wave (km/s) = 7.10422 7.52094 7.31555
#
# Compressibility (1/GPa) = 0.02036516
#
# Stress axis : x y z
#
# Youngs Moduli (GPa) = 92.23658 64.34495 58.86960
#
# Poissons Ratio (x) = 0.10308 0.20634
# Poissons Ratio (y) = 0.14777 0.37648
# Poissons Ratio (z) = 0.32329 0.41149
#
# Static dielectric constant tensor:
#      x y z
#    x 1.602400 0.000000 0.000000 
#    y 0.000000 1.621970 0.000000 
#    z 0.000000 0.000000 1.744110 
# 
# From -- ./inp_files/2150.got.cif
#   From: 2010.05.17/outbox.cif.g08.bks.cpg/sg73_2_cif.got.tgz:2150.got - 2010.06.03 17:35:07.
