data_PCOD9529144
_publ_section_title
;
Structure prediction by ZEFSAII (Michael W. Deem and Ramdas Pophale) SiO2 
 PCOD9529144
Probable space group: I B A M
;
_chemical_formula_sum "Si O2"
_cell_formula_units_Z 96
_cell_length_a 9.070779
_cell_length_b 21.990242
_cell_length_c 25.518865
_cell_angle_alpha 90.000000
_cell_angle_beta 90.000000
_cell_angle_gamma 90.000000
_cell_volume 5090.212922
_symmetry_space_group_name_H-M "I B A M"
_symmetry_group_IT_number 72
_symmetry_cell_setting 'orthorhombic'
loop_
_space_group_symop_operation_xyz
x,y,z
-x,-y,z
x,-y,1/2-z
-x,y,1/2-z
-x,-y,-z
x,y,-z
-x,y,1/2+z
x,-y,1/2+z
1/2+x,1/2+y,1/2+z
1/2-x,1/2-y,1/2+z
1/2+x,1/2-y,-z
1/2-x,1/2+y,-z
1/2-x,1/2-y,1/2-z
1/2+x,1/2+y,1/2-z
1/2-x,1/2+y,z
1/2+x,1/2-y,z
loop_
_atom_site_type_symbol
_atom_site_label
_atom_site_fract_x
_atom_site_fract_y
_atom_site_fract_z
Si Si1 0.899304 0.149422 0.801693
Si Si2 0.328197 0.323767 0.561357
Si Si3 0.555333 0.242082 0.616893
Si Si4 0.867202 0.535824 0.694395
Si Si5 0.940406 0.343068 0.299586
Si Si6 0.919362 0.940368 0.873783
O O1 0.903874 0.209126 0.838210
O O2 0.727730 0.137729 0.790155
O O3 0.000000 0.155632 0.750000
O O4 0.967935 0.094847 0.835506
O O5 0.296486 0.326445 0.500000
O O6 0.466840 0.279870 0.573461
O O7 0.193309 0.293730 0.593246
O O8 0.365144 0.390238 0.584611
O O9 0.452734 0.193579 0.646749
O O10 0.844621 0.500000 0.750000
O O11 0.719131 0.539739 0.661742
O O12 0.000000 0.500000 0.666150
O O13 0.941380 0.602153 0.699372
O O14 0.000000 0.304517 0.250000
O O15 0.000000 0.000000 0.895847
#
# Coordination Sequence:
#
# PCOD9529144 Si02
#       6
#    16  16  16  16  16  16
#     4  11  25  38  61  95 138 178 211 253 319 399
#     4  11  24  46  71  94 123 170 224 283 338 382
#     4  11  23  42  65  95 128 168 214 271 328 390
#     4  11  22  37  59  91 129 177 213 253 308 383
#     4  12  22  37  61  92 132 172 213 256 314 384
#     4  11  25  41  64  98 131 172 217 272 323 392
#
# _framework density 18.859722999999999
#
# number of rings (size 3 to 8) (size 9 to 14) (size 15 to 20)
#    0.000    0.833    5.000    3.000    4.667    1.667 
#    0.000    0.000    0.000    0.500    0.000    0.000 
#    0.000    0.000    0.000    0.000    0.000    0.000 
#
# Total GULP energy -268001.768006 kJ/mol
# GULP energy per Si atom -5583.370167 kJ/mol
# Density = 1.881680 g / cm^3
# Si number density = 18.859723 Si / 1000 Ang^3
#
#
#
# Elastic Constant Matrix: (Units=GPa)
#
#
# Indices 1 2 3 4 5 6 
#
# 1 122.0275 47.5605 31.6492 0.0000 0.0000 0.0000
# 2 47.5605 122.3574 47.1323 0.0000 0.0000 0.0000
# 3 31.6492 47.1323 89.9236 0.0000 0.0000 0.0000
# 4 0.0000 0.0000 0.0000 13.5673 0.0000 0.0000
# 5 0.0000 0.0000 0.0000 0.0000 20.0428 0.0000
# 6 0.0000 0.0000 0.0000 0.0000 0.0000 26.8175
#
#
#
# Elastic Compliance Matrix: (Units=1/GPa)
#
#
# Indices 1 2 3 4 5 6 
#
# 1 0.009895 -0.003138 -0.001838 0.000000 0.000000 0.000000
# 2 -0.003138 0.011236 -0.004784 0.000000 0.000000 0.000000
# 3 -0.001838 -0.004784 0.014275 0.000000 0.000000 0.000000
# 4 0.000000 0.000000 0.000000 0.073707 0.000000 0.000000
# 5 0.000000 0.000000 0.000000 0.000000 0.049893 0.000000
# 6 0.000000 0.000000 0.000000 0.000000 0.000000 0.037289
#
#
# Mechanical properties :
#
#
# Convention : Reuss Voigt Hill
#
# Bulk Modulus (GPa) = 62.95392 65.22139 64.08765
# Shear Modulus (GPa) = 22.61321 25.94994 24.28158
#
# Velocity S-wave (km/s) = 3.46645 3.71340 3.59204
# Velocity P-wave (km/s) = 7.03379 7.28308 7.15952
#
# Compressibility (1/GPa) = 0.01588464
#
# Stress axis : x y z
#
# Youngs Moduli (GPa) = 101.06520 89.00292 70.05232
#
# Poissons Ratio (x) = 0.27931 0.12873
# Poissons Ratio (y) = 0.31716 0.33516
# Poissons Ratio (z) = 0.18572 0.42583
#
# Static dielectric constant tensor:
#      x y z
#    x 1.648020 0.000000 0.000000 
#    y 0.000000 1.705970 0.000000 
#    z 0.000000 0.000000 1.648860 
# 
# From -- ./inp_files/47303.got.cif
#   From: 2010.05.17/outbox.cif.g08.bks.cpg/sg72_24_cif.got.tgz:47303.got - 2010.06.03 17:03:01.
