data_PCOD9529281
_publ_section_title
;
Structure prediction by ZEFSAII (Michael W. Deem and Ramdas Pophale) SiO2 
 PCOD9529281
Probable space group: I B A M
;
_chemical_formula_sum "Si O2"
_cell_formula_units_Z 112
_cell_length_a 23.638050
_cell_length_b 14.376141
_cell_length_c 15.082792
_cell_angle_alpha 90.000000
_cell_angle_beta 90.000000
_cell_angle_gamma 90.000000
_cell_volume 5125.493800
_symmetry_space_group_name_H-M "I B A M"
_symmetry_group_IT_number 72
_symmetry_cell_setting 'orthorhombic'
loop_
_space_group_symop_operation_xyz
x,y,z
-x,-y,z
x,-y,1/2-z
-x,y,1/2-z
-x,-y,-z
x,y,-z
-x,y,1/2+z
x,-y,1/2+z
1/2+x,1/2+y,1/2+z
1/2-x,1/2-y,1/2+z
1/2+x,1/2-y,-z
1/2-x,1/2+y,-z
1/2-x,1/2-y,1/2-z
1/2+x,1/2+y,1/2-z
1/2-x,1/2+y,z
1/2+x,1/2-y,z
loop_
_atom_site_type_symbol
_atom_site_label
_atom_site_fract_x
_atom_site_fract_y
_atom_site_fract_z
Si Si1 0.556365 0.725364 0.723202
Si Si2 0.381234 0.215792 0.097626
Si Si3 0.238519 0.990956 0.893378
Si Si4 0.343320 0.343208 0.601543
Si Si5 0.868765 0.488161 0.853477
Si Si6 0.741177 0.721909 0.148555
Si Si7 0.032454 0.402230 0.100622
O O1 0.500000 0.670079 0.750000
O O2 0.589279 0.744356 0.815090
O O3 0.602200 0.678376 0.659754
O O4 0.531952 0.816768 0.669747
O O5 0.392336 0.106285 0.105480
O O6 0.313838 0.229131 0.108163
O O7 0.398109 0.250985 0.000000
O O8 0.193123 0.068077 0.864774
O O9 0.301757 0.014562 0.863168
O O10 0.228952 0.886917 0.860189
O O11 0.237994 0.990699 0.000000
O O12 0.359772 0.360118 0.500000
O O13 0.298884 0.257271 0.603949
O O14 0.882506 0.500000 0.750000
O O15 0.901087 0.571235 0.900492
O O16 0.750000 0.750000 0.250000
O O17 0.000000 0.500000 0.125635
O O18 0.014925 0.377237 0.000000
#
# Coordination Sequence:
#
# PCOD9529281 Si02
#       7
#    16  16  16  16  16  16  16
#     4  12  26  44  67  96 135 185 244 301 360 426
#     4  12  24  41  63  93 135 178 227 283 351 423
#     4  11  24  40  66 102 140 182 230 284 349 425
#     4  11  24  44  70 104 145 189 238 293 360 438
#     4  12  22  37  60  94 136 182 225 276 336 421
#     4  12  23  43  68 104 144 184 227 289 358 429
#     4  11  24  41  64  95 136 186 239 295 360 434
#
# _framework density 21.851552000000002
#
# number of rings (size 3 to 8) (size 9 to 14) (size 15 to 20)
#    0.000    0.429    4.286    5.571    0.000    2.286 
#    0.000    0.000    0.000    2.143    0.000    3.000 
#    0.000    0.000    0.000    0.000    0.000    0.000 
#
# Total GULP energy -313172.165008 kJ/mol
# GULP energy per Si atom -5592.360089 kJ/mol
# Density = 2.180182 g / cm^3
# Si number density = 21.851552 Si / 1000 Ang^3
#
#
#
# Elastic Constant Matrix: (Units=GPa)
#
#
# Indices 1 2 3 4 5 6 
#
# 1 136.4417 31.4192 30.2661 0.0000 0.0000 0.0000
# 2 31.4192 79.2821 22.0108 0.0000 0.0000 0.0000
# 3 30.2661 22.0108 134.9803 0.0000 0.0000 0.0000
# 4 0.0000 0.0000 0.0000 19.4583 0.0000 0.0000
# 5 0.0000 0.0000 0.0000 0.0000 -45.8859 0.0000
# 6 0.0000 0.0000 0.0000 0.0000 0.0000 38.7080
#
#
#
# Elastic Compliance Matrix: (Units=1/GPa)
#
#
# Indices 1 2 3 4 5 6 
#
# 1 0.008306 -0.002906 -0.001389 0.000000 0.000000 0.000000
# 2 -0.002906 0.014228 -0.001668 0.000000 0.000000 0.000000
# 3 -0.001389 -0.001668 0.007992 0.000000 0.000000 0.000000
# 4 0.000000 0.000000 0.000000 0.051392 0.000000 0.000000
# 5 0.000000 0.000000 0.000000 0.000000 -0.021793 0.000000
# 6 0.000000 0.000000 0.000000 0.000000 0.000000 0.025834
#
#
# Mechanical properties :
#
#
# Convention : Reuss Voigt Hill
#
# Bulk Modulus (GPa) = 53.76408 57.56625 55.66516
# Shear Modulus (GPa) = 48.03703 20.25662 34.14682
#
# Velocity S-wave (km/s) = 4.69373 3.04799 3.95735
# Velocity P-wave (km/s) = 7.35067 6.22803 6.81252
#
# Compressibility (1/GPa) = 0.01859978
#
# Stress axis : x y z
#
# Youngs Moduli (GPa) = 120.38898 70.28318 125.12634
#
# Poissons Ratio (x) = 0.20426 0.17375
# Poissons Ratio (y) = 0.34988 0.20877
# Poissons Ratio (z) = 0.16717 0.11727
#
# Static dielectric constant tensor:
#      x y z
#    x 1.820790 0.000000 0.000000 
#    y 0.000000 1.792330 0.000000 
#    z 0.000000 0.000000 1.808680 
# 
# From -- ./inp_files/25180.got.cif
#   From: 2010.05.17/outbox.cif.g08.bks.cpg/sg72_13_cif.got.tgz:25180.got - 2010.06.03 17:03:01.
