data_PCOD9529824
_publ_section_title
;
Structure prediction by ZEFSAII (Michael W. Deem and Ramdas Pophale) SiO2 
 PCOD9529824
Probable space group: I B C A 
;
_chemical_formula_sum "Si O2"
_cell_formula_units_Z 120
_cell_length_a 19.182718
_cell_length_b 14.833528
_cell_length_c 23.879055
_cell_angle_alpha 90.000000
_cell_angle_beta 90.000000
_cell_angle_gamma 90.000000
_cell_volume 6794.722646
_symmetry_space_group_name_H-M "I B C A "
_symmetry_group_IT_number 73
_symmetry_cell_setting 'orthorhombic'
loop_
_space_group_symop_operation_xyz
x,y,z
-x,1/2-y,z
x,-y,1/2-z
1/2-x,y,-z
-x,-y,-z
x,1/2+y,-z
-x,y,1/2+z
1/2+x,-y,z
1/2+x,1/2+y,1/2+z
1/2-x,-y,1/2+z
1/2+x,1/2-y,-z
-x,1/2+y,1/2-z
1/2-x,1/2-y,1/2-z
1/2+x,y,1/2-z
1/2-x,1/2+y,z
x,1/2-y,1/2+z
loop_
_atom_site_type_symbol
_atom_site_label
_atom_site_fract_x
_atom_site_fract_y
_atom_site_fract_z
Si Si1 0.683135 0.600381 0.133996
Si Si2 0.202910 0.580032 0.947240
Si Si3 0.649894 0.563895 0.868614
Si Si4 0.327492 0.780126 0.025822
Si Si5 0.581168 0.769533 0.422410
Si Si6 0.835025 0.894010 0.127863
Si Si7 0.712378 0.345264 0.246553
Si Si8 0.672660 0.000000 0.250000
O O1 0.767920 0.591621 0.132754
O O2 0.664255 0.666177 0.083442
O O3 0.650193 0.501043 0.126398
O O4 0.670122 0.636110 0.196508
O O5 0.151178 0.507990 0.919585
O O6 0.167715 0.672663 0.965510
O O7 0.258025 0.609717 0.899465
O O8 0.250000 0.545157 0.000000
O O9 0.603490 0.651499 0.879503
O O10 0.633602 0.519687 0.808228
O O11 0.250000 0.797594 0.000000
O O12 0.385199 0.803851 0.980307
O O13 0.500000 0.750000 0.425280
O O14 0.618035 0.675341 0.406150
O O15 0.832823 0.858989 0.191227
O O16 0.750000 0.250000 0.250000
O O17 0.774722 0.417231 0.240593
#
# Coordination Sequence:
#
# PCOD9529824 Si02
#       8
#    16  16  16  16  16  16  16   8
#     4  10  20  32  60  94 119 149 190 263 305 350
#     4  10  18  31  58  89 118 148 190 254 300 350
#     4  10  20  34  58  87 122 153 200 251 310 360
#     4  11  20  36  58  87 117 156 207 245 303 357
#     4  12  26  41  58  85 122 170 203 247 300 376
#     4  11  19  36  55  86 122 151 198 242 302 359
#     4  11  18  30  56  93 126 148 183 252 318 356
#     4  10  18  34  52  96 124 146 192 252 306 354
#
# _framework density 17.660765000000001
#
# number of rings (size 3 to 8) (size 9 to 14) (size 15 to 20)
#    0.000    1.333    8.000    2.400    3.733    0.000 
#    0.000    2.667    2.933    0.800    0.000    0.000 
#    0.000    0.000    0.000    0.000    0.000    0.000 
#
# Total GULP energy -334581.191683 kJ/mol
# GULP energy per Si atom -5576.353195 kJ/mol
# Density = 1.762057 g / cm^3
# Si number density = 17.660765 Si / 1000 Ang^3
#
#
#
# Elastic Constant Matrix: (Units=GPa)
#
#
# Indices 1 2 3 4 5 6 
#
# 1 51.6163 33.8559 23.0554 0.0000 0.0000 0.0000
# 2 33.8559 103.6541 43.1935 0.0000 0.0000 0.0000
# 3 23.0554 43.1935 140.3128 0.0000 0.0000 0.0000
# 4 0.0000 0.0000 0.0000 36.4143 0.0000 0.0000
# 5 0.0000 0.0000 0.0000 0.0000 7.8487 0.0000
# 6 0.0000 0.0000 0.0000 0.0000 0.0000 6.9690
#
#
#
# Elastic Compliance Matrix: (Units=1/GPa)
#
#
# Indices 1 2 3 4 5 6 
#
# 1 0.025060 -0.007421 -0.001833 0.000000 0.000000 0.000000
# 2 -0.007421 0.013265 -0.002864 0.000000 0.000000 0.000000
# 3 -0.001833 -0.002864 0.008310 0.000000 0.000000 0.000000
# 4 0.000000 0.000000 0.000000 0.027462 0.000000 0.000000
# 5 0.000000 0.000000 0.000000 0.000000 0.127410 0.000000
# 6 0.000000 0.000000 0.000000 0.000000 0.000000 0.143493
#
#
# Mechanical properties :
#
#
# Convention : Reuss Voigt Hill
#
# Bulk Modulus (GPa) = 44.64702 55.08808 49.86755
# Shear Modulus (GPa) = 13.27306 23.27830 18.27568
#
# Velocity S-wave (km/s) = 2.74443 3.63448 3.22035
# Velocity P-wave (km/s) = 5.94792 6.99090 6.49039
#
# Compressibility (1/GPa) = 0.02239791
#
# Stress axis : x y z
#
# Youngs Moduli (GPa) = 39.90366 75.38680 120.33992
#
# Poissons Ratio (x) = 0.55948 0.22061
# Poissons Ratio (y) = 0.29614 0.34465
# Poissons Ratio (z) = 0.07315 0.21591
#
# Static dielectric constant tensor:
#      x y z
#    x 1.556830 0.000000 0.000000 
#    y 0.000000 1.632030 0.000000 
#    z 0.000000 0.000000 1.670790 
# 
# From -- ./inp_files/29896.got.cif
#   From: 2010.05.17/outbox.cif.g08.bks.cpg/sg73_15_cif.got.tgz:29896.got - 2010.06.03 17:35:07.
