data_PCOD9529341
_publ_section_title
;
Structure prediction by ZEFSAII (Michael W. Deem and Ramdas Pophale) SiO2 
 PCOD9529341
Probable space group: I B A M
;
_chemical_formula_sum "Si O2"
_cell_formula_units_Z 64
_cell_length_a 9.017878
_cell_length_b 18.752822
_cell_length_c 16.393335
_cell_angle_alpha 90.000000
_cell_angle_beta 90.000000
_cell_angle_gamma 90.000000
_cell_volume 2772.287717
_symmetry_space_group_name_H-M "I B A M"
_symmetry_group_IT_number 72
_symmetry_cell_setting 'orthorhombic'
loop_
_space_group_symop_operation_xyz
x,y,z
-x,-y,z
x,-y,1/2-z
-x,y,1/2-z
-x,-y,-z
x,y,-z
-x,y,1/2+z
x,-y,1/2+z
1/2+x,1/2+y,1/2+z
1/2-x,1/2-y,1/2+z
1/2+x,1/2-y,-z
1/2-x,1/2+y,-z
1/2-x,1/2-y,1/2-z
1/2+x,1/2+y,1/2-z
1/2-x,1/2+y,z
1/2+x,1/2-y,z
loop_
_atom_site_type_symbol
_atom_site_label
_atom_site_fract_x
_atom_site_fract_y
_atom_site_fract_z
Si Si1 0.167829 0.973773 0.842372
Si Si2 0.362956 0.709626 0.808246
Si Si3 0.172456 0.598851 0.092998
Si Si4 0.648341 0.851463 0.596896
O O1 0.275063 0.018117 0.901173
O O2 0.197775 0.000000 0.750000
O O3 0.214722 0.891869 0.858620
O O4 0.000000 0.000000 0.860099
O O5 0.500000 0.691106 0.750000
O O6 0.250000 0.750000 0.750000
O O7 0.283941 0.643434 0.850679
O O8 0.388646 0.770518 0.876397
O O9 0.003400 0.607923 0.120095
O O10 0.181512 0.625041 0.000000
O O11 0.673894 0.854217 0.500000
#
# Coordination Sequence:
#
# PCOD9529341 Si02
#       4
#    16  16  16  16
#     4  11  26  43  69 101 139 181 234 288 347 412
#     4  12  25  44  71 100 138 180 230 286 347 418
#     4  11  25  45  69 100 137 182 230 285 351 421
#     4  11  25  46  69  99 138 183 229 287 352 417
#
# _framework density 23.085626000000001
#
# number of rings (size 3 to 8) (size 9 to 14) (size 15 to 20)
#    0.000    0.750    2.500    3.750    7.000    5.000 
#    0.000    0.000    0.000    0.000    0.000    0.000 
#    0.000    0.000    0.000    0.000    0.000    0.000 
#
# Total GULP energy -179011.961668 kJ/mol
# GULP energy per Si atom -5594.123802 kJ/mol
# Density = 2.303308 g / cm^3
# Si number density = 23.085626 Si / 1000 Ang^3
#
#
#
# Elastic Constant Matrix: (Units=GPa)
#
#
# Indices 1 2 3 4 5 6 
#
# 1 126.9706 35.1857 47.9780 0.0000 0.0000 0.0000
# 2 35.1857 102.7956 26.3935 0.0000 0.0000 0.0000
# 3 47.9780 26.3935 67.7435 0.0000 0.0000 0.0000
# 4 0.0000 0.0000 0.0000 41.2742 0.0000 0.0000
# 5 0.0000 0.0000 0.0000 0.0000 29.8893 0.0000
# 6 0.0000 0.0000 0.0000 0.0000 0.0000 45.9817
#
#
#
# Elastic Compliance Matrix: (Units=1/GPa)
#
#
# Indices 1 2 3 4 5 6 
#
# 1 0.011105 -0.001980 -0.007093 0.000000 0.000000 0.000000
# 2 -0.001980 0.011162 -0.002947 0.000000 0.000000 0.000000
# 3 -0.007093 -0.002947 0.020933 0.000000 0.000000 0.000000
# 4 0.000000 0.000000 0.000000 0.024228 0.000000 0.000000
# 5 0.000000 0.000000 0.000000 0.000000 0.033457 0.000000
# 6 0.000000 0.000000 0.000000 0.000000 0.000000 0.021748
#
#
# Mechanical properties :
#
#
# Convention : Reuss Voigt Hill
#
# Bulk Modulus (GPa) = 52.19056 57.40269 54.79662
# Shear Modulus (GPa) = 32.66685 35.95920 34.31302
#
# Velocity S-wave (km/s) = 3.76577 3.95098 3.85949
# Velocity P-wave (km/s) = 6.44705 6.76260 6.60671
#
# Compressibility (1/GPa) = 0.01916055
#
# Stress axis : x y z
#
# Youngs Moduli (GPa) = 90.05075 89.58716 47.77040
#
# Poissons Ratio (x) = 0.17736 0.33886
# Poissons Ratio (y) = 0.17828 0.14077
# Poissons Ratio (z) = 0.63877 0.26400
#
# Static dielectric constant tensor:
#      x y z
#    x 1.857640 0.000000 0.000000 
#    y 0.000000 2.105250 0.000000 
#    z 0.000000 0.000000 1.847850 
# 
# From -- ./inp_files/18680.got.cif
#   From: 2010.05.17/outbox.cif.g08.bks.cpg/sg72_10_cif.got.tgz:18680.got - 2010.06.03 17:03:01.
