data_PCOD9529126
_publ_section_title
;
Structure prediction by ZEFSAII (Michael W. Deem and Ramdas Pophale) SiO2 
 PCOD9529126
Probable space group: I B A M
;
_chemical_formula_sum "Si O2"
_cell_formula_units_Z 96
_cell_length_a 15.627923
_cell_length_b 13.825614
_cell_length_c 17.768110
_cell_angle_alpha 90.000000
_cell_angle_beta 90.000000
_cell_angle_gamma 90.000000
_cell_volume 3839.077899
_symmetry_space_group_name_H-M "I B A M"
_symmetry_group_IT_number 72
_symmetry_cell_setting 'orthorhombic'
loop_
_space_group_symop_operation_xyz
x,y,z
-x,-y,z
x,-y,1/2-z
-x,y,1/2-z
-x,-y,-z
x,y,-z
-x,y,1/2+z
x,-y,1/2+z
1/2+x,1/2+y,1/2+z
1/2-x,1/2-y,1/2+z
1/2+x,1/2-y,-z
1/2-x,1/2+y,-z
1/2-x,1/2-y,1/2-z
1/2+x,1/2+y,1/2-z
1/2-x,1/2+y,z
1/2+x,1/2-y,z
loop_
_atom_site_type_symbol
_atom_site_label
_atom_site_fract_x
_atom_site_fract_y
_atom_site_fract_z
Si Si1 0.469857 0.292301 0.086241
Si Si2 0.376224 0.519893 0.585950
Si Si3 0.682517 0.602628 0.294250
Si Si4 0.412283 0.796206 0.795726
Si Si5 0.795562 0.324739 0.916486
Si Si6 0.693691 0.124989 0.916191
O O1 0.434024 0.393590 0.116616
O O2 0.546491 0.245404 0.128645
O O3 0.390248 0.217774 0.088280
O O4 0.491084 0.308206 0.000000
O O5 0.398351 0.500453 0.500000
O O6 0.379595 0.427221 0.637060
O O7 0.279115 0.560043 0.586804
O O8 0.685191 0.500000 0.250000
O O9 0.644267 0.704910 0.262336
O O10 0.770916 0.622585 0.338984
O O11 0.500000 0.820118 0.750000
O O12 0.354730 0.879784 0.835190
O O13 0.731805 0.233435 0.917965
O O14 0.786557 0.372657 0.000000
O O15 0.652791 0.107196 0.000000
#
# Coordination Sequence:
#
# PCOD9529126 Si02
#       6
#    16  16  16  16  16  16
#     4   9  18  33  53  75  98 130 177 227 267 304
#     4   9  18  33  53  75  98 130 177 227 267 304
#     4  11  22  33  48  74 110 145 171 202 253 315
#     4  11  22  33  48  74 110 145 171 202 253 315
#     4   8  16  33  54  73  95 130 179 225 259 298
#     4   8  16  33  54  73  95 130 179 225 259 298
#
# _framework density 25.006004999999998
#
# number of rings (size 3 to 8) (size 9 to 14) (size 15 to 20)
#    0.000    2.667    0.000    4.000    0.000    5.667 
#    0.000    6.667    0.000    1.000    0.000    7.000 
#    0.000    0.000    0.000    0.000    0.000    0.000 
#
# Total GULP energy -267762.403132 kJ/mol
# GULP energy per Si atom -5578.383399 kJ/mol
# Density = 2.494909 g / cm^3
# Si number density = 25.006005 Si / 1000 Ang^3
#
#
#
# Elastic Constant Matrix: (Units=GPa)
#
#
# Indices 1 2 3 4 5 6 
#
# 1 88.1572 30.2613 25.2030 0.0000 0.0000 0.0000
# 2 30.2613 43.1751 20.4301 0.0000 0.0000 0.0000
# 3 25.2030 20.4301 95.4180 0.0000 0.0000 0.0000
# 4 0.0000 0.0000 0.0000 1.0469 0.0000 0.0000
# 5 0.0000 0.0000 0.0000 0.0000 -1.3217 0.0000
# 6 0.0000 0.0000 0.0000 0.0000 0.0000 26.9012
#
#
#
# Elastic Compliance Matrix: (Units=1/GPa)
#
#
# Indices 1 2 3 4 5 6 
#
# 1 0.015252 -0.009774 -0.001936 0.000000 0.000000 0.000000
# 2 -0.009774 0.032036 -0.004278 0.000000 0.000000 0.000000
# 3 -0.001936 -0.004278 0.011907 0.000000 0.000000 0.000000
# 4 0.000000 0.000000 0.000000 0.955190 0.000001 0.000000
# 5 0.000000 0.000000 0.000000 0.000001 -0.756594 0.000000
# 6 0.000000 0.000000 0.000000 0.000000 0.000000 0.037173
#
#
# Mechanical properties :
#
#
# Convention : Reuss Voigt Hill
#
# Bulk Modulus (GPa) = 36.73693 42.05989 39.39841
# Shear Modulus (GPa) = 14.88039 15.38235 15.13137
#
# Velocity S-wave (km/s) = 2.44206 2.48290 2.46257
# Velocity P-wave (km/s) = 4.76179 5.00761 4.88625
#
# Compressibility (1/GPa) = 0.02722057
#
# Stress axis : x y z
#
# Youngs Moduli (GPa) = 65.56584 31.21464 83.98123
#
# Poissons Ratio (x) = 0.30509 0.16257
# Poissons Ratio (y) = 0.64084 0.35925
# Poissons Ratio (z) = 0.12692 0.13353
#
# Static dielectric constant tensor:
#      x y z
#    x 2.024310 0.000000 0.000000 
#    y 0.000000 2.009240 0.000000 
#    z 0.000000 0.000000 2.106550 
# 
# From -- ./inp_files/31597.got.cif
#   From: 2010.05.17/outbox.cif.g08.bks.cpg/sg72_16_cif.got.tgz:31597.got - 2010.06.03 17:03:01.
