data_PCOD9529237
_publ_section_title
;
Structure prediction by ZEFSAII (Michael W. Deem and Ramdas Pophale) SiO2 
 PCOD9529237
Probable space group: I B A M
;
_chemical_formula_sum "Si O2"
_cell_formula_units_Z 52
_cell_length_a 4.858299
_cell_length_b 28.419473
_cell_length_c 16.460939
_cell_angle_alpha 90.000000
_cell_angle_beta 90.000000
_cell_angle_gamma 90.000000
_cell_volume 2272.766741
_symmetry_space_group_name_H-M "I B A M"
_symmetry_group_IT_number 72
_symmetry_cell_setting 'orthorhombic'
loop_
_space_group_symop_operation_xyz
x,y,z
-x,-y,z
x,-y,1/2-z
-x,y,1/2-z
-x,-y,-z
x,y,-z
-x,y,1/2+z
x,-y,1/2+z
1/2+x,1/2+y,1/2+z
1/2-x,1/2-y,1/2+z
1/2+x,1/2-y,-z
1/2-x,1/2+y,-z
1/2-x,1/2-y,1/2-z
1/2+x,1/2+y,1/2-z
1/2-x,1/2+y,z
1/2+x,1/2-y,z
loop_
_atom_site_type_symbol
_atom_site_label
_atom_site_fract_x
_atom_site_fract_y
_atom_site_fract_z
Si Si1 0.802563 0.125990 0.594264
Si Si2 0.506807 0.778251 0.901202
Si Si3 0.666961 0.917748 0.329625
Si Si4 0.500000 0.500000 0.750000
O O1 0.879964 0.132249 0.500000
O O2 0.642808 0.172798 0.622856
O O3 0.574034 0.084828 0.603745
O O4 0.076484 0.114008 0.643366
O O5 0.202014 0.764913 0.875166
O O6 0.501165 0.779479 0.000000
O O7 0.500000 0.901650 0.250000
O O8 0.806249 0.967000 0.305001
#
# Coordination Sequence:
#
# PCOD9529237 Si02
#       4
#    16  16  16   4
#     4  11  23  40  67 104 132 161 214 276 319 353
#     4   9  17  32  57  90 130 171 207 247 303 374
#     4  12  24  44  70  91 126 172 220 254 320 405
#     4  12  26  48  72  88 114 176 232 244 314 436
#
# _framework density 22.879604
#
# number of rings (size 3 to 8) (size 9 to 14) (size 15 to 20)
#    0.000    1.231    3.077    3.231    0.000    4.923 
#    0.000    4.615    0.000   18.462    0.000    0.000 
#    0.000    0.000    0.000    0.000    0.000    0.000 
#
# Total GULP energy -145271.806088 kJ/mol
# GULP energy per Si atom -5587.377157 kJ/mol
# Density = 2.282753 g / cm^3
# Si number density = 22.879604 Si / 1000 Ang^3
#
#
#
# Elastic Constant Matrix: (Units=GPa)
#
#
# Indices 1 2 3 4 5 6 
#
# 1 138.3003 29.3763 8.4003 0.0000 0.0000 0.0000
# 2 29.3763 84.1398 26.3705 0.0000 0.0000 0.0000
# 3 8.4003 26.3705 33.0972 0.0000 0.0000 0.0000
# 4 0.0000 0.0000 0.0000 17.3462 0.0000 0.0000
# 5 0.0000 0.0000 0.0000 0.0000 42.6886 0.0000
# 6 0.0000 0.0000 0.0000 0.0000 0.0000 -0.7085
#
#
#
# Elastic Compliance Matrix: (Units=1/GPa)
#
#
# Indices 1 2 3 4 5 6 
#
# 1 0.007811 -0.002807 0.000254 0.000000 0.000000 0.000000
# 2 -0.002807 0.016849 -0.012712 0.000000 0.000000 0.000001
# 3 0.000254 -0.012712 0.040278 0.000000 0.000000 -0.000003
# 4 0.000000 0.000000 0.000000 0.057650 0.000000 -0.000001
# 5 0.000000 0.000000 0.000000 0.000000 0.023425 0.000000
# 6 0.000000 0.000001 -0.000003 -0.000001 0.000000 -1.411335
#
#
# Mechanical properties :
#
#
# Convention : Reuss Voigt Hill
#
# Bulk Modulus (GPa) = 29.06291 42.64794 35.85542
# Shear Modulus (GPa) = -4.08724 24.62458 10.26867
#
# Velocity S-wave (km/s) = -1.33802 3.28421 2.12082
# Velocity P-wave (km/s) = 3.21606 5.74996 4.65860
#
# Compressibility (1/GPa) = 0.03440812
#
# Stress axis : x y z
#
# Youngs Moduli (GPa) = 128.01771 59.35013 24.82723
#
# Poissons Ratio (x) = 0.16658 -0.00630
# Poissons Ratio (y) = 0.35932 0.31561
# Poissons Ratio (z) = -0.03248 0.75448
#
# Static dielectric constant tensor:
#      x y z
#    x 1.830280 0.000000 0.000000 
#    y 0.000000 1.910350 0.000000 
#    z 0.000000 0.000000 1.894030 
# 
# From -- ./inp_files/26860.got.cif
#   From: 2010.05.17/outbox.cif.g08.bks.cpg/sg72_14_cif.got.tgz:26860.got - 2010.06.03 17:03:01.
