data_PCOD9529702
_publ_section_title
;
Structure prediction by ZEFSAII (Michael W. Deem and Ramdas Pophale) SiO2 
 PCOD9529702
Probable space group: I B C A 
;
_chemical_formula_sum "Si O2"
_cell_formula_units_Z 96
_cell_length_a 8.959232
_cell_length_b 27.939286
_cell_length_c 16.823466
_cell_angle_alpha 90.000000
_cell_angle_beta 90.000000
_cell_angle_gamma 90.000000
_cell_volume 4211.158240
_symmetry_space_group_name_H-M "I B C A "
_symmetry_group_IT_number 73
_symmetry_cell_setting 'orthorhombic'
loop_
_space_group_symop_operation_xyz
x,y,z
-x,1/2-y,z
x,-y,1/2-z
1/2-x,y,-z
-x,-y,-z
x,1/2+y,-z
-x,y,1/2+z
1/2+x,-y,z
1/2+x,1/2+y,1/2+z
1/2-x,-y,1/2+z
1/2+x,1/2-y,-z
-x,1/2+y,1/2-z
1/2-x,1/2-y,1/2-z
1/2+x,y,1/2-z
1/2-x,1/2+y,z
x,1/2-y,1/2+z
loop_
_atom_site_type_symbol
_atom_site_label
_atom_site_fract_x
_atom_site_fract_y
_atom_site_fract_z
Si Si1 0.047073 0.334472 0.702967
Si Si2 0.094463 0.995925 0.621608
Si Si3 0.351335 0.939197 0.708401
Si Si4 0.288047 0.329327 0.137921
Si Si5 0.158060 0.566944 0.598892
Si Si6 0.337417 0.234179 0.931193
O O1 0.119183 0.385364 0.681531
O O2 0.084835 0.324435 0.794880
O O3 0.125386 0.295042 0.648091
O O4 0.871046 0.337105 0.683577
O O5 0.200350 0.034203 0.578671
O O6 0.983105 0.028418 0.673396
O O7 0.200995 0.962330 0.674838
O O8 0.992742 0.959278 0.571582
O O9 0.348506 0.936746 0.803781
O O10 0.322926 0.376601 0.085871
O O11 0.260404 0.280748 0.090323
O O12 0.500000 0.250000 0.961324
O O13 0.250000 0.206456 0.000000
#
# Coordination Sequence:
#
# PCOD9529702 Si02
#       6
#    16  16  16  16  16  16
#     4  10  21  35  56  85 118 144 181 229 280 327
#     4  10  17  26  42  70 111 152 179 218 257 326
#     4  10  17  26  43  72 112 147 182 211 272 313
#     4  10  21  35  56  85 118 144 181 229 280 327
#     4  10  17  26  43  72 112 147 182 211 272 313
#     4  10  23  44  62  82 106 144 187 234 280 336
#
# _framework density 22.796578
#
# number of rings (size 3 to 8) (size 9 to 14) (size 15 to 20)
#    0.000    2.000    1.667    4.500    7.000    1.333 
#    0.000    0.000    0.000    0.000    0.000    7.000 
#    0.000    0.000    0.000    0.000    0.000    0.000 
#
# Total GULP energy -268396.289976 kJ/mol
# GULP energy per Si atom -5591.589375 kJ/mol
# Density = 2.274469 g / cm^3
# Si number density = 22.796578 Si / 1000 Ang^3
#
#
#
# Elastic Constant Matrix: (Units=GPa)
#
#
# Indices 1 2 3 4 5 6 
#
# 1 82.1160 18.6690 17.3696 0.0003 0.0000 0.0000
# 2 18.6690 96.6537 0.5376 0.0001 0.0000 0.0000
# 3 17.3696 0.5376 50.6632 0.0041 0.0000 0.0000
# 4 0.0003 0.0001 0.0041 1004.4285 -0.0003 0.0000
# 5 0.0000 0.0000 0.0000 -0.0003 23.6719 0.0000
# 6 0.0000 0.0000 0.0000 0.0000 0.0000 31.4030
#
#
#
# Elastic Compliance Matrix: (Units=1/GPa)
#
#
# Indices 1 2 3 4 5 6 
#
# 1 0.013769 -0.002633 -0.004693 0.000000 0.000000 0.000000
# 2 -0.002633 0.010851 0.000788 0.000000 0.000000 0.000000
# 3 -0.004693 0.000788 0.021339 0.000000 0.000000 0.000000
# 4 0.000000 0.000000 0.000000 0.000996 0.000000 0.000000
# 5 0.000000 0.000000 0.000000 0.000000 0.042244 0.000000
# 6 0.000000 0.000000 0.000000 0.000000 0.000000 0.031844
#
#
# Mechanical properties :
#
#
# Convention : Reuss Voigt Hill
#
# Bulk Modulus (GPa) = 30.41226 33.62059 32.01642
# Shear Modulus (GPa) = 34.46377 224.75780 129.61078
#
# Velocity S-wave (km/s) = 3.89240 9.94016 7.54843
# Velocity P-wave (km/s) = 5.79402 12.10465 9.48929
#
# Compressibility (1/GPa) = 0.03288147
#
# Stress axis : x y z
#
# Youngs Moduli (GPa) = 72.62561 92.16159 46.86313
#
# Poissons Ratio (x) = 0.24271 0.21992
# Poissons Ratio (y) = 0.19126 -0.03692
# Poissons Ratio (z) = 0.34082 -0.07260
#
# Static dielectric constant tensor:
#      x y z
#    x 1.851760 0.000000 0.000000 
#    y 0.000000 1.872900 0.000000 
#    z 0.000000 0.000000 1.854150 
# 
# From -- ./inp_files/24890.got.cif
#   From: 2010.05.17/outbox.cif.g08.bks.cpg/sg73_13_cif.got.tgz:24890.got - 2010.06.03 17:35:07.
