data_PCOD9529885
_publ_section_title
;
Structure prediction by ZEFSAII (Michael W. Deem and Ramdas Pophale) SiO2 
 PCOD9529885
Probable space group: I B C A 
;
_chemical_formula_sum "Si O2"
_cell_formula_units_Z 120
_cell_length_a 20.309706
_cell_length_b 15.222059
_cell_length_c 19.225753
_cell_angle_alpha 90.000000
_cell_angle_beta 90.000000
_cell_angle_gamma 90.000000
_cell_volume 5943.748108
_symmetry_space_group_name_H-M "I B C A "
_symmetry_group_IT_number 73
_symmetry_cell_setting 'orthorhombic'
loop_
_space_group_symop_operation_xyz
x,y,z
-x,1/2-y,z
x,-y,1/2-z
1/2-x,y,-z
-x,-y,-z
x,1/2+y,-z
-x,y,1/2+z
1/2+x,-y,z
1/2+x,1/2+y,1/2+z
1/2-x,-y,1/2+z
1/2+x,1/2-y,-z
-x,1/2+y,1/2-z
1/2-x,1/2-y,1/2-z
1/2+x,y,1/2-z
1/2-x,1/2+y,z
x,1/2-y,1/2+z
loop_
_atom_site_type_symbol
_atom_site_label
_atom_site_fract_x
_atom_site_fract_y
_atom_site_fract_z
Si Si1 0.740505 0.156331 0.172253
Si Si2 0.904158 0.694676 0.470176
Si Si3 0.904877 0.590585 0.337940
Si Si4 0.318020 0.632605 0.541894
Si Si5 0.413186 0.612834 0.324732
Si Si6 0.500000 0.750000 0.411724
Si Si7 0.249199 0.366704 0.669010
Si Si8 0.182744 0.948934 0.539315
O O1 0.788342 0.113009 0.117481
O O2 0.663963 0.133696 0.161341
O O3 0.749086 0.260944 0.159918
O O4 0.761388 0.125038 0.248753
O O5 0.931489 0.654582 0.398179
O O6 0.868770 0.788061 0.460000
O O7 0.953612 0.698842 0.534406
O O8 0.848975 0.628628 0.496666
O O9 0.924552 0.488665 0.345963
O O10 0.922376 0.618670 0.259035
O O11 0.824976 0.598247 0.342460
O O12 0.250000 0.654973 0.500000
O O13 0.354549 0.540814 0.526436
O O14 0.458085 0.682478 0.365006
O O15 0.299112 0.413300 0.616089
O O16 0.250000 0.969890 0.500000
#
# Coordination Sequence:
#
# PCOD9529885 Si02
#       8
#    16  16  16  16  16   8  16  16
#     4  10  19  34  63  94 132 159 206 246 311 388
#     4  12  25  42  61  94 122 167 210 265 311 381
#     4  10  21  41  68  91 125 158 215 260 319 379
#     4  11  22  36  60  94 130 166 196 248 321 383
#     4  10  23  42  66  94 119 171 214 263 313 385
#     4  12  28  44  68  84 120 166 222 274 320 364
#     4  10  18  33  60  98 128 168 190 247 309 381
#     4  11  21  35  62  92 132 164 195 251 315 389
#
# _framework density 20.189281999999999
#
# number of rings (size 3 to 8) (size 9 to 14) (size 15 to 20)
#    0.000    1.333    2.667    3.600    3.733    2.667 
#    0.000    0.000    0.000    0.000    0.000    0.000 
#    0.000    0.000    0.000    0.000    0.000    0.000 
#
# Total GULP energy -334861.070656 kJ/mol
# GULP energy per Si atom -5581.017844 kJ/mol
# Density = 2.014333 g / cm^3
# Si number density = 20.189282 Si / 1000 Ang^3
#
#
#
# Elastic Constant Matrix: (Units=GPa)
#
#
# Indices 1 2 3 4 5 6 
#
# 1 11.6510 12.9144 17.8549 0.0000 0.0000 0.0000
# 2 12.9144 123.1156 45.3142 0.0000 0.0000 0.0000
# 3 17.8549 45.3142 105.6451 0.0000 0.0000 0.0000
# 4 0.0000 0.0000 0.0000 14.2648 0.0000 0.0000
# 5 0.0000 0.0000 0.0000 0.0000 18.8400 0.0000
# 6 0.0000 0.0000 0.0000 0.0000 0.0000 -9.0540
#
#
#
# Elastic Compliance Matrix: (Units=1/GPa)
#
#
# Indices 1 2 3 4 5 6 
#
# 1 0.119518 -0.006059 -0.017601 0.000000 0.000000 0.000000
# 2 -0.006059 0.009952 -0.003245 0.000000 0.000000 0.000000
# 3 -0.017601 -0.003245 0.013832 0.000000 0.000000 0.000000
# 4 0.000000 0.000000 0.000000 0.070103 0.000000 0.000000
# 5 0.000000 0.000000 0.000000 0.000000 0.053079 0.000000
# 6 0.000000 0.000000 0.000000 0.000000 0.000000 -0.110448
#
#
# Mechanical properties :
#
#
# Convention : Reuss Voigt Hill
#
# Bulk Modulus (GPa) = 11.17401 43.61986 27.39693
# Shear Modulus (GPa) = 20.86159 15.76537 18.31348
#
# Velocity S-wave (km/s) = 3.21799 2.79745 3.01506
# Velocity P-wave (km/s) = 4.39931 5.66451 5.07152
#
# Compressibility (1/GPa) = 0.08949337
#
# Stress axis : x y z
#
# Youngs Moduli (GPa) = 8.36696 100.47925 72.29554
#
# Poissons Ratio (x) = 0.60879 1.27245
# Poissons Ratio (y) = 0.05069 0.23459
# Poissons Ratio (z) = 0.14726 0.32604
#
# Static dielectric constant tensor:
#      x y z
#    x 1.623960 0.000000 0.000000 
#    y 0.000000 1.627860 0.000000 
#    z 0.000000 0.000000 1.781620 
# 
# From -- ./inp_files/27019.got.cif
#   From: 2010.05.17/outbox.cif.g08.bks.cpg/sg73_14_cif.got.tgz:27019.got - 2010.06.03 17:35:07.
