data_PCOD9529832
_publ_section_title
;
Structure prediction by ZEFSAII (Michael W. Deem and Ramdas Pophale) SiO2 
 PCOD9529832
Probable space group: I B C A 
;
_chemical_formula_sum "Si O2"
_cell_formula_units_Z 64
_cell_length_a 5.096588
_cell_length_b 31.768165
_cell_length_c 23.288737
_cell_angle_alpha 90.000000
_cell_angle_beta 90.000000
_cell_angle_gamma 90.000000
_cell_volume 3770.661907
_symmetry_space_group_name_H-M "I B C A "
_symmetry_group_IT_number 73
_symmetry_cell_setting 'orthorhombic'
loop_
_space_group_symop_operation_xyz
x,y,z
-x,1/2-y,z
x,-y,1/2-z
1/2-x,y,-z
-x,-y,-z
x,1/2+y,-z
-x,y,1/2+z
1/2+x,-y,z
1/2+x,1/2+y,1/2+z
1/2-x,-y,1/2+z
1/2+x,1/2-y,-z
-x,1/2+y,1/2-z
1/2-x,1/2-y,1/2-z
1/2+x,y,1/2-z
1/2-x,1/2+y,z
x,1/2-y,1/2+z
loop_
_atom_site_type_symbol
_atom_site_label
_atom_site_fract_x
_atom_site_fract_y
_atom_site_fract_z
Si Si1 0.483215 0.699490 0.715193
Si Si2 0.250000 0.970326 0.500000
Si Si3 0.778298 0.343669 0.395110
Si Si4 0.276777 0.388114 0.434999
Si Si5 0.250000 0.220645 0.500000
O O1 0.500000 0.750000 0.706168
O O2 0.780953 0.688868 0.732917
O O3 0.349157 0.677482 0.660870
O O4 0.236207 0.937619 0.553482
O O5 0.500000 0.000000 0.500000
O O6 0.568427 0.378508 0.414978
O O7 0.790459 0.308293 0.444346
O O8 0.062086 0.365927 0.394801
O O9 0.250000 0.369423 0.500000
O O10 0.500000 0.250000 0.490834
#
# Coordination Sequence:
#
# PCOD9529832 Si02
#       5
#    16   8  16  16   8
#     4  10  22  38  54  73  99 141 192 237 271 299
#     4  10  18  32  52  78 116 146 164 196 248 332
#     4  12  20  37  51  73 109 139 174 221 272 311
#     4  10  20  33  52  77 109 142 161 207 261 320
#     4  12  22  30  46  72  98 134 174 206 260 318
#
# _framework density 16.973146
#
# number of rings (size 3 to 8) (size 9 to 14) (size 15 to 20)
#    0.750    0.500    2.500    5.250    0.000    3.000 
#    0.000    0.000    0.000    0.000    0.000    0.000 
#    0.000   70.000    0.000    0.000    0.000    0.000 
#
# Total GULP energy -178360.460865 kJ/mol
# GULP energy per Si atom -5573.764402 kJ/mol
# Density = 1.693451 g / cm^3
# Si number density = 16.973146 Si / 1000 Ang^3
#
#
#
# Elastic Constant Matrix: (Units=GPa)
#
#
# Indices 1 2 3 4 5 6 
#
# 1 88.9978 29.2433 -14.8582 0.0000 0.0000 0.0000
# 2 29.2433 90.0404 15.8219 0.0000 0.0000 0.0000
# 3 -14.8582 15.8219 44.8627 0.0000 0.0000 0.0000
# 4 0.0000 0.0000 0.0000 19.2099 0.0000 0.0000
# 5 0.0000 0.0000 0.0000 0.0000 26.9978 0.0000
# 6 0.0000 0.0000 0.0000 0.0000 0.0000 -3.1396
#
#
#
# Elastic Compliance Matrix: (Units=1/GPa)
#
#
# Indices 1 2 3 4 5 6 
#
# 1 0.014286 -0.005833 0.006789 0.000000 0.000000 0.000000
# 2 -0.005833 0.014221 -0.006947 0.000000 0.000000 0.000000
# 3 0.006789 -0.006947 0.026989 0.000000 0.000000 0.000000
# 4 0.000000 0.000000 0.000000 0.052056 0.000000 0.000000
# 5 0.000000 0.000000 0.000000 0.000000 0.037040 0.000000
# 6 0.000000 0.000000 0.000000 0.000000 0.000000 -0.318507
#
#
# Mechanical properties :
#
#
# Convention : Reuss Voigt Hill
#
# Bulk Modulus (GPa) = 22.98155 31.59052 27.28604
# Shear Modulus (GPa) = -33.91493 21.52654 -6.19419
#
# Velocity S-wave (km/s) = -4.47492 3.56514 -1.91242
# Velocity P-wave (km/s) = 3.62361 5.96653 3.35178
#
# Compressibility (1/GPa) = 0.04351316
#
# Stress axis : x y z
#
# Youngs Moduli (GPa) = 69.99803 70.31738 37.05264
#
# Poissons Ratio (x) = 0.41014 -0.25153
# Poissons Ratio (y) = 0.40828 0.25741
# Poissons Ratio (z) = -0.47518 0.48851
#
# Static dielectric constant tensor:
#      x y z
#    x 1.545260 0.000000 0.000000 
#    y 0.000000 1.552240 0.000000 
#    z 0.000000 0.000000 1.584450 
# 
# From -- ./inp_files/24468.got.cif
#   From: 2010.05.17/outbox.cif.g08.bks.cpg/sg73_13_cif.got.tgz:24468.got - 2010.06.03 17:35:07.
