data_PCOD9529550
_publ_section_title
;
Structure prediction by ZEFSAII (Michael W. Deem and Ramdas Pophale) SiO2 
 PCOD9529550
Probable space group: I B A M
;
_chemical_formula_sum "Si O2"
_cell_formula_units_Z 48
_cell_length_a 15.000000
_cell_length_b 21.000000
_cell_length_c 15.000000
_cell_angle_alpha 90.000000
_cell_angle_beta 90.000000
_cell_angle_gamma 90.000000
_cell_volume 4725.000000
_symmetry_space_group_name_H-M "I B A M"
_symmetry_group_IT_number 72
_symmetry_cell_setting 'orthorhombic'
loop_
_space_group_symop_operation_xyz
x,y,z
-x,-y,z
x,-y,1/2-z
-x,y,1/2-z
-x,-y,-z
x,y,-z
-x,y,1/2+z
x,-y,1/2+z
1/2+x,1/2+y,1/2+z
1/2-x,1/2-y,1/2+z
1/2+x,1/2-y,-z
1/2-x,1/2+y,-z
1/2-x,1/2-y,1/2-z
1/2+x,1/2+y,1/2-z
1/2-x,1/2+y,z
1/2+x,1/2-y,z
loop_
_atom_site_type_symbol
_atom_site_label
_atom_site_fract_x
_atom_site_fract_y
_atom_site_fract_z
Si Si1 0.041088 0.807553 0.166764
Si Si2 0.079054 0.300794 0.101380
Si Si3 0.149207 0.981107 0.500000
Si Si4 0.984141 0.897818 0.500000
Si Si5 0.047339 0.440340 0.845797
Si Si6 0.719585 0.676438 0.108123
Si Si7 0.755642 0.032354 0.838614
O O1 0.143616 0.787211 0.161779
O O2 0.000000 0.843855 0.250000
O O3 0.979984 0.746281 0.156994
O O4 0.031873 0.854117 0.084227
O O5 0.045314 0.373054 0.106115
O O6 0.181485 0.301216 0.130091
O O7 0.074848 0.278300 0.000000
O O8 0.212862 0.986683 0.583633
O O9 0.082308 0.042038 0.500000
O O10 0.085041 0.921603 0.500000
O O11 0.149746 0.459622 0.834025
O O12 0.000000 0.500000 0.891541
O O13 0.000000 0.432006 0.750000
O O14 0.711468 0.603106 0.138705
O O15 0.710470 0.680271 0.000000
O O16 0.790768 0.000000 0.750000
#
# Coordination Sequence:
#
# PCOD9529550 Si02
#       7
#    16  16   8   8  16  16  16
#     4  12  23  41  66  92 124 172 208 261 321 377
#     4  10  22  39  66  89 121 172 217 257 314 382
#     4  11  24  40  64  95 123 175 203 271 306 384
#     4  11  24  44  61  91 140 153 218 263 317 370
#     4  10  20  39  58  92 129 164 204 265 318 365
#     4  10  20  41  64  89 125 168 212 255 319 386
#     4  11  20  37  64  90 125 167 213 252 318 382
#
# _framework density 10.15873
#
# number of rings (size 3 to 8) (size 9 to 14) (size 15 to 20)
#    0.000    1.333    5.833    0.500    3.500    1.000 
#    0.000    3.333    0.000    0.000    0.000    0.000 
#    0.000    0.000    0.000    0.000    0.000    0.000 
#
# Total GULP energy -267503.107559 kJ/mol
# GULP energy per Si atom -5572.981407 kJ/mol
# Density = 1.013561 g / cm^3
# Si number density = 10.158730 Si / 1000 Ang^3
#
#
#
# Elastic Constant Matrix: (Units=GPa)
#
#
# Indices 1 2 3 4 5 6 
#
# 1 127.5565 38.5674 54.3184 0.0000 0.0000 0.0000
# 2 38.5674 31.4951 12.0814 0.0000 0.0001 0.0000
# 3 54.3184 12.0814 96.8639 0.0001 0.0002 0.0000
# 4 0.0000 0.0000 0.0001 2.5009 0.0001 0.0000
# 5 0.0000 0.0001 0.0002 0.0001 59.8583 0.0000
# 6 0.0000 0.0000 0.0000 0.0000 0.0000 19.2192
#
#
#
# Elastic Compliance Matrix: (Units=1/GPa)
#
#
# Indices 1 2 3 4 5 6 
#
# 1 0.015775 -0.016724 -0.006760 0.000000 0.000000 0.000000
# 2 -0.016724 0.051077 0.003008 -0.000001 0.000000 0.000000
# 3 -0.006760 0.003008 0.013740 0.000000 0.000000 0.000000
# 4 0.000000 -0.000001 0.000000 0.399851 -0.000001 -0.000001
# 5 0.000000 0.000000 0.000000 -0.000001 0.016706 0.000000
# 6 0.000000 0.000000 0.000000 -0.000001 0.000000 0.052031
#
#
# Mechanical properties :
#
#
# Convention : Reuss Voigt Hill
#
# Bulk Modulus (GPa) = 25.22817 51.76111 38.49464
# Shear Modulus (GPa) = 8.28711 26.37889 17.33300
#
# Velocity S-wave (km/s) = 2.02180 3.60715 2.92397
# Velocity P-wave (km/s) = 4.23015 6.54830 5.51246
#
# Compressibility (1/GPa) = 0.03963823
#
# Stress axis : x y z
#
# Youngs Moduli (GPa) = 63.39112 19.57836 72.78251
#
# Poissons Ratio (x) = 0.32743 0.49203
# Poissons Ratio (y) = 1.06016 -0.21892
# Poissons Ratio (z) = 0.42854 -0.05889
#
# Static dielectric constant tensor:
#      x y z
#    x 1.770650 0.000000 0.000000 
#    y 0.000000 1.707790 0.000000 
#    z 0.000000 0.000000 1.730280 
# 
# From -- ./inp_files/21911.got.cif
#   From: 2010.05.17/outbox.ucp.g08.bks.cvg/sg72_11_cif.got.tgz:21911.got - 2010.06.11 16:33:07.
