data_PCOD9529279
_publ_section_title
;
Structure prediction by ZEFSAII (Michael W. Deem and Ramdas Pophale) SiO2 
 PCOD9529279
Probable space group: I B A M
;
_chemical_formula_sum "Si O2"
_cell_formula_units_Z 96
_cell_length_a 9.886508
_cell_length_b 35.227454
_cell_length_c 15.025681
_cell_angle_alpha 90.000000
_cell_angle_beta 90.000000
_cell_angle_gamma 90.000000
_cell_volume 5233.091676
_symmetry_space_group_name_H-M "I B A M"
_symmetry_group_IT_number 72
_symmetry_cell_setting 'orthorhombic'
loop_
_space_group_symop_operation_xyz
x,y,z
-x,-y,z
x,-y,1/2-z
-x,y,1/2-z
-x,-y,-z
x,y,-z
-x,y,1/2+z
x,-y,1/2+z
1/2+x,1/2+y,1/2+z
1/2-x,1/2-y,1/2+z
1/2+x,1/2-y,-z
1/2-x,1/2+y,-z
1/2-x,1/2-y,1/2-z
1/2+x,1/2+y,1/2-z
1/2-x,1/2+y,z
1/2+x,1/2-y,z
loop_
_atom_site_type_symbol
_atom_site_label
_atom_site_fract_x
_atom_site_fract_y
_atom_site_fract_z
Si Si1 0.540605 0.158229 0.349433
Si Si2 0.234953 0.099785 0.105212
Si Si3 0.211176 0.605224 0.397623
Si Si4 0.485105 0.353677 0.146184
Si Si5 0.890890 0.717639 0.500000
Si Si6 0.836938 0.455891 0.247343
Si Si7 0.068930 0.792855 0.500000
O O1 0.500000 0.169535 0.250000
O O2 0.678582 0.134112 0.352012
O O3 0.426388 0.129009 0.383531
O O4 0.560839 0.193359 0.414771
O O5 0.080209 0.110410 0.122933
O O6 0.281889 0.062714 0.156993
O O7 0.261615 0.098674 0.000000
O O8 0.218967 0.592582 0.500000
O O9 0.333598 0.633930 0.377027
O O10 0.214442 0.570226 0.328812
O O11 0.500000 0.344803 0.250000
O O12 0.537007 0.319432 0.084845
O O13 0.726953 0.719252 0.500000
O O14 0.966902 0.757593 0.500000
O O15 0.799305 0.500000 0.250000
O O16 0.000000 0.453120 0.250000
#
# Coordination Sequence:
#
# PCOD9529279 Si02
#       7
#    16  16  16  16   8  16   8
#     4  12  21  40  68  94 122 172 222 260 312 387
#     4  12  20  41  67  94 125 177 221 262 315 391
#     4  12  22  37  67 100 126 166 225 267 312 382
#     4  12  23  42  70  96 126 170 221 266 315 389
#     4  12  28  46  66  96 137 169 209 276 330 380
#     4  11  24  40  62 101 140 167 212 279 332 376
#     4  12  28  48  64 100 135 168 210 271 335 379
#
# _framework density 18.344797
#
# number of rings (size 3 to 8) (size 9 to 14) (size 15 to 20)
#    0.000    0.167   10.000    0.000    2.333    1.333 
#    0.000    5.000    0.000    2.000    0.000    0.000 
#    0.000    0.000    0.000    0.000    0.000    0.000 
#
# Total GULP energy -268338.340037 kJ/mol
# GULP energy per Si atom -5590.382084 kJ/mol
# Density = 1.830304 g / cm^3
# Si number density = 18.344797 Si / 1000 Ang^3
#
#
#
# Elastic Constant Matrix: (Units=GPa)
#
#
# Indices 1 2 3 4 5 6 
#
# 1 65.4351 24.6001 17.6307 0.0002 -0.0001 0.0000
# 2 24.6001 110.6432 46.6508 0.0007 -0.0002 0.0000
# 3 17.6307 46.6508 155.9749 0.0046 -0.0008 -0.0002
# 4 0.0002 0.0007 0.0046 -2.2539 0.0013 0.0002
# 5 -0.0001 -0.0002 -0.0008 0.0013 15.6402 -0.0002
# 6 0.0000 0.0000 -0.0002 0.0002 -0.0002 18.9241
#
#
#
# Elastic Compliance Matrix: (Units=1/GPa)
#
#
# Indices 1 2 3 4 5 6 
#
# 1 0.016784 -0.003355 -0.000894 -0.000001 0.000000 0.000000
# 2 -0.003355 0.011013 -0.002915 -0.000003 0.000000 0.000000
# 3 -0.000894 -0.002915 0.007384 0.000014 0.000000 0.000000
# 4 -0.000001 -0.000003 0.000014 -0.443673 0.000037 0.000004
# 5 0.000000 0.000000 0.000000 0.000037 0.063938 0.000001
# 6 0.000000 0.000000 0.000000 0.000004 0.000001 0.052843
#
#
# Mechanical properties :
#
#
# Convention : Reuss Voigt Hill
#
# Bulk Modulus (GPa) = 47.95100 56.64626 52.29863
# Shear Modulus (GPa) = -18.48886 22.67352 2.09233
#
# Velocity S-wave (km/s) = -3.17811 3.51944 1.06913
# Velocity P-wave (km/s) = 3.56767 6.88919 5.48586
#
# Compressibility (1/GPa) = 0.02085462
#
# Stress axis : x y z
#
# Youngs Moduli (GPa) = 59.57904 90.80262 135.42680
#
# Poissons Ratio (x) = 0.30464 0.12104
# Poissons Ratio (y) = 0.19988 0.39472
# Poissons Ratio (z) = 0.05325 0.26466
#
# Static dielectric constant tensor:
#      x y z
#    x 1.624410 0.000000 0.000000 
#    y 0.000000 1.595650 0.000000 
#    z 0.000000 0.000000 1.638310 
# 
# From -- ./inp_files/20641.got.cif
#   From: 2010.05.17/outbox.cif.g08.bks.cpg/sg72_11_cif.got.tgz:20641.got - 2010.06.03 17:03:01.
