data_PCOD9529349
_publ_section_title
;
Structure prediction by ZEFSAII (Michael W. Deem and Ramdas Pophale) SiO2 
 PCOD9529349
Probable space group: I B A M
;
_chemical_formula_sum "Si O2"
_cell_formula_units_Z 96
_cell_length_a 13.760263
_cell_length_b 23.796522
_cell_length_c 14.711692
_cell_angle_alpha 90.000000
_cell_angle_beta 90.000000
_cell_angle_gamma 90.000000
_cell_volume 4817.290601
_symmetry_space_group_name_H-M "I B A M"
_symmetry_group_IT_number 72
_symmetry_cell_setting 'orthorhombic'
loop_
_space_group_symop_operation_xyz
x,y,z
-x,-y,z
x,-y,1/2-z
-x,y,1/2-z
-x,-y,-z
x,y,-z
-x,y,1/2+z
x,-y,1/2+z
1/2+x,1/2+y,1/2+z
1/2-x,1/2-y,1/2+z
1/2+x,1/2-y,-z
1/2-x,1/2+y,-z
1/2-x,1/2-y,1/2-z
1/2+x,1/2+y,1/2-z
1/2-x,1/2+y,z
1/2+x,1/2-y,z
loop_
_atom_site_type_symbol
_atom_site_label
_atom_site_fract_x
_atom_site_fract_y
_atom_site_fract_z
Si Si1 0.247322 0.776140 0.150275
Si Si2 0.626734 0.790765 0.000000
Si Si3 0.425353 0.624345 0.000000
Si Si4 0.536610 0.440595 0.647741
Si Si5 0.905532 0.257499 0.500000
Si Si6 0.885595 0.504382 0.141516
Si Si7 0.260287 0.599037 0.606248
Si Si8 0.706257 0.081527 0.500000
O O1 0.250000 0.750000 0.250000
O O2 0.345794 0.773679 0.090371
O O3 0.228293 0.842442 0.158036
O O4 0.171053 0.741996 0.087403
O O5 0.511341 0.784365 0.000000
O O6 0.659484 0.855966 0.000000
O O7 0.488880 0.607157 0.913275
O O8 0.322157 0.592054 0.000000
O O9 0.409070 0.690326 0.000000
O O10 0.500000 0.500000 0.611202
O O11 0.500000 0.434905 0.750000
O O12 0.652118 0.439624 0.640487
O O13 0.874660 0.500000 0.250000
O O14 0.838827 0.564396 0.115688
O O15 0.000000 0.500000 0.119186
O O16 0.828955 0.455657 0.086267
O O17 0.275151 0.611752 0.500000
#
# Coordination Sequence:
#
# PCOD9529349 Si02
#       8
#    16   8   8  16   8  16  16   8
#     4  11  26  47  69 103 135 183 231 279 348 405
#     4  11  25  46  68 105 139 176 233 284 343 410
#     4  12  23  44  68  97 138 174 222 284 339 402
#     4  11  26  41  67 103 137 175 223 270 345 410
#     4  11  25  46  68  98 136 178 227 286 340 408
#     4  11  28  46  68 101 136 179 232 278 341 405
#     4  12  24  46  73  95 141 180 226 287 333 412
#     4  12  25  42  74  97 141 175 225 286 342 399
#
# _framework density 19.928214000000001
#
# number of rings (size 3 to 8) (size 9 to 14) (size 15 to 20)
#    0.000    0.667    5.000    2.500   11.667    0.667 
#    0.000    0.000    0.000    0.000    0.000    0.000 
#    0.000    0.000    0.000    0.000    0.000    0.000 
#
# Total GULP energy -268363.945572 kJ/mol
# GULP energy per Si atom -5590.915533 kJ/mol
# Density = 1.988286 g / cm^3
# Si number density = 19.928214 Si / 1000 Ang^3
#
#
#
# Elastic Constant Matrix: (Units=GPa)
#
#
# Indices 1 2 3 4 5 6 
#
# 1 107.0532 9.8915 38.4083 0.0000 0.0000 0.0000
# 2 9.8915 108.2215 17.3722 0.0001 0.0001 0.0000
# 3 38.4083 17.3722 111.5195 0.0000 0.0001 0.0000
# 4 0.0000 0.0001 0.0000 33.1682 0.0001 0.0000
# 5 0.0000 0.0001 0.0001 0.0001 14.6697 0.0000
# 6 0.0000 0.0000 0.0000 0.0000 0.0000 26.1165
#
#
#
# Elastic Compliance Matrix: (Units=1/GPa)
#
#
# Indices 1 2 3 4 5 6 
#
# 1 0.010675 -0.000395 -0.003615 0.000000 0.000000 0.000000
# 2 -0.000395 0.009492 -0.001342 0.000000 0.000000 0.000000
# 3 -0.003615 -0.001342 0.010421 0.000000 0.000000 0.000000
# 4 0.000000 0.000000 0.000000 0.030149 0.000000 0.000000
# 5 0.000000 0.000000 0.000000 0.000000 0.068168 0.000000
# 6 0.000000 0.000000 0.000000 0.000000 0.000000 0.038290
#
#
# Mechanical properties :
#
#
# Convention : Reuss Voigt Hill
#
# Bulk Modulus (GPa) = 50.29592 50.90426 50.60009
# Shear Modulus (GPa) = 27.09622 32.19902 29.64762
#
# Velocity S-wave (km/s) = 3.69140 4.02400 3.86128
# Velocity P-wave (km/s) = 6.59257 6.86945 6.73243
#
# Compressibility (1/GPa) = 0.01988233
#
# Stress axis : x y z
#
# Youngs Moduli (GPa) = 93.68026 105.35245 95.95876
#
# Poissons Ratio (x) = 0.04166 0.34687
# Poissons Ratio (y) = 0.03704 0.12882
# Poissons Ratio (z) = 0.33864 0.14143
#
# Static dielectric constant tensor:
#      x y z
#    x 1.683520 -0.000010 0.000000 
#    y -0.000010 0.770030 0.000000 
#    z 0.000000 0.000000 1.726590 
# 
# From -- ./inp_files/22061.got.cif
#   From: 2010.05.17/outbox.cif.g08.bks.cpg/sg72_12_cif.got.tgz:22061.got - 2010.06.03 17:03:01.
