data_PCOD9529245
_publ_section_title
;
Structure prediction by ZEFSAII (Michael W. Deem and Ramdas Pophale) SiO2 
 PCOD9529245
Probable space group: I B A M
;
_chemical_formula_sum "Si O2"
_cell_formula_units_Z 56
_cell_length_a 4.766220
_cell_length_b 31.481773
_cell_length_c 15.417576
_cell_angle_alpha 90.000000
_cell_angle_beta 90.000000
_cell_angle_gamma 90.000000
_cell_volume 2313.392726
_symmetry_space_group_name_H-M "I B A M"
_symmetry_group_IT_number 72
_symmetry_cell_setting 'orthorhombic'
loop_
_space_group_symop_operation_xyz
x,y,z
-x,-y,z
x,-y,1/2-z
-x,y,1/2-z
-x,-y,-z
x,y,-z
-x,y,1/2+z
x,-y,1/2+z
1/2+x,1/2+y,1/2+z
1/2-x,1/2-y,1/2+z
1/2+x,1/2-y,-z
1/2-x,1/2+y,-z
1/2-x,1/2-y,1/2-z
1/2+x,1/2+y,1/2-z
1/2-x,1/2+y,z
1/2+x,1/2-y,z
loop_
_atom_site_type_symbol
_atom_site_label
_atom_site_fract_x
_atom_site_fract_y
_atom_site_fract_z
Si Si1 0.886338 0.455538 0.098802
Si Si2 0.231262 0.184426 0.313577
Si Si3 0.593384 0.223799 0.000000
Si Si4 0.382421 0.589354 0.340827
O O1 0.563739 0.441607 0.098473
O O2 0.000000 0.500000 0.136307
O O3 0.056327 0.418946 0.146909
O O4 0.981672 0.454971 0.000000
O O5 0.500000 0.177928 0.250000
O O6 0.321600 0.204037 0.406430
O O7 0.085363 0.139841 0.342520
O O8 0.000000 0.206905 0.250000
O O9 0.261039 0.231463 0.000000
O O10 0.500000 0.574074 0.250000
#
# Coordination Sequence:
#
# PCOD9529245 Si02
#       4
#    16  16   8  16
#     4  11  24  39  60  93 131 174 222 278 339 394
#     4  11  25  47  71 104 145 184 232 296 350 416
#     4  12  28  46  74 112 137 186 240 272 363 444
#     4  11  23  42  64  93 127 174 227 273 338 403
#
# _framework density 24.206872000000001
#
# number of rings (size 3 to 8) (size 9 to 14) (size 15 to 20)
#    0.000    0.857    0.000    7.714    4.000    9.143 
#    0.000    0.000    0.000    0.000    0.000    0.000 
#    0.000    0.000    0.000    0.000    0.000    0.000 
#
# Total GULP energy -156188.047473 kJ/mol
# GULP energy per Si atom -5578.144553 kJ/mol
# Density = 2.415178 g / cm^3
# Si number density = 24.206872 Si / 1000 Ang^3
#
#
#
# Elastic Constant Matrix: (Units=GPa)
#
#
# Indices 1 2 3 4 5 6 
#
# 1 112.4428 8.3939 19.2843 0.0000 0.0000 0.0000
# 2 8.3939 51.0626 37.8467 0.0000 0.0000 0.0000
# 3 19.2843 37.8467 148.7445 0.0000 0.0000 0.0000
# 4 0.0000 0.0000 0.0000 23.7605 0.0000 0.0000
# 5 0.0000 0.0000 0.0000 0.0000 43.7075 0.0000
# 6 0.0000 0.0000 0.0000 0.0000 0.0000 32.1080
#
#
#
# Elastic Compliance Matrix: (Units=1/GPa)
#
#
# Indices 1 2 3 4 5 6 
#
# 1 0.009120 -0.000768 -0.000987 0.000000 0.000000 0.000000
# 2 -0.000768 0.024200 -0.006058 0.000000 0.000000 0.000000
# 3 -0.000987 -0.006058 0.008392 0.000000 0.000000 0.000000
# 4 0.000000 0.000000 0.000000 0.042087 0.000000 0.000000
# 5 0.000000 0.000000 0.000000 0.000000 0.022879 0.000000
# 6 0.000000 0.000000 0.000000 0.000000 0.000000 0.031145
#
#
# Mechanical properties :
#
#
# Convention : Reuss Voigt Hill
#
# Bulk Modulus (GPa) = 38.33311 49.25553 43.79432
# Shear Modulus (GPa) = 30.83675 36.36354 33.60015
#
# Velocity S-wave (km/s) = 3.57302 3.88003 3.72968
# Velocity P-wave (km/s) = 5.73516 6.36119 6.05627
#
# Compressibility (1/GPa) = 0.02608711
#
# Stress axis : x y z
#
# Youngs Moduli (GPa) = 109.64918 41.32219 119.15669
#
# Poissons Ratio (x) = 0.03172 0.11762
# Poissons Ratio (y) = 0.08416 0.72185
# Poissons Ratio (z) = 0.10823 0.25033
#
# Static dielectric constant tensor:
#      x y z
#    x 1.911960 0.000000 0.000000 
#    y 0.000000 1.992890 0.000000 
#    z 0.000000 0.000000 2.020070 
# 
# From -- ./inp_files/17563.got.cif
#   From: 2010.05.17/outbox.cif.g08.bks.cpg/sg72_9_cif.got.tgz:17563.got - 2010.06.03 17:03:01.
