data_PCOD9529471
_publ_section_title
;
Structure prediction by ZEFSAII (Michael W. Deem and Ramdas Pophale) SiO2 
 PCOD9529471
Probable space group: I B A M
;
_chemical_formula_sum "Si O2"
_cell_formula_units_Z 112
_cell_length_a 32.670133
_cell_length_b 11.355091
_cell_length_c 14.250104
_cell_angle_alpha 90.000000
_cell_angle_beta 90.000000
_cell_angle_gamma 90.000000
_cell_volume 5286.394329
_symmetry_space_group_name_H-M "I B A M"
_symmetry_group_IT_number 72
_symmetry_cell_setting 'orthorhombic'
loop_
_space_group_symop_operation_xyz
x,y,z
-x,-y,z
x,-y,1/2-z
-x,y,1/2-z
-x,-y,-z
x,y,-z
-x,y,1/2+z
x,-y,1/2+z
1/2+x,1/2+y,1/2+z
1/2-x,1/2-y,1/2+z
1/2+x,1/2-y,-z
1/2-x,1/2+y,-z
1/2-x,1/2-y,1/2-z
1/2+x,1/2+y,1/2-z
1/2-x,1/2+y,z
1/2+x,1/2-y,z
loop_
_atom_site_type_symbol
_atom_site_label
_atom_site_fract_x
_atom_site_fract_y
_atom_site_fract_z
Si Si1 0.234472 0.769011 0.355111
Si Si2 0.480803 0.675129 0.385354
Si Si3 0.063781 0.940286 0.614724
Si Si4 0.041070 0.431094 0.614677
Si Si5 0.358081 0.309767 0.613958
Si Si6 0.874528 0.546742 0.112849
Si Si7 0.719141 0.999823 0.140774
O O1 0.250000 0.750000 0.250000
O O2 0.188324 0.818289 0.353627
O O3 0.231561 0.632832 0.395078
O O4 0.261222 0.877620 0.397010
O O5 0.480283 0.675096 0.500000
O O6 0.527832 0.650820 0.358949
O O7 0.452712 0.566726 0.354743
O O8 0.464065 0.798265 0.352361
O O9 0.064611 0.940943 0.500000
O O10 0.108728 0.904365 0.646168
O O11 0.041507 0.431631 0.500000
O O12 0.084364 0.483542 0.645155
O O13 0.000000 0.500000 0.641742
O O14 0.356856 0.311616 0.500000
O O15 0.373802 0.181684 0.645026
O O16 0.830251 0.492375 0.135798
O O17 0.876329 0.549137 0.000000
O O18 0.730893 0.000000 0.250000
#
# Coordination Sequence:
#
# PCOD9529471 Si02
#       7
#    16  16  16  16  16  16  16
#     4   9  18  33  51  68  87 117 154 195 233 282
#     4   8  13  21  34  54  87 127 156 181 218 261
#     4   8  13  22  36  56  86 123 156 185 219 263
#     4   9  15  23  37  59  88 121 154 183 217 263
#     4   9  16  27  44  66  91 119 155 191 231 280
#     4   9  17  28  44  67  93 118 147 186 230 271
#     4   9  18  34  52  67  87 119 151 190 229 279
#
# _framework density 21.186464000000001
#
# number of rings (size 3 to 8) (size 9 to 14) (size 15 to 20)
#    0.000    3.286    0.000    1.714    0.000    4.000 
#    2.571    0.000    0.000    0.429    0.000    0.000 
#    0.000    0.000    0.857    0.000    0.000    0.000 
#
# Total GULP energy -312186.473096 kJ/mol
# GULP energy per Si atom -5574.758448 kJ/mol
# Density = 2.113824 g / cm^3
# Si number density = 21.186464 Si / 1000 Ang^3
#
#
#
# Elastic Constant Matrix: (Units=GPa)
#
#
# Indices 1 2 3 4 5 6 
#
# 1 176.5416 103.8906 17.5175 0.0000 0.0000 0.0000
# 2 103.8906 112.4360 15.0585 0.0000 0.0000 0.0000
# 3 17.5175 15.0585 60.9017 0.0000 0.0000 0.0000
# 4 0.0000 0.0000 0.0000 -1.9322 0.0000 0.0000
# 5 0.0000 0.0000 0.0000 0.0000 28.6826 0.0000
# 6 0.0000 0.0000 0.0000 0.0000 0.0000 39.0408
#
#
#
# Elastic Compliance Matrix: (Units=1/GPa)
#
#
# Indices 1 2 3 4 5 6 
#
# 1 0.012449 -0.011401 -0.000762 0.000000 0.000000 0.000000
# 2 -0.011401 0.019640 -0.001577 0.000000 0.000000 0.000000
# 3 -0.000762 -0.001577 0.017029 0.000000 0.000000 0.000000
# 4 0.000000 0.000000 0.000000 -0.517538 0.000000 0.000000
# 5 0.000000 0.000000 0.000000 0.000000 0.034864 0.000000
# 6 0.000000 0.000000 0.000000 0.000000 0.000000 0.025614
#
#
# Mechanical properties :
#
#
# Convention : Reuss Voigt Hill
#
# Bulk Modulus (GPa) = 46.21374 69.20138 57.70756
# Shear Modulus (GPa) = -13.39587 27.38574 6.99493
#
# Velocity S-wave (km/s) = -2.51725 3.59918 1.81900
# Velocity P-wave (km/s) = 3.66217 7.07150 5.63105
#
# Compressibility (1/GPa) = 0.02163858
#
# Stress axis : x y z
#
# Youngs Moduli (GPa) = 80.32635 50.91744 58.72368
#
# Poissons Ratio (x) = 0.58051 0.04474
# Poissons Ratio (y) = 0.91580 0.09259
# Poissons Ratio (z) = 0.06120 0.08028
#
# Static dielectric constant tensor:
#      x y z
#    x 1.731870 0.000000 0.000000 
#    y 0.000000 1.782170 0.000000 
#    z 0.000000 0.000000 1.822720 
# 
# From -- ./inp_files/40861.got.cif
#   From: 2010.05.17/outbox.cif.g08.bks.cpg/sg72_21_cif.got.tgz:40861.got - 2010.06.03 17:03:01.
