data_PCOD9529862
_publ_section_title
;
Structure prediction by ZEFSAII (Michael W. Deem and Ramdas Pophale) SiO2 
 PCOD9529862
Probable space group: I B C A 
;
_chemical_formula_sum "Si O2"
_cell_formula_units_Z 72
_cell_length_a 13.764417
_cell_length_b 22.168799
_cell_length_c 9.141300
_cell_angle_alpha 90.000000
_cell_angle_beta 90.000000
_cell_angle_gamma 90.000000
_cell_volume 2789.381710
_symmetry_space_group_name_H-M "I B C A "
_symmetry_group_IT_number 73
_symmetry_cell_setting 'orthorhombic'
loop_
_space_group_symop_operation_xyz
x,y,z
-x,1/2-y,z
x,-y,1/2-z
1/2-x,y,-z
-x,-y,-z
x,1/2+y,-z
-x,y,1/2+z
1/2+x,-y,z
1/2+x,1/2+y,1/2+z
1/2-x,-y,1/2+z
1/2+x,1/2-y,-z
-x,1/2+y,1/2-z
1/2-x,1/2-y,1/2-z
1/2+x,y,1/2-z
1/2-x,1/2+y,z
x,1/2-y,1/2+z
loop_
_atom_site_type_symbol
_atom_site_label
_atom_site_fract_x
_atom_site_fract_y
_atom_site_fract_z
Si Si1 0.924516 0.126134 0.687985
Si Si2 0.000352 0.500000 0.750000
Si Si3 0.148892 0.165922 0.711940
Si Si4 0.841019 0.934735 0.084226
Si Si5 0.114403 0.728400 0.585509
O O1 0.884780 0.116266 0.525102
O O2 0.877125 0.174247 0.795880
O O3 0.035961 0.147246 0.690278
O O4 0.931869 0.057869 0.743085
O O5 0.923773 0.483002 0.878519
O O6 0.191908 0.102383 0.770575
O O7 0.163031 0.214452 0.839190
O O8 0.159744 0.202771 0.562370
O O9 0.750000 0.961819 0.000000
O O10 0.000000 0.750000 0.563504
#
# Coordination Sequence:
#
# PCOD9529862 Si02
#       5
#    16   8  16  16  16
#     4  10  20  37  62  90 118 158 208 258 312 379
#     4  10  22  40  66  88 114 162 218 266 312 374
#     4  10  19  35  59  89 122 161 207 252 307 375
#     4  11  24  41  60  91 129 164 207 265 325 381
#     4  10  18  32  61  95 123 157 209 264 306 365
#
# _framework density 25.812170999999999
#
# number of rings (size 3 to 8) (size 9 to 14) (size 15 to 20)
#    0.000    1.778    0.000    8.000    0.000    2.667 
#    0.000    5.556    0.000    0.000    0.000   12.444 
#    0.000    0.000    0.000    0.000    0.000    0.000 
#
# Total GULP energy -201210.163107 kJ/mol
# GULP energy per Si atom -5589.171197 kJ/mol
# Density = 2.575342 g / cm^3
# Si number density = 25.812171 Si / 1000 Ang^3
#
#
#
# Elastic Constant Matrix: (Units=GPa)
#
#
# Indices 1 2 3 4 5 6 
#
# 1 47.2221 8.8658 10.7024 0.0000 0.0000 0.0000
# 2 8.8658 138.6715 26.3110 0.0000 0.0000 0.0000
# 3 10.7024 26.3110 86.0225 0.0003 0.0002 -0.0001
# 4 0.0000 0.0000 0.0003 41.4364 0.0001 0.0000
# 5 0.0000 0.0000 0.0002 0.0001 23.8161 0.0000
# 6 0.0000 0.0000 -0.0001 0.0000 0.0000 26.0404
#
#
#
# Elastic Compliance Matrix: (Units=1/GPa)
#
#
# Indices 1 2 3 4 5 6 
#
# 1 0.021905 -0.000938 -0.002438 0.000000 0.000000 0.000000
# 2 -0.000938 0.007696 -0.002237 0.000000 0.000000 0.000000
# 3 -0.002438 -0.002237 0.012612 0.000000 0.000000 0.000000
# 4 0.000000 0.000000 0.000000 0.024133 0.000000 0.000000
# 5 0.000000 0.000000 0.000000 0.000000 0.041988 0.000000
# 6 0.000000 0.000000 0.000000 0.000000 0.000000 0.038402
#
#
# Mechanical properties :
#
#
# Convention : Reuss Voigt Hill
#
# Bulk Modulus (GPa) = 32.27203 40.40828 36.34016
# Shear Modulus (GPa) = 29.71011 33.32771 31.51891
#
# Velocity S-wave (km/s) = 3.39634 3.59717 3.49820
# Velocity P-wave (km/s) = 5.28298 5.73948 5.51596
#
# Compressibility (1/GPa) = 0.03098658
#
# Stress axis : x y z
#
# Youngs Moduli (GPa) = 45.65117 129.94248 79.28645
#
# Poissons Ratio (x) = 0.12186 0.19334
# Poissons Ratio (y) = 0.04281 0.17738
# Poissons Ratio (z) = 0.11132 0.29070
#
# Static dielectric constant tensor:
#      x y z
#    x 2.145740 0.000000 0.000000 
#    y 0.000000 1.993360 0.000000 
#    z 0.000000 0.000000 2.102510 
# 
# From -- ./inp_files/5461.got.cif
#   From: 2010.05.17/outbox.cif.g08.bks.cpg/sg73_3_cif.got.tgz:5461.got - 2010.06.03 17:35:07.
