data_PCOD9529154
_publ_section_title
;
Structure prediction by ZEFSAII (Michael W. Deem and Ramdas Pophale) SiO2 
 PCOD9529154
Probable space group: I B A M
;
_chemical_formula_sum "Si O2"
_cell_formula_units_Z 96
_cell_length_a 23.502124
_cell_length_b 11.071219
_cell_length_c 17.939308
_cell_angle_alpha 90.000000
_cell_angle_beta 90.000000
_cell_angle_gamma 90.000000
_cell_volume 4667.757026
_symmetry_space_group_name_H-M "I B A M"
_symmetry_group_IT_number 72
_symmetry_cell_setting 'orthorhombic'
loop_
_space_group_symop_operation_xyz
x,y,z
-x,-y,z
x,-y,1/2-z
-x,y,1/2-z
-x,-y,-z
x,y,-z
-x,y,1/2+z
x,-y,1/2+z
1/2+x,1/2+y,1/2+z
1/2-x,1/2-y,1/2+z
1/2+x,1/2-y,-z
1/2-x,1/2+y,-z
1/2-x,1/2-y,1/2-z
1/2+x,1/2+y,1/2-z
1/2-x,1/2+y,z
1/2+x,1/2-y,z
loop_
_atom_site_type_symbol
_atom_site_label
_atom_site_fract_x
_atom_site_fract_y
_atom_site_fract_z
Si Si1 0.698684 0.213573 0.088584
Si Si2 0.828290 0.198688 0.090258
Si Si3 0.394550 0.073932 0.323762
Si Si4 0.564942 0.856808 0.911083
Si Si5 0.472799 0.302770 0.325837
Si Si6 0.119557 0.053850 0.088494
O O1 0.763688 0.216946 0.115573
O O2 0.660771 0.115427 0.130970
O O3 0.667142 0.341942 0.097713
O O4 0.698112 0.185883 0.000000
O O5 0.872328 0.304338 0.107643
O O6 0.855491 0.072674 0.116255
O O7 0.825793 0.192151 0.000000
O O8 0.429437 0.194505 0.304130
O O9 0.380818 0.000000 0.250000
O O10 0.434352 0.988832 0.374771
O O11 0.519687 0.763260 0.877225
O O12 0.557919 0.863313 0.000000
O O13 0.500000 0.349216 0.250000
O O14 0.436753 0.401918 0.369913
O O15 0.107604 0.043752 0.000000
#
# Coordination Sequence:
#
# PCOD9529154 Si02
#       6
#    16  16  16  16  16  16
#     4   9  19  36  62  89 117 155 200 243 292 353
#     4   9  20  38  60  91 123 156 196 250 297 339
#     4  11  22  38  60  87 120 158 189 245 308 347
#     4  11  23  37  61  90 117 153 204 244 289 361
#     4  11  22  39  60  83 121 160 198 245 305 347
#     4   9  19  37  61  87 120 157 201 247 294 349
#
# _framework density 20.566624000000001
#
# number of rings (size 3 to 8) (size 9 to 14) (size 15 to 20)
#    0.000    2.000    1.667    1.500    2.333    3.333 
#    0.000    6.667    0.000    0.000    0.000    0.000 
#    0.000    0.000    0.000    0.000    0.000    0.000 
#
# Total GULP energy -268322.506137 kJ/mol
# GULP energy per Si atom -5590.052211 kJ/mol
# Density = 2.051981 g / cm^3
# Si number density = 20.566624 Si / 1000 Ang^3
#
#
#
# Elastic Constant Matrix: (Units=GPa)
#
#
# Indices 1 2 3 4 5 6 
#
# 1 97.4224 16.2976 11.3304 0.0000 0.0000 0.0000
# 2 16.2976 49.0839 25.1045 0.0000 0.0000 0.0000
# 3 11.3304 25.1045 51.6301 0.0000 0.0000 0.0000
# 4 0.0000 0.0000 0.0000 -25.5031 0.0000 0.0000
# 5 0.0000 0.0000 0.0000 0.0000 -1.9758 0.0000
# 6 0.0000 0.0000 0.0000 0.0000 0.0000 7.3242
#
#
#
# Elastic Compliance Matrix: (Units=1/GPa)
#
#
# Indices 1 2 3 4 5 6 
#
# 1 0.010896 -0.003187 -0.000841 0.000000 0.000000 0.000000
# 2 -0.003187 0.028049 -0.012939 0.000000 0.000000 0.000000
# 3 -0.000841 -0.012939 0.025845 0.000000 0.000000 0.000000
# 4 0.000000 0.000000 0.000000 -0.039211 0.000000 0.000000
# 5 0.000000 0.000000 0.000000 0.000000 -0.506134 0.000000
# 6 0.000000 0.000000 0.000000 0.000000 0.000000 0.136534
#
#
# Mechanical properties :
#
#
# Convention : Reuss Voigt Hill
#
# Bulk Modulus (GPa) = 32.41069 33.73348 33.07208
# Shear Modulus (GPa) = -16.67772 5.66267 -5.50753
#
# Velocity S-wave (km/s) = -2.85074 1.66112 -1.63820
# Velocity P-wave (km/s) = 2.22653 4.48517 3.54078
#
# Compressibility (1/GPa) = 0.03085402
#
# Stress axis : x y z
#
# Youngs Moduli (GPa) = 91.77985 35.65127 38.69273
#
# Poissons Ratio (x) = 0.11364 0.03255
# Poissons Ratio (y) = 0.29255 0.50065
# Poissons Ratio (z) = 0.07721 0.46130
#
# Static dielectric constant tensor:
#      x y z
#    x 1.728200 0.000000 0.000000 
#    y 0.000000 1.718650 0.000000 
#    z 0.000000 0.000000 1.711320 
# 
# From -- ./inp_files/33876.got.cif
#   From: 2010.05.17/outbox.cif.g08.bks.cpg/sg72_17_cif.got.tgz:33876.got - 2010.06.03 17:03:01.
