data_PCOD9529129
_publ_section_title
;
Structure prediction by ZEFSAII (Michael W. Deem and Ramdas Pophale) SiO2 
 PCOD9529129
Probable space group: I B A M
;
_chemical_formula_sum "Si O2"
_cell_formula_units_Z 64
_cell_length_a 13.808341
_cell_length_b 13.113019
_cell_length_c 14.436025
_cell_angle_alpha 90.000000
_cell_angle_beta 90.000000
_cell_angle_gamma 90.000000
_cell_volume 2613.917158
_symmetry_space_group_name_H-M "I B A M"
_symmetry_group_IT_number 72
_symmetry_cell_setting 'orthorhombic'
loop_
_space_group_symop_operation_xyz
x,y,z
-x,-y,z
x,-y,1/2-z
-x,y,1/2-z
-x,-y,-z
x,y,-z
-x,y,1/2+z
x,-y,1/2+z
1/2+x,1/2+y,1/2+z
1/2-x,1/2-y,1/2+z
1/2+x,1/2-y,-z
1/2-x,1/2+y,-z
1/2-x,1/2-y,1/2-z
1/2+x,1/2+y,1/2-z
1/2-x,1/2+y,z
1/2+x,1/2-y,z
loop_
_atom_site_type_symbol
_atom_site_label
_atom_site_fract_x
_atom_site_fract_y
_atom_site_fract_z
Si Si1 0.839125 0.745307 0.099897
Si Si2 0.400580 0.139808 0.214292
Si Si3 0.720920 0.536633 0.610354
Si Si4 0.876286 0.829951 0.398231
O O1 0.855635 0.681424 0.191095
O O2 0.849578 0.865607 0.116387
O O3 0.724097 0.730756 0.089540
O O4 0.882407 0.713730 0.000000
O O5 0.500000 0.094667 0.250000
O O6 0.321846 0.068066 0.161598
O O7 0.432297 0.242795 0.157287
O O8 0.742213 0.519181 0.500000
O O9 0.660987 0.437295 0.643549
O O10 0.919012 0.850869 0.500000
#
# Coordination Sequence:
#
# PCOD9529129 Si02
#       4
#    16  16  16  16
#     4   9  19  34  52  77 111 155 202 243 292 360
#     4  11  22  34  55  89 123 151 187 253 322 366
#     4   9  18  36  61  83 109 153 205 249 293 361
#     4   9  18  36  61  83 109 153 205 249 293 361
#
# _framework density 24.484324999999998
#
# number of rings (size 3 to 8) (size 9 to 14) (size 15 to 20)
#    0.000    2.500    0.000    5.250    0.000    6.000 
#    0.000    5.000    0.000    9.000    0.000    0.000 
#    0.000    0.000    0.000    0.000    0.000    0.000 
#
# Total GULP energy -178301.347871 kJ/mol
# GULP energy per Si atom -5571.917121 kJ/mol
# Density = 2.442860 g / cm^3
# Si number density = 24.484325 Si / 1000 Ang^3
#
#
#
# Elastic Constant Matrix: (Units=GPa)
#
#
# Indices 1 2 3 4 5 6 
#
# 1 44.8706 9.7523 24.3954 0.0000 0.0000 0.0000
# 2 9.7523 181.6206 41.4478 0.0000 0.0001 0.0000
# 3 24.3954 41.4478 116.9526 0.0000 0.0000 0.0000
# 4 0.0000 0.0000 0.0000 27.3599 0.0001 0.0000
# 5 0.0000 0.0001 0.0000 0.0001 -445.7596 0.0001
# 6 0.0000 0.0000 0.0000 0.0000 0.0001 2.4737
#
#
#
# Elastic Compliance Matrix: (Units=1/GPa)
#
#
# Indices 1 2 3 4 5 6 
#
# 1 0.025142 -0.000167 -0.005185 0.000000 0.000000 0.000000
# 2 -0.000167 0.005992 -0.002089 0.000000 0.000000 0.000000
# 3 -0.005185 -0.002089 0.010372 0.000000 0.000000 0.000000
# 4 0.000000 0.000000 0.000000 0.036550 0.000000 0.000000
# 5 0.000000 0.000000 0.000000 0.000000 -0.002243 0.000000
# 6 0.000000 0.000000 0.000000 0.000000 0.000000 0.404252
#
#
# Mechanical properties :
#
#
# Convention : Reuss Voigt Hill
#
# Bulk Modulus (GPa) = 37.55957 54.95942 46.25949
# Shear Modulus (GPa) = 9.92417 -65.32866 -27.70224
#
# Velocity S-wave (km/s) = 2.01546 -5.17105 -3.36732
# Velocity P-wave (km/s) = 4.55957 3.62733 1.95348
#
# Compressibility (1/GPa) = 0.02662438
#
# Stress axis : x y z
#
# Youngs Moduli (GPa) = 39.77454 166.90072 96.41063
#
# Poissons Ratio (x) = 0.02782 0.49992
# Poissons Ratio (y) = 0.00663 0.20137
# Poissons Ratio (z) = 0.20624 0.34860
#
# Static dielectric constant tensor:
#      x y z
#    x 15.013830 0.000000 0.000000 
#    y 0.000000 2.052480 0.000000 
#    z 0.000000 0.000000 2.101850 
# 
# From -- ./inp_files/19707.got.cif
#   From: 2010.05.17/outbox.cif.g08.bks.cpg/sg72_10_cif.got.tgz:19707.got - 2010.06.03 17:03:01.
