data_PCOD9529768
_publ_section_title
;
Structure prediction by ZEFSAII (Michael W. Deem and Ramdas Pophale) SiO2 
 PCOD9529768
Probable space group: I B C A 
;
_chemical_formula_sum "Si O2"
_cell_formula_units_Z 56
_cell_length_a 5.430320
_cell_length_b 30.060046
_cell_length_c 14.155005
_cell_angle_alpha 90.000000
_cell_angle_beta 90.000000
_cell_angle_gamma 90.000000
_cell_volume 2310.601711
_symmetry_space_group_name_H-M "I B C A "
_symmetry_group_IT_number 73
_symmetry_cell_setting 'orthorhombic'
loop_
_space_group_symop_operation_xyz
x,y,z
-x,1/2-y,z
x,-y,1/2-z
1/2-x,y,-z
-x,-y,-z
x,1/2+y,-z
-x,y,1/2+z
1/2+x,-y,z
1/2+x,1/2+y,1/2+z
1/2-x,-y,1/2+z
1/2+x,1/2-y,-z
-x,1/2+y,1/2-z
1/2-x,1/2-y,1/2-z
1/2+x,y,1/2-z
1/2-x,1/2+y,z
x,1/2-y,1/2+z
loop_
_atom_site_type_symbol
_atom_site_label
_atom_site_fract_x
_atom_site_fract_y
_atom_site_fract_z
Si Si1 0.008221 0.653641 0.891585
Si Si2 0.512718 0.883216 0.393335
Si Si3 0.000000 0.250000 0.186507
Si Si4 0.192104 0.484181 0.891680
O O1 0.746271 0.640707 0.848208
O O2 0.026846 0.706170 0.877923
O O3 0.247035 0.628290 0.852782
O O4 0.997692 0.636487 0.999899
O O5 0.579429 0.934973 0.393830
O O6 0.250000 0.250000 0.250000
O O7 0.470026 0.485794 0.850523
O O8 0.250000 0.498633 0.000000
#
# Coordination Sequence:
#
# PCOD9529768 Si02
#       4
#    16  16   8  16
#     4  10  21  35  56  77 109 140 175 231 270 328
#     4  10  19  34  54  87 116 140 178 211 275 327
#     4  12  26  44  58  76 102 140 192 234 280 324
#     4  10  18  26  45  77 126 156 163 196 250 334
#
# _framework density 24.236111999999999
#
# number of rings (size 3 to 8) (size 9 to 14) (size 15 to 20)
#    0.000    1.714    2.857    3.429    8.000    4.571 
#    0.000    0.000    0.000    0.000    0.000    0.000 
#    0.000  132.571    0.000    0.000    0.000    0.000 
#
# Total GULP energy -156339.933147 kJ/mol
# GULP energy per Si atom -5583.569041 kJ/mol
# Density = 2.418095 g / cm^3
# Si number density = 24.236112 Si / 1000 Ang^3
#
#
#
# Elastic Constant Matrix: (Units=GPa)
#
#
# Indices 1 2 3 4 5 6 
#
# 1 281.5885 71.2036 6.5062 0.0000 0.0000 0.0000
# 2 71.2036 191.1845 14.4769 0.0000 0.0000 0.0000
# 3 6.5062 14.4769 104.2893 0.0000 0.0000 0.0000
# 4 0.0000 0.0000 0.0000 -11.6905 0.0000 0.0000
# 5 0.0000 0.0000 0.0000 0.0000 -23.8564 0.0000
# 6 0.0000 0.0000 0.0000 0.0000 0.0000 42.3265
#
#
#
# Elastic Compliance Matrix: (Units=1/GPa)
#
#
# Indices 1 2 3 4 5 6 
#
# 1 0.003921 -0.001457 -0.000042 0.000000 0.000000 0.000000
# 2 -0.001457 0.005828 -0.000718 0.000000 0.000000 0.000000
# 3 -0.000042 -0.000718 0.009691 0.000000 0.000000 0.000000
# 4 0.000000 0.000000 0.000000 -0.085539 0.000000 0.000000
# 5 0.000000 0.000000 0.000000 0.000000 -0.041917 0.000000
# 6 0.000000 0.000000 0.000000 0.000000 0.000000 0.023626
#
#
# Mechanical properties :
#
#
# Convention : Reuss Voigt Hill
#
# Bulk Modulus (GPa) = 66.64673 84.60397 75.62535
# Shear Modulus (GPa) = -66.70623 33.68096 -16.51264
#
# Velocity S-wave (km/s) = -5.25197 3.73191 -2.61305
# Velocity P-wave (km/s) = 3.03628 7.31803 4.70821
#
# Compressibility (1/GPa) = 0.01500449
#
# Stress axis : x y z
#
# Youngs Moduli (GPa) = 255.05789 171.59860 103.18820
#
# Poissons Ratio (x) = 0.25002 0.00437
# Poissons Ratio (y) = 0.37162 0.07410
# Poissons Ratio (z) = 0.01080 0.12322
#
# Static dielectric constant tensor:
#      x y z
#    x 2.018320 0.000000 0.000000 
#    y 0.000000 1.899850 0.000000 
#    z 0.000000 0.000000 1.885100 
# 
# From -- ./inp_files/20338.got.cif
#   From: 2010.05.17/outbox.cif.g08.bks.cpg/sg73_11_cif.got.tgz:20338.got - 2010.06.03 17:35:07.
