data_PCOD9529674
_publ_section_title
;
Structure prediction by ZEFSAII (Michael W. Deem and Ramdas Pophale) SiO2 
 PCOD9529674
Probable space group: I B C A 
;
_chemical_formula_sum "Si O2"
_cell_formula_units_Z 104
_cell_length_a 22.023479
_cell_length_b 17.773800
_cell_length_c 13.595758
_cell_angle_alpha 90.000000
_cell_angle_beta 90.000000
_cell_angle_gamma 90.000000
_cell_volume 5321.935898
_symmetry_space_group_name_H-M "I B C A "
_symmetry_group_IT_number 73
_symmetry_cell_setting 'orthorhombic'
loop_
_space_group_symop_operation_xyz
x,y,z
-x,1/2-y,z
x,-y,1/2-z
1/2-x,y,-z
-x,-y,-z
x,1/2+y,-z
-x,y,1/2+z
1/2+x,-y,z
1/2+x,1/2+y,1/2+z
1/2-x,-y,1/2+z
1/2+x,1/2-y,-z
-x,1/2+y,1/2-z
1/2-x,1/2-y,1/2-z
1/2+x,y,1/2-z
1/2-x,1/2+y,z
x,1/2-y,1/2+z
loop_
_atom_site_type_symbol
_atom_site_label
_atom_site_fract_x
_atom_site_fract_y
_atom_site_fract_z
Si Si1 0.088526 0.374041 0.595938
Si Si2 0.568875 0.028002 0.012829
Si Si3 0.540466 0.139013 0.187050
Si Si4 0.500000 0.250000 0.923232
Si Si5 0.885964 0.349190 0.626681
Si Si6 0.179244 0.774980 0.482664
Si Si7 0.905162 0.191791 0.331922
O O1 0.102027 0.451559 0.542456
O O2 0.057957 0.386673 0.702510
O O3 0.150427 0.327030 0.603129
O O4 0.039894 0.319954 0.536703
O O5 0.568624 0.086407 0.103359
O O6 0.594265 0.071170 0.917735
O O7 0.500000 0.000000 0.000000
O O8 0.568541 0.222736 0.176876
O O9 0.467773 0.143047 0.170175
O O10 0.553452 0.203725 0.872529
O O11 0.840334 0.308594 0.551274
O O12 0.867354 0.341023 0.739264
O O13 0.250000 0.781472 0.500000
O O14 0.141401 0.802416 0.577651
#
# Coordination Sequence:
#
# PCOD9529674 Si02
#       7
#    16  16  16   8  16  16  16
#     4  11  21  39  59  89 132 165 209 265 318 392
#     4  12  22  33  59 100 135 162 194 265 346 395
#     4  11  20  35  63  98 126 162 199 259 337 386
#     4  10  16  34  58  84 122 160 198 252 312 372
#     4  11  21  37  60  91 127 157 211 263 322 380
#     4  11  25  42  63  88 121 178 228 261 306 374
#     4  11  20  37  65  95 124 161 208 264 318 389
#
# _framework density 19.541761000000001
#
# number of rings (size 3 to 8) (size 9 to 14) (size 15 to 20)
#    0.000    0.923    7.692    1.385    2.154    0.615 
#    0.000    3.077    0.000    1.846    0.000    0.000 
#    0.000    0.000    0.000    0.000    0.000    0.000 
#
# Total GULP energy -289693.683177 kJ/mol
# GULP energy per Si atom -5571.032369 kJ/mol
# Density = 1.949728 g / cm^3
# Si number density = 19.541761 Si / 1000 Ang^3
#
#
#
# Elastic Constant Matrix: (Units=GPa)
#
#
# Indices 1 2 3 4 5 6 
#
# 1 96.1802 1.8820 31.1167 0.0000 0.0000 0.0000
# 2 1.8820 87.9894 14.7141 0.0000 0.0000 0.0000
# 3 31.1167 14.7141 108.8524 0.0000 0.0000 0.0000
# 4 0.0000 0.0000 0.0000 27.0778 0.0000 0.0000
# 5 0.0000 0.0000 0.0000 0.0000 17.9071 0.0000
# 6 0.0000 0.0000 0.0000 0.0000 0.0000 12.0691
#
#
#
# Elastic Compliance Matrix: (Units=1/GPa)
#
#
# Indices 1 2 3 4 5 6 
#
# 1 0.011465 0.000310 -0.003319 0.000000 0.000000 0.000000
# 2 0.000310 0.011636 -0.001661 0.000000 0.000000 0.000000
# 3 -0.003319 -0.001661 0.010360 0.000000 0.000000 0.000000
# 4 0.000000 0.000000 0.000000 0.036931 0.000000 0.000000
# 5 0.000000 0.000000 0.000000 0.000000 0.055844 0.000000
# 6 0.000000 0.000000 0.000000 0.000000 0.000000 0.082856
#
#
# Mechanical properties :
#
#
# Convention : Reuss Voigt Hill
#
# Bulk Modulus (GPa) = 41.46019 43.16085 42.31052
# Shear Modulus (GPa) = 22.07767 27.76477 24.92122
#
# Velocity S-wave (km/s) = 3.36485 3.77343 3.57498
# Velocity P-wave (km/s) = 6.02980 6.41244 6.22406
#
# Compressibility (1/GPa) = 0.02411953
#
# Stress axis : x y z
#
# Youngs Moduli (GPa) = 87.22232 85.93857 96.52328
#
# Poissons Ratio (x) = -0.02663 0.32039
# Poissons Ratio (y) = -0.02703 0.16037
# Poissons Ratio (z) = 0.28951 0.14279
#
# Static dielectric constant tensor:
#      x y z
#    x 1.665010 0.000000 0.000000 
#    y 0.000000 1.729600 0.000000 
#    z 0.000000 0.000000 1.850730 
# 
# From -- ./inp_files/18772.got.cif
#   From: 2010.05.17/outbox.cif.g08.bks.cpg/sg73_10_cif.got.tgz:18772.got - 2010.06.03 17:35:07.
