data_PCOD9529776
_publ_section_title
;
Structure prediction by ZEFSAII (Michael W. Deem and Ramdas Pophale) SiO2 
 PCOD9529776
Probable space group: I B C A 
;
_chemical_formula_sum "Si O2"
_cell_formula_units_Z 120
_cell_length_a 21.295729
_cell_length_b 20.556309
_cell_length_c 14.930810
_cell_angle_alpha 90.000000
_cell_angle_beta 90.000000
_cell_angle_gamma 90.000000
_cell_volume 6536.135061
_symmetry_space_group_name_H-M "I B C A "
_symmetry_group_IT_number 73
_symmetry_cell_setting 'orthorhombic'
loop_
_space_group_symop_operation_xyz
x,y,z
-x,1/2-y,z
x,-y,1/2-z
1/2-x,y,-z
-x,-y,-z
x,1/2+y,-z
-x,y,1/2+z
1/2+x,-y,z
1/2+x,1/2+y,1/2+z
1/2-x,-y,1/2+z
1/2+x,1/2-y,-z
-x,1/2+y,1/2-z
1/2-x,1/2-y,1/2-z
1/2+x,y,1/2-z
1/2-x,1/2+y,z
x,1/2-y,1/2+z
loop_
_atom_site_type_symbol
_atom_site_label
_atom_site_fract_x
_atom_site_fract_y
_atom_site_fract_z
Si Si1 0.977147 0.569053 0.037423
Si Si2 0.432559 0.777542 0.284675
Si Si3 0.686805 0.582698 0.555760
Si Si4 0.129410 0.648506 0.786150
Si Si5 0.414353 0.000000 0.250000
Si Si6 0.139170 0.538077 0.660658
Si Si7 0.103210 0.396706 0.385316
Si Si8 0.511761 0.385017 0.345071
O O1 0.913463 0.557336 0.089585
O O2 0.028239 0.593869 0.107508
O O3 0.976786 0.615631 0.951360
O O4 0.000000 0.500000 0.000000
O O5 0.500000 0.750000 0.321234
O O6 0.390223 0.719060 0.248239
O O7 0.392329 0.823109 0.351220
O O8 0.454122 0.825434 0.204399
O O9 0.750000 0.588809 0.500000
O O10 0.674736 0.638612 0.629213
O O11 0.682911 0.514005 0.609426
O O12 0.632241 0.588292 0.481353
O O13 0.159261 0.605976 0.705621
O O14 0.061784 0.619225 0.820010
O O15 0.375427 0.048328 0.185503
O O16 0.457271 0.048440 0.308666
O O17 0.116226 0.500000 0.750000
#
# Coordination Sequence:
#
# PCOD9529776 Si02
#       8
#    16  16  16  16   8  16  16  16
#     4  12  17  27  52  88 120 142 181 225 296 353
#     4   9  20  37  53  84 120 150 182 222 289 364
#     4  11  23  40  58  80 108 146 204 246 281 327
#     4  10  20  39  56  80 114 157 191 223 286 359
#     4  10  18  28  52  84 120 140 174 224 292 350
#     4  10  20  34  59  82 112 147 181 227 294 356
#     4  11  21  34  55  86 116 149 180 236 288 344
#     4  10  18  28  52  84 123 150 176 223 280 365
#
# _framework density 18.359473999999999
#
# number of rings (size 3 to 8) (size 9 to 14) (size 15 to 20)
#    0.000    1.600    4.000    3.200    3.733    0.000 
#    8.400    0.667    0.000    0.800    0.000    0.000 
#    0.000    0.000    0.000    0.000    0.000    0.000 
#
# Total GULP energy -334391.009035 kJ/mol
# GULP energy per Si atom -5573.183484 kJ/mol
# Density = 1.831769 g / cm^3
# Si number density = 18.359474 Si / 1000 Ang^3
#
#
#
# Elastic Constant Matrix: (Units=GPa)
#
#
# Indices 1 2 3 4 5 6 
#
# 1 32.1471 19.6371 11.0096 0.0000 0.0000 0.0000
# 2 19.6371 114.2010 40.5472 0.0000 0.0000 0.0000
# 3 11.0096 40.5472 95.4626 0.0000 0.0000 0.0000
# 4 0.0000 0.0000 0.0000 20.2582 0.0000 0.0000
# 5 0.0000 0.0000 0.0000 0.0000 19.3995 0.0000
# 6 0.0000 0.0000 0.0000 0.0000 0.0000 13.0283
#
#
#
# Elastic Compliance Matrix: (Units=1/GPa)
#
#
# Indices 1 2 3 4 5 6 
#
# 1 0.035002 -0.005400 -0.001743 0.000000 0.000000 0.000000
# 2 -0.005400 0.011145 -0.004111 0.000000 0.000000 0.000000
# 3 -0.001743 -0.004111 0.012422 0.000000 0.000000 0.000000
# 4 0.000000 0.000000 0.000000 0.049363 0.000000 0.000000
# 5 0.000000 0.000000 0.000000 0.000000 0.051548 0.000000
# 6 0.000000 0.000000 0.000000 0.000000 0.000000 0.076756
#
#
# Mechanical properties :
#
#
# Convention : Reuss Voigt Hill
#
# Bulk Modulus (GPa) = 27.73029 42.68871 35.20950
# Shear Modulus (GPa) = 18.46627 21.91167 20.18897
#
# Velocity S-wave (km/s) = 3.17490 3.45843 3.31969
# Velocity P-wave (km/s) = 5.34573 6.26496 5.82351
#
# Compressibility (1/GPa) = 0.03606165
#
# Stress axis : x y z
#
# Youngs Moduli (GPa) = 28.56943 89.73000 80.49975
#
# Poissons Ratio (x) = 0.48452 0.14033
# Poissons Ratio (y) = 0.15427 0.33092
# Poissons Ratio (z) = 0.04980 0.36886
#
# Static dielectric constant tensor:
#      x y z
#    x 1.645330 0.000000 0.000000 
#    y 0.000000 1.722240 0.000000 
#    z 0.000000 0.000000 1.688600 
# 
# From -- ./inp_files/18949.got.cif
#   From: 2010.05.17/outbox.cif.g08.bks.cpg/sg73_10_cif.got.tgz:18949.got - 2010.06.03 17:35:07.
