data_PCOD9529252
_publ_section_title
;
Structure prediction by ZEFSAII (Michael W. Deem and Ramdas Pophale) SiO2 
 PCOD9529252
Probable space group: I B A M
;
_chemical_formula_sum "Si O2"
_cell_formula_units_Z 72
_cell_length_a 9.141537
_cell_length_b 26.884325
_cell_length_c 14.685409
_cell_angle_alpha 90.000000
_cell_angle_beta 90.000000
_cell_angle_gamma 90.000000
_cell_volume 3609.145617
_symmetry_space_group_name_H-M "I B A M"
_symmetry_group_IT_number 72
_symmetry_cell_setting 'orthorhombic'
loop_
_space_group_symop_operation_xyz
x,y,z
-x,-y,z
x,-y,1/2-z
-x,y,1/2-z
-x,-y,-z
x,y,-z
-x,y,1/2+z
x,-y,1/2+z
1/2+x,1/2+y,1/2+z
1/2-x,1/2-y,1/2+z
1/2+x,1/2-y,-z
1/2-x,1/2+y,-z
1/2-x,1/2-y,1/2-z
1/2+x,1/2+y,1/2-z
1/2-x,1/2+y,z
1/2+x,1/2-y,z
loop_
_atom_site_type_symbol
_atom_site_label
_atom_site_fract_x
_atom_site_fract_y
_atom_site_fract_z
Si Si1 0.909452 0.306479 0.107855
Si Si2 0.020634 0.133681 0.000000
Si Si3 0.759422 0.453457 0.000000
Si Si4 0.756663 0.435433 0.500000
Si Si5 0.507710 0.919850 0.144820
Si Si6 0.412782 0.288425 0.657699
O O1 0.958966 0.360931 0.138169
O O2 0.762797 0.290906 0.161362
O O3 0.033664 0.265451 0.123418
O O4 0.874061 0.308197 0.000000
O O5 0.040570 0.169277 0.913606
O O6 0.865865 0.106360 0.000000
O O7 0.142789 0.090656 0.000000
O O8 0.864145 0.446699 0.912137
O O9 0.694993 0.508652 0.000000
O O10 0.860396 0.429486 0.588135
O O11 0.500000 0.934725 0.250000
O O12 0.500000 0.297969 0.750000
#
# Coordination Sequence:
#
# PCOD9529252 Si02
#       6
#    16   8   8   8  16  16
#     4  12  22  43  65  97 136 171 212 263 318 387
#     4  12  25  44  68  95 134 171 216 270 329 383
#     4  11  23  50  64  94 132 165 223 278 329 371
#     4  11  27  40  72  97 122 174 222 272 328 391
#     4  11  23  42  69  98 132 170 216 267 322 388
#     4  12  26  41  66  95 135 174 213 262 320 388
#
# _framework density 19.94932
#
# number of rings (size 3 to 8) (size 9 to 14) (size 15 to 20)
#    0.000    0.444    6.667    3.000    6.222    1.778 
#    0.000    0.000    0.000    4.000    0.000    0.000 
#    0.000    0.000    0.000    0.000    0.000    0.000 
#
# Total GULP energy -201505.047405 kJ/mol
# GULP energy per Si atom -5597.362428 kJ/mol
# Density = 1.990391 g / cm^3
# Si number density = 19.949320 Si / 1000 Ang^3
#
#
#
# Elastic Constant Matrix: (Units=GPa)
#
#
# Indices 1 2 3 4 5 6 
#
# 1 50.0774 22.7765 11.4340 0.0000 0.0000 0.0000
# 2 22.7765 115.0842 0.7528 0.0000 0.0000 0.0000
# 3 11.4340 0.7528 130.6114 -0.0001 0.0001 0.0000
# 4 0.0000 0.0000 -0.0001 0.4365 0.0000 0.0000
# 5 0.0000 0.0000 0.0001 0.0000 10.7536 0.0000
# 6 0.0000 0.0000 0.0000 0.0000 0.0000 12.8829
#
#
#
# Elastic Compliance Matrix: (Units=1/GPa)
#
#
# Indices 1 2 3 4 5 6 
#
# 1 0.022424 -0.004425 -0.001938 0.000000 0.000000 0.000000
# 2 -0.004425 0.009563 0.000332 0.000001 0.000000 0.000000
# 3 -0.001938 0.000332 0.007824 0.000002 0.000000 0.000000
# 4 0.000000 0.000001 0.000002 2.291126 -0.000008 0.000002
# 5 0.000000 0.000000 0.000000 -0.000008 0.092992 0.000000
# 6 0.000000 0.000000 0.000000 0.000002 0.000000 0.077622
#
#
# Mechanical properties :
#
#
# Convention : Reuss Voigt Hill
#
# Bulk Modulus (GPa) = 36.03609 40.63330 38.33470
# Shear Modulus (GPa) = 1.98188 22.20192 12.09190
#
# Velocity S-wave (km/s) = 0.99780 3.33966 2.46464
# Velocity P-wave (km/s) = 4.40801 5.94000 5.23040
#
# Compressibility (1/GPa) = 0.02774995
#
# Stress axis : x y z
#
# Youngs Moduli (GPa) = 44.59459 104.57034 127.81189
#
# Poissons Ratio (x) = 0.46276 0.24764
# Poissons Ratio (y) = 0.19735 -0.04247
# Poissons Ratio (z) = 0.08640 -0.03475
#
# Static dielectric constant tensor:
#      x y z
#    x 1.684180 0.000000 0.000000 
#    y 0.000000 1.677330 0.000000 
#    z 0.000000 0.000000 1.745330 
# 
# From -- ./inp_files/18932.got.cif
#   From: 2010.05.17/outbox.cif.g08.bks.cpg/sg72_10_cif.got.tgz:18932.got - 2010.06.03 17:03:01.
