data_PCOD9529836
_publ_section_title
;
Structure prediction by ZEFSAII (Michael W. Deem and Ramdas Pophale) SiO2 
 PCOD9529836
Probable space group: I B C A 
;
_chemical_formula_sum "Si O2"
_cell_formula_units_Z 88
_cell_length_a 15.268807
_cell_length_b 17.929712
_cell_length_c 14.692410
_cell_angle_alpha 90.000000
_cell_angle_beta 90.000000
_cell_angle_gamma 90.000000
_cell_volume 4022.272209
_symmetry_space_group_name_H-M "I B C A "
_symmetry_group_IT_number 73
_symmetry_cell_setting 'orthorhombic'
loop_
_space_group_symop_operation_xyz
x,y,z
-x,1/2-y,z
x,-y,1/2-z
1/2-x,y,-z
-x,-y,-z
x,1/2+y,-z
-x,y,1/2+z
1/2+x,-y,z
1/2+x,1/2+y,1/2+z
1/2-x,-y,1/2+z
1/2+x,1/2-y,-z
-x,1/2+y,1/2-z
1/2-x,1/2-y,1/2-z
1/2+x,y,1/2-z
1/2-x,1/2+y,z
x,1/2-y,1/2+z
loop_
_atom_site_type_symbol
_atom_site_label
_atom_site_fract_x
_atom_site_fract_y
_atom_site_fract_z
Si Si1 0.398064 0.611980 0.013111
Si Si2 0.685979 0.065336 0.301879
Si Si3 0.324170 0.021780 0.422143
Si Si4 0.500000 0.250000 0.533596
Si Si5 0.302160 0.335516 0.818459
Si Si6 0.830893 0.223822 0.373711
O O1 0.399653 0.530049 0.965727
O O2 0.475050 0.673212 0.016451
O O3 0.332066 0.655206 0.943948
O O4 0.364294 0.599763 0.114109
O O5 0.717700 0.125135 0.228818
O O6 0.634647 0.000000 0.250000
O O7 0.771880 0.024487 0.344586
O O8 0.250000 0.034469 0.500000
O O9 0.348304 0.101058 0.377809
O O10 0.585220 0.269540 0.593130
O O11 0.259933 0.268446 0.875568
O O12 0.349334 0.303940 0.729096
#
# Coordination Sequence:
#
# PCOD9529836 Si02
#       6
#    16  16  16   8  16  16
#     4   9  17  33  57  83 114 169 199 254 322 384
#     4   9  16  29  55  82 117 148 197 254 309 361
#     4   9  17  31  53  84 118 157 203 256 319 378
#     4   8  18  36  54  80 120 166 204 254 316 396
#     4  10  18  32  52  90 119 156 210 270 310 368
#     4   9  19  33  54  82 122 161 203 260 318 378
#
# _framework density 21.878181000000001
#
# number of rings (size 3 to 8) (size 9 to 14) (size 15 to 20)
#    1.091    1.818    1.818    0.000    0.000    0.000 
#    6.545    0.909    0.000   16.364    0.000    0.000 
#    0.000    4.364    0.000    0.000    0.000    0.000 
#
# Total GULP energy -244960.264355 kJ/mol
# GULP energy per Si atom -5567.278735 kJ/mol
# Density = 2.182839 g / cm^3
# Si number density = 21.878181 Si / 1000 Ang^3
#
#
#
# Elastic Constant Matrix: (Units=GPa)
#
#
# Indices 1 2 3 4 5 6 
#
# 1 42.8610 32.4802 25.3277 0.0000 0.0000 0.0000
# 2 32.4802 121.0670 52.7787 0.0000 0.0000 0.0000
# 3 25.3277 52.7787 94.5321 0.0000 0.0000 0.0000
# 4 0.0000 0.0000 0.0000 15.9093 0.0000 0.0000
# 5 0.0000 0.0000 0.0000 0.0000 19.3601 0.0000
# 6 0.0000 0.0000 0.0000 0.0000 0.0000 32.9226
#
#
#
# Elastic Compliance Matrix: (Units=1/GPa)
#
#
# Indices 1 2 3 4 5 6 
#
# 1 0.030861 -0.006179 -0.004819 0.000000 0.000000 0.000000
# 2 -0.006179 0.012154 -0.005130 0.000000 0.000000 0.000000
# 3 -0.004819 -0.005130 0.014734 0.000000 0.000000 0.000000
# 4 0.000000 0.000000 0.000000 0.062856 0.000000 0.000000
# 5 0.000000 0.000000 0.000000 0.000000 0.051653 0.000000
# 6 0.000000 0.000000 0.000000 0.000000 0.000000 0.030374
#
#
# Mechanical properties :
#
#
# Convention : Reuss Voigt Hill
#
# Bulk Modulus (GPa) = 39.22620 53.29258 46.25939
# Shear Modulus (GPa) = 20.54351 23.49663 22.02007
#
# Velocity S-wave (km/s) = 3.06763 3.28071 3.17596
# Velocity P-wave (km/s) = 5.52408 6.22595 5.88548
#
# Compressibility (1/GPa) = 0.02549317
#
# Stress axis : x y z
#
# Youngs Moduli (GPa) = 32.40333 82.27672 67.87080
#
# Poissons Ratio (x) = 0.50837 0.32706
# Poissons Ratio (y) = 0.20021 0.34820
# Poissons Ratio (z) = 0.15615 0.42211
#
# Static dielectric constant tensor:
#      x y z
#    x 1.835550 0.000000 0.000000 
#    y 0.000000 1.879680 0.000000 
#    z 0.000000 0.000000 1.812880 
# 
# From -- ./inp_files/18742.got.cif
#   From: 2010.05.17/outbox.cif.g08.bks.cpg/sg73_10_cif.got.tgz:18742.got - 2010.06.03 17:35:07.
