data_PCOD9529628
_publ_section_title
;
Structure prediction by ZEFSAII (Michael W. Deem and Ramdas Pophale) SiO2 
 PCOD9529628
Probable space group: I B C A 
;
_chemical_formula_sum "Si O2"
_cell_formula_units_Z 112
_cell_length_a 17.899111
_cell_length_b 20.274603
_cell_length_c 17.131883
_cell_angle_alpha 90.000000
_cell_angle_beta 90.000000
_cell_angle_gamma 90.000000
_cell_volume 6217.115277
_symmetry_space_group_name_H-M "I B C A "
_symmetry_group_IT_number 73
_symmetry_cell_setting 'orthorhombic'
loop_
_space_group_symop_operation_xyz
x,y,z
-x,1/2-y,z
x,-y,1/2-z
1/2-x,y,-z
-x,-y,-z
x,1/2+y,-z
-x,y,1/2+z
1/2+x,-y,z
1/2+x,1/2+y,1/2+z
1/2-x,-y,1/2+z
1/2+x,1/2-y,-z
-x,1/2+y,1/2-z
1/2-x,1/2-y,1/2-z
1/2+x,y,1/2-z
1/2-x,1/2+y,z
x,1/2-y,1/2+z
loop_
_atom_site_type_symbol
_atom_site_label
_atom_site_fract_x
_atom_site_fract_y
_atom_site_fract_z
Si Si1 0.411947 0.895484 0.456447
Si Si2 0.073462 0.941120 0.095237
Si Si3 0.094766 0.314630 0.311513
Si Si4 0.326334 0.973019 0.045026
Si Si5 0.889209 0.567595 0.799092
Si Si6 0.916167 0.668438 0.217491
Si Si7 0.055619 0.910937 0.366028
O O1 0.485115 0.929729 0.417686
O O2 0.394824 0.833133 0.402283
O O3 0.432013 0.883514 0.546715
O O4 0.346947 0.949554 0.451073
O O5 0.104295 0.884099 0.150733
O O6 0.084695 0.013609 0.131573
O O7 0.110393 0.941566 0.010426
O O8 0.129826 0.372173 0.258362
O O9 0.118811 0.240598 0.291616
O O10 0.005705 0.320719 0.294185
O O11 0.331052 0.943854 0.131306
O O12 0.250000 0.963055 0.000000
O O13 0.897308 0.500000 0.750000
O O14 0.968993 0.583218 0.840079
O O15 0.905678 0.634299 0.301114
#
# Coordination Sequence:
#
# PCOD9529628 Si02
#       7
#    16  16  16  16  16  16  16
#     4  10  17  33  55  79 107 142 172 222 281 323
#     4  10  17  33  54  77 108 141 174 217 280 315
#     4   9  18  31  50  77 114 141 181 215 272 330
#     4  11  21  33  52  83 105 130 185 232 265 318
#     4  11  17  32  54  76 104 148 177 217 276 331
#     4   9  18  30  47  84 112 140 175 228 260 322
#     4  10  16  28  54  82 108 135 180 219 272 324
#
# _framework density 18.014786000000001
#
# number of rings (size 3 to 8) (size 9 to 14) (size 15 to 20)
#    0.000    2.000    4.286    3.000    0.000    0.000 
#    2.571    5.714    0.000    1.714    0.000    0.000 
#    0.000    0.000    0.000    0.000    0.000    0.000 
#
# Total GULP energy -312201.634533 kJ/mol
# GULP energy per Si atom -5575.029188 kJ/mol
# Density = 1.797378 g / cm^3
# Si number density = 18.014786 Si / 1000 Ang^3
#
#
#
# Elastic Constant Matrix: (Units=GPa)
#
#
# Indices 1 2 3 4 5 6 
#
# 1 17.5460 1.3993 0.9184 0.0000 0.0000 0.0000
# 2 1.3993 122.6078 86.6138 0.0000 0.0000 0.0000
# 3 0.9184 86.6138 145.2543 0.0000 0.0000 0.0000
# 4 0.0000 0.0000 0.0000 21.1305 0.0000 0.0000
# 5 0.0000 0.0000 0.0000 0.0000 13.8358 0.0000
# 6 0.0000 0.0000 0.0000 0.0000 0.0000 0.9272
#
#
#
# Elastic Compliance Matrix: (Units=1/GPa)
#
#
# Indices 1 2 3 4 5 6 
#
# 1 0.057045 -0.000685 0.000048 0.000000 0.000000 0.000000
# 2 -0.000685 0.014101 -0.008404 0.000000 0.000000 0.000000
# 3 0.000048 -0.008404 0.011895 0.000000 0.000000 0.000000
# 4 0.000000 0.000000 0.000000 0.047325 0.000000 0.000000
# 5 0.000000 0.000000 0.000000 0.000000 0.072276 0.000000
# 6 0.000000 0.000000 0.000000 0.000000 0.000000 1.078488
#
#
# Mechanical properties :
#
#
# Convention : Reuss Voigt Hill
#
# Bulk Modulus (GPa) = 15.39423 51.47456 33.43440
# Shear Modulus (GPa) = 3.78540 20.27714 12.03127
#
# Velocity S-wave (km/s) = 1.45115 3.35861 2.58709
# Velocity P-wave (km/s) = 3.37219 6.60877 5.24631
#
# Compressibility (1/GPa) = 0.06495941
#
# Stress axis : x y z
#
# Youngs Moduli (GPa) = 17.52995 70.91939 84.06743
#
# Poissons Ratio (x) = 0.04856 -0.00400
# Poissons Ratio (y) = 0.01200 0.70648
# Poissons Ratio (z) = -0.00083 0.59598
#
# Static dielectric constant tensor:
#      x y z
#    x 1.617760 0.000000 0.000000 
#    y 0.000000 1.624670 0.000000 
#    z 0.000000 0.000000 1.630190 
# 
# From -- ./inp_files/23374.got.cif
#   From: 2010.05.17/outbox.cif.g08.bks.cpg/sg73_12_cif.got.tgz:23374.got - 2010.06.03 17:35:07.
