data_PCOD9529468
_publ_section_title
;
Structure prediction by ZEFSAII (Michael W. Deem and Ramdas Pophale) SiO2 
 PCOD9529468
Probable space group: I B A M
;
_chemical_formula_sum "Si O2"
_cell_formula_units_Z 112
_cell_length_a 15.819068
_cell_length_b 28.652120
_cell_length_c 16.225177
_cell_angle_alpha 90.000000
_cell_angle_beta 90.000000
_cell_angle_gamma 90.000000
_cell_volume 7354.058792
_symmetry_space_group_name_H-M "I B A M"
_symmetry_group_IT_number 72
_symmetry_cell_setting 'orthorhombic'
loop_
_space_group_symop_operation_xyz
x,y,z
-x,-y,z
x,-y,1/2-z
-x,y,1/2-z
-x,-y,-z
x,y,-z
-x,y,1/2+z
x,-y,1/2+z
1/2+x,1/2+y,1/2+z
1/2-x,1/2-y,1/2+z
1/2+x,1/2-y,-z
1/2-x,1/2+y,-z
1/2-x,1/2-y,1/2-z
1/2+x,1/2+y,1/2-z
1/2-x,1/2+y,z
1/2+x,1/2-y,z
loop_
_atom_site_type_symbol
_atom_site_label
_atom_site_fract_x
_atom_site_fract_y
_atom_site_fract_z
Si Si1 0.741281 0.664561 0.674281
Si Si2 0.405373 0.793896 0.748818
Si Si3 0.637166 0.302883 0.668118
Si Si4 0.402021 0.517065 0.596155
Si Si5 0.347681 0.580467 0.100010
Si Si6 0.464184 0.387293 0.900370
Si Si7 0.802854 0.261521 0.406907
O O1 0.836837 0.673638 0.703612
O O2 0.682790 0.673054 0.754123
O O3 0.722573 0.614623 0.635478
O O4 0.715240 0.707131 0.613665
O O5 0.500000 0.812621 0.750000
O O6 0.404983 0.744754 0.699712
O O7 0.367315 0.781430 0.838721
O O8 0.571072 0.338571 0.630307
O O9 0.713605 0.287931 0.607769
O O10 0.500000 0.500000 0.597049
O O11 0.377552 0.521580 0.500000
O O12 0.349495 0.473350 0.630323
O O13 0.406804 0.569202 0.631590
O O14 0.438851 0.602834 0.123063
O O15 0.344046 0.579637 0.000000
O O16 0.461474 0.388612 0.000000
O O17 0.832416 0.267051 0.500000
#
# Coordination Sequence:
#
# PCOD9529468 Si02
#       7
#    16  16  16  16  16  16  16
#     4   9  18  30  42  59  83 114 143 181 227 266
#     4   9  19  33  45  60  86 118 147 183 236 274
#     4   9  18  28  42  60  84 114 141 178 223 264
#     4   7  12  24  38  56  86 116 142 177 212 243
#     4   9  16  26  42  62  86 118 150 178 215 262
#     4   9  16  25  41  64  86 115 153 182 209 255
#     4   9  17  31  46  61  83 109 145 186 221 264
#
# _framework density 15.229685999999999
#
# number of rings (size 3 to 8) (size 9 to 14) (size 15 to 20)
#    0.000    3.286    0.000    4.286    4.000    0.000 
#    0.000    4.286    0.000    2.571    0.000    0.000 
#    0.000    9.143    0.000   22.143    0.000    0.000 
#
# Total GULP energy -311781.280097 kJ/mol
# GULP energy per Si atom -5567.522859 kJ/mol
# Density = 1.519502 g / cm^3
# Si number density = 15.229686 Si / 1000 Ang^3
#
#
#
# Elastic Constant Matrix: (Units=GPa)
#
#
# Indices 1 2 3 4 5 6 
#
# 1 63.7596 30.1201 22.9720 0.0000 0.0000 0.0000
# 2 30.1201 75.0807 32.4061 0.0001 0.0000 0.0000
# 3 22.9720 32.4061 41.5130 0.0001 0.0000 0.0000
# 4 0.0000 0.0001 0.0001 9.4892 0.0000 0.0000
# 5 0.0000 0.0000 0.0000 0.0000 12.0422 0.0000
# 6 0.0000 0.0000 0.0000 0.0000 0.0000 24.2921
#
#
#
# Elastic Compliance Matrix: (Units=1/GPa)
#
#
# Indices 1 2 3 4 5 6 
#
# 1 0.020806 -0.005093 -0.007537 0.000000 0.000000 0.000000
# 2 -0.005093 0.021334 -0.013835 0.000000 0.000000 0.000000
# 3 -0.007537 -0.013835 0.039060 0.000000 0.000000 0.000000
# 4 0.000000 0.000000 0.000000 0.105382 0.000000 0.000000
# 5 0.000000 0.000000 0.000000 0.000000 0.083041 0.000000
# 6 0.000000 0.000000 0.000000 0.000000 0.000000 0.041166
#
#
# Mechanical properties :
#
#
# Convention : Reuss Voigt Hill
#
# Bulk Modulus (GPa) = 35.37603 39.03884 37.20744
# Shear Modulus (GPa) = 13.39971 15.48839 14.44405
#
# Velocity S-wave (km/s) = 2.96943 3.19248 3.08297
# Velocity P-wave (km/s) = 5.91908 6.26724 6.09564
#
# Compressibility (1/GPa) = 0.02826772
#
# Stress axis : x y z
#
# Youngs Moduli (GPa) = 48.06398 46.87399 25.60182
#
# Poissons Ratio (x) = 0.23875 0.19296
# Poissons Ratio (y) = 0.24481 0.35420
# Poissons Ratio (z) = 0.36226 0.64851
#
# Static dielectric constant tensor:
#      x y z
#    x 1.492450 0.000000 0.000000 
#    y 0.000000 1.522900 0.000000 
#    z 0.000000 0.000000 1.530820 
# 
# From -- ./inp_files/22402.got.cif
#   From: 2010.05.17/outbox.cif.g08.bks.cpg/sg72_12_cif.got.tgz:22402.got - 2010.06.03 17:03:01.
