data_PCOD9529134
_publ_section_title
;
Structure prediction by ZEFSAII (Michael W. Deem and Ramdas Pophale) SiO2 
 PCOD9529134
Probable space group: I B A M
;
_chemical_formula_sum "Si O2"
_cell_formula_units_Z 32
_cell_length_a 17.434573
_cell_length_b 6.488228
_cell_length_c 10.796681
_cell_angle_alpha 90.000000
_cell_angle_beta 90.000000
_cell_angle_gamma 90.000000
_cell_volume 1221.314991
_symmetry_space_group_name_H-M "I B A M"
_symmetry_group_IT_number 72
_symmetry_cell_setting 'orthorhombic'
loop_
_space_group_symop_operation_xyz
x,y,z
-x,-y,z
x,-y,1/2-z
-x,y,1/2-z
-x,-y,-z
x,y,-z
-x,y,1/2+z
x,-y,1/2+z
1/2+x,1/2+y,1/2+z
1/2-x,1/2-y,1/2+z
1/2+x,1/2-y,-z
1/2-x,1/2+y,-z
1/2-x,1/2-y,1/2-z
1/2+x,1/2+y,1/2-z
1/2-x,1/2+y,z
1/2+x,1/2-y,z
loop_
_atom_site_type_symbol
_atom_site_label
_atom_site_fract_x
_atom_site_fract_y
_atom_site_fract_z
Si Si1 0.456142 0.284097 0.366838
Si Si2 0.275096 0.633687 0.148981
O O1 0.500000 0.500000 0.379428
O O2 0.500000 0.193522 0.250000
O O3 0.460555 0.179156 0.500000
O O4 0.366858 0.324741 0.345051
O O5 0.259818 0.375883 0.180265
O O6 0.253605 0.624520 0.000000
#
# Coordination Sequence:
#
# PCOD9529134 Si02
#       2
#    16  16
#     4   9  16  29  52  80 106 138 187 236 274 324
#     4  11  22  36  56  85 120 155 192 238 292 346
#
# _framework density 26.201267999999999
#
# number of rings (size 3 to 8) (size 9 to 14) (size 15 to 20)
#    0.000    2.000    5.000    1.500    0.000    2.000 
#    0.000    0.000    0.000    1.500    0.000   10.500 
#    0.000    0.000    0.000    0.000    0.000    0.000 
#
# Total GULP energy -89117.271471 kJ/mol
# GULP energy per Si atom -5569.829467 kJ/mol
# Density = 2.614163 g / cm^3
# Si number density = 26.201268 Si / 1000 Ang^3
#
#
#
# Elastic Constant Matrix: (Units=GPa)
#
#
# Indices 1 2 3 4 5 6 
#
# 1 213.9916 112.3623 73.6888 0.0000 0.0000 0.0000
# 2 112.3623 232.1345 155.2150 0.0000 0.0000 0.0000
# 3 73.6888 155.2150 352.5127 0.0000 0.0000 0.0000
# 4 0.0000 0.0000 0.0000 163.6862 0.0000 0.0000
# 5 0.0000 0.0000 0.0000 0.0000 1123.2061 0.0000
# 6 0.0000 0.0000 0.0000 0.0000 0.0000 100.7714
#
#
#
# Elastic Compliance Matrix: (Units=1/GPa)
#
#
# Indices 1 2 3 4 5 6 
#
# 1 0.006266 -0.003057 0.000036 0.000000 0.000000 0.000000
# 2 -0.003057 0.007597 -0.002706 0.000000 0.000000 0.000000
# 3 0.000036 -0.002706 0.004021 0.000000 0.000000 0.000000
# 4 0.000000 0.000000 0.000000 0.006109 0.000000 0.000000
# 5 0.000000 0.000000 0.000000 0.000000 0.000890 0.000000
# 6 0.000000 0.000000 0.000000 0.000000 0.000000 0.009923
#
#
# Mechanical properties :
#
#
# Convention : Reuss Voigt Hill
#
# Bulk Modulus (GPa) = 155.52625 164.57456 160.05041
# Shear Modulus (GPa) = 103.29852 308.02424 205.66138
#
# Velocity S-wave (km/s) = 6.28575 10.85431 8.86923
# Velocity P-wave (km/s) = 10.59094 14.83361 12.88806
#
# Compressibility (1/GPa) = 0.00642978
#
# Stress axis : x y z
#
# Youngs Moduli (GPa) = 159.59544 131.63147 248.71627
#
# Poissons Ratio (x) = 0.40242 -0.00903
# Poissons Ratio (y) = 0.48791 0.67301
# Poissons Ratio (z) = -0.00580 0.35619
#
# Static dielectric constant tensor:
#      x y z
#    x 1.802290 0.000000 0.000000 
#    y 0.000000 2.073280 0.000000 
#    z 0.000000 0.000000 2.664440 
# 
# From -- ./inp_files/17121.got.cif
#   From: 2010.05.17/outbox.cif.g08.bks.cpg/sg72_9_cif.got.tgz:17121.got - 2010.06.03 17:03:01.
