data_PCOD9529116
_publ_section_title
;
Structure prediction by ZEFSAII (Michael W. Deem and Ramdas Pophale) SiO2 
 PCOD9529116
Probable space group: I B A M
;
_chemical_formula_sum "Si O2"
_cell_formula_units_Z 64
_cell_length_a 17.493940
_cell_length_b 13.325123
_cell_length_c 14.277766
_cell_angle_alpha 90.000000
_cell_angle_beta 90.000000
_cell_angle_gamma 90.000000
_cell_volume 3328.274359
_symmetry_space_group_name_H-M "I B A M"
_symmetry_group_IT_number 72
_symmetry_cell_setting 'orthorhombic'
loop_
_space_group_symop_operation_xyz
x,y,z
-x,-y,z
x,-y,1/2-z
-x,y,1/2-z
-x,-y,-z
x,y,-z
-x,y,1/2+z
x,-y,1/2+z
1/2+x,1/2+y,1/2+z
1/2-x,1/2-y,1/2+z
1/2+x,1/2-y,-z
1/2-x,1/2+y,-z
1/2-x,1/2-y,1/2-z
1/2+x,1/2+y,1/2-z
1/2-x,1/2+y,z
1/2+x,1/2-y,z
loop_
_atom_site_type_symbol
_atom_site_label
_atom_site_fract_x
_atom_site_fract_y
_atom_site_fract_z
Si Si1 0.774691 0.767188 0.645723
Si Si2 0.952291 0.253669 0.847237
Si Si3 0.029095 0.115524 0.000000
Si Si4 0.570125 0.073437 0.500000
Si Si5 0.208962 0.118044 0.000000
Si Si6 0.784544 0.576569 0.000000
O O1 0.750000 0.750000 0.750000
O O2 0.865075 0.787077 0.654348
O O3 0.753333 0.667605 0.587088
O O4 0.726983 0.852433 0.590210
O O5 0.000000 0.268813 0.750000
O O6 0.939913 0.354943 0.908959
O O7 0.997531 0.173255 0.909267
O O8 0.119447 0.137540 0.000000
O O9 0.000000 0.000000 0.000000
O O10 0.500000 0.000000 0.500000
O O11 0.643371 0.998703 0.500000
O O12 0.214419 0.999330 0.000000
#
# Coordination Sequence:
#
# PCOD9529116 Si02
#       6
#    16  16   8   8   8   8
#     4  11  24  41  67  96 131 176 220 282 340 395
#     4  11  24  45  65 102 143 172 228 286 345 411
#     4  11  23  41  70  95 133 185 225 279 349 400
#     4  11  25  43  68  98 134 188 222 274 350 409
#     4  11  21  43  65  94 128 173 225 274 333 403
#     4  11  23  45  69  94 133 171 234 277 330 415
#
# _framework density 19.229184
#
# number of rings (size 3 to 8) (size 9 to 14) (size 15 to 20)
#    0.000    1.000    2.500    5.250   10.500    2.000 
#    0.000    5.000    0.000    0.000    0.000    0.000 
#    0.000    0.000    0.000    0.000    0.000    0.000 
#
# Total GULP energy -178362.188858 kJ/mol
# GULP energy per Si atom -5573.818402 kJ/mol
# Density = 1.918542 g / cm^3
# Si number density = 19.229184 Si / 1000 Ang^3
#
#
#
# Elastic Constant Matrix: (Units=GPa)
#
#
# Indices 1 2 3 4 5 6 
#
# 1 156.5696 35.7495 59.6311 0.0000 0.0000 0.0000
# 2 35.7495 120.0657 67.7904 0.0000 0.0000 0.0000
# 3 59.6311 67.7904 187.3516 0.0000 0.0000 0.0000
# 4 0.0000 0.0000 0.0000 -0.8292 0.0000 0.0000
# 5 0.0000 0.0000 0.0000 0.0000 99.0755 0.0000
# 6 0.0000 0.0000 0.0000 0.0000 0.0000 38.6394
#
#
#
# Elastic Compliance Matrix: (Units=1/GPa)
#
#
# Indices 1 2 3 4 5 6 
#
# 1 0.007381 -0.001095 -0.001953 0.000000 0.000000 0.000000
# 2 -0.001095 0.010630 -0.003498 0.000000 0.000000 0.000000
# 3 -0.001953 -0.003498 0.007225 0.000000 0.000000 0.000000
# 4 0.000000 0.000000 0.000000 -1.206030 0.000000 0.000000
# 5 0.000000 0.000000 0.000000 0.000000 0.010093 0.000000
# 6 0.000000 0.000000 0.000000 0.000000 0.000000 0.025880
#
#
# Mechanical properties :
#
#
# Convention : Reuss Voigt Hill
#
# Bulk Modulus (GPa) = 82.34571 87.81430 85.08001
# Shear Modulus (GPa) = -4.43387 47.43154 21.49883
#
# Velocity S-wave (km/s) = -1.52013 4.97192 3.34733
# Velocity P-wave (km/s) = 6.31151 8.87279 7.69940
#
# Compressibility (1/GPa) = 0.01214392
#
# Stress axis : x y z
#
# Youngs Moduli (GPa) = 135.48744 94.07687 138.41320
#
# Poissons Ratio (x) = 0.10301 0.27032
# Poissons Ratio (y) = 0.14835 0.48412
# Poissons Ratio (z) = 0.26461 0.32905
#
# Static dielectric constant tensor:
#      x y z
#    x 1.757940 0.000000 0.000000 
#    y 0.000000 1.657290 0.000000 
#    z 0.000000 0.000000 1.813870 
# 
# From -- ./inp_files/22853.got.cif
#   From: 2010.05.17/outbox.cif.g08.bks.cpg/sg72_12_cif.got.tgz:22853.got - 2010.06.03 17:03:01.
