data_PCOD9529578
_publ_section_title
;
Structure prediction by ZEFSAII (Michael W. Deem and Ramdas Pophale) SiO2 
 PCOD9529578
Probable space group: I B A M
;
_chemical_formula_sum "Si O2"
_cell_formula_units_Z 56
_cell_length_a 12.000000
_cell_length_b 30.000000
_cell_length_c 15.000000
_cell_angle_alpha 90.000000
_cell_angle_beta 90.000000
_cell_angle_gamma 90.000000
_cell_volume 5400.000000
_symmetry_space_group_name_H-M "I B A M"
_symmetry_group_IT_number 72
_symmetry_cell_setting 'orthorhombic'
loop_
_space_group_symop_operation_xyz
x,y,z
-x,-y,z
x,-y,1/2-z
-x,y,1/2-z
-x,-y,-z
x,y,-z
-x,y,1/2+z
x,-y,1/2+z
1/2+x,1/2+y,1/2+z
1/2-x,1/2-y,1/2+z
1/2+x,1/2-y,-z
1/2-x,1/2+y,-z
1/2-x,1/2-y,1/2-z
1/2+x,1/2+y,1/2-z
1/2-x,1/2+y,z
1/2+x,1/2-y,z
loop_
_atom_site_type_symbol
_atom_site_label
_atom_site_fract_x
_atom_site_fract_y
_atom_site_fract_z
Si Si1 0.680855 0.736071 0.400603
Si Si2 0.359986 0.173301 0.843239
Si Si3 0.126313 0.051768 0.746360
Si Si4 0.392031 0.167876 0.364325
Si Si5 0.297972 0.611883 0.593658
Si Si6 0.192142 0.897593 0.406289
Si Si7 0.002112 0.169826 0.644164
O O1 0.713793 0.722983 0.500000
O O2 0.777481 0.715378 0.340624
O O3 0.672787 0.787994 0.390968
O O4 0.558147 0.715434 0.383773
O O5 0.378290 0.160556 0.740983
O O6 0.480497 0.177731 0.885378
O O7 0.293134 0.135835 0.894871
O O8 0.181779 0.073936 0.663133
O O9 0.195054 0.067545 0.829586
O O10 0.000000 0.069488 0.750000
O O11 0.120336 0.000000 0.750000
O O12 0.329003 0.126904 0.406949
O O13 0.337818 0.594827 0.500000
O O14 0.375634 0.654779 0.615717
O O15 0.188624 0.920385 0.500000
O O16 0.082868 0.867074 0.393425
O O17 0.000000 0.170089 0.750000
#
# Coordination Sequence:
#
# PCOD9529578 Si02
#       7
#    16  16  16  16  16  16  16
#     4  11  24  37  55  86 122 162 211 261 302 358
#     4  10  22  41  61  83 117 161 214 255 304 366
#     4  11  23  41  64  97 133 159 196 252 310 385
#     4  11  24  39  61  87 118 166 210 260 313 360
#     4  12  22  38  62  91 127 166 202 254 314 371
#     4  11  20  39  66  87 118 162 203 248 305 371
#     4  11  20  36  59  83 121 164 208 249 302 363
#
# _framework density 10.370369999999999
#
# number of rings (size 3 to 8) (size 9 to 14) (size 15 to 20)
#    0.000    1.000    4.286    4.286    4.000    2.857 
#    0.000    1.429    0.000    1.714    0.000    2.000 
#    0.000    0.000    0.000    0.000    0.000    0.000 
#
# Total GULP energy -311998.084193 kJ/mol
# GULP energy per Si atom -5571.394361 kJ/mol
# Density = 1.034677 g / cm^3
# Si number density = 10.370370 Si / 1000 Ang^3
#
#
#
# Elastic Constant Matrix: (Units=GPa)
#
#
# Indices 1 2 3 4 5 6 
#
# 1 75.2954 28.0256 24.8669 0.0000 0.0002 0.0000
# 2 28.0256 73.3768 35.9366 0.0001 0.0008 0.0001
# 3 24.8669 35.9366 145.1650 0.0006 0.0013 0.0002
# 4 0.0000 0.0001 0.0006 46.1634 0.0013 0.0001
# 5 0.0002 0.0008 0.0013 0.0013 -499.5366 -0.0028
# 6 0.0000 0.0001 0.0002 0.0001 -0.0028 32.6793
#
#
#
# Elastic Compliance Matrix: (Units=1/GPa)
#
#
# Indices 1 2 3 4 5 6 
#
# 1 0.015719 -0.005331 -0.001373 0.000000 0.000000 0.000000
# 2 -0.005331 0.017317 -0.003374 0.000000 0.000000 0.000000
# 3 -0.001373 -0.003374 0.007959 0.000000 0.000000 0.000000
# 4 0.000000 0.000000 0.000000 0.021662 0.000000 0.000000
# 5 0.000000 0.000000 0.000000 0.000000 -0.002002 0.000000
# 6 0.000000 0.000000 0.000000 0.000000 0.000000 0.030600
#
#
# Mechanical properties :
#
#
# Convention : Reuss Voigt Hill
#
# Bulk Modulus (GPa) = 47.98678 52.38838 50.18758
# Shear Modulus (GPa) = 42.24500 -70.47159 -14.11329
#
# Velocity S-wave (km/s) = 4.51800 -5.83533 -2.61140
# Velocity P-wave (km/s) = 7.09952 4.48196 3.89327
#
# Compressibility (1/GPa) = 0.02083907
#
# Stress axis : x y z
#
# Youngs Moduli (GPa) = 63.61826 57.74752 125.64317
#
# Poissons Ratio (x) = 0.30787 0.17249
# Poissons Ratio (y) = 0.33917 0.42387
# Poissons Ratio (z) = 0.08734 0.19482
#
# Static dielectric constant tensor:
#      x y z
#    x 1.744780 0.000000 0.000000 
#    y 0.000000 1.683600 0.000000 
#    z 0.000000 0.000000 1.819710 
# 
# From -- ./inp_files/20718.got.cif
#   From: 2010.05.17/outbox.ucp.g08.bks.cvg/sg72_11_cif.got.tgz:20718.got - 2010.06.11 16:33:07.
