data_PCOD9529310
_publ_section_title
;
Structure prediction by ZEFSAII (Michael W. Deem and Ramdas Pophale) SiO2 
 PCOD9529310
Probable space group: I B A M
;
_chemical_formula_sum "Si O2"
_cell_formula_units_Z 80
_cell_length_a 24.183454
_cell_length_b 8.732709
_cell_length_c 17.532714
_cell_angle_alpha 90.000000
_cell_angle_beta 90.000000
_cell_angle_gamma 90.000000
_cell_volume 3702.682436
_symmetry_space_group_name_H-M "I B A M"
_symmetry_group_IT_number 72
_symmetry_cell_setting 'orthorhombic'
loop_
_space_group_symop_operation_xyz
x,y,z
-x,-y,z
x,-y,1/2-z
-x,y,1/2-z
-x,-y,-z
x,y,-z
-x,y,1/2+z
x,-y,1/2+z
1/2+x,1/2+y,1/2+z
1/2-x,1/2-y,1/2+z
1/2+x,1/2-y,-z
1/2-x,1/2+y,-z
1/2-x,1/2-y,1/2-z
1/2+x,1/2+y,1/2-z
1/2-x,1/2+y,z
1/2+x,1/2-y,z
loop_
_atom_site_type_symbol
_atom_site_label
_atom_site_fract_x
_atom_site_fract_y
_atom_site_fract_z
Si Si1 0.613356 0.309615 0.910508
Si Si2 0.786299 0.573980 0.089465
Si Si3 0.997544 0.673841 0.841538
Si Si4 0.205731 0.263030 0.318401
Si Si5 0.905742 0.103229 0.179416
O O1 0.666422 0.202084 0.898964
O O2 0.560089 0.240298 0.869207
O O3 0.619007 0.479786 0.878573
O O4 0.602441 0.314250 0.000000
O O5 0.797126 0.430747 0.144710
O O6 0.729703 0.652512 0.115956
O O7 0.785337 0.529975 0.000000
O O8 0.047998 0.789522 0.858909
O O9 0.000000 0.500000 0.871624
O O10 0.000000 0.665811 0.750000
O O11 0.250000 0.250000 0.250000
O O12 0.145415 0.206901 0.292489
O O13 0.927882 0.000000 0.250000
#
# Coordination Sequence:
#
# PCOD9529310 Si02
#       5
#    16  16  16  16  16
#     4  11  25  44  69 101 135 177 229 281 339 415
#     4  11  24  44  67  97 139 184 228 281 350 413
#     4  11  24  43  69  97 133 180 222 274 341 411
#     4  12  25  42  68 100 136 177 236 289 338 411
#     4  12  24  42  67  98 134 177 226 282 349 403
#
# _framework density 21.605958000000001
#
# number of rings (size 3 to 8) (size 9 to 14) (size 15 to 20)
#    0.000    0.600    2.000    6.600    0.000    5.200 
#    0.000    0.000    0.000    0.000    0.000    0.000 
#    0.000    0.000    0.000    0.000    0.000    0.000 
#
# Total GULP energy -223835.638137 kJ/mol
# GULP energy per Si atom -5595.890953 kJ/mol
# Density = 2.155678 g / cm^3
# Si number density = 21.605958 Si / 1000 Ang^3
#
#
#
# Elastic Constant Matrix: (Units=GPa)
#
#
# Indices 1 2 3 4 5 6 
#
# 1 102.4175 31.9010 14.6557 0.0000 0.0000 0.0000
# 2 31.9010 138.4961 31.1800 0.0000 0.0000 0.0000
# 3 14.6557 31.1800 85.3575 0.0000 0.0000 0.0000
# 4 0.0000 0.0000 0.0000 29.8847 0.0000 0.0000
# 5 0.0000 0.0000 0.0000 0.0000 29.0253 0.0000
# 6 0.0000 0.0000 0.0000 0.0000 0.0000 44.6302
#
#
#
# Elastic Compliance Matrix: (Units=1/GPa)
#
#
# Indices 1 2 3 4 5 6 
#
# 1 0.010598 -0.002214 -0.001011 0.000000 0.000000 0.000000
# 2 -0.002214 0.008330 -0.002663 0.000000 0.000000 0.000000
# 3 -0.001011 -0.002663 0.012862 0.000000 0.000000 0.000000
# 4 0.000000 0.000000 0.000000 0.033462 0.000000 0.000000
# 5 0.000000 0.000000 0.000000 0.000000 0.034453 0.000000
# 6 0.000000 0.000000 0.000000 0.000000 0.000000 0.022406
#
#
# Mechanical properties :
#
#
# Convention : Reuss Voigt Hill
#
# Bulk Modulus (GPa) = 49.96276 53.52717 51.74497
# Shear Modulus (GPa) = 35.57281 37.27700 36.42490
#
# Velocity S-wave (km/s) = 4.06203 4.15819 4.11039
# Velocity P-wave (km/s) = 6.72122 6.91969 6.82118
#
# Compressibility (1/GPa) = 0.02001491
#
# Stress axis : x y z
#
# Youngs Moduli (GPa) = 94.35650 120.05180 77.75029
#
# Poissons Ratio (x) = 0.26574 0.07861
# Poissons Ratio (y) = 0.20886 0.20703
# Poissons Ratio (z) = 0.09540 0.31966
#
# Static dielectric constant tensor:
#      x y z
#    x 1.791070 0.000000 0.000000 
#    y 0.000000 1.827550 0.000000 
#    z 0.000000 0.000000 1.790590 
# 
# From -- ./inp_files/33782.got.cif
#   From: 2010.05.17/outbox.cif.g08.bks.cpg/sg72_17_cif.got.tgz:33782.got - 2010.06.03 17:03:01.
