data_PCOD9529635
_publ_section_title
;
Structure prediction by ZEFSAII (Michael W. Deem and Ramdas Pophale) SiO2 
 PCOD9529635
Probable space group: I B C A 
;
_chemical_formula_sum "Si O2"
_cell_formula_units_Z 48
_cell_length_a 14.292362
_cell_length_b 27.235744
_cell_length_c 5.385758
_cell_angle_alpha 90.000000
_cell_angle_beta 90.000000
_cell_angle_gamma 90.000000
_cell_volume 2096.476923
_symmetry_space_group_name_H-M "I B C A "
_symmetry_group_IT_number 73
_symmetry_cell_setting 'orthorhombic'
loop_
_space_group_symop_operation_xyz
x,y,z
-x,1/2-y,z
x,-y,1/2-z
1/2-x,y,-z
-x,-y,-z
x,1/2+y,-z
-x,y,1/2+z
1/2+x,-y,z
1/2+x,1/2+y,1/2+z
1/2-x,-y,1/2+z
1/2+x,1/2-y,-z
-x,1/2+y,1/2-z
1/2-x,1/2-y,1/2-z
1/2+x,y,1/2-z
1/2-x,1/2+y,z
x,1/2-y,1/2+z
loop_
_atom_site_type_symbol
_atom_site_label
_atom_site_fract_x
_atom_site_fract_y
_atom_site_fract_z
Si Si1 0.393150 0.478859 0.502044
Si Si2 0.855347 0.731246 0.694740
Si Si3 0.560674 0.634052 0.478119
O O1 0.349634 0.500000 0.750000
O O2 0.500000 0.500000 0.500000
O O3 0.396600 0.420389 0.520708
O O4 0.352200 0.500000 0.250000
O O5 0.750000 0.750000 0.750000
O O6 0.897719 0.764463 0.472217
O O7 0.865828 0.676940 0.584135
O O8 0.512431 0.638333 0.748270
#
# Coordination Sequence:
#
# PCOD9529635 Si02
#       3
#    16  16  16
#     4  10  16  30  48  78 126 149 170 227 289 362
#     4  10  23  42  57  76 114 164 203 243 293 352
#     4  12  21  32  58  90 117 153 195 244 298 352
#
# _framework density 22.895553
#
# number of rings (size 3 to 8) (size 9 to 14) (size 15 to 20)
#    0.000    1.333    6.667    2.000    0.000    4.000 
#    0.000    0.000    0.000    0.000    0.000   18.667 
#    0.000    0.000    0.000    0.000    0.000    0.333 
#
# Total GULP energy -133940.476841 kJ/mol
# GULP energy per Si atom -5580.853202 kJ/mol
# Density = 2.284344 g / cm^3
# Si number density = 22.895553 Si / 1000 Ang^3
#
#
#
# Elastic Constant Matrix: (Units=GPa)
#
#
# Indices 1 2 3 4 5 6 
#
# 1 92.8946 40.5371 26.6805 -0.0286 -0.0074 0.0067
# 2 40.5371 232.1829 65.2669 -0.0500 -0.0124 -0.0296
# 3 26.6805 65.2669 259.4684 -0.0711 -0.0008 -0.0206
# 4 -0.0286 -0.0500 -0.0711 47.3491 0.0045 -0.0143
# 5 -0.0074 -0.0124 -0.0008 0.0045 0.4436 -0.0017
# 6 0.0067 -0.0296 -0.0206 -0.0143 -0.0017 -47.8010
#
#
#
# Elastic Compliance Matrix: (Units=1/GPa)
#
#
# Indices 1 2 3 4 5 6 
#
# 1 0.011786 -0.001848 -0.000747 0.000004 0.000143 0.000003
# 2 -0.001848 0.004924 -0.001049 0.000003 0.000105 -0.000003
# 3 -0.000747 -0.001049 0.004195 0.000005 -0.000034 -0.000001
# 4 0.000004 0.000003 0.000005 0.021120 -0.000215 -0.000006
# 5 0.000143 0.000105 -0.000034 -0.000215 2.254048 -0.000081
# 6 0.000003 -0.000003 -0.000001 -0.000006 -0.000081 -0.020920
#
#
# Mechanical properties :
#
#
# Convention : Reuss Voigt Hill
#
# Bulk Modulus (GPa) = 73.43337 94.39055 83.91196
# Shear Modulus (GPa) = 2.18629 30.13579 16.16104
#
# Velocity S-wave (km/s) = 0.97825 3.63192 2.65968
# Velocity P-wave (km/s) = 5.78090 7.67489 6.79421
#
# Compressibility (1/GPa) = 0.01361779
#
# Stress axis : x y z
#
# Youngs Moduli (GPa) = 84.84807 203.07351 238.39908
#
# Poissons Ratio (x) = 0.37521 0.17812
# Poissons Ratio (y) = 0.15677 0.25000
# Poissons Ratio (z) = 0.06339 0.21296
#
# Static dielectric constant tensor:
#      x y z
#    x 1.938750 -0.000010 0.000000 
#    y -0.000010 1.823710 0.000100 
#    z 0.000000 0.000100 1.913760 
# 
# From -- ./inp_files/552.got.cif
#   From: 2010.05.17/outbox.cif.g08.bks.cpg/sg73_1_cif.got.tgz:552.got - 2010.06.03 17:35:07.
