data_PCOD9529171
_publ_section_title
;
Structure prediction by ZEFSAII (Michael W. Deem and Ramdas Pophale) SiO2 
 PCOD9529171
Probable space group: I B A M
;
_chemical_formula_sum "Si O2"
_cell_formula_units_Z 68
_cell_length_a 7.090981
_cell_length_b 23.891980
_cell_length_c 14.713588
_cell_angle_alpha 90.000000
_cell_angle_beta 90.000000
_cell_angle_gamma 90.000000
_cell_volume 2492.740417
_symmetry_space_group_name_H-M "I B A M"
_symmetry_group_IT_number 72
_symmetry_cell_setting 'orthorhombic'
loop_
_space_group_symop_operation_xyz
x,y,z
-x,-y,z
x,-y,1/2-z
-x,y,1/2-z
-x,-y,-z
x,y,-z
-x,y,1/2+z
x,-y,1/2+z
1/2+x,1/2+y,1/2+z
1/2-x,1/2-y,1/2+z
1/2+x,1/2-y,-z
1/2-x,1/2+y,-z
1/2-x,1/2-y,1/2-z
1/2+x,1/2+y,1/2-z
1/2-x,1/2+y,z
1/2+x,1/2-y,z
loop_
_atom_site_type_symbol
_atom_site_label
_atom_site_fract_x
_atom_site_fract_y
_atom_site_fract_z
Si Si1 0.645436 0.204840 0.604636
Si Si2 0.964053 0.585915 0.351987
Si Si3 0.914109 0.824770 0.395063
Si Si4 0.500000 0.000000 0.000000
Si Si5 0.025975 0.062035 0.890657
O O1 0.583774 0.213937 0.500000
O O2 0.516961 0.153649 0.639150
O O3 0.860144 0.184661 0.602276
O O4 0.651497 0.266578 0.648652
O O5 0.746770 0.574643 0.378952
O O6 0.000000 0.569676 0.250000
O O7 0.068010 0.545206 0.421541
O O8 0.845430 0.828009 0.500000
O O9 0.900844 0.886601 0.351789
O O10 0.996328 0.061170 0.000000
O O11 0.000000 0.000000 0.854394
#
# Coordination Sequence:
#
# PCOD9529171 Si02
#       5
#    16  16  16   4  16
#     4   9  16  34  54  87 124 164 216 266 317 380
#     4  11  22  39  65  97 129 167 217 274 327 387
#     4   8  15  28  54  86 125 169 211 258 315 378
#     4  12  22  44  62  90 128 168 216 258 334 392
#     4   9  17  36  62  94 135 180 221 266 324 386
#
# _framework density 27.279212999999999
#
# number of rings (size 3 to 8) (size 9 to 14) (size 15 to 20)
#    0.000    2.588    2.353    1.765    0.000    0.000 
#    4.235    4.706    0.000    4.235    0.000    0.000 
#    0.000    0.000    0.000    0.000    0.000    0.000 
#
# Total GULP energy -189705.888281 kJ/mol
# GULP energy per Si atom -5579.584949 kJ/mol
# Density = 2.721712 g / cm^3
# Si number density = 27.279213 Si / 1000 Ang^3
#
#
#
# Elastic Constant Matrix: (Units=GPa)
#
#
# Indices 1 2 3 4 5 6 
#
# 1 52.7829 24.5967 -1.8004 0.0000 0.0000 0.0000
# 2 24.5967 281.5105 47.3163 0.0001 0.0000 0.0000
# 3 -1.8004 47.3163 138.8491 0.0002 0.0000 0.0001
# 4 0.0000 0.0001 0.0002 -35.7677 0.0000 0.0001
# 5 0.0000 0.0000 0.0000 0.0000 36.1721 0.0000
# 6 0.0000 0.0000 0.0001 0.0001 0.0000 87.6801
#
#
#
# Elastic Compliance Matrix: (Units=1/GPa)
#
#
# Indices 1 2 3 4 5 6 
#
# 1 0.019855 -0.001886 0.000900 0.000000 0.000000 0.000000
# 2 -0.001886 0.003947 -0.001370 0.000000 0.000000 0.000000
# 3 0.000900 -0.001370 0.007680 0.000000 0.000000 0.000000
# 4 0.000000 0.000000 0.000000 -0.027958 0.000000 0.000000
# 5 0.000000 0.000000 0.000000 0.000000 0.027646 0.000000
# 6 0.000000 0.000000 0.000000 0.000000 0.000000 0.011405
#
#
# Mechanical properties :
#
#
# Convention : Reuss Voigt Hill
#
# Bulk Modulus (GPa) = 37.35264 68.15197 52.75230
# Shear Modulus (GPa) = 88.95147 44.48556 66.71852
#
# Velocity S-wave (km/s) = 5.71652 4.04263 4.95083
# Velocity P-wave (km/s) = 7.56927 6.84309 7.21532
#
# Compressibility (1/GPa) = 0.02677187
#
# Stress axis : x y z
#
# Youngs Moduli (GPa) = 50.36467 253.34002 130.20063
#
# Poissons Ratio (x) = 0.47783 -0.11721
# Poissons Ratio (y) = 0.09499 0.17832
# Poissons Ratio (z) = -0.04534 0.34697
#
# Static dielectric constant tensor:
#      x y z
#    x 2.225730 0.000000 0.000000 
#    y 0.000000 2.268280 0.000000 
#    z 0.000000 0.000000 1.985050 
# 
# From -- ./inp_files/27971.got.cif
#   From: 2010.05.17/outbox.cif.g08.bks.cpg/sg72_14_cif.got.tgz:27971.got - 2010.06.03 17:03:01.
