data_PCOD9529848
_publ_section_title
;
Structure prediction by ZEFSAII (Michael W. Deem and Ramdas Pophale) SiO2 
 PCOD9529848
Probable space group: I B C A 
;
_chemical_formula_sum "Si O2"
_cell_formula_units_Z 120
_cell_length_a 10.075010
_cell_length_b 32.085035
_cell_length_c 14.956317
_cell_angle_alpha 90.000000
_cell_angle_beta 90.000000
_cell_angle_gamma 90.000000
_cell_volume 4834.734889
_symmetry_space_group_name_H-M "I B C A "
_symmetry_group_IT_number 73
_symmetry_cell_setting 'orthorhombic'
loop_
_space_group_symop_operation_xyz
x,y,z
-x,1/2-y,z
x,-y,1/2-z
1/2-x,y,-z
-x,-y,-z
x,1/2+y,-z
-x,y,1/2+z
1/2+x,-y,z
1/2+x,1/2+y,1/2+z
1/2-x,-y,1/2+z
1/2+x,1/2-y,-z
-x,1/2+y,1/2-z
1/2-x,1/2-y,1/2-z
1/2+x,y,1/2-z
1/2-x,1/2+y,z
x,1/2-y,1/2+z
loop_
_atom_site_type_symbol
_atom_site_label
_atom_site_fract_x
_atom_site_fract_y
_atom_site_fract_z
Si Si1 0.502923 0.097463 0.105663
Si Si2 0.667281 0.206704 0.755045
Si Si3 0.001536 0.904084 0.889936
Si Si4 0.665503 0.323184 0.583288
Si Si5 0.752523 0.951391 0.109401
Si Si6 0.094835 0.812709 0.342917
Si Si7 0.749257 0.545435 0.890901
Si Si8 0.000000 0.750000 0.492535
O O1 0.564197 0.142919 0.122785
O O2 0.360223 0.082773 0.138030
O O3 0.606538 0.062411 0.136282
O O4 0.498394 0.096180 0.997706
O O5 0.750000 0.250000 0.750000
O O6 0.721976 0.187780 0.846601
O O7 0.748555 0.182949 0.678225
O O8 0.508534 0.205168 0.766436
O O9 0.890776 0.936716 0.859597
O O10 0.961331 0.858249 0.861042
O O11 0.143111 0.920961 0.860649
O O12 0.750000 0.341296 0.500000
O O13 0.591270 0.281076 0.550631
O O14 0.781440 0.998567 0.137690
O O15 0.750000 0.951825 0.000000
O O16 0.079203 0.781128 0.426262
O O17 0.750000 0.545009 0.000000
#
# Coordination Sequence:
#
# PCOD9529848 Si02
#       8
#    16  16  16  16  16  16  16   8
#     4  10  18  32  56  86 122 160 207 255 307 375
#     4  12  25  44  66  89 128 170 218 262 316 381
#     4  10  19  35  55  83 127 159 199 261 310 370
#     4  12  23  42  65  94 123 169 218 262 322 378
#     4   9  18  30  48  89 126 157 197 254 319 373
#     4  12  24  45  62  94 126 171 208 262 322 377
#     4   9  16  29  55  81 120 166 201 246 313 378
#     4  12  24  42  68  92 126 162 216 266 316 382
#
# _framework density 24.820387
#
# number of rings (size 3 to 8) (size 9 to 14) (size 15 to 20)
#    0.000    1.333    4.000    2.800    1.867    4.267 
#    2.400    0.000    0.000    0.000    0.000   15.867 
#    0.000    0.000    0.000    0.000    0.000    0.000 
#
# Total GULP energy -335648.422328 kJ/mol
# GULP energy per Si atom -5594.140372 kJ/mol
# Density = 2.476389 g / cm^3
# Si number density = 24.820387 Si / 1000 Ang^3
#
#
#
# Elastic Constant Matrix: (Units=GPa)
#
#
# Indices 1 2 3 4 5 6 
#
# 1 81.1167 11.5220 -13.2693 0.0000 0.0000 0.0000
# 2 11.5220 149.6881 -0.9546 0.0000 0.0000 0.0000
# 3 -13.2693 -0.9546 54.5391 0.0000 -0.0002 0.0000
# 4 0.0000 0.0000 0.0000 -4.6757 0.0000 0.0000
# 5 0.0000 0.0000 -0.0002 0.0000 11.8338 -0.0001
# 6 0.0000 0.0000 0.0000 0.0000 -0.0001 41.8283
#
#
#
# Elastic Compliance Matrix: (Units=1/GPa)
#
#
# Indices 1 2 3 4 5 6 
#
# 1 0.012981 -0.000979 0.003141 0.000000 0.000000 0.000000
# 2 -0.000979 0.006755 -0.000120 0.000000 0.000000 0.000000
# 3 0.003141 -0.000120 0.019098 0.000000 0.000000 0.000000
# 4 0.000000 0.000000 0.000000 -0.213873 0.000000 0.000000
# 5 0.000000 0.000000 0.000000 0.000000 0.084504 0.000000
# 6 0.000000 0.000000 0.000000 0.000000 0.000000 0.023907
#
#
# Mechanical properties :
#
#
# Convention : Reuss Voigt Hill
#
# Bulk Modulus (GPa) = 23.30052 31.10445 27.20249
# Shear Modulus (GPa) = -88.64142 29.00036 -29.82053
#
# Velocity S-wave (km/s) = -5.98253 3.42191 -3.46996
# Velocity P-wave (km/s) = 6.18974 5.30769 2.25180
#
# Compressibility (1/GPa) = 0.04291749
#
# Stress axis : x y z
#
# Youngs Moduli (GPa) = 77.03671 148.03502 52.36260
#
# Poissons Ratio (x) = 0.14495 -0.16448
# Poissons Ratio (y) = 0.07543 0.00628
# Poissons Ratio (z) = -0.24198 0.01776
#
# Static dielectric constant tensor:
#      x y z
#    x 1.963150 0.000000 0.000000 
#    y 0.000000 1.959420 0.000000 
#    z 0.000000 0.000000 2.051610 
# 
# From -- ./inp_files/21502.got.cif
#   From: 2010.05.17/outbox.cif.g08.bks.cpg/sg73_11_cif.got.tgz:21502.got - 2010.06.03 17:35:07.
