data_PCOD9529460
_publ_section_title
;
Structure prediction by ZEFSAII (Michael W. Deem and Ramdas Pophale) SiO2 
 PCOD9529460
Probable space group: I B A M
;
_chemical_formula_sum "Si O2"
_cell_formula_units_Z 64
_cell_length_a 9.029640
_cell_length_b 19.382986
_cell_length_c 14.840675
_cell_angle_alpha 90.000000
_cell_angle_beta 90.000000
_cell_angle_gamma 90.000000
_cell_volume 2597.435503
_symmetry_space_group_name_H-M "I B A M"
_symmetry_group_IT_number 72
_symmetry_cell_setting 'orthorhombic'
loop_
_space_group_symop_operation_xyz
x,y,z
-x,-y,z
x,-y,1/2-z
-x,y,1/2-z
-x,-y,-z
x,y,-z
-x,y,1/2+z
x,-y,1/2+z
1/2+x,1/2+y,1/2+z
1/2-x,1/2-y,1/2+z
1/2+x,1/2-y,-z
1/2-x,1/2+y,-z
1/2-x,1/2-y,1/2-z
1/2+x,1/2+y,1/2-z
1/2-x,1/2+y,z
1/2+x,1/2-y,z
loop_
_atom_site_type_symbol
_atom_site_label
_atom_site_fract_x
_atom_site_fract_y
_atom_site_fract_z
Si Si1 0.135953 0.790549 0.813524
Si Si2 0.621009 0.268174 0.500000
Si Si3 0.670924 0.928320 0.136080
Si Si4 0.168198 0.583303 0.352875
Si Si5 0.849409 0.159714 0.500000
O O1 0.250000 0.750000 0.750000
O O2 0.076566 0.744801 0.897188
O O3 0.227304 0.850946 0.864744
O O4 0.000000 0.813240 0.750000
O O5 0.787524 0.238038 0.500000
O O6 0.523969 0.338016 0.500000
O O7 0.500043 0.912321 0.111492
O O8 0.669347 0.921109 0.243717
O O9 0.782789 0.878767 0.085842
O O10 0.715284 0.007348 0.114584
#
# Coordination Sequence:
#
# PCOD9529460 Si02
#       5
#    16   8  16  16   8
#     4  12  27  45  72 107 147 194 238 300 370 432
#     4  12  28  45  65 105 145 184 240 295 363 443
#     4   9  20  40  69  95 134 180 234 295 353 430
#     4   9  20  41  67 100 131 180 240 288 353 432
#     4  12  26  44  67 100 140 186 235 301 367 420
#
# _framework density 24.639689000000001
#
# number of rings (size 3 to 8) (size 9 to 14) (size 15 to 20)
#    0.000    1.500    0.000    6.000   10.500    3.000 
#    0.000   10.000    0.000    0.000    0.000    0.000 
#    0.000    0.000    0.000    0.000    0.000    0.000 
#
# Total GULP energy -178408.812006 kJ/mol
# GULP energy per Si atom -5575.275375 kJ/mol
# Density = 2.458361 g / cm^3
# Si number density = 24.639689 Si / 1000 Ang^3
#
#
#
# Elastic Constant Matrix: (Units=GPa)
#
#
# Indices 1 2 3 4 5 6 
#
# 1 130.9209 91.8993 50.8620 0.0000 0.0000 0.0000
# 2 91.8993 151.8939 23.1893 0.0000 0.0000 0.0000
# 3 50.8620 23.1893 139.6455 0.0000 0.0000 0.0000
# 4 0.0000 0.0000 0.0000 17.2133 0.0000 0.0000
# 5 0.0000 0.0000 0.0000 0.0000 50.6615 0.0000
# 6 0.0000 0.0000 0.0000 0.0000 0.0000 42.0517
#
#
#
# Elastic Compliance Matrix: (Units=1/GPa)
#
#
# Indices 1 2 3 4 5 6 
#
# 1 0.015302 -0.008626 -0.004141 0.000000 0.000000 0.000000
# 2 -0.008626 0.011617 0.001213 0.000000 0.000000 0.000000
# 3 -0.004141 0.001213 0.008468 0.000000 0.000000 0.000000
# 4 0.000000 0.000000 0.000000 0.058095 0.000000 0.000000
# 5 0.000000 0.000000 0.000000 0.000000 0.019739 0.000000
# 6 0.000000 0.000000 0.000000 0.000000 0.000000 0.023780
#
#
# Mechanical properties :
#
#
# Convention : Reuss Voigt Hill
#
# Bulk Modulus (GPa) = 81.44195 83.81793 82.62994
# Shear Modulus (GPa) = 30.45048 39.08596 34.76822
#
# Velocity S-wave (km/s) = 3.51925 3.98716 3.76049
# Velocity P-wave (km/s) = 7.04545 7.43558 7.24315
#
# Compressibility (1/GPa) = 0.01227868
#
# Stress axis : x y z
#
# Youngs Moduli (GPa) = 65.35254 86.07964 118.09412
#
# Poissons Ratio (x) = 0.74249 0.48901
# Poissons Ratio (y) = 0.56371 -0.14319
# Poissons Ratio (z) = 0.27061 -0.10437
#
# Static dielectric constant tensor:
#      x y z
#    x 1.944370 0.000000 0.000000 
#    y 0.000000 2.096940 0.000000 
#    z 0.000000 0.000000 2.002340 
# 
# From -- ./inp_files/18716.got.cif
#   From: 2010.05.17/outbox.cif.g08.bks.cpg/sg72_10_cif.got.tgz:18716.got - 2010.06.03 17:03:01.
