data_PCOD9529697
_publ_section_title
;
Structure prediction by ZEFSAII (Michael W. Deem and Ramdas Pophale) SiO2 
 PCOD9529697
Probable space group: I B C A 
;
_chemical_formula_sum "Si O2"
_cell_formula_units_Z 96
_cell_length_a 13.484771
_cell_length_b 21.238153
_cell_length_c 17.755626
_cell_angle_alpha 90.000000
_cell_angle_beta 90.000000
_cell_angle_gamma 90.000000
_cell_volume 5085.062666
_symmetry_space_group_name_H-M "I B C A "
_symmetry_group_IT_number 73
_symmetry_cell_setting 'orthorhombic'
loop_
_space_group_symop_operation_xyz
x,y,z
-x,1/2-y,z
x,-y,1/2-z
1/2-x,y,-z
-x,-y,-z
x,1/2+y,-z
-x,y,1/2+z
1/2+x,-y,z
1/2+x,1/2+y,1/2+z
1/2-x,-y,1/2+z
1/2+x,1/2-y,-z
-x,1/2+y,1/2-z
1/2-x,1/2-y,1/2-z
1/2+x,y,1/2-z
1/2-x,1/2+y,z
x,1/2-y,1/2+z
loop_
_atom_site_type_symbol
_atom_site_label
_atom_site_fract_x
_atom_site_fract_y
_atom_site_fract_z
Si Si1 0.500000 0.750000 0.345418
Si Si2 0.052917 0.885751 0.189577
Si Si3 0.771253 0.158479 0.198929
Si Si4 0.215236 0.287552 0.367689
Si Si5 0.750000 0.880623 0.000000
Si Si6 0.910955 0.048585 0.195910
Si Si7 0.442108 0.043053 0.058871
O O1 0.476473 0.687448 0.297836
O O2 0.601361 0.731442 0.388304
O O3 0.170895 0.881870 0.189625
O O4 0.006388 0.930447 0.253832
O O5 0.007382 0.907346 0.108780
O O6 0.784230 0.178252 0.286323
O O7 0.767425 0.221086 0.148662
O O8 0.859490 0.113436 0.177954
O O9 0.262420 0.333827 0.428624
O O10 0.846684 0.922672 0.021495
O O11 0.852090 0.000000 0.250000
O O12 0.917601 0.008520 0.121596
O O13 0.500000 0.000000 0.000000
#
# Coordination Sequence:
#
# PCOD9529697 Si02
#       7
#     8  16  16  16   8  16  16
#     4  10  16  40  62  90 128 160 198 268 326 374
#     4  10  21  39  66  89 127 161 214 270 323 380
#     4  10  21  39  69  98 121 164 221 267 319 386
#     4  10  21  39  67  96 125 169 208 271 331 391
#     4  12  24  46  64  90 136 176 214 266 350 392
#     4  10  21  41  61  92 123 167 213 257 321 386
#     4  11  26  42  59  91 130 176 217 265 328 392
#
# _framework density 18.878824000000002
#
# number of rings (size 3 to 8) (size 9 to 14) (size 15 to 20)
#    0.000    1.667    3.333    1.000    4.667    2.000 
#    6.000    0.000    0.000    0.000    0.000    0.000 
#    0.000    0.000    0.000    0.000    0.000    0.000 
#
# Total GULP energy -267228.729794 kJ/mol
# GULP energy per Si atom -5567.265204 kJ/mol
# Density = 1.883585 g / cm^3
# Si number density = 18.878824 Si / 1000 Ang^3
#
#
#
# Elastic Constant Matrix: (Units=GPa)
#
#
# Indices 1 2 3 4 5 6 
#
# 1 79.5201 39.6950 50.8240 0.0000 0.0000 0.0000
# 2 39.6950 128.0613 63.8623 0.0000 0.0000 0.0000
# 3 50.8240 63.8623 116.7327 0.0000 0.0000 0.0000
# 4 0.0000 0.0000 0.0000 28.7616 0.0000 0.0000
# 5 0.0000 0.0000 0.0000 0.0000 11.3383 0.0000
# 6 0.0000 0.0000 0.0000 0.0000 0.0000 28.6745
#
#
#
# Elastic Compliance Matrix: (Units=1/GPa)
#
#
# Indices 1 2 3 4 5 6 
#
# 1 0.017897 -0.002285 -0.006542 0.000000 0.000000 0.000000
# 2 -0.002285 0.011030 -0.005039 0.000000 0.000000 0.000000
# 3 -0.006542 -0.005039 0.014172 0.000000 0.000000 0.000000
# 4 0.000000 0.000000 0.000000 0.034769 0.000000 0.000000
# 5 0.000000 0.000000 0.000000 0.000000 0.088197 0.000000
# 6 0.000000 0.000000 0.000000 0.000000 0.000000 0.034874
#
#
# Mechanical properties :
#
#
# Convention : Reuss Voigt Hill
#
# Bulk Modulus (GPa) = 65.07874 70.34186 67.71030
# Shear Modulus (GPa) = 21.38624 25.08372 23.23498
#
# Velocity S-wave (km/s) = 3.36939 3.64905 3.51200
# Velocity P-wave (km/s) = 7.04866 7.42257 7.23803
#
# Compressibility (1/GPa) = 0.01536600
#
# Stress axis : x y z
#
# Youngs Moduli (GPa) = 55.87376 90.66010 70.56173
#
# Poissons Ratio (x) = 0.20717 0.46163
# Poissons Ratio (y) = 0.12768 0.35560
# Poissons Ratio (z) = 0.36554 0.45688
#
# Static dielectric constant tensor:
#      x y z
#    x 1.746820 0.000000 0.000000 
#    y 0.000000 1.683880 0.000000 
#    z 0.000000 0.000000 1.561590 
# 
# From -- ./inp_files/17086.got.cif
#   From: 2010.05.17/outbox.cif.g08.bks.cpg/sg73_9_cif.got.tgz:17086.got - 2010.06.03 17:35:07.
