data_PCOD9529648
_publ_section_title
;
Structure prediction by ZEFSAII (Michael W. Deem and Ramdas Pophale) SiO2 
 PCOD9529648
Probable space group: I B C A 
;
_chemical_formula_sum "Si O2"
_cell_formula_units_Z 56
_cell_length_a 14.633229
_cell_length_b 5.354441
_cell_length_c 34.748992
_cell_angle_alpha 90.000000
_cell_angle_beta 90.000000
_cell_angle_gamma 90.000000
_cell_volume 2722.679476
_symmetry_space_group_name_H-M "I B C A "
_symmetry_group_IT_number 73
_symmetry_cell_setting 'orthorhombic'
loop_
_space_group_symop_operation_xyz
x,y,z
-x,1/2-y,z
x,-y,1/2-z
1/2-x,y,-z
-x,-y,-z
x,1/2+y,-z
-x,y,1/2+z
1/2+x,-y,z
1/2+x,1/2+y,1/2+z
1/2-x,-y,1/2+z
1/2+x,1/2-y,-z
-x,1/2+y,1/2-z
1/2-x,1/2-y,1/2-z
1/2+x,y,1/2-z
1/2-x,1/2+y,z
x,1/2-y,1/2+z
loop_
_atom_site_type_symbol
_atom_site_label
_atom_site_fract_x
_atom_site_fract_y
_atom_site_fract_z
Si Si1 0.810443 0.504020 0.397599
Si Si2 0.689724 0.500000 0.750000
Si Si3 0.060066 0.000561 0.324202
Si Si4 0.144539 0.906205 0.015490
O O1 0.756094 0.764471 0.394333
O O2 0.883709 0.492941 0.363796
O O3 0.852966 0.483267 0.440153
O O4 0.750000 0.750000 0.750000
O O5 0.628034 0.497517 0.788065
O O6 0.000000 0.250000 0.321576
O O7 0.000000 0.750000 0.323079
O O8 0.250000 0.877462 0.000000
O O9 0.103320 0.633470 0.008787
#
# Coordination Sequence:
#
# PCOD9529648 Si02
#       4
#    16   8  16  16
#     4  12  21  36  63  93 120 158 221 268 296 360
#     4  12  24  46  74 100 122 156 220 264 290 362
#     4  12  26  44  63  93 136 173 195 244 329 386
#     4  10  16  30  52  89 112 149 204 272 311 339
#
# _framework density 20.567972000000001
#
# number of rings (size 3 to 8) (size 9 to 14) (size 15 to 20)
#    0.000    0.571    5.714    6.000    0.000    0.000 
#    0.000    0.000    0.000    5.143    0.000    0.000 
#    0.000    0.000    0.000    0.000    0.000    0.000 
#
# Total GULP energy -156679.659889 kJ/mol
# GULP energy per Si atom -5595.702139 kJ/mol
# Density = 2.052116 g / cm^3
# Si number density = 20.567972 Si / 1000 Ang^3
#
#
#
# Elastic Constant Matrix: (Units=GPa)
#
#
# Indices 1 2 3 4 5 6 
#
# 1 43.1758 18.8091 47.9007 0.0000 0.0000 0.0000
# 2 18.8091 141.9933 8.1478 0.0000 0.0000 0.0000
# 3 47.9007 8.1478 166.7741 0.0000 0.0000 0.0000
# 4 0.0000 0.0000 0.0000 30.3315 0.0000 0.0000
# 5 0.0000 0.0000 0.0000 0.0000 -48.1463 0.0000
# 6 0.0000 0.0000 0.0000 0.0000 0.0000 43.4563
#
#
#
# Elastic Compliance Matrix: (Units=1/GPa)
#
#
# Indices 1 2 3 4 5 6 
#
# 1 0.036361 -0.004229 -0.010237 0.000000 0.000000 0.000000
# 2 -0.004229 0.007554 0.000846 0.000000 0.000000 0.000000
# 3 -0.010237 0.000846 0.008895 0.000000 0.000000 0.000000
# 4 0.000000 0.000000 0.000000 0.032969 0.000000 0.000000
# 5 0.000000 0.000000 0.000000 0.000000 -0.020770 0.000000
# 6 0.000000 0.000000 0.000000 0.000000 0.000000 0.023012
#
#
# Mechanical properties :
#
#
# Convention : Reuss Voigt Hill
#
# Bulk Modulus (GPa) = 39.10951 55.73983 47.42467
# Shear Modulus (GPa) = 40.39286 23.60067 31.99677
#
# Velocity S-wave (km/s) = 4.43637 3.39107 3.94846
# Velocity P-wave (km/s) = 6.73037 6.51856 6.62531
#
# Compressibility (1/GPa) = 0.02556923
#
# Stress axis : x y z
#
# Youngs Moduli (GPa) = 27.50232 132.37544 112.42218
#
# Poissons Ratio (x) = 0.55983 1.15085
# Poissons Ratio (y) = 0.11631 -0.09507
# Poissons Ratio (z) = 0.28154 -0.11194
#
# Static dielectric constant tensor:
#      x y z
#    x 1.816420 0.000000 0.000000 
#    y 0.000000 1.733350 0.000000 
#    z 0.000000 0.000000 1.608260 
# 
# From -- ./inp_files/707.got.cif
#   From: 2010.05.17/outbox.cif.g08.bks.cpg/sg73_1_cif.got.tgz:707.got - 2010.06.03 17:35:07.
