data_PCOD9529102
_publ_section_title
;
Structure prediction by ZEFSAII (Michael W. Deem and Ramdas Pophale) SiO2 
 PCOD9529102
Probable space group: I B A M
;
_chemical_formula_sum "Si O2"
_cell_formula_units_Z 64
_cell_length_a 10.269027
_cell_length_b 8.349914
_cell_length_c 33.762495
_cell_angle_alpha 90.000000
_cell_angle_beta 90.000000
_cell_angle_gamma 90.000000
_cell_volume 2894.981756
_symmetry_space_group_name_H-M "I B A M"
_symmetry_group_IT_number 72
_symmetry_cell_setting 'orthorhombic'
loop_
_space_group_symop_operation_xyz
x,y,z
-x,-y,z
x,-y,1/2-z
-x,y,1/2-z
-x,-y,-z
x,y,-z
-x,y,1/2+z
x,-y,1/2+z
1/2+x,1/2+y,1/2+z
1/2-x,1/2-y,1/2+z
1/2+x,1/2-y,-z
1/2-x,1/2+y,-z
1/2-x,1/2-y,1/2-z
1/2+x,1/2+y,1/2-z
1/2-x,1/2+y,z
1/2+x,1/2-y,z
loop_
_atom_site_type_symbol
_atom_site_label
_atom_site_fract_x
_atom_site_fract_y
_atom_site_fract_z
Si Si1 0.132153 0.091126 0.333638
Si Si2 0.305565 0.608219 0.578331
Si Si3 0.318849 0.871449 0.280094
Si Si4 0.067981 0.780003 0.547071
O O1 0.205594 0.126530 0.374487
O O2 0.102575 0.254374 0.309386
O O3 0.217516 0.971420 0.306850
O O4 0.000000 0.000000 0.343910
O O5 0.167409 0.639364 0.558020
O O6 0.362068 0.435114 0.566437
O O7 0.421244 0.726856 0.563662
O O8 0.250000 0.750000 0.250000
O O9 0.376764 0.000000 0.250000
O O10 0.060633 0.800636 0.500000
#
# Coordination Sequence:
#
# PCOD9529102 Si02
#       4
#    16  16  16  16
#     4  11  21  40  66  90 132 169 212 276 331 390
#     4  11  23  40  65  96 130 172 218 268 334 390
#     4   9  21  40  63  94 126 163 213 262 329 400
#     4  11  22  41  64  94 131 171 218 272 328 393
#
# _framework density 22.107222
#
# number of rings (size 3 to 8) (size 9 to 14) (size 15 to 20)
#    0.000    1.500    2.500    4.500    0.000    5.500 
#    0.000   11.250    0.000    0.000    0.000    0.000 
#    0.000    0.000    0.000    0.000    0.000    0.000 
#
# Total GULP energy -178754.111630 kJ/mol
# GULP energy per Si atom -5586.065988 kJ/mol
# Density = 2.205691 g / cm^3
# Si number density = 22.107222 Si / 1000 Ang^3
#
#
#
# Elastic Constant Matrix: (Units=GPa)
#
#
# Indices 1 2 3 4 5 6 
#
# 1 58.0419 6.6496 9.8503 0.0000 0.0000 0.0000
# 2 6.6496 83.8534 27.1829 0.0000 0.0000 0.0000
# 3 9.8503 27.1829 157.8193 0.0000 0.0000 0.0000
# 4 0.0000 0.0000 0.0000 35.6072 0.0000 0.0000
# 5 0.0000 0.0000 0.0000 0.0000 85.6784 0.0000
# 6 0.0000 0.0000 0.0000 0.0000 0.0000 30.0473
#
#
#
# Elastic Compliance Matrix: (Units=1/GPa)
#
#
# Indices 1 2 3 4 5 6 
#
# 1 0.017508 -0.001095 -0.000904 0.000000 0.000000 0.000000
# 2 -0.001095 0.012699 -0.002119 0.000000 0.000000 0.000000
# 3 -0.000904 -0.002119 0.006758 0.000000 0.000000 0.000000
# 4 0.000000 0.000000 0.000000 0.028084 0.000000 0.000000
# 5 0.000000 0.000000 0.000000 0.000000 0.011672 0.000000
# 6 0.000000 0.000000 0.000000 0.000000 0.000000 0.033281
#
#
# Mechanical properties :
#
#
# Convention : Reuss Voigt Hill
#
# Bulk Modulus (GPa) = 34.80899 43.00890 38.90894
# Shear Modulus (GPa) = 39.11925 47.33537 43.22731
#
# Velocity S-wave (km/s) = 4.21113 4.63230 4.42673
# Velocity P-wave (km/s) = 6.27890 6.93598 6.61560
#
# Compressibility (1/GPa) = 0.02872821
#
# Stress axis : x y z
#
# Youngs Moduli (GPa) = 57.11727 78.74422 147.97792
#
# Poissons Ratio (x) = 0.08625 0.13379
# Poissons Ratio (y) = 0.06256 0.31356
# Poissons Ratio (z) = 0.05164 0.16686
#
# Static dielectric constant tensor:
#      x y z
#    x 1.795060 0.000000 0.000000 
#    y 0.000000 1.845720 0.000000 
#    z 0.000000 0.000000 1.761350 
# 
# From -- ./inp_files/50581.got.cif
#   From: 2010.05.17/outbox.cif.g08.bks.cpg/sg72_26_cif.got.tgz:50581.got - 2010.06.03 17:03:01.
