data_PCOD9529336
_publ_section_title
;
Structure prediction by ZEFSAII (Michael W. Deem and Ramdas Pophale) SiO2 
 PCOD9529336
Probable space group: I B A M
;
_chemical_formula_sum "Si O2"
_cell_formula_units_Z 88
_cell_length_a 14.921900
_cell_length_b 16.741305
_cell_length_c 14.862496
_cell_angle_alpha 90.000000
_cell_angle_beta 90.000000
_cell_angle_gamma 90.000000
_cell_volume 3712.831026
_symmetry_space_group_name_H-M "I B A M"
_symmetry_group_IT_number 72
_symmetry_cell_setting 'orthorhombic'
loop_
_space_group_symop_operation_xyz
x,y,z
-x,-y,z
x,-y,1/2-z
-x,y,1/2-z
-x,-y,-z
x,y,-z
-x,y,1/2+z
x,-y,1/2+z
1/2+x,1/2+y,1/2+z
1/2-x,1/2-y,1/2+z
1/2+x,1/2-y,-z
1/2-x,1/2+y,-z
1/2-x,1/2-y,1/2-z
1/2+x,1/2+y,1/2-z
1/2-x,1/2+y,z
1/2+x,1/2-y,z
loop_
_atom_site_type_symbol
_atom_site_label
_atom_site_fract_x
_atom_site_fract_y
_atom_site_fract_z
Si Si1 0.636692 0.370098 0.000000
Si Si2 0.559209 0.121483 0.391541
Si Si3 0.241916 0.685327 0.853091
Si Si4 0.710244 0.646694 0.845103
Si Si5 0.987587 0.904707 0.643282
Si Si6 0.877572 0.441414 0.607756
O O1 0.715488 0.375378 0.922576
O O2 0.559550 0.363256 0.920614
O O3 0.561518 0.135276 0.500000
O O4 0.634447 0.175514 0.346249
O O5 0.455626 0.120172 0.361736
O O6 0.591407 0.030988 0.373275
O O7 0.290566 0.672501 0.758917
O O8 0.253274 0.774970 0.891219
O O9 0.613566 0.621457 0.879365
O O10 0.781475 0.576503 0.852631
O O11 0.000000 0.890522 0.750000
O O12 0.000000 0.000000 0.627262
O O13 0.872571 0.434060 0.500000
#
# Coordination Sequence:
#
# PCOD9529336 Si02
#       6
#     8  16  16  16  16  16
#     4  12  25  46  70 101 139 196 234 290 364 433
#     4   9  19  40  66  98 129 170 220 283 345 413
#     4  11  25  43  68  95 140 187 229 289 356 418
#     4  11  26  45  62 102 141 180 236 293 346 421
#     4  11  26  46  73 108 145 190 245 301 358 425
#     4   9  21  38  66  98 132 168 224 285 345 408
#
# _framework density 23.701592000000002
#
# number of rings (size 3 to 8) (size 9 to 14) (size 15 to 20)
#    0.000    1.636    2.727    1.364    5.091    2.909 
#    3.273    1.818    0.000    0.000    0.000    0.000 
#    0.000    0.000    0.000    0.000    0.000    0.000 
#
# Total GULP energy -244970.784276 kJ/mol
# GULP energy per Si atom -5567.517824 kJ/mol
# Density = 2.364765 g / cm^3
# Si number density = 23.701592 Si / 1000 Ang^3
#
#
#
# Elastic Constant Matrix: (Units=GPa)
#
#
# Indices 1 2 3 4 5 6 
#
# 1 119.4776 9.3675 -0.6508 0.0000 0.0000 0.0000
# 2 9.3675 30.8359 7.7723 0.0000 0.0000 0.0000
# 3 -0.6508 7.7723 61.2046 0.0000 0.0000 0.0000
# 4 0.0000 0.0000 0.0000 2.8292 0.0000 0.0000
# 5 0.0000 0.0000 0.0000 0.0000 28.2239 0.0000
# 6 0.0000 0.0000 0.0000 0.0000 0.0000 22.5333
#
#
#
# Elastic Compliance Matrix: (Units=1/GPa)
#
#
# Indices 1 2 3 4 5 6 
#
# 1 0.008585 -0.002718 0.000436 0.000000 0.000000 0.000000
# 2 -0.002718 0.034363 -0.004393 0.000000 0.000000 0.000000
# 3 0.000436 -0.004393 0.016901 0.000000 0.000000 0.000000
# 4 0.000000 0.000000 0.000000 0.353462 0.000000 0.000000
# 5 0.000000 0.000000 0.000000 0.000000 0.035431 0.000000
# 6 0.000000 0.000000 0.000000 0.000000 0.000000 0.044379
#
#
# Mechanical properties :
#
#
# Convention : Reuss Voigt Hill
#
# Bulk Modulus (GPa) = 21.50511 27.16623 24.33567
# Shear Modulus (GPa) = 9.57910 23.71921 16.64916
#
# Velocity S-wave (km/s) = 2.01254 3.16688 2.65325
# Velocity P-wave (km/s) = 3.80702 4.98587 4.43578
#
# Compressibility (1/GPa) = 0.04650057
#
# Stress axis : x y z
#
# Youngs Moduli (GPa) = 116.47881 29.10137 59.16778
#
# Poissons Ratio (x) = 0.07910 -0.02582
# Poissons Ratio (y) = 0.31660 0.25990
# Poissons Ratio (z) = -0.05084 0.12783
#
# Static dielectric constant tensor:
#      x y z
#    x 1.881010 0.000000 0.000000 
#    y 0.000000 1.982910 0.000000 
#    z 0.000000 0.000000 2.339920 
# 
# From -- ./inp_files/29272.got.cif
#   From: 2010.05.17/outbox.cif.g08.bks.cpg/sg72_15_cif.got.tgz:29272.got - 2010.06.03 17:03:01.
