data_PCOD9529382
_publ_section_title
;
Structure prediction by ZEFSAII (Michael W. Deem and Ramdas Pophale) SiO2 
 PCOD9529382
Probable space group: I B A M
;
_chemical_formula_sum "Si O2"
_cell_formula_units_Z 68
_cell_length_a 26.969811
_cell_length_b 7.947009
_cell_length_c 14.010288
_cell_angle_alpha 90.000000
_cell_angle_beta 90.000000
_cell_angle_gamma 90.000000
_cell_volume 3002.815651
_symmetry_space_group_name_H-M "I B A M"
_symmetry_group_IT_number 72
_symmetry_cell_setting 'orthorhombic'
loop_
_space_group_symop_operation_xyz
x,y,z
-x,-y,z
x,-y,1/2-z
-x,y,1/2-z
-x,-y,-z
x,y,-z
-x,y,1/2+z
x,-y,1/2+z
1/2+x,1/2+y,1/2+z
1/2-x,1/2-y,1/2+z
1/2+x,1/2-y,-z
1/2-x,1/2+y,-z
1/2-x,1/2-y,1/2-z
1/2+x,1/2+y,1/2-z
1/2-x,1/2+y,z
1/2+x,1/2-y,z
loop_
_atom_site_type_symbol
_atom_site_label
_atom_site_fract_x
_atom_site_fract_y
_atom_site_fract_z
Si Si1 0.500000 0.000000 0.250000
Si Si2 0.730656 0.751280 0.000000
Si Si3 0.170641 0.592375 0.500000
Si Si4 0.479224 0.313376 0.614876
Si Si5 0.800836 0.179613 0.205843
Si Si6 0.388641 0.147249 0.308357
O O1 0.505426 0.154968 0.334726
O O2 0.790466 0.747131 0.000000
O O3 0.709039 0.667857 0.905531
O O4 0.708747 0.938070 0.000000
O O5 0.137396 0.588169 0.594240
O O6 0.500000 0.500000 0.634082
O O7 0.477894 0.291567 0.500000
O O8 0.424198 0.296173 0.659530
O O9 0.750000 0.250000 0.250000
O O10 0.845697 0.298889 0.236176
O O11 0.811045 0.000000 0.250000
O O12 0.418619 0.000000 0.250000
#
# Coordination Sequence:
#
# PCOD9529382 Si02
#       6
#     4   8   8  16  16  16
#     4  12  24  48  84 108 156 196 240 324 420 468
#     4  12  24  40  66 104 154 211 257 313 374 450
#     4  12  24  40  73 103 154 208 263 306 376 450
#     4  11  26  49  81 116 151 198 259 332 410 490
#     4  12  25  41  66 101 148 201 257 311 375 445
#     4  12  24  46  73 110 149 203 257 320 388 475
#
# _framework density 22.645413000000001
#
# number of rings (size 3 to 8) (size 9 to 14) (size 15 to 20)
#    0.000    0.235    7.059    2.824    0.000    1.882 
#    0.000    0.000    0.000    0.000    0.000    0.000 
#    0.000    0.000    0.000    0.000    0.000    0.000 
#
# Total GULP energy -189913.019096 kJ/mol
# GULP energy per Si atom -5585.677032 kJ/mol
# Density = 2.259387 g / cm^3
# Si number density = 22.645413 Si / 1000 Ang^3
#
#
#
# Elastic Constant Matrix: (Units=GPa)
#
#
# Indices 1 2 3 4 5 6 
#
# 1 95.1054 54.2091 58.3287 0.0000 0.0000 0.0000
# 2 54.2091 154.6212 67.0643 0.0000 0.0000 0.0000
# 3 58.3287 67.0643 222.8055 0.0000 0.0000 0.0000
# 4 0.0000 0.0000 0.0000 37.7093 0.0000 0.0000
# 5 0.0000 0.0000 0.0000 0.0000 45.6761 0.0000
# 6 0.0000 0.0000 0.0000 0.0000 0.0000 48.6538
#
#
#
# Elastic Compliance Matrix: (Units=1/GPa)
#
#
# Indices 1 2 3 4 5 6 
#
# 1 0.014318 -0.003904 -0.002573 0.000000 0.000000 0.000000
# 2 -0.003904 0.008503 -0.001537 0.000000 0.000000 0.000000
# 3 -0.002573 -0.001537 0.005625 0.000000 0.000000 0.000000
# 4 0.000000 0.000000 0.000000 0.026519 0.000000 0.000000
# 5 0.000000 0.000000 0.000000 0.000000 0.021893 0.000000
# 6 0.000000 0.000000 0.000000 0.000000 0.000000 0.020553
#
#
# Mechanical properties :
#
#
# Convention : Reuss Voigt Hill
#
# Bulk Modulus (GPa) = 80.53685 92.41513 86.47599
# Shear Modulus (GPa) = 42.52485 45.93651 44.23068
#
# Velocity S-wave (km/s) = 4.33813 4.50879 4.42428
# Velocity P-wave (km/s) = 7.79320 8.24644 8.02302
#
# Compressibility (1/GPa) = 0.01241668
#
# Stress axis : x y z
#
# Youngs Moduli (GPa) = 69.84264 117.60801 177.78868
#
# Poissons Ratio (x) = 0.45910 0.45751
# Poissons Ratio (y) = 0.27264 0.27333
# Poissons Ratio (z) = 0.17973 0.18081
#
# Static dielectric constant tensor:
#      x y z
#    x 1.736420 0.000000 0.000000 
#    y 0.000000 2.110110 0.000000 
#    z 0.000000 0.000000 1.794580 
# 
# From -- ./inp_files/25685.got.cif
#   From: 2010.05.17/outbox.cif.g08.bks.cpg/sg72_13_cif.got.tgz:25685.got - 2010.06.03 17:03:01.
