data_PCOD9529514
_publ_section_title
;
Structure prediction by ZEFSAII (Michael W. Deem and Ramdas Pophale) SiO2 
 PCOD9529514
Probable space group: I B A M
;
_chemical_formula_sum "Si O2"
_cell_formula_units_Z 48
_cell_length_a 27.000000
_cell_length_b 21.000000
_cell_length_c 9.000000
_cell_angle_alpha 90.000000
_cell_angle_beta 90.000000
_cell_angle_gamma 90.000000
_cell_volume 5103.000000
_symmetry_space_group_name_H-M "I B A M"
_symmetry_group_IT_number 72
_symmetry_cell_setting 'orthorhombic'
loop_
_space_group_symop_operation_xyz
x,y,z
-x,-y,z
x,-y,1/2-z
-x,y,1/2-z
-x,-y,-z
x,y,-z
-x,y,1/2+z
x,-y,1/2+z
1/2+x,1/2+y,1/2+z
1/2-x,1/2-y,1/2+z
1/2+x,1/2-y,-z
1/2-x,1/2+y,-z
1/2-x,1/2-y,1/2-z
1/2+x,1/2+y,1/2-z
1/2-x,1/2+y,z
1/2+x,1/2-y,z
loop_
_atom_site_type_symbol
_atom_site_label
_atom_site_fract_x
_atom_site_fract_y
_atom_site_fract_z
Si Si1 0.079930 0.306437 0.330502
Si Si2 0.636493 0.568558 0.322362
Si Si3 0.948843 0.172840 0.678618
Si Si4 0.054306 0.562427 0.677879
Si Si5 0.278684 0.648096 0.323281
Si Si6 0.196482 0.707352 0.166841
O O1 0.059203 0.312794 0.500000
O O2 0.061180 0.241705 0.253250
O O3 0.072226 0.368780 0.231408
O O4 0.138604 0.301383 0.342922
O O5 0.625472 0.500000 0.250000
O O6 0.639406 0.561884 0.500000
O O7 0.594787 0.622169 0.288550
O O8 0.687824 0.596374 0.257687
O O9 0.952638 0.179434 0.500000
O O10 0.000000 0.148935 0.750000
O O11 0.080381 0.500000 0.750000
O O12 0.053360 0.556911 0.500000
O O13 0.000000 0.561629 0.750000
O O14 0.282846 0.640509 0.500000
O O15 0.222333 0.654646 0.268905
O O16 0.296808 0.719645 0.280766
O O17 0.218369 0.703077 0.000000
#
# Coordination Sequence:
#
# PCOD9529514 Si02
#       6
#    16  16  16  16  16  16
#     4  11  21  37  60  88 121 156 194 241 293 348
#     4  11  24  41  62  86 118 158 202 250 304 363
#     4  11  24  40  60  87 118 155 200 253 303 356
#     4  11  22  38  58  82 113 152 195 237 287 346
#     4  10  19  35  59  87 116 150 190 236 286 342
#     4   9  19  34  57  87 118 151 187 234 285 341
#
# _framework density 9.4062319999999993
#
# number of rings (size 3 to 8) (size 9 to 14) (size 15 to 20)
#    0.000    1.500    1.667    4.500    0.000    4.333 
#    0.000    2.500    0.000    4.000    0.000    0.000 
#    0.000    0.000    0.000    0.000    0.000    0.000 
#
# Total GULP energy -267711.849027 kJ/mol
# GULP energy per Si atom -5577.330188 kJ/mol
# Density = 0.938482 g / cm^3
# Si number density = 9.406232 Si / 1000 Ang^3
#
#
#
# Elastic Constant Matrix: (Units=GPa)
#
#
# Indices 1 2 3 4 5 6 
#
# 1 51.9020 12.9371 20.1559 0.0000 0.0000 0.0000
# 2 12.9371 112.7812 53.6767 0.0000 0.0000 0.0000
# 3 20.1559 53.6767 120.1448 0.0000 0.0000 0.0000
# 4 0.0000 0.0000 0.0000 35.9108 0.0000 0.0000
# 5 0.0000 0.0000 0.0000 0.0000 24.5417 0.0000
# 6 0.0000 0.0000 0.0000 0.0000 0.0000 -21.7459
#
#
#
# Elastic Compliance Matrix: (Units=1/GPa)
#
#
# Indices 1 2 3 4 5 6 
#
# 1 0.020684 -0.000916 -0.003061 0.000000 0.000000 0.000000
# 2 -0.000916 0.011302 -0.004896 0.000000 0.000000 0.000000
# 3 -0.003061 -0.004896 0.011024 0.000000 0.000000 0.000000
# 4 0.000000 0.000000 0.000000 0.027847 0.000000 0.000000
# 5 0.000000 0.000000 0.000000 0.000000 0.040747 0.000000
# 6 0.000000 0.000000 0.000000 0.000000 0.000000 -0.045986
#
#
# Mechanical properties :
#
#
# Convention : Reuss Voigt Hill
#
# Bulk Modulus (GPa) = 39.58023 50.92969 45.25496
# Shear Modulus (GPa) = 54.47563 20.94522 37.71043
#
# Velocity S-wave (km/s) = 5.38703 3.34034 4.48207
# Velocity P-wave (km/s) = 7.73165 6.48138 7.13396
#
# Compressibility (1/GPa) = 0.02526514
#
# Stress axis : x y z
#
# Youngs Moduli (GPa) = 48.34644 88.48153 90.71130
#
# Poissons Ratio (x) = 0.08104 0.27765
# Poissons Ratio (y) = 0.04428 0.44409
# Poissons Ratio (z) = 0.14798 0.43317
#
# Static dielectric constant tensor:
#      x y z
#    x 1.721980 0.000000 0.000000 
#    y 0.000000 1.687630 0.000000 
#    z 0.000000 0.000000 1.684020 
# 
# From -- ./inp_files/8066.got.cif
#   From: 2010.05.17/outbox.ucp.g08.bks.cvg/sg72_5_cif.got.tgz:8066.got - 2010.06.11 16:33:07.
