data_PCOD9529459
_publ_section_title
;
Structure prediction by ZEFSAII (Michael W. Deem and Ramdas Pophale) SiO2 
 PCOD9529459
Probable space group: I B A M
;
_chemical_formula_sum "Si O2"
_cell_formula_units_Z 48
_cell_length_a 10.299377
_cell_length_b 9.403234
_cell_length_c 16.967894
_cell_angle_alpha 90.000000
_cell_angle_beta 90.000000
_cell_angle_gamma 90.000000
_cell_volume 1643.297299
_symmetry_space_group_name_H-M "I B A M"
_symmetry_group_IT_number 72
_symmetry_cell_setting 'orthorhombic'
loop_
_space_group_symop_operation_xyz
x,y,z
-x,-y,z
x,-y,1/2-z
-x,y,1/2-z
-x,-y,-z
x,y,-z
-x,y,1/2+z
x,-y,1/2+z
1/2+x,1/2+y,1/2+z
1/2-x,1/2-y,1/2+z
1/2+x,1/2-y,-z
1/2-x,1/2+y,-z
1/2-x,1/2-y,1/2-z
1/2+x,1/2+y,1/2-z
1/2-x,1/2+y,z
1/2+x,1/2-y,z
loop_
_atom_site_type_symbol
_atom_site_label
_atom_site_fract_x
_atom_site_fract_y
_atom_site_fract_z
Si Si1 0.153459 0.022772 0.500000
Si Si2 0.932517 0.319041 0.834585
Si Si3 0.774285 0.042508 0.166521
Si Si4 0.434084 0.154810 0.500000
O O1 0.178046 0.967968 0.412384
O O2 0.276757 0.139395 0.500000
O O3 0.000000 0.000000 0.500000
O O4 0.811032 0.207775 0.838225
O O5 0.000000 0.291293 0.750000
O O6 0.129533 0.522216 0.832659
O O7 0.008389 0.287356 0.916838
O O8 0.833417 0.000000 0.250000
O O9 0.500000 0.000000 0.500000
#
# Coordination Sequence:
#
# PCOD9529459 Si02
#       4
#     8  16  16   8
#     4  12  29  52  89 128 183 236 309 378 465 547
#     4  12  29  55  95 132 186 243 309 383 471 552
#     4  12  28  56  86 137 185 239 310 383 462 559
#     4  12  25  56  93 130 180 241 307 380 471 550
#
# _framework density 29.209565000000001
#
# number of rings (size 3 to 8) (size 9 to 14) (size 15 to 20)
#    0.000    0.000    3.333    4.000    4.667    0.000 
#    6.000    1.667    0.000    0.000    0.000    0.000 
#    0.000    0.000    0.000    0.000    0.000    0.000 
#
# Total GULP energy -133878.923172 kJ/mol
# GULP energy per Si atom -5578.288466 kJ/mol
# Density = 2.914308 g / cm^3
# Si number density = 29.209565 Si / 1000 Ang^3
#
#
#
# Elastic Constant Matrix: (Units=GPa)
#
#
# Indices 1 2 3 4 5 6 
#
# 1 235.2679 58.3539 116.9947 0.0000 0.0000 0.0000
# 2 58.3539 101.5855 63.8522 0.0000 0.0000 0.0000
# 3 116.9947 63.8522 384.9232 0.0000 0.0000 0.0000
# 4 0.0000 0.0000 0.0000 12.0422 0.0000 0.0000
# 5 0.0000 0.0000 0.0000 0.0000 34.5442 0.0000
# 6 0.0000 0.0000 0.0000 0.0000 0.0000 53.6273
#
#
#
# Elastic Compliance Matrix: (Units=1/GPa)
#
#
# Indices 1 2 3 4 5 6 
#
# 1 0.005463 -0.002338 -0.001273 0.000000 0.000000 0.000000
# 2 -0.002338 0.011991 -0.001278 0.000000 0.000000 0.000000
# 3 -0.001273 -0.001278 0.003197 0.000000 0.000000 0.000000
# 4 0.000000 0.000000 0.000000 0.083041 0.000000 0.000000
# 5 0.000000 0.000000 0.000000 0.000000 0.028948 0.000000
# 6 0.000000 0.000000 0.000000 0.000000 0.000000 0.018647
#
#
# Mechanical properties :
#
#
# Convention : Reuss Voigt Hill
#
# Bulk Modulus (GPa) = 91.97860 133.35316 112.66588
# Shear Modulus (GPa) = 30.36001 52.21445 41.28723
#
# Velocity S-wave (km/s) = 3.22745 4.23257 3.76371
# Velocity P-wave (km/s) = 6.74137 8.34501 7.58569
#
# Compressibility (1/GPa) = 0.01087209
#
# Stress axis : x y z
#
# Youngs Moduli (GPa) = 183.03848 83.39828 312.81458
#
# Poissons Ratio (x) = 0.19502 0.39810
# Poissons Ratio (y) = 0.42801 0.39987
# Poissons Ratio (z) = 0.23294 0.10661
#
# Static dielectric constant tensor:
#      x y z
#    x 2.372010 0.000000 0.000000 
#    y 0.000000 2.425340 0.000000 
#    z 0.000000 0.000000 2.247310 
# 
# From -- ./inp_files/27327.got.cif
#   From: 2010.05.17/outbox.cif.g08.bks.cpg/sg72_14_cif.got.tgz:27327.got - 2010.06.03 17:03:01.
