data_PCOD9529595
_publ_section_title
;
Structure prediction by ZEFSAII (Michael W. Deem and Ramdas Pophale) SiO2 
 PCOD9529595
Probable space group: I B A M
;
_chemical_formula_sum "Si O2"
_cell_formula_units_Z 56
_cell_length_a 24.000000
_cell_length_b 15.000000
_cell_length_c 15.000000
_cell_angle_alpha 90.000000
_cell_angle_beta 90.000000
_cell_angle_gamma 90.000000
_cell_volume 5400.000000
_symmetry_space_group_name_H-M "I B A M"
_symmetry_group_IT_number 72
_symmetry_cell_setting 'orthorhombic'
loop_
_space_group_symop_operation_xyz
x,y,z
-x,-y,z
x,-y,1/2-z
-x,y,1/2-z
-x,-y,-z
x,y,-z
-x,y,1/2+z
x,-y,1/2+z
1/2+x,1/2+y,1/2+z
1/2-x,1/2-y,1/2+z
1/2+x,1/2-y,-z
1/2-x,1/2+y,-z
1/2-x,1/2-y,1/2-z
1/2+x,1/2+y,1/2-z
1/2-x,1/2+y,z
1/2+x,1/2-y,z
loop_
_atom_site_type_symbol
_atom_site_label
_atom_site_fract_x
_atom_site_fract_y
_atom_site_fract_z
Si Si1 0.832095 0.372857 0.666993
Si Si2 0.227508 0.238734 0.601990
Si Si3 0.997418 0.898339 0.644772
Si Si4 0.893527 0.787436 0.896872
Si Si5 0.665971 0.465474 0.156265
Si Si6 0.795457 0.440480 0.143151
Si Si7 0.123976 0.143191 0.403003
O O1 0.780550 0.304682 0.649919
O O2 0.884332 0.308015 0.649651
O O3 0.825855 0.407467 0.767395
O O4 0.825824 0.467177 0.612577
O O5 0.234346 0.206672 0.500000
O O6 0.216209 0.344510 0.597330
O O7 0.173335 0.193359 0.647398
O O8 0.046540 0.834558 0.611775
O O9 0.000000 0.907084 0.750000
O O10 0.938132 0.853893 0.629197
O O11 0.000000 0.000000 0.607276
O O12 0.852799 0.865822 0.862506
O O13 0.879782 0.772377 0.000000
O O14 0.642438 0.500000 0.250000
O O15 0.732131 0.473246 0.157074
O O16 0.641055 0.539673 0.091865
O O17 0.123570 0.185924 0.500000
#
# Coordination Sequence:
#
# PCOD9529595 Si02
#       7
#    16  16  16  16  16  16  16
#     4  11  23  40  60  92 127 168 218 260 321 383
#     4  11  23  36  59  90 124 166 205 257 324 389
#     4  11  24  41  63  93 123 166 211 262 323 389
#     4  12  26  40  63  95 132 169 212 271 326 386
#     4  12  21  35  59  92 126 172 211 248 310 381
#     4  11  23  39  60  88 128 172 211 262 314 385
#     4  11  23  38  58  88 129 165 204 259 321 391
#
# _framework density 10.370369999999999
#
# number of rings (size 3 to 8) (size 9 to 14) (size 15 to 20)
#    0.000    0.714    5.714    2.571    4.000    2.286 
#    0.000    0.000    0.000    0.857    0.000    3.000 
#    0.000    0.000    0.000    0.000    0.000    0.000 
#
# Total GULP energy -312043.166104 kJ/mol
# GULP energy per Si atom -5572.199395 kJ/mol
# Density = 1.034677 g / cm^3
# Si number density = 10.370370 Si / 1000 Ang^3
#
#
#
# Elastic Constant Matrix: (Units=GPa)
#
#
# Indices 1 2 3 4 5 6 
#
# 1 96.1830 46.4511 10.1765 0.0000 0.0000 0.0000
# 2 46.4511 151.3350 10.6911 0.0000 0.0000 0.0000
# 3 10.1765 10.6911 70.2599 0.0000 0.0000 0.0000
# 4 0.0000 0.0000 0.0000 -34.1384 0.0000 0.0000
# 5 0.0000 0.0000 0.0000 0.0000 9.8293 0.0000
# 6 0.0000 0.0000 0.0000 0.0000 0.0000 35.3639
#
#
#
# Elastic Compliance Matrix: (Units=1/GPa)
#
#
# Indices 1 2 3 4 5 6 
#
# 1 0.012309 -0.003692 -0.001221 0.000000 0.000000 0.000000
# 2 -0.003692 0.007787 -0.000650 0.000000 0.000000 0.000000
# 3 -0.001221 -0.000650 0.014509 0.000000 0.000000 0.000000
# 4 0.000000 0.000000 0.000000 -0.029293 0.000000 0.000000
# 5 0.000000 0.000000 0.000000 0.000000 0.101736 0.000000
# 6 0.000000 0.000000 0.000000 0.000000 0.000000 0.028277
#
#
# Mechanical properties :
#
#
# Convention : Reuss Voigt Hill
#
# Bulk Modulus (GPa) = 42.59232 50.26836 46.43034
# Shear Modulus (GPa) = 32.40893 18.90823 25.65858
#
# Velocity S-wave (km/s) = 3.95723 3.02262 3.52107
# Velocity P-wave (km/s) = 6.43892 6.03911 6.24222
#
# Compressibility (1/GPa) = 0.02347841
#
# Stress axis : x y z
#
# Youngs Moduli (GPa) = 81.24115 128.41935 68.92429
#
# Poissons Ratio (x) = 0.47411 0.08416
# Poissons Ratio (y) = 0.29993 0.04481
# Poissons Ratio (z) = 0.09920 0.08349
#
# Static dielectric constant tensor:
#      x y z
#    x 1.946960 0.000000 0.000000 
#    y 0.000000 1.768450 0.000000 
#    z 0.000000 0.000000 2.022600 
# 
# From -- ./inp_files/25193.got.cif
#   From: 2010.05.17/outbox.ucp.g08.bks.cvg/sg72_13_cif.got.tgz:25193.got - 2010.06.11 16:33:07.
