data_PCOD9529810
_publ_section_title
;
Structure prediction by ZEFSAII (Michael W. Deem and Ramdas Pophale) SiO2 
 PCOD9529810
Probable space group: I B C A 
;
_chemical_formula_sum "Si O2"
_cell_formula_units_Z 72
_cell_length_a 27.251523
_cell_length_b 7.609999
_cell_length_c 13.572256
_cell_angle_alpha 90.000000
_cell_angle_beta 90.000000
_cell_angle_gamma 90.000000
_cell_volume 2814.669590
_symmetry_space_group_name_H-M "I B C A "
_symmetry_group_IT_number 73
_symmetry_cell_setting 'orthorhombic'
loop_
_space_group_symop_operation_xyz
x,y,z
-x,1/2-y,z
x,-y,1/2-z
1/2-x,y,-z
-x,-y,-z
x,1/2+y,-z
-x,y,1/2+z
1/2+x,-y,z
1/2+x,1/2+y,1/2+z
1/2-x,-y,1/2+z
1/2+x,1/2-y,-z
-x,1/2+y,1/2-z
1/2-x,1/2-y,1/2-z
1/2+x,y,1/2-z
1/2-x,1/2+y,z
x,1/2-y,1/2+z
loop_
_atom_site_type_symbol
_atom_site_label
_atom_site_fract_x
_atom_site_fract_y
_atom_site_fract_z
Si Si1 0.122041 0.586477 0.840919
Si Si2 0.826953 0.107285 0.446104
Si Si3 0.546199 0.139756 0.873412
Si Si4 0.068998 0.753363 0.599811
Si Si5 0.250000 0.644608 0.500000
O O1 0.150341 0.500000 0.750000
O O2 0.154149 0.593898 0.939758
O O3 0.095098 0.774009 0.825292
O O4 0.078709 0.439178 0.855397
O O5 0.877019 0.157035 0.395563
O O6 0.785445 0.250118 0.429213
O O7 0.792258 0.941566 0.432922
O O8 0.500000 0.250000 0.835523
O O9 0.538546 0.928090 0.867942
O O10 0.554140 0.200179 0.987833
#
# Coordination Sequence:
#
# PCOD9529810 Si02
#       5
#    16  16  16  16   8
#     4  11  24  41  58  88 128 164 195 249 313 365
#     4  10  18  36  58  89 114 154 200 244 296 355
#     4  11  22  38  63  93 114 157 214 253 291 359
#     4  11  20  38  66  86 120 159 202 252 302 359
#     4  10  18  30  66  88 110 146 210 256 278 350
#
# _framework density 25.580265000000001
#
# number of rings (size 3 to 8) (size 9 to 14) (size 15 to 20)
#    0.000    1.333    6.667    2.000    0.000    0.889 
#    4.000    1.111    0.000    0.000    0.000    0.000 
#    0.000    0.000    0.000    0.000    0.000    0.000 
#
# Total GULP energy -200441.541611 kJ/mol
# GULP energy per Si atom -5567.820600 kJ/mol
# Density = 2.552204 g / cm^3
# Si number density = 25.580265 Si / 1000 Ang^3
#
#
#
# Elastic Constant Matrix: (Units=GPa)
#
#
# Indices 1 2 3 4 5 6 
#
# 1 112.6821 8.6676 10.0878 0.0000 0.0000 0.0000
# 2 8.6676 155.9158 19.0846 0.0000 0.0000 0.0000
# 3 10.0878 19.0846 81.1368 0.0000 0.0000 0.0000
# 4 0.0000 0.0000 0.0000 34.4323 0.0000 0.0000
# 5 0.0000 0.0000 0.0000 0.0000 5.5170 0.0000
# 6 0.0000 0.0000 0.0000 0.0000 0.0000 43.0339
#
#
#
# Elastic Compliance Matrix: (Units=1/GPa)
#
#
# Indices 1 2 3 4 5 6 
#
# 1 0.008996 -0.000374 -0.001030 0.000000 0.000000 0.000000
# 2 -0.000374 0.006619 -0.001510 0.000000 0.000000 0.000000
# 3 -0.001030 -0.001510 0.012808 0.000000 0.000000 0.000000
# 4 0.000000 0.000000 0.000000 0.029043 0.000000 0.000000
# 5 0.000000 0.000000 0.000000 0.000000 0.181258 0.000000
# 6 0.000000 0.000000 0.000000 0.000000 0.000000 0.023238
#
#
# Mechanical properties :
#
#
# Convention : Reuss Voigt Hill
#
# Bulk Modulus (GPa) = 44.26070 47.26831 45.76451
# Shear Modulus (GPa) = 18.16056 37.38960 27.77508
#
# Velocity S-wave (km/s) = 2.66737 3.82731 3.29872
# Velocity P-wave (km/s) = 5.17945 6.16844 5.69545
#
# Compressibility (1/GPa) = 0.02259341
#
# Stress axis : x y z
#
# Youngs Moduli (GPa) = 111.16620 151.07124 78.07450
#
# Poissons Ratio (x) = 0.05649 0.08045
# Poissons Ratio (y) = 0.04157 0.11793
# Poissons Ratio (z) = 0.11455 0.22819
#
# Static dielectric constant tensor:
#      x y z
#    x 2.060020 0.000000 0.000000 
#    y 0.000000 2.247880 0.000000 
#    z 0.000000 0.000000 2.180810 
# 
# From -- ./inp_files/5530.got.cif
#   From: 2010.05.17/outbox.cif.g08.bks.cpg/sg73_3_cif.got.tgz:5530.got - 2010.06.03 17:35:07.
