data_PCOD9529189
_publ_section_title
;
Structure prediction by ZEFSAII (Michael W. Deem and Ramdas Pophale) SiO2 
 PCOD9529189
Probable space group: I B A M
;
_chemical_formula_sum "Si O2"
_cell_formula_units_Z 80
_cell_length_a 24.849966
_cell_length_b 9.106669
_cell_length_c 18.325430
_cell_angle_alpha 90.000000
_cell_angle_beta 90.000000
_cell_angle_gamma 90.000000
_cell_volume 4147.052414
_symmetry_space_group_name_H-M "I B A M"
_symmetry_group_IT_number 72
_symmetry_cell_setting 'orthorhombic'
loop_
_space_group_symop_operation_xyz
x,y,z
-x,-y,z
x,-y,1/2-z
-x,y,1/2-z
-x,-y,-z
x,y,-z
-x,y,1/2+z
x,-y,1/2+z
1/2+x,1/2+y,1/2+z
1/2-x,1/2-y,1/2+z
1/2+x,1/2-y,-z
1/2-x,1/2+y,-z
1/2-x,1/2-y,1/2-z
1/2+x,1/2+y,1/2-z
1/2-x,1/2+y,z
1/2+x,1/2-y,z
loop_
_atom_site_type_symbol
_atom_site_label
_atom_site_fract_x
_atom_site_fract_y
_atom_site_fract_z
Si Si1 0.182773 0.940397 0.583486
Si Si2 0.060293 0.332938 0.224976
Si Si3 0.149521 0.865501 0.802721
Si Si4 0.876643 0.629320 0.084960
Si Si5 0.793711 0.572573 0.329666
O O1 0.192390 0.979403 0.500000
O O2 0.159815 0.776073 0.587810
O O3 0.238452 0.948566 0.627266
O O4 0.141003 0.052995 0.620596
O O5 0.070959 0.500000 0.250000
O O6 0.100906 0.222309 0.265290
O O7 0.073282 0.336375 0.138636
O O8 0.000000 0.296981 0.250000
O O9 0.194838 0.743931 0.816125
O O10 0.164272 0.000000 0.750000
O O11 0.841347 0.500382 0.122083
O O12 0.889538 0.599578 0.000000
O O13 0.793559 0.500000 0.250000
#
# Coordination Sequence:
#
# PCOD9529189 Si02
#       5
#    16  16  16  16  16
#     4  11  25  39  58  94 137 172 209 265 319 375
#     4  11  23  46  70  93 120 165 221 271 323 394
#     4  12  22  41  64  95 128 168 217 264 321 379
#     4  11  22  42  64  92 132 168 208 268 324 376
#     4  12  22  38  63  93 127 177 219 248 305 388
#
# _framework density 19.290808999999999
#
# number of rings (size 3 to 8) (size 9 to 14) (size 15 to 20)
#    0.000    0.600    6.000    2.400    0.000    6.000 
#    0.000    3.000    0.000    2.400    0.000    0.000 
#    0.000    0.000    0.000    0.000    0.000    0.000 
#
# Total GULP energy -223478.804619 kJ/mol
# GULP energy per Si atom -5586.970115 kJ/mol
# Density = 1.924690 g / cm^3
# Si number density = 19.290809 Si / 1000 Ang^3
#
#
#
# Elastic Constant Matrix: (Units=GPa)
#
#
# Indices 1 2 3 4 5 6 
#
# 1 82.9009 15.9785 71.6224 0.0000 0.0000 0.0000
# 2 15.9785 112.5939 49.3594 0.0000 0.0000 0.0000
# 3 71.6224 49.3594 188.8024 0.0000 0.0000 0.0000
# 4 0.0000 0.0000 0.0000 29.1704 0.0000 0.0000
# 5 0.0000 0.0000 0.0000 0.0000 20.9292 0.0000
# 6 0.0000 0.0000 0.0000 0.0000 0.0000 19.3224
#
#
#
# Elastic Compliance Matrix: (Units=1/GPa)
#
#
# Indices 1 2 3 4 5 6 
#
# 1 0.017968 0.000495 -0.006945 0.000000 0.000000 0.000000
# 2 0.000495 0.010045 -0.002814 0.000000 0.000000 0.000000
# 3 -0.006945 -0.002814 0.008667 0.000000 0.000000 0.000000
# 4 0.000000 0.000000 0.000000 0.034281 0.000000 0.000000
# 5 0.000000 0.000000 0.000000 0.000000 0.047780 0.000000
# 6 0.000000 0.000000 0.000000 0.000000 0.000000 0.051753
#
#
# Mechanical properties :
#
#
# Convention : Reuss Voigt Hill
#
# Bulk Modulus (GPa) = 55.09404 73.13529 64.11466
# Shear Modulus (GPa) = 25.63137 30.37351 28.00244
#
# Velocity S-wave (km/s) = 3.64906 3.97231 3.81411
# Velocity P-wave (km/s) = 6.80999 7.68331 7.25980
#
# Compressibility (1/GPa) = 0.01815078
#
# Stress axis : x y z
#
# Youngs Moduli (GPa) = 55.65521 99.55436 115.38094
#
# Poissons Ratio (x) = -0.04927 0.80138
# Poissons Ratio (y) = -0.02755 0.32466
# Poissons Ratio (z) = 0.38655 0.28013
#
# Static dielectric constant tensor:
#      x y z
#    x 1.672610 0.000000 0.000000 
#    y 0.000000 1.691750 0.000000 
#    z 0.000000 0.000000 1.711840 
# 
# From -- ./inp_files/33758.got.cif
#   From: 2010.05.17/outbox.cif.g08.bks.cpg/sg72_17_cif.got.tgz:33758.got - 2010.06.03 17:03:01.
