data_PCOD9529125
_publ_section_title
;
Structure prediction by ZEFSAII (Michael W. Deem and Ramdas Pophale) SiO2 
 PCOD9529125
Probable space group: I B A M
;
_chemical_formula_sum "Si O2"
_cell_formula_units_Z 80
_cell_length_a 18.273196
_cell_length_b 14.388546
_cell_length_c 16.281480
_cell_angle_alpha 90.000000
_cell_angle_beta 90.000000
_cell_angle_gamma 90.000000
_cell_volume 4280.803590
_symmetry_space_group_name_H-M "I B A M"
_symmetry_group_IT_number 72
_symmetry_cell_setting 'orthorhombic'
loop_
_space_group_symop_operation_xyz
x,y,z
-x,-y,z
x,-y,1/2-z
-x,y,1/2-z
-x,-y,-z
x,y,-z
-x,y,1/2+z
x,-y,1/2+z
1/2+x,1/2+y,1/2+z
1/2-x,1/2-y,1/2+z
1/2+x,1/2-y,-z
1/2-x,1/2+y,-z
1/2-x,1/2-y,1/2-z
1/2+x,1/2+y,1/2-z
1/2-x,1/2+y,z
1/2+x,1/2-y,z
loop_
_atom_site_type_symbol
_atom_site_label
_atom_site_fract_x
_atom_site_fract_y
_atom_site_fract_z
Si Si1 0.654619 0.898143 0.253827
Si Si2 0.317323 0.606272 0.670765
Si Si3 0.129719 0.787287 0.668911
Si Si4 0.208423 0.293833 0.593080
Si Si5 0.576550 0.541547 0.596977
O O1 0.733979 0.909224 0.299040
O O2 0.613444 0.817923 0.305030
O O3 0.670197 0.856430 0.163122
O O4 0.620613 0.000000 0.250000
O O5 0.357431 0.655072 0.747362
O O6 0.317904 0.687173 0.602409
O O7 0.357414 0.513586 0.641162
O O8 0.206539 0.789952 0.619980
O O9 0.075477 0.849212 0.616442
O O10 0.200085 0.327179 0.500000
O O11 0.500000 0.500000 0.625726
O O12 0.584480 0.526889 0.500000
#
# Coordination Sequence:
#
# PCOD9529125 Si02
#       5
#    16  16  16  16  16
#     4   9  17  30  48  70  97 127 163 208 252 296
#     4   9  17  30  47  68  95 129 165 199 247 303
#     4   9  18  30  45  67  95 127 163 200 242 296
#     4   9  16  28  47  69  95 126 163 210 254 294
#     4  11  22  33  47  71 103 135 167 205 250 303
#
# _framework density 18.688079999999999
#
# number of rings (size 3 to 8) (size 9 to 14) (size 15 to 20)
#    0.000    2.600    0.000    6.600    0.000    1.600 
#    0.000    5.000    0.000    0.000    0.000   11.200 
#    0.000   14.400    0.000    0.000    0.000    0.000 
#
# Total GULP energy -222977.823073 kJ/mol
# GULP energy per Si atom -5574.445577 kJ/mol
# Density = 1.864554 g / cm^3
# Si number density = 18.688080 Si / 1000 Ang^3
#
#
#
# Elastic Constant Matrix: (Units=GPa)
#
#
# Indices 1 2 3 4 5 6 
#
# 1 14.8108 23.5012 14.5594 0.0000 0.0000 0.0000
# 2 23.5012 153.9675 28.2293 0.0000 0.0000 0.0000
# 3 14.5594 28.2293 75.6652 0.0000 0.0000 0.0000
# 4 0.0000 0.0000 0.0000 23.1176 0.0000 0.0000
# 5 0.0000 0.0000 0.0000 0.0000 4.6622 0.0000
# 6 0.0000 0.0000 0.0000 0.0000 0.0000 3.1076
#
#
#
# Elastic Compliance Matrix: (Units=1/GPa)
#
#
# Indices 1 2 3 4 5 6 
#
# 1 0.102743 -0.012943 -0.014941 0.000000 0.000000 0.000000
# 2 -0.012943 0.008602 -0.000719 0.000000 0.000000 0.000000
# 3 -0.014941 -0.000719 0.016359 0.000000 0.000000 0.000000
# 4 0.000000 0.000000 0.000000 0.043257 0.000000 0.000000
# 5 0.000000 0.000000 0.000000 0.000000 0.214492 0.000000
# 6 0.000000 0.000000 0.000000 0.000000 0.000000 0.321787
#
#
# Mechanical properties :
#
#
# Convention : Reuss Voigt Hill
#
# Bulk Modulus (GPa) = 14.18462 41.89149 28.03806
# Shear Modulus (GPa) = 6.34562 18.05439 12.20000
#
# Velocity S-wave (km/s) = 1.84470 3.11157 2.55781
# Velocity P-wave (km/s) = 3.48481 5.94760 4.87431
#
# Compressibility (1/GPa) = 0.07049888
#
# Stress axis : x y z
#
# Youngs Moduli (GPa) = 9.73304 116.24837 61.12771
#
# Poissons Ratio (x) = 1.50461 0.91330
# Poissons Ratio (y) = 0.12598 0.04394
# Poissons Ratio (z) = 0.14542 0.08357
#
# Static dielectric constant tensor:
#      x y z
#    x 1.645220 0.000000 0.000000 
#    y 0.000000 1.692640 0.000000 
#    z 0.000000 0.000000 1.660730 
# 
# From -- ./inp_files/21553.got.cif
#   From: 2010.05.17/outbox.cif.g08.bks.cpg/sg72_11_cif.got.tgz:21553.got - 2010.06.03 17:03:01.
