data_PCOD9529660
_publ_section_title
;
Structure prediction by ZEFSAII (Michael W. Deem and Ramdas Pophale) SiO2 
 PCOD9529660
Probable space group: I B C A 
;
_chemical_formula_sum "Si O2"
_cell_formula_units_Z 88
_cell_length_a 30.517317
_cell_length_b 5.140184
_cell_length_c 23.793927
_cell_angle_alpha 90.000000
_cell_angle_beta 90.000000
_cell_angle_gamma 90.000000
_cell_volume 3732.425426
_symmetry_space_group_name_H-M "I B C A "
_symmetry_group_IT_number 73
_symmetry_cell_setting 'orthorhombic'
loop_
_space_group_symop_operation_xyz
x,y,z
-x,1/2-y,z
x,-y,1/2-z
1/2-x,y,-z
-x,-y,-z
x,1/2+y,-z
-x,y,1/2+z
1/2+x,-y,z
1/2+x,1/2+y,1/2+z
1/2-x,-y,1/2+z
1/2+x,1/2-y,-z
-x,1/2+y,1/2-z
1/2-x,1/2-y,1/2-z
1/2+x,y,1/2-z
1/2-x,1/2+y,z
x,1/2-y,1/2+z
loop_
_atom_site_type_symbol
_atom_site_label
_atom_site_fract_x
_atom_site_fract_y
_atom_site_fract_z
Si Si1 0.865321 0.477200 0.312737
Si Si2 0.470713 0.000000 0.250000
Si Si3 0.447105 0.247874 0.467411
Si Si4 0.299638 0.618322 0.475647
Si Si5 0.406048 0.533815 0.646163
Si Si6 0.277950 0.737449 0.347160
O O1 0.884233 0.500000 0.250000
O O2 0.867069 0.763128 0.339358
O O3 0.817329 0.352926 0.308144
O O4 0.891315 0.265514 0.349837
O O5 0.500000 0.250000 0.236627
O O6 0.441066 0.064273 0.303832
O O7 0.500000 0.250000 0.461319
O O8 0.435030 0.541769 0.483691
O O9 0.426352 0.131430 0.411448
O O10 0.250000 0.577931 0.500000
O O11 0.321331 0.342043 0.487173
O O12 0.295129 0.698056 0.411297
O O13 0.239102 0.528225 0.339935
#
# Coordination Sequence:
#
# PCOD9529660 Si02
#       6
#    16   8  16  16  16  16
#     4  12  26  46  66  93 138 192 216 290 376 388
#     4  12  24  40  74 110 130 174 236 282 324 382
#     4  10  22  42  71 103 142 186 225 277 337 409
#     4  10  16  32  57  82 118 150 191 283 349 363
#     4  12  24  47  69  99 148 182 226 286 342 430
#     4  12  23  39  65  93 119 168 236 283 331 422
#
# _framework density 23.577159999999999
#
# number of rings (size 3 to 8) (size 9 to 14) (size 15 to 20)
#    0.000    0.727    5.455    3.818    0.000    2.909 
#    0.000    5.455    0.000    0.000    0.000    0.000 
#    0.000    0.000    0.000    0.000    0.000    0.000 
#
# Total GULP energy -246257.697702 kJ/mol
# GULP energy per Si atom -5596.765857 kJ/mol
# Density = 2.352350 g / cm^3
# Si number density = 23.577160 Si / 1000 Ang^3
#
#
#
# Elastic Constant Matrix: (Units=GPa)
#
#
# Indices 1 2 3 4 5 6 
#
# 1 49.6356 8.8358 18.1983 0.0000 0.0000 0.0000
# 2 8.8358 114.4328 3.9195 0.0000 0.0000 0.0000
# 3 18.1983 3.9195 74.7700 0.0000 0.0000 0.0000
# 4 0.0000 0.0000 0.0000 344.5827 0.0000 0.0000
# 5 0.0000 0.0000 0.0000 0.0000 23.4045 0.0000
# 6 0.0000 0.0000 0.0000 0.0000 0.0000 25.2414
#
#
#
# Elastic Compliance Matrix: (Units=1/GPa)
#
#
# Indices 1 2 3 4 5 6 
#
# 1 0.022390 -0.001545 -0.005369 0.000000 0.000000 0.000000
# 2 -0.001545 0.008861 -0.000088 0.000000 0.000000 0.000000
# 3 -0.005369 -0.000088 0.014686 0.000000 0.000000 0.000000
# 4 0.000000 0.000000 0.000000 0.002902 0.000000 0.000000
# 5 0.000000 0.000000 0.000000 0.000000 0.042727 0.000000
# 6 0.000000 0.000000 0.000000 0.000000 0.000000 0.039617
#
#
# Mechanical properties :
#
#
# Convention : Reuss Voigt Hill
#
# Bulk Modulus (GPa) = 31.31567 33.41618 32.36593
# Shear Modulus (GPa) = 32.08594 92.50471 62.29533
#
# Velocity S-wave (km/s) = 3.69303 6.27057 5.14580
# Velocity P-wave (km/s) = 5.61210 8.16276 7.00451
#
# Compressibility (1/GPa) = 0.03193289
#
# Stress axis : x y z
#
# Youngs Moduli (GPa) = 44.66247 112.85312 68.09368
#
# Poissons Ratio (x) = 0.17435 0.36557
# Poissons Ratio (y) = 0.06900 0.00602
# Poissons Ratio (z) = 0.23977 0.00998
#
# Static dielectric constant tensor:
#      x y z
#    x 1.937100 0.000000 0.000000 
#    y 0.000000 1.925710 0.000000 
#    z 0.000000 0.000000 1.871330 
# 
# From -- ./inp_files/30626.got.cif
#   From: 2010.05.17/outbox.cif.g08.bks.cpg/sg73_16_cif.got.tgz:30626.got - 2010.06.03 17:35:07.
