data_PCOD9529195
_publ_section_title
;
Structure prediction by ZEFSAII (Michael W. Deem and Ramdas Pophale) SiO2 
 PCOD9529195
Probable space group: I B A M
;
_chemical_formula_sum "Si O2"
_cell_formula_units_Z 88
_cell_length_a 16.979295
_cell_length_b 17.062362
_cell_length_c 14.427384
_cell_angle_alpha 90.000000
_cell_angle_beta 90.000000
_cell_angle_gamma 90.000000
_cell_volume 4179.712373
_symmetry_space_group_name_H-M "I B A M"
_symmetry_group_IT_number 72
_symmetry_cell_setting 'orthorhombic'
loop_
_space_group_symop_operation_xyz
x,y,z
-x,-y,z
x,-y,1/2-z
-x,y,1/2-z
-x,-y,-z
x,y,-z
-x,y,1/2+z
x,-y,1/2+z
1/2+x,1/2+y,1/2+z
1/2-x,1/2-y,1/2+z
1/2+x,1/2-y,-z
1/2-x,1/2+y,-z
1/2-x,1/2-y,1/2-z
1/2+x,1/2+y,1/2-z
1/2-x,1/2+y,z
1/2+x,1/2-y,z
loop_
_atom_site_type_symbol
_atom_site_label
_atom_site_fract_x
_atom_site_fract_y
_atom_site_fract_z
Si Si1 0.466936 0.756746 0.000000
Si Si2 0.753152 0.438146 0.500000
Si Si3 0.950786 0.358068 0.838606
Si Si4 0.782106 0.317806 0.186877
Si Si5 0.223493 0.744143 0.500000
Si Si6 0.949072 0.919160 0.000000
Si Si7 0.171078 0.960879 0.341508
Si Si8 0.411447 0.971141 0.500000
O O1 0.499478 0.803142 0.090756
O O2 0.371712 0.756087 0.000000
O O3 0.492865 0.665040 0.000000
O O4 0.748322 0.345338 0.500000
O O5 0.712806 0.476727 0.590112
O O6 0.844466 0.464166 0.500000
O O7 0.874890 0.316950 0.796103
O O8 0.908995 0.421018 0.906174
O O9 0.000000 0.387932 0.750000
O O10 0.750000 0.250000 0.250000
O O11 0.759819 0.290339 0.085002
O O12 0.736711 0.400097 0.196304
O O13 0.893578 0.921095 0.908466
O O14 0.000000 0.000000 0.000000
O O15 0.134944 0.000000 0.250000
O O16 0.500000 0.000000 0.500000
#
# Coordination Sequence:
#
# PCOD9529195 Si02
#       8
#     8   8  16  16   8   8  16   8
#     4  11  23  45  71  97 141 179 226 288 349 419
#     4  11  22  43  66 101 136 172 230 277 344 414
#     4  11  25  43  67 104 137 177 230 282 349 419
#     4  12  24  43  70  97 134 180 227 282 340 409
#     4  12  22  42  71  97 130 181 224 275 340 416
#     4  11  26  47  68  96 142 181 227 294 348 402
#     4  11  24  44  70 100 135 178 234 285 339 414
#     4  11  23  43  66  93 142 183 212 279 351 406
#
# _framework density 21.054081
#
# number of rings (size 3 to 8) (size 9 to 14) (size 15 to 20)
#    0.000    0.727    3.636    4.909    0.000    6.545 
#    0.000    0.000    0.000    0.000    0.000    0.000 
#    0.000    0.000    0.000    0.000    0.000    0.000 
#
# Total GULP energy -245821.844560 kJ/mol
# GULP energy per Si atom -5586.860104 kJ/mol
# Density = 2.100616 g / cm^3
# Si number density = 21.054081 Si / 1000 Ang^3
#
#
#
# Elastic Constant Matrix: (Units=GPa)
#
#
# Indices 1 2 3 4 5 6 
#
# 1 47.4458 -28.7095 -10.6138 0.0000 0.0000 0.0000
# 2 -28.7095 55.8043 -6.6169 0.0000 0.0000 0.0000
# 3 -10.6138 -6.6169 111.9710 0.0000 0.0000 0.0000
# 4 0.0000 0.0000 0.0000 -38.5592 0.0000 0.0000
# 5 0.0000 0.0000 0.0000 0.0000 -17.2746 0.0000
# 6 0.0000 0.0000 0.0000 0.0000 0.0000 27.3416
#
#
#
# Elastic Compliance Matrix: (Units=1/GPa)
#
#
# Indices 1 2 3 4 5 6 
#
# 1 0.032354 0.017129 0.004079 0.000000 0.000000 0.000000
# 2 0.017129 0.027114 0.003226 0.000000 0.000000 0.000000
# 3 0.004079 0.003226 0.009508 0.000000 0.000000 0.000000
# 4 0.000000 0.000000 0.000000 -0.025934 0.000000 0.000000
# 5 0.000000 0.000000 0.000000 0.000000 -0.057889 0.000000
# 6 0.000000 0.000000 0.000000 0.000000 0.000000 0.036574
#
#
# Mechanical properties :
#
#
# Convention : Reuss Voigt Hill
#
# Bulk Modulus (GPa) = 8.48582 13.70450 11.09516
# Shear Modulus (GPa) = 411.80245 11.71234 211.75739
#
# Velocity S-wave (km/s) = 14.00062 2.36116 10.03973
# Velocity P-wave (km/s) = 16.29097 3.73587 11.81847
#
# Compressibility (1/GPa) = 0.11784370
#
# Stress axis : x y z
#
# Youngs Moduli (GPa) = 30.90833 36.88072 105.17263
#
# Poissons Ratio (x) = -0.63172 -0.42901
# Poissons Ratio (y) = -0.52942 -0.33928
# Poissons Ratio (z) = -0.12608 -0.11898
#
# Static dielectric constant tensor:
#      x y z
#    x 1.573630 0.000000 0.000000 
#    y 0.000000 1.794550 0.000000 
#    z 0.000000 0.000000 1.654050 
# 
# From -- ./inp_files/23251.got.cif
#   From: 2010.05.17/outbox.cif.g08.bks.cpg/sg72_12_cif.got.tgz:23251.got - 2010.06.03 17:03:01.
