data_PCOD9529332
_publ_section_title
;
Structure prediction by ZEFSAII (Michael W. Deem and Ramdas Pophale) SiO2 
 PCOD9529332
Probable space group: I B A M
;
_chemical_formula_sum "Si O2"
_cell_formula_units_Z 64
_cell_length_a 25.145739
_cell_length_b 4.814992
_cell_length_c 21.856814
_cell_angle_alpha 90.000000
_cell_angle_beta 90.000000
_cell_angle_gamma 90.000000
_cell_volume 2646.347242
_symmetry_space_group_name_H-M "I B A M"
_symmetry_group_IT_number 72
_symmetry_cell_setting 'orthorhombic'
loop_
_space_group_symop_operation_xyz
x,y,z
-x,-y,z
x,-y,1/2-z
-x,y,1/2-z
-x,-y,-z
x,y,-z
-x,y,1/2+z
x,-y,1/2+z
1/2+x,1/2+y,1/2+z
1/2-x,1/2-y,1/2+z
1/2+x,1/2-y,-z
1/2-x,1/2+y,-z
1/2-x,1/2-y,1/2-z
1/2+x,1/2+y,1/2-z
1/2-x,1/2+y,z
1/2+x,1/2-y,z
loop_
_atom_site_type_symbol
_atom_site_label
_atom_site_fract_x
_atom_site_fract_y
_atom_site_fract_z
Si Si1 0.356214 0.957153 0.679010
Si Si2 0.035552 0.226978 0.636990
Si Si3 0.714924 0.241259 0.585681
Si Si4 0.383845 0.385821 0.433391
O O1 0.338205 0.618906 0.561343
O O2 0.367605 0.194261 0.625606
O O3 0.347486 0.000000 0.750000
O O4 0.412356 0.800311 0.675120
O O5 0.061770 0.052171 0.581003
O O6 0.000000 0.500000 0.623228
O O7 0.000000 0.000000 0.670621
O O8 0.736335 0.939898 0.569450
O O9 0.696036 0.205709 0.655597
O O10 0.387414 0.240835 0.500000
#
# Coordination Sequence:
#
# PCOD9529332 Si02
#       4
#    16  16  16  16
#     4  11  26  48  75 111 153 194 249 311 370 445
#     4  11  24  49  70 108 143 195 247 309 371 442
#     4  11  24  48  72 108 143 191 240 301 366 439
#     4  11  26  48  73 106 150 196 251 310 372 445
#
# _framework density 24.184279
#
# number of rings (size 3 to 8) (size 9 to 14) (size 15 to 20)
#    0.000    1.000    5.000    0.000    0.000   11.500 
#    4.500    0.000    0.000    0.000    0.000    0.000 
#    0.000    0.000    0.000    0.000    0.000    0.000 
#
# Total GULP energy -178229.907431 kJ/mol
# GULP energy per Si atom -5569.684607 kJ/mol
# Density = 2.412923 g / cm^3
# Si number density = 24.184279 Si / 1000 Ang^3
#
#
#
# Elastic Constant Matrix: (Units=GPa)
#
#
# Indices 1 2 3 4 5 6 
#
# 1 100.3092 30.4304 20.7024 0.0000 0.0000 0.0000
# 2 30.4304 117.8832 41.6372 0.0000 0.0000 0.0000
# 3 20.7024 41.6372 194.5325 0.0000 0.0000 0.0000
# 4 0.0000 0.0000 0.0000 15.6844 0.0000 0.0000
# 5 0.0000 0.0000 0.0000 0.0000 -78.7799 0.0000
# 6 0.0000 0.0000 0.0000 0.0000 0.0000 62.3240
#
#
#
# Elastic Compliance Matrix: (Units=1/GPa)
#
#
# Indices 1 2 3 4 5 6 
#
# 1 0.010881 -0.002596 -0.000602 0.000000 0.000000 0.000000
# 2 -0.002596 0.009796 -0.001820 0.000000 0.000000 0.000000
# 3 -0.000602 -0.001820 0.005594 0.000000 0.000000 0.000000
# 4 0.000000 0.000000 0.000000 0.063758 0.000000 0.000000
# 5 0.000000 0.000000 0.000000 0.000000 -0.012694 0.000000
# 6 0.000000 0.000000 0.000000 0.000000 0.000000 0.016045
#
#
# Mechanical properties :
#
#
# Convention : Reuss Voigt Hill
#
# Bulk Modulus (GPa) = 61.60018 66.47389 64.03704
# Shear Modulus (GPa) = 45.94338 21.17603 33.55971
#
# Velocity S-wave (km/s) = 4.36331 2.96228 3.72918
# Velocity P-wave (km/s) = 7.13520 6.26468 6.71406
#
# Compressibility (1/GPa) = 0.01623372
#
# Stress axis : x y z
#
# Youngs Moduli (GPa) = 91.90293 102.08121 178.75421
#
# Poissons Ratio (x) = 0.26501 0.10767
# Poissons Ratio (y) = 0.23859 0.32541
# Poissons Ratio (z) = 0.05535 0.18583
#
# Static dielectric constant tensor:
#      x y z
#    x 1.916360 0.000000 0.000000 
#    y 0.000000 2.026790 0.000000 
#    z 0.000000 0.000000 1.994290 
# 
# From -- ./inp_files/40549.got.cif
#   From: 2010.05.17/outbox.cif.g08.bks.cpg/sg72_21_cif.got.tgz:40549.got - 2010.06.03 17:03:01.
