data_PCOD9529966
_publ_section_title
;
Structure prediction by ZEFSAII (Michael W. Deem and Ramdas Pophale) SiO2 
 PCOD9529966
Probable space group: I B C A 
;
_chemical_formula_sum "Si O2"
_cell_formula_units_Z 96
_cell_length_a 24.258375
_cell_length_b 8.737029
_cell_length_c 18.610440
_cell_angle_alpha 90.000000
_cell_angle_beta 90.000000
_cell_angle_gamma 90.000000
_cell_volume 3944.410659
_symmetry_space_group_name_H-M "I B C A "
_symmetry_group_IT_number 73
_symmetry_cell_setting 'orthorhombic'
loop_
_space_group_symop_operation_xyz
x,y,z
-x,1/2-y,z
x,-y,1/2-z
1/2-x,y,-z
-x,-y,-z
x,1/2+y,-z
-x,y,1/2+z
1/2+x,-y,z
1/2+x,1/2+y,1/2+z
1/2-x,-y,1/2+z
1/2+x,1/2-y,-z
-x,1/2+y,1/2-z
1/2-x,1/2-y,1/2-z
1/2+x,y,1/2-z
1/2-x,1/2+y,z
x,1/2-y,1/2+z
loop_
_atom_site_type_symbol
_atom_site_label
_atom_site_fract_x
_atom_site_fract_y
_atom_site_fract_z
Si Si1 0.631695 0.260595 0.646495
Si Si2 0.303863 0.482394 0.044440
Si Si3 0.915375 0.064187 0.473412
Si Si4 0.682152 0.252145 0.848823
Si Si5 0.315516 0.000000 0.250000
Si Si6 0.142518 0.000000 0.250000
Si Si7 0.442531 0.727558 0.605087
O O1 0.679113 0.348715 0.600378
O O2 0.590879 0.191848 0.587819
O O3 0.652054 0.125470 0.699883
O O4 0.608049 0.399768 0.694167
O O5 0.299591 0.650631 0.081999
O O6 0.250000 0.447749 0.000000
O O7 0.354374 0.497035 0.988838
O O8 0.933743 0.136686 0.547944
O O9 0.949238 0.925363 0.441760
O O10 0.710720 0.105407 0.813272
O O11 0.682278 0.382802 0.789161
O O12 0.616372 0.214064 0.855779
O O13 0.500000 0.750000 0.646747
#
# Coordination Sequence:
#
# PCOD9529966 Si02
#       7
#    16  16  16  16   8   8  16
#     4  10  19  37  64  94 123 169 219 260 332 383
#     4  10  22  40  64  94 131 169 216 275 336 401
#     4  11  21  39  61  94 128 168 216 269 338 403
#     4   9  19  37  64  94 127 170 220 264 329 396
#     4  10  18  36  69  93 126 178 208 278 322 382
#     4   8  18  36  63  85 122 178 210 260 318 386
#     4  11  22  38  61  93 130 169 214 273 338 399
#
# _framework density 24.338235999999998
#
# number of rings (size 3 to 8) (size 9 to 14) (size 15 to 20)
#    0.000    2.000    3.333    0.500    0.000    0.667 
#    0.000    1.667    0.000   17.000    0.000    0.000 
#    0.000    0.000    0.000    0.000    0.000    0.000 
#
# Total GULP energy -268072.267815 kJ/mol
# GULP energy per Si atom -5584.838913 kJ/mol
# Density = 2.428284 g / cm^3
# Si number density = 24.338236 Si / 1000 Ang^3
#
#
#
# Elastic Constant Matrix: (Units=GPa)
#
#
# Indices 1 2 3 4 5 6 
#
# 1 98.7139 23.6304 27.1737 0.0000 0.0000 0.0000
# 2 23.6304 98.4772 7.5395 0.0000 0.0000 0.0000
# 3 27.1737 7.5395 69.8015 0.0000 0.0000 0.0000
# 4 0.0000 0.0000 0.0000 65.9866 0.0000 0.0000
# 5 0.0000 0.0000 0.0000 0.0000 9.7756 0.0000
# 6 0.0000 0.0000 0.0000 0.0000 0.0000 -169.2306
#
#
#
# Elastic Compliance Matrix: (Units=1/GPa)
#
#
# Indices 1 2 3 4 5 6 
#
# 1 0.011940 -0.002530 -0.004375 0.000000 0.000000 0.000000
# 2 -0.002530 0.010775 -0.000179 0.000000 0.000000 0.000000
# 3 -0.004375 -0.000179 0.016049 0.000000 0.000000 0.000000
# 4 0.000000 0.000000 0.000000 0.015155 0.000000 0.000000
# 5 0.000000 0.000000 0.000000 0.000000 0.102296 0.000000
# 6 0.000000 0.000000 0.000000 0.000000 0.000000 -0.005909
#
#
# Mechanical properties :
#
#
# Convention : Reuss Voigt Hill
#
# Bulk Modulus (GPa) = 40.65644 42.63107 41.64375
# Shear Modulus (GPa) = 28.95643 -4.78375 12.08634
#
# Velocity S-wave (km/s) = 3.45302 -1.40349 2.23087
# Velocity P-wave (km/s) = 5.71304 3.86364 4.87681
#
# Compressibility (1/GPa) = 0.02459635
#
# Stress axis : x y z
#
# Youngs Moduli (GPa) = 83.74975 92.80333 62.30969
#
# Poissons Ratio (x) = 0.23481 0.27261
# Poissons Ratio (y) = 0.21191 0.01115
# Poissons Ratio (z) = 0.36641 0.01660
#
# Static dielectric constant tensor:
#      x y z
#    x 2.028850 0.000000 0.000000 
#    y 0.000000 1.960570 0.000000 
#    z 0.000000 0.000000 1.973600 
# 
# From -- ./inp_files/27533.got.cif
#   From: 2010.05.17/outbox.cif.g08.bks.cpg/sg73_14_cif.got.tgz:27533.got - 2010.06.03 17:35:07.
