data_PCOD9529708
_publ_section_title
;
Structure prediction by ZEFSAII (Michael W. Deem and Ramdas Pophale) SiO2 
 PCOD9529708
Probable space group: I B C A 
;
_chemical_formula_sum "Si O2"
_cell_formula_units_Z 80
_cell_length_a 18.765372
_cell_length_b 5.607990
_cell_length_c 31.812794
_cell_angle_alpha 90.000000
_cell_angle_beta 90.000000
_cell_angle_gamma 90.000000
_cell_volume 3347.851779
_symmetry_space_group_name_H-M "I B C A "
_symmetry_group_IT_number 73
_symmetry_cell_setting 'orthorhombic'
loop_
_space_group_symop_operation_xyz
x,y,z
-x,1/2-y,z
x,-y,1/2-z
1/2-x,y,-z
-x,-y,-z
x,1/2+y,-z
-x,y,1/2+z
1/2+x,-y,z
1/2+x,1/2+y,1/2+z
1/2-x,-y,1/2+z
1/2+x,1/2-y,-z
-x,1/2+y,1/2-z
1/2-x,1/2-y,1/2-z
1/2+x,y,1/2-z
1/2-x,1/2+y,z
x,1/2-y,1/2+z
loop_
_atom_site_type_symbol
_atom_site_label
_atom_site_fract_x
_atom_site_fract_y
_atom_site_fract_z
Si Si1 0.754624 0.682791 0.920715
Si Si2 0.918969 0.470704 0.484509
Si Si3 0.390334 0.653744 0.642437
Si Si4 0.723475 0.212285 0.797780
Si Si5 0.402527 0.850093 0.887845
O O1 0.749978 0.432825 0.944553
O O2 0.824391 0.676687 0.891271
O O3 0.683673 0.679601 0.891633
O O4 0.887379 0.237191 0.508179
O O5 0.922531 0.399123 0.435998
O O6 0.000000 0.500000 0.500000
O O7 0.356465 0.642787 0.689050
O O8 0.426943 0.405559 0.629839
O O9 0.424865 0.913119 0.637226
O O10 0.750000 0.250000 0.750000
O O11 0.735030 0.479921 0.814721
#
# Coordination Sequence:
#
# PCOD9529708 Si02
#       5
#    16  16  16  16  16
#     4   8  14  23  39  59  83 112 150 190 227 267
#     4  10  21  37  54  71  92 118 157 211 282 340
#     4  10  17  28  45  67  95 129 173 208 237 287
#     4  10  18  27  41  65  99 139 181 212 239 278
#     4  10  18  29  49  68  87 122 166 211 257 305
#
# _framework density 23.89592
#
# number of rings (size 3 to 8) (size 9 to 14) (size 15 to 20)
#    0.000    2.400    0.000    6.000    0.000    0.000 
#    0.000    0.000    0.000   32.400    0.000    0.000 
#    0.000    0.000    0.000    0.000    0.000 1440.000 
#
# Total GULP energy -222874.471464 kJ/mol
# GULP energy per Si atom -5571.861787 kJ/mol
# Density = 2.384153 g / cm^3
# Si number density = 23.895920 Si / 1000 Ang^3
#
#
#
# Elastic Constant Matrix: (Units=GPa)
#
#
# Indices 1 2 3 4 5 6 
#
# 1 51.2109 25.5974 20.7789 0.0000 0.0000 0.0000
# 2 25.5974 320.4452 42.2826 0.0000 0.0000 0.0000
# 3 20.7789 42.2826 106.6564 0.0000 0.0000 0.0000
# 4 0.0000 0.0000 0.0000 19.3404 0.0000 0.0000
# 5 0.0000 0.0000 0.0000 0.0000 2.3390 0.0000
# 6 0.0000 0.0000 0.0000 0.0000 0.0000 23.7130
#
#
#
# Elastic Compliance Matrix: (Units=1/GPa)
#
#
# Indices 1 2 3 4 5 6 
#
# 1 0.021659 -0.001238 -0.003729 0.000000 0.000000 0.000000
# 2 -0.001238 0.003364 -0.001092 0.000000 0.000000 0.000000
# 3 -0.003729 -0.001092 0.010535 0.000000 0.000000 0.000000
# 4 0.000000 0.000000 0.000000 0.051705 0.000000 0.000000
# 5 0.000000 0.000000 0.000000 0.000000 0.427534 0.000000
# 6 0.000000 0.000000 0.000000 0.000000 0.000000 0.042171
#
#
# Mechanical properties :
#
#
# Convention : Reuss Voigt Hill
#
# Bulk Modulus (GPa) = 42.66282 72.84782 57.75532
# Shear Modulus (GPa) = 8.66701 35.05540 21.86121
#
# Velocity S-wave (km/s) = 1.90653 3.83430 3.02793
# Velocity P-wave (km/s) = 4.76853 7.08196 6.03709
#
# Compressibility (1/GPa) = 0.02343961
#
# Stress axis : x y z
#
# Youngs Moduli (GPa) = 46.17042 297.29290 94.91844
#
# Poissons Ratio (x) = 0.36808 0.35393
# Poissons Ratio (y) = 0.05716 0.10368
# Poissons Ratio (z) = 0.17216 0.32473
#
# Static dielectric constant tensor:
#      x y z
#    x 1.977760 0.000000 0.000000 
#    y 0.000000 2.087380 0.000000 
#    z 0.000000 0.000000 1.960520 
# 
# From -- ./inp_files/3073.got.cif
#   From: 2010.05.17/outbox.cif.g08.bks.cpg/sg73_2_cif.got.tgz:3073.got - 2010.06.03 17:35:07.
