data_PCOD9529793
_publ_section_title
;
Structure prediction by ZEFSAII (Michael W. Deem and Ramdas Pophale) SiO2 
 PCOD9529793
Probable space group: I B C A 
;
_chemical_formula_sum "Si O2"
_cell_formula_units_Z 96
_cell_length_a 25.273548
_cell_length_b 23.026351
_cell_length_c 9.021820
_cell_angle_alpha 90.000000
_cell_angle_beta 90.000000
_cell_angle_gamma 90.000000
_cell_volume 5250.316600
_symmetry_space_group_name_H-M "I B C A "
_symmetry_group_IT_number 73
_symmetry_cell_setting 'orthorhombic'
loop_
_space_group_symop_operation_xyz
x,y,z
-x,1/2-y,z
x,-y,1/2-z
1/2-x,y,-z
-x,-y,-z
x,1/2+y,-z
-x,y,1/2+z
1/2+x,-y,z
1/2+x,1/2+y,1/2+z
1/2-x,-y,1/2+z
1/2+x,1/2-y,-z
-x,1/2+y,1/2-z
1/2-x,1/2-y,1/2-z
1/2+x,y,1/2-z
1/2-x,1/2+y,z
x,1/2-y,1/2+z
loop_
_atom_site_type_symbol
_atom_site_label
_atom_site_fract_x
_atom_site_fract_y
_atom_site_fract_z
Si Si1 0.750000 0.985917 0.000000
Si Si2 0.183012 0.000000 0.250000
Si Si3 0.240890 0.312123 0.825825
Si Si4 0.855262 0.373568 0.183375
Si Si5 0.066323 0.562174 0.183270
Si Si6 0.677331 0.386626 0.137643
Si Si7 0.455852 0.564114 0.170214
O O1 0.710409 0.944333 0.908307
O O2 0.782197 0.023171 0.884940
O O3 0.155383 0.943294 0.310650
O O4 0.250000 0.250000 0.750000
O O5 0.182454 0.338187 0.791820
O O6 0.284354 0.352803 0.746425
O O7 0.250000 0.308751 0.000000
O O8 0.917767 0.380818 0.209651
O O9 0.835608 0.355310 0.019454
O O10 0.080989 0.500000 0.250000
O O11 0.119286 0.599646 0.199138
O O12 0.014743 0.580192 0.276160
O O13 0.051019 0.556877 0.008125
O O14 0.446145 0.500000 0.250000
#
# Coordination Sequence:
#
# PCOD9529793 Si02
#       7
#     8   8  16  16  16  16  16
#     4  10  20  32  50  74 120 146 182 224 278 340
#     4  10  18  30  50  76 112 146 176 224 270 336
#     4  12  25  40  61  84 110 146 191 241 294 347
#     4  10  20  36  56  79 114 154 185 233 284 336
#     4  10  21  32  53  80 116 158 191 236 278 338
#     4  10  20  38  53  78 112 150 186 235 285 337
#     4  10  19  34  51  79 116 155 193 231 278 334
#
# _framework density 18.284611000000002
#
# number of rings (size 3 to 8) (size 9 to 14) (size 15 to 20)
#    0.000    1.667    4.167    3.000    2.333    2.667 
#    0.000    0.000    0.000    1.000    0.000    7.000 
#    0.000    0.000    0.000    0.000    0.000    0.000 
#
# Total GULP energy -267265.452559 kJ/mol
# GULP energy per Si atom -5568.030262 kJ/mol
# Density = 1.824299 g / cm^3
# Si number density = 18.284611 Si / 1000 Ang^3
#
#
#
# Elastic Constant Matrix: (Units=GPa)
#
#
# Indices 1 2 3 4 5 6 
#
# 1 101.9038 32.3599 36.1490 0.0000 0.0000 0.0000
# 2 32.3599 41.4595 28.2704 0.0000 0.0000 0.0000
# 3 36.1490 28.2704 88.1484 0.0000 0.0000 0.0000
# 4 0.0000 0.0000 0.0000 26.6391 0.0000 0.0000
# 5 0.0000 0.0000 0.0000 0.0000 15.7299 0.0000
# 6 0.0000 0.0000 0.0000 0.0000 0.0000 8.0798
#
#
#
# Elastic Compliance Matrix: (Units=1/GPa)
#
#
# Indices 1 2 3 4 5 6 
#
# 1 0.013556 -0.008691 -0.002772 0.000000 0.000000 0.000000
# 2 -0.008691 0.036442 -0.008124 0.000000 0.000000 0.000000
# 3 -0.002772 -0.008124 0.015087 0.000000 0.000000 0.000000
# 4 0.000000 0.000000 0.000000 0.037539 0.000000 0.000000
# 5 0.000000 0.000000 0.000000 0.000000 0.063573 0.000000
# 6 0.000000 0.000000 0.000000 0.000000 0.000000 0.123766
#
#
# Mechanical properties :
#
#
# Convention : Reuss Voigt Hill
#
# Bulk Modulus (GPa) = 38.59124 47.23004 42.91064
# Shear Modulus (GPa) = 14.80280 19.07192 16.93736
#
# Velocity S-wave (km/s) = 2.84839 3.23315 3.04685
# Velocity P-wave (km/s) = 5.65415 6.31064 5.99140
#
# Compressibility (1/GPa) = 0.02591262
#
# Stress axis : x y z
#
# Youngs Moduli (GPa) = 73.76638 27.44051 66.28367
#
# Poissons Ratio (x) = 0.23848 0.18375
# Poissons Ratio (y) = 0.64108 0.53846
# Poissons Ratio (z) = 0.20449 0.22292
#
# Static dielectric constant tensor:
#      x y z
#    x 1.761040 0.000000 0.000000 
#    y 0.000000 1.613370 0.000000 
#    z 0.000000 0.000000 1.653440 
# 
# From -- ./inp_files/7840.got.cif
#   From: 2010.05.17/outbox.cif.g08.bks.cpg/sg73_4_cif.got.tgz:7840.got - 2010.06.03 17:35:07.
