data_PCOD9529015
_publ_section_title
;
Structure prediction by ZEFSAII (Michael W. Deem and Ramdas Pophale) SiO2 
 PCOD9529015
Probable space group: I B A M
;
_chemical_formula_sum "Si O2"
_cell_formula_units_Z 96
_cell_length_a 9.060198
_cell_length_b 22.293393
_cell_length_c 22.760917
_cell_angle_alpha 90.000000
_cell_angle_beta 90.000000
_cell_angle_gamma 90.000000
_cell_volume 4597.308162
_symmetry_space_group_name_H-M "I B A M"
_symmetry_group_IT_number 72
_symmetry_cell_setting 'orthorhombic'
loop_
_space_group_symop_operation_xyz
x,y,z
-x,-y,z
x,-y,1/2-z
-x,y,1/2-z
-x,-y,-z
x,y,-z
-x,y,1/2+z
x,-y,1/2+z
1/2+x,1/2+y,1/2+z
1/2-x,1/2-y,1/2+z
1/2+x,1/2-y,-z
1/2-x,1/2+y,-z
1/2-x,1/2-y,1/2-z
1/2+x,1/2+y,1/2-z
1/2-x,1/2+y,z
1/2+x,1/2-y,z
loop_
_atom_site_type_symbol
_atom_site_label
_atom_site_fract_x
_atom_site_fract_y
_atom_site_fract_z
Si Si1 0.555516 0.821550 0.411738
Si Si2 0.070818 0.410109 0.500000
Si Si3 0.626418 0.690312 0.433875
Si Si4 0.344335 0.341052 0.780940
Si Si5 0.254177 0.976597 0.000000
Si Si6 0.350877 0.389605 0.095255
Si Si7 0.154534 0.702694 0.822734
O O1 0.449644 0.868582 0.443506
O O2 0.540902 0.754025 0.433819
O O3 0.720286 0.843986 0.424392
O O4 0.506276 0.818697 0.343999
O O5 0.212210 0.452922 0.500000
O O6 0.918562 0.448320 0.500000
O O7 0.686738 0.682832 0.500000
O O8 0.508038 0.638763 0.420287
O O9 0.737877 0.696472 0.379179
O O10 0.500000 0.353005 0.750000
O O11 0.329000 0.387813 0.834417
O O12 0.221158 0.335221 0.730562
O O13 0.353693 0.273062 0.806973
O O14 0.175337 0.949913 0.942033
#
# Coordination Sequence:
#
# PCOD9529015 Si02
#       7
#    16   8  16  16   8  16  16
#     4  11  20  33  53  84 114 148 190 239 291 349
#     4   9  20  35  59  81 113 143 188 251 298 346
#     4  12  21  33  52  85 121 159 189 231 296 360
#     4  11  21  35  53  80 119 164 194 223 283 357
#     4   9  20  39  57  83 107 149 194 243 304 342
#     4  11  21  35  56  80 115 154 191 238 288 357
#     4  11  23  33  50  82 125 156 186 230 282 359
#
# _framework density 20.881785000000001
#
# number of rings (size 3 to 8) (size 9 to 14) (size 15 to 20)
#    0.000    1.167    6.667    0.000    3.500    1.333 
#    0.000    0.000    0.000    3.000    0.000    5.833 
#    0.000    0.000    0.000    0.000    0.000    0.000 
#
# Total GULP energy -268096.073154 kJ/mol
# GULP energy per Si atom -5585.334857 kJ/mol
# Density = 2.083426 g / cm^3
# Si number density = 20.881785 Si / 1000 Ang^3
#
#
#
# Elastic Constant Matrix: (Units=GPa)
#
#
# Indices 1 2 3 4 5 6 
#
# 1 45.9269 15.5015 22.6375 0.0000 0.0000 0.0000
# 2 15.5015 57.2480 21.1193 0.0000 0.0000 0.0000
# 3 22.6375 21.1193 145.3091 0.0000 0.0000 0.0000
# 4 0.0000 0.0000 0.0000 8.1211 0.0000 0.0000
# 5 0.0000 0.0000 0.0000 0.0000 40.6251 0.0000
# 6 0.0000 0.0000 0.0000 0.0000 0.0000 29.6226
#
#
#
# Elastic Compliance Matrix: (Units=1/GPa)
#
#
# Indices 1 2 3 4 5 6 
#
# 1 0.025222 -0.005685 -0.003103 0.000000 0.000000 0.000000
# 2 -0.005685 0.019739 -0.001983 0.000000 0.000000 0.000000
# 3 -0.003103 -0.001983 0.007654 0.000000 0.000000 0.000000
# 4 0.000000 0.000000 0.000000 0.123135 0.000000 0.000000
# 5 0.000000 0.000000 0.000000 0.000000 0.024615 0.000000
# 6 0.000000 0.000000 0.000000 0.000000 0.000000 0.033758
#
#
# Mechanical properties :
#
#
# Convention : Reuss Voigt Hill
#
# Bulk Modulus (GPa) = 32.18314 40.77784 36.48049
# Shear Modulus (GPa) = 18.79539 28.28882 23.54210
#
# Velocity S-wave (km/s) = 3.00340 3.68464 3.36132
# Velocity P-wave (km/s) = 5.24144 6.13778 5.70724
#
# Compressibility (1/GPa) = 0.03107217
#
# Stress axis : x y z
#
# Youngs Moduli (GPa) = 39.64789 50.66159 130.65838
#
# Poissons Ratio (x) = 0.28800 0.40544
# Poissons Ratio (y) = 0.22539 0.25912
# Poissons Ratio (z) = 0.12303 0.10047
#
# Static dielectric constant tensor:
#      x y z
#    x 1.811920 0.000000 0.000000 
#    y 0.000000 1.717600 0.000000 
#    z 0.000000 0.000000 1.792420 
# 
# From -- ./inp_files/42498.got.cif
#   From: 2010.05.17/outbox.cif.g08.bks.cpg/sg72_22_cif.got.tgz:42498.got - 2010.06.03 17:03:01.
