data_PCOD9529827
_publ_section_title
;
Structure prediction by ZEFSAII (Michael W. Deem and Ramdas Pophale) SiO2 
 PCOD9529827
Probable space group: I B C A 
;
_chemical_formula_sum "Si O2"
_cell_formula_units_Z 56
_cell_length_a 5.398359
_cell_length_b 30.639733
_cell_length_c 13.488915
_cell_angle_alpha 90.000000
_cell_angle_beta 90.000000
_cell_angle_gamma 90.000000
_cell_volume 2231.124252
_symmetry_space_group_name_H-M "I B C A "
_symmetry_group_IT_number 73
_symmetry_cell_setting 'orthorhombic'
loop_
_space_group_symop_operation_xyz
x,y,z
-x,1/2-y,z
x,-y,1/2-z
1/2-x,y,-z
-x,-y,-z
x,1/2+y,-z
-x,y,1/2+z
1/2+x,-y,z
1/2+x,1/2+y,1/2+z
1/2-x,-y,1/2+z
1/2+x,1/2-y,-z
-x,1/2+y,1/2-z
1/2-x,1/2-y,1/2-z
1/2+x,y,1/2-z
1/2-x,1/2+y,z
x,1/2-y,1/2+z
loop_
_atom_site_type_symbol
_atom_site_label
_atom_site_fract_x
_atom_site_fract_y
_atom_site_fract_z
Si Si1 0.000000 0.250000 0.683172
Si Si2 0.780311 0.522502 0.119168
Si Si3 0.620777 0.879773 0.355943
Si Si4 0.115378 0.844296 0.370109
O O1 0.250000 0.250000 0.750000
O O2 0.033479 0.294181 0.621261
O O3 0.494770 0.512359 0.148261
O O4 0.895978 0.568447 0.153422
O O5 0.750000 0.523628 0.000000
O O6 0.386326 0.857002 0.406734
O O7 0.638127 0.856752 0.247814
O O8 0.886199 0.872708 0.405291
#
# Coordination Sequence:
#
# PCOD9529827 Si02
#       4
#     8  16  16  16
#     4  12  16  30  48  74 110 134 162 190 232 300
#     4  10  21  37  54  70  92 129 176 217 252 296
#     4  10  18  32  48  72 102 128 162 208 247 297
#     4  10  19  30  48  77 107 131 159 196 248 302
#
# _framework density 25.099453
#
# number of rings (size 3 to 8) (size 9 to 14) (size 15 to 20)
#    0.000    1.714    5.714    1.714    0.000    0.000 
#    0.000   17.143    0.000    0.000    0.000    6.000 
#    0.000    0.000    0.000    0.000    0.000    0.000 
#
# Total GULP energy -156444.299295 kJ/mol
# GULP energy per Si atom -5587.296403 kJ/mol
# Density = 2.504233 g / cm^3
# Si number density = 25.099453 Si / 1000 Ang^3
#
#
#
# Elastic Constant Matrix: (Units=GPa)
#
#
# Indices 1 2 3 4 5 6 
#
# 1 212.7555 28.2165 1.8334 0.0000 0.0000 0.0000
# 2 28.2165 136.4820 -12.1060 0.0000 0.0000 0.0000
# 3 1.8334 -12.1060 84.4021 -0.0001 0.0000 0.0000
# 4 0.0000 0.0000 -0.0001 8.7398 0.0000 0.0000
# 5 0.0000 0.0000 0.0000 0.0000 17.2628 0.0000
# 6 0.0000 0.0000 0.0000 0.0000 0.0000 53.1788
#
#
#
# Elastic Compliance Matrix: (Units=1/GPa)
#
#
# Indices 1 2 3 4 5 6 
#
# 1 0.004838 -0.001023 -0.000252 0.000000 0.000000 0.000000
# 2 -0.001023 0.007638 0.001118 0.000000 0.000000 0.000000
# 3 -0.000252 0.001118 0.012014 0.000000 0.000000 0.000000
# 4 0.000000 0.000000 0.000000 0.114420 0.000000 0.000000
# 5 0.000000 0.000000 0.000000 0.000000 0.057928 0.000000
# 6 0.000000 0.000000 0.000000 0.000000 0.000000 0.018805
#
#
# Mechanical properties :
#
#
# Convention : Reuss Voigt Hill
#
# Bulk Modulus (GPa) = 41.36318 52.16972 46.76645
# Shear Modulus (GPa) = 22.32008 43.54931 32.93470
#
# Velocity S-wave (km/s) = 2.98529 4.16994 3.62632
# Velocity P-wave (km/s) = 5.32899 6.63437 6.01718
#
# Compressibility (1/GPa) = 0.02417609
#
# Stress axis : x y z
#
# Youngs Moduli (GPa) = 206.69637 130.93262 83.23746
#
# Poissons Ratio (x) = 0.13389 0.02096
# Poissons Ratio (y) = 0.21136 -0.09303
# Poissons Ratio (z) = 0.05204 -0.14634
#
# Static dielectric constant tensor:
#      x y z
#    x 2.025630 0.000000 0.000000 
#    y 0.000000 1.962350 0.000000 
#    z 0.000000 0.000000 1.657490 
# 
# From -- ./inp_files/1003.got.cif
#   From: 2010.05.17/outbox.cif.g08.bks.cpg/sg73_1_cif.got.tgz:1003.got - 2010.06.03 17:35:07.
