data_PCOD9529085
_publ_section_title
;
Structure prediction by ZEFSAII (Michael W. Deem and Ramdas Pophale) SiO2 
 PCOD9529085
Probable space group: I B A M
;
_chemical_formula_sum "Si O2"
_cell_formula_units_Z 80
_cell_length_a 24.814229
_cell_length_b 9.957403
_cell_length_c 15.829318
_cell_angle_alpha 90.000000
_cell_angle_beta 90.000000
_cell_angle_gamma 90.000000
_cell_volume 3911.191443
_symmetry_space_group_name_H-M "I B A M"
_symmetry_group_IT_number 72
_symmetry_cell_setting 'orthorhombic'
loop_
_space_group_symop_operation_xyz
x,y,z
-x,-y,z
x,-y,1/2-z
-x,y,1/2-z
-x,-y,-z
x,y,-z
-x,y,1/2+z
x,-y,1/2+z
1/2+x,1/2+y,1/2+z
1/2-x,1/2-y,1/2+z
1/2+x,1/2-y,-z
1/2-x,1/2+y,-z
1/2-x,1/2-y,1/2-z
1/2+x,1/2+y,1/2-z
1/2-x,1/2+y,z
1/2+x,1/2-y,z
loop_
_atom_site_type_symbol
_atom_site_label
_atom_site_fract_x
_atom_site_fract_y
_atom_site_fract_z
Si Si1 0.410195 0.360863 0.143795
Si Si2 0.778551 0.187741 0.334238
Si Si3 0.500174 0.846839 0.353913
Si Si4 0.093840 0.840843 0.655887
Si Si5 0.789499 0.903605 0.594439
O O1 0.450274 0.244430 0.114023
O O2 0.419539 0.514553 0.114984
O O3 0.418314 0.358532 0.244616
O O4 0.346757 0.344711 0.125725
O O5 0.750000 0.250000 0.250000
O O6 0.843165 0.195843 0.342957
O O7 0.751981 0.282146 0.403787
O O8 0.769689 0.028727 0.348679
O O9 0.500000 0.850355 0.250000
O O10 0.555086 0.772569 0.378982
O O11 0.500000 0.000000 0.382743
O O12 0.797236 0.956679 0.500000
#
# Coordination Sequence:
#
# PCOD9529085 Si02
#       5
#    16  16  16  16  16
#     4   9  17  32  53  75 110 148 190 232 292 347
#     4  11  21  38  59  85 114 152 203 248 292 352
#     4   9  17  29  48  82 114 139 178 240 303 340
#     4   9  17  31  53  80 107 145 188 241 286 339
#     4  11  23  38  57  84 120 158 197 245 306 362
#
# _framework density 20.454125999999999
#
# number of rings (size 3 to 8) (size 9 to 14) (size 15 to 20)
#    0.000    2.200    2.000    1.800    0.000    4.000 
#    7.200    0.000    0.000   11.400    0.000    0.000 
#    0.000    0.000    0.000    0.000    0.000    0.000 
#
# Total GULP energy -222838.227210 kJ/mol
# GULP energy per Si atom -5570.955680 kJ/mol
# Density = 2.040757 g / cm^3
# Si number density = 20.454126 Si / 1000 Ang^3
#
#
#
# Elastic Constant Matrix: (Units=GPa)
#
#
# Indices 1 2 3 4 5 6 
#
# 1 115.5026 133.5138 4.0246 0.0000 0.0000 0.0000
# 2 133.5138 187.9155 19.1612 0.0000 0.0000 0.0000
# 3 4.0246 19.1612 51.9456 0.0000 0.0000 0.0000
# 4 0.0000 0.0000 0.0000 9.5698 0.0000 0.0000
# 5 0.0000 0.0000 0.0000 0.0000 -3.5029 0.0000
# 6 0.0000 0.0000 0.0000 0.0000 0.0000 38.3713
#
#
#
# Elastic Compliance Matrix: (Units=1/GPa)
#
#
# Indices 1 2 3 4 5 6 
#
# 1 0.053187 -0.038829 0.010202 0.000000 0.000000 0.000000
# 2 -0.038829 0.033877 -0.009488 0.000000 0.000000 0.000000
# 3 0.010202 -0.009488 0.021960 0.000000 0.000000 0.000000
# 4 0.000000 0.000000 0.000000 0.104496 0.000000 0.000000
# 5 0.000000 0.000000 0.000000 0.000000 -0.285480 0.000000
# 6 0.000000 0.000000 0.000000 0.000000 0.000000 0.026061
#
#
# Mechanical properties :
#
#
# Convention : Reuss Voigt Hill
#
# Bulk Modulus (GPa) = 30.49333 74.30697 52.40015
# Shear Modulus (GPa) = 121.17611 22.13192 71.65401
#
# Velocity S-wave (km/s) = 7.70529 3.29299 5.92517
# Velocity P-wave (km/s) = 9.70064 7.13203 8.51376
#
# Compressibility (1/GPa) = 0.03279406
#
# Stress axis : x y z
#
# Youngs Moduli (GPa) = 18.80176 29.51845 45.53679
#
# Poissons Ratio (x) = 1.14618 -0.46457
# Poissons Ratio (y) = 0.73006 0.43205
# Poissons Ratio (z) = -0.19182 0.28007
#
# Static dielectric constant tensor:
#      x y z
#    x 1.716830 0.000000 0.000000 
#    y 0.000000 1.740350 0.000000 
#    z 0.000000 0.000000 1.793290 
# 
# From -- ./inp_files/34175.got.cif
#   From: 2010.05.17/outbox.cif.g08.bks.cpg/sg72_18_cif.got.tgz:34175.got - 2010.06.03 17:03:01.
