data_PCOD9529519
_publ_section_title
;
Structure prediction by ZEFSAII (Michael W. Deem and Ramdas Pophale) SiO2 
 PCOD9529519
Probable space group: I B A M
;
_chemical_formula_sum "Si O2"
_cell_formula_units_Z 44
_cell_length_a 24.000000
_cell_length_b 12.000000
_cell_length_c 15.000000
_cell_angle_alpha 90.000000
_cell_angle_beta 90.000000
_cell_angle_gamma 90.000000
_cell_volume 4320.000000
_symmetry_space_group_name_H-M "I B A M"
_symmetry_group_IT_number 72
_symmetry_cell_setting 'orthorhombic'
loop_
_space_group_symop_operation_xyz
x,y,z
-x,-y,z
x,-y,1/2-z
-x,y,1/2-z
-x,-y,-z
x,y,-z
-x,y,1/2+z
x,-y,1/2+z
1/2+x,1/2+y,1/2+z
1/2-x,1/2-y,1/2+z
1/2+x,1/2-y,-z
1/2-x,1/2+y,-z
1/2-x,1/2-y,1/2-z
1/2+x,1/2+y,1/2-z
1/2-x,1/2+y,z
1/2+x,1/2-y,z
loop_
_atom_site_type_symbol
_atom_site_label
_atom_site_fract_x
_atom_site_fract_y
_atom_site_fract_z
Si Si1 0.373907 0.637333 0.000000
Si Si2 0.319157 0.786463 0.146475
Si Si3 0.309264 0.250461 0.143087
Si Si4 0.473434 0.886616 0.652207
Si Si5 0.620604 0.619276 0.000000
Si Si6 0.497932 0.710112 0.500000
Si Si7 0.847544 0.474010 0.150919
O O1 0.345968 0.691885 0.913420
O O2 0.362231 0.507530 0.000000
O O3 0.440146 0.661884 0.000000
O O4 0.325239 0.757271 0.251827
O O5 0.252772 0.797350 0.132690
O O6 0.348128 0.901665 0.114190
O O7 0.309879 0.121905 0.109666
O O8 0.353305 0.318660 0.085549
O O9 0.500000 0.868079 0.750000
O O10 0.487697 0.787288 0.586556
O O11 0.408160 0.916985 0.658337
O O12 0.500000 0.000000 0.615609
O O13 0.553792 0.625728 0.000000
O O14 0.825279 0.500000 0.250000
#
# Coordination Sequence:
#
# PCOD9529519 Si02
#       7
#     8  16  16  16   8   8  16
#     4  12  28  43  65  92 135 172 226 262 314 385
#     4  10  24  44  67 101 130 170 212 273 324 386
#     4  10  23  44  70  95 131 170 216 264 330 383
#     4  11  21  37  64  96 131 163 205 268 332 383
#     4  12  26  45  65  92 128 182 221 265 312 391
#     4  12  26  42  62  92 127 173 220 263 322 381
#     4  10  19  38  68  99 128 161 210 268 326 385
#
# _framework density 10.185185000000001
#
# number of rings (size 3 to 8) (size 9 to 14) (size 15 to 20)
#    0.000    1.273    3.636    2.182    5.091    2.182 
#    0.000    0.000    0.000    3.273    0.000    0.000 
#    0.000    0.000    0.000    0.000    0.000    0.000 
#
# Total GULP energy -245667.252797 kJ/mol
# GULP energy per Si atom -5583.346654 kJ/mol
# Density = 1.016200 g / cm^3
# Si number density = 10.185185 Si / 1000 Ang^3
#
#
#
# Elastic Constant Matrix: (Units=GPa)
#
#
# Indices 1 2 3 4 5 6 
#
# 1 99.1400 14.0290 33.7730 0.0000 0.0000 0.0000
# 2 14.0290 130.1166 45.4714 0.0000 0.0000 0.0000
# 3 33.7730 45.4714 95.5054 0.0000 0.0000 0.0000
# 4 0.0000 0.0000 0.0000 31.4504 0.0000 0.0000
# 5 0.0000 0.0000 0.0000 0.0000 -3.5261 0.0000
# 6 0.0000 0.0000 0.0000 0.0000 0.0000 13.0466
#
#
#
# Elastic Compliance Matrix: (Units=1/GPa)
#
#
# Indices 1 2 3 4 5 6 
#
# 1 0.011473 0.000217 -0.004161 0.000000 0.000000 0.000000
# 2 0.000217 0.009223 -0.004468 0.000000 0.000000 0.000000
# 3 -0.004161 -0.004468 0.014069 0.000000 0.000000 0.000000
# 4 0.000000 0.000000 0.000000 0.031796 0.000000 0.000000
# 5 0.000000 0.000000 0.000000 0.000000 -0.283600 0.000000
# 6 0.000000 0.000000 0.000000 0.000000 0.000000 0.076648
#
#
# Mechanical properties :
#
#
# Convention : Reuss Voigt Hill
#
# Bulk Modulus (GPa) = 55.73332 56.81207 56.27270
# Shear Modulus (GPa) = -42.52250 23.62675 -9.44787
#
# Velocity S-wave (km/s) = -4.57384 3.40936 -2.15595
# Velocity P-wave (km/s) = 0.68843 6.59154 4.63544
#
# Compressibility (1/GPa) = 0.01794259
#
# Stress axis : x y z
#
# Youngs Moduli (GPa) = 87.15831 108.41877 71.07710
#
# Poissons Ratio (x) = -0.02352 0.29572
# Poissons Ratio (y) = -0.01891 0.31758
# Poissons Ratio (z) = 0.36263 0.48443
#
# Static dielectric constant tensor:
#      x y z
#    x 1.733090 0.000000 0.000000 
#    y 0.000000 1.747880 0.000000 
#    z 0.000000 0.000000 1.744680 
# 
# From -- ./inp_files/25036.got.cif
#   From: 2010.05.17/outbox.ucp.g08.bks.cvg/sg72_13_cif.got.tgz:25036.got - 2010.06.11 16:33:07.
