data_PCOD9529036
_publ_section_title
;
Structure prediction by ZEFSAII (Michael W. Deem and Ramdas Pophale) SiO2 
 PCOD9529036
Probable space group: I B A M
;
_chemical_formula_sum "Si O2"
_cell_formula_units_Z 96
_cell_length_a 19.444768
_cell_length_b 15.367090
_cell_length_c 15.976700
_cell_angle_alpha 90.000000
_cell_angle_beta 90.000000
_cell_angle_gamma 90.000000
_cell_volume 4773.989737
_symmetry_space_group_name_H-M "I B A M"
_symmetry_group_IT_number 72
_symmetry_cell_setting 'orthorhombic'
loop_
_space_group_symop_operation_xyz
x,y,z
-x,-y,z
x,-y,1/2-z
-x,y,1/2-z
-x,-y,-z
x,y,-z
-x,y,1/2+z
x,-y,1/2+z
1/2+x,1/2+y,1/2+z
1/2-x,1/2-y,1/2+z
1/2+x,1/2-y,-z
1/2-x,1/2+y,-z
1/2-x,1/2-y,1/2-z
1/2+x,1/2+y,1/2-z
1/2-x,1/2+y,z
1/2+x,1/2-y,z
loop_
_atom_site_type_symbol
_atom_site_label
_atom_site_fract_x
_atom_site_fract_y
_atom_site_fract_z
Si Si1 0.385200 0.026208 0.000000
Si Si2 0.343610 0.612189 0.838797
Si Si3 0.749924 0.137584 0.500000
Si Si4 0.634633 0.937156 0.672405
Si Si5 0.298080 0.581082 0.338588
Si Si6 0.338608 0.310834 0.000000
Si Si7 0.472960 0.202678 0.000000
Si Si8 0.947744 0.263131 0.328143
O O1 0.395863 0.972238 0.084905
O O2 0.305786 0.059862 0.000000
O O3 0.433108 0.110886 0.000000
O O4 0.311231 0.631105 0.747982
O O5 0.343548 0.507098 0.841159
O O6 0.412042 0.669457 0.841083
O O7 0.296357 0.636233 0.917417
O O8 0.706525 0.224601 0.500000
O O9 0.717212 0.940764 0.662082
O O10 0.608339 0.839344 0.688230
O O11 0.615646 0.000000 0.750000
O O12 0.318968 0.635836 0.418222
O O13 0.416856 0.279782 0.000000
O O14 0.515638 0.211793 0.914909
O O15 0.000000 0.261213 0.250000
#
# Coordination Sequence:
#
# PCOD9529036 Si02
#       8
#     8  16   8  16  16   8   8  16
#     4  11  22  40  68  94 134 169 215 277 324 400
#     4  11  23  43  67  93 135 167 219 279 325 395
#     4  11  20  39  66 101 126 169 213 281 348 374
#     4  12  23  41  67 101 132 165 216 276 333 393
#     4  11  22  43  67 102 125 162 222 284 342 378
#     4  11  24  39  69  93 131 169 221 279 328 389
#     4  11  26  46  59  94 132 180 227 253 321 403
#     4  12  27  44  64  94 137 182 221 257 321 404
#
# _framework density 20.108967
#
# number of rings (size 3 to 8) (size 9 to 14) (size 15 to 20)
#    0.000    0.667    3.333    5.000    0.000    8.333 
#    0.000    6.667    0.000    0.000    0.000    0.000 
#    0.000    0.000    0.000    0.000    0.000    0.000 
#
# Total GULP energy -268356.664153 kJ/mol
# GULP energy per Si atom -5590.763837 kJ/mol
# Density = 2.006320 g / cm^3
# Si number density = 20.108967 Si / 1000 Ang^3
#
#
#
# Elastic Constant Matrix: (Units=GPa)
#
#
# Indices 1 2 3 4 5 6 
#
# 1 72.3699 45.8746 41.0498 0.0000 0.0000 0.0000
# 2 45.8746 82.3019 45.1182 0.0000 0.0000 0.0000
# 3 41.0498 45.1182 158.2363 0.0000 0.0000 0.0000
# 4 0.0000 0.0000 0.0000 121.1996 0.0000 0.0000
# 5 0.0000 0.0000 0.0000 0.0000 0.1605 0.0000
# 6 0.0000 0.0000 0.0000 0.0000 0.0000 24.7882
#
#
#
# Elastic Compliance Matrix: (Units=1/GPa)
#
#
# Indices 1 2 3 4 5 6 
#
# 1 0.022269 -0.010959 -0.002652 0.000000 0.000000 0.000000
# 2 -0.010959 0.019794 -0.002801 0.000000 0.000000 0.000000
# 3 -0.002652 -0.002801 0.007806 0.000000 0.000000 0.000000
# 4 0.000000 0.000000 0.000000 0.008251 0.000000 0.000000
# 5 0.000000 0.000000 0.000000 0.000000 6.231012 0.000000
# 6 0.000000 0.000000 0.000000 0.000000 0.000000 0.040342
#
#
# Mechanical properties :
#
#
# Convention : Reuss Voigt Hill
#
# Bulk Modulus (GPa) = 58.66647 64.11039 61.38843
# Shear Modulus (GPa) = 0.78518 41.28734 21.03626
#
# Velocity S-wave (km/s) = 0.62555 4.53612 3.23788
# Velocity P-wave (km/s) = 5.45521 7.70622 6.67627
#
# Compressibility (1/GPa) = 0.01704551
#
# Stress axis : x y z
#
# Youngs Moduli (GPa) = 44.90568 50.51990 128.09951
#
# Poissons Ratio (x) = 0.55362 0.33977
# Poissons Ratio (y) = 0.49210 0.35882
# Poissons Ratio (z) = 0.11911 0.14151
#
# Static dielectric constant tensor:
#      x y z
#    x 1.697790 0.000000 0.000000 
#    y 0.000000 1.703480 0.000000 
#    z 0.000000 0.000000 1.698150 
# 
# From -- ./inp_files/24227.got.cif
#   From: 2010.05.17/outbox.cif.g08.bks.cpg/sg72_13_cif.got.tgz:24227.got - 2010.06.03 17:03:01.
