data_PCOD9529214
_publ_section_title
;
Structure prediction by ZEFSAII (Michael W. Deem and Ramdas Pophale) SiO2 
 PCOD9529214
Probable space group: I B A M
;
_chemical_formula_sum "Si O2"
_cell_formula_units_Z 88
_cell_length_a 17.173529
_cell_length_b 15.574158
_cell_length_c 15.250208
_cell_angle_alpha 90.000000
_cell_angle_beta 90.000000
_cell_angle_gamma 90.000000
_cell_volume 4078.870257
_symmetry_space_group_name_H-M "I B A M"
_symmetry_group_IT_number 72
_symmetry_cell_setting 'orthorhombic'
loop_
_space_group_symop_operation_xyz
x,y,z
-x,-y,z
x,-y,1/2-z
-x,y,1/2-z
-x,-y,-z
x,y,-z
-x,y,1/2+z
x,-y,1/2+z
1/2+x,1/2+y,1/2+z
1/2-x,1/2-y,1/2+z
1/2+x,1/2-y,-z
1/2-x,1/2+y,-z
1/2-x,1/2-y,1/2-z
1/2+x,1/2+y,1/2-z
1/2-x,1/2+y,z
1/2+x,1/2-y,z
loop_
_atom_site_type_symbol
_atom_site_label
_atom_site_fract_x
_atom_site_fract_y
_atom_site_fract_z
Si Si1 0.045728 0.091537 0.674546
Si Si2 0.266283 0.701938 0.500000
Si Si3 0.340794 0.118956 0.000000
Si Si4 0.089137 0.647757 0.500000
Si Si5 0.495263 0.679632 0.000000
Si Si6 0.378427 0.991062 0.849873
Si Si7 0.158514 0.064899 0.000000
Si Si8 0.201563 0.935920 0.855934
O O1 0.134136 0.086022 0.711396
O O2 0.000000 0.140765 0.750000
O O3 0.038925 0.143901 0.585197
O O4 0.000000 0.000000 0.663605
O O5 0.326805 0.780165 0.500000
O O6 0.171140 0.701687 0.500000
O O7 0.283660 0.647034 0.414242
O O8 0.378591 0.075175 0.913424
O O9 0.248397 0.093981 0.000000
O O10 0.021443 0.718634 0.500000
O O11 0.089266 0.584989 0.414009
O O12 0.410739 0.631895 0.000000
O O13 0.286647 0.969848 0.836209
O O14 0.410057 0.000000 0.750000
O O15 0.155482 0.004078 0.084137
#
# Coordination Sequence:
#
# PCOD9529214 Si02
#       8
#    16   8   8   8   8  16   8  16
#     4  11  23  33  50  80 113 154 199 219 257 346
#     4   9  16  32  50  75 108 136 180 234 260 345
#     4   9  17  30  51  76  99 140 180 218 280 331
#     4   9  20  36  53  84 109 143 188 230 287 347
#     4  12  19  34  56  70 115 154 182 232 282 315
#     4   9  19  35  56  76 111 145 183 233 283 337
#     4   9  15  27  50  68 100 149 176 203 259 324
#     4   9  18  32  48  74 111 145 182 219 268 314
#
# _framework density 21.574601000000001
#
# number of rings (size 3 to 8) (size 9 to 14) (size 15 to 20)
#    0.000    2.364    2.727    3.545    2.545    0.000 
#    3.273    1.818    0.000    0.000    0.000   10.182 
#    0.000    0.000    0.000    0.000    0.000    0.000 
#
# Total GULP energy -244992.058335 kJ/mol
# GULP energy per Si atom -5568.001326 kJ/mol
# Density = 2.152550 g / cm^3
# Si number density = 21.574601 Si / 1000 Ang^3
#
#
#
# Elastic Constant Matrix: (Units=GPa)
#
#
# Indices 1 2 3 4 5 6 
#
# 1 67.0275 3.9741 10.8914 0.0000 0.0000 0.0000
# 2 3.9741 110.2054 48.1784 0.0000 0.0000 0.0000
# 3 10.8914 48.1784 142.9170 0.0000 0.0000 0.0000
# 4 0.0000 0.0000 0.0000 2.8379 0.0000 0.0000
# 5 0.0000 0.0000 0.0000 0.0000 18.0281 0.0000
# 6 0.0000 0.0000 0.0000 0.0000 0.0000 14.2723
#
#
#
# Elastic Compliance Matrix: (Units=1/GPa)
#
#
# Indices 1 2 3 4 5 6 
#
# 1 0.015107 -0.000049 -0.001135 0.000000 0.000000 0.000000
# 2 -0.000049 0.010643 -0.003584 0.000000 0.000000 0.000000
# 3 -0.001135 -0.003584 0.008292 0.000000 0.000000 0.000000
# 4 0.000000 0.000000 0.000000 0.352369 0.000000 0.000000
# 5 0.000000 0.000000 0.000000 0.000000 0.055469 0.000000
# 6 0.000000 0.000000 0.000000 0.000000 0.000000 0.070066
#
#
# Mechanical properties :
#
#
# Convention : Reuss Voigt Hill
#
# Bulk Modulus (GPa) = 40.80650 49.58197 45.19423
# Shear Modulus (GPa) = 9.44023 24.16805 16.80414
#
# Velocity S-wave (km/s) = 2.09407 3.35058 2.79388
# Velocity P-wave (km/s) = 4.98016 6.16442 5.60366
#
# Compressibility (1/GPa) = 0.02450590
#
# Stress axis : x y z
#
# Youngs Moduli (GPa) = 66.19646 93.96274 120.60198
#
# Poissons Ratio (x) = 0.00457 0.13686
# Poissons Ratio (y) = 0.00322 0.43223
# Poissons Ratio (z) = 0.07512 0.33676
#
# Static dielectric constant tensor:
#      x y z
#    x 1.850280 0.000000 0.000000 
#    y 0.000000 1.860720 0.000000 
#    z 0.000000 0.000000 1.854300 
# 
# From -- ./inp_files/21759.got.cif
#   From: 2010.05.17/outbox.cif.g08.bks.cpg/sg72_11_cif.got.tgz:21759.got - 2010.06.03 17:03:01.
