data_PCOD9529817
_publ_section_title
;
Structure prediction by ZEFSAII (Michael W. Deem and Ramdas Pophale) SiO2 
 PCOD9529817
Probable space group: I B C A 
;
_chemical_formula_sum "Si O2"
_cell_formula_units_Z 56
_cell_length_a 5.137534
_cell_length_b 13.256815
_cell_length_c 37.566563
_cell_angle_alpha 90.000000
_cell_angle_beta 90.000000
_cell_angle_gamma 90.000000
_cell_volume 2558.558596
_symmetry_space_group_name_H-M "I B C A "
_symmetry_group_IT_number 73
_symmetry_cell_setting 'orthorhombic'
loop_
_space_group_symop_operation_xyz
x,y,z
-x,1/2-y,z
x,-y,1/2-z
1/2-x,y,-z
-x,-y,-z
x,1/2+y,-z
-x,y,1/2+z
1/2+x,-y,z
1/2+x,1/2+y,1/2+z
1/2-x,-y,1/2+z
1/2+x,1/2-y,-z
-x,1/2+y,1/2-z
1/2-x,1/2-y,1/2-z
1/2+x,y,1/2-z
1/2-x,1/2+y,z
x,1/2-y,1/2+z
loop_
_atom_site_type_symbol
_atom_site_label
_atom_site_fract_x
_atom_site_fract_y
_atom_site_fract_z
Si Si1 0.302313 0.137122 0.734986
Si Si2 0.500000 0.250000 0.876466
Si Si3 0.750000 0.181106 0.000000
Si Si4 0.500000 0.750000 0.329550
Si Si5 0.669999 0.433044 0.427027
O O1 0.250000 0.250000 0.750000
O O2 0.514436 0.093059 0.762221
O O3 0.414875 0.156661 0.695986
O O4 0.748061 0.278393 0.852343
O O5 0.402851 0.342300 0.900704
O O6 0.500000 0.250000 0.009979
O O7 0.835485 0.112841 0.033224
O O8 0.455455 0.520132 0.422004
#
# Coordination Sequence:
#
# PCOD9529817 Si02
#       5
#    16   8   8   8  16
#     4   8  13  24  44  75 118 149 194 259 298 345
#     4  12  24  39  61  90 128 164 210 252 302 394
#     4  12  24  44  74  96 122 158 214 264 316 374
#     4  10  18  31  53  84 124 164 198 256 312 350
#     4  12  26  45  66  93 128 167 206 260 318 370
#
# _framework density 21.887325000000001
#
# number of rings (size 3 to 8) (size 9 to 14) (size 15 to 20)
#    0.000    1.714    1.429    7.714    2.000    0.000 
#    0.000    0.000    0.000    0.000    0.000    0.000 
#    0.000  720.000    0.000    0.000    0.000    0.000 
#
# Total GULP energy -156315.504151 kJ/mol
# GULP energy per Si atom -5582.696577 kJ/mol
# Density = 2.183751 g / cm^3
# Si number density = 21.887325 Si / 1000 Ang^3
#
#
#
# Elastic Constant Matrix: (Units=GPa)
#
#
# Indices 1 2 3 4 5 6 
#
# 1 170.4301 2.8998 50.0722 0.0000 0.0000 0.0000
# 2 2.8998 65.1055 21.6441 0.0000 0.0000 0.0000
# 3 50.0722 21.6441 127.2864 0.0000 0.0000 0.0000
# 4 0.0000 0.0000 0.0000 -4.3062 0.0000 0.0000
# 5 0.0000 0.0000 0.0000 0.0000 34.9837 0.0000
# 6 0.0000 0.0000 0.0000 0.0000 0.0000 13.4226
#
#
#
# Elastic Compliance Matrix: (Units=1/GPa)
#
#
# Indices 1 2 3 4 5 6 
#
# 1 0.006657 0.000608 -0.002722 0.000000 0.000000 0.000000
# 2 0.000608 0.016336 -0.003017 0.000000 0.000000 0.000000
# 3 -0.002722 -0.003017 0.009440 0.000000 0.000000 0.000000
# 4 0.000000 0.000000 0.000000 -0.232221 0.000000 0.000000
# 5 0.000000 0.000000 0.000000 0.000000 0.028585 0.000000
# 6 0.000000 0.000000 0.000000 0.000000 0.000000 0.074501
#
#
# Mechanical properties :
#
#
# Convention : Reuss Voigt Hill
#
# Bulk Modulus (GPa) = 45.10377 56.89493 50.99935
# Shear Modulus (GPa) = -63.25127 28.03374 -17.60876
#
# Velocity S-wave (km/s) = -5.38157 3.58274 -2.83948
# Velocity P-wave (km/s) = 4.23829 6.57005 3.54982
#
# Compressibility (1/GPa) = 0.02217109
#
# Stress axis : x y z
#
# Youngs Moduli (GPa) = 150.21937 61.21598 105.92997
#
# Poissons Ratio (x) = -0.03725 0.28836
# Poissons Ratio (y) = -0.09141 0.31960
# Poissons Ratio (z) = 0.40893 0.18470
#
# Static dielectric constant tensor:
#      x y z
#    x 2.113600 0.000000 0.000000 
#    y 0.000000 1.887350 0.000000 
#    z 0.000000 0.000000 1.797340 
# 
# From -- ./inp_files/33154.got.cif
#   From: 2010.05.17/outbox.cif.g08.bks.cpg/sg73_17_cif.got.tgz:33154.got - 2010.06.03 17:35:07.
