data_PCOD9529717
_publ_section_title
;
Structure prediction by ZEFSAII (Michael W. Deem and Ramdas Pophale) SiO2 
 PCOD9529717
Probable space group: I B C A 
;
_chemical_formula_sum "Si O2"
_cell_formula_units_Z 56
_cell_length_a 22.024350
_cell_length_b 5.576748
_cell_length_c 18.600023
_cell_angle_alpha 90.000000
_cell_angle_beta 90.000000
_cell_angle_gamma 90.000000
_cell_volume 2284.533871
_symmetry_space_group_name_H-M "I B C A "
_symmetry_group_IT_number 73
_symmetry_cell_setting 'orthorhombic'
loop_
_space_group_symop_operation_xyz
x,y,z
-x,1/2-y,z
x,-y,1/2-z
1/2-x,y,-z
-x,-y,-z
x,1/2+y,-z
-x,y,1/2+z
1/2+x,-y,z
1/2+x,1/2+y,1/2+z
1/2-x,-y,1/2+z
1/2+x,1/2-y,-z
-x,1/2+y,1/2-z
1/2-x,1/2-y,1/2-z
1/2+x,y,1/2-z
1/2-x,1/2+y,z
x,1/2-y,1/2+z
loop_
_atom_site_type_symbol
_atom_site_label
_atom_site_fract_x
_atom_site_fract_y
_atom_site_fract_z
Si Si1 0.191055 0.500000 0.750000
Si Si2 0.930580 0.243310 0.027121
Si Si3 0.229505 0.996345 0.888563
Si Si4 0.893051 0.603985 0.821354
O O1 0.234632 0.567139 0.685002
O O2 0.147166 0.695525 0.783262
O O3 0.931541 0.202955 0.112697
O O4 0.000000 0.250000 0.998594
O O5 0.902595 0.503044 0.008628
O O6 0.237994 0.729433 0.923238
O O7 0.159661 0.044919 0.864623
O O8 0.925690 0.500000 0.750000
#
# Coordination Sequence:
#
# PCOD9529717 Si02
#       4
#     8  16  16  16
#     4  10  18  32  54  96 132 158 186 252 316 370
#     4  10  25  48  65  83 123 175 205 248 324 385
#     4  10  17  30  51  88 124 161 185 237 305 376
#     4  11  20  35  65  97 119 156 217 260 300 357
#
# _framework density 24.512658999999999
#
# number of rings (size 3 to 8) (size 9 to 14) (size 15 to 20)
#    0.000    1.714    4.286    1.714    4.000    0.000 
#    2.571    0.000    0.000   20.571    0.000    0.000 
#    0.000    0.000    0.000    0.000    0.000    0.000 
#
# Total GULP energy -155920.973377 kJ/mol
# GULP energy per Si atom -5568.606192 kJ/mol
# Density = 2.445687 g / cm^3
# Si number density = 24.512659 Si / 1000 Ang^3
#
#
#
# Elastic Constant Matrix: (Units=GPa)
#
#
# Indices 1 2 3 4 5 6 
#
# 1 15.9637 1.1913 4.1773 0.0000 0.0000 0.0000
# 2 1.1913 158.6529 42.2535 0.0000 0.0000 0.0000
# 3 4.1773 42.2535 153.2838 0.0000 0.0000 0.0000
# 4 0.0000 0.0000 0.0000 -6.0106 0.0000 0.0000
# 5 0.0000 0.0000 0.0000 0.0000 -28.1878 0.0000
# 6 0.0000 0.0000 0.0000 0.0000 0.0000 9.0678
#
#
#
# Elastic Compliance Matrix: (Units=1/GPa)
#
#
# Indices 1 2 3 4 5 6 
#
# 1 0.063092 -0.000017 -0.001715 0.000000 0.000000 0.000000
# 2 -0.000017 0.006802 -0.001875 0.000000 0.000000 0.000000
# 3 -0.001715 -0.001875 0.007087 0.000000 0.000000 0.000000
# 4 0.000000 0.000000 0.000000 -0.166372 0.000000 0.000000
# 5 0.000000 0.000000 0.000000 0.000000 -0.035476 0.000000
# 6 0.000000 0.000000 0.000000 0.000000 0.000000 0.110281
#
#
# Mechanical properties :
#
#
# Convention : Reuss Voigt Hill
#
# Bulk Modulus (GPa) = 14.33302 47.01607 30.67455
# Shear Modulus (GPa) = 314.78582 13.65908 164.22245
#
# Velocity S-wave (km/s) = 11.34445 2.36312 8.19392
# Velocity P-wave (km/s) = 13.32123 5.16408 10.10255
#
# Compressibility (1/GPa) = 0.06976898
#
# Stress axis : x y z
#
# Youngs Moduli (GPa) = 15.84986 147.00538 141.09663
#
# Poissons Ratio (x) = 0.00251 0.24193
# Poissons Ratio (y) = 0.00027 0.26451
# Poissons Ratio (z) = 0.02718 0.27559
#
# Static dielectric constant tensor:
#      x y z
#    x 1.961140 0.000000 0.000000 
#    y 0.000000 2.237950 0.000000 
#    z 0.000000 0.000000 2.056270 
# 
# From -- ./inp_files/1009.got.cif
#   From: 2010.05.17/outbox.cif.g08.bks.cpg/sg73_1_cif.got.tgz:1009.got - 2010.06.03 17:35:07.
