data_PCOD9529330
_publ_section_title
;
Structure prediction by ZEFSAII (Michael W. Deem and Ramdas Pophale) SiO2 
 PCOD9529330
Probable space group: I B A M
;
_chemical_formula_sum "Si O2"
_cell_formula_units_Z 48
_cell_length_a 9.705665
_cell_length_b 8.045068
_cell_length_c 23.309867
_cell_angle_alpha 90.000000
_cell_angle_beta 90.000000
_cell_angle_gamma 90.000000
_cell_volume 1820.098166
_symmetry_space_group_name_H-M "I B A M"
_symmetry_group_IT_number 72
_symmetry_cell_setting 'orthorhombic'
loop_
_space_group_symop_operation_xyz
x,y,z
-x,-y,z
x,-y,1/2-z
-x,y,1/2-z
-x,-y,-z
x,y,-z
-x,y,1/2+z
x,-y,1/2+z
1/2+x,1/2+y,1/2+z
1/2-x,1/2-y,1/2+z
1/2+x,1/2-y,-z
1/2-x,1/2+y,-z
1/2-x,1/2-y,1/2-z
1/2+x,1/2+y,1/2-z
1/2-x,1/2+y,z
1/2+x,1/2-y,z
loop_
_atom_site_type_symbol
_atom_site_label
_atom_site_fract_x
_atom_site_fract_y
_atom_site_fract_z
Si Si1 0.967952 0.757971 0.102622
Si Si2 0.383160 0.319028 0.778856
Si Si3 0.294171 0.036070 0.064466
O O1 0.857243 0.895306 0.081071
O O2 0.861826 0.599187 0.107842
O O3 0.059360 0.816108 0.156838
O O4 0.091036 0.683330 0.063731
O O5 0.379157 0.500000 0.750000
O O6 0.500000 0.207933 0.750000
O O7 0.250000 0.250000 0.750000
O O8 0.289917 0.964278 0.000000
#
# Coordination Sequence:
#
# PCOD9529330 Si02
#       3
#    16  16  16
#     4  11  25  45  74 109 155 206 258 324 398 474
#     4  11  27  49  73 107 148 199 261 323 384 458
#     4  11  24  47  76 116 159 206 260 326 400 484
#
# _framework density 26.372205000000001
#
# number of rings (size 3 to 8) (size 9 to 14) (size 15 to 20)
#    0.000    1.000    0.000    6.000    0.000   23.333 
#    0.000    3.333    0.000    0.000    0.000    0.000 
#    0.000    0.000    0.000    0.000    0.000    0.000 
#
# Total GULP energy -133612.764584 kJ/mol
# GULP energy per Si atom -5567.198524 kJ/mol
# Density = 2.631218 g / cm^3
# Si number density = 26.372205 Si / 1000 Ang^3
#
#
#
# Elastic Constant Matrix: (Units=GPa)
#
#
# Indices 1 2 3 4 5 6 
#
# 1 282.9302 66.1369 73.4419 0.0000 0.0000 0.0000
# 2 66.1369 124.1716 72.1176 0.0000 0.0000 0.0000
# 3 73.4419 72.1176 156.0000 0.0000 0.0000 0.0000
# 4 0.0000 0.0000 0.0000 16.9700 0.0000 0.0000
# 5 0.0000 0.0000 0.0000 0.0000 38.9232 0.0000
# 6 0.0000 0.0000 0.0000 0.0000 0.0000 48.1441
#
#
#
# Elastic Compliance Matrix: (Units=1/GPa)
#
#
# Indices 1 2 3 4 5 6 
#
# 1 0.004220 -0.001495 -0.001296 0.000000 0.000000 0.000000
# 2 -0.001495 0.011539 -0.004630 0.000000 0.000000 0.000000
# 3 -0.001296 -0.004630 0.009161 0.000000 0.000000 0.000000
# 4 0.000000 0.000000 0.000000 0.058928 0.000000 0.000000
# 5 0.000000 0.000000 0.000000 0.000000 0.025692 0.000000
# 6 0.000000 0.000000 0.000000 0.000000 0.000000 0.020771
#
#
# Mechanical properties :
#
#
# Convention : Reuss Voigt Hill
#
# Bulk Modulus (GPa) = 99.23113 109.61052 104.42082
# Shear Modulus (GPa) = 33.66723 44.23450 38.95086
#
# Velocity S-wave (km/s) = 3.57686 4.09995 3.84730
# Velocity P-wave (km/s) = 7.40050 8.00412 7.70822
#
# Compressibility (1/GPa) = 0.01007748
#
# Stress axis : x y z
#
# Youngs Moduli (GPa) = 236.95066 86.66124 109.16088
#
# Poissons Ratio (x) = 0.12959 0.14142
# Poissons Ratio (y) = 0.35434 0.50547
# Poissons Ratio (z) = 0.30697 0.40128
#
# Static dielectric constant tensor:
#      x y z
#    x 1.091790 0.000000 0.000000 
#    y 0.000000 2.109860 0.000000 
#    z 0.000000 0.000000 2.029000 
# 
# From -- ./inp_files/50504.got.cif
#   From: 2010.05.17/outbox.cif.g08.bks.cpg/sg72_26_cif.got.tgz:50504.got - 2010.06.03 17:03:01.
