data_PCOD9529020
_publ_section_title
;
Structure prediction by ZEFSAII (Michael W. Deem and Ramdas Pophale) SiO2 
 PCOD9529020
Probable space group: I B A M
;
_chemical_formula_sum "Si O2"
_cell_formula_units_Z 72
_cell_length_a 9.433065
_cell_length_b 18.976142
_cell_length_c 20.139324
_cell_angle_alpha 90.000000
_cell_angle_beta 90.000000
_cell_angle_gamma 90.000000
_cell_volume 3605.003058
_symmetry_space_group_name_H-M "I B A M"
_symmetry_group_IT_number 72
_symmetry_cell_setting 'orthorhombic'
loop_
_space_group_symop_operation_xyz
x,y,z
-x,-y,z
x,-y,1/2-z
-x,y,1/2-z
-x,-y,-z
x,y,-z
-x,y,1/2+z
x,-y,1/2+z
1/2+x,1/2+y,1/2+z
1/2-x,1/2-y,1/2+z
1/2+x,1/2-y,-z
1/2-x,1/2+y,-z
1/2-x,1/2-y,1/2-z
1/2+x,1/2+y,1/2-z
1/2-x,1/2+y,z
1/2+x,1/2-y,z
loop_
_atom_site_type_symbol
_atom_site_label
_atom_site_fract_x
_atom_site_fract_y
_atom_site_fract_z
Si Si1 0.066888 0.612845 0.150553
Si Si2 0.273676 0.000000 0.250000
Si Si3 0.909885 0.595959 0.500000
Si Si4 0.120109 0.232168 0.296863
Si Si5 0.778531 0.558795 0.000000
Si Si6 0.771576 0.097204 0.860706
O O1 0.139910 0.556628 0.201811
O O2 0.131878 0.617262 0.075719
O O3 0.070029 0.692400 0.176791
O O4 0.316085 0.547254 0.300577
O O5 0.401025 0.907287 0.144426
O O6 0.853485 0.516372 0.500000
O O7 0.080756 0.608426 0.500000
O O8 0.250000 0.250000 0.250000
O O9 0.171658 0.175549 0.350030
O O10 0.000000 0.199972 0.250000
O O11 0.692015 0.570249 0.066600
#
# Coordination Sequence:
#
# PCOD9529020 Si02
#       6
#    16   8   8  16   8  16
#     4  11  20  34  57  88 119 156 199 251 298 352
#     4  12  19  30  59  90 115 154 203 252 301 344
#     4   9  18  31  54  87 123 150 199 246 298 354
#     4  12  23  39  59  87 120 155 196 248 300 361
#     4   9  18  33  54  89 123 150 189 256 298 351
#     4  11  21  35  59  87 120 155 197 247 305 352
#
# _framework density 19.972244
#
# number of rings (size 3 to 8) (size 9 to 14) (size 15 to 20)
#    0.000    1.111    6.667    2.000    0.000    0.889 
#    0.000    0.556    0.000    0.000    0.000    3.111 
#    0.000    0.000    0.000    0.000    0.000    0.000 
#
# Total GULP energy -200505.690087 kJ/mol
# GULP energy per Si atom -5569.602502 kJ/mol
# Density = 1.992679 g / cm^3
# Si number density = 19.972244 Si / 1000 Ang^3
#
#
#
# Elastic Constant Matrix: (Units=GPa)
#
#
# Indices 1 2 3 4 5 6 
#
# 1 18.5633 -6.4975 7.6873 0.0000 0.0000 0.0000
# 2 -6.4975 90.8691 44.8043 0.0000 0.0000 0.0000
# 3 7.6873 44.8043 170.5373 0.0000 0.0000 0.0000
# 4 0.0000 0.0000 0.0000 121.0733 0.0000 0.0000
# 5 0.0000 0.0000 0.0000 0.0000 5.5448 0.0000
# 6 0.0000 0.0000 0.0000 0.0000 0.0000 18.5653
#
#
#
# Elastic Compliance Matrix: (Units=1/GPa)
#
#
# Indices 1 2 3 4 5 6 
#
# 1 0.057805 0.006224 -0.004241 0.000000 0.000000 0.000000
# 2 0.006224 0.013313 -0.003778 0.000000 0.000000 0.000000
# 3 -0.004241 -0.003778 0.007048 0.000000 0.000000 0.000000
# 4 0.000000 0.000000 0.000000 0.008259 0.000000 0.000000
# 5 0.000000 0.000000 0.000000 0.000000 0.180348 0.000000
# 6 0.000000 0.000000 0.000000 0.000000 0.000000 0.053864
#
#
# Mechanical properties :
#
#
# Convention : Reuss Voigt Hill
#
# Bulk Modulus (GPa) = 13.40921 41.32864 27.36893
# Shear Modulus (GPa) = 14.32316 44.63506 29.47911
#
# Velocity S-wave (km/s) = 2.68088 4.73255 3.84605
# Velocity P-wave (km/s) = 4.03872 7.11342 5.78412
#
# Compressibility (1/GPa) = 0.07457561
#
# Stress axis : x y z
#
# Youngs Moduli (GPa) = 17.29961 75.11578 141.89219
#
# Poissons Ratio (x) = -0.46755 0.60176
# Poissons Ratio (y) = -0.10768 0.53609
# Poissons Ratio (z) = 0.07337 0.28380
#
# Static dielectric constant tensor:
#      x y z
#    x 1.881230 0.000000 0.000000 
#    y 0.000000 1.753940 0.000000 
#    z 0.000000 0.000000 1.796440 
# 
# From -- ./inp_files/29179.got.cif
#   From: 2010.05.17/outbox.cif.g08.bks.cpg/sg72_15_cif.got.tgz:29179.got - 2010.06.03 17:03:01.
