data_PCOD9529703
_publ_section_title
;
Structure prediction by ZEFSAII (Michael W. Deem and Ramdas Pophale) SiO2 
 PCOD9529703
Probable space group: I B C A 
;
_chemical_formula_sum "Si O2"
_cell_formula_units_Z 96
_cell_length_a 26.228242
_cell_length_b 8.752656
_cell_length_c 18.143763
_cell_angle_alpha 90.000000
_cell_angle_beta 90.000000
_cell_angle_gamma 90.000000
_cell_volume 4165.205244
_symmetry_space_group_name_H-M "I B C A "
_symmetry_group_IT_number 73
_symmetry_cell_setting 'orthorhombic'
loop_
_space_group_symop_operation_xyz
x,y,z
-x,1/2-y,z
x,-y,1/2-z
1/2-x,y,-z
-x,-y,-z
x,1/2+y,-z
-x,y,1/2+z
1/2+x,-y,z
1/2+x,1/2+y,1/2+z
1/2-x,-y,1/2+z
1/2+x,1/2-y,-z
-x,1/2+y,1/2-z
1/2-x,1/2-y,1/2-z
1/2+x,y,1/2-z
1/2-x,1/2+y,z
x,1/2-y,1/2+z
loop_
_atom_site_type_symbol
_atom_site_label
_atom_site_fract_x
_atom_site_fract_y
_atom_site_fract_z
Si Si1 0.180607 0.710284 0.135601
Si Si2 0.184391 0.151032 0.041204
Si Si3 0.766455 0.569218 0.878359
Si Si4 0.902140 0.428311 0.406948
Si Si5 0.505917 0.933053 0.829933
Si Si6 0.536645 0.610243 0.045816
O O1 0.196190 0.544534 0.164693
O O2 0.225858 0.822470 0.162106
O O3 0.128550 0.804154 0.141589
O O4 0.182918 0.679387 0.046328
O O5 0.198719 0.314666 0.075210
O O6 0.227907 0.034655 0.071951
O O7 0.133517 0.070191 0.070933
O O8 0.950812 0.483619 0.361434
O O9 0.920179 0.354570 0.485419
O O10 0.500000 0.750000 0.833128
O O11 0.513730 0.000000 0.750000
O O12 0.548743 0.007932 0.883110
O O13 0.500000 0.750000 0.065793
O O14 0.500000 0.500000 0.000000
#
# Coordination Sequence:
#
# PCOD9529703 Si02
#       6
#    16  16  16  16  16  16
#     4  10  17  27  46  78 120 164 191 230 283 345
#     4  10  17  27  47  78 122 165 192 228 285 342
#     4   9  16  29  43  71 126 173 191 215 286 356
#     4  10  22  33  56  94 119 152 195 252 295 356
#     4  11  25  47  66  81 111 159 204 254 317 380
#     4  10  21  39  61  86 124 153 193 246 314 370
#
# _framework density 23.048085
#
# number of rings (size 3 to 8) (size 9 to 14) (size 15 to 20)
#    0.000    2.000    0.000    7.500    7.000    0.000 
#    0.000    0.000    0.000    0.000    0.000   18.667 
#    0.000    0.000    0.000   24.000    0.000    0.000 
#
# Total GULP energy -267706.720767 kJ/mol
# GULP energy per Si atom -5577.223349 kJ/mol
# Density = 2.299563 g / cm^3
# Si number density = 23.048085 Si / 1000 Ang^3
#
#
#
# Elastic Constant Matrix: (Units=GPa)
#
#
# Indices 1 2 3 4 5 6 
#
# 1 64.4672 9.9309 2.4533 0.0000 0.0000 0.0000
# 2 9.9309 134.6871 9.1188 0.0000 0.0000 0.0000
# 3 2.4533 9.1188 68.8563 0.0000 0.0000 0.0000
# 4 0.0000 0.0000 0.0000 4.3346 0.0000 0.0000
# 5 0.0000 0.0000 0.0000 0.0000 7.0161 0.0000
# 6 0.0000 0.0000 0.0000 0.0000 0.0000 42.1148
#
#
#
# Elastic Compliance Matrix: (Units=1/GPa)
#
#
# Indices 1 2 3 4 5 6 
#
# 1 0.015701 -0.001130 -0.000410 0.000000 0.000000 0.000000
# 2 -0.001130 0.007573 -0.000963 0.000000 0.000000 0.000000
# 3 -0.000410 -0.000963 0.014665 0.000000 0.000000 0.000000
# 4 0.000000 0.000000 0.000000 0.230701 0.000000 0.000000
# 5 0.000000 0.000000 0.000000 0.000000 0.142530 0.000000
# 6 0.000000 0.000000 0.000000 0.000000 0.000000 0.023745
#
#
# Mechanical properties :
#
#
# Convention : Reuss Voigt Hill
#
# Bulk Modulus (GPa) = 30.36303 34.55739 32.46021
# Shear Modulus (GPa) = 11.08897 27.12695 19.10796
#
# Velocity S-wave (km/s) = 2.19583 3.43442 2.88244
# Velocity P-wave (km/s) = 4.43072 5.54556 5.01919
#
# Compressibility (1/GPa) = 0.03293479
#
# Stress axis : x y z
#
# Youngs Moduli (GPa) = 63.68851 132.04620 68.18915
#
# Poissons Ratio (x) = 0.14921 0.02794
# Poissons Ratio (y) = 0.07197 0.06564
# Poissons Ratio (z) = 0.02610 0.12712
#
# Static dielectric constant tensor:
#      x y z
#    x 1.950440 0.000000 0.000000 
#    y 0.000000 1.749940 0.000000 
#    z 0.000000 0.000000 1.859820 
# 
# From -- ./inp_files/27509.got.cif
#   From: 2010.05.17/outbox.cif.g08.bks.cpg/sg73_14_cif.got.tgz:27509.got - 2010.06.03 17:35:07.
