data_PCOD9529992
_publ_section_title
;
Structure prediction by ZEFSAII (Michael W. Deem and Ramdas Pophale) SiO2 
 PCOD9529992
Probable space group: I B C A 
;
_chemical_formula_sum "Si O2"
_cell_formula_units_Z 128
_cell_length_a 20.207141
_cell_length_b 18.334521
_cell_length_c 19.405398
_cell_angle_alpha 90.000000
_cell_angle_beta 90.000000
_cell_angle_gamma 90.000000
_cell_volume 7189.471965
_symmetry_space_group_name_H-M "I B C A "
_symmetry_group_IT_number 73
_symmetry_cell_setting 'orthorhombic'
loop_
_space_group_symop_operation_xyz
x,y,z
-x,1/2-y,z
x,-y,1/2-z
1/2-x,y,-z
-x,-y,-z
x,1/2+y,-z
-x,y,1/2+z
1/2+x,-y,z
1/2+x,1/2+y,1/2+z
1/2-x,-y,1/2+z
1/2+x,1/2-y,-z
-x,1/2+y,1/2-z
1/2-x,1/2-y,1/2-z
1/2+x,y,1/2-z
1/2-x,1/2+y,z
x,1/2-y,1/2+z
loop_
_atom_site_type_symbol
_atom_site_label
_atom_site_fract_x
_atom_site_fract_y
_atom_site_fract_z
Si Si1 0.351345 0.104432 0.697126
Si Si2 0.932930 0.345410 0.424373
Si Si3 0.317026 0.939649 0.664211
Si Si4 0.823567 0.098307 0.032826
Si Si5 0.701199 0.663920 0.316592
Si Si6 0.826391 0.567904 0.494942
Si Si7 0.585121 0.672237 0.419982
Si Si8 0.277165 0.694002 0.659705
O O1 0.412921 0.123458 0.650306
O O2 0.357947 0.107577 0.779583
O O3 0.293628 0.155470 0.669100
O O4 0.325326 0.023726 0.682615
O O5 0.882938 0.377379 0.481947
O O6 0.921064 0.258864 0.427431
O O7 0.011209 0.358683 0.428887
O O8 0.241968 0.911192 0.674803
O O9 0.340237 0.937518 0.586019
O O10 0.818073 0.149237 0.101617
O O11 0.750000 0.107879 0.000000
O O12 0.832525 0.009849 0.035458
O O13 0.629642 0.660950 0.351489
O O14 0.692842 0.686619 0.236633
O O15 0.752662 0.722590 0.351715
O O16 0.750000 0.589184 0.500000
O O17 0.870908 0.631192 0.524496
#
# Coordination Sequence:
#
# PCOD9529992 Si02
#       8
#    16  16  16  16  16  16  16  16
#     4  10  18  38  59  83 114 150 192 234 287 349
#     4  11  23  40  57  80 117 166 190 227 299 363
#     4  10  20  33  62  88 111 143 192 247 288 332
#     4  11  20  36  61  86 116 151 196 241 287 350
#     4  10  20  37  58  90 117 145 192 250 296 336
#     4  11  21  36  59  90 116 145 190 246 295 337
#     4  11  24  38  56  82 123 155 190 235 298 360
#     4  10  20  34  62  89 113 145 195 249 288 333
#
# _framework density 17.803811
#
# number of rings (size 3 to 8) (size 9 to 14) (size 15 to 20)
#    0.000    1.500    5.000    0.750    1.750    1.000 
#    0.000    1.250    2.750    3.000    0.000    0.000 
#    0.000    0.000    0.000    0.000    0.000    0.000 
#
# Total GULP energy -356305.494799 kJ/mol
# GULP energy per Si atom -5567.273356 kJ/mol
# Density = 1.776329 g / cm^3
# Si number density = 17.803811 Si / 1000 Ang^3
#
#
#
# Elastic Constant Matrix: (Units=GPa)
#
#
# Indices 1 2 3 4 5 6 
#
# 1 92.1196 38.8147 19.8291 0.0000 0.0000 0.0000
# 2 38.8147 60.5022 26.6917 0.0000 0.0000 0.0000
# 3 19.8291 26.6917 84.1719 0.0000 0.0000 0.0000
# 4 0.0000 0.0000 0.0000 20.1929 0.0000 0.0000
# 5 0.0000 0.0000 0.0000 0.0000 18.9179 0.0000
# 6 0.0000 0.0000 0.0000 0.0000 0.0000 24.8233
#
#
#
# Elastic Compliance Matrix: (Units=1/GPa)
#
#
# Indices 1 2 3 4 5 6 
#
# 1 0.014899 -0.009313 -0.000557 0.000000 0.000000 0.000000
# 2 -0.009313 0.025038 -0.005746 0.000000 0.000000 0.000000
# 3 -0.000557 -0.005746 0.013834 0.000000 0.000000 0.000000
# 4 0.000000 0.000000 0.000000 0.049522 0.000000 0.000000
# 5 0.000000 0.000000 0.000000 0.000000 0.052860 0.000000
# 6 0.000000 0.000000 0.000000 0.000000 0.000000 0.040285
#
#
# Mechanical properties :
#
#
# Convention : Reuss Voigt Hill
#
# Bulk Modulus (GPa) = 44.36585 45.27386 44.81986
# Shear Modulus (GPa) = 21.26013 22.88404 22.07208
#
# Velocity S-wave (km/s) = 3.45937 3.58906 3.52481
# Velocity P-wave (km/s) = 6.39764 6.53144 6.46488
#
# Compressibility (1/GPa) = 0.02253986
#
# Stress axis : x y z
#
# Youngs Moduli (GPa) = 67.11719 39.93956 72.28747
#
# Poissons Ratio (x) = 0.37195 0.04025
# Poissons Ratio (y) = 0.62506 0.41535
# Poissons Ratio (z) = 0.03737 0.22948
#
# Static dielectric constant tensor:
#      x y z
#    x 1.579730 0.000000 0.000000 
#    y 0.000000 1.750150 0.000000 
#    z 0.000000 0.000000 1.716840 
# 
# From -- ./inp_files/27063.got.cif
#   From: 2010.05.17/outbox.cif.g08.bks.cpg/sg73_14_cif.got.tgz:27063.got - 2010.06.03 17:35:07.
