data_PCOD9529886
_publ_section_title
;
Structure prediction by ZEFSAII (Michael W. Deem and Ramdas Pophale) SiO2 
 PCOD9529886
Probable space group: I B C A 
;
_chemical_formula_sum "Si O2"
_cell_formula_units_Z 120
_cell_length_a 8.587751
_cell_length_b 30.770221
_cell_length_c 25.336030
_cell_angle_alpha 90.000000
_cell_angle_beta 90.000000
_cell_angle_gamma 90.000000
_cell_volume 6694.969822
_symmetry_space_group_name_H-M "I B C A "
_symmetry_group_IT_number 73
_symmetry_cell_setting 'orthorhombic'
loop_
_space_group_symop_operation_xyz
x,y,z
-x,1/2-y,z
x,-y,1/2-z
1/2-x,y,-z
-x,-y,-z
x,1/2+y,-z
-x,y,1/2+z
1/2+x,-y,z
1/2+x,1/2+y,1/2+z
1/2-x,-y,1/2+z
1/2+x,1/2-y,-z
-x,1/2+y,1/2-z
1/2-x,1/2-y,1/2-z
1/2+x,y,1/2-z
1/2-x,1/2+y,z
x,1/2-y,1/2+z
loop_
_atom_site_type_symbol
_atom_site_label
_atom_site_fract_x
_atom_site_fract_y
_atom_site_fract_z
Si Si1 0.449141 0.394228 0.680058
Si Si2 0.750000 0.888390 0.000000
Si Si3 0.819823 0.640963 0.388947
Si Si4 0.537116 0.699582 0.688662
Si Si5 0.023423 0.449122 0.990833
Si Si6 0.136341 0.035054 0.377853
Si Si7 0.479421 0.557876 0.613355
Si Si8 0.750262 0.853029 0.731724
O O1 0.350030 0.368829 0.635615
O O2 0.505670 0.440394 0.656948
O O3 0.336855 0.389097 0.731470
O O4 0.612036 0.372006 0.696194
O O5 0.814334 0.860846 0.951824
O O6 0.626918 0.921705 0.975020
O O7 0.891337 0.685091 0.367009
O O8 0.929319 0.600886 0.368666
O O9 0.500000 0.750000 0.693707
O O10 0.381677 0.671974 0.699607
O O11 0.665035 0.681792 0.730087
O O12 0.126615 0.447697 0.938500
O O13 0.000000 0.500000 0.000000
O O14 0.052898 0.433935 0.050743
O O15 0.313079 0.046090 0.360862
O O16 0.092371 0.984017 0.380193
#
# Coordination Sequence:
#
# PCOD9529886 Si02
#       8
#    16   8  16  16  16  16  16  16
#     4  10  19  35  57  78 110 143 175 225 271 334
#     4  10  18  34  48  78 112 148 184 224 268 338
#     4  10  20  35  54  79 109 147 182 221 284 328
#     4  10  19  35  60  85 108 135 174 228 287 343
#     4   9  19  26  47  73 109 139 182 221 261 298
#     4  11  19  31  50  76 108 146 185 218 270 314
#     4  10  21  30  49  76 110 146 181 226 260 313
#     4   9  20  35  57  86 109 133 176 230 287 328
#
# _framework density 17.923904
#
# number of rings (size 3 to 8) (size 9 to 14) (size 15 to 20)
#    0.000    2.133    1.333    2.400    9.333    0.000 
#    0.000    0.000    0.000   28.800    0.000    0.000 
#    0.000    0.000    0.000    0.000    0.000    0.000 
#
# Total GULP energy -334018.214833 kJ/mol
# GULP energy per Si atom -5566.970247 kJ/mol
# Density = 1.788311 g / cm^3
# Si number density = 17.923904 Si / 1000 Ang^3
#
#
#
# Elastic Constant Matrix: (Units=GPa)
#
#
# Indices 1 2 3 4 5 6 
#
# 1 91.6236 13.9668 22.7085 0.0000 0.0000 0.0000
# 2 13.9668 57.1124 28.8306 0.0000 0.0000 0.0000
# 3 22.7085 28.8306 52.6856 0.0000 0.0000 0.0000
# 4 0.0000 0.0000 0.0000 17.9332 0.0000 0.0000
# 5 0.0000 0.0000 0.0000 0.0000 22.8427 0.0000
# 6 0.0000 0.0000 0.0000 0.0000 0.0000 17.7862
#
#
#
# Elastic Compliance Matrix: (Units=1/GPa)
#
#
# Indices 1 2 3 4 5 6 
#
# 1 0.012228 -0.000456 -0.005021 0.000000 0.000000 0.000000
# 2 -0.000456 0.024209 -0.013051 0.000000 0.000000 0.000000
# 3 -0.005021 -0.013051 0.028287 0.000000 0.000000 0.000000
# 4 0.000000 0.000000 0.000000 0.055763 0.000000 0.000000
# 5 0.000000 0.000000 0.000000 0.000000 0.043778 0.000000
# 6 0.000000 0.000000 0.000000 0.000000 0.000000 0.056223
#
#
# Mechanical properties :
#
#
# Convention : Reuss Voigt Hill
#
# Bulk Modulus (GPa) = 36.14336 36.93704 36.54020
# Shear Modulus (GPa) = 18.74298 20.77346 19.75822
#
# Velocity S-wave (km/s) = 3.23723 3.40807 3.32375
# Velocity P-wave (km/s) = 5.84650 6.01158 5.92961
#
# Compressibility (1/GPa) = 0.02766760
#
# Stress axis : x y z
#
# Youngs Moduli (GPa) = 81.77839 41.30677 35.35231
#
# Poissons Ratio (x) = 0.01882 0.17751
# Poissons Ratio (y) = 0.03726 0.46139
# Poissons Ratio (z) = 0.41063 0.53911
#
# Static dielectric constant tensor:
#      x y z
#    x 1.623940 0.000000 0.000000 
#    y 0.000000 1.581420 0.000000 
#    z 0.000000 0.000000 1.648970 
# 
# From -- ./inp_files/33676.got.cif
#   From: 2010.05.17/outbox.cif.g08.bks.cpg/sg73_17_cif.got.tgz:33676.got - 2010.06.03 17:35:07.
