data_PCOD9529868
_publ_section_title
;
Structure prediction by ZEFSAII (Michael W. Deem and Ramdas Pophale) SiO2 
 PCOD9529868
Probable space group: I B C A 
;
_chemical_formula_sum "Si O2"
_cell_formula_units_Z 88
_cell_length_a 8.206793
_cell_length_b 16.250639
_cell_length_c 25.699041
_cell_angle_alpha 90.000000
_cell_angle_beta 90.000000
_cell_angle_gamma 90.000000
_cell_volume 3427.368803
_symmetry_space_group_name_H-M "I B C A "
_symmetry_group_IT_number 73
_symmetry_cell_setting 'orthorhombic'
loop_
_space_group_symop_operation_xyz
x,y,z
-x,1/2-y,z
x,-y,1/2-z
1/2-x,y,-z
-x,-y,-z
x,1/2+y,-z
-x,y,1/2+z
1/2+x,-y,z
1/2+x,1/2+y,1/2+z
1/2-x,-y,1/2+z
1/2+x,1/2-y,-z
-x,1/2+y,1/2-z
1/2-x,1/2-y,1/2-z
1/2+x,y,1/2-z
1/2-x,1/2+y,z
x,1/2-y,1/2+z
loop_
_atom_site_type_symbol
_atom_site_label
_atom_site_fract_x
_atom_site_fract_y
_atom_site_fract_z
Si Si1 0.994443 0.403238 0.979791
Si Si2 0.412664 0.517137 0.309287
Si Si3 0.810394 0.167444 0.186649
Si Si4 0.813178 0.560673 0.616764
Si Si5 0.000000 0.250000 0.768660
Si Si6 0.839227 0.373708 0.575833
O O1 0.159469 0.374948 0.950131
O O2 0.851541 0.390836 0.937125
O O3 0.017648 0.357920 0.034666
O O4 0.000000 0.500000 0.000000
O O5 0.457618 0.500000 0.250000
O O6 0.255233 0.575633 0.305601
O O7 0.543383 0.571472 0.341149
O O8 0.351091 0.443804 0.348420
O O9 0.660267 0.227420 0.200068
O O10 0.851512 0.180422 0.126893
O O11 0.952301 0.179385 0.227905
O O12 0.840680 0.468409 0.595141
#
# Coordination Sequence:
#
# PCOD9529868 Si02
#       6
#    16  16  16  16   8  16
#     4   9  16  30  54  82 119 156 186 225 301 373
#     4  11  23  32  56  91 127 158 186 242 307 374
#     4  10  22  41  60  84 114 158 212 252 302 352
#     4  10  18  33  48  86 121 159 183 224 299 373
#     4  10  24  42  62  80 112 170 216 262 292 348
#     4   9  18  32  56  83 115 154 190 240 288 362
#
# _framework density 25.675671000000001
#
# number of rings (size 3 to 8) (size 9 to 14) (size 15 to 20)
#    0.000    2.182    3.636    0.545    7.636    0.000 
#    0.000    0.000    0.000    4.364    0.000    0.000 
#    0.000    0.000    0.000    0.000    0.000    0.000 
#
# Total GULP energy -245475.664935 kJ/mol
# GULP energy per Si atom -5578.992385 kJ/mol
# Density = 2.561723 g / cm^3
# Si number density = 25.675671 Si / 1000 Ang^3
#
#
#
# Elastic Constant Matrix: (Units=GPa)
#
#
# Indices 1 2 3 4 5 6 
#
# 1 92.8735 5.2011 58.6601 0.0000 0.0000 0.0000
# 2 5.2011 20.8828 23.6515 0.0000 0.0000 0.0000
# 3 58.6601 23.6515 237.4902 0.0000 0.0000 0.0000
# 4 0.0000 0.0000 0.0000 14.3909 0.0000 0.0000
# 5 0.0000 0.0000 0.0000 0.0000 17.2743 0.0000
# 6 0.0000 0.0000 0.0000 0.0000 0.0000 23.9220
#
#
#
# Elastic Compliance Matrix: (Units=1/GPa)
#
#
# Indices 1 2 3 4 5 6 
#
# 1 0.012761 0.000441 -0.003196 0.000000 0.000000 0.000000
# 2 0.000441 0.053989 -0.005486 0.000000 0.000000 0.000000
# 3 -0.003196 -0.005486 0.005546 0.000000 0.000000 0.000000
# 4 0.000000 0.000000 0.000000 0.069488 0.000000 0.000000
# 5 0.000000 0.000000 0.000000 0.000000 0.057889 0.000000
# 6 0.000000 0.000000 0.000000 0.000000 0.000000 0.041803
#
#
# Mechanical properties :
#
#
# Convention : Reuss Voigt Hill
#
# Bulk Modulus (GPa) = 17.91592 58.47465 38.19528
# Shear Modulus (GPa) = 18.07902 28.69969 23.38936
#
# Velocity S-wave (km/s) = 2.65642 3.34695 3.02148
# Velocity P-wave (km/s) = 4.04990 6.14490 5.20392
#
# Compressibility (1/GPa) = 0.05581629
#
# Stress axis : x y z
#
# Youngs Moduli (GPa) = 78.36230 18.52217 180.29598
#
# Poissons Ratio (x) = -0.00818 0.57622
# Poissons Ratio (y) = -0.03459 0.98907
# Poissons Ratio (z) = 0.25044 0.10161
#
# Static dielectric constant tensor:
#      x y z
#    x 1.785470 0.000000 0.000000 
#    y 0.000000 2.104190 0.000000 
#    z 0.000000 0.000000 2.193740 
# 
# From -- ./inp_files/28337.got.cif
#   From: 2010.05.17/outbox.cif.g08.bks.cpg/sg73_15_cif.got.tgz:28337.got - 2010.06.03 17:35:07.
