data_PCOD9529437
_publ_section_title
;
Structure prediction by ZEFSAII (Michael W. Deem and Ramdas Pophale) SiO2 
 PCOD9529437
Probable space group: I B A M
;
_chemical_formula_sum "Si O2"
_cell_formula_units_Z 52
_cell_length_a 7.496345
_cell_length_b 13.093575
_cell_length_c 24.558290
_cell_angle_alpha 90.000000
_cell_angle_beta 90.000000
_cell_angle_gamma 90.000000
_cell_volume 2410.493303
_symmetry_space_group_name_H-M "I B A M"
_symmetry_group_IT_number 72
_symmetry_cell_setting 'orthorhombic'
loop_
_space_group_symop_operation_xyz
x,y,z
-x,-y,z
x,-y,1/2-z
-x,y,1/2-z
-x,-y,-z
x,y,-z
-x,y,1/2+z
x,-y,1/2+z
1/2+x,1/2+y,1/2+z
1/2-x,1/2-y,1/2+z
1/2+x,1/2-y,-z
1/2-x,1/2+y,-z
1/2-x,1/2-y,1/2-z
1/2+x,1/2+y,1/2-z
1/2-x,1/2+y,z
1/2+x,1/2-y,z
loop_
_atom_site_type_symbol
_atom_site_label
_atom_site_fract_x
_atom_site_fract_y
_atom_site_fract_z
Si Si1 0.886463 0.873356 0.846394
Si Si2 0.378421 0.877172 0.560833
Si Si3 0.245466 0.325480 0.893677
Si Si4 0.500000 0.500000 0.250000
O O1 0.750298 0.915968 0.891491
O O2 0.341733 0.748242 0.848643
O O3 0.089091 0.883009 0.867431
O O4 0.881264 0.927715 0.788681
O O5 0.343763 0.914136 0.500000
O O6 0.332770 0.755048 0.563719
O O7 0.584389 0.885058 0.578171
#
# Coordination Sequence:
#
# PCOD9529437 Si02
#       4
#    16  16  16   4
#     4   9  20  36  55  82 111 142 187 221 271 319
#     4   9  15  29  56  86 109 134 175 228 275 324
#     4   8  17  32  55  84 107 134 184 223 267 325
#     4  12  24  40  56  72 116 156 184 230 266 308
#
# _framework density 21.572348999999999
#
# number of rings (size 3 to 8) (size 9 to 14) (size 15 to 20)
#    1.846    1.231    0.000    0.923    0.000    2.462 
#    0.000    3.846    0.000    1.846    0.000    0.000 
#    0.000    0.000    0.000    0.000    0.000    0.000 
#
# Total GULP energy -144793.140096 kJ/mol
# GULP energy per Si atom -5568.966927 kJ/mol
# Density = 2.152325 g / cm^3
# Si number density = 21.572349 Si / 1000 Ang^3
#
#
#
# Elastic Constant Matrix: (Units=GPa)
#
#
# Indices 1 2 3 4 5 6 
#
# 1 150.8633 17.7216 56.9487 0.0000 0.0000 0.0000
# 2 17.7216 44.6662 36.4242 0.0000 0.0000 0.0000
# 3 56.9487 36.4242 161.3452 0.0000 0.0000 0.0000
# 4 0.0000 0.0000 0.0000 36.6811 0.0000 0.0000
# 5 0.0000 0.0000 0.0000 0.0000 10.4135 0.0000
# 6 0.0000 0.0000 0.0000 0.0000 0.0000 -2.9471
#
#
#
# Elastic Compliance Matrix: (Units=1/GPa)
#
#
# Indices 1 2 3 4 5 6 
#
# 1 0.007686 -0.001026 -0.002481 0.000000 0.000000 0.000000
# 2 -0.001026 0.027577 -0.005863 0.000000 0.000000 0.000000
# 3 -0.002481 -0.005863 0.008397 0.000000 0.000000 0.000000
# 4 0.000000 0.000000 0.000000 0.027262 0.000000 0.000000
# 5 0.000000 0.000000 0.000000 0.000000 0.096029 0.000000
# 6 0.000000 0.000000 0.000000 0.000000 0.000000 -0.339314
#
#
# Mechanical properties :
#
#
# Convention : Reuss Voigt Hill
#
# Bulk Modulus (GPa) = 40.13056 64.34041 52.23548
# Shear Modulus (GPa) = -34.40780 25.21485 -4.59647
#
# Velocity S-wave (km/s) = -3.99807 3.42255 -1.46128
# Velocity P-wave (km/s) = 1.63389 6.74601 4.62812
#
# Compressibility (1/GPa) = 0.02491867
#
# Stress axis : x y z
#
# Youngs Moduli (GPa) = 130.11309 36.26234 119.08580
#
# Poissons Ratio (x) = 0.03721 0.29546
# Poissons Ratio (y) = 0.13350 0.69825
# Poissons Ratio (z) = 0.32282 0.21262
#
# Static dielectric constant tensor:
#      x y z
#    x 1.760410 0.000000 0.000000 
#    y 0.000000 1.928510 0.000000 
#    z 0.000000 0.000000 1.754080 
# 
# From -- ./inp_files/46430.got.cif
#   From: 2010.05.17/outbox.cif.g08.bks.cpg/sg72_24_cif.got.tgz:46430.got - 2010.06.03 17:03:01.
