data_PCOD9529202
_publ_section_title
;
Structure prediction by ZEFSAII (Michael W. Deem and Ramdas Pophale) SiO2 
 PCOD9529202
Probable space group: I B A M
;
_chemical_formula_sum "Si O2"
_cell_formula_units_Z 72
_cell_length_a 13.721208
_cell_length_b 11.327403
_cell_length_c 19.824149
_cell_angle_alpha 90.000000
_cell_angle_beta 90.000000
_cell_angle_gamma 90.000000
_cell_volume 3081.181297
_symmetry_space_group_name_H-M "I B A M"
_symmetry_group_IT_number 72
_symmetry_cell_setting 'orthorhombic'
loop_
_space_group_symop_operation_xyz
x,y,z
-x,-y,z
x,-y,1/2-z
-x,y,1/2-z
-x,-y,-z
x,y,-z
-x,y,1/2+z
x,-y,1/2+z
1/2+x,1/2+y,1/2+z
1/2-x,1/2-y,1/2+z
1/2+x,1/2-y,-z
1/2-x,1/2+y,-z
1/2-x,1/2-y,1/2-z
1/2+x,1/2+y,1/2-z
1/2-x,1/2+y,z
1/2+x,1/2-y,z
loop_
_atom_site_type_symbol
_atom_site_label
_atom_site_fract_x
_atom_site_fract_y
_atom_site_fract_z
Si Si1 0.691939 0.500000 0.250000
Si Si2 0.056509 0.114826 0.635407
Si Si3 0.761423 0.888978 0.000000
Si Si4 0.965582 0.660308 0.173998
Si Si5 0.337499 0.042522 0.138958
Si Si6 0.665624 0.354728 0.500000
O O1 0.626406 0.578261 0.198433
O O2 0.764296 0.572957 0.299862
O O3 0.971792 0.202406 0.660432
O O4 0.113382 0.168465 0.571677
O O5 0.000000 0.000000 0.612661
O O6 0.709223 0.927610 0.068639
O O7 0.836945 0.000032 0.000000
O O8 0.756585 0.743040 0.000000
O O9 0.059003 0.606128 0.137140
O O10 0.000000 0.636654 0.250000
O O11 0.868067 0.594036 0.152419
#
# Coordination Sequence:
#
# PCOD9529202 Si02
#       6
#     8  16   8  16  16   8
#     4  12  23  47  74 106 142 194 240 311 371 440
#     4  12  27  47  70 105 151 195 240 299 379 446
#     4  12  26  50  73 112 142 195 250 310 361 447
#     4  11  22  43  71 108 147 183 243 308 358 438
#     4  11  23  43  76 103 140 187 248 298 368 425
#     4  12  27  49  76 105 152 193 250 305 371 447
#
# _framework density 23.367660000000001
#
# number of rings (size 3 to 8) (size 9 to 14) (size 15 to 20)
#    0.000    0.444    6.667    2.667    0.000    5.333 
#    8.000    0.000    0.000    0.000    0.000    0.000 
#    0.000    0.000    0.000    0.000    0.000    0.000 
#
# Total GULP energy -200542.994770 kJ/mol
# GULP energy per Si atom -5570.638744 kJ/mol
# Density = 2.331447 g / cm^3
# Si number density = 23.367660 Si / 1000 Ang^3
#
#
#
# Elastic Constant Matrix: (Units=GPa)
#
#
# Indices 1 2 3 4 5 6 
#
# 1 49.7722 19.5674 24.2123 0.0000 0.0000 0.0000
# 2 19.5674 118.0914 9.5375 0.0000 0.0000 0.0000
# 3 24.2123 9.5375 152.1254 0.0000 0.0000 0.0000
# 4 0.0000 0.0000 0.0000 16.5606 0.0000 0.0000
# 5 0.0000 0.0000 0.0000 0.0000 53.0848 0.0000
# 6 0.0000 0.0000 0.0000 0.0000 0.0000 146.6732
#
#
#
# Elastic Compliance Matrix: (Units=1/GPa)
#
#
# Indices 1 2 3 4 5 6 
#
# 1 0.023177 -0.003560 -0.003466 0.000000 0.000000 0.000000
# 2 -0.003560 0.009058 -0.000001 0.000000 0.000000 0.000000
# 3 -0.003466 -0.000001 0.007125 0.000000 0.000000 0.000000
# 4 0.000000 0.000000 0.000000 0.060384 0.000000 0.000000
# 5 0.000000 0.000000 0.000000 0.000000 0.018838 0.000000
# 6 0.000000 0.000000 0.000000 0.000000 0.000000 0.006818
#
#
# Mechanical properties :
#
#
# Convention : Reuss Voigt Hill
#
# Bulk Modulus (GPa) = 39.51668 47.40260 43.45964
# Shear Modulus (GPa) = 33.80884 61.04183 47.42534
#
# Velocity S-wave (km/s) = 3.80784 5.11655 4.50992
# Velocity P-wave (km/s) = 6.02332 7.43203 6.76444
#
# Compressibility (1/GPa) = 0.02530577
#
# Stress axis : x y z
#
# Youngs Moduli (GPa) = 43.14580 110.39872 140.34704
#
# Poissons Ratio (x) = 0.39307 0.48640
# Poissons Ratio (y) = 0.15362 0.00017
# Poissons Ratio (z) = 0.14953 0.00013
#
# Static dielectric constant tensor:
#      x y z
#    x 1.916400 0.000000 0.000000 
#    y 0.000000 1.940910 0.000000 
#    z 0.000000 0.000000 1.796920 
# 
# From -- ./inp_files/31277.got.cif
#   From: 2010.05.17/outbox.cif.g08.bks.cpg/sg72_16_cif.got.tgz:31277.got - 2010.06.03 17:03:01.
