data_PCOD9529319
_publ_section_title
;
Structure prediction by ZEFSAII (Michael W. Deem and Ramdas Pophale) SiO2 
 PCOD9529319
Probable space group: I B A M
;
_chemical_formula_sum "Si O2"
_cell_formula_units_Z 88
_cell_length_a 10.220746
_cell_length_b 24.891961
_cell_length_c 15.309232
_cell_angle_alpha 90.000000
_cell_angle_beta 90.000000
_cell_angle_gamma 90.000000
_cell_volume 3894.889239
_symmetry_space_group_name_H-M "I B A M"
_symmetry_group_IT_number 72
_symmetry_cell_setting 'orthorhombic'
loop_
_space_group_symop_operation_xyz
x,y,z
-x,-y,z
x,-y,1/2-z
-x,y,1/2-z
-x,-y,-z
x,y,-z
-x,y,1/2+z
x,-y,1/2+z
1/2+x,1/2+y,1/2+z
1/2-x,1/2-y,1/2+z
1/2+x,1/2-y,-z
1/2-x,1/2+y,-z
1/2-x,1/2-y,1/2-z
1/2+x,1/2+y,1/2-z
1/2-x,1/2+y,z
1/2+x,1/2-y,z
loop_
_atom_site_type_symbol
_atom_site_label
_atom_site_fract_x
_atom_site_fract_y
_atom_site_fract_z
Si Si1 0.874225 0.739801 0.188372
Si Si2 0.967267 0.636591 0.902813
Si Si3 0.707131 0.922829 0.169816
Si Si4 0.045430 0.853289 0.647917
Si Si5 0.899285 0.089645 0.000000
Si Si6 0.278256 0.040577 0.630240
O O1 0.750000 0.750000 0.250000
O O2 0.879522 0.685263 0.133292
O O3 0.896700 0.793913 0.133721
O O4 0.000000 0.735199 0.250000
O O5 0.876612 0.584199 0.908823
O O6 0.089248 0.619175 0.842459
O O7 0.016256 0.650104 0.000000
O O8 0.838710 0.896300 0.134206
O O9 0.731640 0.939978 0.269738
O O10 0.673237 0.979506 0.125042
O O11 0.000000 0.856182 0.750000
O O12 0.936105 0.867092 0.577840
O O13 0.854189 0.046624 0.076681
#
# Coordination Sequence:
#
# PCOD9529319 Si02
#       6
#    16  16  16  16   8  16
#     4  11  25  46  76 100 144 195 243 300 372 451
#     4  12  26  43  72 107 141 186 247 316 371 450
#     4  11  25  47  70 104 142 190 246 300 377 458
#     4  11  25  46  72 105 144 193 245 305 376 453
#     4  12  26  45  71 106 149 192 245 313 366 463
#     4  11  24  45  73 101 143 192 242 303 378 453
#
# _framework density 22.593712
#
# number of rings (size 3 to 8) (size 9 to 14) (size 15 to 20)
#    0.000    0.727    2.727    4.364    6.364    3.636 
#    0.000    0.909    0.000    0.000    0.000    0.000 
#    0.000    0.000    0.000    0.000    0.000    0.000 
#
# Total GULP energy -244942.553058 kJ/mol
# GULP energy per Si atom -5566.876206 kJ/mol
# Density = 2.254229 g / cm^3
# Si number density = 22.593712 Si / 1000 Ang^3
#
#
#
# Elastic Constant Matrix: (Units=GPa)
#
#
# Indices 1 2 3 4 5 6 
#
# 1 60.1942 44.8399 17.1372 0.0000 0.0000 0.0000
# 2 44.8399 143.0384 52.4896 0.0000 0.0000 0.0000
# 3 17.1372 52.4896 118.5321 -0.0001 0.0001 0.0000
# 4 0.0000 0.0000 -0.0001 54.1410 0.0000 0.0000
# 5 0.0000 0.0000 0.0001 0.0000 -6.2722 0.0000
# 6 0.0000 0.0000 0.0000 0.0000 0.0000 42.2977
#
#
#
# Elastic Compliance Matrix: (Units=1/GPa)
#
#
# Indices 1 2 3 4 5 6 
#
# 1 0.021676 -0.006740 -0.000149 0.000000 0.000000 0.000000
# 2 -0.006740 0.010444 -0.003650 0.000000 0.000000 0.000000
# 3 -0.000149 -0.003650 0.010075 0.000000 0.000000 0.000000
# 4 0.000000 0.000000 0.000000 0.018470 0.000000 0.000000
# 5 0.000000 0.000000 0.000000 0.000000 -0.159433 0.000000
# 6 0.000000 0.000000 0.000000 0.000000 0.000000 0.023642
#
#
# Mechanical properties :
#
#
# Convention : Reuss Voigt Hill
#
# Bulk Modulus (GPa) = 47.35956 61.18869 54.27413
# Shear Modulus (GPa) = -106.36500 31.85315 -37.25593
#
# Velocity S-wave (km/s) = -6.86873 3.75884 -4.06513
# Velocity P-wave (km/s) = 6.47295 6.78081 1.42835
#
# Compressibility (1/GPa) = 0.02111506
#
# Stress axis : x y z
#
# Youngs Moduli (GPa) = 46.13303 95.75203 99.26030
#
# Poissons Ratio (x) = 0.64541 0.01480
# Poissons Ratio (y) = 0.31096 0.36232
# Poissons Ratio (z) = 0.00688 0.34952
#
# Static dielectric constant tensor:
#      x y z
#    x 1.899450 0.000000 0.000000 
#    y 0.000000 1.851660 0.000000 
#    z 0.000000 0.000000 1.967740 
# 
# From -- ./inp_files/20302.got.cif
#   From: 2010.05.17/outbox.cif.g08.bks.cpg/sg72_11_cif.got.tgz:20302.got - 2010.06.03 17:03:01.
