data_PCOD9529197
_publ_section_title
;
Structure prediction by ZEFSAII (Michael W. Deem and Ramdas Pophale) SiO2 
 PCOD9529197
Probable space group: I B A M
;
_chemical_formula_sum "Si O2"
_cell_formula_units_Z 64
_cell_length_a 12.111705
_cell_length_b 15.610585
_cell_length_c 15.845472
_cell_angle_alpha 90.000000
_cell_angle_beta 90.000000
_cell_angle_gamma 90.000000
_cell_volume 2995.916074
_symmetry_space_group_name_H-M "I B A M"
_symmetry_group_IT_number 72
_symmetry_cell_setting 'orthorhombic'
loop_
_space_group_symop_operation_xyz
x,y,z
-x,-y,z
x,-y,1/2-z
-x,y,1/2-z
-x,-y,-z
x,y,-z
-x,y,1/2+z
x,-y,1/2+z
1/2+x,1/2+y,1/2+z
1/2-x,1/2-y,1/2+z
1/2+x,1/2-y,-z
1/2-x,1/2+y,-z
1/2-x,1/2-y,1/2-z
1/2+x,1/2+y,1/2-z
1/2-x,1/2+y,z
1/2+x,1/2-y,z
loop_
_atom_site_type_symbol
_atom_site_label
_atom_site_fract_x
_atom_site_fract_y
_atom_site_fract_z
Si Si1 0.629750 0.019061 0.500000
Si Si2 0.330110 0.067246 0.324719
Si Si3 0.349847 0.693250 0.360468
Si Si4 0.500000 0.185775 0.250000
Si Si5 0.255593 0.691486 0.000000
Si Si6 0.002757 0.104222 0.000000
O O1 0.678107 0.976645 0.415582
O O2 0.500000 0.000000 0.500000
O O3 0.661388 0.118506 0.500000
O O4 0.223106 0.124954 0.311065
O O5 0.438061 0.126372 0.317756
O O6 0.339885 0.000000 0.250000
O O7 0.412597 0.756192 0.298205
O O8 0.266746 0.747948 0.419623
O O9 0.436767 0.643202 0.419939
O O10 0.373208 0.643354 0.000000
O O11 0.000000 0.000000 0.000000
#
# Coordination Sequence:
#
# PCOD9529197 Si02
#       6
#     8  16  16   8   8   8
#     4  12  24  42  70  98 132 178 226 285 346 405
#     4  12  25  44  67 100 135 174 227 282 340 410
#     4  11  25  42  66  95 132 178 221 280 345 411
#     4  12  25  42  65  96 134 178 226 278 343 418
#     4  11  22  43  68  97 133 174 226 283 339 410
#     4  11  24  43  67  97 130 172 228 282 344 417
#
# _framework density 21.362414999999999
#
# number of rings (size 3 to 8) (size 9 to 14) (size 15 to 20)
#    0.000    0.500    0.000   10.125    0.000    7.000 
#    0.000    0.000    0.000    0.000    0.000    0.000 
#    0.000    0.000    0.000    0.000    0.000    0.000 
#
# Total GULP energy -179269.942352 kJ/mol
# GULP energy per Si atom -5602.185698 kJ/mol
# Density = 2.131379 g / cm^3
# Si number density = 21.362415 Si / 1000 Ang^3
#
#
#
# Elastic Constant Matrix: (Units=GPa)
#
#
# Indices 1 2 3 4 5 6 
#
# 1 101.2081 37.5597 3.7393 0.0000 0.0000 0.0000
# 2 37.5597 118.5686 32.2786 0.0000 0.0000 0.0000
# 3 3.7393 32.2786 88.9769 0.0000 0.0000 0.0000
# 4 0.0000 0.0000 0.0000 13.8032 0.0000 0.0000
# 5 0.0000 0.0000 0.0000 0.0000 47.0111 0.0000
# 6 0.0000 0.0000 0.0000 0.0000 0.0000 49.9589
#
#
#
# Elastic Compliance Matrix: (Units=1/GPa)
#
#
# Indices 1 2 3 4 5 6 
#
# 1 0.011263 -0.003816 0.000911 0.000000 0.000000 0.000000
# 2 -0.003816 0.010651 -0.003704 0.000000 0.000000 0.000000
# 3 0.000911 -0.003704 0.012544 0.000000 0.000000 0.000000
# 4 0.000000 0.000000 0.000000 0.072447 0.000000 0.000000
# 5 0.000000 0.000000 0.000000 0.000000 0.021272 0.000000
# 6 0.000000 0.000000 0.000000 0.000000 0.000000 0.020016
#
#
# Mechanical properties :
#
#
# Convention : Reuss Voigt Hill
#
# Bulk Modulus (GPa) = 47.07812 50.65653 48.86733
# Shear Modulus (GPa) = 29.67529 37.83306 33.75417
#
# Velocity S-wave (km/s) = 3.73115 4.21290 3.97933
# Velocity P-wave (km/s) = 6.37555 6.88688 6.63614
#
# Compressibility (1/GPa) = 0.02124129
#
# Stress axis : x y z
#
# Youngs Moduli (GPa) = 88.78559 93.88846 79.71857
#
# Poissons Ratio (x) = 0.35827 -0.07262
# Poissons Ratio (y) = 0.33879 0.29524
# Poissons Ratio (z) = -0.08088 0.34772
#
# Static dielectric constant tensor:
#      x y z
#    x 1.753050 0.000000 0.000000 
#    y 0.000000 1.749130 0.000000 
#    z 0.000000 0.000000 1.682780 
# 
# From -- ./inp_files/28866.got.cif
#   From: 2010.05.17/outbox.cif.g08.bks.cpg/sg72_15_cif.got.tgz:28866.got - 2010.06.03 17:03:01.
