data_PCOD9529283
_publ_section_title
;
Structure prediction by ZEFSAII (Michael W. Deem and Ramdas Pophale) SiO2 
 PCOD9529283
Probable space group: I B A M
;
_chemical_formula_sum "Si O2"
_cell_formula_units_Z 116
_cell_length_a 20.088213
_cell_length_b 23.730871
_cell_length_c 13.590134
_cell_angle_alpha 90.000000
_cell_angle_beta 90.000000
_cell_angle_gamma 90.000000
_cell_volume 6478.563533
_symmetry_space_group_name_H-M "I B A M"
_symmetry_group_IT_number 72
_symmetry_cell_setting 'orthorhombic'
loop_
_space_group_symop_operation_xyz
x,y,z
-x,-y,z
x,-y,1/2-z
-x,y,1/2-z
-x,-y,-z
x,y,-z
-x,y,1/2+z
x,-y,1/2+z
1/2+x,1/2+y,1/2+z
1/2-x,1/2-y,1/2+z
1/2+x,1/2-y,-z
1/2-x,1/2+y,-z
1/2-x,1/2-y,1/2-z
1/2+x,1/2+y,1/2-z
1/2-x,1/2+y,z
1/2+x,1/2-y,z
loop_
_atom_site_type_symbol
_atom_site_label
_atom_site_fract_x
_atom_site_fract_y
_atom_site_fract_z
Si Si1 0.546487 0.789963 0.119655
Si Si2 0.726680 0.064563 0.277714
Si Si3 0.710076 0.845477 0.382625
Si Si4 0.186397 0.248282 0.381383
Si Si5 0.912330 0.582072 0.382555
Si Si6 0.900232 0.252768 0.380590
Si Si7 0.202224 0.841361 0.618749
Si Si8 0.000000 0.500000 0.250000
O O1 0.611437 0.755772 0.154940
O O2 0.561573 0.855166 0.143035
O O3 0.474943 0.766607 0.151446
O O4 0.546158 0.787096 0.000000
O O5 0.708072 0.097802 0.178236
O O6 0.663982 0.072679 0.350713
O O7 0.786592 0.099455 0.327933
O O8 0.739233 0.000000 0.250000
O O9 0.709485 0.854733 0.500000
O O10 0.775695 0.809047 0.356198
O O11 0.648377 0.804935 0.357078
O O12 0.184054 0.249228 0.500000
O O13 0.234238 0.300952 0.356138
O O14 0.919204 0.574813 0.500000
O O15 0.954990 0.538283 0.320227
O O16 0.901287 0.250887 0.500000
O O17 0.862743 0.194976 0.352704
O O18 0.202372 0.848313 0.500000
#
# Coordination Sequence:
#
# PCOD9529283 Si02
#       8
#    16  16  16  16  16  16  16   4
#     4   9  16  30  55  82 110 141 172 222 288 350
#     4  12  24  37  53  79 105 150 205 226 266 330
#     4   9  20  36  52  75 109 141 175 232 283 327
#     4   8  14  29  53  78 106 140 173 217 290 350
#     4  11  24  41  57  78 114 151 190 238 273 318
#     4   8  16  30  54  84 108 138 176 227 294 345
#     4   9  17  34  55  77 109 142 180 231 285 340
#     4  12  26  44  52  78 104 160 210 226 262 314
#
# _framework density 17.905203
#
# number of rings (size 3 to 8) (size 9 to 14) (size 15 to 20)
#    0.000    2.483    2.069    2.276    1.931    3.310 
#    0.000    0.000    0.000    0.000    0.000    1.931 
#    0.000    5.517    0.000    0.000    0.000    0.000 
#
# Total GULP energy -323933.367499 kJ/mol
# GULP energy per Si atom -5585.058060 kJ/mol
# Density = 1.786445 g / cm^3
# Si number density = 17.905203 Si / 1000 Ang^3
#
#
#
# Elastic Constant Matrix: (Units=GPa)
#
#
# Indices 1 2 3 4 5 6 
#
# 1 119.0846 63.1864 37.1444 0.0000 0.0000 0.0000
# 2 63.1864 124.5812 51.5275 0.0000 0.0000 0.0000
# 3 37.1444 51.5275 102.4628 0.0000 0.0000 0.0000
# 4 0.0000 0.0000 0.0000 30.6712 0.0000 0.0000
# 5 0.0000 0.0000 0.0000 0.0000 25.9573 0.0000
# 6 0.0000 0.0000 0.0000 0.0000 0.0000 12.8020
#
#
#
# Elastic Compliance Matrix: (Units=1/GPa)
#
#
# Indices 1 2 3 4 5 6 
#
# 1 0.011690 -0.005273 -0.001586 0.000000 0.000000 0.000000
# 2 -0.005273 0.012513 -0.004381 0.000000 0.000000 0.000000
# 3 -0.001586 -0.004381 0.012538 0.000000 0.000000 0.000000
# 4 0.000000 0.000000 0.000000 0.032604 0.000000 0.000000
# 5 0.000000 0.000000 0.000000 0.000000 0.038525 0.000000
# 6 0.000000 0.000000 0.000000 0.000000 0.000000 0.078113
#
#
# Mechanical properties :
#
#
# Convention : Reuss Voigt Hill
#
# Bulk Modulus (GPa) = 70.12356 72.20501 71.16429
# Shear Modulus (GPa) = 23.45026 26.83746 25.14386
#
# Velocity S-wave (km/s) = 3.62289 3.87572 3.75143
# Velocity P-wave (km/s) = 7.53321 7.77445 7.65478
#
# Compressibility (1/GPa) = 0.01426054
#
# Stress axis : x y z
#
# Youngs Moduli (GPa) = 85.54331 79.91384 79.75796
#
# Poissons Ratio (x) = 0.42139 0.12650
# Poissons Ratio (y) = 0.45107 0.34945
# Poissons Ratio (z) = 0.13568 0.35013
#
# Static dielectric constant tensor:
#      x y z
#    x 1.622160 0.000000 0.000000 
#    y 0.000000 1.579870 0.000000 
#    z 0.000000 0.000000 1.680690 
# 
# From -- ./inp_files/23540.got.cif
#   From: 2010.05.17/outbox.cif.g08.bks.cpg/sg72_12_cif.got.tgz:23540.got - 2010.06.03 17:03:01.
