data_PCOD9529941
_publ_section_title
;
Structure prediction by ZEFSAII (Michael W. Deem and Ramdas Pophale) SiO2 
 PCOD9529941
Probable space group: I B C A 
;
_chemical_formula_sum "Si O2"
_cell_formula_units_Z 96
_cell_length_a 12.289302
_cell_length_b 15.114013
_cell_length_c 23.022387
_cell_angle_alpha 90.000000
_cell_angle_beta 90.000000
_cell_angle_gamma 90.000000
_cell_volume 4276.193591
_symmetry_space_group_name_H-M "I B C A "
_symmetry_group_IT_number 73
_symmetry_cell_setting 'orthorhombic'
loop_
_space_group_symop_operation_xyz
x,y,z
-x,1/2-y,z
x,-y,1/2-z
1/2-x,y,-z
-x,-y,-z
x,1/2+y,-z
-x,y,1/2+z
1/2+x,-y,z
1/2+x,1/2+y,1/2+z
1/2-x,-y,1/2+z
1/2+x,1/2-y,-z
-x,1/2+y,1/2-z
1/2-x,1/2-y,1/2-z
1/2+x,y,1/2-z
1/2-x,1/2+y,z
x,1/2-y,1/2+z
loop_
_atom_site_type_symbol
_atom_site_label
_atom_site_fract_x
_atom_site_fract_y
_atom_site_fract_z
Si Si1 0.250000 0.482362 0.500000
Si Si2 0.469993 0.906655 0.357839
Si Si3 0.550863 0.445613 0.444906
Si Si4 0.249875 0.196589 0.839288
Si Si5 0.000000 0.250000 0.945727
Si Si6 0.097321 0.679019 0.736075
Si Si7 0.623449 0.183759 0.451513
O O1 0.322868 0.544147 0.540489
O O2 0.318403 0.411673 0.462201
O O3 0.345620 0.874712 0.349667
O O4 0.515253 0.834535 0.404544
O O5 0.538448 0.898097 0.299393
O O6 0.474637 0.000694 0.387286
O O7 0.500000 0.500000 0.500000
O O8 0.500009 0.349124 0.438797
O O9 0.186796 0.276082 0.806704
O O10 0.340893 0.159841 0.795397
O O11 0.310277 0.223892 0.898514
O O12 0.894560 0.269621 0.986171
O O13 0.000000 0.750000 0.745769
#
# Coordination Sequence:
#
# PCOD9529941 Si02
#       7
#     8  16  16  16   8  16  16
#     4  10  18  36  58  78 118 164 188 222 312 368
#     4  11  19  39  63  85 121 158 200 240 304 367
#     4  10  20  36  59  83 119 161 194 239 296 372
#     4  10  19  37  62  85 115 161 196 246 304 353
#     4  12  20  34  56  96 120 152 190 256 294 360
#     4   9  20  35  63  90 117 153 202 249 297 358
#     4  11  22  35  60  88 122 152 200 247 304 360
#
# _framework density 22.449871000000002
#
# number of rings (size 3 to 8) (size 9 to 14) (size 15 to 20)
#    0.000    1.667    7.500    0.000    1.167    0.000 
#    0.000    6.667    0.000    4.000    0.000    0.000 
#    0.000    0.000    0.000    0.000    0.000    0.000 
#
# Total GULP energy -267926.135832 kJ/mol
# GULP energy per Si atom -5581.794496 kJ/mol
# Density = 2.239877 g / cm^3
# Si number density = 22.449871 Si / 1000 Ang^3
#
#
#
# Elastic Constant Matrix: (Units=GPa)
#
#
# Indices 1 2 3 4 5 6 
#
# 1 101.3614 9.7239 60.0045 0.0000 0.0000 0.0000
# 2 9.7239 37.5575 11.5116 0.0000 0.0000 0.0000
# 3 60.0045 11.5116 107.9346 0.0000 0.0000 0.0000
# 4 0.0000 0.0000 0.0000 17.3223 0.0000 0.0000
# 5 0.0000 0.0000 0.0000 0.0000 46.8908 0.0000
# 6 0.0000 0.0000 0.0000 0.0000 0.0000 20.1415
#
#
#
# Elastic Compliance Matrix: (Units=1/GPa)
#
#
# Indices 1 2 3 4 5 6 
#
# 1 0.014771 -0.001352 -0.008068 0.000000 0.000000 0.000000
# 2 -0.001352 0.027649 -0.002197 0.000000 0.000000 0.000000
# 3 -0.008068 -0.002197 0.013984 0.000000 0.000000 0.000000
# 4 0.000000 0.000000 0.000000 0.057729 0.000000 0.000000
# 5 0.000000 0.000000 0.000000 0.000000 0.021326 0.000000
# 6 0.000000 0.000000 0.000000 0.000000 0.000000 0.049649
#
#
# Mechanical properties :
#
#
# Convention : Reuss Voigt Hill
#
# Bulk Modulus (GPa) = 30.14647 45.48150 37.81399
# Shear Modulus (GPa) = 22.78945 27.91182 25.35063
#
# Velocity S-wave (km/s) = 3.18956 3.52986 3.36402
# Velocity P-wave (km/s) = 5.19826 6.07588 5.65413
#
# Compressibility (1/GPa) = 0.03317137
#
# Stress axis : x y z
#
# Youngs Moduli (GPa) = 67.69870 36.16726 71.50843
#
# Poissons Ratio (x) = 0.04888 0.57691
# Poissons Ratio (y) = 0.09150 0.15714
# Poissons Ratio (z) = 0.54618 0.07948
#
# Static dielectric constant tensor:
#      x y z
#    x 1.956500 0.000000 0.000000 
#    y 0.000000 1.848350 0.000000 
#    z 0.000000 0.000000 1.830560 
# 
# From -- ./inp_files/28960.got.cif
#   From: 2010.05.17/outbox.cif.g08.bks.cpg/sg73_15_cif.got.tgz:28960.got - 2010.06.03 17:35:07.
