data_PCOD9529752
_publ_section_title
;
Structure prediction by ZEFSAII (Michael W. Deem and Ramdas Pophale) SiO2 
 PCOD9529752
Probable space group: I B C A 
;
_chemical_formula_sum "Si O2"
_cell_formula_units_Z 120
_cell_length_a 13.337096
_cell_length_b 17.899524
_cell_length_c 25.487713
_cell_angle_alpha 90.000000
_cell_angle_beta 90.000000
_cell_angle_gamma 90.000000
_cell_volume 6084.622337
_symmetry_space_group_name_H-M "I B C A "
_symmetry_group_IT_number 73
_symmetry_cell_setting 'orthorhombic'
loop_
_space_group_symop_operation_xyz
x,y,z
-x,1/2-y,z
x,-y,1/2-z
1/2-x,y,-z
-x,-y,-z
x,1/2+y,-z
-x,y,1/2+z
1/2+x,-y,z
1/2+x,1/2+y,1/2+z
1/2-x,-y,1/2+z
1/2+x,1/2-y,-z
-x,1/2+y,1/2-z
1/2-x,1/2-y,1/2-z
1/2+x,y,1/2-z
1/2-x,1/2+y,z
x,1/2-y,1/2+z
loop_
_atom_site_type_symbol
_atom_site_label
_atom_site_fract_x
_atom_site_fract_y
_atom_site_fract_z
Si Si1 0.937748 0.325284 0.911042
Si Si2 0.801434 0.662671 0.431278
Si Si3 0.597677 0.610072 0.300166
Si Si4 0.320052 0.120631 0.813247
Si Si5 0.612454 0.281225 0.298633
Si Si6 0.594825 0.694238 0.084177
Si Si7 0.549252 0.000000 0.250000
Si Si8 0.521032 0.086056 0.490608
O O1 0.818862 0.333978 0.925034
O O2 0.942407 0.343785 0.849548
O O3 0.000000 0.250000 0.919559
O O4 0.990555 0.380030 0.951671
O O5 0.844506 0.637369 0.374069
O O6 0.827917 0.749215 0.443274
O O7 0.866962 0.609932 0.469777
O O8 0.710035 0.585252 0.313062
O O9 0.611479 0.659788 0.248034
O O10 0.522567 0.543079 0.289952
O O11 0.322513 0.205636 0.790431
O O12 0.389107 0.063898 0.780964
O O13 0.500000 0.250000 0.300401
O O14 0.631941 0.318115 0.355937
O O15 0.500000 0.750000 0.087567
O O16 0.556870 0.624487 0.050401
O O17 0.500000 0.000000 0.500000
#
# Coordination Sequence:
#
# PCOD9529752 Si02
#       8
#    16  16  16  16  16  16   8  16
#     4  11  24  42  63  91 126 163 206 268 322 366
#     4   9  20  42  66  87 121 164 215 259 305 367
#     4  11  24  38  62  92 128 162 205 259 318 379
#     4  10  22  39  62  90 123 167 209 252 311 376
#     4  10  17  36  63  91 116 159 212 258 295 363
#     4   8  17  35  64  91 113 159 213 258 296 368
#     4  12  24  38  60  86 136 170 200 252 320 390
#     4  11  23  38  64  94 127 163 205 255 321 386
#
# _framework density 19.721848999999999
#
# number of rings (size 3 to 8) (size 9 to 14) (size 15 to 20)
#    0.000    1.867    1.333    3.600    1.867    0.000 
#    0.000    2.667    0.000    0.000    0.000    0.000 
#    0.000    0.000    0.000    0.000    0.000    0.000 
#
# Total GULP energy -334109.552982 kJ/mol
# GULP energy per Si atom -5568.492550 kJ/mol
# Density = 1.967696 g / cm^3
# Si number density = 19.721849 Si / 1000 Ang^3
#
#
#
# Elastic Constant Matrix: (Units=GPa)
#
#
# Indices 1 2 3 4 5 6 
#
# 1 57.5750 40.4838 19.1598 0.0000 0.0000 0.0000
# 2 40.4838 137.2303 72.3684 0.0000 0.0000 0.0000
# 3 19.1598 72.3684 100.3529 0.0000 0.0000 0.0000
# 4 0.0000 0.0000 0.0000 11.9485 0.0000 0.0000
# 5 0.0000 0.0000 0.0000 0.0000 19.9575 0.0000
# 6 0.0000 0.0000 0.0000 0.0000 0.0000 1.6146
#
#
#
# Elastic Compliance Matrix: (Units=1/GPa)
#
#
# Indices 1 2 3 4 5 6 
#
# 1 0.021952 -0.006883 0.000773 0.000000 0.000000 0.000000
# 2 -0.006883 0.013917 -0.008722 0.000000 0.000000 0.000000
# 3 0.000773 -0.008722 0.016107 0.000000 0.000000 0.000000
# 4 0.000000 0.000000 0.000000 0.083692 0.000000 0.000000
# 5 0.000000 0.000000 0.000000 0.000000 0.050107 0.000000
# 6 0.000000 0.000000 0.000000 0.000000 0.000000 0.619335
#
#
# Mechanical properties :
#
#
# Convention : Reuss Voigt Hill
#
# Bulk Modulus (GPa) = 44.82177 62.13135 53.47656
# Shear Modulus (GPa) = 5.93674 17.58053 11.75864
#
# Velocity S-wave (km/s) = 1.73689 2.98891 2.44442
# Velocity P-wave (km/s) = 5.17674 6.59421 5.92800
#
# Compressibility (1/GPa) = 0.02231059
#
# Stress axis : x y z
#
# Youngs Moduli (GPa) = 45.55494 71.85333 62.08435
#
# Poissons Ratio (x) = 0.49459 -0.04798
# Poissons Ratio (y) = 0.31357 0.54150
# Poissons Ratio (z) = -0.03520 0.62671
#
# Static dielectric constant tensor:
#      x y z
#    x 1.762680 0.000000 0.000000 
#    y 0.000000 1.671600 0.000000 
#    z 0.000000 0.000000 3.326320 
# 
# From -- ./inp_files/31826.got.cif
#   From: 2010.05.17/outbox.cif.g08.bks.cpg/sg73_16_cif.got.tgz:31826.got - 2010.06.03 17:35:07.
