data_PCOD9529156
_publ_section_title
;
Structure prediction by ZEFSAII (Michael W. Deem and Ramdas Pophale) SiO2 
 PCOD9529156
Probable space group: I B A M
;
_chemical_formula_sum "Si O2"
_cell_formula_units_Z 96
_cell_length_a 27.505582
_cell_length_b 9.682075
_cell_length_c 15.783125
_cell_angle_alpha 90.000000
_cell_angle_beta 90.000000
_cell_angle_gamma 90.000000
_cell_volume 4203.221504
_symmetry_space_group_name_H-M "I B A M"
_symmetry_group_IT_number 72
_symmetry_cell_setting 'orthorhombic'
loop_
_space_group_symop_operation_xyz
x,y,z
-x,-y,z
x,-y,1/2-z
-x,y,1/2-z
-x,-y,-z
x,y,-z
-x,y,1/2+z
x,-y,1/2+z
1/2+x,1/2+y,1/2+z
1/2-x,1/2-y,1/2+z
1/2+x,1/2-y,-z
1/2-x,1/2+y,-z
1/2-x,1/2-y,1/2-z
1/2+x,1/2+y,1/2-z
1/2-x,1/2+y,z
1/2+x,1/2-y,z
loop_
_atom_site_type_symbol
_atom_site_label
_atom_site_fract_x
_atom_site_fract_y
_atom_site_fract_z
Si Si1 0.870575 0.981299 0.095454
Si Si2 0.544518 0.692440 0.130479
Si Si3 0.441404 0.721331 0.170649
Si Si4 0.081797 0.504268 0.098317
Si Si5 0.278114 0.654416 0.603936
Si Si6 0.693367 0.959076 0.896760
O O1 0.915032 0.090820 0.093981
O O2 0.823668 0.059641 0.131239
O O3 0.891457 0.848827 0.142562
O O4 0.858232 0.938500 0.000000
O O5 0.487472 0.662765 0.117872
O O6 0.551581 0.687562 0.231581
O O7 0.555705 0.848481 0.102485
O O8 0.441022 0.884442 0.154684
O O9 0.137356 0.525624 0.127262
O O10 0.081378 0.457159 0.000000
O O11 0.279225 0.656023 0.500000
O O12 0.228198 0.582935 0.630972
O O13 0.285825 0.811373 0.631719
O O14 0.693873 0.957649 0.000000
#
# Coordination Sequence:
#
# PCOD9529156 Si02
#       6
#    16  16  16  16  16  16
#     4  11  22  38  62  92 120 150 198 254 296 338
#     4  11  23  43  60  81 120 166 201 235 296 365
#     4  11  25  39  60  87 118 162 203 237 294 365
#     4  11  22  38  62  92 120 150 198 254 296 338
#     4   9  18  33  56  86 119 153 190 238 296 354
#     4   9  18  33  56  86 119 153 190 238 296 354
#
# _framework density 22.839625000000002
#
# number of rings (size 3 to 8) (size 9 to 14) (size 15 to 20)
#    0.000    1.667    1.667    3.000    2.333    6.667 
#    0.000    0.000    0.000    6.000    0.000    0.000 
#    0.000    0.000    0.000    0.000    0.000    0.000 
#
# Total GULP energy -268500.411395 kJ/mol
# GULP energy per Si atom -5593.758571 kJ/mol
# Density = 2.278764 g / cm^3
# Si number density = 22.839625 Si / 1000 Ang^3
#
#
#
# Elastic Constant Matrix: (Units=GPa)
#
#
# Indices 1 2 3 4 5 6 
#
# 1 87.8794 1.2596 -1.8454 0.0000 0.0000 0.0000
# 2 1.2596 45.0439 -8.3809 0.0000 0.0000 0.0000
# 3 -1.8454 -8.3809 28.8015 0.0000 0.0000 0.0000
# 4 0.0000 0.0000 0.0000 88.4869 0.0000 0.0000
# 5 0.0000 0.0000 0.0000 0.0000 17.6278 0.0000
# 6 0.0000 0.0000 0.0000 0.0000 0.0000 35.8132
#
#
#
# Elastic Compliance Matrix: (Units=1/GPa)
#
#
# Indices 1 2 3 4 5 6 
#
# 1 0.011396 -0.000193 0.000674 0.000000 0.000000 0.000000
# 2 -0.000193 0.023475 0.006818 0.000000 0.000000 0.000000
# 3 0.000674 0.006818 0.036748 0.000000 0.000000 0.000000
# 4 0.000000 0.000000 0.000000 0.011301 0.000000 0.000000
# 5 0.000000 0.000000 0.000000 0.000000 0.056728 0.000000
# 6 0.000000 0.000000 0.000000 0.000000 0.000000 0.027923
#
#
# Mechanical properties :
#
#
# Convention : Reuss Voigt Hill
#
# Bulk Modulus (GPa) = 11.59870 15.97683 13.78777
# Shear Modulus (GPa) = 27.51618 39.76502 33.64060
#
# Velocity S-wave (km/s) = 3.47473 4.17712 3.84201
# Velocity P-wave (km/s) = 4.60300 5.50226 5.07260
#
# Compressibility (1/GPa) = 0.08621656
#
# Stress axis : x y z
#
# Youngs Moduli (GPa) = 87.74890 42.59921 27.21264
#
# Poissons Ratio (x) = 0.00823 -0.01834
# Poissons Ratio (y) = 0.01696 -0.18555
# Poissons Ratio (z) = -0.05914 -0.29046
#
# Static dielectric constant tensor:
#      x y z
#    x 1.835230 0.000000 0.000000 
#    y 0.000000 1.814310 0.000000 
#    z 0.000000 0.000000 1.880210 
# 
# From -- ./inp_files/40682.got.cif
#   From: 2010.05.17/outbox.cif.g08.bks.cpg/sg72_21_cif.got.tgz:40682.got - 2010.06.03 17:03:01.
