data_PCOD9529496
_publ_section_title
;
Structure prediction by ZEFSAII (Michael W. Deem and Ramdas Pophale) SiO2 
 PCOD9529496
Probable space group: I B A M
;
_chemical_formula_sum "Si O2"
_cell_formula_units_Z 60
_cell_length_a 21.000000
_cell_length_b 21.000000
_cell_length_c 15.000000
_cell_angle_alpha 90.000000
_cell_angle_beta 90.000000
_cell_angle_gamma 90.000000
_cell_volume 6615.000000
_symmetry_space_group_name_H-M "I B A M"
_symmetry_group_IT_number 72
_symmetry_cell_setting 'orthorhombic'
loop_
_space_group_symop_operation_xyz
x,y,z
-x,-y,z
x,-y,1/2-z
-x,y,1/2-z
-x,-y,-z
x,y,-z
-x,y,1/2+z
x,-y,1/2+z
1/2+x,1/2+y,1/2+z
1/2-x,1/2-y,1/2+z
1/2+x,1/2-y,-z
1/2-x,1/2+y,-z
1/2-x,1/2-y,1/2-z
1/2+x,1/2+y,1/2-z
1/2-x,1/2+y,z
1/2+x,1/2-y,z
loop_
_atom_site_type_symbol
_atom_site_label
_atom_site_fract_x
_atom_site_fract_y
_atom_site_fract_z
Si Si1 0.777571 0.432321 0.763969
Si Si2 0.500000 0.256724 0.750000
Si Si3 0.107494 0.742657 0.393937
Si Si4 0.129696 0.374112 0.598345
Si Si5 0.801926 0.806832 0.755190
Si Si6 0.995974 0.575713 0.147114
Si Si7 0.606875 0.274390 0.608735
Si Si8 0.854593 0.395685 0.405375
O O1 0.744752 0.500000 0.750000
O O2 0.829892 0.420991 0.840596
O O3 0.731316 0.373318 0.773370
O O4 0.819040 0.426289 0.675198
O O5 0.549491 0.226903 0.823893
O O6 0.546613 0.288510 0.674598
O O7 0.090497 0.757115 0.500000
O O8 0.148800 0.792652 0.336359
O O9 0.151245 0.680189 0.399602
O O10 0.157349 0.375506 0.500000
O O11 0.125042 0.300103 0.626019
O O12 0.056939 0.396306 0.599109
O O13 0.750000 0.750000 0.750000
O O14 0.836230 0.810758 0.658550
O O15 0.929716 0.593216 0.103252
O O16 0.000000 0.500000 0.146708
O O17 0.000000 0.597335 0.250000
O O18 0.599039 0.282532 0.500000
O O19 0.831407 0.419920 0.500000
#
# Coordination Sequence:
#
# PCOD9529496 Si02
#       8
#    16   8  16  16  16  16  16  16
#     4  12  24  39  56  79 109 143 189 242 282 327
#     4  10  18  32  54  88 124 140 174 224 292 332
#     4  10  21  35  58  86 113 146 187 234 277 329
#     4  11  22  35  53  76 106 149 195 236 275 316
#     4  11  21  39  59  79 109 152 192 231 283 332
#     4  11  22  33  47  69 106 152 190 226 267 312
#     4  10  21  35  58  86 113 146 187 234 277 329
#     4  11  22  35  53  76 106 149 195 236 275 316
#
# _framework density 9.0702949999999998
#
# number of rings (size 3 to 8) (size 9 to 14) (size 15 to 20)
#    0.000    1.200    4.000    3.200    1.867    6.400 
#    0.000    0.000    0.000    0.000    0.000    7.467 
#    0.000    8.533    0.000    0.000    0.000    0.000 
#
# Total GULP energy -334044.470045 kJ/mol
# GULP energy per Si atom -5567.407834 kJ/mol
# Density = 0.904965 g / cm^3
# Si number density = 9.070295 Si / 1000 Ang^3
#
#
#
# Elastic Constant Matrix: (Units=GPa)
#
#
# Indices 1 2 3 4 5 6 
#
# 1 35.8381 21.5714 22.0599 0.0000 0.0000 0.0000
# 2 21.5714 71.5316 13.2966 0.0000 0.0000 0.0000
# 3 22.0599 13.2966 115.3972 0.0000 0.0000 0.0000
# 4 0.0000 0.0000 0.0000 16.3865 0.0000 0.0000
# 5 0.0000 0.0000 0.0000 0.0000 15.3050 0.0000
# 6 0.0000 0.0000 0.0000 0.0000 0.0000 5.9229
#
#
#
# Elastic Compliance Matrix: (Units=1/GPa)
#
#
# Indices 1 2 3 4 5 6 
#
# 1 0.037810 -0.010279 -0.006044 0.000000 0.000000 0.000000
# 2 -0.010279 0.017080 -0.000003 0.000000 0.000000 0.000000
# 3 -0.006044 -0.000003 0.009821 0.000000 0.000000 0.000000
# 4 0.000000 0.000000 0.000000 0.061026 0.000000 0.000000
# 5 0.000000 0.000000 0.000000 0.000000 0.065338 0.000000
# 6 0.000000 0.000000 0.000000 0.000000 0.000000 0.168835
#
#
# Mechanical properties :
#
#
# Convention : Reuss Voigt Hill
#
# Bulk Modulus (GPa) = 31.19077 37.40252 34.29664
# Shear Modulus (GPa) = 12.39929 18.57883 15.48906
#
# Velocity S-wave (km/s) = 2.61724 3.20372 2.92521
# Velocity P-wave (km/s) = 5.13464 5.86072 5.50965
#
# Compressibility (1/GPa) = 0.03206076
#
# Stress axis : x y z
#
# Youngs Moduli (GPa) = 26.44774 58.54749 101.81843
#
# Poissons Ratio (x) = 0.60180 0.61535
# Poissons Ratio (y) = 0.27185 0.00031
# Poissons Ratio (z) = 0.15984 0.00018
#
# Static dielectric constant tensor:
#      x y z
#    x 1.743690 0.000000 0.000000 
#    y 0.000000 1.618050 0.000000 
#    z 0.000000 0.000000 1.680800 
# 
# From -- ./inp_files/24514.got.cif
#   From: 2010.05.17/outbox.ucp.g08.bks.cvg/sg72_13_cif.got.tgz:24514.got - 2010.06.11 16:33:07.
