data_PCOD9529987
_publ_section_title
;
Structure prediction by ZEFSAII (Michael W. Deem and Ramdas Pophale) SiO2 
 PCOD9529987
Probable space group: I B C A 
;
_chemical_formula_sum "Si O2"
_cell_formula_units_Z 120
_cell_length_a 7.694391
_cell_length_b 23.961449
_cell_length_c 31.755637
_cell_angle_alpha 90.000000
_cell_angle_beta 90.000000
_cell_angle_gamma 90.000000
_cell_volume 5854.747338
_symmetry_space_group_name_H-M "I B C A "
_symmetry_group_IT_number 73
_symmetry_cell_setting 'orthorhombic'
loop_
_space_group_symop_operation_xyz
x,y,z
-x,1/2-y,z
x,-y,1/2-z
1/2-x,y,-z
-x,-y,-z
x,1/2+y,-z
-x,y,1/2+z
1/2+x,-y,z
1/2+x,1/2+y,1/2+z
1/2-x,-y,1/2+z
1/2+x,1/2-y,-z
-x,1/2+y,1/2-z
1/2-x,1/2-y,1/2-z
1/2+x,y,1/2-z
1/2-x,1/2+y,z
x,1/2-y,1/2+z
loop_
_atom_site_type_symbol
_atom_site_label
_atom_site_fract_x
_atom_site_fract_y
_atom_site_fract_z
Si Si1 0.750000 0.913479 0.500000
Si Si2 0.664233 0.676839 0.069788
Si Si3 0.546775 0.560118 0.699937
Si Si4 0.575676 0.485187 0.572358
Si Si5 0.454652 0.929279 0.294332
Si Si6 0.754610 0.418020 0.949123
Si Si7 0.765413 0.094788 0.858768
Si Si8 0.233527 0.703550 0.949398
O O1 0.825646 0.868686 0.467213
O O2 0.640432 0.955115 0.470760
O O3 0.728600 0.646963 0.111480
O O4 0.462315 0.693772 0.067264
O O5 0.777256 0.733222 0.063120
O O6 0.520841 0.493326 0.701795
O O7 0.750837 0.572998 0.694201
O O8 0.484113 0.583997 0.745133
O O9 0.413804 0.580645 0.664732
O O10 0.579245 0.552207 0.567474
O O11 0.379991 0.463296 0.571614
O O12 0.667307 0.456290 0.612055
O O13 0.581674 0.895449 0.324864
O O14 0.816014 0.356111 0.936364
O O15 0.750000 0.419006 0.000000
O O16 0.250000 0.704024 0.000000
#
# Coordination Sequence:
#
# PCOD9529987 Si02
#       8
#     8  16  16  16  16  16  16  16
#     4  10  18  38  52  78 126 170 202 266 324 376
#     4  10  22  39  62  90 127 172 228 288 331 377
#     4  11  20  38  65  92 141 183 227 267 341 423
#     4  11  25  35  56  88 132 169 210 267 333 396
#     4  11  20  37  63  96 135 191 220 273 340 424
#     4  11  23  38  59  87 124 176 225 264 324 396
#     4  11  25  38  59  99 140 175 222 283 339 400
#     4  10  21  40  66  88 117 178 238 278 328 390
#
# _framework density 20.496188
#
# number of rings (size 3 to 8) (size 9 to 14) (size 15 to 20)
#    0.000    1.333    4.000    2.800    5.600    1.067 
#    0.000    0.000    0.000    0.000    0.000    3.733 
#    0.000    0.400    0.000    0.000    0.000    0.000 
#
# Total GULP energy -334858.842112 kJ/mol
# GULP energy per Si atom -5580.980702 kJ/mol
# Density = 2.044954 g / cm^3
# Si number density = 20.496188 Si / 1000 Ang^3
#
#
#
# Elastic Constant Matrix: (Units=GPa)
#
#
# Indices 1 2 3 4 5 6 
#
# 1 95.7792 12.5177 43.3339 0.0000 0.0000 0.0000
# 2 12.5177 111.8985 47.6055 0.0000 0.0000 0.0000
# 3 43.3339 47.6055 115.6954 0.0000 0.0000 0.0000
# 4 0.0000 0.0000 0.0000 27.3618 0.0000 0.0000
# 5 0.0000 0.0000 0.0000 0.0000 19.9277 0.0000
# 6 0.0000 0.0000 0.0000 0.0000 0.0000 21.2597
#
#
#
# Elastic Compliance Matrix: (Units=1/GPa)
#
#
# Indices 1 2 3 4 5 6 
#
# 1 0.012619 0.000726 -0.005025 0.000000 0.000000 0.000000
# 2 0.000726 0.010875 -0.004747 0.000000 0.000000 0.000000
# 3 -0.005025 -0.004747 0.012479 0.000000 0.000000 0.000000
# 4 0.000000 0.000000 0.000000 0.036547 0.000000 0.000000
# 5 0.000000 0.000000 0.000000 0.000000 0.050181 0.000000
# 6 0.000000 0.000000 0.000000 0.000000 0.000000 0.047037
#
#
# Mechanical properties :
#
#
# Convention : Reuss Voigt Hill
#
# Bulk Modulus (GPa) = 55.92431 58.92082 57.42256
# Shear Modulus (GPa) = 25.80093 28.37091 27.08592
#
# Velocity S-wave (km/s) = 3.55183 3.72453 3.63920
# Velocity P-wave (km/s) = 6.64568 6.87792 6.76280
#
# Compressibility (1/GPa) = 0.01788131
#
# Stress axis : x y z
#
# Youngs Moduli (GPa) = 79.24269 91.95528 80.13559
#
# Poissons Ratio (x) = -0.06679 0.40272
# Poissons Ratio (y) = -0.05756 0.38038
# Poissons Ratio (z) = 0.39823 0.43649
#
# Static dielectric constant tensor:
#      x y z
#    x 1.993840 0.000000 0.000000 
#    y 0.000000 7.535940 0.000000 
#    z 0.000000 0.000000 1.681470 
# 
# From -- ./inp_files/33654.got.cif
#   From: 2010.05.17/outbox.cif.g08.bks.cpg/sg73_17_cif.got.tgz:33654.got - 2010.06.03 17:35:07.
