data_PCOD9529416
_publ_section_title
;
Structure prediction by ZEFSAII (Michael W. Deem and Ramdas Pophale) SiO2 
 PCOD9529416
Probable space group: I B A M
;
_chemical_formula_sum "Si O2"
_cell_formula_units_Z 92
_cell_length_a 23.041198
_cell_length_b 9.260515
_cell_length_c 20.660532
_cell_angle_alpha 90.000000
_cell_angle_beta 90.000000
_cell_angle_gamma 90.000000
_cell_volume 4408.407126
_symmetry_space_group_name_H-M "I B A M"
_symmetry_group_IT_number 72
_symmetry_cell_setting 'orthorhombic'
loop_
_space_group_symop_operation_xyz
x,y,z
-x,-y,z
x,-y,1/2-z
-x,y,1/2-z
-x,-y,-z
x,y,-z
-x,y,1/2+z
x,-y,1/2+z
1/2+x,1/2+y,1/2+z
1/2-x,1/2-y,1/2+z
1/2+x,1/2-y,-z
1/2-x,1/2+y,-z
1/2-x,1/2-y,1/2-z
1/2+x,1/2+y,1/2-z
1/2-x,1/2+y,z
1/2+x,1/2-y,z
loop_
_atom_site_type_symbol
_atom_site_label
_atom_site_fract_x
_atom_site_fract_y
_atom_site_fract_z
Si Si1 0.568034 0.972316 0.617058
Si Si2 0.158938 0.435694 0.000000
Si Si3 0.263579 0.364371 0.500000
Si Si4 0.000000 0.000000 0.750000
Si Si5 0.311483 0.484705 0.871460
Si Si6 0.272452 0.000000 0.250000
Si Si7 0.858669 0.718576 0.321695
Si Si8 0.592935 0.683202 0.307358
O O1 0.614302 0.935029 0.560362
O O2 0.577845 0.841547 0.667271
O O3 0.500000 0.000000 0.599510
O O4 0.592398 0.114884 0.651128
O O5 0.195548 0.586227 0.000000
O O6 0.204929 0.296836 0.000000
O O7 0.284650 0.446502 0.564794
O O8 0.965611 0.901428 0.799789
O O9 0.266916 0.461472 0.811657
O O10 0.335187 0.322077 0.878117
O O11 0.360370 0.598856 0.850016
O O12 0.311963 0.124667 0.218678
O O13 0.883708 0.818941 0.265809
#
# Coordination Sequence:
#
# PCOD9529416 Si02
#       8
#    16   8   8   4  16   8  16  16
#     4  12  27  48  75 102 150 192 253 307 367 447
#     4  12  29  54  71 108 140 207 242 304 384 445
#     4  12  30  48  79 104 156 190 253 306 369 456
#     4  12  22  40  74 102 148 190 238 314 374 416
#     4  12  26  44  70 108 148 197 241 307 370 446
#     4  12  23  40  75 103 152 193 240 308 370 446
#     4  12  24  43  72 111 141 189 246 296 375 437
#     4  12  23  44  68 108 142 187 245 301 375 435
#
# _framework density 20.869216000000002
#
# number of rings (size 3 to 8) (size 9 to 14) (size 15 to 20)
#    0.000    0.000    6.957    2.870    4.870    0.696 
#    0.000    0.000    0.000    2.087    0.000    0.000 
#    0.000    0.000    0.000    0.000    0.000    0.000 
#
# Total GULP energy -256765.785564 kJ/mol
# GULP energy per Si atom -5581.864904 kJ/mol
# Density = 2.082172 g / cm^3
# Si number density = 20.869216 Si / 1000 Ang^3
#
#
#
# Elastic Constant Matrix: (Units=GPa)
#
#
# Indices 1 2 3 4 5 6 
#
# 1 104.5939 36.7213 23.1680 0.0000 0.0000 0.0000
# 2 36.7213 92.9448 10.6695 0.0000 0.0000 0.0000
# 3 23.1680 10.6695 78.4472 0.0000 0.0000 0.0000
# 4 0.0000 0.0000 0.0000 54.7290 0.0000 0.0000
# 5 0.0000 0.0000 0.0000 0.0000 23.2910 0.0000
# 6 0.0000 0.0000 0.0000 0.0000 0.0000 38.8959
#
#
#
# Elastic Compliance Matrix: (Units=1/GPa)
#
#
# Indices 1 2 3 4 5 6 
#
# 1 0.011705 -0.004295 -0.002873 0.000000 0.000000 0.000000
# 2 -0.004295 0.012506 -0.000432 0.000000 0.000000 0.000000
# 3 -0.002873 -0.000432 0.013655 0.000000 0.000000 0.000000
# 4 0.000000 0.000000 0.000000 0.018272 0.000000 0.000000
# 5 0.000000 0.000000 0.000000 0.000000 0.042935 0.000000
# 6 0.000000 0.000000 0.000000 0.000000 0.000000 0.025710
#
#
# Mechanical properties :
#
#
# Convention : Reuss Voigt Hill
#
# Bulk Modulus (GPa) = 44.12041 46.34484 45.23263
# Shear Modulus (GPa) = 33.88993 37.07833 35.48413
#
# Velocity S-wave (km/s) = 4.03416 4.21966 4.12795
# Velocity P-wave (km/s) = 6.54878 6.78205 6.66644
#
# Compressibility (1/GPa) = 0.02266525
#
# Stress axis : x y z
#
# Youngs Moduli (GPa) = 85.43429 79.96480 73.23507
#
# Poissons Ratio (x) = 0.34342 0.21038
# Poissons Ratio (y) = 0.36691 0.03167
# Poissons Ratio (z) = 0.24543 0.03458
#
# Static dielectric constant tensor:
#      x y z
#    x 2.651520 0.000000 0.000000 
#    y 0.000000 1.818460 0.000000 
#    z 0.000000 0.000000 1.746820 
# 
# From -- ./inp_files/40216.got.cif
#   From: 2010.05.17/outbox.cif.g08.bks.cpg/sg72_21_cif.got.tgz:40216.got - 2010.06.03 17:03:01.
