data_PCOD9529070
_publ_section_title
;
Structure prediction by ZEFSAII (Michael W. Deem and Ramdas Pophale) SiO2 
 PCOD9529070
Probable space group: I B A M
;
_chemical_formula_sum "Si O2"
_cell_formula_units_Z 96
_cell_length_a 24.345342
_cell_length_b 22.241161
_cell_length_c 9.742684
_cell_angle_alpha 90.000000
_cell_angle_beta 90.000000
_cell_angle_gamma 90.000000
_cell_volume 5275.358158
_symmetry_space_group_name_H-M "I B A M"
_symmetry_group_IT_number 72
_symmetry_cell_setting 'orthorhombic'
loop_
_space_group_symop_operation_xyz
x,y,z
-x,-y,z
x,-y,1/2-z
-x,y,1/2-z
-x,-y,-z
x,y,-z
-x,y,1/2+z
x,-y,1/2+z
1/2+x,1/2+y,1/2+z
1/2-x,1/2-y,1/2+z
1/2+x,1/2-y,-z
1/2-x,1/2+y,-z
1/2-x,1/2-y,1/2-z
1/2+x,1/2+y,1/2-z
1/2-x,1/2+y,z
1/2+x,1/2-y,z
loop_
_atom_site_type_symbol
_atom_site_label
_atom_site_fract_x
_atom_site_fract_y
_atom_site_fract_z
Si Si1 0.247809 0.152101 0.228416
Si Si2 0.940277 0.383119 0.224730
Si Si3 0.261581 0.948693 0.500000
Si Si4 0.662618 0.756241 0.336505
Si Si5 0.946883 0.752947 0.340611
Si Si6 0.250648 0.414142 0.000000
Si Si7 0.610549 0.965736 0.000000
Si Si8 0.882494 0.398698 0.500000
O O1 0.253145 0.095402 0.128233
O O2 0.304119 0.189054 0.261461
O O3 0.205190 0.200613 0.171276
O O4 0.228661 0.122265 0.369448
O O5 0.950414 0.319656 0.151852
O O6 0.907776 0.429300 0.132391
O O7 0.907234 0.369871 0.363571
O O8 0.000000 0.409965 0.250000
O O9 0.324660 0.966275 0.500000
O O10 0.234020 0.014959 0.500000
O O11 0.652800 0.768502 0.500000
O O12 0.608721 0.738124 0.248872
O O13 0.945530 0.775030 0.500000
O O14 0.000000 0.772901 0.250000
O O15 0.183477 0.405894 0.000000
O O16 0.591884 0.034090 0.000000
#
# Coordination Sequence:
#
# PCOD9529070 Si02
#       8
#    16  16   8  16  16   8   8   8
#     4  11  23  37  58  88 117 155 201 241 302 344
#     4  11  23  35  50  70  99 139 189 238 291 336
#     4  11  22  38  57  79 114 152 198 244 292 356
#     4  11  23  39  61  86 122 154 193 247 292 353
#     4  11  24  39  61  84 111 147 185 229 287 351
#     4  11  22  38  57  81 112 154 194 246 290 360
#     4  11  21  36  50  70  95 140 192 242 288 332
#     4  11  23  34  50  70  99 140 190 242 290 328
#
# _framework density 18.197817000000001
#
# number of rings (size 3 to 8) (size 9 to 14) (size 15 to 20)
#    0.000    1.000    2.500    5.000    7.000    4.667 
#    0.000    0.000    0.000    0.000    0.000    0.000 
#    0.000    4.000    0.000    0.000    0.000    0.000 
#
# Total GULP energy -267924.184110 kJ/mol
# GULP energy per Si atom -5581.753836 kJ/mol
# Density = 1.815640 g / cm^3
# Si number density = 18.197817 Si / 1000 Ang^3
#
#
#
# Elastic Constant Matrix: (Units=GPa)
#
#
# Indices 1 2 3 4 5 6 
#
# 1 77.1593 6.5228 33.5785 0.0000 0.0000 0.0000
# 2 6.5228 54.5231 14.0364 0.0000 0.0000 0.0000
# 3 33.5785 14.0364 143.7153 0.0000 0.0000 0.0000
# 4 0.0000 0.0000 0.0000 78.9128 0.0000 0.0000
# 5 0.0000 0.0000 0.0000 0.0000 32.4829 0.0000
# 6 0.0000 0.0000 0.0000 0.0000 0.0000 11.5287
#
#
#
# Elastic Compliance Matrix: (Units=1/GPa)
#
#
# Indices 1 2 3 4 5 6 
#
# 1 0.014468 -0.000883 -0.003294 0.000000 0.000000 0.000000
# 2 -0.000883 0.018868 -0.001637 0.000000 0.000000 0.000000
# 3 -0.003294 -0.001637 0.007888 0.000000 0.000000 0.000000
# 4 0.000000 0.000000 0.000000 0.012672 0.000000 0.000000
# 5 0.000000 0.000000 0.000000 0.000000 0.030785 0.000000
# 6 0.000000 0.000000 0.000000 0.000000 0.000000 0.086740
#
#
# Mechanical properties :
#
#
# Convention : Reuss Voigt Hill
#
# Bulk Modulus (GPa) = 33.78753 42.63035 38.20894
# Shear Modulus (GPa) = 25.91822 39.33556 32.62689
#
# Velocity S-wave (km/s) = 3.77802 4.65430 4.23886
# Velocity P-wave (km/s) = 6.13501 7.23604 6.70815
#
# Compressibility (1/GPa) = 0.02959672
#
# Stress axis : x y z
#
# Youngs Moduli (GPa) = 69.11594 53.00042 126.77917
#
# Poissons Ratio (x) = 0.04679 0.41765
# Poissons Ratio (y) = 0.06102 0.20748
# Poissons Ratio (z) = 0.22769 0.08674
#
# Static dielectric constant tensor:
#      x y z
#    x 1.635280 0.000000 0.000000 
#    y 0.000000 1.621480 0.000000 
#    z 0.000000 0.000000 1.709720 
# 
# From -- ./inp_files/7023.got.cif
#   From: 2010.05.17/outbox.cif.g08.bks.cpg/sg72_4_cif.got.tgz:7023.got - 2010.06.03 17:03:01.
