data_PCOD9529253
_publ_section_title
;
Structure prediction by ZEFSAII (Michael W. Deem and Ramdas Pophale) SiO2 
 PCOD9529253
Probable space group: I B A M
;
_chemical_formula_sum "Si O2"
_cell_formula_units_Z 68
_cell_length_a 9.340771
_cell_length_b 21.887986
_cell_length_c 15.050343
_cell_angle_alpha 90.000000
_cell_angle_beta 90.000000
_cell_angle_gamma 90.000000
_cell_volume 3077.052633
_symmetry_space_group_name_H-M "I B A M"
_symmetry_group_IT_number 72
_symmetry_cell_setting 'orthorhombic'
loop_
_space_group_symop_operation_xyz
x,y,z
-x,-y,z
x,-y,1/2-z
-x,y,1/2-z
-x,-y,-z
x,y,-z
-x,y,1/2+z
x,-y,1/2+z
1/2+x,1/2+y,1/2+z
1/2-x,1/2-y,1/2+z
1/2+x,1/2-y,-z
1/2-x,1/2+y,-z
1/2-x,1/2-y,1/2-z
1/2+x,1/2+y,1/2-z
1/2-x,1/2+y,z
1/2+x,1/2-y,z
loop_
_atom_site_type_symbol
_atom_site_label
_atom_site_fract_x
_atom_site_fract_y
_atom_site_fract_z
Si Si1 0.842479 0.078618 0.599341
Si Si2 0.485301 0.306511 0.851107
Si Si3 0.000000 0.000000 0.750000
Si Si4 0.847301 0.684594 0.894167
Si Si5 0.511447 0.068719 0.393906
O O1 0.853970 0.049136 0.500000
O O2 0.928753 0.141855 0.596359
O O3 0.674667 0.090430 0.614994
O O4 0.904018 0.039087 0.680818
O O5 0.500000 0.326072 0.750000
O O6 0.319150 0.305139 0.875559
O O7 0.558492 0.240733 0.860154
O O8 0.903712 0.619719 0.857200
O O9 0.867500 0.683751 0.000000
O O10 0.480369 0.064205 0.500000
O O11 0.500000 0.000000 0.357828
#
# Coordination Sequence:
#
# PCOD9529253 Si02
#       5
#    16  16   4  16  16
#     4  11  24  45  71  99 140 183 230 288 343 412
#     4  12  25  44  67 101 139 179 233 291 348 416
#     4  12  26  44  66 106 140 180 238 276 348 418
#     4  11  23  42  70 100 134 182 234 285 350 418
#     4   9  21  41  68 100 134 180 234 282 339 409
#
# _framework density 22.099070000000001
#
# number of rings (size 3 to 8) (size 9 to 14) (size 15 to 20)
#    0.000    1.176    1.176    4.588    3.294    1.882 
#    0.000    2.941    0.000    0.000    0.000    0.000 
#    0.000    0.000    0.000    0.000    0.000    0.000 
#
# Total GULP energy -190131.801526 kJ/mol
# GULP energy per Si atom -5592.111810 kJ/mol
# Density = 2.204877 g / cm^3
# Si number density = 22.099070 Si / 1000 Ang^3
#
#
#
# Elastic Constant Matrix: (Units=GPa)
#
#
# Indices 1 2 3 4 5 6 
#
# 1 133.1412 76.4197 -9.8263 0.0000 0.0000 0.0000
# 2 76.4197 135.9691 3.1347 0.0000 0.0000 0.0000
# 3 -9.8263 3.1347 93.2861 -0.0001 0.0000 0.0000
# 4 0.0000 0.0000 -0.0001 33.6640 0.0000 0.0000
# 5 0.0000 0.0000 0.0000 0.0000 64.8884 0.0000
# 6 0.0000 0.0000 0.0000 0.0000 0.0000 38.6595
#
#
#
# Elastic Compliance Matrix: (Units=1/GPa)
#
#
# Indices 1 2 3 4 5 6 
#
# 1 0.011268 -0.006365 0.001401 0.000000 0.000000 0.000000
# 2 -0.006365 0.010956 -0.001039 0.000000 0.000000 0.000000
# 3 0.001401 -0.001039 0.010902 0.000000 0.000000 0.000000
# 4 0.000000 0.000000 0.000000 0.029705 0.000000 0.000000
# 5 0.000000 0.000000 0.000000 0.000000 0.015411 0.000000
# 6 0.000000 0.000000 0.000000 0.000000 0.000000 0.025867
#
#
# Mechanical properties :
#
#
# Convention : Reuss Voigt Hill
#
# Bulk Modulus (GPa) = 47.34890 55.76139 51.55514
# Shear Modulus (GPa) = 40.59927 46.95360 43.77643
#
# Velocity S-wave (km/s) = 4.29085 4.61443 4.45558
# Velocity P-wave (km/s) = 6.78386 7.32652 7.06040
#
# Compressibility (1/GPa) = 0.02111982
#
# Stress axis : x y z
#
# Youngs Moduli (GPa) = 88.74987 91.27425 91.72494
#
# Poissons Ratio (x) = 0.58097 -0.12848
# Poissons Ratio (y) = 0.56490 0.09527
# Poissons Ratio (z) = -0.12432 0.09480
#
# Static dielectric constant tensor:
#      x y z
#    x 1.729530 0.000000 0.000000 
#    y 0.000000 1.863660 0.000000 
#    z 0.000000 0.000000 1.833250 
# 
# From -- ./inp_files/27795.got.cif
#   From: 2010.05.17/outbox.cif.g08.bks.cpg/sg72_14_cif.got.tgz:27795.got - 2010.06.03 17:03:01.
