data_PCOD9529108
_publ_section_title
;
Structure prediction by ZEFSAII (Michael W. Deem and Ramdas Pophale) SiO2 
 PCOD9529108
Probable space group: I B A M
;
_chemical_formula_sum "Si O2"
_cell_formula_units_Z 68
_cell_length_a 23.484319
_cell_length_b 4.918342
_cell_length_c 24.152368
_cell_angle_alpha 90.000000
_cell_angle_beta 90.000000
_cell_angle_gamma 90.000000
_cell_volume 2789.693000
_symmetry_space_group_name_H-M "I B A M"
_symmetry_group_IT_number 72
_symmetry_cell_setting 'orthorhombic'
loop_
_space_group_symop_operation_xyz
x,y,z
-x,-y,z
x,-y,1/2-z
-x,y,1/2-z
-x,-y,-z
x,y,-z
-x,y,1/2+z
x,-y,1/2+z
1/2+x,1/2+y,1/2+z
1/2-x,1/2-y,1/2+z
1/2+x,1/2-y,-z
1/2-x,1/2+y,-z
1/2-x,1/2-y,1/2-z
1/2+x,1/2+y,1/2-z
1/2-x,1/2+y,z
1/2+x,1/2-y,z
loop_
_atom_site_type_symbol
_atom_site_label
_atom_site_fract_x
_atom_site_fract_y
_atom_site_fract_z
Si Si1 0.408874 0.209133 0.410816
Si Si2 0.282863 0.453687 0.826410
Si Si3 0.333121 0.705771 0.436422
Si Si4 0.599374 0.269057 0.787000
Si Si5 0.000000 0.500000 0.500000
O O1 0.387497 0.506208 0.429465
O O2 0.427289 0.206825 0.346746
O O3 0.456817 0.113765 0.452063
O O4 0.355571 0.000903 0.417817
O O5 0.268184 0.149840 0.808910
O O6 0.289225 0.419311 0.892644
O O7 0.340636 0.587754 0.804985
O O8 0.314361 0.709122 0.500000
O O9 0.569810 0.500000 0.750000
O O10 0.605618 0.000000 0.750000
#
# Coordination Sequence:
#
# PCOD9529108 Si02
#       5
#    16  16  16  16   4
#     4  11  24  41  69 103 130 169 221 273 345 404
#     4  11  23  37  60  96 127 173 236 274 313 379
#     4  11  21  41  61  92 141 176 211 271 345 402
#     4  11  23  43  66  91 137 184 219 274 339 394
#     4  12  24  46  78 110 128 162 224 292 328 418
#
# _framework density 24.375442
#
# number of rings (size 3 to 8) (size 9 to 14) (size 15 to 20)
#    0.000    0.941    2.353    7.059    0.000    5.647 
#    0.000    0.588    0.000    4.235    0.000    0.000 
#    0.000    0.000    0.000    0.000    0.000    0.000 
#
# Total GULP energy -189826.129682 kJ/mol
# GULP energy per Si atom -5583.121461 kJ/mol
# Density = 2.431996 g / cm^3
# Si number density = 24.375442 Si / 1000 Ang^3
#
#
#
# Elastic Constant Matrix: (Units=GPa)
#
#
# Indices 1 2 3 4 5 6 
#
# 1 31.4149 -0.8938 24.5656 0.0000 0.0000 0.0000
# 2 -0.8938 125.0121 57.9525 0.0000 0.0000 0.0000
# 3 24.5656 57.9525 275.2955 0.0000 0.0000 0.0000
# 4 0.0000 0.0000 0.0000 5.2549 0.0000 0.0000
# 5 0.0000 0.0000 0.0000 0.0000 11.8467 0.0000
# 6 0.0000 0.0000 0.0000 0.0000 0.0000 -37.8490
#
#
#
# Elastic Compliance Matrix: (Units=1/GPa)
#
#
# Indices 1 2 3 4 5 6 
#
# 1 0.034606 0.001861 -0.003480 0.000000 0.000000 0.000000
# 2 0.001861 0.008964 -0.002053 0.000000 0.000000 0.000000
# 3 -0.003480 -0.002053 0.004375 0.000000 0.000000 0.000000
# 4 0.000000 0.000000 0.000000 0.190300 0.000000 0.000000
# 5 0.000000 0.000000 0.000000 0.000000 0.084411 0.000000
# 6 0.000000 0.000000 0.000000 0.000000 0.000000 -0.026421
#
#
# Mechanical properties :
#
#
# Convention : Reuss Voigt Hill
#
# Bulk Modulus (GPa) = 24.62998 66.10789 45.36893
# Shear Modulus (GPa) = 15.76722 19.19040 17.47881
#
# Velocity S-wave (km/s) = 2.54608 2.80890 2.68071
# Velocity P-wave (km/s) = 4.33240 6.13999 5.31362
#
# Compressibility (1/GPa) = 0.04060093
#
# Stress axis : x y z
#
# Youngs Moduli (GPa) = 28.89675 111.55366 228.56303
#
# Poissons Ratio (x) = -0.20755 0.79532
# Poissons Ratio (y) = -0.05376 0.46926
# Poissons Ratio (z) = 0.10055 0.22903
#
# Static dielectric constant tensor:
#      x y z
#    x 1.937190 0.000000 0.000000 
#    y 0.000000 1.902320 0.000000 
#    z 0.000000 0.000000 1.954690 
# 
# From -- ./inp_files/40586.got.cif
#   From: 2010.05.17/outbox.cif.g08.bks.cpg/sg72_21_cif.got.tgz:40586.got - 2010.06.03 17:03:01.
