data_PCOD9529763
_publ_section_title
;
Structure prediction by ZEFSAII (Michael W. Deem and Ramdas Pophale) SiO2 
 PCOD9529763
Probable space group: I B C A 
;
_chemical_formula_sum "Si O2"
_cell_formula_units_Z 88
_cell_length_a 11.815987
_cell_length_b 22.933420
_cell_length_c 11.867791
_cell_angle_alpha 90.000000
_cell_angle_beta 90.000000
_cell_angle_gamma 90.000000
_cell_volume 3215.945785
_symmetry_space_group_name_H-M "I B C A "
_symmetry_group_IT_number 73
_symmetry_cell_setting 'orthorhombic'
loop_
_space_group_symop_operation_xyz
x,y,z
-x,1/2-y,z
x,-y,1/2-z
1/2-x,y,-z
-x,-y,-z
x,1/2+y,-z
-x,y,1/2+z
1/2+x,-y,z
1/2+x,1/2+y,1/2+z
1/2-x,-y,1/2+z
1/2+x,1/2-y,-z
-x,1/2+y,1/2-z
1/2-x,1/2-y,1/2-z
1/2+x,y,1/2-z
1/2-x,1/2+y,z
x,1/2-y,1/2+z
loop_
_atom_site_type_symbol
_atom_site_label
_atom_site_fract_x
_atom_site_fract_y
_atom_site_fract_z
Si Si1 0.332633 0.862089 0.596596
Si Si2 0.160463 0.342023 0.218967
Si Si3 0.081421 0.851787 0.015328
Si Si4 0.496267 0.945065 0.323388
Si Si5 0.272973 0.488274 0.615098
Si Si6 0.500000 0.250000 0.168677
O O1 0.250000 0.837209 0.500000
O O2 0.278697 0.839804 0.713322
O O3 0.459770 0.854341 0.554366
O O4 0.303743 0.930556 0.604561
O O5 0.083470 0.397856 0.258056
O O6 0.085750 0.287079 0.255619
O O7 0.169829 0.347682 0.086043
O O8 0.079759 0.905791 0.103144
O O9 0.068961 0.793710 0.088586
O O10 0.405210 0.974870 0.403009
O O11 0.538499 0.000000 0.250000
O O12 0.269683 0.500000 0.750000
O O13 0.250000 0.523847 0.500000
#
# Coordination Sequence:
#
# PCOD9529763 Si02
#       6
#    16  16  16  16  16   8
#     4  10  17  39  63  88 125 180 223 272 351 415
#     4  10  21  36  62  95 128 170 227 281 340 416
#     4  11  20  37  66  92 130 176 227 291 347 403
#     4   9  18  34  60  90 129 169 221 273 338 412
#     4   9  15  29  58  89 123 169 226 276 330 407
#     4  10  20  38  58  88 122 166 220 280 358 402
#
# _framework density 27.363644000000001
#
# number of rings (size 3 to 8) (size 9 to 14) (size 15 to 20)
#    0.000    2.182    7.273    0.545    0.000    0.727 
#    0.000    6.364   24.000    0.000    0.000    0.000 
#    0.000    0.000    0.000    0.000    0.000    0.000 
#
# Total GULP energy -246043.720974 kJ/mol
# GULP energy per Si atom -5591.902749 kJ/mol
# Density = 2.730136 g / cm^3
# Si number density = 27.363644 Si / 1000 Ang^3
#
#
#
# Elastic Constant Matrix: (Units=GPa)
#
#
# Indices 1 2 3 4 5 6 
#
# 1 61.5972 37.7550 49.1286 0.0000 -0.0002 0.0000
# 2 37.7550 147.6059 83.7526 0.0002 -0.0002 -0.0004
# 3 49.1286 83.7526 260.9225 0.0002 -0.0003 -0.0002
# 4 0.0000 0.0002 0.0002 3.9812 -0.0001 -0.0004
# 5 -0.0002 -0.0002 -0.0003 -0.0001 -44.1970 -0.0003
# 6 0.0000 -0.0004 -0.0002 -0.0004 -0.0003 300.2120
#
#
#
# Elastic Compliance Matrix: (Units=1/GPa)
#
#
# Indices 1 2 3 4 5 6 
#
# 1 0.020686 -0.003767 -0.002686 0.000000 0.000000 0.000000
# 2 -0.003767 0.008970 -0.002170 0.000000 0.000000 0.000000
# 3 -0.002686 -0.002170 0.005035 0.000000 0.000000 0.000000
# 4 0.000000 0.000000 0.000000 0.251182 -0.000001 0.000000
# 5 0.000000 0.000000 0.000000 -0.000001 -0.022626 0.000000
# 6 0.000000 0.000000 0.000000 0.000000 0.000000 0.003331
#
#
# Mechanical properties :
#
#
# Convention : Reuss Voigt Hill
#
# Bulk Modulus (GPa) = 57.32430 90.15534 73.73982
# Shear Modulus (GPa) = 17.26297 71.96519 44.61408
#
# Velocity S-wave (km/s) = 2.51444 5.13387 4.04222
# Velocity P-wave (km/s) = 5.42443 8.25596 6.98517
#
# Compressibility (1/GPa) = 0.01744461
#
# Stress axis : x y z
#
# Youngs Moduli (GPa) = 48.34297 111.48868 198.62156
#
# Poissons Ratio (x) = 0.42000 0.53342
# Poissons Ratio (y) = 0.18212 0.43097
# Poissons Ratio (z) = 0.12983 0.24191
#
# Static dielectric constant tensor:
#      x y z
#    x 2.180150 0.000000 0.000000 
#    y 0.000000 2.140800 0.000000 
#    z 0.000000 0.000000 2.206030 
# 
# From -- ./inp_files/10959.got.cif
#   From: 2010.05.17/outbox.cif.g08.bks.cpg/sg73_6_cif.got.tgz:10959.got - 2010.06.03 17:35:07.
