data_PCOD9529399
_publ_section_title
;
Structure prediction by ZEFSAII (Michael W. Deem and Ramdas Pophale) SiO2 
 PCOD9529399
Probable space group: I B A M
;
_chemical_formula_sum "Si O2"
_cell_formula_units_Z 64
_cell_length_a 7.120754
_cell_length_b 16.615711
_cell_length_c 23.457872
_cell_angle_alpha 90.000000
_cell_angle_beta 90.000000
_cell_angle_gamma 90.000000
_cell_volume 2775.450745
_symmetry_space_group_name_H-M "I B A M"
_symmetry_group_IT_number 72
_symmetry_cell_setting 'orthorhombic'
loop_
_space_group_symop_operation_xyz
x,y,z
-x,-y,z
x,-y,1/2-z
-x,y,1/2-z
-x,-y,-z
x,y,-z
-x,y,1/2+z
x,-y,1/2+z
1/2+x,1/2+y,1/2+z
1/2-x,1/2-y,1/2+z
1/2+x,1/2-y,-z
1/2-x,1/2+y,-z
1/2-x,1/2-y,1/2-z
1/2+x,1/2+y,1/2-z
1/2-x,1/2+y,z
1/2+x,1/2-y,z
loop_
_atom_site_type_symbol
_atom_site_label
_atom_site_fract_x
_atom_site_fract_y
_atom_site_fract_z
Si Si1 0.662096 0.283001 0.000000
Si Si2 0.523589 0.356521 0.317276
Si Si3 0.282054 0.611309 0.500000
Si Si4 0.843937 0.308318 0.876459
Si Si5 0.161832 0.435236 0.879579
O O1 0.481497 0.341767 0.000000
O O2 0.769581 0.297499 0.059329
O O3 0.636440 0.186228 0.000000
O O4 0.500000 0.350604 0.250000
O O5 0.317380 0.359125 0.344860
O O6 0.614312 0.275196 0.344172
O O7 0.665880 0.426804 0.336130
O O8 0.248958 0.560164 0.556897
O O9 0.039999 0.353975 0.876646
O O10 0.000000 0.500000 0.869513
#
# Coordination Sequence:
#
# PCOD9529399 Si02
#       5
#     8  16   8  16  16
#     4  12  20  39  74 111 144 189 252 308 371 438
#     4  12  25  45  75 106 139 191 258 312 360 446
#     4  12  21  41  67 104 152 191 238 310 373 453
#     4  12  23  43  74 106 143 191 248 310 368 449
#     4  12  27  45  68 106 150 194 244 308 386 445
#
# _framework density 23.059318000000001
#
# number of rings (size 3 to 8) (size 9 to 14) (size 15 to 20)
#    0.000    0.000    7.500    3.375    0.000    1.000 
#    0.000    5.000    0.000    0.000    0.000    0.000 
#    0.000    0.000    0.000    0.000    0.000    0.000 
#
# Total GULP energy -179108.352895 kJ/mol
# GULP energy per Si atom -5597.136028 kJ/mol
# Density = 2.300683 g / cm^3
# Si number density = 23.059318 Si / 1000 Ang^3
#
#
#
# Elastic Constant Matrix: (Units=GPa)
#
#
# Indices 1 2 3 4 5 6 
#
# 1 133.9688 15.3862 76.1358 0.0000 0.0000 0.0000
# 2 15.3862 43.5448 20.5534 0.0000 0.0000 0.0000
# 3 76.1358 20.5534 198.5680 0.0000 0.0000 0.0000
# 4 0.0000 0.0000 0.0000 5.1006 0.0000 0.0000
# 5 0.0000 0.0000 0.0000 0.0000 30.0541 0.0000
# 6 0.0000 0.0000 0.0000 0.0000 0.0000 37.0266
#
#
#
# Elastic Compliance Matrix: (Units=1/GPa)
#
#
# Indices 1 2 3 4 5 6 
#
# 1 0.009670 -0.001752 -0.003526 0.000000 0.000000 0.000000
# 2 -0.001752 0.024462 -0.001860 0.000000 0.000000 0.000000
# 3 -0.003526 -0.001860 0.006581 0.000000 0.000000 0.000000
# 4 0.000000 0.000000 0.000000 0.196055 0.000000 0.000000
# 5 0.000000 0.000000 0.000000 0.000000 0.033273 0.000000
# 6 0.000000 0.000000 0.000000 0.000000 0.000000 0.027008
#
#
# Mechanical properties :
#
#
# Convention : Reuss Voigt Hill
#
# Bulk Modulus (GPa) = 37.82865 66.69249 52.26057
# Shear Modulus (GPa) = 15.61831 32.03668 23.82749
#
# Velocity S-wave (km/s) = 2.60534 3.73140 3.21801
# Velocity P-wave (km/s) = 5.04886 6.89560 6.04319
#
# Compressibility (1/GPa) = 0.02643499
#
# Stress axis : x y z
#
# Youngs Moduli (GPa) = 103.41637 40.87972 151.96116
#
# Poissons Ratio (x) = 0.07163 0.53585
# Poissons Ratio (y) = 0.18122 0.28267
# Poissons Ratio (z) = 0.36467 0.07604
#
# Static dielectric constant tensor:
#      x y z
#    x 1.870250 0.000000 0.000000 
#    y 0.000000 1.942060 0.000000 
#    z 0.000000 0.000000 1.824880 
# 
# From -- ./inp_files/35412.got.cif
#   From: 2010.05.17/outbox.cif.g08.bks.cpg/sg72_18_cif.got.tgz:35412.got - 2010.06.03 17:03:01.
