data_PCOD9529990
_publ_section_title
;
Structure prediction by ZEFSAII (Michael W. Deem and Ramdas Pophale) SiO2 
 PCOD9529990
Probable space group: I B C A 
;
_chemical_formula_sum "Si O2"
_cell_formula_units_Z 104
_cell_length_a 8.614548
_cell_length_b 20.152472
_cell_length_c 26.990720
_cell_angle_alpha 90.000000
_cell_angle_beta 90.000000
_cell_angle_gamma 90.000000
_cell_volume 4685.708760
_symmetry_space_group_name_H-M "I B C A "
_symmetry_group_IT_number 73
_symmetry_cell_setting 'orthorhombic'
loop_
_space_group_symop_operation_xyz
x,y,z
-x,1/2-y,z
x,-y,1/2-z
1/2-x,y,-z
-x,-y,-z
x,1/2+y,-z
-x,y,1/2+z
1/2+x,-y,z
1/2+x,1/2+y,1/2+z
1/2-x,-y,1/2+z
1/2+x,1/2-y,-z
-x,1/2+y,1/2-z
1/2-x,1/2-y,1/2-z
1/2+x,y,1/2-z
1/2-x,1/2+y,z
x,1/2-y,1/2+z
loop_
_atom_site_type_symbol
_atom_site_label
_atom_site_fract_x
_atom_site_fract_y
_atom_site_fract_z
Si Si1 0.500000 0.250000 0.593225
Si Si2 0.728563 0.158862 0.377364
Si Si3 0.298274 0.419687 0.711950
Si Si4 0.631207 0.424745 0.034281
Si Si5 0.837298 0.936728 0.686456
Si Si6 0.332441 0.113116 0.574185
Si Si7 0.010573 0.673547 0.456567
O O1 0.648420 0.218259 0.619822
O O2 0.423406 0.183839 0.569983
O O3 0.724157 0.136241 0.321765
O O4 0.794539 0.100115 0.413802
O O5 0.567419 0.175724 0.402581
O O6 0.211776 0.486523 0.693149
O O7 0.265253 0.405769 0.769358
O O8 0.480893 0.427427 0.699881
O O9 0.454752 0.440472 0.051555
O O10 0.750000 0.467145 0.000000
O O11 0.596437 0.367217 0.993886
O O12 0.809149 0.908311 0.631489
O O13 0.169655 0.132464 0.549045
O O14 0.000000 0.750000 0.473494
#
# Coordination Sequence:
#
# PCOD9529990 Si02
#       7
#     8  16  16  16  16  16  16
#     4  10  18  38  58  84 128 170 196 248 314 378
#     4  10  21  38  61  86 132 162 204 259 315 370
#     4  11  23  43  66  94 120 159 212 262 314 373
#     4   9  20  36  57  85 121 165 205 251 302 364
#     4  11  24  41  69  94 119 160 212 266 315 372
#     4  11  22  38  61  92 131 159 209 263 314 373
#     4  11  22  32  59  96 123 167 212 253 304 372
#
# _framework density 22.195149000000001
#
# number of rings (size 3 to 8) (size 9 to 14) (size 15 to 20)
#    0.000    1.538    4.615    2.308    8.615    1.231 
#    0.000    0.769    3.385   10.154    0.000    0.000 
#    0.000    0.000    0.000    0.000    0.000    0.000 
#
# Total GULP energy -289616.498143 kJ/mol
# GULP energy per Si atom -5569.548041 kJ/mol
# Density = 2.214463 g / cm^3
# Si number density = 22.195149 Si / 1000 Ang^3
#
#
#
# Elastic Constant Matrix: (Units=GPa)
#
#
# Indices 1 2 3 4 5 6 
#
# 1 93.5466 17.7157 60.5538 0.0000 0.0000 0.0000
# 2 17.7157 18.3095 15.4888 0.0000 0.0000 0.0000
# 3 60.5538 15.4888 108.9138 0.0000 0.0000 0.0000
# 4 0.0000 0.0000 0.0000 71.2230 0.0000 0.0000
# 5 0.0000 0.0000 0.0000 0.0000 29.0854 0.0000
# 6 0.0000 0.0000 0.0000 0.0000 0.0000 13.7039
#
#
#
# Elastic Compliance Matrix: (Units=1/GPa)
#
#
# Indices 1 2 3 4 5 6 
#
# 1 0.018270 -0.010327 -0.008689 0.000000 0.000000 0.000000
# 2 -0.010327 0.067923 -0.003918 0.000000 0.000000 0.000000
# 3 -0.008689 -0.003918 0.014570 0.000000 0.000000 0.000000
# 4 0.000000 0.000000 0.000000 0.014040 0.000000 0.000000
# 5 0.000000 0.000000 0.000000 0.000000 0.034382 0.000000
# 6 0.000000 0.000000 0.000000 0.000000 0.000000 0.072972
#
#
# Mechanical properties :
#
#
# Convention : Reuss Voigt Hill
#
# Bulk Modulus (GPa) = 18.21674 45.36517 31.79095
# Shear Modulus (GPa) = 17.46281 31.26990 24.36635
#
# Velocity S-wave (km/s) = 2.80801 3.75755 3.31694
# Velocity P-wave (km/s) = 4.32881 6.26971 5.38738
#
# Compressibility (1/GPa) = 0.05489456
#
# Stress axis : x y z
#
# Youngs Moduli (GPa) = 54.73392 14.72262 68.63534
#
# Poissons Ratio (x) = 0.15204 0.59639
# Poissons Ratio (y) = 0.56524 0.26890
# Poissons Ratio (z) = 0.47560 0.05768
#
# Static dielectric constant tensor:
#      x y z
#    x 1.939120 0.000000 0.000000 
#    y 0.000000 1.875380 0.000000 
#    z 0.000000 0.000000 1.838500 
# 
# From -- ./inp_files/31353.got.cif
#   From: 2010.05.17/outbox.cif.g08.bks.cpg/sg73_16_cif.got.tgz:31353.got - 2010.06.03 17:35:07.
