data_PCOD9529027
_publ_section_title
;
Structure prediction by ZEFSAII (Michael W. Deem and Ramdas Pophale) SiO2 
 PCOD9529027
Probable space group: I B A M
;
_chemical_formula_sum "Si O2"
_cell_formula_units_Z 96
_cell_length_a 26.086928
_cell_length_b 11.119975
_cell_length_c 16.711873
_cell_angle_alpha 90.000000
_cell_angle_beta 90.000000
_cell_angle_gamma 90.000000
_cell_volume 4847.880177
_symmetry_space_group_name_H-M "I B A M"
_symmetry_group_IT_number 72
_symmetry_cell_setting 'orthorhombic'
loop_
_space_group_symop_operation_xyz
x,y,z
-x,-y,z
x,-y,1/2-z
-x,y,1/2-z
-x,-y,-z
x,y,-z
-x,y,1/2+z
x,-y,1/2+z
1/2+x,1/2+y,1/2+z
1/2-x,1/2-y,1/2+z
1/2+x,1/2-y,-z
1/2-x,1/2+y,-z
1/2-x,1/2-y,1/2-z
1/2+x,1/2+y,1/2-z
1/2-x,1/2+y,z
1/2+x,1/2-y,z
loop_
_atom_site_type_symbol
_atom_site_label
_atom_site_fract_x
_atom_site_fract_y
_atom_site_fract_z
Si Si1 0.898705 0.183653 0.590044
Si Si2 0.172574 0.813407 0.723828
Si Si3 0.382824 0.599174 0.627795
Si Si4 0.226955 0.417438 0.500000
Si Si5 0.280292 0.094918 0.180952
Si Si6 0.701284 0.349301 0.500000
Si Si7 0.505796 0.645491 0.843045
O O1 0.886272 0.216674 0.500000
O O2 0.861183 0.244160 0.653751
O O3 0.958491 0.201428 0.609285
O O4 0.889428 0.039826 0.602447
O O5 0.134099 0.885503 0.780765
O O6 0.218215 0.889751 0.683301
O O7 0.197847 0.717720 0.783135
O O8 0.337500 0.651676 0.574328
O O9 0.437679 0.665200 0.621409
O O10 0.203078 0.432912 0.589802
O O11 0.269195 0.523652 0.500000
O O12 0.236488 0.271200 0.500000
O O13 0.293329 0.000000 0.250000
O O14 0.500000 0.500000 0.844895
O O15 0.500000 0.680987 0.750000
#
# Coordination Sequence:
#
# PCOD9529027 Si02
#       7
#    16  16  16   8  16   8  16
#     4  11  21  32  54  89 121 159 200 262 327 400
#     4  11  22  38  59  79 117 158 212 251 327 379
#     4  11  20  37  56  84 122 168 205 253 328 393
#     4  12  26  44  66  92 127 174 227 266 328 378
#     4  11  25  42  59  86 120 167 213 272 315 385
#     4  12  24  40  65  96 129 172 220 274 312 390
#     4   9  18  31  51  78 119 162 199 250 319 401
#
# _framework density 19.80247
#
# number of rings (size 3 to 8) (size 9 to 14) (size 15 to 20)
#    0.000    1.167    4.167    3.500    4.667    1.000 
#    1.500    0.000    0.000    0.000    0.000    2.333 
#    0.000    2.667    0.000    0.000    0.000    0.000 
#
# Total GULP energy -267640.300808 kJ/mol
# GULP energy per Si atom -5575.839600 kJ/mol
# Density = 1.975740 g / cm^3
# Si number density = 19.802470 Si / 1000 Ang^3
#
#
#
# Elastic Constant Matrix: (Units=GPa)
#
#
# Indices 1 2 3 4 5 6 
#
# 1 73.7969 19.7615 28.4541 0.0000 0.0000 0.0000
# 2 19.7615 39.1470 15.3046 0.0000 0.0000 0.0000
# 3 28.4541 15.3046 162.7305 0.0000 0.0000 0.0000
# 4 0.0000 0.0000 0.0000 23.5915 0.0000 0.0000
# 5 0.0000 0.0000 0.0000 0.0000 27.6733 0.0000
# 6 0.0000 0.0000 0.0000 0.0000 0.0000 6.5042
#
#
#
# Elastic Compliance Matrix: (Units=1/GPa)
#
#
# Indices 1 2 3 4 5 6 
#
# 1 0.016372 -0.007418 -0.002165 0.000000 0.000000 0.000000
# 2 -0.007418 0.029881 -0.001513 0.000000 0.000000 0.000000
# 3 -0.002165 -0.001513 0.006666 0.000000 0.000000 0.000000
# 4 0.000000 0.000000 0.000000 0.042388 0.000000 0.000000
# 5 0.000000 0.000000 0.000000 0.000000 0.036136 0.000000
# 6 0.000000 0.000000 0.000000 0.000000 0.000000 0.153747
#
#
# Mechanical properties :
#
#
# Convention : Reuss Voigt Hill
#
# Bulk Modulus (GPa) = 32.54549 44.74609 38.64579
# Shear Modulus (GPa) = 15.74181 25.69741 20.71961
#
# Velocity S-wave (km/s) = 2.82253 3.60625 3.23819
# Velocity P-wave (km/s) = 5.20509 6.32339 5.79130
#
# Compressibility (1/GPa) = 0.03072622
#
# Stress axis : x y z
#
# Youngs Moduli (GPa) = 61.08009 33.46603 150.01493
#
# Poissons Ratio (x) = 0.24826 0.32479
# Poissons Ratio (y) = 0.45310 0.22700
# Poissons Ratio (z) = 0.13224 0.05064
#
# Static dielectric constant tensor:
#      x y z
#    x 1.733580 0.000000 0.000000 
#    y 0.000000 1.713990 0.000000 
#    z 0.000000 0.000000 1.769310 
# 
# From -- ./inp_files/33906.got.cif
#   From: 2010.05.17/outbox.cif.g08.bks.cpg/sg72_17_cif.got.tgz:33906.got - 2010.06.03 17:03:01.
