data_PCOD9529692
_publ_section_title
;
Structure prediction by ZEFSAII (Michael W. Deem and Ramdas Pophale) SiO2 
 PCOD9529692
Probable space group: I B C A 
;
_chemical_formula_sum "Si O2"
_cell_formula_units_Z 120
_cell_length_a 20.963040
_cell_length_b 14.505519
_cell_length_c 21.815805
_cell_angle_alpha 90.000000
_cell_angle_beta 90.000000
_cell_angle_gamma 90.000000
_cell_volume 6633.745076
_symmetry_space_group_name_H-M "I B C A "
_symmetry_group_IT_number 73
_symmetry_cell_setting 'orthorhombic'
loop_
_space_group_symop_operation_xyz
x,y,z
-x,1/2-y,z
x,-y,1/2-z
1/2-x,y,-z
-x,-y,-z
x,1/2+y,-z
-x,y,1/2+z
1/2+x,-y,z
1/2+x,1/2+y,1/2+z
1/2-x,-y,1/2+z
1/2+x,1/2-y,-z
-x,1/2+y,1/2-z
1/2-x,1/2-y,1/2-z
1/2+x,y,1/2-z
1/2-x,1/2+y,z
x,1/2-y,1/2+z
loop_
_atom_site_type_symbol
_atom_site_label
_atom_site_fract_x
_atom_site_fract_y
_atom_site_fract_z
Si Si1 0.928084 0.269399 0.915176
Si Si2 0.781406 0.759067 0.939320
Si Si3 0.068411 0.951095 0.498390
Si Si4 0.688766 0.241687 0.668924
Si Si5 0.388295 0.878586 0.628118
Si Si6 0.105031 0.360149 0.023032
Si Si7 0.788790 0.897920 0.769368
Si Si8 0.500000 0.250000 0.394925
O O1 0.927420 0.355549 0.963867
O O2 0.880083 0.284514 0.858738
O O3 0.000000 0.250000 0.894583
O O4 0.908122 0.180152 0.955329
O O5 0.728464 0.730676 0.891294
O O6 0.831567 0.824412 0.906094
O O7 0.826131 0.676396 0.959090
O O8 0.750000 0.801471 0.000000
O O9 0.086451 0.941615 0.427083
O O10 0.109642 0.030786 0.528816
O O11 0.000000 0.000000 0.500000
O O12 0.729891 0.157552 0.698496
O O13 0.689369 0.327231 0.715827
O O14 0.350931 0.913857 0.687221
O O15 0.449035 0.812323 0.641549
O O16 0.046843 0.314778 0.063283
O O17 0.767512 0.000000 0.750000
#
# Coordination Sequence:
#
# PCOD9529692 Si02
#       8
#    16  16  16  16  16  16  16   8
#     4  12  21  37  61  89 128 156 190 244 308 374
#     4  10  18  34  59  85 117 151 191 243 304 370
#     4  12  20  32  57  93 128 158 190 238 315 372
#     4  10  23  43  62  86 119 160 208 258 304 354
#     4  10  20  34  58  83 115 160 203 244 298 365
#     4  11  19  31  54  89 123 152 183 234 308 370
#     4  10  24  43  65  83 116 165 216 261 302 349
#     4  10  16  36  54  80 124 158 188 240 304 370
#
# _framework density 18.08933
#
# number of rings (size 3 to 8) (size 9 to 14) (size 15 to 20)
#    0.000    1.333    7.333    0.000    1.867    1.067 
#    1.200    2.000    0.000    0.800    0.000    0.000 
#    0.000    0.000    0.000    0.000    0.000    0.000 
#
# Total GULP energy -334029.923806 kJ/mol
# GULP energy per Si atom -5567.165397 kJ/mol
# Density = 1.804816 g / cm^3
# Si number density = 18.089330 Si / 1000 Ang^3
#
#
#
# Elastic Constant Matrix: (Units=GPa)
#
#
# Indices 1 2 3 4 5 6 
#
# 1 111.5198 27.3061 44.9939 0.0000 0.0000 0.0000
# 2 27.3061 75.9662 17.6637 0.0000 0.0000 0.0000
# 3 44.9939 17.6637 71.7154 0.0000 0.0000 0.0000
# 4 0.0000 0.0000 0.0000 -20.2979 0.0000 0.0000
# 5 0.0000 0.0000 0.0000 0.0000 26.0721 0.0000
# 6 0.0000 0.0000 0.0000 0.0000 0.0000 5.2957
#
#
#
# Elastic Compliance Matrix: (Units=1/GPa)
#
#
# Indices 1 2 3 4 5 6 
#
# 1 0.012560 -0.002845 -0.007179 0.000000 0.000000 0.000000
# 2 -0.002845 0.014608 -0.001813 0.000000 0.000000 0.000000
# 3 -0.007179 -0.001813 0.018895 0.000000 0.000000 0.000000
# 4 0.000000 0.000000 0.000000 -0.049266 0.000000 0.000000
# 5 0.000000 0.000000 0.000000 0.000000 0.038355 0.000000
# 6 0.000000 0.000000 0.000000 0.000000 0.000000 0.188832
#
#
# Mechanical properties :
#
#
# Convention : Reuss Voigt Hill
#
# Bulk Modulus (GPa) = 44.66705 48.79210 46.72957
# Shear Modulus (GPa) = 19.59848 13.49651 16.54750
#
# Velocity S-wave (km/s) = 3.29512 2.73445 3.02779
# Velocity P-wave (km/s) = 6.26284 6.08285 6.17350
#
# Compressibility (1/GPa) = 0.02238787
#
# Stress axis : x y z
#
# Youngs Moduli (GPa) = 79.61540 68.45538 52.92444
#
# Poissons Ratio (x) = 0.19479 0.37997
# Poissons Ratio (y) = 0.22654 0.09594
# Poissons Ratio (z) = 0.57160 0.12409
#
# Static dielectric constant tensor:
#      x y z
#    x 1.688160 0.000000 0.000000 
#    y 0.000000 1.690290 0.000000 
#    z 0.000000 0.000000 1.665300 
# 
# From -- ./inp_files/27004.got.cif
#   From: 2010.05.17/outbox.cif.g08.bks.cpg/sg73_14_cif.got.tgz:27004.got - 2010.06.03 17:35:07.
