data_PCOD9529555
_publ_section_title
;
Structure prediction by ZEFSAII (Michael W. Deem and Ramdas Pophale) SiO2 
 PCOD9529555
Probable space group: I B A M
;
_chemical_formula_sum "Si O2"
_cell_formula_units_Z 30
_cell_length_a 27.000000
_cell_length_b 12.000000
_cell_length_c 9.000000
_cell_angle_alpha 90.000000
_cell_angle_beta 90.000000
_cell_angle_gamma 90.000000
_cell_volume 2916.000000
_symmetry_space_group_name_H-M "I B A M"
_symmetry_group_IT_number 72
_symmetry_cell_setting 'orthorhombic'
loop_
_space_group_symop_operation_xyz
x,y,z
-x,-y,z
x,-y,1/2-z
-x,y,1/2-z
-x,-y,-z
x,y,-z
-x,y,1/2+z
x,-y,1/2+z
1/2+x,1/2+y,1/2+z
1/2-x,1/2-y,1/2+z
1/2+x,1/2-y,-z
1/2-x,1/2+y,-z
1/2-x,1/2-y,1/2-z
1/2+x,1/2+y,1/2-z
1/2-x,1/2+y,z
1/2+x,1/2-y,z
loop_
_atom_site_type_symbol
_atom_site_label
_atom_site_fract_x
_atom_site_fract_y
_atom_site_fract_z
Si Si1 0.445477 0.336522 0.500000
Si Si2 0.035692 0.660489 0.000000
Si Si3 0.214882 0.000000 0.250000
Si Si4 0.077125 0.000000 0.750000
Si Si5 0.500000 0.000000 0.750000
Si Si6 0.827656 0.158547 0.500000
Si Si7 0.741271 0.657300 0.000000
Si Si8 0.377605 0.659737 0.500000
O O1 0.486254 0.239221 0.500000
O O2 0.452025 0.415645 0.357161
O O3 0.385820 0.305266 0.500000
O O4 0.031859 0.580424 0.143329
O O5 0.085056 0.735503 0.000000
O O6 0.246507 0.080438 0.355070
O O7 0.184031 0.919861 0.359178
O O8 0.107261 0.082284 0.639581
O O9 0.784202 0.250914 0.500000
O O10 0.681527 0.688427 0.000000
#
# Coordination Sequence:
#
# PCOD9529555 Si02
#       8
#     8   8   8   8   4   8   8   8
#     4  11  21  37  58  87 114 147 179 225 281 341
#     4  11  24  41  62  80 110 149 194 227 272 322
#     4  10  21  38  56  81 120 151 174 230 291 320
#     4  10  21  35  59  89 124 141 167 223 295 344
#     4  10  24  46  58  74 112 156 186 242 280 294
#     4  11  21  37  58  82 113 149 187 226 276 332
#     4  11  21  37  58  82 113 149 187 226 276 332
#     4  11  21  37  58  87 114 147 179 225 281 341
#
# _framework density 10.288066000000001
#
# number of rings (size 3 to 8) (size 9 to 14) (size 15 to 20)
#    0.000    1.333    0.000    8.800    0.000    3.200 
#    0.000    8.000    0.000    0.000    0.000    0.000 
#    0.000    0.000    0.000    0.000    0.000    0.000 
#
# Total GULP energy -167659.988233 kJ/mol
# GULP energy per Si atom -5588.666274 kJ/mol
# Density = 1.026465 g / cm^3
# Si number density = 10.288066 Si / 1000 Ang^3
#
#
#
# Elastic Constant Matrix: (Units=GPa)
#
#
# Indices 1 2 3 4 5 6 
#
# 1 130.3719 90.9652 39.9240 0.0000 0.0000 0.0000
# 2 90.9652 154.2106 72.2380 0.0000 0.0000 0.0000
# 3 39.9240 72.2380 168.0655 0.0000 0.0000 0.0000
# 4 0.0000 0.0000 0.0000 -18.2629 0.0000 0.0000
# 5 0.0000 0.0000 0.0000 0.0000 -67.9687 0.0000
# 6 0.0000 0.0000 0.0000 0.0000 0.0000 43.0037
#
#
#
# Elastic Compliance Matrix: (Units=1/GPa)
#
#
# Indices 1 2 3 4 5 6 
#
# 1 0.013045 -0.007817 0.000261 0.000000 0.000000 0.000000
# 2 -0.007817 0.012804 -0.003646 0.000000 0.000000 0.000000
# 3 0.000261 -0.003646 0.007455 0.000000 0.000000 0.000000
# 4 0.000000 0.000000 0.000000 -0.054756 0.000000 0.000000
# 5 0.000000 0.000000 0.000000 0.000000 -0.014713 0.000000
# 6 0.000000 0.000000 0.000000 0.000000 0.000000 0.023254
#
#
# Mechanical properties :
#
#
# Convention : Reuss Voigt Hill
#
# Bulk Modulus (GPa) = 91.74979 95.43361 93.59170
# Shear Modulus (GPa) = 380.89630 7.98912 194.44271
#
# Velocity S-wave (km/s) = 13.62048 1.97260 9.73161
# Velocity P-wave (km/s) = 17.08929 7.18816 13.10941
#
# Compressibility (1/GPa) = 0.01089921
#
# Stress axis : x y z
#
# Youngs Moduli (GPa) = 76.65982 78.10141 134.13237
#
# Poissons Ratio (x) = 0.61052 -0.03503
# Poissons Ratio (y) = 0.59926 0.48910
# Poissons Ratio (z) = -0.02002 0.28479
#
# Static dielectric constant tensor:
#      x y z
#    x 1.747460 0.000000 0.000000 
#    y 0.000000 1.717930 0.000000 
#    z 0.000000 0.000000 1.801490 
# 
# From -- ./inp_files/2465.got.cif
#   From: 2010.05.17/outbox.ucp.g08.bks.cvg/sg72_2_cif.got.tgz:2465.got - 2010.06.11 16:33:07.
