data_PCOD9529807
_publ_section_title
;
Structure prediction by ZEFSAII (Michael W. Deem and Ramdas Pophale) SiO2 
 PCOD9529807
Probable space group: I B C A 
;
_chemical_formula_sum "Si O2"
_cell_formula_units_Z 120
_cell_length_a 18.797331
_cell_length_b 17.981058
_cell_length_c 19.885876
_cell_angle_alpha 90.000000
_cell_angle_beta 90.000000
_cell_angle_gamma 90.000000
_cell_volume 6721.344535
_symmetry_space_group_name_H-M "I B C A "
_symmetry_group_IT_number 73
_symmetry_cell_setting 'orthorhombic'
loop_
_space_group_symop_operation_xyz
x,y,z
-x,1/2-y,z
x,-y,1/2-z
1/2-x,y,-z
-x,-y,-z
x,1/2+y,-z
-x,y,1/2+z
1/2+x,-y,z
1/2+x,1/2+y,1/2+z
1/2-x,-y,1/2+z
1/2+x,1/2-y,-z
-x,1/2+y,1/2-z
1/2-x,1/2-y,1/2-z
1/2+x,y,1/2-z
1/2-x,1/2+y,z
x,1/2-y,1/2+z
loop_
_atom_site_type_symbol
_atom_site_label
_atom_site_fract_x
_atom_site_fract_y
_atom_site_fract_z
Si Si1 0.028545 0.483526 0.074663
Si Si2 0.643273 0.672997 0.821076
Si Si3 0.000000 0.750000 0.634716
Si Si4 0.403446 0.630680 0.944161
Si Si5 0.395319 0.494416 0.171983
Si Si6 0.977350 0.333014 0.080431
Si Si7 0.232028 0.770830 0.575567
Si Si8 0.151204 0.345491 0.667144
O O1 0.087962 0.546731 0.083043
O O2 0.964249 0.499151 0.125578
O O3 0.040051 0.394731 0.081979
O O4 0.000000 0.500000 0.000000
O O5 0.564793 0.710351 0.826280
O O6 0.638102 0.586014 0.838485
O O7 0.693647 0.712163 0.875405
O O8 0.667520 0.677887 0.743499
O O9 0.961043 0.685212 0.591627
O O10 0.325810 0.663532 0.933126
O O11 0.424253 0.636924 0.022606
O O12 0.417281 0.500000 0.250000
O O13 0.343960 0.564924 0.160075
O O14 0.931445 0.330444 0.148482
O O15 0.000000 0.250000 0.063245
O O16 0.250000 0.743719 0.500000
O O17 0.300111 0.802176 0.614656
#
# Coordination Sequence:
#
# PCOD9529807 Si02
#       8
#    16  16   8  16  16  16  16  16
#     4   9  18  31  52  82 110 137 182 229 288 329
#     4  10  21  36  61  83 109 147 193 237 280 344
#     4  10  18  30  56  86 106 130 186 238 284 316
#     4  10  18  33  55  78 112 145 182 240 273 337
#     4   9  18  36  59  80 109 147 186 229 282 349
#     4  10  19  32  55  83 115 143 181 237 291 329
#     4  11  22  37  55  80 116 155 193 230 284 334
#     4  10  21  38  56  81 116 153 187 226 286 351
#
# _framework density 17.853570000000001
#
# number of rings (size 3 to 8) (size 9 to 14) (size 15 to 20)
#    0.000    2.133    3.333    0.400    0.933    0.000 
#    0.000    2.000    0.000    2.400    0.000    0.000 
#    0.000    0.000    0.000    0.000    0.000    0.000 
#
# Total GULP energy -334156.784600 kJ/mol
# GULP energy per Si atom -5569.279743 kJ/mol
# Density = 1.781293 g / cm^3
# Si number density = 17.853570 Si / 1000 Ang^3
#
#
#
# Elastic Constant Matrix: (Units=GPa)
#
#
# Indices 1 2 3 4 5 6 
#
# 1 39.7398 26.5569 22.5156 0.0000 0.0000 0.0000
# 2 26.5569 118.7145 42.9265 0.0000 0.0000 0.0000
# 3 22.5156 42.9265 99.9162 0.0000 0.0000 0.0000
# 4 0.0000 0.0000 0.0000 22.7615 0.0000 0.0000
# 5 0.0000 0.0000 0.0000 0.0000 22.2467 0.0000
# 6 0.0000 0.0000 0.0000 0.0000 0.0000 14.3140
#
#
#
# Elastic Compliance Matrix: (Units=1/GPa)
#
#
# Indices 1 2 3 4 5 6 
#
# 1 0.031424 -0.005291 -0.004808 0.000000 0.000000 0.000000
# 2 -0.005291 0.010864 -0.003475 0.000000 0.000000 0.000000
# 3 -0.004808 -0.003475 0.012585 0.000000 0.000000 0.000000
# 4 0.000000 0.000000 0.000000 0.043934 0.000000 0.000000
# 5 0.000000 0.000000 0.000000 0.000000 0.044950 0.000000
# 6 0.000000 0.000000 0.000000 0.000000 0.000000 0.069862
#
#
# Mechanical properties :
#
#
# Convention : Reuss Voigt Hill
#
# Bulk Modulus (GPa) = 36.06974 49.15204 42.61089
# Shear Modulus (GPa) = 19.99937 22.95586 21.47762
#
# Velocity S-wave (km/s) = 3.35055 3.58968 3.47217
# Velocity P-wave (km/s) = 5.93424 6.69115 6.32403
#
# Compressibility (1/GPa) = 0.02772407
#
# Stress axis : x y z
#
# Youngs Moduli (GPa) = 31.82315 92.04923 79.46094
#
# Poissons Ratio (x) = 0.48704 0.38205
# Poissons Ratio (y) = 0.16838 0.27613
# Poissons Ratio (z) = 0.15301 0.31987
#
# Static dielectric constant tensor:
#      x y z
#    x 1.588350 0.000000 0.000000 
#    y 0.000000 1.659740 0.000000 
#    z 0.000000 0.000000 1.611640 
# 
# From -- ./inp_files/23340.got.cif
#   From: 2010.05.17/outbox.cif.g08.bks.cpg/sg73_12_cif.got.tgz:23340.got - 2010.06.03 17:35:07.
