data_PCOD9529897
_publ_section_title
;
Structure prediction by ZEFSAII (Michael W. Deem and Ramdas Pophale) SiO2 
 PCOD9529897
Probable space group: I B C A 
;
_chemical_formula_sum "Si O2"
_cell_formula_units_Z 112
_cell_length_a 12.272952
_cell_length_b 19.146663
_cell_length_c 21.828066
_cell_angle_alpha 90.000000
_cell_angle_beta 90.000000
_cell_angle_gamma 90.000000
_cell_volume 5129.291575
_symmetry_space_group_name_H-M "I B C A "
_symmetry_group_IT_number 73
_symmetry_cell_setting 'orthorhombic'
loop_
_space_group_symop_operation_xyz
x,y,z
-x,1/2-y,z
x,-y,1/2-z
1/2-x,y,-z
-x,-y,-z
x,1/2+y,-z
-x,y,1/2+z
1/2+x,-y,z
1/2+x,1/2+y,1/2+z
1/2-x,-y,1/2+z
1/2+x,1/2-y,-z
-x,1/2+y,1/2-z
1/2-x,1/2-y,1/2-z
1/2+x,y,1/2-z
1/2-x,1/2+y,z
x,1/2-y,1/2+z
loop_
_atom_site_type_symbol
_atom_site_label
_atom_site_fract_x
_atom_site_fract_y
_atom_site_fract_z
Si Si1 0.000000 0.750000 0.454604
Si Si2 0.328310 0.448745 0.125568
Si Si3 0.073009 0.416073 0.659976
Si Si4 0.849815 0.494943 0.547422
Si Si5 0.090792 0.796435 0.838807
Si Si6 0.078376 0.000000 0.750000
Si Si7 0.749996 0.882765 0.254615
Si Si8 0.012207 0.109773 0.468287
O O1 0.101984 0.741301 0.405629
O O2 0.991788 0.683209 0.499159
O O3 0.372436 0.527617 0.115452
O O4 0.203796 0.456947 0.105061
O O5 0.321778 0.423898 0.195025
O O6 0.397538 0.394192 0.085770
O O7 0.166912 0.374520 0.697969
O O8 0.983423 0.361465 0.639940
O O9 0.001114 0.468921 0.700023
O O10 0.750000 0.501281 0.500000
O O11 0.935949 0.441816 0.518630
O O12 0.906279 0.569338 0.557115
O O13 0.188248 0.821721 0.794233
O O14 0.000000 0.750000 0.802908
O O15 0.156418 0.064207 0.768395
#
# Coordination Sequence:
#
# PCOD9529897 Si02
#       8
#     8  16  16  16  16   8  16  16
#     4  10  22  46  60  82 120 186 208 260 312 380
#     4  11  21  34  61 101 118 157 199 274 328 370
#     4  11  21  36  62  98 126 155 208 263 326 383
#     4   9  21  36  59  92 112 155 208 273 318 376
#     4   9  24  39  64  84 122 179 213 252 315 389
#     4  10  18  34  56  96 124 158 184 260 314 380
#     4  11  20  37  62  94 127 162 204 260 322 393
#     4  10  22  38  62  83 129 158 217 263 315 384
#
# _framework density 21.835374000000002
#
# number of rings (size 3 to 8) (size 9 to 14) (size 15 to 20)
#    0.429    1.429    2.857    0.857   10.000    0.571 
#    0.000    5.000    1.571    0.000    0.000    0.000 
#    0.000    0.000    0.000    0.000    0.000    0.000 
#
# Total GULP energy -311863.827229 kJ/mol
# GULP energy per Si atom -5568.996915 kJ/mol
# Density = 2.178568 g / cm^3
# Si number density = 21.835374 Si / 1000 Ang^3
#
#
#
# Elastic Constant Matrix: (Units=GPa)
#
#
# Indices 1 2 3 4 5 6 
#
# 1 94.5278 39.0272 25.4725 0.0000 0.0000 0.0000
# 2 39.0272 98.8428 28.3902 0.0000 0.0000 0.0000
# 3 25.4725 28.3902 61.1954 0.0000 0.0000 0.0000
# 4 0.0000 0.0000 0.0000 34.6625 0.0000 0.0000
# 5 0.0000 0.0000 0.0000 0.0000 9.8185 0.0000
# 6 0.0000 0.0000 0.0000 0.0000 0.0000 25.3316
#
#
#
# Elastic Compliance Matrix: (Units=1/GPa)
#
#
# Indices 1 2 3 4 5 6 
#
# 1 0.013283 -0.004219 -0.003572 0.000000 0.000000 0.000000
# 2 -0.004219 0.013012 -0.004281 0.000000 0.000000 0.000000
# 3 -0.003572 -0.004281 0.019814 0.000000 0.000000 0.000000
# 4 0.000000 0.000000 0.000000 0.028850 0.000000 0.000000
# 5 0.000000 0.000000 0.000000 0.000000 0.101848 0.000000
# 6 0.000000 0.000000 0.000000 0.000000 0.000000 0.039476
#
#
# Mechanical properties :
#
#
# Convention : Reuss Voigt Hill
#
# Bulk Modulus (GPa) = 45.52375 48.92733 47.22554
# Shear Modulus (GPa) = 20.18172 24.74092 22.46132
#
# Velocity S-wave (km/s) = 3.04347 3.36976 3.21076
# Velocity P-wave (km/s) = 5.76578 6.13159 5.95149
#
# Compressibility (1/GPa) = 0.02196656
#
# Stress axis : x y z
#
# Youngs Moduli (GPa) = 75.28293 76.84988 50.46975
#
# Poissons Ratio (x) = 0.32422 0.18027
# Poissons Ratio (y) = 0.31761 0.21605
# Poissons Ratio (z) = 0.26890 0.32897
#
# Static dielectric constant tensor:
#      x y z
#    x 1.884280 0.000000 0.000000 
#    y 0.000000 1.889610 0.000000 
#    z 0.000000 0.000000 1.894010 
# 
# From -- ./inp_files/29047.got.cif
#   From: 2010.05.17/outbox.cif.g08.bks.cpg/sg73_15_cif.got.tgz:29047.got - 2010.06.03 17:35:07.
