data_PCOD9529326
_publ_section_title
;
Structure prediction by ZEFSAII (Michael W. Deem and Ramdas Pophale) SiO2 
 PCOD9529326
Probable space group: I B A M
;
_chemical_formula_sum "Si O2"
_cell_formula_units_Z 96
_cell_length_a 16.576388
_cell_length_b 20.888615
_cell_length_c 14.138372
_cell_angle_alpha 90.000000
_cell_angle_beta 90.000000
_cell_angle_gamma 90.000000
_cell_volume 4895.521401
_symmetry_space_group_name_H-M "I B A M"
_symmetry_group_IT_number 72
_symmetry_cell_setting 'orthorhombic'
loop_
_space_group_symop_operation_xyz
x,y,z
-x,-y,z
x,-y,1/2-z
-x,y,1/2-z
-x,-y,-z
x,y,-z
-x,y,1/2+z
x,-y,1/2+z
1/2+x,1/2+y,1/2+z
1/2-x,1/2-y,1/2+z
1/2+x,1/2-y,-z
1/2-x,1/2+y,-z
1/2-x,1/2-y,1/2-z
1/2+x,1/2+y,1/2-z
1/2-x,1/2+y,z
1/2+x,1/2-y,z
loop_
_atom_site_type_symbol
_atom_site_label
_atom_site_fract_x
_atom_site_fract_y
_atom_site_fract_z
Si Si1 0.776258 0.168215 0.678875
Si Si2 0.045426 0.161784 0.500000
Si Si3 0.066740 0.554609 0.611476
Si Si4 0.872313 0.757515 0.331328
Si Si5 0.500000 0.160050 0.750000
Si Si6 0.633857 0.388309 0.000000
Si Si7 0.742895 0.054836 0.817751
Si Si8 0.147314 0.959567 0.000000
O O1 0.846382 0.202997 0.738429
O O2 0.710482 0.219802 0.642378
O O3 0.814393 0.130231 0.592188
O O4 0.737737 0.119333 0.755622
O O5 0.085865 0.198112 0.410289
O O6 0.072785 0.088157 0.500000
O O7 0.948248 0.154478 0.500000
O O8 0.069989 0.568786 0.500000
O O9 0.154725 0.533913 0.646488
O O10 0.000000 0.500000 0.626875
O O11 0.041423 0.615406 0.672155
O O12 0.935634 0.703982 0.302020
O O13 0.624265 0.465482 0.000000
O O14 0.776618 0.000000 0.750000
O O15 0.799590 0.058787 0.908454
#
# Coordination Sequence:
#
# PCOD9529326 Si02
#       8
#    16   8  16  16   8   8  16   8
#     4  11  24  46  69  99 133 181 235 273 344 417
#     4  12  26  47  67  99 141 175 229 291 354 410
#     4  11  25  42  66 101 140 180 222 280 342 404
#     4  11  25  43  69  97 135 182 221 281 338 419
#     4  12  23  42  64 100 139 174 230 272 344 404
#     4  12  26  45  71 101 134 174 232 295 347 411
#     4  12  22  44  72  96 136 179 226 286 335 410
#     4  12  25  44  71 102 130 177 237 286 356 407
#
# _framework density 19.609760999999999
#
# number of rings (size 3 to 8) (size 9 to 14) (size 15 to 20)
#    0.000    0.500    5.833    3.000    1.167    0.000 
#    1.500    0.000    0.000    0.000    0.000    0.000 
#    0.000    0.000    0.000    0.000    0.000    0.000 
#
# Total GULP energy -268262.125244 kJ/mol
# GULP energy per Si atom -5588.794276 kJ/mol
# Density = 1.956513 g / cm^3
# Si number density = 19.609761 Si / 1000 Ang^3
#
#
#
# Elastic Constant Matrix: (Units=GPa)
#
#
# Indices 1 2 3 4 5 6 
#
# 1 71.0856 8.1407 41.6384 0.0000 0.0000 0.0000
# 2 8.1407 89.5479 44.8049 0.0000 0.0000 0.0000
# 3 41.6384 44.8049 119.8687 0.0000 0.0000 0.0000
# 4 0.0000 0.0000 0.0000 -22.6821 0.0001 0.0000
# 5 0.0000 0.0000 0.0000 0.0001 -453.9212 0.0000
# 6 0.0000 0.0000 0.0000 0.0000 0.0000 47.8859
#
#
#
# Elastic Compliance Matrix: (Units=1/GPa)
#
#
# Indices 1 2 3 4 5 6 
#
# 1 0.017900 0.001825 -0.006900 0.000000 0.000000 0.000000
# 2 0.001825 0.013922 -0.005838 0.000000 0.000000 0.000000
# 3 -0.006900 -0.005838 0.012921 0.000000 0.000000 0.000000
# 4 0.000000 0.000000 0.000000 -0.044088 0.000000 0.000000
# 5 0.000000 0.000000 0.000000 0.000000 -0.002203 0.000000
# 6 0.000000 0.000000 0.000000 0.000000 0.000000 0.020883
#
#
# Mechanical properties :
#
#
# Convention : Reuss Voigt Hill
#
# Bulk Modulus (GPa) = 43.63344 52.18556 47.90950
# Shear Modulus (GPa) = 102.45569 -73.34892 14.55338
#
# Velocity S-wave (km/s) = 7.23607 -6.12254 2.72720
# Velocity P-wave (km/s) = 9.59758 4.82813 5.86526
#
# Compressibility (1/GPa) = 0.02291820
#
# Stress axis : x y z
#
# Youngs Moduli (GPa) = 55.86497 71.82745 77.39065
#
# Poissons Ratio (x) = -0.13110 0.53401
# Poissons Ratio (y) = -0.10196 0.45180
# Poissons Ratio (z) = 0.38548 0.41932
#
# Static dielectric constant tensor:
#      x y z
#    x 1.680240 0.000000 0.000000 
#    y 0.000000 1.685790 0.000000 
#    z 0.000000 0.000000 1.671400 
# 
# From -- ./inp_files/21929.got.cif
#   From: 2010.05.17/outbox.cif.g08.bks.cpg/sg72_11_cif.got.tgz:21929.got - 2010.06.03 17:03:01.
