data_PCOD9529113
_publ_section_title
;
Structure prediction by ZEFSAII (Michael W. Deem and Ramdas Pophale) SiO2 
 PCOD9529113
Probable space group: I B A M
;
_chemical_formula_sum "Si O2"
_cell_formula_units_Z 64
_cell_length_a 11.983141
_cell_length_b 10.650315
_cell_length_c 21.726441
_cell_angle_alpha 90.000000
_cell_angle_beta 90.000000
_cell_angle_gamma 90.000000
_cell_volume 2772.820224
_symmetry_space_group_name_H-M "I B A M"
_symmetry_group_IT_number 72
_symmetry_cell_setting 'orthorhombic'
loop_
_space_group_symop_operation_xyz
x,y,z
-x,-y,z
x,-y,1/2-z
-x,y,1/2-z
-x,-y,-z
x,y,-z
-x,y,1/2+z
x,-y,1/2+z
1/2+x,1/2+y,1/2+z
1/2-x,1/2-y,1/2+z
1/2+x,1/2-y,-z
1/2-x,1/2+y,-z
1/2-x,1/2-y,1/2-z
1/2+x,1/2+y,1/2-z
1/2-x,1/2+y,z
1/2+x,1/2-y,z
loop_
_atom_site_type_symbol
_atom_site_label
_atom_site_fract_x
_atom_site_fract_y
_atom_site_fract_z
Si Si1 0.709258 0.553793 0.096913
Si Si2 0.124166 0.553374 0.189353
Si Si3 0.363664 0.282814 0.566560
Si Si4 0.466649 0.679467 0.319966
O O1 0.815394 0.498310 0.131141
O O2 0.668727 0.429658 0.061722
O O3 0.757939 0.686070 0.071004
O O4 0.609288 0.580928 0.144288
O O5 0.182851 0.500000 0.250000
O O6 0.113614 0.701047 0.190646
O O7 0.000000 0.500000 0.189132
O O8 0.420750 0.250930 0.500000
O O9 0.437413 0.278011 0.630102
O O10 0.500000 0.644567 0.250000
#
# Coordination Sequence:
#
# PCOD9529113 Si02
#       4
#    16  16  16  16
#     4  12  26  46  76 106 144 196 246 299 367 437
#     4  11  21  42  72 107 147 186 236 300 364 431
#     4  12  28  48  73 107 149 194 246 306 366 440
#     4  12  26  47  75 111 149 192 244 303 375 437
#
# _framework density 23.081195000000001
#
# number of rings (size 3 to 8) (size 9 to 14) (size 15 to 20)
#    0.000    0.250    7.500    1.500    3.500    6.000 
#    0.000    1.250    0.000    0.000    0.000    0.000 
#    0.000    0.000    0.000    0.000    0.000    0.000 
#
# Total GULP energy -178384.713469 kJ/mol
# GULP energy per Si atom -5574.522296 kJ/mol
# Density = 2.302866 g / cm^3
# Si number density = 23.081195 Si / 1000 Ang^3
#
#
#
# Elastic Constant Matrix: (Units=GPa)
#
#
# Indices 1 2 3 4 5 6 
#
# 1 56.2984 12.0129 42.8068 0.0000 0.0000 0.0000
# 2 12.0129 160.6473 43.5889 0.0000 0.0000 0.0000
# 3 42.8068 43.5889 179.0184 0.0000 0.0000 0.0000
# 4 0.0000 0.0000 0.0000 -1.9544 0.0000 0.0000
# 5 0.0000 0.0000 0.0000 0.0000 8.4053 0.0000
# 6 0.0000 0.0000 0.0000 0.0000 0.0000 34.1355
#
#
#
# Elastic Compliance Matrix: (Units=1/GPa)
#
#
# Indices 1 2 3 4 5 6 
#
# 1 0.021718 -0.000230 -0.005137 0.000000 0.000000 0.000000
# 2 -0.000230 0.006668 -0.001568 0.000000 0.000000 0.000000
# 3 -0.005137 -0.001568 0.007196 0.000000 0.000000 0.000000
# 4 0.000000 0.000000 0.000000 -0.511675 0.000000 0.000000
# 5 0.000000 0.000000 0.000000 0.000000 0.118972 0.000000
# 6 0.000000 0.000000 0.000000 0.000000 0.000000 0.029295
#
#
# Mechanical properties :
#
#
# Convention : Reuss Voigt Hill
#
# Bulk Modulus (GPa) = 46.06139 65.86459 55.96299
# Shear Modulus (GPa) = -16.30159 27.95433 5.82637
#
# Velocity S-wave (km/s) = -2.66046 3.48390 1.59053
# Velocity P-wave (km/s) = 3.24995 6.69189 5.26040
#
# Compressibility (1/GPa) = 0.02171016
#
# Stress axis : x y z
#
# Youngs Moduli (GPa) = 46.04563 149.97905 138.96052
#
# Poissons Ratio (x) = 0.03452 0.71385
# Poissons Ratio (y) = 0.01060 0.21795
# Poissons Ratio (z) = 0.23654 0.23523
#
# Static dielectric constant tensor:
#      x y z
#    x 1.863170 0.000000 0.000000 
#    y 0.000000 2.520470 0.000000 
#    z 0.000000 0.000000 1.919470 
# 
# From -- ./inp_files/36493.got.cif
#   From: 2010.05.17/outbox.cif.g08.bks.cpg/sg72_19_cif.got.tgz:36493.got - 2010.06.03 17:03:01.
