data_PCOD9529998
_publ_section_title
;
Structure prediction by ZEFSAII (Michael W. Deem and Ramdas Pophale) SiO2 
 PCOD9529998
Probable space group: I B C A 
;
_chemical_formula_sum "Si O2"
_cell_formula_units_Z 72
_cell_length_a 13.830922
_cell_length_b 22.279361
_cell_length_c 9.821834
_cell_angle_alpha 90.000000
_cell_angle_beta 90.000000
_cell_angle_gamma 90.000000
_cell_volume 3026.540240
_symmetry_space_group_name_H-M "I B C A "
_symmetry_group_IT_number 73
_symmetry_cell_setting 'orthorhombic'
loop_
_space_group_symop_operation_xyz
x,y,z
-x,1/2-y,z
x,-y,1/2-z
1/2-x,y,-z
-x,-y,-z
x,1/2+y,-z
-x,y,1/2+z
1/2+x,-y,z
1/2+x,1/2+y,1/2+z
1/2-x,-y,1/2+z
1/2+x,1/2-y,-z
-x,1/2+y,1/2-z
1/2-x,1/2-y,1/2-z
1/2+x,y,1/2-z
1/2-x,1/2+y,z
x,1/2-y,1/2+z
loop_
_atom_site_type_symbol
_atom_site_label
_atom_site_fract_x
_atom_site_fract_y
_atom_site_fract_z
Si Si1 0.942733 0.690219 0.925119
Si Si2 0.750000 0.022337 0.000000
Si Si3 0.278472 0.872121 0.215803
Si Si4 0.912064 0.952265 0.126040
Si Si5 0.061905 0.632715 0.706253
O O1 0.833556 0.678896 0.871578
O O2 0.000000 0.750000 0.886272
O O3 0.998299 0.638618 0.841164
O O4 0.949030 0.681298 0.085973
O O5 0.739974 0.068343 0.875460
O O6 0.652397 0.982262 0.993094
O O7 0.347715 0.893875 0.335752
O O8 0.170461 0.858076 0.256887
O O9 0.021277 0.926505 0.127122
O O10 0.912015 0.000000 0.250000
#
# Coordination Sequence:
#
# PCOD9529998 Si02
#       5
#    16   8  16  16  16
#     4  11  24  44  66  92 124 169 222 275 332 379
#     4  10  18  38  62  90 136 168 210 260 326 390
#     4  10  21  42  60  91 134 168 212 271 324 391
#     4   9  22  36  59  99 129 172 220 254 325 393
#     4  11  23  42  66  93 131 166 219 270 319 400
#
# _framework density 23.789541
#
# number of rings (size 3 to 8) (size 9 to 14) (size 15 to 20)
#    0.000    1.778    2.222    0.667    3.111    4.444 
#    0.000    4.444    0.000    0.000    0.000    0.000 
#    0.000    0.000    0.000    0.000    0.000    0.000 
#
# Total GULP energy -200544.298813 kJ/mol
# GULP energy per Si atom -5570.674967 kJ/mol
# Density = 2.373540 g / cm^3
# Si number density = 23.789541 Si / 1000 Ang^3
#
#
#
# Elastic Constant Matrix: (Units=GPa)
#
#
# Indices 1 2 3 4 5 6 
#
# 1 140.6953 19.6570 4.9170 0.0005 -0.0002 -0.0004
# 2 19.6570 48.4507 -15.4441 0.0005 -0.0002 -0.0003
# 3 4.9170 -15.4441 30.5232 0.0030 -0.0013 -0.0021
# 4 0.0005 0.0005 0.0030 16.0948 -0.0006 -0.0007
# 5 -0.0002 -0.0002 -0.0013 -0.0006 10.4554 0.0003
# 6 -0.0004 -0.0003 -0.0021 -0.0007 0.0003 -75.9393
#
#
#
# Elastic Compliance Matrix: (Units=1/GPa)
#
#
# Indices 1 2 3 4 5 6 
#
# 1 0.007823 -0.004263 -0.003417 0.000001 0.000000 0.000000
# 2 -0.004263 0.026932 0.014314 -0.000003 0.000002 0.000000
# 3 -0.003417 0.014314 0.040555 -0.000008 0.000005 -0.000001
# 4 0.000001 -0.000003 -0.000008 0.062132 0.000003 -0.000001
# 5 0.000000 0.000002 0.000005 0.000003 0.095645 0.000000
# 6 0.000000 0.000000 -0.000001 -0.000001 0.000000 -0.013168
#
#
# Mechanical properties :
#
#
# Convention : Reuss Voigt Hill
#
# Bulk Modulus (GPa) = 11.28974 26.43658 18.86316
# Shear Modulus (GPa) = 21.17070 4.15812 12.66441
#
# Velocity S-wave (km/s) = 2.98638 1.32351 2.30978
# Velocity P-wave (km/s) = 4.08011 3.67047 3.88070
#
# Compressibility (1/GPa) = 0.08857601
#
# Stress axis : x y z
#
# Youngs Moduli (GPa) = 127.83525 37.13106 24.65800
#
# Poissons Ratio (x) = 0.15829 0.08426
# Poissons Ratio (y) = 0.54495 -0.35294
# Poissons Ratio (z) = 0.43683 -0.53148
#
# Static dielectric constant tensor:
#      x y z
#    x 2.010590 0.000000 0.000000 
#    y 0.000000 1.959880 0.000000 
#    z 0.000000 0.000000 1.885850 
# 
# From -- ./inp_files/4809.got.cif
#   From: 2010.05.17/outbox.cif.g08.bks.cpg/sg73_3_cif.got.tgz:4809.got - 2010.06.03 17:35:07.
