data_PCOD9529081
_publ_section_title
;
Structure prediction by ZEFSAII (Michael W. Deem and Ramdas Pophale) SiO2 
 PCOD9529081
Probable space group: I B A M
;
_chemical_formula_sum "Si O2"
_cell_formula_units_Z 88
_cell_length_a 14.116745
_cell_length_b 18.038794
_cell_length_c 15.718982
_cell_angle_alpha 90.000000
_cell_angle_beta 90.000000
_cell_angle_gamma 90.000000
_cell_volume 4002.823912
_symmetry_space_group_name_H-M "I B A M"
_symmetry_group_IT_number 72
_symmetry_cell_setting 'orthorhombic'
loop_
_space_group_symop_operation_xyz
x,y,z
-x,-y,z
x,-y,1/2-z
-x,y,1/2-z
-x,-y,-z
x,y,-z
-x,y,1/2+z
x,-y,1/2+z
1/2+x,1/2+y,1/2+z
1/2-x,1/2-y,1/2+z
1/2+x,1/2-y,-z
1/2-x,1/2+y,-z
1/2-x,1/2-y,1/2-z
1/2+x,1/2+y,1/2-z
1/2-x,1/2+y,z
1/2+x,1/2-y,z
loop_
_atom_site_type_symbol
_atom_site_label
_atom_site_fract_x
_atom_site_fract_y
_atom_site_fract_z
Si Si1 0.378624 0.904372 0.000000
Si Si2 0.641577 0.329596 0.904387
Si Si3 0.235426 0.676609 0.351619
Si Si4 0.727952 0.927076 0.803997
Si Si5 0.045901 0.780780 0.157163
Si Si6 0.969842 0.396146 0.849344
O O1 0.302437 0.875668 0.926072
O O2 0.457588 0.918107 0.923012
O O3 0.682503 0.255110 0.861084
O O4 0.682590 0.400845 0.857688
O O5 0.529010 0.321816 0.902838
O O6 0.678149 0.328410 0.000000
O O7 0.208046 0.638817 0.262964
O O8 0.347819 0.690315 0.351710
O O9 0.633377 0.932945 0.859902
O O10 0.745298 0.000000 0.750000
O O11 0.042076 0.692796 0.140535
O O12 0.000000 0.793357 0.250000
O O13 0.000000 0.411076 0.750000
#
# Coordination Sequence:
#
# PCOD9529081 Si02
#       6
#     8  16  16  16  16  16
#     4  12  24  40  71 110 141 183 238 314 387 435
#     4  12  24  43  70 112 142 188 253 320 374 442
#     4  12  22  44  71 104 142 187 251 312 373 441
#     4  12  27  47  68  99 152 204 238 298 383 465
#     4  11  21  37  71 105 139 182 241 311 373 428
#     4  11  22  41  67 104 141 181 242 306 373 441
#
# _framework density 21.984479
#
# number of rings (size 3 to 8) (size 9 to 14) (size 15 to 20)
#    0.000    0.364    8.182    1.636    2.545    0.364 
#    1.636    2.727    0.000    1.091    0.000    0.000 
#    0.000    0.000    0.000    0.000    0.000    0.000 
#
# Total GULP energy -245241.286190 kJ/mol
# GULP energy per Si atom -5573.665595 kJ/mol
# Density = 2.193444 g / cm^3
# Si number density = 21.984479 Si / 1000 Ang^3
#
#
#
# Elastic Constant Matrix: (Units=GPa)
#
#
# Indices 1 2 3 4 5 6 
#
# 1 178.8517 49.6768 33.0873 0.0000 0.0000 0.0000
# 2 49.6768 75.4473 28.1776 0.0000 0.0000 0.0002
# 3 33.0873 28.1776 108.9924 0.0000 0.0000 0.0002
# 4 0.0000 0.0000 0.0000 2.2204 0.0000 0.0002
# 5 0.0000 0.0000 0.0000 0.0000 44.0404 0.0001
# 6 0.0000 0.0002 0.0002 0.0002 0.0001 -85.9351
#
#
#
# Elastic Compliance Matrix: (Units=1/GPa)
#
#
# Indices 1 2 3 4 5 6 
#
# 1 0.006945 -0.004190 -0.001025 0.000000 0.000000 0.000000
# 2 -0.004190 0.017198 -0.003174 0.000000 0.000000 0.000000
# 3 -0.001025 -0.003174 0.010307 0.000000 0.000000 0.000000
# 4 0.000000 0.000000 0.000000 0.450374 0.000000 0.000001
# 5 0.000000 0.000000 0.000000 0.000000 0.022706 0.000000
# 6 0.000000 0.000000 0.000000 0.000001 0.000000 -0.011637
#
#
# Mechanical properties :
#
#
# Convention : Reuss Voigt Hill
#
# Bulk Modulus (GPa) = 56.58807 65.01941 60.80374
# Shear Modulus (GPa) = 9.64203 8.88845 9.26524
#
# Velocity S-wave (km/s) = 2.09651 2.01292 2.05514
# Velocity P-wave (km/s) = 5.62640 5.91961 5.77487
#
# Compressibility (1/GPa) = 0.01767157
#
# Stress axis : x y z
#
# Youngs Moduli (GPa) = 143.99771 58.14471 97.02330
#
# Poissons Ratio (x) = 0.24361 0.09945
# Poissons Ratio (y) = 0.60331 0.30799
# Poissons Ratio (z) = 0.14760 0.18458
#
# Static dielectric constant tensor:
#      x y z
#    x 1.814490 0.000000 0.000000 
#    y 0.000000 1.816590 0.000000 
#    z 0.000000 0.000000 1.839630 
# 
# From -- ./inp_files/21682.got.cif
#   From: 2010.05.17/outbox.cif.g08.bks.cpg/sg72_11_cif.got.tgz:21682.got - 2010.06.03 17:03:01.
