data_PCOD9529774
_publ_section_title
;
Structure prediction by ZEFSAII (Michael W. Deem and Ramdas Pophale) SiO2 
 PCOD9529774
Probable space group: I B C A 
;
_chemical_formula_sum "Si O2"
_cell_formula_units_Z 88
_cell_length_a 29.113330
_cell_length_b 14.988891
_cell_length_c 8.393974
_cell_angle_alpha 90.000000
_cell_angle_beta 90.000000
_cell_angle_gamma 90.000000
_cell_volume 3662.933247
_symmetry_space_group_name_H-M "I B C A "
_symmetry_group_IT_number 73
_symmetry_cell_setting 'orthorhombic'
loop_
_space_group_symop_operation_xyz
x,y,z
-x,1/2-y,z
x,-y,1/2-z
1/2-x,y,-z
-x,-y,-z
x,1/2+y,-z
-x,y,1/2+z
1/2+x,-y,z
1/2+x,1/2+y,1/2+z
1/2-x,-y,1/2+z
1/2+x,1/2-y,-z
-x,1/2+y,1/2-z
1/2-x,1/2-y,1/2-z
1/2+x,y,1/2-z
1/2-x,1/2+y,z
x,1/2-y,1/2+z
loop_
_atom_site_type_symbol
_atom_site_label
_atom_site_fract_x
_atom_site_fract_y
_atom_site_fract_z
Si Si1 0.000000 0.250000 0.757314
Si Si2 0.433786 0.176489 0.500165
Si Si3 0.250000 0.873878 0.000000
Si Si4 0.799096 0.500000 0.750000
Si Si5 0.448346 0.508138 0.056871
Si Si6 0.356350 0.433488 0.473295
Si Si7 0.158871 0.141929 0.354996
O O1 0.957288 0.277435 0.648494
O O2 0.975827 0.178675 0.871662
O O3 0.427400 0.073905 0.457980
O O4 0.385322 0.197386 0.582765
O O5 0.294337 0.823539 0.932611
O O6 0.232310 0.938313 0.859771
O O7 0.830557 0.563929 0.640100
O O8 0.445568 0.500000 0.250000
O O9 0.411500 0.584271 0.016261
O O10 0.500000 0.500000 0.000000
O O11 0.339166 0.367315 0.335525
O O12 0.347269 0.536480 0.408984
#
# Coordination Sequence:
#
# PCOD9529774 Si02
#       7
#     8  16   8   8  16  16  16
#     4  10  22  38  58  74 104 150 198 226 270 316
#     4  10  20  38  55  79 106 144 189 232 265 333
#     4  10  18  30  50  76 104 148 178 226 268 332
#     4  10  18  28  48  72 114 148 184 198 262 346
#     4  11  20  32  52  81 117 147 172 222 283 334
#     4   9  17  31  45  76 112 148 172 213 266 337
#     4   9  17  33  52  72 108 139 178 223 276 319
#
# _framework density 24.024462
#
# number of rings (size 3 to 8) (size 9 to 14) (size 15 to 20)
#    0.000    2.182    3.636    3.273    1.273    0.000 
#    3.273    0.000    0.000    1.091    0.000    0.000 
#    0.000    0.000    0.000    0.000    0.000    0.000 
#
# Total GULP energy -245147.738850 kJ/mol
# GULP energy per Si atom -5571.539519 kJ/mol
# Density = 2.396978 g / cm^3
# Si number density = 24.024462 Si / 1000 Ang^3
#
#
#
# Elastic Constant Matrix: (Units=GPa)
#
#
# Indices 1 2 3 4 5 6 
#
# 1 193.1171 2.1888 61.0717 0.0000 0.0000 0.0000
# 2 2.1888 17.2615 6.5769 0.0000 0.0000 0.0000
# 3 61.0717 6.5769 105.0179 0.0000 0.0000 0.0000
# 4 0.0000 0.0000 0.0000 8.8376 0.0000 0.0000
# 5 0.0000 0.0000 0.0000 0.0000 43.2160 0.0000
# 6 0.0000 0.0000 0.0000 0.0000 0.0000 17.8555
#
#
#
# Elastic Compliance Matrix: (Units=1/GPa)
#
#
# Indices 1 2 3 4 5 6 
#
# 1 0.006352 0.000617 -0.003732 0.000000 0.000000 0.000000
# 2 0.000617 0.059408 -0.004079 0.000000 0.000000 0.000000
# 3 -0.003732 -0.004079 0.011948 0.000000 0.000000 0.000000
# 4 0.000000 0.000000 0.000000 0.113153 0.000000 0.000000
# 5 0.000000 0.000000 0.000000 0.000000 0.023140 0.000000
# 6 0.000000 0.000000 0.000000 0.000000 0.000000 0.056005
#
#
# Mechanical properties :
#
#
# Convention : Reuss Voigt Hill
#
# Bulk Modulus (GPa) = 15.79317 50.56345 33.17831
# Shear Modulus (GPa) = 16.36655 30.35244 23.35950
#
# Velocity S-wave (km/s) = 2.61290 3.55829 3.12159
# Velocity P-wave (km/s) = 3.96119 6.16232 5.18002
#
# Compressibility (1/GPa) = 0.06331852
#
# Stress axis : x y z
#
# Youngs Moduli (GPa) = 157.44291 16.83265 83.69543
#
# Poissons Ratio (x) = -0.01038 0.31237
# Poissons Ratio (y) = -0.09709 0.34140
# Poissons Ratio (z) = 0.58762 0.06866
#
# Static dielectric constant tensor:
#      x y z
#    x 2.071120 0.000000 0.000000 
#    y 0.000000 1.867290 0.000000 
#    z 0.000000 0.000000 1.939500 
# 
# From -- ./inp_files/6664.got.cif
#   From: 2010.05.17/outbox.cif.g08.bks.cpg/sg73_4_cif.got.tgz:6664.got - 2010.06.03 17:35:07.
