data_PCOD9529636
_publ_section_title
;
Structure prediction by ZEFSAII (Michael W. Deem and Ramdas Pophale) SiO2 
 PCOD9529636
Probable space group: I B C A 
;
_chemical_formula_sum "Si O2"
_cell_formula_units_Z 80
_cell_length_a 14.815625
_cell_length_b 8.344731
_cell_length_c 26.431666
_cell_angle_alpha 90.000000
_cell_angle_beta 90.000000
_cell_angle_gamma 90.000000
_cell_volume 3267.810442
_symmetry_space_group_name_H-M "I B C A "
_symmetry_group_IT_number 73
_symmetry_cell_setting 'orthorhombic'
loop_
_space_group_symop_operation_xyz
x,y,z
-x,1/2-y,z
x,-y,1/2-z
1/2-x,y,-z
-x,-y,-z
x,1/2+y,-z
-x,y,1/2+z
1/2+x,-y,z
1/2+x,1/2+y,1/2+z
1/2-x,-y,1/2+z
1/2+x,1/2-y,-z
-x,1/2+y,1/2-z
1/2-x,1/2-y,1/2-z
1/2+x,y,1/2-z
1/2-x,1/2+y,z
x,1/2-y,1/2+z
loop_
_atom_site_type_symbol
_atom_site_label
_atom_site_fract_x
_atom_site_fract_y
_atom_site_fract_z
Si Si1 0.000000 0.250000 0.299569
Si Si2 0.857390 0.138684 0.647947
Si Si3 0.368558 0.000000 0.750000
Si Si4 0.320801 0.498073 0.045044
Si Si5 0.933120 0.525705 0.866130
Si Si6 0.406486 0.337117 0.537630
O O1 0.063992 0.362972 0.333672
O O2 0.935213 0.356673 0.265571
O O3 0.820327 0.059641 0.699279
O O4 0.870736 0.328906 0.652233
O O5 0.960970 0.077017 0.638080
O O6 0.804139 0.076248 0.599112
O O7 0.337644 0.308914 0.047766
O O8 0.250000 0.524445 0.000000
O O9 0.403522 0.594487 0.019103
O O10 0.902535 0.481284 0.922573
O O11 0.500000 0.250000 0.547521
#
# Coordination Sequence:
#
# PCOD9529636 Si02
#       6
#     8  16   8  16  16  16
#     4  10  16  30  48  90 132 164 214 276 334 368
#     4  10  21  36  59  92 131 176 218 272 330 387
#     4  10  18  32  56  88 130 178 218 270 322 394
#     4  12  26  41  60  93 137 175 218 276 342 400
#     4  10  19  34  60  94 132 169 221 275 324 388
#     4  12  22  40  63  93 127 174 223 272 329 406
#
# _framework density 24.481223
#
# number of rings (size 3 to 8) (size 9 to 14) (size 15 to 20)
#    0.000    1.200    3.000    6.000    2.800    0.000 
#    0.000    1.000    0.000    0.000    0.000   28.000 
#    0.000    0.000    0.000    0.000    0.000    0.000 
#
# Total GULP energy -223866.186052 kJ/mol
# GULP energy per Si atom -5596.654651 kJ/mol
# Density = 2.442550 g / cm^3
# Si number density = 24.481223 Si / 1000 Ang^3
#
#
#
# Elastic Constant Matrix: (Units=GPa)
#
#
# Indices 1 2 3 4 5 6 
#
# 1 35.5570 13.5570 20.2091 0.0000 0.0000 0.0000
# 2 13.5570 148.8968 66.8435 0.0000 0.0000 0.0000
# 3 20.2091 66.8435 197.5804 0.0000 0.0000 0.0000
# 4 0.0000 0.0000 0.0000 54.8487 0.0000 0.0000
# 5 0.0000 0.0000 0.0000 0.0000 20.0144 0.0000
# 6 0.0000 0.0000 0.0000 0.0000 0.0000 12.9296
#
#
#
# Elastic Compliance Matrix: (Units=1/GPa)
#
#
# Indices 1 2 3 4 5 6 
#
# 1 0.030182 -0.001606 -0.002544 0.000000 0.000000 0.000000
# 2 -0.001606 0.008004 -0.002544 0.000000 0.000000 0.000000
# 3 -0.002544 -0.002544 0.006182 0.000000 0.000000 0.000000
# 4 0.000000 0.000000 0.000000 0.018232 0.000000 0.000000
# 5 0.000000 0.000000 0.000000 0.000000 0.049964 0.000000
# 6 0.000000 0.000000 0.000000 0.000000 0.000000 0.077342
#
#
# Mechanical properties :
#
#
# Convention : Reuss Voigt Hill
#
# Bulk Modulus (GPa) = 32.27769 64.80596 48.54182
# Shear Modulus (GPa) = 23.40606 36.32017 29.86312
#
# Velocity S-wave (km/s) = 3.09541 3.85592 3.49641
# Velocity P-wave (km/s) = 5.09791 6.80833 6.01424
#
# Compressibility (1/GPa) = 0.03098115
#
# Stress axis : x y z
#
# Youngs Moduli (GPa) = 33.13237 124.93451 161.76134
#
# Poissons Ratio (x) = 0.20066 0.41148
# Poissons Ratio (y) = 0.05321 0.41146
# Poissons Ratio (z) = 0.08428 0.31779
#
# Static dielectric constant tensor:
#      x y z
#    x 2.124950 0.000000 0.000000 
#    y 0.000000 1.923380 0.000000 
#    z 0.000000 0.000000 1.944010 
# 
# From -- ./inp_files/32329.got.cif
#   From: 2010.05.17/outbox.cif.g08.bks.cpg/sg73_17_cif.got.tgz:32329.got - 2010.06.03 17:35:07.
