data_PCOD9529394
_publ_section_title
;
Structure prediction by ZEFSAII (Michael W. Deem and Ramdas Pophale) SiO2 
 PCOD9529394
Probable space group: I B A M
;
_chemical_formula_sum "Si O2"
_cell_formula_units_Z 72
_cell_length_a 23.790682
_cell_length_b 8.926254
_cell_length_c 18.411400
_cell_angle_alpha 90.000000
_cell_angle_beta 90.000000
_cell_angle_gamma 90.000000
_cell_volume 3909.875658
_symmetry_space_group_name_H-M "I B A M"
_symmetry_group_IT_number 72
_symmetry_cell_setting 'orthorhombic'
loop_
_space_group_symop_operation_xyz
x,y,z
-x,-y,z
x,-y,1/2-z
-x,y,1/2-z
-x,-y,-z
x,y,-z
-x,y,1/2+z
x,-y,1/2+z
1/2+x,1/2+y,1/2+z
1/2-x,1/2-y,1/2+z
1/2+x,1/2-y,-z
1/2-x,1/2+y,-z
1/2-x,1/2-y,1/2-z
1/2+x,1/2+y,1/2-z
1/2-x,1/2+y,z
1/2+x,1/2-y,z
loop_
_atom_site_type_symbol
_atom_site_label
_atom_site_fract_x
_atom_site_fract_y
_atom_site_fract_z
Si Si1 0.062189 0.986611 0.371876
Si Si2 0.186923 0.016025 0.083095
Si Si3 0.438216 0.748620 0.251759
Si Si4 0.848759 0.500000 0.250000
Si Si5 0.766724 0.695518 0.831031
O O1 0.119406 0.999313 0.416099
O O2 0.068394 0.833220 0.325752
O O3 0.061641 0.118144 0.311650
O O4 0.000000 0.000000 0.406986
O O5 0.205629 0.167346 0.125327
O O6 0.214886 0.877634 0.126232
O O7 0.206980 0.020237 0.000000
O O8 0.500000 0.819896 0.250000
O O9 0.389091 0.862628 0.268991
O O10 0.810249 0.560147 0.184645
O O11 0.750000 0.750000 0.750000
#
# Coordination Sequence:
#
# PCOD9529394 Si02
#       5
#    16  16  16   8  16
#     4   9  19  36  59  85 117 156 198 248 295 355
#     4  12  25  41  60  89 126 160 201 253 310 365
#     4   9  18  32  56  91 120 146 199 254 295 346
#     4  12  19  32  60  86 115 152 198 246 302 346
#     4  12  24  40  62  88 118 162 207 247 297 368
#
# _framework density 18.414908
#
# number of rings (size 3 to 8) (size 9 to 14) (size 15 to 20)
#    0.000    1.333    4.444    3.667    3.111    0.444 
#    0.000    0.000    0.000    0.000    0.000    3.111 
#    0.000    0.000    0.000    0.000    0.000    0.000 
#
# Total GULP energy -200811.871292 kJ/mol
# GULP energy per Si atom -5578.107536 kJ/mol
# Density = 1.837299 g / cm^3
# Si number density = 18.414908 Si / 1000 Ang^3
#
#
#
# Elastic Constant Matrix: (Units=GPa)
#
#
# Indices 1 2 3 4 5 6 
#
# 1 137.6748 46.9714 42.9318 0.0000 0.0000 0.0000
# 2 46.9714 75.5088 29.5766 0.0000 0.0000 0.0000
# 3 42.9318 29.5766 105.6700 0.0000 0.0000 0.0000
# 4 0.0000 0.0000 0.0000 9.5866 0.0000 0.0000
# 5 0.0000 0.0000 0.0000 0.0000 15.6234 0.0000
# 6 0.0000 0.0000 0.0000 0.0000 0.0000 42.5629
#
#
#
# Elastic Compliance Matrix: (Units=1/GPa)
#
#
# Indices 1 2 3 4 5 6 
#
# 1 0.009798 -0.005094 -0.002555 0.000000 0.000000 0.000000
# 2 -0.005094 0.017523 -0.002835 0.000000 0.000000 0.000000
# 3 -0.002555 -0.002835 0.011295 0.000000 0.000000 0.000000
# 4 0.000000 0.000000 0.000000 0.104312 0.000000 0.000000
# 5 0.000000 0.000000 0.000000 0.000000 0.064006 0.000000
# 6 0.000000 0.000000 0.000000 0.000000 0.000000 0.023495
#
#
# Mechanical properties :
#
#
# Convention : Reuss Voigt Hill
#
# Bulk Modulus (GPa) = 56.66451 61.97928 59.32189
# Shear Modulus (GPa) = 19.43403 26.84618 23.14010
#
# Velocity S-wave (km/s) = 3.25213 3.82232 3.54870
# Velocity P-wave (km/s) = 6.70370 7.29455 7.00535
#
# Compressibility (1/GPa) = 0.01764773
#
# Stress axis : x y z
#
# Youngs Moduli (GPa) = 102.05835 57.06803 88.53538
#
# Poissons Ratio (x) = 0.29073 0.22621
# Poissons Ratio (y) = 0.51993 0.25098
# Poissons Ratio (z) = 0.26076 0.16178
#
# Static dielectric constant tensor:
#      x y z
#    x 1.685420 0.000000 0.000000 
#    y 0.000000 1.636570 0.000000 
#    z 0.000000 0.000000 1.597870 
# 
# From -- ./inp_files/27961.got.cif
#   From: 2010.05.17/outbox.cif.g08.bks.cpg/sg72_14_cif.got.tgz:27961.got - 2010.06.03 17:03:01.
