data_PCOD9529097
_publ_section_title
;
Structure prediction by ZEFSAII (Michael W. Deem and Ramdas Pophale) SiO2 
 PCOD9529097
Probable space group: I B A M
;
_chemical_formula_sum "Si O2"
_cell_formula_units_Z 68
_cell_length_a 13.421631
_cell_length_b 9.196978
_cell_length_c 24.779913
_cell_angle_alpha 90.000000
_cell_angle_beta 90.000000
_cell_angle_gamma 90.000000
_cell_volume 3058.793929
_symmetry_space_group_name_H-M "I B A M"
_symmetry_group_IT_number 72
_symmetry_cell_setting 'orthorhombic'
loop_
_space_group_symop_operation_xyz
x,y,z
-x,-y,z
x,-y,1/2-z
-x,y,1/2-z
-x,-y,-z
x,y,-z
-x,y,1/2+z
x,-y,1/2+z
1/2+x,1/2+y,1/2+z
1/2-x,1/2-y,1/2+z
1/2+x,1/2-y,-z
1/2-x,1/2+y,-z
1/2-x,1/2-y,1/2-z
1/2+x,1/2+y,1/2-z
1/2-x,1/2+y,z
1/2+x,1/2-y,z
loop_
_atom_site_type_symbol
_atom_site_label
_atom_site_fract_x
_atom_site_fract_y
_atom_site_fract_z
Si Si1 0.493969 0.172407 0.138304
Si Si2 0.832067 0.650111 0.280995
Si Si3 0.347255 0.403347 0.653562
Si Si4 0.404865 0.392639 0.059782
Si Si5 0.000000 0.000000 0.250000
O O1 0.433511 0.213681 0.193906
O O2 0.601097 0.250863 0.138326
O O3 0.438922 0.242356 0.086924
O O4 0.500000 0.000000 0.137059
O O5 0.853815 0.500000 0.250000
O O6 0.750000 0.750000 0.250000
O O7 0.766980 0.610532 0.332390
O O8 0.348454 0.522113 0.606673
O O9 0.416060 0.447869 0.704962
O O10 0.500000 0.500000 0.054700
O O11 0.360771 0.376269 0.000000
#
# Coordination Sequence:
#
# PCOD9529097 Si02
#       5
#    16  16  16  16   4
#     4  11  23  39  57  93 125 153 193 255 317 353
#     4  12  24  38  58  89 128 164 195 243 303 370
#     4  11  21  39  64  89 119 163 209 242 286 367
#     4   9  19  40  65  85 110 160 215 247 283 357
#     4  12  16  36  64  88 114 152 206 242 276 340
#
# _framework density 22.230983999999999
#
# number of rings (size 3 to 8) (size 9 to 14) (size 15 to 20)
#    0.000    1.176    4.706    4.235    0.000    2.824 
#    0.000    1.176    0.000    5.647    0.000    0.000 
#    0.000    0.000    0.000    0.000    0.000    0.000 
#
# Total GULP energy -189544.628374 kJ/mol
# GULP energy per Si atom -5574.842011 kJ/mol
# Density = 2.218039 g / cm^3
# Si number density = 22.230984 Si / 1000 Ang^3
#
#
#
# Elastic Constant Matrix: (Units=GPa)
#
#
# Indices 1 2 3 4 5 6 
#
# 1 59.6787 10.1797 19.1227 0.0000 0.0000 0.0000
# 2 10.1797 127.6397 48.4774 0.0000 0.0000 0.0000
# 3 19.1227 48.4774 138.7949 0.0000 0.0000 0.0000
# 4 0.0000 0.0000 0.0000 -66.8041 0.0000 0.0000
# 5 0.0000 0.0000 0.0000 0.0000 0.0637 0.0000
# 6 0.0000 0.0000 0.0000 0.0000 0.0000 23.1384
#
#
#
# Elastic Compliance Matrix: (Units=1/GPa)
#
#
# Indices 1 2 3 4 5 6 
#
# 1 0.017564 -0.000555 -0.002226 0.000000 0.000000 0.000000
# 2 -0.000555 0.009050 -0.003085 0.000000 0.000000 0.000000
# 3 -0.002226 -0.003085 0.008589 0.000000 0.000000 0.000000
# 4 0.000000 0.000000 0.000000 -0.014969 0.000000 0.000000
# 5 0.000000 0.000000 0.000000 0.000000 15.695883 0.000000
# 6 0.000000 0.000000 0.000000 0.000000 0.000000 0.043218
#
#
# Mechanical properties :
#
#
# Convention : Reuss Voigt Hill
#
# Bulk Modulus (GPa) = 42.60426 53.51923 48.06175
# Shear Modulus (GPa) = 0.31688 7.83516 4.07602
#
# Velocity S-wave (km/s) = 0.37795 1.87938 1.35553
# Velocity P-wave (km/s) = 4.40414 5.36990 4.91082
#
# Compressibility (1/GPa) = 0.02347183
#
# Stress axis : x y z
#
# Youngs Moduli (GPa) = 56.93337 110.49304 116.42925
#
# Poissons Ratio (x) = 0.06137 0.25917
# Poissons Ratio (y) = 0.03162 0.35913
# Poissons Ratio (z) = 0.12673 0.34082
#
# Static dielectric constant tensor:
#      x y z
#    x 1.834170 0.000000 0.000000 
#    y 0.000000 1.778140 0.000000 
#    z 0.000000 0.000000 1.928490 
# 
# From -- ./inp_files/48437.got.cif
#   From: 2010.05.17/outbox.cif.g08.bks.cpg/sg72_25_cif.got.tgz:48437.got - 2010.06.03 17:03:01.
