data_PCOD9529844
_publ_section_title
;
Structure prediction by ZEFSAII (Michael W. Deem and Ramdas Pophale) SiO2 
 PCOD9529844
Probable space group: I B C A 
;
_chemical_formula_sum "Si O2"
_cell_formula_units_Z 104
_cell_length_a 18.754954
_cell_length_b 14.997847
_cell_length_c 17.117022
_cell_angle_alpha 90.000000
_cell_angle_beta 90.000000
_cell_angle_gamma 90.000000
_cell_volume 4814.743228
_symmetry_space_group_name_H-M "I B C A "
_symmetry_group_IT_number 73
_symmetry_cell_setting 'orthorhombic'
loop_
_space_group_symop_operation_xyz
x,y,z
-x,1/2-y,z
x,-y,1/2-z
1/2-x,y,-z
-x,-y,-z
x,1/2+y,-z
-x,y,1/2+z
1/2+x,-y,z
1/2+x,1/2+y,1/2+z
1/2-x,-y,1/2+z
1/2+x,1/2-y,-z
-x,1/2+y,1/2-z
1/2-x,1/2-y,1/2-z
1/2+x,y,1/2-z
1/2-x,1/2+y,z
x,1/2-y,1/2+z
loop_
_atom_site_type_symbol
_atom_site_label
_atom_site_fract_x
_atom_site_fract_y
_atom_site_fract_z
Si Si1 0.778442 0.827960 0.344979
Si Si2 0.023895 0.104353 0.005517
Si Si3 0.750000 0.085655 0.000000
Si Si4 0.234852 0.375716 0.319251
Si Si5 0.064761 0.399201 0.336041
Si Si6 0.316591 0.420097 0.460318
Si Si7 0.059267 0.615304 0.339951
O O1 0.742673 0.857627 0.424038
O O2 0.759577 0.725895 0.331462
O O3 0.756166 0.889831 0.272520
O O4 0.862658 0.843364 0.349875
O O5 0.106112 0.116907 0.030905
O O6 0.981755 0.142119 0.080614
O O7 0.024583 0.135571 0.914289
O O8 0.000000 0.000000 0.000000
O O9 0.815294 0.015626 0.004141
O O10 0.150764 0.382662 0.339549
O O11 0.286976 0.432680 0.373444
O O12 0.059409 0.507048 0.338428
O O13 0.037803 0.363894 0.251083
O O14 0.250000 0.368072 0.500000
#
# Coordination Sequence:
#
# PCOD9529844 Si02
#       7
#    16  16   8  16  16  16  16
#     4  10  21  35  55  86 114 150 192 243 292 340
#     4  10  18  32  55  83 115 149 189 238 290 348
#     4  10  20  32  52  82 116 144 188 252 280 328
#     4  10  20  36  58  81 115 153 196 239 291 351
#     4   9  16  32  56  81 112 155 191 230 296 348
#     4  10  20  35  57  87 112 150 197 240 285 343
#     4   9  18  32  53  83 115 149 191 236 287 352
#
# _framework density 21.600321000000001
#
# number of rings (size 3 to 8) (size 9 to 14) (size 15 to 20)
#    0.462    1.846    1.538    2.769    1.077    1.846 
#    0.000    8.462    0.000    1.846    0.000   11.846 
#    0.000    0.000    0.000    0.000    0.000    0.000 
#
# Total GULP energy -289524.081672 kJ/mol
# GULP energy per Si atom -5567.770801 kJ/mol
# Density = 2.155116 g / cm^3
# Si number density = 21.600321 Si / 1000 Ang^3
#
#
#
# Elastic Constant Matrix: (Units=GPa)
#
#
# Indices 1 2 3 4 5 6 
#
# 1 48.1171 4.8672 46.5144 0.0000 0.0000 0.0000
# 2 4.8672 36.3578 15.5853 0.0000 0.0000 0.0000
# 3 46.5144 15.5853 188.6493 0.0000 0.0000 0.0000
# 4 0.0000 0.0000 0.0000 16.0565 0.0000 0.0000
# 5 0.0000 0.0000 0.0000 0.0000 27.3923 0.0000
# 6 0.0000 0.0000 0.0000 0.0000 0.0000 8.9968
#
#
#
# Elastic Compliance Matrix: (Units=1/GPa)
#
#
# Indices 1 2 3 4 5 6 
#
# 1 0.027309 -0.000798 -0.006668 0.000000 0.000000 0.000000
# 2 -0.000798 0.028538 -0.002161 0.000000 0.000000 0.000000
# 3 -0.006668 -0.002161 0.007123 0.000000 0.000000 0.000000
# 4 0.000000 0.000000 0.000000 0.062280 0.000000 0.000000
# 5 0.000000 0.000000 0.000000 0.000000 0.036507 0.000000
# 6 0.000000 0.000000 0.000000 0.000000 0.000000 0.111151
#
#
# Mechanical properties :
#
#
# Convention : Reuss Voigt Hill
#
# Bulk Modulus (GPa) = 22.87419 45.22865 34.05142
# Shear Modulus (GPa) = 16.30087 24.23293 20.26690
#
# Velocity S-wave (km/s) = 2.75009 3.35308 3.06644
# Velocity P-wave (km/s) = 4.54936 5.99793 5.32315
#
# Compressibility (1/GPa) = 0.04371739
#
# Stress axis : x y z
#
# Youngs Moduli (GPa) = 36.61829 35.04159 140.38346
#
# Poissons Ratio (x) = 0.02795 0.93601
# Poissons Ratio (y) = 0.02921 0.30336
# Poissons Ratio (z) = 0.24415 0.07572
#
# Static dielectric constant tensor:
#      x y z
#    x 1.770730 0.000000 0.000000 
#    y 0.000000 1.866010 0.000000 
#    z 0.000000 0.000000 1.934620 
# 
# From -- ./inp_files/22633.got.cif
#   From: 2010.05.17/outbox.cif.g08.bks.cpg/sg73_12_cif.got.tgz:22633.got - 2010.06.03 17:35:07.
