data_PCOD9529543
_publ_section_title
;
Structure prediction by ZEFSAII (Michael W. Deem and Ramdas Pophale) SiO2 
 PCOD9529543
Probable space group: I B A M
;
_chemical_formula_sum "Si O2"
_cell_formula_units_Z 52
_cell_length_a 27.000000
_cell_length_b 9.000000
_cell_length_c 21.000000
_cell_angle_alpha 90.000000
_cell_angle_beta 90.000000
_cell_angle_gamma 90.000000
_cell_volume 5103.000000
_symmetry_space_group_name_H-M "I B A M"
_symmetry_group_IT_number 72
_symmetry_cell_setting 'orthorhombic'
loop_
_space_group_symop_operation_xyz
x,y,z
-x,-y,z
x,-y,1/2-z
-x,y,1/2-z
-x,-y,-z
x,y,-z
-x,y,1/2+z
x,-y,1/2+z
1/2+x,1/2+y,1/2+z
1/2-x,1/2-y,1/2+z
1/2+x,1/2-y,-z
1/2-x,1/2+y,-z
1/2-x,1/2-y,1/2-z
1/2+x,1/2+y,1/2-z
1/2-x,1/2+y,z
1/2+x,1/2-y,z
loop_
_atom_site_type_symbol
_atom_site_label
_atom_site_fract_x
_atom_site_fract_y
_atom_site_fract_z
Si Si1 0.052311 0.800168 0.782734
Si Si2 0.757097 0.190798 0.320617
Si Si3 0.359588 0.831710 0.869597
Si Si4 0.404128 0.449342 0.662470
Si Si5 0.301388 0.424146 0.870772
Si Si6 0.678918 0.920816 0.500000
Si Si7 0.222771 0.914318 0.500000
Si Si8 0.595857 0.000000 0.750000
O O1 0.089725 0.864243 0.729429
O O2 0.064418 0.627599 0.785987
O O3 0.000000 0.816023 0.750000
O O4 0.055924 0.918042 0.840088
O O5 0.750000 0.250000 0.250000
O O6 0.808298 0.252133 0.349768
O O7 0.713665 0.254686 0.364592
O O8 0.761581 0.015198 0.328340
O O9 0.397932 0.694407 0.882384
O O10 0.351499 0.920345 0.934554
O O11 0.374110 0.927219 0.808025
O O12 0.354199 0.542993 0.657779
O O13 0.297962 0.497740 0.939268
O O14 0.718969 0.051526 0.500000
O O15 0.707331 0.758456 0.500000
#
# Coordination Sequence:
#
# PCOD9529543 Si02
#       8
#    16  16  16  16  16   8   8   8
#     4  10  20  37  61  88 118 147 182 241 324 385
#     4  11  23  31  49  75 113 155 196 239 296 332
#     4  10  22  38  54  83 121 165 206 250 295 351
#     4   9  19  33  54  83 112 146 189 241 293 353
#     4  11  22  35  51  77 108 159 199 247 278 335
#     4  12  22  42  56  80 120 177 223 253 295 340
#     4  12  20  40  56  76 113 164 229 248 282 332
#     4  10  23  38  60  94 122 150 192 256 309 374
#
# _framework density 10.190084000000001
#
# number of rings (size 3 to 8) (size 9 to 14) (size 15 to 20)
#    0.000    1.538    4.615    1.615   12.923    0.000 
#    2.769    0.000    0.000    0.000    0.000   30.154 
#    0.000    0.000    0.000    0.000    0.000    0.000 
#
# Total GULP energy -289486.151710 kJ/mol
# GULP energy per Si atom -5567.041379 kJ/mol
# Density = 1.016689 g / cm^3
# Si number density = 10.190084 Si / 1000 Ang^3
#
#
#
# Elastic Constant Matrix: (Units=GPa)
#
#
# Indices 1 2 3 4 5 6 
#
# 1 63.5044 37.7166 28.9445 0.0000 0.0000 0.0000
# 2 37.7166 77.0153 21.5538 0.0000 0.0000 0.0000
# 3 28.9445 21.5538 99.5833 0.0000 0.0000 0.0000
# 4 0.0000 0.0000 0.0000 27.5610 0.0000 0.0000
# 5 0.0000 0.0000 0.0000 0.0000 -32.7635 0.0000
# 6 0.0000 0.0000 0.0000 0.0000 0.0000 58.5288
#
#
#
# Elastic Compliance Matrix: (Units=1/GPa)
#
#
# Indices 1 2 3 4 5 6 
#
# 1 0.024144 -0.010496 -0.004746 0.000000 0.000000 0.000000
# 2 -0.010496 0.018384 -0.000928 0.000000 0.000000 0.000000
# 3 -0.004746 -0.000928 0.011622 0.000000 0.000000 0.000000
# 4 0.000000 0.000000 0.000000 0.036283 0.000000 0.000000
# 5 0.000000 0.000000 0.000000 0.000000 -0.030522 0.000000
# 6 0.000000 0.000000 0.000000 0.000000 0.000000 0.017086
#
#
# Mechanical properties :
#
#
# Convention : Reuss Voigt Hill
#
# Bulk Modulus (GPa) = 45.84999 46.28142 46.06571
# Shear Modulus (GPa) = 42.87905 20.79114 31.83510
#
# Velocity S-wave (km/s) = 4.59187 3.19747 3.95658
# Velocity P-wave (km/s) = 7.11758 6.03242 6.59735
#
# Compressibility (1/GPa) = 0.02181026
#
# Stress axis : x y z
#
# Youngs Moduli (GPa) = 41.41881 54.39419 86.04219
#
# Poissons Ratio (x) = 0.57090 0.40834
# Poissons Ratio (y) = 0.43472 0.07989
# Poissons Ratio (z) = 0.19657 0.05050
#
# Static dielectric constant tensor:
#      x y z
#    x 1.761310 0.000000 0.000000 
#    y 0.000000 1.842120 0.000000 
#    z 0.000000 0.000000 1.682730 
# 
# From -- ./inp_files/40825.got.cif
#   From: 2010.05.17/outbox.ucp.g08.bks.cvg/sg72_21_cif.got.tgz:40825.got - 2010.06.11 16:33:07.
