data_PCOD9529054
_publ_section_title
;
Structure prediction by ZEFSAII (Michael W. Deem and Ramdas Pophale) SiO2 
 PCOD9529054
Probable space group: I B A M
;
_chemical_formula_sum "Si O2"
_cell_formula_units_Z 80
_cell_length_a 19.027806
_cell_length_b 27.590393
_cell_length_c 8.827262
_cell_angle_alpha 90.000000
_cell_angle_beta 90.000000
_cell_angle_gamma 90.000000
_cell_volume 4634.177012
_symmetry_space_group_name_H-M "I B A M"
_symmetry_group_IT_number 72
_symmetry_cell_setting 'orthorhombic'
loop_
_space_group_symop_operation_xyz
x,y,z
-x,-y,z
x,-y,1/2-z
-x,y,1/2-z
-x,-y,-z
x,y,-z
-x,y,1/2+z
x,-y,1/2+z
1/2+x,1/2+y,1/2+z
1/2-x,1/2-y,1/2+z
1/2+x,1/2-y,-z
1/2-x,1/2+y,-z
1/2-x,1/2-y,1/2-z
1/2+x,1/2+y,1/2-z
1/2-x,1/2+y,z
1/2+x,1/2-y,z
loop_
_atom_site_type_symbol
_atom_site_label
_atom_site_fract_x
_atom_site_fract_y
_atom_site_fract_z
Si Si1 0.075107 0.152512 0.316947
Si Si2 0.573154 0.053752 0.319286
Si Si3 0.709565 0.099891 0.817935
Si Si4 0.218421 0.201476 0.681781
Si Si5 0.856122 0.051497 0.181933
O O1 0.072454 0.153118 0.500000
O O2 0.139076 0.187633 0.269302
O O3 0.097021 0.097653 0.270575
O O4 0.000000 0.165547 0.250000
O O5 0.500000 0.072806 0.250000
O O6 0.568081 0.050653 0.500000
O O7 0.639687 0.084773 0.267764
O O8 0.582669 0.000000 0.250000
O O9 0.734419 0.154365 0.782155
O O10 0.775550 0.065283 0.777726
O O11 0.699213 0.096268 0.000000
O O12 0.217207 0.205683 0.500000
O O13 0.250000 0.250000 0.750000
O O14 0.876583 0.000000 0.250000
O O15 0.859409 0.048840 0.000000
#
# Coordination Sequence:
#
# PCOD9529054 Si02
#       5
#    16  16  16  16  16
#     4   9  19  35  52  74 103 134 165 202 245 291
#     4  11  21  33  50  73 102 136 171 208 251 304
#     4   9  18  34  52  72 100 132 167 212 256 297
#     4   9  19  36  57  78 102 130 166 211 257 302
#     4   9  18  31  48  71 101 134 168 203 242 288
#
# _framework density 17.263043
#
# number of rings (size 3 to 8) (size 9 to 14) (size 15 to 20)
#    0.000    2.600    0.000    5.400    0.000    5.200 
#    0.000    7.000    0.000    2.400    0.000    0.000 
#    0.000    0.000    0.000    0.000    0.000    0.000 
#
# Total GULP energy -223121.214913 kJ/mol
# GULP energy per Si atom -5578.030373 kJ/mol
# Density = 1.722375 g / cm^3
# Si number density = 17.263043 Si / 1000 Ang^3
#
#
#
# Elastic Constant Matrix: (Units=GPa)
#
#
# Indices 1 2 3 4 5 6 
#
# 1 147.6519 60.7323 49.4283 0.0000 0.0000 0.0000
# 2 60.7323 100.5254 28.7437 0.0000 0.0000 0.0000
# 3 49.4283 28.7437 50.1732 0.0000 0.0000 0.0000
# 4 0.0000 0.0000 0.0000 31.2791 0.0000 0.0000
# 5 0.0000 0.0000 0.0000 0.0000 29.0069 0.0000
# 6 0.0000 0.0000 0.0000 0.0000 0.0000 9.7321
#
#
#
# Elastic Compliance Matrix: (Units=1/GPa)
#
#
# Indices 1 2 3 4 5 6 
#
# 1 0.011566 -0.004460 -0.008839 0.000000 0.000000 0.000000
# 2 -0.004460 0.013617 -0.003407 0.000000 0.000000 0.000000
# 3 -0.008839 -0.003407 0.030591 0.000000 0.000000 0.000000
# 4 0.000000 0.000000 0.000000 0.031970 0.000000 0.000000
# 5 0.000000 0.000000 0.000000 0.000000 0.034475 0.000000
# 6 0.000000 0.000000 0.000000 0.000000 0.000000 0.102753
#
#
# Mechanical properties :
#
#
# Convention : Reuss Voigt Hill
#
# Bulk Modulus (GPa) = 44.72089 64.01768 54.36929
# Shear Modulus (GPa) = 18.80844 24.63336 21.72090
#
# Velocity S-wave (km/s) = 3.30437 3.78159 3.55100
# Velocity P-wave (km/s) = 6.36555 7.49876 6.95527
#
# Compressibility (1/GPa) = 0.02236091
#
# Stress axis : x y z
#
# Youngs Moduli (GPa) = 86.45717 73.44020 32.68958
#
# Poissons Ratio (x) = 0.32757 0.28896
# Poissons Ratio (y) = 0.38563 0.11136
# Poissons Ratio (z) = 0.76423 0.25019
#
# Static dielectric constant tensor:
#      x y z
#    x 1.585830 0.000000 0.000000 
#    y 0.000000 1.572740 0.000000 
#    z 0.000000 0.000000 1.579170 
# 
# From -- ./inp_files/4780.got.cif
#   From: 2010.05.17/outbox.cif.g08.bks.cpg/sg72_3_cif.got.tgz:4780.got - 2010.06.03 17:03:01.
