data_PCOD9529248
_publ_section_title
;
Structure prediction by ZEFSAII (Michael W. Deem and Ramdas Pophale) SiO2 
 PCOD9529248
Probable space group: I B A M
;
_chemical_formula_sum "Si O2"
_cell_formula_units_Z 64
_cell_length_a 14.451465
_cell_length_b 8.374464
_cell_length_c 22.312399
_cell_angle_alpha 90.000000
_cell_angle_beta 90.000000
_cell_angle_gamma 90.000000
_cell_volume 2700.319564
_symmetry_space_group_name_H-M "I B A M"
_symmetry_group_IT_number 72
_symmetry_cell_setting 'orthorhombic'
loop_
_space_group_symop_operation_xyz
x,y,z
-x,-y,z
x,-y,1/2-z
-x,y,1/2-z
-x,-y,-z
x,y,-z
-x,y,1/2+z
x,-y,1/2+z
1/2+x,1/2+y,1/2+z
1/2-x,1/2-y,1/2+z
1/2+x,1/2-y,-z
1/2-x,1/2+y,-z
1/2-x,1/2-y,1/2-z
1/2+x,1/2+y,1/2-z
1/2-x,1/2+y,z
1/2+x,1/2-y,z
loop_
_atom_site_type_symbol
_atom_site_label
_atom_site_fract_x
_atom_site_fract_y
_atom_site_fract_z
Si Si1 0.658167 0.500000 0.750000
Si Si2 0.376734 0.680402 0.929233
Si Si3 0.783138 0.870107 0.624580
Si Si4 0.000000 0.752402 0.750000
Si Si5 0.454631 0.161912 0.879732
O O1 0.713560 0.572791 0.805912
O O2 0.586572 0.637514 0.729419
O O3 0.317417 0.818582 0.896433
O O4 0.329742 0.514018 0.911515
O O5 0.481312 0.698128 0.906538
O O6 0.372679 0.703055 0.000000
O O7 0.849021 0.715868 0.612571
O O8 0.967070 0.660822 0.691877
O O9 0.500000 0.000000 0.904862
#
# Coordination Sequence:
#
# PCOD9529248 Si02
#       5
#     8  16  16   8  16
#     4   9  18  38  68  96 133 168 222 277 346 398
#     4  12  26  44  66  97 136 182 233 280 341 414
#     4  11  24  44  68  99 136 179 229 289 343 405
#     4   9  17  38  66  98 134 166 216 278 334 410
#     4  11  23  42  67  99 134 179 222 281 346 407
#
# _framework density 23.700900000000001
#
# number of rings (size 3 to 8) (size 9 to 14) (size 15 to 20)
#    0.000    1.250    2.500    3.375    0.000    4.500 
#    4.500    0.000    0.000    0.000    0.000    0.000 
#    0.000    0.000    0.000    0.000    0.000    0.000 
#
# Total GULP energy -179062.808109 kJ/mol
# GULP energy per Si atom -5595.712753 kJ/mol
# Density = 2.364696 g / cm^3
# Si number density = 23.700900 Si / 1000 Ang^3
#
#
#
# Elastic Constant Matrix: (Units=GPa)
#
#
# Indices 1 2 3 4 5 6 
#
# 1 99.7738 6.7183 28.8974 0.0000 0.0000 0.0000
# 2 6.7183 83.0695 -0.5425 0.0000 0.0000 0.0000
# 3 28.8974 -0.5425 101.5898 0.0000 0.0000 0.0000
# 4 0.0000 0.0000 0.0000 15.5710 0.0000 0.0000
# 5 0.0000 0.0000 0.0000 0.0000 11.9870 0.0000
# 6 0.0000 0.0000 0.0000 0.0000 0.0000 18.2251
#
#
#
# Elastic Compliance Matrix: (Units=1/GPa)
#
#
# Indices 1 2 3 4 5 6 
#
# 1 0.010991 -0.000909 -0.003131 0.000000 0.000000 0.000000
# 2 -0.000909 0.012114 0.000323 0.000000 0.000000 0.000000
# 3 -0.003131 0.000323 0.010736 0.000000 0.000000 0.000000
# 4 0.000000 0.000000 0.000000 0.064222 0.000000 0.000000
# 5 0.000000 0.000000 0.000000 0.000000 0.083424 0.000000
# 6 0.000000 0.000000 0.000000 0.000000 0.000000 0.054870
#
#
# Mechanical properties :
#
#
# Convention : Reuss Voigt Hill
#
# Bulk Modulus (GPa) = 37.87007 39.39774 38.63391
# Shear Modulus (GPa) = 19.79477 25.78061 22.78769
#
# Velocity S-wave (km/s) = 2.89310 3.30168 3.10412
# Velocity P-wave (km/s) = 5.21278 5.58514 5.40217
#
# Compressibility (1/GPa) = 0.02640607
#
# Stress axis : x y z
#
# Youngs Moduli (GPa) = 90.98526 82.55074 93.14533
#
# Poissons Ratio (x) = 0.07507 0.29166
# Poissons Ratio (y) = 0.08274 -0.03012
# Poissons Ratio (z) = 0.28489 -0.02669
#
# Static dielectric constant tensor:
#      x y z
#    x 1.846390 0.000000 0.000000 
#    y 0.000000 1.971480 0.000000 
#    z 0.000000 0.000000 1.842690 
# 
# From -- ./inp_files/38677.got.cif
#   From: 2010.05.17/outbox.cif.g08.bks.cpg/sg72_20_cif.got.tgz:38677.got - 2010.06.03 17:03:01.
