data_PCOD9529267
_publ_section_title
;
Structure prediction by ZEFSAII (Michael W. Deem and Ramdas Pophale) SiO2 
 PCOD9529267
Probable space group: I B A M
;
_chemical_formula_sum "Si O2"
_cell_formula_units_Z 56
_cell_length_a 15.040729
_cell_length_b 19.311022
_cell_length_c 8.198622
_cell_angle_alpha 90.000000
_cell_angle_beta 90.000000
_cell_angle_gamma 90.000000
_cell_volume 2381.304916
_symmetry_space_group_name_H-M "I B A M"
_symmetry_group_IT_number 72
_symmetry_cell_setting 'orthorhombic'
loop_
_space_group_symop_operation_xyz
x,y,z
-x,-y,z
x,-y,1/2-z
-x,y,1/2-z
-x,-y,-z
x,y,-z
-x,y,1/2+z
x,-y,1/2+z
1/2+x,1/2+y,1/2+z
1/2-x,1/2-y,1/2+z
1/2+x,1/2-y,-z
1/2-x,1/2+y,-z
1/2-x,1/2-y,1/2-z
1/2+x,1/2+y,1/2-z
1/2-x,1/2+y,z
1/2+x,1/2-y,z
loop_
_atom_site_type_symbol
_atom_site_label
_atom_site_fract_x
_atom_site_fract_y
_atom_site_fract_z
Si Si1 0.909026 0.895986 0.815142
Si Si2 0.647912 0.247978 0.802402
Si Si3 0.751153 0.500000 0.750000
Si Si4 0.901837 0.597634 0.306234
O O1 0.890871 0.820849 0.737848
O O2 0.822824 0.945221 0.815034
O O3 0.000000 0.927110 0.750000
O O4 0.928442 0.880107 0.000000
O O5 0.750000 0.250000 0.750000
O O6 0.606550 0.179478 0.724551
O O7 0.641270 0.243355 0.000000
O O8 0.826048 0.557730 0.797956
O O9 0.886588 0.583135 0.500000
O O10 0.000000 0.576854 0.250000
#
# Coordination Sequence:
#
# PCOD9529267 Si02
#       4
#    16  16   8  16
#     4  11  26  47  71 105 141 183 237 288 350 420
#     4  11  23  45  75 106 141 186 236 294 355 420
#     4  12  26  46  70  98 142 190 236 290 346 422
#     4  12  27  48  73 107 143 186 240 294 357 428
#
# _framework density 23.516518999999999
#
# number of rings (size 3 to 8) (size 9 to 14) (size 15 to 20)
#    0.000    0.571    2.857    4.286    0.000   13.714 
#    0.000    0.000    0.000    0.000    0.000    0.000 
#    0.000    0.000    0.000    0.000    0.000    0.000 
#
# Total GULP energy -155961.766449 kJ/mol
# GULP energy per Si atom -5570.063087 kJ/mol
# Density = 2.346299 g / cm^3
# Si number density = 23.516519 Si / 1000 Ang^3
#
#
#
# Elastic Constant Matrix: (Units=GPa)
#
#
# Indices 1 2 3 4 5 6 
#
# 1 203.7060 50.0034 26.5509 0.0000 0.0000 0.0000
# 2 50.0034 183.4721 32.1484 0.0000 0.0000 0.0000
# 3 26.5509 32.1484 64.3370 0.0000 0.0000 0.0000
# 4 0.0000 0.0000 0.0000 16.1244 0.0000 0.0000
# 5 0.0000 0.0000 0.0000 0.0000 16.1227 0.0000
# 6 0.0000 0.0000 0.0000 0.0000 0.0000 -68.9266
#
#
#
# Elastic Compliance Matrix: (Units=1/GPa)
#
#
# Indices 1 2 3 4 5 6 
#
# 1 0.005415 -0.001188 -0.001641 0.000000 0.000000 0.000000
# 2 -0.001188 0.006234 -0.002625 0.000000 0.000000 0.000000
# 3 -0.001641 -0.002625 0.017532 0.000000 0.000000 0.000000
# 4 0.000000 0.000000 0.000000 0.062018 0.000000 0.000000
# 5 0.000000 0.000000 0.000000 0.000000 0.062024 0.000000
# 6 0.000000 0.000000 0.000000 0.000000 0.000000 -0.014508
#
#
# Mechanical properties :
#
#
# Convention : Reuss Voigt Hill
#
# Bulk Modulus (GPa) = 54.72536 74.32451 64.52493
# Shear Modulus (GPa) = 32.11036 15.51826 23.81431
#
# Velocity S-wave (km/s) = 3.69919 2.57161 3.18569
# Velocity P-wave (km/s) = 6.44724 6.36329 6.40540
#
# Compressibility (1/GPa) = 0.01827306
#
# Stress axis : x y z
#
# Youngs Moduli (GPa) = 184.68738 160.40633 57.03905
#
# Poissons Ratio (x) = 0.19059 0.09359
# Poissons Ratio (y) = 0.21944 0.14972
# Poissons Ratio (z) = 0.30303 0.42103
#
# Static dielectric constant tensor:
#      x y z
#    x 1.781280 0.000000 0.000000 
#    y 0.000000 1.946780 0.000000 
#    z 0.000000 0.000000 1.903680 
# 
# From -- ./inp_files/3372.got.cif
#   From: 2010.05.17/outbox.cif.g08.bks.cpg/sg72_2_cif.got.tgz:3372.got - 2010.06.03 17:03:01.
