data_PCOD9529777
_publ_section_title
;
Structure prediction by ZEFSAII (Michael W. Deem and Ramdas Pophale) SiO2 
 PCOD9529777
Probable space group: I B C A 
;
_chemical_formula_sum "Si O2"
_cell_formula_units_Z 80
_cell_length_a 15.449556
_cell_length_b 25.976238
_cell_length_c 8.616689
_cell_angle_alpha 90.000000
_cell_angle_beta 90.000000
_cell_angle_gamma 90.000000
_cell_volume 3458.061207
_symmetry_space_group_name_H-M "I B C A "
_symmetry_group_IT_number 73
_symmetry_cell_setting 'orthorhombic'
loop_
_space_group_symop_operation_xyz
x,y,z
-x,1/2-y,z
x,-y,1/2-z
1/2-x,y,-z
-x,-y,-z
x,1/2+y,-z
-x,y,1/2+z
1/2+x,-y,z
1/2+x,1/2+y,1/2+z
1/2-x,-y,1/2+z
1/2+x,1/2-y,-z
-x,1/2+y,1/2-z
1/2-x,1/2-y,1/2-z
1/2+x,y,1/2-z
1/2-x,1/2+y,z
x,1/2-y,1/2+z
loop_
_atom_site_type_symbol
_atom_site_label
_atom_site_fract_x
_atom_site_fract_y
_atom_site_fract_z
Si Si1 0.110643 0.399376 0.094228
Si Si2 0.833577 0.264180 0.393834
Si Si3 0.693999 0.374106 0.722394
Si Si4 0.062875 0.703720 0.315301
Si Si5 0.637228 0.500000 0.250000
Si Si6 0.250000 0.437425 0.500000
O O1 0.207504 0.384555 0.159719
O O2 0.045371 0.356307 0.162565
O O3 0.087366 0.454662 0.161958
O O4 0.128608 0.396507 0.909463
O O5 0.750000 0.258916 0.500000
O O6 0.822799 0.312798 0.278832
O O7 0.905826 0.280850 0.514818
O O8 0.860260 0.212877 0.306776
O O9 0.691227 0.401341 0.888896
O O10 0.000000 0.750000 0.270129
O O11 0.696090 0.526757 0.382562
#
# Coordination Sequence:
#
# PCOD9529777 Si02
#       6
#    16  16  16  16   8   8
#     4   9  18  34  52  79 124 160 208 258 306 370
#     4  11  21  39  61  87 124 163 209 268 313 386
#     4   9  17  32  52  85 120 157 203 253 313 362
#     4  11  23  38  58  89 127 167 210 262 331 383
#     4  10  18  30  50  84 120 170 204 254 306 362
#     4  10  18  28  54  86 130 158 204 258 312 374
#
# _framework density 23.134350000000001
#
# number of rings (size 3 to 8) (size 9 to 14) (size 15 to 20)
#    0.000    2.000    4.000    3.600    0.000    3.200 
#    1.800    0.000    0.000    0.000    0.000   28.000 
#    0.000    0.000    0.000    0.000    0.000    0.000 
#
# Total GULP energy -223247.272348 kJ/mol
# GULP energy per Si atom -5581.181809 kJ/mol
# Density = 2.308169 g / cm^3
# Si number density = 23.134350 Si / 1000 Ang^3
#
#
#
# Elastic Constant Matrix: (Units=GPa)
#
#
# Indices 1 2 3 4 5 6 
#
# 1 24.4187 31.9322 8.0392 0.0000 -0.0002 -0.0002
# 2 31.9322 124.9471 77.9753 -0.0012 0.0002 -0.0004
# 3 8.0392 77.9753 129.1312 0.0103 -0.0021 0.0041
# 4 0.0000 -0.0012 0.0103 37.4857 -0.0016 0.0012
# 5 -0.0002 0.0002 -0.0021 -0.0016 13.0249 -0.0001
# 6 -0.0002 -0.0004 0.0041 0.0012 -0.0001 22.9339
#
#
#
# Elastic Compliance Matrix: (Units=1/GPa)
#
#
# Indices 1 2 3 4 5 6 
#
# 1 0.068958 -0.023981 0.010188 -0.000004 0.000003 -0.000002
# 2 -0.023981 0.021183 -0.011298 0.000004 -0.000002 0.000002
# 3 0.010188 -0.011298 0.013932 -0.000004 0.000003 -0.000003
# 4 -0.000004 0.000004 -0.000004 0.026677 0.000003 -0.000001
# 5 0.000003 -0.000002 0.000003 0.000003 0.076776 0.000000
# 6 -0.000002 0.000002 -0.000003 -0.000001 0.000000 0.043603
#
#
# Mechanical properties :
#
#
# Convention : Reuss Voigt Hill
#
# Bulk Modulus (GPa) = 18.55628 57.15449 37.85539
# Shear Modulus (GPa) = 15.66041 25.39227 20.52634
#
# Velocity S-wave (km/s) = 2.60462 3.31660 2.98193
# Velocity P-wave (km/s) = 4.13326 6.27898 5.31552
#
# Compressibility (1/GPa) = 0.05389012
#
# Stress axis : x y z
#
# Youngs Moduli (GPa) = 14.50155 47.20751 71.77596
#
# Poissons Ratio (x) = 1.13209 -0.73125
# Poissons Ratio (y) = 0.34777 0.81095
# Poissons Ratio (z) = -0.14774 0.53337
#
# Static dielectric constant tensor:
#      x y z
#    x 2.026810 0.000000 0.000000 
#    y 0.000000 1.893770 0.000000 
#    z 0.000000 0.000000 1.868520 
# 
# From -- ./inp_files/5603.got.cif
#   From: 2010.05.17/outbox.cif.g08.bks.cpg/sg73_3_cif.got.tgz:5603.got - 2010.06.03 17:35:07.
