data_PCOD9529288
_publ_section_title
;
Structure prediction by ZEFSAII (Michael W. Deem and Ramdas Pophale) SiO2 
 PCOD9529288
Probable space group: I B A M
;
_chemical_formula_sum "Si O2"
_cell_formula_units_Z 68
_cell_length_a 5.023623
_cell_length_b 21.830129
_cell_length_c 26.324619
_cell_angle_alpha 90.000000
_cell_angle_beta 90.000000
_cell_angle_gamma 90.000000
_cell_volume 2886.924569
_symmetry_space_group_name_H-M "I B A M"
_symmetry_group_IT_number 72
_symmetry_cell_setting 'orthorhombic'
loop_
_space_group_symop_operation_xyz
x,y,z
-x,-y,z
x,-y,1/2-z
-x,y,1/2-z
-x,-y,-z
x,y,-z
-x,y,1/2+z
x,-y,1/2+z
1/2+x,1/2+y,1/2+z
1/2-x,1/2-y,1/2+z
1/2+x,1/2-y,-z
1/2-x,1/2+y,-z
1/2-x,1/2-y,1/2-z
1/2+x,1/2+y,1/2-z
1/2-x,1/2+y,z
1/2+x,1/2-y,z
loop_
_atom_site_type_symbol
_atom_site_label
_atom_site_fract_x
_atom_site_fract_y
_atom_site_fract_z
Si Si1 0.060048 0.642731 0.442405
Si Si2 0.500000 0.000000 0.250000
Si Si3 0.988894 0.712587 0.658244
Si Si4 0.165738 0.895290 0.200888
Si Si5 0.062974 0.071506 0.093762
O O1 0.012355 0.661885 0.500000
O O2 0.018331 0.696087 0.401266
O O3 0.350939 0.613443 0.436061
O O4 0.852865 0.589941 0.425539
O O5 0.682762 0.042589 0.215388
O O6 0.612403 0.845268 0.686865
O O7 0.688575 0.731316 0.669845
O O8 0.981141 0.909184 0.152414
O O9 0.000000 0.876493 0.250000
O O10 0.000000 0.000000 0.087480
#
# Coordination Sequence:
#
# PCOD9529288 Si02
#       5
#    16   4  16  16  16
#     4  11  25  44  69 101 137 184 241 296 362 429
#     4  12  26  44  76 106 142 196 238 294 370 444
#     4  11  26  47  72 102 141 187 239 296 352 418
#     4  11  27  44  72 106 146 191 245 293 362 442
#     4  11  24  41  69 101 145 187 230 296 359 433
#
# _framework density 23.554476999999999
#
# number of rings (size 3 to 8) (size 9 to 14) (size 15 to 20)
#    0.000    0.941    0.000    6.000   16.471    4.706 
#    0.000    0.000    0.000    0.000    0.000    0.000 
#    0.000    0.000    0.000    0.000    0.000    0.000 
#
# Total GULP energy -190751.578049 kJ/mol
# GULP energy per Si atom -5610.340531 kJ/mol
# Density = 2.350087 g / cm^3
# Si number density = 23.554477 Si / 1000 Ang^3
#
#
#
# Elastic Constant Matrix: (Units=GPa)
#
#
# Indices 1 2 3 4 5 6 
#
# 1 53.0606 6.6381 33.5860 0.0000 0.0000 0.0000
# 2 6.6381 81.3869 12.2048 0.0000 0.0000 0.0000
# 3 33.5860 12.2048 131.3184 0.0000 0.0000 0.0000
# 4 0.0000 0.0000 0.0000 7.3809 0.0000 0.0000
# 5 0.0000 0.0000 0.0000 0.0000 23.0570 0.0000
# 6 0.0000 0.0000 0.0000 0.0000 0.0000 47.5873
#
#
#
# Elastic Compliance Matrix: (Units=1/GPa)
#
#
# Indices 1 2 3 4 5 6 
#
# 1 0.022565 -0.000989 -0.005679 0.000000 0.000000 0.000000
# 2 -0.000989 0.012504 -0.000909 0.000000 0.000000 0.000000
# 3 -0.005679 -0.000909 0.009152 0.000000 0.000000 0.000000
# 4 0.000000 0.000000 0.000000 0.135485 0.000000 0.000000
# 5 0.000000 0.000000 0.000000 0.000000 0.043371 0.000000
# 6 0.000000 0.000000 0.000000 0.000000 0.000000 0.021014
#
#
# Mechanical properties :
#
#
# Convention : Reuss Voigt Hill
#
# Bulk Modulus (GPa) = 34.40401 41.18043 37.79222
# Shear Modulus (GPa) = 18.59191 29.82751 24.20971
#
# Velocity S-wave (km/s) = 2.81252 3.56240 3.20944
# Velocity P-wave (km/s) = 5.01846 5.86873 5.46017
#
# Compressibility (1/GPa) = 0.02906638
#
# Stress axis : x y z
#
# Youngs Moduli (GPa) = 44.31652 79.97449 109.26420
#
# Poissons Ratio (x) = 0.07908 0.62055
# Poissons Ratio (y) = 0.04382 0.09935
# Poissons Ratio (z) = 0.25169 0.07272
#
# Static dielectric constant tensor:
#      x y z
#    x 1.849970 0.000000 0.000000 
#    y 0.000000 1.864540 0.000000 
#    z 0.000000 0.000000 1.868840 
# 
# From -- ./inp_files/46568.got.cif
#   From: 2010.05.17/outbox.cif.g08.bks.cpg/sg72_24_cif.got.tgz:46568.got - 2010.06.03 17:03:01.
