data_PCOD9529599
_publ_section_title
;
Structure prediction by ZEFSAII (Michael W. Deem and Ramdas Pophale) SiO2 
 PCOD9529599
Probable space group: I B A M
;
_chemical_formula_sum "Si O2"
_cell_formula_units_Z 32
_cell_length_a 15.000000
_cell_length_b 9.000000
_cell_length_c 24.000000
_cell_angle_alpha 90.000000
_cell_angle_beta 90.000000
_cell_angle_gamma 90.000000
_cell_volume 3240.000000
_symmetry_space_group_name_H-M "I B A M"
_symmetry_group_IT_number 72
_symmetry_cell_setting 'orthorhombic'
loop_
_space_group_symop_operation_xyz
x,y,z
-x,-y,z
x,-y,1/2-z
-x,y,1/2-z
-x,-y,-z
x,y,-z
-x,y,1/2+z
x,-y,1/2+z
1/2+x,1/2+y,1/2+z
1/2-x,1/2-y,1/2+z
1/2+x,1/2-y,-z
1/2-x,1/2+y,-z
1/2-x,1/2-y,1/2-z
1/2+x,1/2+y,1/2-z
1/2-x,1/2+y,z
1/2+x,1/2-y,z
loop_
_atom_site_type_symbol
_atom_site_label
_atom_site_fract_x
_atom_site_fract_y
_atom_site_fract_z
Si Si1 0.210356 0.133824 0.794306
Si Si2 0.815790 0.221481 0.000000
Si Si3 0.432170 0.231021 0.382963
Si Si4 0.125144 0.868366 0.500000
Si Si5 0.627358 0.888409 0.114837
O O1 0.250000 0.250000 0.750000
O O2 0.127361 0.191989 0.833416
O O3 0.291260 0.111626 0.840013
O O4 0.188010 0.000000 0.750000
O O5 0.848376 0.305239 0.943387
O O6 0.843818 0.044574 0.000000
O O7 0.710366 0.257539 0.000000
O O8 0.424723 0.325745 0.441329
O O9 0.535790 0.196909 0.366514
O O10 0.394013 0.063764 0.394152
#
# Coordination Sequence:
#
# PCOD9529599 Si02
#       5
#    16   8  16   8  16
#     4  12  26  47  72 101 142 190 240 292 348 415
#     4  12  25  42  73 106 144 186 231 299 364 433
#     4  11  25  47  74 107 140 187 234 296 361 430
#     4  12  25  42  73 106 144 184 233 293 372 425
#     4  11  25  47  74 105 143 184 237 292 363 429
#
# _framework density 9.8765429999999999
#
# number of rings (size 3 to 8) (size 9 to 14) (size 15 to 20)
#    0.000    0.500    5.000    3.000    3.500    5.000 
#    0.000    1.250    0.000    0.000    0.000    0.000 
#    0.000    0.000    0.000    0.000    0.000    0.000 
#
# Total GULP energy -178607.585140 kJ/mol
# GULP energy per Si atom -5581.487036 kJ/mol
# Density = 0.985406 g / cm^3
# Si number density = 9.876543 Si / 1000 Ang^3
#
#
#
# Elastic Constant Matrix: (Units=GPa)
#
#
# Indices 1 2 3 4 5 6 
#
# 1 123.5969 20.9001 47.8815 0.0000 0.0000 0.0000
# 2 20.9001 128.1141 52.9659 0.0000 0.0000 0.0000
# 3 47.8815 52.9659 163.5123 0.0000 0.0000 0.0000
# 4 0.0000 0.0000 0.0000 58.9134 0.0000 0.0000
# 5 0.0000 0.0000 0.0000 0.0000 37.6982 0.0000
# 6 0.0000 0.0000 0.0000 0.0000 0.0000 38.0405
#
#
#
# Elastic Compliance Matrix: (Units=1/GPa)
#
#
# Indices 1 2 3 4 5 6 
#
# 1 0.009148 -0.000444 -0.002535 0.000000 0.000000 0.000000
# 2 -0.000444 0.009034 -0.002796 0.000000 0.000000 0.000000
# 3 -0.002535 -0.002796 0.007764 0.000000 0.000000 0.000000
# 4 0.000000 0.000000 0.000000 0.016974 0.000000 0.000000
# 5 0.000000 0.000000 0.000000 0.000000 0.026526 0.000000
# 6 0.000000 0.000000 0.000000 0.000000 0.000000 0.026288
#
#
# Mechanical properties :
#
#
# Convention : Reuss Voigt Hill
#
# Bulk Modulus (GPa) = 69.46918 73.19094 71.33006
# Shear Modulus (GPa) = 44.60963 46.49548 45.55255
#
# Velocity S-wave (km/s) = 4.75738 4.85690 4.80739
# Velocity P-wave (km/s) = 8.08839 8.28166 8.18559
#
# Compressibility (1/GPa) = 0.01439487
#
# Stress axis : x y z
#
# Youngs Moduli (GPa) = 109.31390 110.69198 128.80276
#
# Poissons Ratio (x) = 0.04919 0.32650
# Poissons Ratio (y) = 0.04858 0.36016
# Poissons Ratio (z) = 0.27710 0.30952
#
# Static dielectric constant tensor:
#      x y z
#    x 1.753170 0.000000 0.000000 
#    y 0.000000 1.734000 0.000000 
#    z 0.000000 0.000000 1.678880 
# 
# From -- ./inp_files/41956.got.cif
#   From: 2010.05.17/outbox.ucp.g08.bks.cvg/sg72_21_cif.got.tgz:41956.got - 2010.06.11 16:33:07.
