data_PCOD9529679
_publ_section_title
;
Structure prediction by ZEFSAII (Michael W. Deem and Ramdas Pophale) SiO2 
 PCOD9529679
Probable space group: I B C A 
;
_chemical_formula_sum "Si O2"
_cell_formula_units_Z 88
_cell_length_a 24.856771
_cell_length_b 27.903191
_cell_length_c 5.262164
_cell_angle_alpha 90.000000
_cell_angle_beta 90.000000
_cell_angle_gamma 90.000000
_cell_volume 3649.748698
_symmetry_space_group_name_H-M "I B C A "
_symmetry_group_IT_number 73
_symmetry_cell_setting 'orthorhombic'
loop_
_space_group_symop_operation_xyz
x,y,z
-x,1/2-y,z
x,-y,1/2-z
1/2-x,y,-z
-x,-y,-z
x,1/2+y,-z
-x,y,1/2+z
1/2+x,-y,z
1/2+x,1/2+y,1/2+z
1/2-x,-y,1/2+z
1/2+x,1/2-y,-z
-x,1/2+y,1/2-z
1/2-x,1/2-y,1/2-z
1/2+x,y,1/2-z
1/2-x,1/2+y,z
x,1/2-y,1/2+z
loop_
_atom_site_type_symbol
_atom_site_label
_atom_site_fract_x
_atom_site_fract_y
_atom_site_fract_z
Si Si1 0.250000 0.838676 0.500000
Si Si2 0.145760 0.719738 0.173836
Si Si3 0.979660 0.944593 0.014930
Si Si4 0.523802 0.804888 0.814789
Si Si5 0.356377 0.553626 0.843616
Si Si6 0.800170 0.083198 0.864723
O O1 0.300514 0.809254 0.392182
O O2 0.226298 0.870355 0.268427
O O3 0.146135 0.737717 0.464205
O O4 0.087486 0.695058 0.135167
O O5 0.983662 0.923747 0.735728
O O6 0.919332 0.941727 0.110067
O O7 0.000000 0.000000 0.000000
O O8 0.500000 0.750000 0.793719
O O9 0.508652 0.826724 0.546552
O O10 0.345725 0.500000 0.750000
O O11 0.327678 0.560279 0.116436
O O12 0.339192 0.412066 0.891617
O O13 0.750000 0.056278 0.000000
#
# Coordination Sequence:
#
# PCOD9529679 Si02
#       6
#     8  16  16  16  16  16
#     4  12  30  50  66  92 154 190 238 282 366 430
#     4  12  24  40  74 109 128 179 238 300 334 416
#     4  10  19  35  63 107 137 160 204 294 371 392
#     4  10  16  34  60 101 143 156 206 289 355 393
#     4  12  24  42  77 104 129 174 242 291 345 415
#     4  12  27  50  63  94 140 194 226 286 357 418
#
# _framework density 24.111250999999999
#
# number of rings (size 3 to 8) (size 9 to 14) (size 15 to 20)
#    0.000    0.727    7.273    2.182    5.091    1.455 
#    1.636    0.000    0.000    6.545    0.000    0.000 
#    0.000    0.000    0.000    0.000    0.000    0.000 
#
# Total GULP energy -245903.527084 kJ/mol
# GULP energy per Si atom -5588.716525 kJ/mol
# Density = 2.405637 g / cm^3
# Si number density = 24.111251 Si / 1000 Ang^3
#
#
#
# Elastic Constant Matrix: (Units=GPa)
#
#
# Indices 1 2 3 4 5 6 
#
# 1 193.7970 25.5221 54.6999 0.0000 0.0000 0.0000
# 2 25.5221 43.6500 16.5549 0.0000 0.0000 0.0000
# 3 54.6999 16.5549 196.7228 0.0000 0.0000 0.0000
# 4 0.0000 0.0000 0.0000 28.4881 0.0000 0.0000
# 5 0.0000 0.0000 0.0000 0.0000 39.8559 0.0000
# 6 0.0000 0.0000 0.0000 0.0000 0.0000-1465.9826
#
#
#
# Elastic Compliance Matrix: (Units=1/GPa)
#
#
# Indices 1 2 3 4 5 6 
#
# 1 0.005944 -0.002943 -0.001405 0.000000 0.000000 0.000000
# 2 -0.002943 0.025122 -0.001296 0.000000 0.000000 0.000000
# 3 -0.001405 -0.001296 0.005583 0.000000 0.000000 0.000000
# 4 0.000000 0.000000 0.000000 0.035102 0.000000 0.000000
# 5 0.000000 0.000000 0.000000 0.000000 0.025090 0.000000
# 6 0.000000 0.000000 0.000000 0.000000 0.000000 -0.000682
#
#
# Mechanical properties :
#
#
# Convention : Reuss Voigt Hill
#
# Bulk Modulus (GPa) = 39.42992 69.74708 54.58850
# Shear Modulus (GPa) = 43.14046 -257.03487 -106.94721
#
# Velocity S-wave (km/s) = 4.23451 -10.33611 -6.66723
# Velocity P-wave (km/s) = 6.34799 10.65161 6.04814
#
# Compressibility (1/GPa) = 0.02536145
#
# Stress axis : x y z
#
# Youngs Moduli (GPa) = 168.23160 39.80651 179.11304
#
# Poissons Ratio (x) = 0.11714 0.25169
# Poissons Ratio (y) = 0.49504 0.23210
# Poissons Ratio (z) = 0.23640 0.05158
#
# Static dielectric constant tensor:
#      x y z
#    x 1.929060 0.000000 0.000000 
#    y 0.000000 1.962910 0.000000 
#    z 0.000000 0.000000 1.960440 
# 
# From -- ./inp_files/2281.got.cif
#   From: 2010.05.17/outbox.cif.g08.bks.cpg/sg73_2_cif.got.tgz:2281.got - 2010.06.03 17:35:07.
