data_PCOD9529540
_publ_section_title
;
Structure prediction by ZEFSAII (Michael W. Deem and Ramdas Pophale) SiO2 
 PCOD9529540
Probable space group: I B A M
;
_chemical_formula_sum "Si O2"
_cell_formula_units_Z 64
_cell_length_a 12.000000
_cell_length_b 24.000000
_cell_length_c 24.000000
_cell_angle_alpha 90.000000
_cell_angle_beta 90.000000
_cell_angle_gamma 90.000000
_cell_volume 6912.000000
_symmetry_space_group_name_H-M "I B A M"
_symmetry_group_IT_number 72
_symmetry_cell_setting 'orthorhombic'
loop_
_space_group_symop_operation_xyz
x,y,z
-x,-y,z
x,-y,1/2-z
-x,y,1/2-z
-x,-y,-z
x,y,-z
-x,y,1/2+z
x,-y,1/2+z
1/2+x,1/2+y,1/2+z
1/2-x,1/2-y,1/2+z
1/2+x,1/2-y,-z
1/2-x,1/2+y,-z
1/2-x,1/2-y,1/2-z
1/2+x,1/2+y,1/2-z
1/2-x,1/2+y,z
1/2+x,1/2-y,z
loop_
_atom_site_type_symbol
_atom_site_label
_atom_site_fract_x
_atom_site_fract_y
_atom_site_fract_z
Si Si1 0.455687 0.936500 0.853560
Si Si2 0.836867 0.638345 0.653453
Si Si3 0.284881 0.587969 0.061208
Si Si4 0.420443 0.372955 0.802766
Si Si5 0.732430 0.036830 0.935930
Si Si6 0.479326 0.437564 0.095451
Si Si7 0.125281 0.251162 0.280002
Si Si8 0.711812 0.934486 0.259951
O O1 0.552541 0.893490 0.866134
O O2 0.356589 0.933289 0.897764
O O3 0.400692 0.923650 0.794030
O O4 0.500000 0.000000 0.852571
O O5 0.749035 0.635376 0.603839
O O6 0.864817 0.698314 0.677253
O O7 0.789459 0.600782 0.703812
O O8 0.237821 0.528203 0.081894
O O9 0.416128 0.576558 0.057650
O O10 0.239554 0.599031 0.000000
O O11 0.500000 0.378534 0.750000
O O12 0.484561 0.392972 0.856285
O O13 0.381961 0.309750 0.806510
O O14 0.315761 0.413513 0.795504
O O15 0.857010 0.060903 0.930835
O O16 0.698205 0.038013 0.000000
O O17 0.500000 0.500000 0.118143
O O18 0.250000 0.250000 0.250000
O O19 0.000000 0.257762 0.250000
O O20 0.720327 0.000000 0.250000
#
# Coordination Sequence:
#
# PCOD9529540 Si02
#       8
#    16  16  16  16  16  16  16  16
#     4  12  22  35  53  90 126 163 199 247 307 369
#     4  12  24  39  62  87 123 164 204 248 309 366
#     4  10  21  38  61  90 122 161 207 255 307 369
#     4  11  24  37  59  89 124 159 202 250 305 368
#     4  10  20  37  58  87 127 166 205 249 307 374
#     4  10  21  36  58  90 124 157 201 251 316 370
#     4  11  25  45  63  90 123 168 215 251 302 377
#     4  12  22  34  56  90 127 158 193 245 310 376
#
# _framework density 9.2592590000000001
#
# number of rings (size 3 to 8) (size 9 to 14) (size 15 to 20)
#    0.000    1.000    5.000    2.250    5.250    2.250 
#    0.000    0.000    0.000    1.500    0.000    0.000 
#    0.000    0.000    0.000    0.000    0.000    0.000 
#
# Total GULP energy -356835.154484 kJ/mol
# GULP energy per Si atom -5575.549289 kJ/mol
# Density = 0.923818 g / cm^3
# Si number density = 9.259259 Si / 1000 Ang^3
#
#
#
# Elastic Constant Matrix: (Units=GPa)
#
#
# Indices 1 2 3 4 5 6 
#
# 1 84.7745 37.2698 18.9239 0.0000 0.0000 0.0000
# 2 37.2698 26.5522 39.1542 0.0000 0.0000 0.0000
# 3 18.9239 39.1542 57.8505 0.0000 0.0000 0.0000
# 4 0.0000 0.0000 0.0000 15.6054 0.0000 0.0000
# 5 0.0000 0.0000 0.0000 0.0000 -3.1985 0.0000
# 6 0.0000 0.0000 0.0000 0.0000 0.0000 -476.9745
#
#
#
# Elastic Compliance Matrix: (Units=1/GPa)
#
#
# Indices 1 2 3 4 5 6 
#
# 1 -0.000087 0.041161 -0.027830 0.000000 0.000000 0.000000
# 2 0.041161 -0.132229 0.076031 0.000000 0.000000 0.000000
# 3 -0.027830 0.076031 -0.025070 0.000000 0.000000 0.000000
# 4 0.000000 0.000000 0.000000 0.064080 0.000000 0.000000
# 5 0.000000 0.000000 0.000000 0.000000 -0.312643 0.000000
# 6 0.000000 0.000000 0.000000 0.000000 0.000000 -0.002097
#
#
# Mechanical properties :
#
#
# Convention : Reuss Voigt Hill
#
# Bulk Modulus (GPa) = 46.86623 39.98589 43.42606
# Shear Modulus (GPa) = -8.62580 -87.99159 -48.30869
#
# Velocity S-wave (km/s) = -2.16057 -6.90062 -5.11305
# Velocity P-wave (km/s) = 4.37477 6.46933 3.36998
#
# Compressibility (1/GPa) = 0.02133732
#
# Stress axis : x y z
#
# Youngs Moduli (GPa) = -11458.58855 -7.56262 -39.88908
#
# Poissons Ratio (x) = 0.31128 -1.11010
# Poissons Ratio (y) = 471.64137 3.03280
# Poissons Ratio (z) = -318.88825 0.57499
#
# Static dielectric constant tensor:
#      x y z
#    x 1.679020 0.000000 0.000000 
#    y 0.000000 1.602640 0.000000 
#    z 0.000000 0.000000 1.559440 
# 
# From -- ./inp_files/43691.got.cif
#   From: 2010.05.17/outbox.ucp.g08.bks.cvg/sg72_22_cif.got.tgz:43691.got - 2010.06.11 16:33:07.
