data_PCOD9529167
_publ_section_title
;
Structure prediction by ZEFSAII (Michael W. Deem and Ramdas Pophale) SiO2 
 PCOD9529167
Probable space group: I B A M
;
_chemical_formula_sum "Si O2"
_cell_formula_units_Z 64
_cell_length_a 19.737905
_cell_length_b 8.414971
_cell_length_c 16.374715
_cell_angle_alpha 90.000000
_cell_angle_beta 90.000000
_cell_angle_gamma 90.000000
_cell_volume 2719.740246
_symmetry_space_group_name_H-M "I B A M"
_symmetry_group_IT_number 72
_symmetry_cell_setting 'orthorhombic'
loop_
_space_group_symop_operation_xyz
x,y,z
-x,-y,z
x,-y,1/2-z
-x,y,1/2-z
-x,-y,-z
x,y,-z
-x,y,1/2+z
x,-y,1/2+z
1/2+x,1/2+y,1/2+z
1/2-x,1/2-y,1/2+z
1/2+x,1/2-y,-z
1/2-x,1/2+y,-z
1/2-x,1/2-y,1/2-z
1/2+x,1/2+y,1/2-z
1/2-x,1/2+y,z
1/2+x,1/2-y,z
loop_
_atom_site_type_symbol
_atom_site_label
_atom_site_fract_x
_atom_site_fract_y
_atom_site_fract_z
Si Si1 0.101569 0.913536 0.901521
Si Si2 0.729095 0.751239 0.843114
Si Si3 0.346613 0.060173 0.595082
Si Si4 0.030694 0.249010 0.900887
O O1 0.173098 0.882837 0.861276
O O2 0.046444 0.780214 0.874807
O O3 0.069238 0.083777 0.882407
O O4 0.108879 0.903861 0.000000
O O5 0.750000 0.750000 0.750000
O O6 0.691356 0.085411 0.636506
O O7 0.795517 0.709726 0.895817
O O8 0.354362 0.019358 0.500000
O O9 0.420282 0.111010 0.628378
O O10 0.028465 0.262239 0.000000
#
# Coordination Sequence:
#
# PCOD9529167 Si02
#       4
#    16  16  16  16
#     4   9  17  36  63  92 124 162 204 257 315 374
#     4  12  25  39  57  87 127 165 203 254 314 373
#     4  11  22  39  62  89 119 163 214 260 307 372
#     4   8  17  34  63  96 121 150 206 267 313 363
#
# _framework density 23.531659999999999
#
# number of rings (size 3 to 8) (size 9 to 14) (size 15 to 20)
#    0.000    2.000    0.000    6.000    0.000    3.000 
#    0.000    5.000    0.000    6.000    0.000    0.000 
#    0.000    0.000    0.000    0.000    0.000    0.000 
#
# Total GULP energy -179036.005650 kJ/mol
# GULP energy per Si atom -5594.875177 kJ/mol
# Density = 2.347810 g / cm^3
# Si number density = 23.531660 Si / 1000 Ang^3
#
#
#
# Elastic Constant Matrix: (Units=GPa)
#
#
# Indices 1 2 3 4 5 6 
#
# 1 87.6145 -14.7980 19.5530 0.0000 0.0000 0.0000
# 2 -14.7980 53.4042 19.5315 0.0000 0.0000 0.0000
# 3 19.5530 19.5315 51.7063 0.0000 0.0000 0.0000
# 4 0.0000 0.0000 0.0000 44.1287 0.0000 0.0000
# 5 0.0000 0.0000 0.0000 0.0000 69.9858 0.0000
# 6 0.0000 0.0000 0.0000 0.0000 0.0000 48.3952
#
#
#
# Elastic Compliance Matrix: (Units=1/GPa)
#
#
# Indices 1 2 3 4 5 6 
#
# 1 0.014383 0.006932 -0.008057 0.000000 0.000000 0.000000
# 2 0.006932 0.025068 -0.012091 0.000000 0.000000 0.000000
# 3 -0.008057 -0.012091 0.026954 0.000000 0.000000 0.000000
# 4 0.000000 0.000000 0.000000 0.022661 0.000000 0.000000
# 5 0.000000 0.000000 0.000000 0.000000 0.014289 0.000000
# 6 0.000000 0.000000 0.000000 0.000000 0.000000 0.020663
#
#
# Mechanical properties :
#
#
# Convention : Reuss Voigt Hill
#
# Bulk Modulus (GPa) = 25.01693 26.81090 25.91392
# Shear Modulus (GPa) = 30.53001 43.73116 37.13059
#
# Velocity S-wave (km/s) = 3.60585 4.31559 3.97659
# Velocity P-wave (km/s) = 5.29060 6.02085 5.66750
#
# Compressibility (1/GPa) = 0.03997293
#
# Stress axis : x y z
#
# Youngs Moduli (GPa) = 69.52820 39.89174 37.10020
#
# Poissons Ratio (x) = -0.27654 0.29893
# Poissons Ratio (y) = -0.48198 0.44856
# Poissons Ratio (z) = 0.56022 0.48231
#
# Static dielectric constant tensor:
#      x y z
#    x 1.896450 0.000000 0.000000 
#    y 0.000000 1.982140 0.000000 
#    z 0.000000 0.000000 1.831490 
# 
# From -- ./inp_files/19842.got.cif
#   From: 2010.05.17/outbox.cif.g08.bks.cpg/sg72_10_cif.got.tgz:19842.got - 2010.06.03 17:03:01.
