data_PCOD9529474
_publ_section_title
;
Structure prediction by ZEFSAII (Michael W. Deem and Ramdas Pophale) SiO2 
 PCOD9529474
Probable space group: I B A M
;
_chemical_formula_sum "Si O2"
_cell_formula_units_Z 64
_cell_length_a 15.008763
_cell_length_b 8.688756
_cell_length_c 21.582799
_cell_angle_alpha 90.000000
_cell_angle_beta 90.000000
_cell_angle_gamma 90.000000
_cell_volume 2814.558420
_symmetry_space_group_name_H-M "I B A M"
_symmetry_group_IT_number 72
_symmetry_cell_setting 'orthorhombic'
loop_
_space_group_symop_operation_xyz
x,y,z
-x,-y,z
x,-y,1/2-z
-x,y,1/2-z
-x,-y,-z
x,y,-z
-x,y,1/2+z
x,-y,1/2+z
1/2+x,1/2+y,1/2+z
1/2-x,1/2-y,1/2+z
1/2+x,1/2-y,-z
1/2-x,1/2+y,-z
1/2-x,1/2-y,1/2-z
1/2+x,1/2+y,1/2-z
1/2-x,1/2+y,z
1/2+x,1/2-y,z
loop_
_atom_site_type_symbol
_atom_site_label
_atom_site_fract_x
_atom_site_fract_y
_atom_site_fract_z
Si Si1 0.642337 0.518533 0.816021
Si Si2 0.241518 0.884038 0.569276
Si Si3 0.389091 0.902000 0.069703
Si Si4 0.501485 0.238044 0.181619
O O1 0.691382 0.500000 0.750000
O O2 0.699894 0.475812 0.874279
O O3 0.594705 0.681890 0.826687
O O4 0.567630 0.385068 0.811829
O O5 0.215412 0.939174 0.500000
O O6 0.195399 0.716743 0.573753
O O7 0.346012 0.927654 0.573435
O O8 0.455911 0.855823 0.124729
O O9 0.426474 0.879736 0.000000
O O10 0.500000 0.164215 0.250000
#
# Coordination Sequence:
#
# PCOD9529474 Si02
#       4
#    16  16  16  16
#     4   8  14  26  44  66  90 117 153 196 234 266
#     4   9  17  29  45  68  97 124 153 191 232 277
#     4   9  17  29  47  71  97 124 153 188 232 279
#     4   8  14  26  43  65  91 119 153 195 232 266
#
# _framework density 22.738913
#
# number of rings (size 3 to 8) (size 9 to 14) (size 15 to 20)
#    0.000    3.500    0.000    1.500    0.000    1.000 
#    0.000   16.250    0.000    1.500    0.000   26.250 
#    0.000    0.000    0.000    0.000    0.000    0.000 
#
# Total GULP energy -178199.236678 kJ/mol
# GULP energy per Si atom -5568.726146 kJ/mol
# Density = 2.268716 g / cm^3
# Si number density = 22.738913 Si / 1000 Ang^3
#
#
#
# Elastic Constant Matrix: (Units=GPa)
#
#
# Indices 1 2 3 4 5 6 
#
# 1 43.5413 31.4891 61.7055 0.0000 0.0000 0.0000
# 2 31.4891 87.6422 66.3046 0.0000 0.0000 0.0000
# 3 61.7055 66.3046 218.4021 0.0000 0.0000 0.0000
# 4 0.0000 0.0000 0.0000 -12.0263 0.0000 0.0000
# 5 0.0000 0.0000 0.0000 0.0000 17.7633 0.0000
# 6 0.0000 0.0000 0.0000 0.0000 0.0000 32.9959
#
#
#
# Elastic Compliance Matrix: (Units=1/GPa)
#
#
# Indices 1 2 3 4 5 6 
#
# 1 0.042199 -0.007973 -0.009502 0.000000 0.000000 0.000000
# 2 -0.007973 0.016318 -0.002701 0.000000 0.000000 0.000000
# 3 -0.009502 -0.002701 0.008083 0.000000 0.000000 0.000000
# 4 0.000000 0.000000 0.000000 -0.083151 0.000000 0.000000
# 5 0.000000 0.000000 0.000000 0.000000 0.056296 0.000000
# 6 0.000000 0.000000 0.000000 0.000000 0.000000 0.030307
#
#
# Mechanical properties :
#
#
# Convention : Reuss Voigt Hill
#
# Bulk Modulus (GPa) = 38.09869 74.28710 56.19290
# Shear Modulus (GPa) = 41.96237 20.41901 31.19069
#
# Velocity S-wave (km/s) = 4.30047 2.99988 3.70765
# Velocity P-wave (km/s) = 6.43816 6.68876 6.56466
#
# Compressibility (1/GPa) = 0.02624762
#
# Stress axis : x y z
#
# Youngs Moduli (GPa) = 23.69745 61.28031 123.70987
#
# Poissons Ratio (x) = 0.48859 1.17548
# Poissons Ratio (y) = 0.18894 0.33420
# Poissons Ratio (z) = 0.22517 0.16555
#
# Static dielectric constant tensor:
#      x y z
#    x 1.860260 0.000000 0.000000 
#    y 0.000000 1.892380 0.000000 
#    z 0.000000 0.000000 1.861850 
# 
# From -- ./inp_files/28962.got.cif
#   From: 2010.05.17/outbox.cif.g08.bks.cpg/sg72_15_cif.got.tgz:28962.got - 2010.06.03 17:03:01.
