data_PCOD9529524
_publ_section_title
;
Structure prediction by ZEFSAII (Michael W. Deem and Ramdas Pophale) SiO2 
 PCOD9529524
Probable space group: I B A M
;
_chemical_formula_sum "Si O2"
_cell_formula_units_Z 56
_cell_length_a 15.000000
_cell_length_b 24.000000
_cell_length_c 15.000000
_cell_angle_alpha 90.000000
_cell_angle_beta 90.000000
_cell_angle_gamma 90.000000
_cell_volume 5400.000000
_symmetry_space_group_name_H-M "I B A M"
_symmetry_group_IT_number 72
_symmetry_cell_setting 'orthorhombic'
loop_
_space_group_symop_operation_xyz
x,y,z
-x,-y,z
x,-y,1/2-z
-x,y,1/2-z
-x,-y,-z
x,y,-z
-x,y,1/2+z
x,-y,1/2+z
1/2+x,1/2+y,1/2+z
1/2-x,1/2-y,1/2+z
1/2+x,1/2-y,-z
1/2-x,1/2+y,-z
1/2-x,1/2-y,1/2-z
1/2+x,1/2+y,1/2-z
1/2-x,1/2+y,z
1/2+x,1/2-y,z
loop_
_atom_site_type_symbol
_atom_site_label
_atom_site_fract_x
_atom_site_fract_y
_atom_site_fract_z
Si Si1 0.936462 0.828503 0.834877
Si Si2 0.414279 0.027597 0.400302
Si Si3 0.226463 0.543129 0.171637
Si Si4 0.371354 0.152187 0.607508
Si Si5 0.777545 0.325978 0.212994
Si Si6 0.924556 0.044380 0.604915
Si Si7 0.949763 0.279462 0.895818
O O1 0.829704 0.815030 0.811687
O O2 0.941081 0.889085 0.882535
O O3 0.000000 0.837137 0.750000
O O4 0.991668 0.777725 0.881425
O O5 0.444658 0.043239 0.500000
O O6 0.375672 0.086628 0.369223
O O7 0.500000 0.000000 0.354041
O O8 0.338746 0.980656 0.403117
O O9 0.202084 0.500000 0.250000
O O10 0.212073 0.608608 0.187492
O O11 0.330104 0.533768 0.151094
O O12 0.350306 0.160399 0.500000
O O13 0.302414 0.178293 0.680656
O O14 0.471694 0.175470 0.623122
O O15 0.858541 0.291838 0.161747
O O16 0.913929 0.034082 0.500000
O O17 0.000000 0.000000 0.636418
O O18 0.924539 0.282579 0.000000
#
# Coordination Sequence:
#
# PCOD9529524 Si02
#       7
#    16  16  16  16  16  16  16
#     4  11  26  45  71 100 135 178 231 289 349 421
#     4  10  20  34  55  88 132 178 227 282 341 408
#     4  11  22  37  63  98 131 176 224 278 340 410
#     4  10  21  39  63  95 136 180 230 289 348 415
#     4  11  24  44  69  98 136 183 234 286 353 421
#     4  10  24  43  68  97 133 176 222 280 341 409
#     4  11  25  45  70  99 136 181 232 293 355 421
#
# _framework density 10.370369999999999
#
# number of rings (size 3 to 8) (size 9 to 14) (size 15 to 20)
#    0.000    1.429    1.429    3.000    4.000    7.143 
#    0.000    2.857    0.000    0.857    0.000    0.000 
#    0.000    0.000    0.000    0.000    0.000    0.000 
#
# Total GULP energy -311984.760719 kJ/mol
# GULP energy per Si atom -5571.156441 kJ/mol
# Density = 1.034677 g / cm^3
# Si number density = 10.370370 Si / 1000 Ang^3
#
#
#
# Elastic Constant Matrix: (Units=GPa)
#
#
# Indices 1 2 3 4 5 6 
#
# 1 138.9278 45.1708 36.1130 0.0000 0.0000 0.0000
# 2 45.1708 119.0396 19.1281 0.0000 0.0000 0.0000
# 3 36.1130 19.1281 102.2363 0.0001 0.0000 0.0000
# 4 0.0000 0.0000 0.0001 34.3692 0.0000 0.0000
# 5 0.0000 0.0000 0.0000 0.0000 31.0192 0.0000
# 6 0.0000 0.0000 0.0000 0.0000 0.0000 41.2429
#
#
#
# Elastic Compliance Matrix: (Units=1/GPa)
#
#
# Indices 1 2 3 4 5 6 
#
# 1 0.008819 -0.002934 -0.002566 0.000000 0.000000 0.000000
# 2 -0.002934 0.009637 -0.000767 0.000000 0.000000 0.000000
# 3 -0.002566 -0.000767 0.010831 0.000000 0.000000 0.000000
# 4 0.000000 0.000000 0.000000 0.029096 0.000000 0.000000
# 5 0.000000 0.000000 0.000000 0.000000 0.032238 0.000000
# 6 0.000000 0.000000 0.000000 0.000000 0.000000 0.024247
#
#
# Mechanical properties :
#
#
# Convention : Reuss Voigt Hill
#
# Bulk Modulus (GPa) = 59.68941 62.33641 61.01291
# Shear Modulus (GPa) = 37.59786 38.64571 38.12179
#
# Velocity S-wave (km/s) = 4.26226 4.32125 4.29186
# Velocity P-wave (km/s) = 7.28449 7.41741 7.35125
#
# Compressibility (1/GPa) = 0.01675339
#
# Stress axis : x y z
#
# Youngs Moduli (GPa) = 113.39102 103.76522 92.32622
#
# Poissons Ratio (x) = 0.30446 0.23693
# Poissons Ratio (y) = 0.33270 0.07078
# Poissons Ratio (z) = 0.29098 0.07955
#
# Static dielectric constant tensor:
#      x y z
#    x 1.729000 0.000000 0.000000 
#    y 0.000000 1.803580 0.000000 
#    z 0.000000 0.000000 1.821080 
# 
# From -- ./inp_files/22116.got.cif
#   From: 2010.05.17/outbox.ucp.g08.bks.cvg/sg72_12_cif.got.tgz:22116.got - 2010.06.11 16:33:07.
