data_PCOD9529866
_publ_section_title
;
Structure prediction by ZEFSAII (Michael W. Deem and Ramdas Pophale) SiO2 
 PCOD9529866
Probable space group: I B C A 
;
_chemical_formula_sum "Si O2"
_cell_formula_units_Z 112
_cell_length_a 11.484213
_cell_length_b 14.094150
_cell_length_c 31.926346
_cell_angle_alpha 90.000000
_cell_angle_beta 90.000000
_cell_angle_gamma 90.000000
_cell_volume 5167.605408
_symmetry_space_group_name_H-M "I B C A "
_symmetry_group_IT_number 73
_symmetry_cell_setting 'orthorhombic'
loop_
_space_group_symop_operation_xyz
x,y,z
-x,1/2-y,z
x,-y,1/2-z
1/2-x,y,-z
-x,-y,-z
x,1/2+y,-z
-x,y,1/2+z
1/2+x,-y,z
1/2+x,1/2+y,1/2+z
1/2-x,-y,1/2+z
1/2+x,1/2-y,-z
-x,1/2+y,1/2-z
1/2-x,1/2-y,1/2-z
1/2+x,y,1/2-z
1/2-x,1/2+y,z
x,1/2-y,1/2+z
loop_
_atom_site_type_symbol
_atom_site_label
_atom_site_fract_x
_atom_site_fract_y
_atom_site_fract_z
Si Si1 0.831712 0.212002 0.964579
Si Si2 0.955342 0.384051 0.936079
Si Si3 0.179708 0.439361 0.081604
Si Si4 0.541091 0.356587 0.345535
Si Si5 0.167948 0.387481 0.239833
Si Si6 0.390817 0.035703 0.640250
Si Si7 0.418894 0.107010 0.730790
O O1 0.869698 0.294154 0.932273
O O2 0.749397 0.131463 0.946928
O O3 0.952763 0.153277 0.971021
O O4 0.750000 0.257871 0.000000
O O5 0.881671 0.477931 0.944353
O O6 0.025787 0.413495 0.894210
O O7 0.092154 0.376370 0.108725
O O8 0.269788 0.480479 0.116176
O O9 0.500000 0.250000 0.340652
O O10 0.633604 0.376972 0.308909
O O11 0.440390 0.435457 0.343561
O O12 0.176549 0.500000 0.250000
O O13 0.298690 0.349967 0.249768
O O14 0.048931 0.351810 0.262275
O O15 0.392045 0.099302 0.681583
O O16 0.427421 0.000000 0.750000
#
# Coordination Sequence:
#
# PCOD9529866 Si02
#       7
#    16  16  16  16  16  16  16
#     4  10  22  44  67  96 136 169 217 283 334 423
#     4   9  22  41  66 100 129 176 226 266 345 424
#     4  10  22  40  67  96 132 174 228 270 355 413
#     4  11  22  37  58  96 133 166 228 293 343 417
#     4  10  19  35  58  86 122 174 231 282 344 415
#     4  10  19  39  64  88 131 182 221 286 339 426
#     4  10  18  32  62  87 117 176 243 275 353 405
#
# _framework density 21.673480999999999
#
# number of rings (size 3 to 8) (size 9 to 14) (size 15 to 20)
#    0.000    2.000    4.286    0.000    2.000    1.143 
#    2.571    0.714    6.286    0.000    0.000    0.000 
#    0.000    0.000    0.000    0.000    0.000    0.000 
#
# Total GULP energy -311920.615245 kJ/mol
# GULP energy per Si atom -5570.010987 kJ/mol
# Density = 2.162415 g / cm^3
# Si number density = 21.673481 Si / 1000 Ang^3
#
#
#
# Elastic Constant Matrix: (Units=GPa)
#
#
# Indices 1 2 3 4 5 6 
#
# 1 122.3411 44.5055 17.9363 0.0000 0.0000 0.0000
# 2 44.5055 88.8926 22.5347 0.0000 0.0000 0.0000
# 3 17.9363 22.5347 25.7041 0.0000 0.0000 0.0000
# 4 0.0000 0.0000 0.0000 5.1779 0.0000 0.0000
# 5 0.0000 0.0000 0.0000 0.0000 25.1712 0.0000
# 6 0.0000 0.0000 0.0000 0.0000 0.0000 12.8380
#
#
#
# Elastic Compliance Matrix: (Units=1/GPa)
#
#
# Indices 1 2 3 4 5 6 
#
# 1 0.010220 -0.004255 -0.003402 0.000000 0.000000 0.000000
# 2 -0.004255 0.016235 -0.011265 0.000000 0.000000 0.000000
# 3 -0.003402 -0.011265 0.051154 0.000000 0.000000 0.000000
# 4 0.000000 0.000000 0.000000 0.193128 0.000000 0.000000
# 5 0.000000 0.000000 0.000000 0.000000 0.039728 0.000000
# 6 0.000000 0.000000 0.000000 0.000000 0.000000 0.077894
#
#
# Mechanical properties :
#
#
# Convention : Reuss Voigt Hill
#
# Bulk Modulus (GPa) = 25.14623 45.21010 35.17816
# Shear Modulus (GPa) = 11.37768 18.76817 15.07293
#
# Velocity S-wave (km/s) = 2.29368 2.94590 2.64001
# Velocity P-wave (km/s) = 4.31765 5.69877 5.05560
#
# Compressibility (1/GPa) = 0.03976739
#
# Stress axis : x y z
#
# Youngs Moduli (GPa) = 97.84398 61.59422 19.54900
#
# Poissons Ratio (x) = 0.26206 0.06650
# Poissons Ratio (y) = 0.41629 0.22021
# Poissons Ratio (z) = 0.33284 0.69383
#
# Static dielectric constant tensor:
#      x y z
#    x 1.911180 0.000000 0.000000 
#    y 0.000000 1.767340 0.000000 
#    z 0.000000 0.000000 1.788440 
# 
# From -- ./inp_files/34019.got.cif
#   From: 2010.05.17/outbox.cif.g08.bks.cpg/sg73_18_cif.got.tgz:34019.got - 2010.06.03 17:35:07.
