data_PCOD9529625
_publ_section_title
;
Structure prediction by ZEFSAII (Michael W. Deem and Ramdas Pophale) SiO2 
 PCOD9529625
Probable space group: I B C A 
;
_chemical_formula_sum "Si O2"
_cell_formula_units_Z 88
_cell_length_a 36.371811
_cell_length_b 5.689659
_cell_length_c 17.868466
_cell_angle_alpha 90.000000
_cell_angle_beta 90.000000
_cell_angle_gamma 90.000000
_cell_volume 3697.757565
_symmetry_space_group_name_H-M "I B C A "
_symmetry_group_IT_number 73
_symmetry_cell_setting 'orthorhombic'
loop_
_space_group_symop_operation_xyz
x,y,z
-x,1/2-y,z
x,-y,1/2-z
1/2-x,y,-z
-x,-y,-z
x,1/2+y,-z
-x,y,1/2+z
1/2+x,-y,z
1/2+x,1/2+y,1/2+z
1/2-x,-y,1/2+z
1/2+x,1/2-y,-z
-x,1/2+y,1/2-z
1/2-x,1/2-y,1/2-z
1/2+x,y,1/2-z
1/2-x,1/2+y,z
x,1/2-y,1/2+z
loop_
_atom_site_type_symbol
_atom_site_label
_atom_site_fract_x
_atom_site_fract_y
_atom_site_fract_z
Si Si1 0.235918 0.252306 0.162916
Si Si2 0.500000 0.750000 0.624537
Si Si3 0.620439 0.760541 0.331274
Si Si4 0.461573 0.864884 0.333821
Si Si5 0.351717 0.758811 0.161429
Si Si6 0.940024 0.601744 0.496355
O O1 0.250000 0.250000 0.250000
O O2 0.250628 0.500852 0.131112
O O3 0.192087 0.257866 0.156108
O O4 0.469708 0.637543 0.682446
O O5 0.529280 0.616634 0.569128
O O6 0.576970 0.747659 0.316039
O O7 0.639421 0.750969 0.250098
O O8 0.631908 0.508516 0.367234
O O9 0.631451 0.010774 0.367636
O O10 0.500000 0.750000 0.318914
O O11 0.460642 0.895241 0.424577
O O12 0.919619 0.351930 0.498782
#
# Coordination Sequence:
#
# PCOD9529625 Si02
#       6
#    16   8  16  16  16  16
#     4  10  16  26  52  74  85 112 155 187 214 273
#     4  10  18  32  48  68  94 104 148 224 250 274
#     4  10  21  32  50  60  91 133 154 196 241 275
#     4  11  20  31  48  69  85 116 175 204 232 290
#     4  10  20  38  44  67 101 124 156 186 236 282
#     4  10  17  30  47  67  90 108 132 208 254 280
#
# _framework density 23.798209
#
# number of rings (size 3 to 8) (size 9 to 14) (size 15 to 20)
#    0.000    1.818    2.727    6.545    2.545    0.000 
#    0.000    3.636    0.000    0.000    0.000    0.000 
#    0.000    0.000    0.000    0.000    0.000  887.273 
#
# Total GULP energy -244983.226376 kJ/mol
# GULP energy per Si atom -5567.800599 kJ/mol
# Density = 2.374404 g / cm^3
# Si number density = 23.798209 Si / 1000 Ang^3
#
#
#
# Elastic Constant Matrix: (Units=GPa)
#
#
# Indices 1 2 3 4 5 6 
#
# 1 198.1061 86.2155 14.2559 0.0000 0.0000 0.0000
# 2 86.2155 268.6835 4.3903 0.0000 0.0000 0.0000
# 3 14.2559 4.3903 21.0414 0.0000 0.0000 0.0000
# 4 0.0000 0.0000 0.0000 -68.3455 0.0000 0.0000
# 5 0.0000 0.0000 0.0000 0.0000 -2.9125 0.0000
# 6 0.0000 0.0000 0.0000 0.0000 0.0000 41.1981
#
#
#
# Elastic Compliance Matrix: (Units=1/GPa)
#
#
# Indices 1 2 3 4 5 6 
#
# 1 0.006151 -0.001912 -0.003769 0.000000 0.000000 0.000000
# 2 -0.001912 0.004329 0.000392 0.000000 0.000000 0.000000
# 3 -0.003769 0.000392 0.049997 0.000000 0.000000 0.000000
# 4 0.000000 0.000000 0.000000 -0.014632 0.000000 0.000000
# 5 0.000000 0.000000 0.000000 0.000000 -0.343353 0.000000
# 6 0.000000 0.000000 0.000000 0.000000 0.000000 0.024273
#
#
# Mechanical properties :
#
#
# Convention : Reuss Voigt Hill
#
# Bulk Modulus (GPa) = 20.04002 77.50606 48.77304
# Shear Modulus (GPa) = -20.32323 19.51932 -0.40196
#
# Velocity S-wave (km/s) = -2.92547 2.86702 -0.41142
# Velocity P-wave (km/s) = 1.72396 6.60291 4.50702
#
# Compressibility (1/GPa) = 0.04990014
#
# Stress axis : x y z
#
# Youngs Moduli (GPa) = 162.57029 230.99829 20.00126
#
# Poissons Ratio (x) = 0.44172 0.07538
# Poissons Ratio (y) = 0.31087 -0.00785
# Poissons Ratio (z) = 0.61266 -0.09062
#
# Static dielectric constant tensor:
#      x y z
#    x -1.000530 0.000000 0.000000 
#    y 0.000000 2.315980 0.000000 
#    z 0.000000 0.000000 2.020080 
# 
# From -- ./inp_files/30630.got.cif
#   From: 2010.05.17/outbox.cif.g08.bks.cpg/sg73_16_cif.got.tgz:30630.got - 2010.06.03 17:35:07.
