data_PCOD9529492
_publ_section_title
;
Structure prediction by ZEFSAII (Michael W. Deem and Ramdas Pophale) SiO2 
 PCOD9529492
Probable space group: I B A M
;
_chemical_formula_sum "Si O2"
_cell_formula_units_Z 56
_cell_length_a 27.000000
_cell_length_b 12.000000
_cell_length_c 21.000000
_cell_angle_alpha 90.000000
_cell_angle_beta 90.000000
_cell_angle_gamma 90.000000
_cell_volume 6804.000000
_symmetry_space_group_name_H-M "I B A M"
_symmetry_group_IT_number 72
_symmetry_cell_setting 'orthorhombic'
loop_
_space_group_symop_operation_xyz
x,y,z
-x,-y,z
x,-y,1/2-z
-x,y,1/2-z
-x,-y,-z
x,y,-z
-x,y,1/2+z
x,-y,1/2+z
1/2+x,1/2+y,1/2+z
1/2-x,1/2-y,1/2+z
1/2+x,1/2-y,-z
1/2-x,1/2+y,-z
1/2-x,1/2-y,1/2-z
1/2+x,1/2+y,1/2-z
1/2-x,1/2+y,z
1/2+x,1/2-y,z
loop_
_atom_site_type_symbol
_atom_site_label
_atom_site_fract_x
_atom_site_fract_y
_atom_site_fract_z
Si Si1 0.316030 0.645819 0.075992
Si Si2 0.325658 0.548217 0.321414
Si Si3 0.415215 0.794700 0.925523
Si Si4 0.621747 0.108898 0.795962
Si Si5 0.732594 0.798856 0.318916
Si Si6 0.482245 0.376526 0.350273
Si Si7 0.577928 0.672550 0.771624
O O1 0.330272 0.539765 0.120606
O O2 0.364406 0.723925 0.073028
O O3 0.277531 0.711023 0.123296
O O4 0.302123 0.625158 0.000000
O O5 0.314928 0.500000 0.250000
O O6 0.278096 0.622716 0.338221
O O7 0.376469 0.615219 0.308305
O O8 0.405086 0.883405 0.866713
O O9 0.457313 0.707135 0.901071
O O10 0.424119 0.832027 0.000000
O O11 0.680058 0.137796 0.807537
O O12 0.597637 0.210861 0.756320
O O13 0.617198 0.000000 0.750000
O O14 0.750000 0.750000 0.250000
O O15 0.500000 0.500000 0.372017
O O16 0.442393 0.390629 0.292153
O O17 0.530543 0.320585 0.317780
#
# Coordination Sequence:
#
# PCOD9529492 Si02
#       7
#    16  16  16  16  16  16  16
#     4  10  22  37  52  78 112 145 174 215 276 331
#     4  12  19  31  57  79 108 141 182 224 268 318
#     4   9  19  37  56  78 110 142 182 224 269 330
#     4  10  20  35  56  79 106 141 185 226 271 320
#     4  11  20  33  55  82 105 137 186 230 261 312
#     4  10  18  30  52  82 111 143 177 222 277 321
#     4  10  19  31  49  80 112 135 178 232 273 312
#
# _framework density 8.2304530000000007
#
# number of rings (size 3 to 8) (size 9 to 14) (size 15 to 20)
#    0.000    1.714    2.857    4.714    0.000    0.857 
#    0.000    6.429    0.000    2.571    0.000    0.000 
#    0.000    0.000    0.000    0.000    0.000    0.000 
#
# Total GULP energy -311810.301564 kJ/mol
# GULP energy per Si atom -5568.041099 kJ/mol
# Density = 0.821172 g / cm^3
# Si number density = 8.230453 Si / 1000 Ang^3
#
#
#
# Elastic Constant Matrix: (Units=GPa)
#
#
# Indices 1 2 3 4 5 6 
#
# 1 91.4253 29.9703 32.9155 0.0000 0.0000 0.0000
# 2 29.9703 72.9131 50.0678 0.0000 0.0000 0.0000
# 3 32.9155 50.0678 154.1378 0.0000 0.0000 0.0000
# 4 0.0000 0.0000 0.0000 30.8532 0.0000 0.0000
# 5 0.0000 0.0000 0.0000 0.0000 27.1725 0.0000
# 6 0.0000 0.0000 0.0000 0.0000 0.0000 27.9261
#
#
#
# Elastic Compliance Matrix: (Units=1/GPa)
#
#
# Indices 1 2 3 4 5 6 
#
# 1 0.012848 -0.004372 -0.001323 0.000000 0.000000 0.000000
# 2 -0.004372 0.019140 -0.005284 0.000000 0.000000 0.000000
# 3 -0.001323 -0.005284 0.008487 0.000000 0.000000 0.000000
# 4 0.000000 0.000000 0.000000 0.032412 0.000000 0.000000
# 5 0.000000 0.000000 0.000000 0.000000 0.036802 0.000000
# 6 0.000000 0.000000 0.000000 0.000000 0.000000 0.035809
#
#
# Mechanical properties :
#
#
# Convention : Reuss Voigt Hill
#
# Bulk Modulus (GPa) = 54.00693 60.48706 57.24700
# Shear Modulus (GPa) = 28.79742 30.89188 29.84465
#
# Velocity S-wave (km/s) = 4.18717 4.33677 4.26263
# Velocity P-wave (km/s) = 7.50047 7.86781 7.68633
#
# Compressibility (1/GPa) = 0.01851614
#
# Stress axis : x y z
#
# Youngs Moduli (GPa) = 77.83568 52.24609 117.83382
#
# Poissons Ratio (x) = 0.22843 0.15594
# Poissons Ratio (y) = 0.34031 0.62258
# Poissons Ratio (z) = 0.10300 0.27605
#
# Static dielectric constant tensor:
#      x y z
#    x 1.565350 0.000000 0.000000 
#    y 0.000000 1.593170 0.000000 
#    z 0.000000 0.000000 1.565170 
# 
# From -- ./inp_files/40868.got.cif
#   From: 2010.05.17/outbox.ucp.g08.bks.cvg/sg72_21_cif.got.tgz:40868.got - 2010.06.11 16:33:07.
