data_PCOD9529296
_publ_section_title
;
Structure prediction by ZEFSAII (Michael W. Deem and Ramdas Pophale) SiO2 
 PCOD9529296
Probable space group: I B A M
;
_chemical_formula_sum "Si O2"
_cell_formula_units_Z 64
_cell_length_a 10.983922
_cell_length_b 18.781977
_cell_length_c 14.084443
_cell_angle_alpha 90.000000
_cell_angle_beta 90.000000
_cell_angle_gamma 90.000000
_cell_volume 2905.617357
_symmetry_space_group_name_H-M "I B A M"
_symmetry_group_IT_number 72
_symmetry_cell_setting 'orthorhombic'
loop_
_space_group_symop_operation_xyz
x,y,z
-x,-y,z
x,-y,1/2-z
-x,y,1/2-z
-x,-y,-z
x,y,-z
-x,y,1/2+z
x,-y,1/2+z
1/2+x,1/2+y,1/2+z
1/2-x,1/2-y,1/2+z
1/2+x,1/2-y,-z
1/2-x,1/2+y,-z
1/2-x,1/2-y,1/2-z
1/2+x,1/2+y,1/2-z
1/2-x,1/2+y,z
1/2+x,1/2-y,z
loop_
_atom_site_type_symbol
_atom_site_label
_atom_site_fract_x
_atom_site_fract_y
_atom_site_fract_z
Si Si1 0.882016 0.962209 0.647354
Si Si2 0.367052 0.969828 0.607509
Si Si3 0.633576 0.166568 0.279617
Si Si4 0.179449 0.808111 0.113264
O O1 0.900793 0.877317 0.640803
O O2 0.876807 0.000000 0.750000
O O3 0.745358 0.974903 0.607613
O O4 0.000000 0.000000 0.601800
O O5 0.386707 0.944621 0.500000
O O6 0.318524 0.903664 0.668643
O O7 0.500000 0.000000 0.637971
O O8 0.500000 0.146922 0.250000
O O9 0.705393 0.184877 0.183784
O O10 0.626501 0.232885 0.351677
O O11 0.202077 0.808421 0.000000
#
# Coordination Sequence:
#
# PCOD9529296 Si02
#       4
#    16  16  16  16
#     4  11  24  42  70  99 133 179 227 280 341 407
#     4  11  24  43  70 104 138 179 232 285 340 407
#     4  11  25  43  69  97 134 181 226 281 343 413
#     4  11  25  44  66  98 136 176 225 283 343 410
#
# _framework density 22.026299999999999
#
# number of rings (size 3 to 8) (size 9 to 14) (size 15 to 20)
#    0.000    1.000    2.500    3.000    3.500    6.000 
#    0.000    0.000    0.000    0.750    0.000    0.000 
#    0.000    0.000    0.000    0.000    0.000    0.000 
#
# Total GULP energy -178528.323147 kJ/mol
# GULP energy per Si atom -5579.010098 kJ/mol
# Density = 2.197617 g / cm^3
# Si number density = 22.026300 Si / 1000 Ang^3
#
#
#
# Elastic Constant Matrix: (Units=GPa)
#
#
# Indices 1 2 3 4 5 6 
#
# 1 87.9104 19.5163 -0.5642 -0.0001 0.0000 0.0000
# 2 19.5163 146.0513 42.5654 0.0000 0.0000 0.0000
# 3 -0.5642 42.5654 173.5753 0.0001 0.0000 0.0000
# 4 -0.0001 0.0000 0.0001 36.1324 0.0000 0.0000
# 5 0.0000 0.0000 0.0000 0.0000 63.6428 0.0000
# 6 0.0000 0.0000 0.0000 0.0000 0.0000 34.4468
#
#
#
# Elastic Compliance Matrix: (Units=1/GPa)
#
#
# Indices 1 2 3 4 5 6 
#
# 1 0.011756 -0.001704 0.000456 0.000000 0.000000 0.000000
# 2 -0.001704 0.007621 -0.001874 0.000000 0.000000 0.000000
# 3 0.000456 -0.001874 0.006222 0.000000 0.000000 0.000000
# 4 0.000000 0.000000 0.000000 0.027676 0.000000 0.000000
# 5 0.000000 0.000000 0.000000 0.000000 0.015713 0.000000
# 6 0.000000 0.000000 0.000000 0.000000 0.000000 0.029030
#
#
# Mechanical properties :
#
#
# Convention : Reuss Voigt Hill
#
# Bulk Modulus (GPa) = 51.66575 58.95244 55.30910
# Shear Modulus (GPa) = 45.16114 49.91238 47.53676
#
# Velocity S-wave (km/s) = 4.53297 4.76545 4.65066
# Velocity P-wave (km/s) = 7.13473 7.55659 7.34869
#
# Compressibility (1/GPa) = 0.01935518
#
# Stress axis : x y z
#
# Youngs Moduli (GPa) = 85.05994 131.21875 160.71179
#
# Poissons Ratio (x) = 0.22358 -0.07329
# Poissons Ratio (y) = 0.14493 0.30124
# Poissons Ratio (z) = -0.03879 0.24595
#
# Static dielectric constant tensor:
#      x y z
#    x 1.826050 0.000000 0.000000 
#    y 0.000000 1.813050 0.000000 
#    z 0.000000 0.000000 1.857730 
# 
# From -- ./inp_files/19706.got.cif
#   From: 2010.05.17/outbox.cif.g08.bks.cpg/sg72_10_cif.got.tgz:19706.got - 2010.06.03 17:03:01.
