data_PCOD9529612
_publ_section_title
;
Structure prediction by ZEFSAII (Michael W. Deem and Ramdas Pophale) SiO2 
 PCOD9529612
Probable space group: I B C A 
;
_chemical_formula_sum "Si O2"
_cell_formula_units_Z 112
_cell_length_a 5.370851
_cell_length_b 32.612855
_cell_length_c 26.955681
_cell_angle_alpha 90.000000
_cell_angle_beta 90.000000
_cell_angle_gamma 90.000000
_cell_volume 4721.524330
_symmetry_space_group_name_H-M "I B C A "
_symmetry_group_IT_number 73
_symmetry_cell_setting 'orthorhombic'
loop_
_space_group_symop_operation_xyz
x,y,z
-x,1/2-y,z
x,-y,1/2-z
1/2-x,y,-z
-x,-y,-z
x,1/2+y,-z
-x,y,1/2+z
1/2+x,-y,z
1/2+x,1/2+y,1/2+z
1/2-x,-y,1/2+z
1/2+x,1/2-y,-z
-x,1/2+y,1/2-z
1/2-x,1/2-y,1/2-z
1/2+x,y,1/2-z
1/2-x,1/2+y,z
x,1/2-y,1/2+z
loop_
_atom_site_type_symbol
_atom_site_label
_atom_site_fract_x
_atom_site_fract_y
_atom_site_fract_z
Si Si1 0.034821 0.411220 0.780008
Si Si2 0.499574 0.295381 0.466216
Si Si3 0.000478 0.386935 0.033133
Si Si4 0.630742 0.292990 0.809907
Si Si5 0.600371 0.487233 0.174047
Si Si6 0.868579 0.180063 0.804108
Si Si7 0.600861 0.979065 0.563689
O O1 0.811389 0.418166 0.740981
O O2 0.974858 0.440026 0.826295
O O3 0.020795 0.364380 0.795350
O O4 0.500000 0.250000 0.439798
O O5 0.750000 0.295275 0.500000
O O6 0.493673 0.341215 0.441504
O O7 0.250000 0.295057 0.500000
O O8 0.026295 0.431183 0.060246
O O9 0.250000 0.385943 0.000000
O O10 0.750000 0.389586 0.000000
O O11 0.500000 0.250000 0.818452
O O12 0.408436 0.323303 0.825733
O O13 0.670572 0.299715 0.750500
O O14 0.907025 0.296732 0.831723
O O15 0.366740 0.508861 0.199090
O O16 0.626088 0.508845 0.121482
O O17 0.376473 0.008538 0.544645
#
# Coordination Sequence:
#
# PCOD9529612 Si02
#       7
#    16  16  16  16  16  16  16
#     4  12  21  34  53  72  99 127 164 219 264 314
#     4   8  14  25  41  66 106 145 171 205 252 302
#     4  10  19  30  50  81 110 146 185 217 259 298
#     4  10  16  25  41  61  94 130 151 180 246 315
#     4  10  23  40  54  71  95 131 174 208 271 316
#     4  10  16  27  38  64  92 121 153 191 241 298
#     4  10  21  37  53  71 106 143 181 225 258 315
#
# _framework density 23.721153999999999
#
# number of rings (size 3 to 8) (size 9 to 14) (size 15 to 20)
#    0.000    2.000    2.857    3.857    0.000    3.429 
#    0.000    0.000    0.000    0.000    0.000    0.000 
#    0.000   36.571    0.000    1.143    0.000    0.571 
#
# Total GULP energy -311965.362152 kJ/mol
# GULP energy per Si atom -5570.810038 kJ/mol
# Density = 2.366716 g / cm^3
# Si number density = 23.721154 Si / 1000 Ang^3
#
#
#
# Elastic Constant Matrix: (Units=GPa)
#
#
# Indices 1 2 3 4 5 6 
#
# 1 208.7588 11.4637 14.6761 0.0000 0.0000 0.0000
# 2 11.4637 165.5685 25.3721 0.0000 0.0000 0.0000
# 3 14.6761 25.3721 52.1884 0.0000 0.0000 0.0000
# 4 0.0000 0.0000 0.0000 -97.2533 0.0000 0.0000
# 5 0.0000 0.0000 0.0000 0.0000 -97.0754 0.0000
# 6 0.0000 0.0000 0.0000 0.0000 0.0000 39.5863
#
#
#
# Elastic Compliance Matrix: (Units=1/GPa)
#
#
# Indices 1 2 3 4 5 6 
#
# 1 0.004890 -0.000138 -0.001308 0.000000 0.000000 0.000000
# 2 -0.000138 0.006530 -0.003136 0.000000 0.000000 0.000000
# 3 -0.001308 -0.003136 0.021054 0.000000 0.000000 0.000000
# 4 0.000000 0.000000 0.000000 -0.010282 0.000000 0.000000
# 5 0.000000 0.000000 0.000000 0.000000 -0.010301 0.000000
# 6 0.000000 0.000000 0.000000 0.000000 0.000000 0.025261
#
#
# Mechanical properties :
#
#
# Convention : Reuss Voigt Hill
#
# Bulk Modulus (GPa) = 42.90061 58.83770 50.86916
# Shear Modulus (GPa) = 92.44829 -5.94821 43.25004
#
# Velocity S-wave (km/s) = 6.24960 -1.58524 4.27461
# Velocity P-wave (km/s) = 8.37863 4.63757 6.77157
#
# Compressibility (1/GPa) = 0.02330969
#
# Stress axis : x y z
#
# Youngs Moduli (GPa) = 204.50946 153.14194 47.49777
#
# Poissons Ratio (x) = 0.02115 0.06212
# Poissons Ratio (y) = 0.02825 0.14894
# Poissons Ratio (z) = 0.26748 0.48021
#
# Static dielectric constant tensor:
#      x y z
#    x 2.049330 0.000000 0.000000 
#    y 0.000000 2.002880 0.000000 
#    z 0.000000 0.000000 1.771540 
# 
# From -- ./inp_files/33370.got.cif
#   From: 2010.05.17/outbox.cif.g08.bks.cpg/sg73_17_cif.got.tgz:33370.got - 2010.06.03 17:35:07.
