data_PCOD9529119
_publ_section_title
;
Structure prediction by ZEFSAII (Michael W. Deem and Ramdas Pophale) SiO2 
 PCOD9529119
Probable space group: I B A M
;
_chemical_formula_sum "Si O2"
_cell_formula_units_Z 96
_cell_length_a 14.638964
_cell_length_b 20.786498
_cell_length_c 15.462632
_cell_angle_alpha 90.000000
_cell_angle_beta 90.000000
_cell_angle_gamma 90.000000
_cell_volume 4705.167523
_symmetry_space_group_name_H-M "I B A M"
_symmetry_group_IT_number 72
_symmetry_cell_setting 'orthorhombic'
loop_
_space_group_symop_operation_xyz
x,y,z
-x,-y,z
x,-y,1/2-z
-x,y,1/2-z
-x,-y,-z
x,y,-z
-x,y,1/2+z
x,-y,1/2+z
1/2+x,1/2+y,1/2+z
1/2-x,1/2-y,1/2+z
1/2+x,1/2-y,-z
1/2-x,1/2+y,-z
1/2-x,1/2-y,1/2-z
1/2+x,1/2+y,1/2-z
1/2-x,1/2+y,z
1/2+x,1/2-y,z
loop_
_atom_site_type_symbol
_atom_site_label
_atom_site_fract_x
_atom_site_fract_y
_atom_site_fract_z
Si Si1 0.755004 0.556755 0.822403
Si Si2 0.529087 0.688885 0.656774
Si Si3 0.967851 0.569187 0.849877
Si Si4 0.342616 0.488791 0.000000
Si Si5 0.267540 0.681288 0.793236
Si Si6 0.021465 0.904056 0.500000
Si Si7 0.915617 0.687281 0.401342
O O1 0.752345 0.500000 0.750000
O O2 0.859252 0.571564 0.848482
O O3 0.707262 0.531877 0.910774
O O4 0.720398 0.622327 0.775010
O O5 0.500000 0.663604 0.750000
O O6 0.638642 0.693147 0.655606
O O7 0.506445 0.639402 0.582965
O O8 0.472163 0.754418 0.642216
O O9 0.000000 0.500000 0.883232
O O10 0.000000 0.574121 0.750000
O O11 0.017316 0.626469 0.898563
O O12 0.438160 0.452488 0.000000
O O13 0.378180 0.562720 0.000000
O O14 0.250000 0.750000 0.750000
O O15 0.177323 0.669337 0.850997
O O16 0.894103 0.705135 0.500000
#
# Coordination Sequence:
#
# PCOD9529119 Si02
#       7
#    16  16  16   8  16   8  16
#     4  12  24  47  72 104 141 185 235 290 358 434
#     4  12  24  46  72  99 142 186 234 293 359 417
#     4  11  21  44  67  96 141 181 224 290 354 431
#     4  11  28  46  74 103 139 183 244 294 352 427
#     4  12  25  44  72 102 138 185 234 290 356 424
#     4  11  26  50  67 105 140 181 241 302 349 419
#     4  12  26  43  66 104 143 183 238 291 357 429
#
# _framework density 20.403099999999998
#
# number of rings (size 3 to 8) (size 9 to 14) (size 15 to 20)
#    0.000    0.333    5.833    3.500    2.333    0.333 
#    4.500    1.667    0.000    0.000    0.000    0.000 
#    0.000    0.000    0.000    0.000    0.000    0.000 
#
# Total GULP energy -268204.501904 kJ/mol
# GULP energy per Si atom -5587.593790 kJ/mol
# Density = 2.035666 g / cm^3
# Si number density = 20.403100 Si / 1000 Ang^3
#
#
#
# Elastic Constant Matrix: (Units=GPa)
#
#
# Indices 1 2 3 4 5 6 
#
# 1 130.9009 17.3097 47.2391 0.0000 0.0000 0.0000
# 2 17.3097 78.4072 41.2404 0.0000 0.0000 0.0000
# 3 47.2391 41.2404 142.2793 0.0001 0.0000 0.0000
# 4 0.0000 0.0000 0.0001 14.7017 0.0000 0.0000
# 5 0.0000 0.0000 0.0000 0.0000 25.3735 0.0000
# 6 0.0000 0.0000 0.0000 0.0000 0.0000 33.6271
#
#
#
# Elastic Compliance Matrix: (Units=1/GPa)
#
#
# Indices 1 2 3 4 5 6 
#
# 1 0.008694 -0.000473 -0.002749 0.000000 0.000000 0.000000
# 2 -0.000473 0.015074 -0.004212 0.000000 0.000000 0.000000
# 3 -0.002749 -0.004212 0.009162 0.000000 0.000000 0.000000
# 4 0.000000 0.000000 0.000000 0.068019 0.000000 0.000000
# 5 0.000000 0.000000 0.000000 0.000000 0.039411 0.000000
# 6 0.000000 0.000000 0.000000 0.000000 0.000000 0.029738
#
#
# Mechanical properties :
#
#
# Convention : Reuss Voigt Hill
#
# Bulk Modulus (GPa) = 55.36902 62.57400 58.97151
# Shear Modulus (GPa) = 26.17958 31.12700 28.65329
#
# Velocity S-wave (km/s) = 3.58595 3.91013 3.75154
# Velocity P-wave (km/s) = 6.65897 7.14989 6.90879
#
# Compressibility (1/GPa) = 0.01806064
#
# Stress axis : x y z
#
# Youngs Moduli (GPa) = 115.01981 66.33989 109.14416
#
# Poissons Ratio (x) = 0.03139 0.30008
# Poissons Ratio (y) = 0.05443 0.45973
# Poissons Ratio (z) = 0.31624 0.27943
#
# Static dielectric constant tensor:
#      x y z
#    x 1.696000 0.000000 0.000000 
#    y 0.000000 2.131240 0.000000 
#    z 0.000000 0.000000 1.793970 
# 
# From -- ./inp_files/21899.got.cif
#   From: 2010.05.17/outbox.cif.g08.bks.cpg/sg72_11_cif.got.tgz:21899.got - 2010.06.03 17:03:01.
