data_PCOD9529039
_publ_section_title
;
Structure prediction by ZEFSAII (Michael W. Deem and Ramdas Pophale) SiO2 
 PCOD9529039
Probable space group: I B A M
;
_chemical_formula_sum "Si O2"
_cell_formula_units_Z 100
_cell_length_a 14.815272
_cell_length_b 9.242606
_cell_length_c 29.969414
_cell_angle_alpha 90.000000
_cell_angle_beta 90.000000
_cell_angle_gamma 90.000000
_cell_volume 4103.763463
_symmetry_space_group_name_H-M "I B A M"
_symmetry_group_IT_number 72
_symmetry_cell_setting 'orthorhombic'
loop_
_space_group_symop_operation_xyz
x,y,z
-x,-y,z
x,-y,1/2-z
-x,y,1/2-z
-x,-y,-z
x,y,-z
-x,y,1/2+z
x,-y,1/2+z
1/2+x,1/2+y,1/2+z
1/2-x,1/2-y,1/2+z
1/2+x,1/2-y,-z
1/2-x,1/2+y,-z
1/2-x,1/2-y,1/2-z
1/2+x,1/2+y,1/2-z
1/2-x,1/2+y,z
1/2+x,1/2-y,z
loop_
_atom_site_type_symbol
_atom_site_label
_atom_site_fract_x
_atom_site_fract_y
_atom_site_fract_z
Si Si1 0.000000 0.500000 0.250000
Si Si2 0.873355 0.638511 0.500000
Si Si3 0.618724 0.914173 0.830136
Si Si4 0.201361 0.129427 0.779616
Si Si5 0.090504 0.307057 0.000000
Si Si6 0.315343 0.284367 0.906335
Si Si7 0.412098 0.425217 0.571881
Si Si8 0.380530 0.775619 0.140926
O O1 0.939321 0.593801 0.284560
O O2 0.635439 0.964213 0.500000
O O3 0.832910 0.703245 0.453797
O O4 0.981619 0.670900 0.500000
O O5 0.721085 0.937001 0.811849
O O6 0.624908 0.787651 0.866576
O O7 0.409816 0.940042 0.855811
O O8 0.250000 0.250000 0.750000
O O9 0.132065 0.214316 0.809927
O O10 0.164156 0.000000 0.750000
O O11 0.117564 0.204701 0.040472
O O12 0.341389 0.450671 0.916189
O O13 0.215756 0.274831 0.884912
O O14 0.500000 0.500000 0.551479
O O15 0.441592 0.339221 0.615717
#
# Coordination Sequence:
#
# PCOD9529039 Si02
#       8
#     4   8  16  16   8  16  16  16
#     4  12  24  40  68  96 140 180 250 294 344 446
#     4  11  23  45  74 110 136 201 235 292 356 465
#     4  11  24  42  65 100 134 190 234 299 359 434
#     4  11  20  40  65  92 129 179 231 289 362 426
#     4  11  24  44  69  99 150 181 237 283 372 427
#     4  11  24  43  73 101 144 181 247 297 371 435
#     4  12  25  44  69 104 139 190 229 309 364 432
#     4  11  25  44  67 101 140 184 239 297 365 437
#
# _framework density 24.367875999999999
#
# number of rings (size 3 to 8) (size 9 to 14) (size 15 to 20)
#    0.000    0.800    4.000    3.600    4.480    1.920 
#    0.000    2.400    0.000    0.960    0.000    0.000 
#    0.000    0.000    0.000    0.000    0.000    0.000 
#
# Total GULP energy -279747.424318 kJ/mol
# GULP energy per Si atom -5594.948486 kJ/mol
# Density = 2.431241 g / cm^3
# Si number density = 24.367876 Si / 1000 Ang^3
#
#
#
# Elastic Constant Matrix: (Units=GPa)
#
#
# Indices 1 2 3 4 5 6 
#
# 1 73.3441 33.0891 32.2591 0.0000 0.0000 0.0000
# 2 33.0891 184.9586 70.9406 0.0000 0.0000 0.0000
# 3 32.2591 70.9406 164.2188 0.0000 0.0000 0.0000
# 4 0.0000 0.0000 0.0000 49.4889 0.0000 0.0000
# 5 0.0000 0.0000 0.0000 0.0000 -215.3594 0.0000
# 6 0.0000 0.0000 0.0000 0.0000 0.0000 25.6221
#
#
#
# Elastic Compliance Matrix: (Units=1/GPa)
#
#
# Indices 1 2 3 4 5 6 
#
# 1 0.015473 -0.001920 -0.002210 0.000000 0.000000 0.000000
# 2 -0.001920 0.006719 -0.002525 0.000000 0.000000 0.000000
# 3 -0.002210 -0.002525 0.007614 0.000000 0.000000 0.000000
# 4 0.000000 0.000000 0.000000 0.020207 0.000000 0.000000
# 5 0.000000 0.000000 0.000000 0.000000 -0.004643 0.000000
# 6 0.000000 0.000000 0.000000 0.000000 0.000000 0.039029
#
#
# Mechanical properties :
#
#
# Convention : Reuss Voigt Hill
#
# Bulk Modulus (GPa) = 60.62487 77.23325 68.92906
# Shear Modulus (GPa) = 48.44632 -8.96751 19.73941
#
# Velocity S-wave (km/s) = 4.46367 -1.92043 2.84924
# Velocity P-wave (km/s) = 7.17627 5.18132 6.25879
#
# Compressibility (1/GPa) = 0.01649488
#
# Stress axis : x y z
#
# Youngs Moduli (GPa) = 64.62976 148.83820 131.33067
#
# Poissons Ratio (x) = 0.28584 0.29022
# Poissons Ratio (y) = 0.12412 0.33163
# Poissons Ratio (z) = 0.14282 0.37584
#
# Static dielectric constant tensor:
#      x y z
#    x 2.020280 0.000000 0.000000 
#    y 0.000000 1.951180 0.000000 
#    z 0.000000 0.000000 1.872190 
# 
# From -- ./inp_files/51745.got.cif
#   From: 2010.05.17/outbox.cif.g08.bks.cpg/sg72_26_cif.got.tgz:51745.got - 2010.06.03 17:03:01.
