data_PCOD9529775
_publ_section_title
;
Structure prediction by ZEFSAII (Michael W. Deem and Ramdas Pophale) SiO2 
 PCOD9529775
Probable space group: I B C A 
;
_chemical_formula_sum "Si O2"
_cell_formula_units_Z 88
_cell_length_a 26.771685
_cell_length_b 20.628745
_cell_length_c 8.666934
_cell_angle_alpha 90.000000
_cell_angle_beta 90.000000
_cell_angle_gamma 90.000000
_cell_volume 4786.455253
_symmetry_space_group_name_H-M "I B C A "
_symmetry_group_IT_number 73
_symmetry_cell_setting 'orthorhombic'
loop_
_space_group_symop_operation_xyz
x,y,z
-x,1/2-y,z
x,-y,1/2-z
1/2-x,y,-z
-x,-y,-z
x,1/2+y,-z
-x,y,1/2+z
1/2+x,-y,z
1/2+x,1/2+y,1/2+z
1/2-x,-y,1/2+z
1/2+x,1/2-y,-z
-x,1/2+y,1/2-z
1/2-x,1/2-y,1/2-z
1/2+x,y,1/2-z
1/2-x,1/2+y,z
x,1/2-y,1/2+z
loop_
_atom_site_type_symbol
_atom_site_label
_atom_site_fract_x
_atom_site_fract_y
_atom_site_fract_z
Si Si1 0.856425 0.959637 0.022387
Si Si2 0.952093 0.832307 0.276366
Si Si3 0.750000 0.096512 0.000000
Si Si4 0.463826 0.456746 0.604239
Si Si5 0.154462 0.603526 0.338672
Si Si6 0.500000 0.250000 0.037606
Si Si7 0.293484 0.500000 0.250000
O O1 0.914189 0.939791 0.009086
O O2 0.833433 0.918075 0.162525
O O3 0.855835 0.035423 0.072945
O O4 0.827122 0.956813 0.863886
O O5 0.980758 0.891756 0.191455
O O6 0.896649 0.855696 0.323012
O O7 0.980412 0.806481 0.426029
O O8 0.956063 0.775496 0.149390
O O9 0.700945 0.132984 0.934838
O O10 0.762986 0.047958 0.859298
O O11 0.447339 0.500000 0.750000
O O12 0.500000 0.500000 0.500000
#
# Coordination Sequence:
#
# PCOD9529775 Si02
#       7
#    16  16   8  16  16   8   8
#     4   9  17  31  45  76 113 148 172 216 271 341
#     4  10  20  38  56  79 109 144 194 234 272 341
#     4  10  18  30  52  76 104 150 182 226 274 332
#     4  11  20  32  52  81 117 146 172 225 285 340
#     4   9  17  33  52  73 108 139 180 228 279 326
#     4  10  22  38  58  76 104 156 198 232 278 322
#     4  10  18  28  48  72 114 148 184 202 262 356
#
# _framework density 18.385213
#
# number of rings (size 3 to 8) (size 9 to 14) (size 15 to 20)
#    0.000    2.182    3.636    3.273    1.273    0.000 
#    0.000    3.636    0.000    1.091    0.000    0.000 
#    0.000    0.000    0.000    0.000    0.000    0.000 
#
# Total GULP energy -244936.685660 kJ/mol
# GULP energy per Si atom -5566.742856 kJ/mol
# Density = 1.834337 g / cm^3
# Si number density = 18.385213 Si / 1000 Ang^3
#
#
#
# Elastic Constant Matrix: (Units=GPa)
#
#
# Indices 1 2 3 4 5 6 
#
# 1 103.1474 21.1733 59.2941 0.0000 0.0000 0.0000
# 2 21.1733 42.8652 23.1326 0.0000 0.0000 0.0000
# 3 59.2941 23.1326 109.2351 0.0000 0.0000 0.0000
# 4 0.0000 0.0000 0.0000 29.6566 0.0000 0.0000
# 5 0.0000 0.0000 0.0000 0.0000 28.1994 0.0000
# 6 0.0000 0.0000 0.0000 0.0000 0.0000 16.2002
#
#
#
# Elastic Compliance Matrix: (Units=1/GPa)
#
#
# Indices 1 2 3 4 5 6 
#
# 1 0.014491 -0.003289 -0.007170 0.000000 0.000000 0.000000
# 2 -0.003289 0.027085 -0.003951 0.000000 0.000000 0.000000
# 3 -0.007170 -0.003951 0.013883 0.000000 0.000000 0.000000
# 4 0.000000 0.000000 0.000000 0.033719 0.000000 0.000000
# 5 0.000000 0.000000 0.000000 0.000000 0.035462 0.000000
# 6 0.000000 0.000000 0.000000 0.000000 0.000000 0.061728
#
#
# Mechanical properties :
#
#
# Convention : Reuss Voigt Hill
#
# Bulk Modulus (GPa) = 37.53532 51.38307 44.45919
# Shear Modulus (GPa) = 22.31472 24.92109 23.61791
#
# Velocity S-wave (km/s) = 3.48765 3.68570 3.58804
# Velocity P-wave (km/s) = 6.05628 6.79126 6.43428
#
# Compressibility (1/GPa) = 0.02664157
#
# Stress axis : x y z
#
# Youngs Moduli (GPa) = 69.00631 36.92017 72.03081
#
# Poissons Ratio (x) = 0.12143 0.51643
# Poissons Ratio (y) = 0.22695 0.28457
# Poissons Ratio (z) = 0.49475 0.14586
#
# Static dielectric constant tensor:
#      x y z
#    x 1.711360 0.000000 0.000000 
#    y 0.000000 1.666340 0.000000 
#    z 0.000000 0.000000 1.652280 
# 
# From -- ./inp_files/6659.got.cif
#   From: 2010.05.17/outbox.cif.g08.bks.cpg/sg73_4_cif.got.tgz:6659.got - 2010.06.03 17:35:07.
