data_PCOD9529973
_publ_section_title
;
Structure prediction by ZEFSAII (Michael W. Deem and Ramdas Pophale) SiO2 
 PCOD9529973
Probable space group: I B C A 
;
_chemical_formula_sum "Si O2"
_cell_formula_units_Z 96
_cell_length_a 18.987561
_cell_length_b 9.441623
_cell_length_c 25.006253
_cell_angle_alpha 90.000000
_cell_angle_beta 90.000000
_cell_angle_gamma 90.000000
_cell_volume 4482.955813
_symmetry_space_group_name_H-M "I B C A "
_symmetry_group_IT_number 73
_symmetry_cell_setting 'orthorhombic'
loop_
_space_group_symop_operation_xyz
x,y,z
-x,1/2-y,z
x,-y,1/2-z
1/2-x,y,-z
-x,-y,-z
x,1/2+y,-z
-x,y,1/2+z
1/2+x,-y,z
1/2+x,1/2+y,1/2+z
1/2-x,-y,1/2+z
1/2+x,1/2-y,-z
-x,1/2+y,1/2-z
1/2-x,1/2-y,1/2-z
1/2+x,y,1/2-z
1/2-x,1/2+y,z
x,1/2-y,1/2+z
loop_
_atom_site_type_symbol
_atom_site_label
_atom_site_fract_x
_atom_site_fract_y
_atom_site_fract_z
Si Si1 0.915692 0.168600 0.520343
Si Si2 0.324801 0.805776 0.273443
Si Si3 0.543601 0.959912 0.568386
Si Si4 0.857666 0.901017 0.331456
Si Si5 0.774867 0.050162 0.554392
Si Si6 0.212948 0.211606 0.378531
O O1 0.930727 0.332967 0.529254
O O2 0.960760 0.077701 0.564375
O O3 0.936450 0.103425 0.462780
O O4 0.834617 0.152921 0.533332
O O5 0.250000 0.750000 0.250000
O O6 0.376361 0.811990 0.222428
O O7 0.335723 0.712810 0.326093
O O8 0.324279 0.959351 0.302963
O O9 0.581988 0.938724 0.625504
O O10 0.794330 0.818703 0.360774
O O11 0.750000 0.978334 0.500000
O O12 0.806727 0.924787 0.588403
O O13 0.718529 0.142825 0.587728
#
# Coordination Sequence:
#
# PCOD9529973 Si02
#       6
#    16  16  16  16  16  16
#     4  10  23  38  59  89 123 169 207 254 314 388
#     4   9  20  34  59  89 118 156 208 259 315 368
#     4  10  21  40  62  85 123 167 215 256 309 384
#     4  10  18  37  60  86 116 160 207 257 312 372
#     4  12  24  35  56  92 130 163 200 251 320 386
#     4  11  21  36  55  88 124 158 198 258 316 373
#
# _framework density 21.414442000000001
#
# number of rings (size 3 to 8) (size 9 to 14) (size 15 to 20)
#    0.000    1.667    3.333    1.500    2.333    0.000 
#    0.000    0.000    0.000    8.000    0.000    0.000 
#    0.000    0.000    0.000    0.000    0.000    0.000 
#
# Total GULP energy -267218.898246 kJ/mol
# GULP energy per Si atom -5567.060380 kJ/mol
# Density = 2.136570 g / cm^3
# Si number density = 21.414442 Si / 1000 Ang^3
#
#
#
# Elastic Constant Matrix: (Units=GPa)
#
#
# Indices 1 2 3 4 5 6 
#
# 1 36.7963 -16.9070 23.7293 0.0000 0.0000 0.0000
# 2 -16.9070 66.5109 33.6395 0.0000 0.0000 0.0000
# 3 23.7293 33.6395 156.1745 0.0000 0.0000 0.0000
# 4 0.0000 0.0000 0.0000 40.8364 0.0000 0.0000
# 5 0.0000 0.0000 0.0000 0.0000 32.3228 0.0000
# 6 0.0000 0.0000 0.0000 0.0000 0.0000 10.6496
#
#
#
# Elastic Compliance Matrix: (Units=1/GPa)
#
#
# Indices 1 2 3 4 5 6 
#
# 1 0.039983 0.014855 -0.009275 0.000000 0.000000 0.000000
# 2 0.014855 0.022392 -0.007080 0.000000 0.000000 0.000000
# 3 -0.009275 -0.007080 0.009337 0.000000 0.000000 0.000000
# 4 0.000000 0.000000 0.000000 0.024488 0.000000 0.000000
# 5 0.000000 0.000000 0.000000 0.000000 0.030938 0.000000
# 6 0.000000 0.000000 0.000000 0.000000 0.000000 0.093900
#
#
# Mechanical properties :
#
#
# Convention : Reuss Voigt Hill
#
# Bulk Modulus (GPa) = 14.55354 37.82282 26.18818
# Shear Modulus (GPa) = 20.24754 31.36307 25.80531
#
# Velocity S-wave (km/s) = 3.07825 3.83113 3.47514
# Velocity P-wave (km/s) = 4.40965 6.10497 5.32521
#
# Compressibility (1/GPa) = 0.06871182
#
# Stress axis : x y z
#
# Youngs Moduli (GPa) = 25.01062 44.65850 107.09667
#
# Poissons Ratio (x) = -0.66338 0.99329
# Poissons Ratio (y) = -0.37152 0.75827
# Poissons Ratio (z) = 0.23197 0.31619
#
# Static dielectric constant tensor:
#      x y z
#    x 1.854890 0.000000 0.000000 
#    y 0.000000 1.858650 0.000000 
#    z 0.000000 0.000000 1.862550 
# 
# From -- ./inp_files/32605.got.cif
#   From: 2010.05.17/outbox.cif.g08.bks.cpg/sg73_17_cif.got.tgz:32605.got - 2010.06.03 17:35:07.
