data_PCOD9529955
_publ_section_title
;
Structure prediction by ZEFSAII (Michael W. Deem and Ramdas Pophale) SiO2 
 PCOD9529955
Probable space group: I B C A 
;
_chemical_formula_sum "Si O2"
_cell_formula_units_Z 96
_cell_length_a 18.910122
_cell_length_b 12.513258
_cell_length_c 18.308397
_cell_angle_alpha 90.000000
_cell_angle_beta 90.000000
_cell_angle_gamma 90.000000
_cell_volume 4332.265367
_symmetry_space_group_name_H-M "I B C A "
_symmetry_group_IT_number 73
_symmetry_cell_setting 'orthorhombic'
loop_
_space_group_symop_operation_xyz
x,y,z
-x,1/2-y,z
x,-y,1/2-z
1/2-x,y,-z
-x,-y,-z
x,1/2+y,-z
-x,y,1/2+z
1/2+x,-y,z
1/2+x,1/2+y,1/2+z
1/2-x,-y,1/2+z
1/2+x,1/2-y,-z
-x,1/2+y,1/2-z
1/2-x,1/2-y,1/2-z
1/2+x,y,1/2-z
1/2-x,1/2+y,z
x,1/2-y,1/2+z
loop_
_atom_site_type_symbol
_atom_site_label
_atom_site_fract_x
_atom_site_fract_y
_atom_site_fract_z
Si Si1 0.467171 0.483809 0.137381
Si Si2 0.166009 0.785133 0.858898
Si Si3 0.626593 0.016571 0.612057
Si Si4 0.236551 0.965274 0.173609
Si Si5 0.934588 0.672195 0.248911
Si Si6 0.851793 0.924049 0.950863
O O1 0.547865 0.446495 0.129575
O O2 0.422305 0.386747 0.172297
O O3 0.460567 0.580769 0.194863
O O4 0.431252 0.533898 0.066190
O O5 0.122458 0.886827 0.889977
O O6 0.239062 0.842736 0.836005
O O7 0.128757 0.733748 0.788331
O O8 0.164736 0.693602 0.920040
O O9 0.688733 0.032049 0.671122
O O10 0.656340 0.062401 0.536544
O O11 0.201662 0.000000 0.250000
O O12 0.195323 0.001796 0.101843
O O13 0.000000 0.750000 0.239467
#
# Coordination Sequence:
#
# PCOD9529955 Si02
#       6
#    16  16  16  16  16  16
#     4  10  22  36  68  94 129 163 224 276 343 405
#     4   9  23  40  67  91 131 182 220 277 350 400
#     4  10  22  45  64  95 132 179 219 280 350 422
#     4  10  24  43  66  95 132 177 233 279 345 408
#     4  10  18  36  62  94 130 163 214 272 335 394
#     4  11  23  45  63  97 135 175 224 290 340 417
#
# _framework density 22.159309
#
# number of rings (size 3 to 8) (size 9 to 14) (size 15 to 20)
#    1.000    1.000    1.667    1.000    9.333    0.667 
#    9.000    0.000    0.000    0.000    0.000    0.000 
#    0.000    0.000    0.000    0.000    0.000    0.000 
#
# Total GULP energy -267700.961105 kJ/mol
# GULP energy per Si atom -5577.103356 kJ/mol
# Density = 2.210887 g / cm^3
# Si number density = 22.159309 Si / 1000 Ang^3
#
#
#
# Elastic Constant Matrix: (Units=GPa)
#
#
# Indices 1 2 3 4 5 6 
#
# 1 72.5163 9.0684 12.6360 0.0000 0.0000 0.0000
# 2 9.0684 100.6974 26.0684 0.0000 0.0000 0.0000
# 3 12.6360 26.0684 86.0484 0.0000 0.0000 0.0000
# 4 0.0000 0.0000 0.0000 9.0389 0.0000 0.0000
# 5 0.0000 0.0000 0.0000 0.0000 27.7821 0.0000
# 6 0.0000 0.0000 0.0000 0.0000 0.0000 29.1457
#
#
#
# Elastic Compliance Matrix: (Units=1/GPa)
#
#
# Indices 1 2 3 4 5 6 
#
# 1 0.014212 -0.000803 -0.001844 0.000000 0.000000 0.000000
# 2 -0.000803 0.010821 -0.003160 0.000000 0.000000 0.000000
# 3 -0.001844 -0.003160 0.012850 0.000000 0.000000 0.000000
# 4 0.000000 0.000000 0.000000 0.110633 0.000000 0.000000
# 5 0.000000 0.000000 0.000000 0.000000 0.035994 0.000000
# 6 0.000000 0.000000 0.000000 0.000000 0.000000 0.034310
#
#
# Mechanical properties :
#
#
# Convention : Reuss Voigt Hill
#
# Bulk Modulus (GPa) = 38.06788 39.42308 38.74548
# Shear Modulus (GPa) = 20.90387 27.29261 24.09824
#
# Velocity S-wave (km/s) = 3.07472 3.51330 3.30130
# Velocity P-wave (km/s) = 5.46093 5.85552 5.66166
#
# Compressibility (1/GPa) = 0.02626886
#
# Stress axis : x y z
#
# Youngs Moduli (GPa) = 70.36477 92.41131 77.82352
#
# Poissons Ratio (x) = 0.07416 0.14349
# Poissons Ratio (y) = 0.05647 0.24596
# Poissons Ratio (z) = 0.12974 0.29206
#
# Static dielectric constant tensor:
#      x y z
#    x 1.891830 0.000000 0.000000 
#    y 0.000000 1.800380 0.000000 
#    z 0.000000 0.000000 1.811180 
# 
# From -- ./inp_files/26897.got.cif
#   From: 2010.05.17/outbox.cif.g08.bks.cpg/sg73_14_cif.got.tgz:26897.got - 2010.06.03 17:35:07.
