data_PCOD9529387
_publ_section_title
;
Structure prediction by ZEFSAII (Michael W. Deem and Ramdas Pophale) SiO2 
 PCOD9529387
Probable space group: I B A M
;
_chemical_formula_sum "Si O2"
_cell_formula_units_Z 72
_cell_length_a 14.919129
_cell_length_b 9.748630
_cell_length_c 23.728138
_cell_angle_alpha 90.000000
_cell_angle_beta 90.000000
_cell_angle_gamma 90.000000
_cell_volume 3451.045745
_symmetry_space_group_name_H-M "I B A M"
_symmetry_group_IT_number 72
_symmetry_cell_setting 'orthorhombic'
loop_
_space_group_symop_operation_xyz
x,y,z
-x,-y,z
x,-y,1/2-z
-x,y,1/2-z
-x,-y,-z
x,y,-z
-x,y,1/2+z
x,-y,1/2+z
1/2+x,1/2+y,1/2+z
1/2-x,1/2-y,1/2+z
1/2+x,1/2-y,-z
1/2-x,1/2+y,-z
1/2-x,1/2-y,1/2-z
1/2+x,1/2+y,1/2-z
1/2-x,1/2+y,z
1/2+x,1/2-y,z
loop_
_atom_site_type_symbol
_atom_site_label
_atom_site_fract_x
_atom_site_fract_y
_atom_site_fract_z
Si Si1 0.250835 0.044052 0.367159
Si Si2 0.816566 0.801547 0.798825
Si Si3 0.000000 0.705946 0.750000
Si Si4 0.430934 0.111448 0.132267
Si Si5 0.577293 0.387749 0.434082
O O1 0.203690 0.956627 0.317252
O O2 0.333459 0.946067 0.381667
O O3 0.292586 0.189472 0.347529
O O4 0.175007 0.061783 0.413998
O O5 0.750000 0.750000 0.750000
O O6 0.919446 0.786429 0.780225
O O7 0.948489 0.625658 0.699636
O O8 0.444256 0.257334 0.104226
O O9 0.500000 0.000000 0.110344
O O10 0.500000 0.500000 0.425208
O O11 0.578842 0.352286 0.500000
#
# Coordination Sequence:
#
# PCOD9529387 Si02
#       5
#    16  16   8  16  16
#     4  12  24  44  68 104 138 182 238 292 351 425
#     4  12  24  39  68 101 146 188 233 281 350 437
#     4  12  23  42  69 104 151 192 223 290 361 432
#     4  12  25  43  74 107 143 187 239 289 359 437
#     4  11  27  51  73  99 140 187 244 309 361 417
#
# _framework density 20.863240999999999
#
# number of rings (size 3 to 8) (size 9 to 14) (size 15 to 20)
#    0.000    0.222    6.667    2.333    0.000    1.333 
#    0.000    7.222    0.000    0.000    0.000    0.000 
#    0.000    0.000    0.000    0.000    0.000    0.000 
#
# Total GULP energy -201274.852927 kJ/mol
# GULP energy per Si atom -5590.968137 kJ/mol
# Density = 2.081576 g / cm^3
# Si number density = 20.863241 Si / 1000 Ang^3
#
#
#
# Elastic Constant Matrix: (Units=GPa)
#
#
# Indices 1 2 3 4 5 6 
#
# 1 147.0762 32.3512 34.4421 0.0000 0.0000 0.0000
# 2 32.3512 93.0183 45.1655 0.0000 0.0000 0.0000
# 3 34.4421 45.1655 89.6735 0.0000 0.0000 0.0000
# 4 0.0000 0.0000 0.0000 45.2263 0.0000 0.0000
# 5 0.0000 0.0000 0.0000 0.0000 34.2438 0.0000
# 6 0.0000 0.0000 0.0000 0.0000 0.0000 34.0147
#
#
#
# Elastic Compliance Matrix: (Units=1/GPa)
#
#
# Indices 1 2 3 4 5 6 
#
# 1 0.007654 -0.001634 -0.002117 0.000000 0.000000 0.000000
# 2 -0.001634 0.014580 -0.006716 0.000000 0.000000 0.000000
# 3 -0.002117 -0.006716 0.015347 0.000000 0.000000 0.000000
# 4 0.000000 0.000000 0.000000 0.022111 0.000000 0.000000
# 5 0.000000 0.000000 0.000000 0.000000 0.029202 0.000000
# 6 0.000000 0.000000 0.000000 0.000000 0.000000 0.029399
#
#
# Mechanical properties :
#
#
# Convention : Reuss Voigt Hill
#
# Bulk Modulus (GPa) = 60.06823 61.52062 60.79442
# Shear Modulus (GPa) = 34.53601 37.21756 35.87678
#
# Velocity S-wave (km/s) = 4.07302 4.22818 4.15133
# Velocity P-wave (km/s) = 7.13955 7.30673 7.22362
#
# Compressibility (1/GPa) = 0.01664774
#
# Stress axis : x y z
#
# Youngs Moduli (GPa) = 130.64394 68.58803 65.15927
#
# Poissons Ratio (x) = 0.11210 0.13793
# Poissons Ratio (y) = 0.21352 0.43759
# Poissons Ratio (z) = 0.27654 0.46061
#
# Static dielectric constant tensor:
#      x y z
#    x 1.751820 0.000000 0.000000 
#    y 0.000000 1.757220 0.000000 
#    z 0.000000 0.000000 1.746920 
# 
# From -- ./inp_files/48473.got.cif
#   From: 2010.05.17/outbox.cif.g08.bks.cpg/sg72_25_cif.got.tgz:48473.got - 2010.06.03 17:03:01.
