data_PCOD9529691
_publ_section_title
;
Structure prediction by ZEFSAII (Michael W. Deem and Ramdas Pophale) SiO2 
 PCOD9529691
Probable space group: I B C A 
;
_chemical_formula_sum "Si O2"
_cell_formula_units_Z 72
_cell_length_a 5.448904
_cell_length_b 21.531744
_cell_length_c 25.449375
_cell_angle_alpha 90.000000
_cell_angle_beta 90.000000
_cell_angle_gamma 90.000000
_cell_volume 2985.832805
_symmetry_space_group_name_H-M "I B C A "
_symmetry_group_IT_number 73
_symmetry_cell_setting 'orthorhombic'
loop_
_space_group_symop_operation_xyz
x,y,z
-x,1/2-y,z
x,-y,1/2-z
1/2-x,y,-z
-x,-y,-z
x,1/2+y,-z
-x,y,1/2+z
1/2+x,-y,z
1/2+x,1/2+y,1/2+z
1/2-x,-y,1/2+z
1/2+x,1/2-y,-z
-x,1/2+y,1/2-z
1/2-x,1/2-y,1/2-z
1/2+x,y,1/2-z
1/2-x,1/2+y,z
x,1/2-y,1/2+z
loop_
_atom_site_type_symbol
_atom_site_label
_atom_site_fract_x
_atom_site_fract_y
_atom_site_fract_z
Si Si1 0.250000 0.794626 0.000000
Si Si2 0.750793 0.775107 0.888463
Si Si3 0.105274 0.884776 0.543436
Si Si4 0.271194 0.537609 0.388091
Si Si5 0.628019 0.928067 0.270413
O O1 0.252504 0.761803 0.055944
O O2 0.005682 0.834628 0.003412
O O3 0.500000 0.750000 0.862100
O O4 0.727297 0.847437 0.907128
O O5 0.000000 0.750000 0.861943
O O6 0.250000 0.926029 0.500000
O O7 0.864513 0.916984 0.567044
O O8 0.990945 0.514326 0.391015
O O9 0.307323 0.568648 0.331398
O O10 0.860792 0.899937 0.240187
O O11 0.603779 0.000000 0.250000
#
# Coordination Sequence:
#
# PCOD9529691 Si02
#       5
#     8  16  16  16  16
#     4  10  18  36  54  74  98 144 184 236 268 300
#     4  10  17  32  56  74  93 135 182 232 272 295
#     4  11  23  35  54  77 114 150 190 224 266 325
#     4  12  25  38  53  81 114 151 186 224 270 332
#     4  10  16  35  62  76  94 137 184 234 281 305
#
# _framework density 24.113876000000001
#
# number of rings (size 3 to 8) (size 9 to 14) (size 15 to 20)
#    0.000    1.333    7.778    0.667    3.111    0.889 
#    0.000    0.000    0.000    0.000    0.000    0.000 
#    0.000   23.111    0.000    0.000    0.000    0.000 
#
# Total GULP energy -200620.263132 kJ/mol
# GULP energy per Si atom -5572.785087 kJ/mol
# Density = 2.405899 g / cm^3
# Si number density = 24.113876 Si / 1000 Ang^3
#
#
#
# Elastic Constant Matrix: (Units=GPa)
#
#
# Indices 1 2 3 4 5 6 
#
# 1 133.2467 10.9762 -9.8200 0.0000 0.0000 0.0000
# 2 10.9762 18.3474 -1.6271 0.0000 0.0000 0.0000
# 3 -9.8200 -1.6271 34.7967 0.0000 0.0000 0.0000
# 4 0.0000 0.0000 0.0000 -30.7497 0.0000 0.0000
# 5 0.0000 0.0000 0.0000 0.0000 18.5845 0.0000
# 6 0.0000 0.0000 0.0000 0.0000 0.0000 24.2642
#
#
#
# Elastic Compliance Matrix: (Units=1/GPa)
#
#
# Indices 1 2 3 4 5 6 
#
# 1 0.008037 -0.004626 0.002052 0.000000 0.000000 0.000000
# 2 -0.004626 0.057393 0.001378 0.000000 0.000000 0.000000
# 3 0.002052 0.001378 0.029382 0.000000 0.000000 0.000000
# 4 0.000000 0.000000 0.000000 -0.032521 0.000000 0.000000
# 5 0.000000 0.000000 0.000000 0.000000 0.053808 0.000000
# 6 0.000000 0.000000 0.000000 0.000000 0.000000 0.041213
#
#
# Mechanical properties :
#
#
# Convention : Reuss Voigt Hill
#
# Bulk Modulus (GPa) = 10.82016 20.60545 15.71281
# Shear Modulus (GPa) = 26.24503 14.87724 20.56113
#
# Velocity S-wave (km/s) = 3.30264 2.48656 2.92322
# Velocity P-wave (km/s) = 4.36349 4.09970 4.23365
#
# Compressibility (1/GPa) = 0.09242005
#
# Stress axis : x y z
#
# Youngs Moduli (GPa) = 124.42187 17.42360 34.03462
#
# Poissons Ratio (x) = 0.08061 -0.06983
# Poissons Ratio (y) = 0.57560 -0.04691
# Poissons Ratio (z) = -0.25529 -0.02401
#
# Static dielectric constant tensor:
#      x y z
#    x 2.270690 0.000000 0.000000 
#    y 0.000000 2.076710 0.000000 
#    z 0.000000 0.000000 1.856640 
# 
# From -- ./inp_files/1691.got.cif
#   From: 2010.05.17/outbox.cif.g08.bks.cpg/sg73_1_cif.got.tgz:1691.got - 2010.06.03 17:35:07.
