data_PCOD9529164
_publ_section_title
;
Structure prediction by ZEFSAII (Michael W. Deem and Ramdas Pophale) SiO2 
 PCOD9529164
Probable space group: I B A M
;
_chemical_formula_sum "Si O2"
_cell_formula_units_Z 64
_cell_length_a 11.034495
_cell_length_b 9.375891
_cell_length_c 28.961539
_cell_angle_alpha 90.000000
_cell_angle_beta 90.000000
_cell_angle_gamma 90.000000
_cell_volume 2996.309342
_symmetry_space_group_name_H-M "I B A M"
_symmetry_group_IT_number 72
_symmetry_cell_setting 'orthorhombic'
loop_
_space_group_symop_operation_xyz
x,y,z
-x,-y,z
x,-y,1/2-z
-x,y,1/2-z
-x,-y,-z
x,y,-z
-x,y,1/2+z
x,-y,1/2+z
1/2+x,1/2+y,1/2+z
1/2-x,1/2-y,1/2+z
1/2+x,1/2-y,-z
1/2-x,1/2+y,-z
1/2-x,1/2-y,1/2-z
1/2+x,1/2+y,1/2-z
1/2-x,1/2+y,z
1/2+x,1/2-y,z
loop_
_atom_site_type_symbol
_atom_site_label
_atom_site_fract_x
_atom_site_fract_y
_atom_site_fract_z
Si Si1 0.867379 0.162170 0.267602
Si Si2 0.042051 0.837157 0.000000
Si Si3 0.631374 0.434575 0.127838
Si Si4 0.763956 0.823137 0.579715
Si Si5 0.380107 0.086649 0.500000
O O1 0.750000 0.250000 0.250000
O O2 0.872725 0.141615 0.322757
O O3 0.000000 0.216779 0.250000
O O4 0.855729 0.000000 0.250000
O O5 0.120849 0.795232 0.045629
O O6 0.000000 0.000000 0.000000
O O7 0.918757 0.750626 0.000000
O O8 0.500000 0.500000 0.115517
O O9 0.688557 0.315553 0.094149
O O10 0.707755 0.581226 0.124558
O O11 0.691878 0.931636 0.546537
O O12 0.500000 0.000000 0.500000
#
# Coordination Sequence:
#
# PCOD9529164 Si02
#       5
#    16   8  16  16   8
#     4  11  24  48  73 102 140 185 232 301 382 436
#     4  11  22  43  65  92 141 182 227 272 349 411
#     4  12  24  43  69 100 135 177 240 294 353 436
#     4  11  24  39  66  99 133 183 229 289 346 416
#     4  11  22  39  56  90 137 174 222 270 337 405
#
# _framework density 21.35961
#
# number of rings (size 3 to 8) (size 9 to 14) (size 15 to 20)
#    0.000    0.750    2.500    6.750    0.000    4.500 
#    0.000    1.875    0.000    0.000    0.000    0.000 
#    0.000    0.000    0.000    0.000    0.000    0.000 
#
# Total GULP energy -178463.335562 kJ/mol
# GULP energy per Si atom -5576.979236 kJ/mol
# Density = 2.131099 g / cm^3
# Si number density = 21.359610 Si / 1000 Ang^3
#
#
#
# Elastic Constant Matrix: (Units=GPa)
#
#
# Indices 1 2 3 4 5 6 
#
# 1 124.5367 53.6296 46.8242 0.0000 0.0000 0.0000
# 2 53.6296 103.2441 34.3885 0.0000 0.0000 0.0000
# 3 46.8242 34.3885 129.1983 0.0000 0.0000 0.0000
# 4 0.0000 0.0000 0.0000 -65.6794 0.0000 0.0000
# 5 0.0000 0.0000 0.0000 0.0000 7.2157 0.0000
# 6 0.0000 0.0000 0.0000 0.0000 0.0000 57.8572
#
#
#
# Elastic Compliance Matrix: (Units=1/GPa)
#
#
# Indices 1 2 3 4 5 6 
#
# 1 0.011166 -0.004885 -0.002747 0.000000 0.000000 0.000000
# 2 -0.004885 0.012765 -0.001627 0.000000 0.000000 0.000000
# 3 -0.002747 -0.001627 0.009169 0.000000 0.000000 0.000000
# 4 0.000000 0.000000 0.000000 -0.015225 0.000000 0.000000
# 5 0.000000 0.000000 0.000000 0.000000 0.138587 0.000000
# 6 0.000000 0.000000 0.000000 0.000000 0.000000 0.017284
#
#
# Mechanical properties :
#
#
# Convention : Reuss Voigt Hill
#
# Bulk Modulus (GPa) = 68.57784 69.62930 69.10357
# Shear Modulus (GPa) = 25.36461 14.68783 20.02622
#
# Velocity S-wave (km/s) = 3.44976 2.62514 3.06530
# Velocity P-wave (km/s) = 6.93136 6.46976 6.70454
#
# Compressibility (1/GPa) = 0.01458197
#
# Stress axis : x y z
#
# Youngs Moduli (GPa) = 89.55557 78.33628 109.06856
#
# Poissons Ratio (x) = 0.38271 0.29956
# Poissons Ratio (y) = 0.43752 0.17747
# Poissons Ratio (z) = 0.24597 0.12747
#
# Static dielectric constant tensor:
#      x y z
#    x 1.706730 0.000000 0.000000 
#    y 0.000000 1.155650 0.000000 
#    z 0.000000 0.000000 1.768430 
# 
# From -- ./inp_files/50614.got.cif
#   From: 2010.05.17/outbox.cif.g08.bks.cpg/sg72_26_cif.got.tgz:50614.got - 2010.06.03 17:03:01.
