data_PCOD9529255
_publ_section_title
;
Structure prediction by ZEFSAII (Michael W. Deem and Ramdas Pophale) SiO2 
 PCOD9529255
Probable space group: I B A M
;
_chemical_formula_sum "Si O2"
_cell_formula_units_Z 64
_cell_length_a 8.019147
_cell_length_b 14.191439
_cell_length_c 22.004810
_cell_angle_alpha 90.000000
_cell_angle_beta 90.000000
_cell_angle_gamma 90.000000
_cell_volume 2504.218574
_symmetry_space_group_name_H-M "I B A M"
_symmetry_group_IT_number 72
_symmetry_cell_setting 'orthorhombic'
loop_
_space_group_symop_operation_xyz
x,y,z
-x,-y,z
x,-y,1/2-z
-x,y,1/2-z
-x,-y,-z
x,y,-z
-x,y,1/2+z
x,-y,1/2+z
1/2+x,1/2+y,1/2+z
1/2-x,1/2-y,1/2+z
1/2+x,1/2-y,-z
1/2-x,1/2+y,-z
1/2-x,1/2-y,1/2-z
1/2+x,1/2+y,1/2-z
1/2-x,1/2+y,z
1/2+x,1/2-y,z
loop_
_atom_site_type_symbol
_atom_site_label
_atom_site_fract_x
_atom_site_fract_y
_atom_site_fract_z
Si Si1 0.328836 0.441666 0.368695
Si Si2 0.277414 0.094117 0.000000
Si Si3 0.159913 0.630971 0.500000
Si Si4 0.617862 0.796133 0.808666
Si Si5 0.304776 0.139938 0.629968
O O1 0.500000 0.500000 0.362042
O O2 0.318924 0.393752 0.435718
O O3 0.275374 0.365818 0.318072
O O4 0.198693 0.527904 0.363876
O O5 0.459415 0.142231 0.000000
O O6 0.310994 0.981419 0.000000
O O7 0.243050 0.666579 0.438519
O O8 0.500000 0.805746 0.750000
O O9 0.491528 0.825197 0.861332
O O10 0.687127 0.692691 0.822179
#
# Coordination Sequence:
#
# PCOD9529255 Si02
#       5
#    16   8   8  16  16
#     4  11  23  42  71 106 141 191 246 310 390 459
#     4   9  17  37  67 102 143 177 232 305 379 457
#     4   9  18  37  67 102 135 184 232 302 384 451
#     4  12  26  46  69 101 146 199 252 312 369 454
#     4  11  24  43  68 101 141 188 247 314 383 447
#
# _framework density 25.556874000000001
#
# number of rings (size 3 to 8) (size 9 to 14) (size 15 to 20)
#    0.000    1.250    2.500    3.375    0.000    4.000 
#    0.000    3.750    0.000    0.000    0.000    0.000 
#    0.000    0.000    0.000    0.000    0.000    0.000 
#
# Total GULP energy -178960.065240 kJ/mol
# GULP energy per Si atom -5592.502039 kJ/mol
# Density = 2.549870 g / cm^3
# Si number density = 25.556874 Si / 1000 Ang^3
#
#
#
# Elastic Constant Matrix: (Units=GPa)
#
#
# Indices 1 2 3 4 5 6 
#
# 1 99.6687 10.2117 47.7657 0.0000 0.0000 0.0000
# 2 10.2117 102.7307 48.3140 0.0000 0.0000 0.0000
# 3 47.7657 48.3140 170.3889 0.0000 0.0000 0.0000
# 4 0.0000 0.0000 0.0000 25.0226 0.0000 0.0000
# 5 0.0000 0.0000 0.0000 0.0000 31.7613 0.0000
# 6 0.0000 0.0000 0.0000 0.0000 0.0000 44.8055
#
#
#
# Elastic Compliance Matrix: (Units=1/GPa)
#
#
# Indices 1 2 3 4 5 6 
#
# 1 0.011607 0.000434 -0.003377 0.000000 0.000000 0.000000
# 2 0.000434 0.011248 -0.003311 0.000000 0.000000 0.000000
# 3 -0.003377 -0.003311 0.007755 0.000000 0.000000 0.000000
# 4 0.000000 0.000000 0.000000 0.039964 0.000000 0.000000
# 5 0.000000 0.000000 0.000000 0.000000 0.031485 0.000000
# 6 0.000000 0.000000 0.000000 0.000000 0.000000 0.022319
#
#
# Mechanical properties :
#
#
# Convention : Reuss Voigt Hill
#
# Bulk Modulus (GPa) = 55.24177 65.04123 60.14150
# Shear Modulus (GPa) = 34.98479 38.08435 36.53457
#
# Velocity S-wave (km/s) = 3.70388 3.86447 3.78503
# Velocity P-wave (km/s) = 6.32090 6.73922 6.53341
#
# Compressibility (1/GPa) = 0.01810224
#
# Stress axis : x y z
#
# Youngs Moduli (GPa) = 86.15361 88.90249 128.95663
#
# Poissons Ratio (x) = -0.03862 0.43550
# Poissons Ratio (y) = -0.03743 0.42701
# Poissons Ratio (z) = 0.29095 0.29438
#
# Static dielectric constant tensor:
#      x y z
#    x 2.050500 0.000000 0.000000 
#    y 0.000000 1.986010 0.000000 
#    z 0.000000 0.000000 2.086500 
# 
# From -- ./inp_files/41949.got.cif
#   From: 2010.05.17/outbox.cif.g08.bks.cpg/sg72_21_cif.got.tgz:41949.got - 2010.06.03 17:03:01.
