data_PCOD9529946
_publ_section_title
;
Structure prediction by ZEFSAII (Michael W. Deem and Ramdas Pophale) SiO2 
 PCOD9529946
Probable space group: I B C A 
;
_chemical_formula_sum "Si O2"
_cell_formula_units_Z 96
_cell_length_a 28.282297
_cell_length_b 14.635668
_cell_length_c 12.920981
_cell_angle_alpha 90.000000
_cell_angle_beta 90.000000
_cell_angle_gamma 90.000000
_cell_volume 5348.385660
_symmetry_space_group_name_H-M "I B C A "
_symmetry_group_IT_number 73
_symmetry_cell_setting 'orthorhombic'
loop_
_space_group_symop_operation_xyz
x,y,z
-x,1/2-y,z
x,-y,1/2-z
1/2-x,y,-z
-x,-y,-z
x,1/2+y,-z
-x,y,1/2+z
1/2+x,-y,z
1/2+x,1/2+y,1/2+z
1/2-x,-y,1/2+z
1/2+x,1/2-y,-z
-x,1/2+y,1/2-z
1/2-x,1/2-y,1/2-z
1/2+x,y,1/2-z
1/2-x,1/2+y,z
x,1/2-y,1/2+z
loop_
_atom_site_type_symbol
_atom_site_label
_atom_site_fract_x
_atom_site_fract_y
_atom_site_fract_z
Si Si1 0.761434 0.818874 0.660209
Si Si2 0.045691 0.400971 0.781396
Si Si3 0.624755 0.511521 0.927825
Si Si4 0.197123 0.500000 0.750000
Si Si5 0.500000 0.750000 0.422519
Si Si6 0.668994 0.684867 0.019311
Si Si7 0.415408 0.676656 0.064665
O O1 0.750000 0.750000 0.750000
O O2 0.772598 0.916170 0.710134
O O3 0.807629 0.791518 0.592551
O O4 0.714734 0.821742 0.590909
O O5 0.023940 0.500000 0.750000
O O6 0.089011 0.431624 0.854913
O O7 0.065057 0.347377 0.680092
O O8 0.013264 0.334817 0.848753
O O9 0.664109 0.473998 0.847623
O O10 0.599636 0.423740 0.976371
O O11 0.646357 0.584566 0.005921
O O12 0.543740 0.721826 0.495555
O O13 0.629954 0.756538 0.058527
#
# Coordination Sequence:
#
# PCOD9529946 Si02
#       7
#    16  16  16   8   8  16  16
#     4  10  22  36  60  88 121 156 202 248 302 362
#     4  10  22  41  61  87 121 163 201 249 312 367
#     4  10  19  38  61  83 120 161 201 243 310 366
#     4  10  18  36  60  80 116 164 196 240 300 368
#     4  12  24  40  62  98 118 154 216 254 304 374
#     4  10  22  38  57  92 120 154 205 253 297 366
#     4  11  22  39  66  85 121 165 199 256 308 361
#
# _framework density 17.949341
#
# number of rings (size 3 to 8) (size 9 to 14) (size 15 to 20)
#    0.000    1.667    4.167    1.500    2.333    4.000 
#    3.000    3.333    0.000    0.000    0.000    0.000 
#    0.000    0.000    0.000    0.000    0.000    0.000 
#
# Total GULP energy -267690.347121 kJ/mol
# GULP energy per Si atom -5576.882232 kJ/mol
# Density = 1.790849 g / cm^3
# Si number density = 17.949341 Si / 1000 Ang^3
#
#
#
# Elastic Constant Matrix: (Units=GPa)
#
#
# Indices 1 2 3 4 5 6 
#
# 1 91.5239 60.4895 29.0861 0.0000 0.0000 0.0000
# 2 60.4895 101.0469 53.3595 0.0000 0.0000 0.0000
# 3 29.0861 53.3595 56.4696 0.0000 0.0000 0.0000
# 4 0.0000 0.0000 0.0000 38.0957 0.0000 0.0000
# 5 0.0000 0.0000 0.0000 0.0000 13.2130 0.0000
# 6 0.0000 0.0000 0.0000 0.0000 0.0000 32.6442
#
#
#
# Elastic Compliance Matrix: (Units=1/GPa)
#
#
# Indices 1 2 3 4 5 6 
#
# 1 0.018174 -0.011848 0.001835 0.000000 0.000000 0.000000
# 2 -0.011848 0.027477 -0.019861 0.000000 0.000000 0.000000
# 3 0.001835 -0.019861 0.035531 0.000000 0.000000 0.000000
# 4 0.000000 0.000000 0.000000 0.026250 0.000000 0.000000
# 5 0.000000 0.000000 0.000000 0.000000 0.075683 0.000000
# 6 0.000000 0.000000 0.000000 0.000000 0.000000 0.030633
#
#
# Mechanical properties :
#
#
# Convention : Reuss Voigt Hill
#
# Bulk Modulus (GPa) = 46.65773 59.43453 53.04613
# Shear Modulus (GPa) = 17.81644 23.86428 20.84036
#
# Velocity S-wave (km/s) = 3.15397 3.65023 3.41114
# Velocity P-wave (km/s) = 6.27008 7.13792 6.71803
#
# Compressibility (1/GPa) = 0.02143267
#
# Stress axis : x y z
#
# Youngs Moduli (GPa) = 55.02484 36.39424 28.14474
#
# Poissons Ratio (x) = 0.43120 -0.05164
# Poissons Ratio (y) = 0.65194 0.55898
# Poissons Ratio (z) = -0.10096 0.72282
#
# Static dielectric constant tensor:
#      x y z
#    x 2.790220 0.000000 0.000000 
#    y 0.000000 1.603030 0.000000 
#    z 0.000000 0.000000 1.623990 
# 
# From -- ./inp_files/11206.got.cif
#   From: 2010.05.17/outbox.cif.g08.bks.cpg/sg73_6_cif.got.tgz:11206.got - 2010.06.03 17:35:07.
