data_PCOD9529285
_publ_section_title
;
Structure prediction by ZEFSAII (Michael W. Deem and Ramdas Pophale) SiO2 
 PCOD9529285
Probable space group: I B A M
;
_chemical_formula_sum "Si O2"
_cell_formula_units_Z 64
_cell_length_a 10.564040
_cell_length_b 8.850689
_cell_length_c 32.185847
_cell_angle_alpha 90.000000
_cell_angle_beta 90.000000
_cell_angle_gamma 90.000000
_cell_volume 3009.345559
_symmetry_space_group_name_H-M "I B A M"
_symmetry_group_IT_number 72
_symmetry_cell_setting 'orthorhombic'
loop_
_space_group_symop_operation_xyz
x,y,z
-x,-y,z
x,-y,1/2-z
-x,y,1/2-z
-x,-y,-z
x,y,-z
-x,y,1/2+z
x,-y,1/2+z
1/2+x,1/2+y,1/2+z
1/2-x,1/2-y,1/2+z
1/2+x,1/2-y,-z
1/2-x,1/2+y,-z
1/2-x,1/2-y,1/2-z
1/2+x,1/2+y,1/2-z
1/2-x,1/2+y,z
1/2+x,1/2-y,z
loop_
_atom_site_type_symbol
_atom_site_label
_atom_site_fract_x
_atom_site_fract_y
_atom_site_fract_z
Si Si1 0.881283 0.600179 0.676321
Si Si2 0.632166 0.562926 0.796824
Si Si3 0.364928 0.434049 0.951345
Si Si4 0.880196 0.599385 0.579178
O O1 0.754239 0.502749 0.680371
O O2 0.900504 0.637323 0.627742
O O3 0.000000 0.500000 0.690730
O O4 0.869653 0.756265 0.701141
O O5 0.500000 0.500000 0.814778
O O6 0.639932 0.500000 0.750000
O O7 0.500000 0.500000 0.937439
O O8 0.247779 0.504752 0.926790
O O9 0.368457 0.254835 0.945386
O O10 0.348535 0.472005 0.000000
O O11 0.000000 0.500000 0.565140
#
# Coordination Sequence:
#
# PCOD9529285 Si02
#       4
#    16  16  16  16
#     4  11  24  42  66  94 126 165 209 258 313 372
#     4  11  24  42  64  94 127 164 207 256 313 374
#     4  11  24  41  63  91 125 166 210 258 313 372
#     4  11  24  41  64  94 126 164 210 260 312 371
#
# _framework density 21.267081000000001
#
# number of rings (size 3 to 8) (size 9 to 14) (size 15 to 20)
#    0.000    1.000    0.000    6.000    0.000   14.500 
#    0.000    0.000    0.000    0.000    0.000    0.000 
#    0.000    0.000    0.000    0.000    0.000    0.000 
#
# Total GULP energy -179157.346486 kJ/mol
# GULP energy per Si atom -5598.667078 kJ/mol
# Density = 2.121868 g / cm^3
# Si number density = 21.267081 Si / 1000 Ang^3
#
#
#
# Elastic Constant Matrix: (Units=GPa)
#
#
# Indices 1 2 3 4 5 6 
#
# 1 166.6638 70.3573 5.1139 0.0000 0.0000 0.0000
# 2 70.3573 157.8680 15.9434 0.0000 0.0000 0.0000
# 3 5.1139 15.9434 41.6516 0.0000 0.0000 0.0000
# 4 0.0000 0.0000 0.0000 57.6096 0.0000 0.0000
# 5 0.0000 0.0000 0.0000 0.0000 2.5698 0.0000
# 6 0.0000 0.0000 0.0000 0.0000 0.0000 34.5621
#
#
#
# Elastic Compliance Matrix: (Units=1/GPa)
#
#
# Indices 1 2 3 4 5 6 
#
# 1 0.007396 -0.003333 0.000368 0.000000 0.000000 0.000000
# 2 -0.003333 0.008091 -0.002688 0.000000 0.000000 0.000000
# 3 0.000368 -0.002688 0.024992 0.000000 0.000000 0.000000
# 4 0.000000 0.000000 0.000000 0.017358 0.000000 0.000000
# 5 0.000000 0.000000 0.000000 0.000000 0.389135 0.000000
# 6 0.000000 0.000000 0.000000 0.000000 0.000000 0.028933
#
#
# Mechanical properties :
#
#
# Convention : Reuss Voigt Hill
#
# Bulk Modulus (GPa) = 34.27830 61.00139 47.63984
# Shear Modulus (GPa) = 10.06162 37.26622 23.66392
#
# Velocity S-wave (km/s) = 2.17746 4.19058 3.33934
# Velocity P-wave (km/s) = 4.74076 7.22222 6.10881
#
# Compressibility (1/GPa) = 0.02917297
#
# Stress axis : x y z
#
# Youngs Moduli (GPa) = 135.20854 123.58743 40.01210
#
# Poissons Ratio (x) = 0.41196 -0.01472
# Poissons Ratio (y) = 0.45069 0.10755
# Poissons Ratio (z) = -0.04974 0.33220
#
# Static dielectric constant tensor:
#      x y z
#    x 1.753400 0.000000 0.000000 
#    y 0.000000 1.715070 0.000000 
#    z 0.000000 0.000000 1.771500 
# 
# From -- ./inp_files/51136.got.cif
#   From: 2010.05.17/outbox.cif.g08.bks.cpg/sg72_26_cif.got.tgz:51136.got - 2010.06.03 17:03:01.
