data_PCOD9529814
_publ_section_title
;
Structure prediction by ZEFSAII (Michael W. Deem and Ramdas Pophale) SiO2 
 PCOD9529814
Probable space group: I B C A 
;
_chemical_formula_sum "Si O2"
_cell_formula_units_Z 104
_cell_length_a 15.662091
_cell_length_b 13.737607
_cell_length_c 19.814635
_cell_angle_alpha 90.000000
_cell_angle_beta 90.000000
_cell_angle_gamma 90.000000
_cell_volume 4263.309950
_symmetry_space_group_name_H-M "I B C A "
_symmetry_group_IT_number 73
_symmetry_cell_setting 'orthorhombic'
loop_
_space_group_symop_operation_xyz
x,y,z
-x,1/2-y,z
x,-y,1/2-z
1/2-x,y,-z
-x,-y,-z
x,1/2+y,-z
-x,y,1/2+z
1/2+x,-y,z
1/2+x,1/2+y,1/2+z
1/2-x,-y,1/2+z
1/2+x,1/2-y,-z
-x,1/2+y,1/2-z
1/2-x,1/2-y,1/2-z
1/2+x,y,1/2-z
1/2-x,1/2+y,z
x,1/2-y,1/2+z
loop_
_atom_site_type_symbol
_atom_site_label
_atom_site_fract_x
_atom_site_fract_y
_atom_site_fract_z
Si Si1 0.806394 0.709451 0.831280
Si Si2 0.980340 0.644254 0.784658
Si Si3 0.385237 0.897350 0.469884
Si Si4 0.654166 0.385765 0.736760
Si Si5 0.513874 0.047184 0.415683
Si Si6 0.875267 0.687043 0.980696
Si Si7 0.750000 0.474059 0.500000
O O1 0.877593 0.646337 0.787449
O O2 0.715728 0.657977 0.820334
O O3 0.815321 0.817079 0.799540
O O4 0.828682 0.712306 0.910007
O O5 0.011311 0.564221 0.837177
O O6 0.000000 0.750000 0.816194
O O7 0.052242 0.637063 0.726589
O O8 0.397535 0.933980 0.547659
O O9 0.384071 0.782135 0.473652
O O10 0.464006 0.948164 0.432031
O O11 0.299075 0.953218 0.448598
O O12 0.667175 0.500000 0.750000
O O13 0.458923 0.133490 0.451786
O O14 0.822509 0.604438 0.018780
#
# Coordination Sequence:
#
# PCOD9529814 Si02
#       7
#    16  16  16  16  16  16   8
#     4   9  20  36  55  81 112 147 192 235 288 363
#     4   9  17  34  57  78 109 147 187 238 295 351
#     4  10  18  31  51  78 109 140 184 230 273 333
#     4  10  20  34  56  84 109 144 191 241 296 351
#     4   9  18  31  54  81 101 139 191 230 275 340
#     4  10  19  35  54  77 112 150 184 230 285 340
#     4  10  22  32  50  80 112 148 186 226 276 340
#
# _framework density 24.394190999999999
#
# number of rings (size 3 to 8) (size 9 to 14) (size 15 to 20)
#    0.000    2.462    0.000    3.692    0.000    3.077 
#    0.000    1.538    0.000    0.000    0.000    8.615 
#    0.000    0.000    0.000    0.000    0.000    0.615 
#
# Total GULP energy -289683.171119 kJ/mol
# GULP energy per Si atom -5570.830214 kJ/mol
# Density = 2.433867 g / cm^3
# Si number density = 24.394191 Si / 1000 Ang^3
#
#
#
# Elastic Constant Matrix: (Units=GPa)
#
#
# Indices 1 2 3 4 5 6 
#
# 1 103.4255 30.1418 22.9444 0.0000 0.0000 0.0000
# 2 30.1418 180.2087 25.7496 0.0000 0.0000 0.0000
# 3 22.9444 25.7496 39.0487 0.0000 0.0000 0.0000
# 4 0.0000 0.0000 0.0000 19.4139 0.0000 0.0000
# 5 0.0000 0.0000 0.0000 0.0000 19.5300 0.0000
# 6 0.0000 0.0000 0.0000 0.0000 0.0000 19.1398
#
#
#
# Elastic Compliance Matrix: (Units=1/GPa)
#
#
# Indices 1 2 3 4 5 6 
#
# 1 0.011291 -0.001038 -0.005950 0.000000 0.000000 0.000000
# 2 -0.001038 0.006222 -0.003493 0.000000 0.000000 0.000000
# 3 -0.005950 -0.003493 0.031408 0.000000 0.000000 0.000000
# 4 0.000000 0.000000 0.000000 0.051509 0.000000 0.000000
# 5 0.000000 0.000000 0.000000 0.000000 0.051203 0.000000
# 6 0.000000 0.000000 0.000000 0.000000 0.000000 0.052247
#
#
# Mechanical properties :
#
#
# Convention : Reuss Voigt Hill
#
# Bulk Modulus (GPa) = 35.76595 53.37273 44.56934
# Shear Modulus (GPa) = 21.35261 27.87320 24.61291
#
# Velocity S-wave (km/s) = 2.96178 3.38393 3.17987
# Velocity P-wave (km/s) = 5.13709 6.09875 5.63846
#
# Compressibility (1/GPa) = 0.02795955
#
# Stress axis : x y z
#
# Youngs Moduli (GPa) = 88.56305 160.72326 31.83871
#
# Poissons Ratio (x) = 0.16690 0.18944
# Poissons Ratio (y) = 0.09197 0.11120
# Poissons Ratio (z) = 0.52694 0.56136
#
# Static dielectric constant tensor:
#      x y z
#    x 2.165820 0.000000 0.000000 
#    y 0.000000 1.942400 0.000000 
#    z 0.000000 0.000000 1.981010 
# 
# From -- ./inp_files/32393.got.cif
#   From: 2010.05.17/outbox.cif.g08.bks.cpg/sg73_17_cif.got.tgz:32393.got - 2010.06.03 17:35:07.
