data_PCOD9529736
_publ_section_title
;
Structure prediction by ZEFSAII (Michael W. Deem and Ramdas Pophale) SiO2 
 PCOD9529736
Probable space group: I B C A 
;
_chemical_formula_sum "Si O2"
_cell_formula_units_Z 104
_cell_length_a 18.639871
_cell_length_b 19.354658
_cell_length_c 15.092741
_cell_angle_alpha 90.000000
_cell_angle_beta 90.000000
_cell_angle_gamma 90.000000
_cell_volume 5444.982941
_symmetry_space_group_name_H-M "I B C A "
_symmetry_group_IT_number 73
_symmetry_cell_setting 'orthorhombic'
loop_
_space_group_symop_operation_xyz
x,y,z
-x,1/2-y,z
x,-y,1/2-z
1/2-x,y,-z
-x,-y,-z
x,1/2+y,-z
-x,y,1/2+z
1/2+x,-y,z
1/2+x,1/2+y,1/2+z
1/2-x,-y,1/2+z
1/2+x,1/2-y,-z
-x,1/2+y,1/2-z
1/2-x,1/2-y,1/2-z
1/2+x,y,1/2-z
1/2-x,1/2+y,z
x,1/2-y,1/2+z
loop_
_atom_site_type_symbol
_atom_site_label
_atom_site_fract_x
_atom_site_fract_y
_atom_site_fract_z
Si Si1 0.111252 0.225785 0.204249
Si Si2 0.169834 0.676848 0.973351
Si Si3 0.096905 0.000000 0.750000
Si Si4 0.416835 0.271779 0.104681
Si Si5 0.528670 0.862685 0.670096
Si Si6 0.389643 0.039811 0.060292
Si Si7 0.545352 0.087303 0.026021
O O1 0.130164 0.236333 0.306826
O O2 0.088093 0.302252 0.172458
O O3 0.042014 0.174899 0.205887
O O4 0.161037 0.190579 0.131152
O O5 0.113844 0.725593 0.025593
O O6 0.151658 0.600293 0.009751
O O7 0.250000 0.695118 0.000000
O O8 0.052141 0.931607 0.778376
O O9 0.137872 0.979435 0.658745
O O10 0.500000 0.250000 0.120852
O O11 0.418181 0.351060 0.077335
O O12 0.517610 0.883947 0.568439
O O13 0.473429 0.061751 0.074301
O O14 0.399469 0.973290 0.997794
#
# Coordination Sequence:
#
# PCOD9529736 Si02
#       7
#    16  16   8  16  16  16  16
#     4  11  21  36  61  93 122 160 203 266 309 368
#     4  12  26  43  62  87 132 175 208 252 320 388
#     4  10  20  32  60  96 120 152 198 258 324 372
#     4  12  20  36  65  96 122 158 207 269 316 360
#     4  10  17  33  57  95 126 147 198 263 318 356
#     4  10  20  36  58  89 121 160 202 255 312 373
#     4  10  19  33  60  92 123 150 200 267 314 356
#
# _framework density 19.100151
#
# number of rings (size 3 to 8) (size 9 to 14) (size 15 to 20)
#    0.000    1.231    6.154    1.846    0.000    0.615 
#    0.000    0.769    3.385    0.000    0.000    0.000 
#    0.000    0.000    0.000    0.000    0.000    0.000 
#
# Total GULP energy -290087.916137 kJ/mol
# GULP energy per Si atom -5578.613772 kJ/mol
# Density = 1.905668 g / cm^3
# Si number density = 19.100151 Si / 1000 Ang^3
#
#
#
# Elastic Constant Matrix: (Units=GPa)
#
#
# Indices 1 2 3 4 5 6 
#
# 1 31.2946 8.5021 8.1125 0.0000 0.0000 0.0000
# 2 8.5021 113.8971 17.1479 0.0000 0.0000 0.0000
# 3 8.1125 17.1479 93.3382 0.0000 0.0000 0.0000
# 4 0.0000 0.0000 0.0000 31.2249 0.0000 0.0000
# 5 0.0000 0.0000 0.0000 0.0000 7.2841 0.0000
# 6 0.0000 0.0000 0.0000 0.0000 0.0000 7.6150
#
#
#
# Elastic Compliance Matrix: (Units=1/GPa)
#
#
# Indices 1 2 3 4 5 6 
#
# 1 0.033172 -0.002100 -0.002497 0.000000 0.000000 0.000000
# 2 -0.002100 0.009163 -0.001501 0.000000 0.000000 0.000000
# 3 -0.002497 -0.001501 0.011206 0.000000 0.000000 0.000000
# 4 0.000000 0.000000 0.000000 0.032026 0.000000 0.000000
# 5 0.000000 0.000000 0.000000 0.000000 0.137285 0.000000
# 6 0.000000 0.000000 0.000000 0.000000 0.000000 0.131319
#
#
# Mechanical properties :
#
#
# Convention : Reuss Voigt Hill
#
# Bulk Modulus (GPa) = 24.18685 34.00609 29.09647
# Shear Modulus (GPa) = 13.15273 22.87599 18.01436
#
# Velocity S-wave (km/s) = 2.62700 3.46451 3.07441
# Velocity P-wave (km/s) = 4.67891 5.81778 5.27915
#
# Compressibility (1/GPa) = 0.04134477
#
# Stress axis : x y z
#
# Youngs Moduli (GPa) = 30.14555 109.13950 89.23395
#
# Poissons Ratio (x) = 0.22922 0.22285
# Poissons Ratio (y) = 0.06331 0.13392
# Poissons Ratio (z) = 0.07528 0.16379
#
# Static dielectric constant tensor:
#      x y z
#    x 1.647580 0.000000 0.000000 
#    y 0.000000 1.680260 0.000000 
#    z 0.000000 0.000000 1.711800 
# 
# From -- ./inp_files/18146.got.cif
#   From: 2010.05.17/outbox.cif.g08.bks.cpg/sg73_10_cif.got.tgz:18146.got - 2010.06.03 17:35:07.
