data_PCOD9529045
_publ_section_title
;
Structure prediction by ZEFSAII (Michael W. Deem and Ramdas Pophale) SiO2 
 PCOD9529045
Probable space group: I B A M
;
_chemical_formula_sum "Si O2"
_cell_formula_units_Z 96
_cell_length_a 26.502758
_cell_length_b 28.805709
_cell_length_c 9.679921
_cell_angle_alpha 90.000000
_cell_angle_beta 90.000000
_cell_angle_gamma 90.000000
_cell_volume 7389.949200
_symmetry_space_group_name_H-M "I B A M"
_symmetry_group_IT_number 72
_symmetry_cell_setting 'orthorhombic'
loop_
_space_group_symop_operation_xyz
x,y,z
-x,-y,z
x,-y,1/2-z
-x,y,1/2-z
-x,-y,-z
x,y,-z
-x,y,1/2+z
x,-y,1/2+z
1/2+x,1/2+y,1/2+z
1/2-x,1/2-y,1/2+z
1/2+x,1/2-y,-z
1/2-x,1/2+y,-z
1/2-x,1/2-y,1/2-z
1/2+x,1/2+y,1/2-z
1/2-x,1/2+y,z
1/2+x,1/2-y,z
loop_
_atom_site_type_symbol
_atom_site_label
_atom_site_fract_x
_atom_site_fract_y
_atom_site_fract_z
Si Si1 0.898160 0.604435 0.760811
Si Si2 0.427757 0.040798 0.500000
Si Si3 0.545292 0.933642 0.000000
Si Si4 0.228392 0.794022 0.164866
Si Si5 0.550244 0.800048 0.340575
Si Si6 0.871824 0.252446 0.155722
Si Si7 0.197121 0.346170 0.342128
O O1 0.901335 0.562001 0.866108
O O2 0.934676 0.593174 0.633102
O O3 0.919571 0.651159 0.831222
O O4 0.841990 0.614790 0.707179
O O5 0.485237 0.060283 0.500000
O O6 0.431795 0.985520 0.500000
O O7 0.250000 0.750000 0.250000
O O8 0.168005 0.789009 0.180197
O O9 0.257160 0.836685 0.236778
O O10 0.239445 0.790723 0.000000
O O11 0.500000 0.804302 0.250000
O O12 0.539137 0.790171 0.500000
O O13 0.585945 0.761460 0.269398
O O14 0.837363 0.299274 0.156035
O O15 0.892894 0.248489 0.000000
O O16 0.214079 0.353617 0.500000
#
# Coordination Sequence:
#
# PCOD9529045 Si02
#       7
#    16   8   8  16  16  16  16
#     4  11  21  32  45  60  75  94 122 160 201 242
#     4  11  22  34  48  60  69  94 126 160 198 251
#     4  11  22  36  46  56  75  94 122 158 206 247
#     4   9  16  25  41  58  77  97 118 144 178 223
#     4  11  21  29  42  58  76 102 129 159 193 229
#     4   8  16  28  39  56  78  98 120 149 182 220
#     4   9  17  28  41  57  76  97 115 146 189 229
#
# _framework density 12.990617
#
# number of rings (size 3 to 8) (size 9 to 14) (size 15 to 20)
#    0.000    2.167    1.667    4.000    3.500    6.000 
#    0.000    0.000    0.000    0.000    0.000    0.000 
#    0.000    0.000    0.000    0.000    0.000    0.000 
#
# Total GULP energy -267409.143955 kJ/mol
# GULP energy per Si atom -5571.023832 kJ/mol
# Density = 1.296105 g / cm^3
# Si number density = 12.990617 Si / 1000 Ang^3
#
#
#
# Elastic Constant Matrix: (Units=GPa)
#
#
# Indices 1 2 3 4 5 6 
#
# 1 36.6475 21.8333 31.8809 0.0000 0.0000 0.0000
# 2 21.8333 26.5532 18.4021 0.0000 0.0000 0.0000
# 3 31.8809 18.4021 105.6573 0.0000 0.0000 0.0000
# 4 0.0000 0.0000 0.0000 8.9716 0.0000 0.0000
# 5 0.0000 0.0000 0.0000 0.0000 22.9706 0.0000
# 6 0.0000 0.0000 0.0000 0.0000 0.0000 21.0209
#
#
#
# Elastic Compliance Matrix: (Units=1/GPa)
#
#
# Indices 1 2 3 4 5 6 
#
# 1 0.063795 -0.044484 -0.011502 0.000000 0.000000 0.000000
# 2 -0.044484 0.073849 0.000560 0.000000 0.000000 0.000000
# 3 -0.011502 0.000560 0.012837 0.000000 0.000000 0.000000
# 4 0.000000 0.000000 0.000000 0.111463 0.000000 0.000000
# 5 0.000000 0.000000 0.000000 0.000000 0.043534 0.000000
# 6 0.000000 0.000000 0.000000 0.000000 0.000000 0.047572
#
#
# Mechanical properties :
#
#
# Convention : Reuss Voigt Hill
#
# Bulk Modulus (GPa) = 25.23312 34.78784 30.01048
# Shear Modulus (GPa) = 10.47977 17.04208 13.76092
#
# Velocity S-wave (km/s) = 2.84336 3.62591 3.25822
# Velocity P-wave (km/s) = 5.49962 6.66085 6.10790
#
# Compressibility (1/GPa) = 0.03963045
#
# Stress axis : x y z
#
# Youngs Moduli (GPa) = 15.67530 13.54117 77.89726
#
# Poissons Ratio (x) = 0.60237 0.89594
# Poissons Ratio (y) = 0.69730 -0.04366
# Poissons Ratio (z) = 0.18029 -0.00759
#
# Static dielectric constant tensor:
#      x y z
#    x 1.434200 0.000000 0.000000 
#    y 0.000000 1.414420 0.000000 
#    z 0.000000 0.000000 1.403340 
# 
# From -- ./inp_files/8304.got.cif
#   From: 2010.05.17/outbox.cif.g08.bks.cpg/sg72_5_cif.got.tgz:8304.got - 2010.06.03 17:03:01.
