data_PCOD9529347
_publ_section_title
;
Structure prediction by ZEFSAII (Michael W. Deem and Ramdas Pophale) SiO2 
 PCOD9529347
Probable space group: I B A M
;
_chemical_formula_sum "Si O2"
_cell_formula_units_Z 56
_cell_length_a 12.004907
_cell_length_b 7.650529
_cell_length_c 26.319066
_cell_angle_alpha 90.000000
_cell_angle_beta 90.000000
_cell_angle_gamma 90.000000
_cell_volume 2417.245380
_symmetry_space_group_name_H-M "I B A M"
_symmetry_group_IT_number 72
_symmetry_cell_setting 'orthorhombic'
loop_
_space_group_symop_operation_xyz
x,y,z
-x,-y,z
x,-y,1/2-z
-x,y,1/2-z
-x,-y,-z
x,y,-z
-x,y,1/2+z
x,-y,1/2+z
1/2+x,1/2+y,1/2+z
1/2-x,1/2-y,1/2+z
1/2+x,1/2-y,-z
1/2-x,1/2+y,-z
1/2-x,1/2-y,1/2-z
1/2+x,1/2+y,1/2-z
1/2-x,1/2+y,z
1/2+x,1/2-y,z
loop_
_atom_site_type_symbol
_atom_site_label
_atom_site_fract_x
_atom_site_fract_y
_atom_site_fract_z
Si Si1 0.909051 0.125014 0.300281
Si Si2 0.371392 0.549611 0.556904
Si Si3 0.000000 0.500000 0.670546
Si Si4 0.786730 0.352244 0.878751
O O1 0.794452 0.152296 0.330232
O O2 0.967784 0.318626 0.299861
O O3 0.885982 0.000000 0.250000
O O4 0.000000 0.000000 0.326903
O O5 0.500000 0.500000 0.556872
O O6 0.346202 0.614374 0.500000
O O7 0.289661 0.394165 0.572597
O O8 0.344257 0.676588 0.603295
O O9 0.890802 0.527224 0.635866
#
# Coordination Sequence:
#
# PCOD9529347 Si02
#       4
#    16  16   8  16
#     4  11  27  51  77 113 151 199 260 319 386 456
#     4  11  25  45  74 115 157 199 255 318 380 453
#     4  12  26  47  79 110 150 204 255 316 383 460
#     4  12  23  49  77 107 154 203 253 318 382 454
#
# _framework density 23.166865000000001
#
# number of rings (size 3 to 8) (size 9 to 14) (size 15 to 20)
#    0.000    0.571    2.857    5.143    0.000    3.429 
#    5.143    1.429    0.000    0.000    0.000    0.000 
#    0.000    0.000    0.000    0.000    0.000    0.000 
#
# Total GULP energy -155997.041000 kJ/mol
# GULP energy per Si atom -5571.322893 kJ/mol
# Density = 2.311414 g / cm^3
# Si number density = 23.166865 Si / 1000 Ang^3
#
#
#
# Elastic Constant Matrix: (Units=GPa)
#
#
# Indices 1 2 3 4 5 6 
#
# 1 185.7444 49.2218 73.5529 0.0000 0.0000 0.0000
# 2 49.2218 134.3193 40.6671 0.0000 0.0000 0.0000
# 3 73.5529 40.6671 138.6052 0.0000 0.0000 0.0000
# 4 0.0000 0.0000 0.0000 -114.1239 0.0000 0.0000
# 5 0.0000 0.0000 0.0000 0.0000 28.7988 0.0000
# 6 0.0000 0.0000 0.0000 0.0000 0.0000 46.1072
#
#
#
# Elastic Compliance Matrix: (Units=1/GPa)
#
#
# Indices 1 2 3 4 5 6 
#
# 1 0.007119 -0.001608 -0.003306 0.000000 0.000000 0.000000
# 2 -0.001608 0.008534 -0.001651 0.000000 0.000000 0.000000
# 3 -0.003306 -0.001651 0.009453 0.000000 0.000000 0.000000
# 4 0.000000 0.000000 0.000000 -0.008762 0.000000 0.000000
# 5 0.000000 0.000000 0.000000 0.000000 0.034724 0.000000
# 6 0.000000 0.000000 0.000000 0.000000 0.000000 0.021689
#
#
# Mechanical properties :
#
#
# Convention : Reuss Voigt Hill
#
# Bulk Modulus (GPa) = 83.49147 87.28360 85.38753
# Shear Modulus (GPa) = 55.63120 11.83824 33.73472
#
# Velocity S-wave (km/s) = 4.90565 2.26298 3.82011
# Velocity P-wave (km/s) = 8.25861 6.67727 7.50968
#
# Compressibility (1/GPa) = 0.01197727
#
# Stress axis : x y z
#
# Youngs Moduli (GPa) = 140.46975 117.17975 105.78156
#
# Poissons Ratio (x) = 0.18840 0.34972
# Poissons Ratio (y) = 0.22585 0.17461
# Poissons Ratio (z) = 0.46440 0.19342
#
# Static dielectric constant tensor:
#      x y z
#    x 1.778500 0.000000 0.000000 
#    y 0.000000 1.895560 0.000000 
#    z 0.000000 0.000000 1.890600 
# 
# From -- ./inp_files/47801.got.cif
#   From: 2010.05.17/outbox.cif.g08.bks.cpg/sg72_24_cif.got.tgz:47801.got - 2010.06.03 17:03:01.
