data_PCOD9529797
_publ_section_title
;
Structure prediction by ZEFSAII (Michael W. Deem and Ramdas Pophale) SiO2 
 PCOD9529797
Probable space group: I B C A 
;
_chemical_formula_sum "Si O2"
_cell_formula_units_Z 112
_cell_length_a 19.549750
_cell_length_b 24.462133
_cell_length_c 12.256433
_cell_angle_alpha 90.000000
_cell_angle_beta 90.000000
_cell_angle_gamma 90.000000
_cell_volume 5861.376606
_symmetry_space_group_name_H-M "I B C A "
_symmetry_group_IT_number 73
_symmetry_cell_setting 'orthorhombic'
loop_
_space_group_symop_operation_xyz
x,y,z
-x,1/2-y,z
x,-y,1/2-z
1/2-x,y,-z
-x,-y,-z
x,1/2+y,-z
-x,y,1/2+z
1/2+x,-y,z
1/2+x,1/2+y,1/2+z
1/2-x,-y,1/2+z
1/2+x,1/2-y,-z
-x,1/2+y,1/2-z
1/2-x,1/2-y,1/2-z
1/2+x,y,1/2-z
1/2-x,1/2+y,z
x,1/2-y,1/2+z
loop_
_atom_site_type_symbol
_atom_site_label
_atom_site_fract_x
_atom_site_fract_y
_atom_site_fract_z
Si Si1 0.683835 0.308301 0.143886
Si Si2 0.006481 0.075837 0.586781
Si Si3 0.314548 0.316564 0.216132
Si Si4 0.108393 0.830905 0.441775
Si Si5 0.945283 0.500000 0.250000
Si Si6 0.914826 0.394547 0.373535
Si Si7 0.500000 0.750000 0.087105
Si Si8 0.459327 0.657916 0.757702
O O1 0.689835 0.242627 0.158983
O O2 0.743396 0.330333 0.223248
O O3 0.610761 0.328060 0.186857
O O4 0.674741 0.328267 0.018960
O O5 0.938956 0.114208 0.560068
O O6 0.985024 0.018227 0.639408
O O7 0.058067 0.081237 0.486666
O O8 0.044582 0.102724 0.689378
O O9 0.367555 0.317352 0.318681
O O10 0.345420 0.359970 0.131209
O O11 0.059446 0.780393 0.478008
O O12 0.907826 0.444551 0.287581
O O13 0.975996 0.353188 0.335945
O O14 0.527782 0.703720 0.167252
#
# Coordination Sequence:
#
# PCOD9529797 Si02
#       8
#    16  16  16  16   8  16   8  16
#     4  11  23  35  55  81 125 167 193 240 305 364
#     4  10  21  34  61  91 110 150 196 258 310 353
#     4  11  23  37  52  86 123 161 204 245 298 374
#     4  11  20  35  55  84 116 158 201 244 295 361
#     4  10  20  38  60  88 124 140 192 272 312 350
#     4  11  20  37  61  87 114 153 200 250 309 362
#     4  10  18  30  52  80 118 146 200 246 294 352
#     4  10  18  34  52  80 117 145 195 245 288 360
#
# _framework density 19.108139999999999
#
# number of rings (size 3 to 8) (size 9 to 14) (size 15 to 20)
#    0.000    1.429    7.143    0.857    4.000    0.571 
#    0.000    0.714    0.000    3.429    3.714    0.000 
#    0.000    0.000    0.000    0.000    0.000    0.000 
#
# Total GULP energy -311781.470634 kJ/mol
# GULP energy per Si atom -5567.526261 kJ/mol
# Density = 1.906465 g / cm^3
# Si number density = 19.108140 Si / 1000 Ang^3
#
#
#
# Elastic Constant Matrix: (Units=GPa)
#
#
# Indices 1 2 3 4 5 6 
#
# 1 73.5314 20.3608 11.9908 0.0000 0.0000 0.0000
# 2 20.3608 65.2117 -0.3226 0.0000 0.0000 0.0000
# 3 11.9908 -0.3226 63.9930 0.0000 0.0000 0.0000
# 4 0.0000 0.0000 0.0000 13.4790 0.0000 0.0000
# 5 0.0000 0.0000 0.0000 0.0000 13.5468 0.0000
# 6 0.0000 0.0000 0.0000 0.0000 0.0000 15.5276
#
#
#
# Elastic Compliance Matrix: (Units=1/GPa)
#
#
# Indices 1 2 3 4 5 6 
#
# 1 0.015411 -0.004826 -0.002912 0.000000 0.000000 0.000000
# 2 -0.004826 0.016846 0.000989 0.000000 0.000000 0.000000
# 3 -0.002912 0.000989 0.016177 0.000000 0.000000 0.000000
# 4 0.000000 0.000000 0.000000 0.074189 0.000000 0.000000
# 5 0.000000 0.000000 0.000000 0.000000 0.073818 0.000000
# 6 0.000000 0.000000 0.000000 0.000000 0.000000 0.064401
#
#
# Mechanical properties :
#
#
# Convention : Reuss Voigt Hill
#
# Bulk Modulus (GPa) = 28.62302 29.64381 29.13342
# Shear Modulus (GPa) = 17.48332 19.89116 18.68724
#
# Velocity S-wave (km/s) = 3.02812 3.22992 3.13065
# Velocity P-wave (km/s) = 5.21901 5.42745 5.32425
#
# Compressibility (1/GPa) = 0.03493691
#
# Stress axis : x y z
#
# Youngs Moduli (GPa) = 64.88950 59.35990 61.81490
#
# Poissons Ratio (x) = 0.28648 0.18000
# Poissons Ratio (y) = 0.31316 -0.06115
# Poissons Ratio (z) = 0.18896 -0.05872
#
# Static dielectric constant tensor:
#      x y z
#    x 1.742450 0.000000 0.000000 
#    y 0.000000 1.820370 0.000000 
#    z 0.000000 0.000000 1.811320 
# 
# From -- ./inp_files/13067.got.cif
#   From: 2010.05.17/outbox.cif.g08.bks.cpg/sg73_7_cif.got.tgz:13067.got - 2010.06.03 17:35:07.
