data_PCOD9529235
_publ_section_title
;
Structure prediction by ZEFSAII (Michael W. Deem and Ramdas Pophale) SiO2 
 PCOD9529235
Probable space group: I B A M
;
_chemical_formula_sum "Si O2"
_cell_formula_units_Z 112
_cell_length_a 12.504391
_cell_length_b 31.352793
_cell_length_c 14.844902
_cell_angle_alpha 90.000000
_cell_angle_beta 90.000000
_cell_angle_gamma 90.000000
_cell_volume 5819.907943
_symmetry_space_group_name_H-M "I B A M"
_symmetry_group_IT_number 72
_symmetry_cell_setting 'orthorhombic'
loop_
_space_group_symop_operation_xyz
x,y,z
-x,-y,z
x,-y,1/2-z
-x,y,1/2-z
-x,-y,-z
x,y,-z
-x,y,1/2+z
x,-y,1/2+z
1/2+x,1/2+y,1/2+z
1/2-x,1/2-y,1/2+z
1/2+x,1/2-y,-z
1/2-x,1/2+y,-z
1/2-x,1/2-y,1/2-z
1/2+x,1/2+y,1/2-z
1/2-x,1/2+y,z
1/2+x,1/2-y,z
loop_
_atom_site_type_symbol
_atom_site_label
_atom_site_fract_x
_atom_site_fract_y
_atom_site_fract_z
Si Si1 0.878670 0.507922 0.390637
Si Si2 0.017339 0.741113 0.399312
Si Si3 0.716544 0.917656 0.606306
Si Si4 0.627744 0.373092 0.258584
Si Si5 0.986784 0.356428 0.356934
Si Si6 0.710737 0.900758 0.895560
Si Si7 0.143066 0.226568 0.273788
O O1 0.883999 0.510588 0.500000
O O2 0.811735 0.466101 0.367781
O O3 0.826451 0.552352 0.361478
O O4 0.000000 0.500000 0.358968
O O5 0.038940 0.756366 0.500000
O O6 0.897989 0.750906 0.365118
O O7 0.038134 0.690632 0.393660
O O8 0.076680 0.764895 0.318070
O O9 0.739510 0.916108 0.500000
O O10 0.814506 0.900732 0.664734
O O11 0.609794 0.888924 0.622476
O O12 0.500000 0.380251 0.250000
O O13 0.695782 0.382673 0.167779
O O14 0.646880 0.323846 0.285067
O O15 0.000000 0.352298 0.250000
O O16 0.101128 0.373286 0.391617
O O17 0.744701 0.903394 0.000000
O O18 0.250000 0.250000 0.250000
#
# Coordination Sequence:
#
# PCOD9529235 Si02
#       7
#    16  16  16  16  16  16  16
#     4   9  18  37  65 102 139 161 200 268 330 389
#     4  11  23  40  64  92 122 161 206 258 324 384
#     4  11  23  40  67  99 132 172 214 262 327 392
#     4  12  26  45  62  89 131 178 223 269 316 377
#     4  12  20  38  64 102 140 162 201 269 333 396
#     4  11  23  40  67  99 132 172 214 262 327 392
#     4  11  23  44  66  87 125 160 214 278 320 368
#
# _framework density 19.244289999999999
#
# number of rings (size 3 to 8) (size 9 to 14) (size 15 to 20)
#    0.000    1.000    5.714    3.000    0.000    2.857 
#    0.000    2.857    0.000    2.571    0.000    0.000 
#    0.000    0.000    0.000    0.000    0.000    0.000 
#
# Total GULP energy -312674.374208 kJ/mol
# GULP energy per Si atom -5583.470968 kJ/mol
# Density = 1.920049 g / cm^3
# Si number density = 19.244290 Si / 1000 Ang^3
#
#
#
# Elastic Constant Matrix: (Units=GPa)
#
#
# Indices 1 2 3 4 5 6 
#
# 1 78.5759 -7.4746 0.6864 0.0003 0.0001 0.0001
# 2 -7.4746 64.9446 -12.6348 0.0002 0.0002 0.0001
# 3 0.6864 -12.6348 93.7745 -0.0006 0.0003 0.0003
# 4 0.0003 0.0002 -0.0006 16.7910 0.0000 0.0000
# 5 0.0001 0.0002 0.0003 0.0000 20.7475 0.0000
# 6 0.0001 0.0001 0.0003 0.0000 0.0000 29.6456
#
#
#
# Elastic Compliance Matrix: (Units=1/GPa)
#
#
# Indices 1 2 3 4 5 6 
#
# 1 0.012868 0.001502 0.000108 0.000000 0.000000 0.000000
# 2 0.001502 0.015988 0.002143 0.000000 0.000000 0.000000
# 3 0.000108 0.002143 0.010952 0.000000 0.000000 0.000000
# 4 0.000000 0.000000 0.000000 0.059556 0.000000 0.000000
# 5 0.000000 0.000000 0.000000 0.000000 0.048198 0.000000
# 6 0.000000 0.000000 0.000000 0.000000 0.000000 0.033732
#
#
# Mechanical properties :
#
#
# Convention : Reuss Voigt Hill
#
# Bulk Modulus (GPa) = 21.13507 22.04988 21.59247
# Shear Modulus (GPa) = 26.37706 30.55136 28.46421
#
# Velocity S-wave (km/s) = 3.70624 3.98874 3.85008
# Velocity P-wave (km/s) = 5.41491 5.71805 5.56854
#
# Compressibility (1/GPa) = 0.04731473
#
# Stress axis : x y z
#
# Youngs Moduli (GPa) = 77.70921 62.54863 91.30883
#
# Poissons Ratio (x) = -0.09395 -0.00988
# Poissons Ratio (y) = -0.11673 -0.19569
# Poissons Ratio (z) = -0.00841 -0.13405
#
# Static dielectric constant tensor:
#      x y z
#    x 1.695970 0.000000 0.000000 
#    y 0.000000 1.653400 0.000000 
#    z 0.000000 0.000000 1.681790 
# 
# From -- ./inp_files/20703.got.cif
#   From: 2010.05.17/outbox.cif.g08.bks.cpg/sg72_11_cif.got.tgz:20703.got - 2010.06.03 17:03:01.
