data_PCOD9529766
_publ_section_title
;
Structure prediction by ZEFSAII (Michael W. Deem and Ramdas Pophale) SiO2 
 PCOD9529766
Probable space group: I B C A 
;
_chemical_formula_sum "Si O2"
_cell_formula_units_Z 104
_cell_length_a 17.431087
_cell_length_b 13.514116
_cell_length_c 23.982455
_cell_angle_alpha 90.000000
_cell_angle_beta 90.000000
_cell_angle_gamma 90.000000
_cell_volume 5649.444561
_symmetry_space_group_name_H-M "I B C A "
_symmetry_group_IT_number 73
_symmetry_cell_setting 'orthorhombic'
loop_
_space_group_symop_operation_xyz
x,y,z
-x,1/2-y,z
x,-y,1/2-z
1/2-x,y,-z
-x,-y,-z
x,1/2+y,-z
-x,y,1/2+z
1/2+x,-y,z
1/2+x,1/2+y,1/2+z
1/2-x,-y,1/2+z
1/2+x,1/2-y,-z
-x,1/2+y,1/2-z
1/2-x,1/2-y,1/2-z
1/2+x,y,1/2-z
1/2-x,1/2+y,z
x,1/2-y,1/2+z
loop_
_atom_site_type_symbol
_atom_site_label
_atom_site_fract_x
_atom_site_fract_y
_atom_site_fract_z
Si Si1 0.070017 0.537287 0.037862
Si Si2 0.338611 0.000000 0.750000
Si Si3 0.982792 0.137050 0.729490
Si Si4 0.800693 0.629428 0.944196
Si Si5 0.502240 0.548373 0.844712
Si Si6 0.181624 0.975634 0.130187
Si Si7 0.675791 0.150733 0.460012
O O1 0.132866 0.450915 0.046846
O O2 0.043941 0.568135 0.099409
O O3 0.107413 0.623630 0.001549
O O4 0.000000 0.500000 0.000000
O O5 0.395970 0.905593 0.739802
O O6 0.292106 0.006123 0.693399
O O7 0.000000 0.250000 0.715046
O O8 0.010223 0.062382 0.680680
O O9 0.017381 0.115734 0.791146
O O10 0.740356 0.600593 0.896722
O O11 0.832048 0.739519 0.936315
O O12 0.750000 0.629135 0.000000
O O13 0.592438 0.556359 0.862108
O O14 0.181196 0.070331 0.089267
O O15 0.750000 0.144051 0.500000
#
# Coordination Sequence:
#
# PCOD9529766 Si02
#       7
#    16   8  16  16  16  16  16
#     4  12  21  38  57  89 122 148 193 249 296 349
#     4   8  20  32  64  84 106 162 202 240 294 356
#     4   8  16  36  55  82 119 154 191 236 303 350
#     4  11  22  38  60  81 114 161 192 236 295 356
#     4   9  20  34  61  86 113 157 194 242 294 353
#     4  10  17  43  58  80 117 153 197 238 297 349
#     4  11  22  38  60  83 114 159 194 231 299 362
#
# _framework density 18.40889
#
# number of rings (size 3 to 8) (size 9 to 14) (size 15 to 20)
#    0.000    2.462    4.615    0.000    0.000    3.077 
#   13.846    2.308    0.000    0.000    0.000    0.000 
#    0.000    0.000    0.000    0.000    0.000    0.000 
#
# Total GULP energy -289611.062182 kJ/mol
# GULP energy per Si atom -5569.443504 kJ/mol
# Density = 1.836699 g / cm^3
# Si number density = 18.408890 Si / 1000 Ang^3
#
#
#
# Elastic Constant Matrix: (Units=GPa)
#
#
# Indices 1 2 3 4 5 6 
#
# 1 58.1990 29.4461 25.5096 0.0000 0.0000 0.0000
# 2 29.4461 97.4617 32.8281 0.0000 0.0000 0.0000
# 3 25.5096 32.8281 148.1592 0.0000 0.0000 0.0000
# 4 0.0000 0.0000 0.0000 3.9061 0.0000 0.0000
# 5 0.0000 0.0000 0.0000 0.0000 19.2237 0.0000
# 6 0.0000 0.0000 0.0000 0.0000 0.0000 -157.4096
#
#
#
# Elastic Compliance Matrix: (Units=1/GPa)
#
#
# Indices 1 2 3 4 5 6 
#
# 1 0.021040 -0.005551 -0.002393 0.000000 0.000000 0.000000
# 2 -0.005551 0.012552 -0.001826 0.000000 0.000000 0.000000
# 3 -0.002393 -0.001826 0.007566 0.000000 0.000000 0.000000
# 4 0.000000 0.000000 0.000000 0.256007 0.000000 0.000000
# 5 0.000000 0.000000 0.000000 0.000000 0.052019 0.000000
# 6 0.000000 0.000000 0.000000 0.000000 0.000000 -0.006353
#
#
# Mechanical properties :
#
#
# Convention : Reuss Voigt Hill
#
# Bulk Modulus (GPa) = 46.25343 53.26528 49.75936
# Shear Modulus (GPa) = 13.52903 -12.45353 0.53775
#
# Velocity S-wave (km/s) = 2.71388 -2.60377 0.54106
# Velocity P-wave (km/s) = 5.91611 4.46742 5.24205
#
# Compressibility (1/GPa) = 0.02162002
#
# Stress axis : x y z
#
# Youngs Moduli (GPa) = 47.52942 79.66600 132.17118
#
# Poissons Ratio (x) = 0.44221 0.31624
# Poissons Ratio (y) = 0.26383 0.24129
# Poissons Ratio (z) = 0.11372 0.14544
#
# Static dielectric constant tensor:
#      x y z
#    x 1.503970 0.000000 0.000000 
#    y 0.000000 1.650960 0.000000 
#    z 0.000000 0.000000 1.650880 
# 
# From -- ./inp_files/29849.got.cif
#   From: 2010.05.17/outbox.cif.g08.bks.cpg/sg73_15_cif.got.tgz:29849.got - 2010.06.03 17:35:07.
