data_PCOD9529386
_publ_section_title
;
Structure prediction by ZEFSAII (Michael W. Deem and Ramdas Pophale) SiO2 
 PCOD9529386
Probable space group: I B A M
;
_chemical_formula_sum "Si O2"
_cell_formula_units_Z 52
_cell_length_a 7.351031
_cell_length_b 14.524664
_cell_length_c 19.838539
_cell_angle_alpha 90.000000
_cell_angle_beta 90.000000
_cell_angle_gamma 90.000000
_cell_volume 2118.185713
_symmetry_space_group_name_H-M "I B A M"
_symmetry_group_IT_number 72
_symmetry_cell_setting 'orthorhombic'
loop_
_space_group_symop_operation_xyz
x,y,z
-x,-y,z
x,-y,1/2-z
-x,y,1/2-z
-x,-y,-z
x,y,-z
-x,y,1/2+z
x,-y,1/2+z
1/2+x,1/2+y,1/2+z
1/2-x,1/2-y,1/2+z
1/2+x,1/2-y,-z
1/2-x,1/2+y,-z
1/2-x,1/2-y,1/2-z
1/2+x,1/2+y,1/2-z
1/2-x,1/2+y,z
1/2+x,1/2-y,z
loop_
_atom_site_type_symbol
_atom_site_label
_atom_site_fract_x
_atom_site_fract_y
_atom_site_fract_z
Si Si1 0.000000 0.000000 0.250000
Si Si2 0.337980 0.660222 0.156064
Si Si3 0.633977 0.587569 0.074681
Si Si4 0.941293 0.637028 0.175904
O O1 0.892669 0.074563 0.295720
O O2 0.486834 0.663327 0.096950
O O3 0.130801 0.643726 0.136055
O O4 0.358951 0.761040 0.188200
O O5 0.500000 0.500000 0.073320
O O6 0.790391 0.585319 0.131441
O O7 0.709920 0.601715 0.000000
O O8 0.000000 0.602061 0.250000
#
# Coordination Sequence:
#
# PCOD9529386 Si02
#       4
#     4  16  16  16
#     4  12  24  44  76 108 158 202 256 336 396 460
#     4  12  24  45  75 109 152 201 260 324 395 469
#     4  11  27  51  73 107 157 206 258 320 391 477
#     4  12  25  46  78 113 150 204 258 334 393 464
#
# _framework density 24.549309000000001
#
# number of rings (size 3 to 8) (size 9 to 14) (size 15 to 20)
#    0.000    0.308    6.154    2.769    0.000    3.692 
#    0.000    3.077    0.000    0.000    0.000    0.000 
#    0.000    0.000    0.000    0.000    0.000    0.000 
#
# Total GULP energy -145283.745479 kJ/mol
# GULP energy per Si atom -5587.836365 kJ/mol
# Density = 2.449343 g / cm^3
# Si number density = 24.549309 Si / 1000 Ang^3
#
#
#
# Elastic Constant Matrix: (Units=GPa)
#
#
# Indices 1 2 3 4 5 6 
#
# 1 194.8177 32.4918 66.4005 0.0000 0.0000 0.0000
# 2 32.4918 153.2940 41.9928 0.0000 0.0000 0.0000
# 3 66.4005 41.9928 169.4556 0.0000 0.0000 0.0000
# 4 0.0000 0.0000 0.0000 16.3754 0.0000 0.0000
# 5 0.0000 0.0000 0.0000 0.0000 36.6208 0.0000
# 6 0.0000 0.0000 0.0000 0.0000 0.0000 37.1695
#
#
#
# Elastic Compliance Matrix: (Units=1/GPa)
#
#
# Indices 1 2 3 4 5 6 
#
# 1 0.005988 -0.000672 -0.002180 0.000000 0.000000 0.000000
# 2 -0.000672 0.007074 -0.001490 0.000000 0.000000 0.000000
# 3 -0.002180 -0.001490 0.007125 0.000000 0.000000 0.000000
# 4 0.000000 0.000000 0.000000 0.061067 0.000000 0.000000
# 5 0.000000 0.000000 0.000000 0.000000 0.027307 0.000000
# 6 0.000000 0.000000 0.000000 0.000000 0.000000 0.026904
#
#
# Mechanical properties :
#
#
# Convention : Reuss Voigt Hill
#
# Bulk Modulus (GPa) = 86.93065 88.81528 87.87297
# Shear Modulus (GPa) = 33.78788 43.14527 38.46658
#
# Velocity S-wave (km/s) = 3.71391 4.19680 3.96272
# Velocity P-wave (km/s) = 7.34019 7.72923 7.53722
#
# Compressibility (1/GPa) = 0.01150342
#
# Stress axis : x y z
#
# Youngs Moduli (GPa) = 166.99899 141.36414 140.35941
#
# Poissons Ratio (x) = 0.09501 0.30596
# Poissons Ratio (y) = 0.11224 0.20909
# Poissons Ratio (z) = 0.36403 0.21058
#
# Static dielectric constant tensor:
#      x y z
#    x 1.962950 0.000000 0.000000 
#    y 0.000000 2.088140 0.000000 
#    z 0.000000 0.000000 2.019240 
# 
# From -- ./inp_files/36555.got.cif
#   From: 2010.05.17/outbox.cif.g08.bks.cpg/sg72_19_cif.got.tgz:36555.got - 2010.06.03 17:03:01.
