data_PCOD9529208
_publ_section_title
;
Structure prediction by ZEFSAII (Michael W. Deem and Ramdas Pophale) SiO2 
 PCOD9529208
Probable space group: I B A M
;
_chemical_formula_sum "Si O2"
_cell_formula_units_Z 56
_cell_length_a 10.022613
_cell_length_b 15.110162
_cell_length_c 14.853001
_cell_angle_alpha 90.000000
_cell_angle_beta 90.000000
_cell_angle_gamma 90.000000
_cell_volume 2249.387577
_symmetry_space_group_name_H-M "I B A M"
_symmetry_group_IT_number 72
_symmetry_cell_setting 'orthorhombic'
loop_
_space_group_symop_operation_xyz
x,y,z
-x,-y,z
x,-y,1/2-z
-x,y,1/2-z
-x,-y,-z
x,y,-z
-x,y,1/2+z
x,-y,1/2+z
1/2+x,1/2+y,1/2+z
1/2-x,1/2-y,1/2+z
1/2+x,1/2-y,-z
1/2-x,1/2+y,-z
1/2-x,1/2-y,1/2-z
1/2+x,1/2+y,1/2-z
1/2-x,1/2+y,z
1/2+x,1/2-y,z
loop_
_atom_site_type_symbol
_atom_site_label
_atom_site_fract_x
_atom_site_fract_y
_atom_site_fract_z
Si Si1 0.954112 0.129822 0.145567
Si Si2 0.403130 0.833400 0.364779
Si Si3 0.672799 0.601726 0.500000
Si Si4 0.664201 0.913367 0.312559
O O1 0.943068 0.232869 0.116452
O O2 0.804399 0.091398 0.138256
O O3 0.000000 0.122029 0.250000
O O4 0.060760 0.088837 0.079404
O O5 0.285317 0.871272 0.423569
O O6 0.534857 0.894932 0.372900
O O7 0.350791 0.835977 0.261718
O O8 0.655138 0.000000 0.250000
#
# Coordination Sequence:
#
# PCOD9529208 Si02
#       4
#    16  16   8  16
#     4  12  23  45  74 105 146 189 237 301 362 417
#     4  11  22  44  72 104 140 186 245 294 347 426
#     4  12  26  40  70 116 138 180 247 303 347 425
#     4  11  24  45  74 102 140 199 234 285 366 433
#
# _framework density 24.895665999999999
#
# number of rings (size 3 to 8) (size 9 to 14) (size 15 to 20)
#    0.000    0.571    5.714    5.143    0.000    1.714 
#    0.000    5.714    0.000    0.000    0.000    0.000 
#    0.000    0.000    0.000    0.000    0.000    0.000 
#
# Total GULP energy -155886.063760 kJ/mol
# GULP energy per Si atom -5567.359420 kJ/mol
# Density = 2.483900 g / cm^3
# Si number density = 24.895666 Si / 1000 Ang^3
#
#
#
# Elastic Constant Matrix: (Units=GPa)
#
#
# Indices 1 2 3 4 5 6 
#
# 1 277.9556 65.2878 96.3687 0.0000 0.0000 0.0000
# 2 65.2878 127.6707 -2.7331 0.0000 0.0000 0.0000
# 3 96.3687 -2.7331 136.1603 0.0000 0.0000 0.0000
# 4 0.0000 0.0000 0.0000 -21.0399 0.0000 0.0000
# 5 0.0000 0.0000 0.0000 0.0000 45.9379 0.0000
# 6 0.0000 0.0000 0.0000 0.0000 0.0000 22.9312
#
#
#
# Elastic Compliance Matrix: (Units=1/GPa)
#
#
# Indices 1 2 3 4 5 6 
#
# 1 0.005736 -0.003021 -0.004120 0.000000 0.000000 0.000000
# 2 -0.003021 0.009428 0.002328 0.000000 0.000000 0.000000
# 3 -0.004120 0.002328 0.010307 0.000000 0.000000 0.000000
# 4 0.000000 0.000000 0.000000 -0.047529 0.000000 0.000000
# 5 0.000000 0.000000 0.000000 0.000000 0.021768 0.000000
# 6 0.000000 0.000000 0.000000 0.000000 0.000000 0.043609
#
#
# Mechanical properties :
#
#
# Convention : Reuss Voigt Hill
#
# Bulk Modulus (GPa) = 63.12105 95.51484 79.31794
# Shear Modulus (GPa) = 85.86936 35.09007 60.47971
#
# Velocity S-wave (km/s) = 5.87933 3.75838 4.93417
# Velocity P-wave (km/s) = 8.45565 7.56857 8.02438
#
# Compressibility (1/GPa) = 0.01584258
#
# Stress axis : x y z
#
# Youngs Moduli (GPa) = 174.34028 106.07201 97.01975
#
# Poissons Ratio (x) = 0.32049 0.39975
# Poissons Ratio (y) = 0.52675 -0.22583
# Poissons Ratio (z) = 0.71833 -0.24690
#
# Static dielectric constant tensor:
#      x y z
#    x 1.937230 0.000000 0.000000 
#    y 0.000000 2.055660 0.000000 
#    z 0.000000 0.000000 1.967060 
# 
# From -- ./inp_files/18368.got.cif
#   From: 2010.05.17/outbox.cif.g08.bks.cpg/sg72_10_cif.got.tgz:18368.got - 2010.06.03 17:03:01.
