data_PCOD9529840
_publ_section_title
;
Structure prediction by ZEFSAII (Michael W. Deem and Ramdas Pophale) SiO2 
 PCOD9529840
Probable space group: I B C A 
;
_chemical_formula_sum "Si O2"
_cell_formula_units_Z 80
_cell_length_a 14.355856
_cell_length_b 8.112905
_cell_length_c 28.119144
_cell_angle_alpha 90.000000
_cell_angle_beta 90.000000
_cell_angle_gamma 90.000000
_cell_volume 3274.971913
_symmetry_space_group_name_H-M "I B C A "
_symmetry_group_IT_number 73
_symmetry_cell_setting 'orthorhombic'
loop_
_space_group_symop_operation_xyz
x,y,z
-x,1/2-y,z
x,-y,1/2-z
1/2-x,y,-z
-x,-y,-z
x,1/2+y,-z
-x,y,1/2+z
1/2+x,-y,z
1/2+x,1/2+y,1/2+z
1/2-x,-y,1/2+z
1/2+x,1/2-y,-z
-x,1/2+y,1/2-z
1/2-x,1/2-y,1/2-z
1/2+x,y,1/2-z
1/2-x,1/2+y,z
x,1/2-y,1/2+z
loop_
_atom_site_type_symbol
_atom_site_label
_atom_site_fract_x
_atom_site_fract_y
_atom_site_fract_z
Si Si1 0.642588 0.141582 0.844464
Si Si2 0.500000 0.750000 0.800390
Si Si3 0.624043 0.914899 0.460021
Si Si4 0.170859 0.966357 0.556010
Si Si5 0.935455 0.524380 0.362163
Si Si6 0.136083 0.000000 0.750000
O O1 0.533491 0.091587 0.842905
O O2 0.641876 0.338432 0.850847
O O3 0.669937 0.050582 0.892621
O O4 0.687953 0.073002 0.796217
O O5 0.569680 0.646841 0.834386
O O6 0.567635 0.856397 0.767850
O O7 0.640338 0.723621 0.447254
O O8 0.719739 0.017188 0.455316
O O9 0.609092 0.935240 0.516513
O O10 0.559972 0.988857 0.418521
#
# Coordination Sequence:
#
# PCOD9529840 Si02
#       6
#    16   8  16  16  16   8
#     4  10  21  36  56  82 111 143 184 227 270 319
#     4  10  18  32  54  80 108 144 184 224 270 320
#     4  11  21  37  58  80 111 144 179 221 272 329
#     4  11  22  37  58  83 110 145 182 220 271 329
#     4  10  20  35  56  83 111 143 182 227 271 320
#     4  10  18  32  54  78 110 144 182 224 270 318
#
# _framework density 24.427692
#
# number of rings (size 3 to 8) (size 9 to 14) (size 15 to 20)
#    0.000    1.600    0.000    9.600    0.000    0.800 
#    0.000    2.000    0.000   15.600    0.000    0.000 
#    0.000    0.000    0.000    0.000    0.000    0.000 
#
# Total GULP energy -223433.813634 kJ/mol
# GULP energy per Si atom -5585.845341 kJ/mol
# Density = 2.437209 g / cm^3
# Si number density = 24.427692 Si / 1000 Ang^3
#
#
#
# Elastic Constant Matrix: (Units=GPa)
#
#
# Indices 1 2 3 4 5 6 
#
# 1 14.8884 6.4605 19.9316 0.0000 0.0000 0.0000
# 2 6.4605 127.5460 66.4861 0.0000 0.0000 0.0000
# 3 19.9316 66.4861 216.0407 0.0000 0.0000 0.0000
# 4 0.0000 0.0000 0.0000 59.5477 0.0000 0.0000
# 5 0.0000 0.0000 0.0000 0.0000 13.0616 0.0000
# 6 0.0000 0.0000 0.0000 0.0000 0.0000 15.1833
#
#
#
# Elastic Compliance Matrix: (Units=1/GPa)
#
#
# Indices 1 2 3 4 5 6 
#
# 1 0.076637 -0.000234 -0.006998 0.000000 0.000000 0.000000
# 2 -0.000234 0.009339 -0.002853 0.000000 0.000000 0.000000
# 3 -0.006998 -0.002853 0.006152 0.000000 0.000000 0.000000
# 4 0.000000 0.000000 0.000000 0.016793 0.000000 0.000000
# 5 0.000000 0.000000 0.000000 0.000000 0.076560 0.000000
# 6 0.000000 0.000000 0.000000 0.000000 0.000000 0.065862
#
#
# Mechanical properties :
#
#
# Convention : Reuss Voigt Hill
#
# Bulk Modulus (GPa) = 13.89685 60.47016 37.18350
# Shear Modulus (GPa) = 16.92051 35.26500 26.09275
#
# Velocity S-wave (km/s) = 2.63473 3.80366 3.27182
# Velocity P-wave (km/s) = 3.86744 6.64070 5.43397
#
# Compressibility (1/GPa) = 0.07195875
#
# Stress axis : x y z
#
# Youngs Moduli (GPa) = 13.04856 107.07688 162.54141
#
# Poissons Ratio (x) = 0.02503 1.13754
# Poissons Ratio (y) = 0.00305 0.46365
# Poissons Ratio (z) = 0.09132 0.30544
#
# Static dielectric constant tensor:
#      x y z
#    x 2.015690 0.000000 0.000000 
#    y 0.000000 2.007840 0.000000 
#    z 0.000000 0.000000 2.056760 
# 
# From -- ./inp_files/6219.got.cif
#   From: 2010.05.17/outbox.cif.g08.bks.cpg/sg73_4_cif.got.tgz:6219.got - 2010.06.03 17:35:07.
