data_PCOD9529677
_publ_section_title
;
Structure prediction by ZEFSAII (Michael W. Deem and Ramdas Pophale) SiO2 
 PCOD9529677
Probable space group: I B C A 
;
_chemical_formula_sum "Si O2"
_cell_formula_units_Z 56
_cell_length_a 5.240736
_cell_length_b 17.179256
_cell_length_c 28.613179
_cell_angle_alpha 90.000000
_cell_angle_beta 90.000000
_cell_angle_gamma 90.000000
_cell_volume 2576.100169
_symmetry_space_group_name_H-M "I B C A "
_symmetry_group_IT_number 73
_symmetry_cell_setting 'orthorhombic'
loop_
_space_group_symop_operation_xyz
x,y,z
-x,1/2-y,z
x,-y,1/2-z
1/2-x,y,-z
-x,-y,-z
x,1/2+y,-z
-x,y,1/2+z
1/2+x,-y,z
1/2+x,1/2+y,1/2+z
1/2-x,-y,1/2+z
1/2+x,1/2-y,-z
-x,1/2+y,1/2-z
1/2-x,1/2-y,1/2-z
1/2+x,y,1/2-z
1/2-x,1/2+y,z
x,1/2-y,1/2+z
loop_
_atom_site_type_symbol
_atom_site_label
_atom_site_fract_x
_atom_site_fract_y
_atom_site_fract_z
Si Si1 0.750000 0.054979 0.000000
Si Si2 0.907769 0.834938 0.048993
Si Si3 0.682478 0.447517 0.876326
Si Si4 0.280253 0.411143 0.730346
O O1 0.836981 0.114116 0.959652
O O2 0.500000 0.000000 0.000000
O O3 0.737096 0.880334 0.086351
O O4 0.000000 0.750000 0.063349
O O5 0.750000 0.829705 0.000000
O O6 0.412363 0.490095 0.882015
O O7 0.706665 0.416151 0.823570
O O8 0.313162 0.500000 0.750000
O O9 0.053692 0.374047 0.760140
#
# Coordination Sequence:
#
# PCOD9529677 Si02
#       4
#     8  16  16  16
#     4  12  24  44  70  96 122 166 228 290 328 384
#     4  12  28  47  67  93 142 188 225 276 353 409
#     4  12  24  38  67 103 127 168 231 283 323 402
#     4  10  16  34  59  93 130 163 202 276 348 382
#
# _framework density 21.738287
#
# number of rings (size 3 to 8) (size 9 to 14) (size 15 to 20)
#    0.000    0.571    8.571    1.714    4.000    0.000 
#    0.000    0.000    0.000    1.714    0.000    0.000 
#    0.000    0.000    0.000    0.000    0.000    0.000 
#
# Total GULP energy -156473.730480 kJ/mol
# GULP energy per Si atom -5588.347517 kJ/mol
# Density = 2.168881 g / cm^3
# Si number density = 21.738287 Si / 1000 Ang^3
#
#
#
# Elastic Constant Matrix: (Units=GPa)
#
#
# Indices 1 2 3 4 5 6 
#
# 1 142.5156 25.4392 -12.7976 0.0000 0.0000 0.0000
# 2 25.4392 86.4626 15.7355 0.0000 0.0000 0.0000
# 3 -12.7976 15.7355 93.2393 0.0000 0.0000 0.0000
# 4 0.0000 0.0000 0.0000 5.8416 0.0000 0.0000
# 5 0.0000 0.0000 0.0000 0.0000 36.3111 0.0000
# 6 0.0000 0.0000 0.0000 0.0000 0.0000 6.9215
#
#
#
# Elastic Compliance Matrix: (Units=1/GPa)
#
#
# Indices 1 2 3 4 5 6 
#
# 1 0.007595 -0.002501 0.001465 0.000000 0.000000 0.000000
# 2 -0.002501 0.012756 -0.002496 0.000000 0.000000 0.000000
# 3 0.001465 -0.002496 0.011347 0.000000 0.000000 0.000000
# 4 0.000000 0.000000 0.000000 0.171185 0.000000 0.000000
# 5 0.000000 0.000000 0.000000 0.000000 0.027540 0.000000
# 6 0.000000 0.000000 0.000000 0.000000 0.000000 0.144478
#
#
# Mechanical properties :
#
#
# Convention : Reuss Voigt Hill
#
# Bulk Modulus (GPa) = 40.59636 42.10796 41.35216
# Shear Modulus (GPa) = 12.81471 29.40421 21.10946
#
# Velocity S-wave (km/s) = 2.43059 3.68182 3.11958
# Velocity P-wave (km/s) = 5.15681 6.12265 5.66037
#
# Compressibility (1/GPa) = 0.02463275
#
# Stress axis : x y z
#
# Youngs Moduli (GPa) = 131.67031 78.39557 88.12638
#
# Poissons Ratio (x) = 0.19607 -0.12906
# Poissons Ratio (y) = 0.32932 0.21997
# Poissons Ratio (z) = -0.19283 0.19568
#
# Static dielectric constant tensor:
#      x y z
#    x 1.675680 0.000000 0.000000 
#    y 0.000000 1.857650 0.000000 
#    z 0.000000 0.000000 1.833070 
# 
# From -- ./inp_files/1006.got.cif
#   From: 2010.05.17/outbox.cif.g08.bks.cpg/sg73_1_cif.got.tgz:1006.got - 2010.06.03 17:35:07.
