data_PCOD9529127
_publ_section_title
;
Structure prediction by ZEFSAII (Michael W. Deem and Ramdas Pophale) SiO2 
 PCOD9529127
Probable space group: I B A M
;
_chemical_formula_sum "Si O2"
_cell_formula_units_Z 92
_cell_length_a 13.142912
_cell_length_b 13.744316
_cell_length_c 20.680470
_cell_angle_alpha 90.000000
_cell_angle_beta 90.000000
_cell_angle_gamma 90.000000
_cell_volume 3735.727043
_symmetry_space_group_name_H-M "I B A M"
_symmetry_group_IT_number 72
_symmetry_cell_setting 'orthorhombic'
loop_
_space_group_symop_operation_xyz
x,y,z
-x,-y,z
x,-y,1/2-z
-x,y,1/2-z
-x,-y,-z
x,y,-z
-x,y,1/2+z
x,-y,1/2+z
1/2+x,1/2+y,1/2+z
1/2-x,1/2-y,1/2+z
1/2+x,1/2-y,-z
1/2-x,1/2+y,-z
1/2-x,1/2-y,1/2-z
1/2+x,1/2+y,1/2-z
1/2-x,1/2+y,z
1/2+x,1/2-y,z
loop_
_atom_site_type_symbol
_atom_site_label
_atom_site_fract_x
_atom_site_fract_y
_atom_site_fract_z
Si Si1 0.351000 0.143027 0.636668
Si Si2 0.160967 0.868141 0.780559
Si Si3 0.161796 0.148319 0.000000
Si Si4 0.917868 0.690854 0.643105
Si Si5 0.100189 0.295853 0.500000
Si Si6 0.500000 0.500000 0.750000
Si Si7 0.900595 0.373550 0.500000
Si Si8 0.793693 0.129108 0.632350
O O1 0.266670 0.104576 0.685758
O O2 0.469739 0.150248 0.656671
O O3 0.350007 0.094494 0.566097
O O4 0.313509 0.254171 0.626201
O O5 0.125210 0.760143 0.800324
O O6 0.169311 0.887263 0.704551
O O7 0.065583 0.933092 0.797608
O O8 0.104219 0.252942 0.000000
O O9 0.150986 0.091481 0.067829
O O10 0.281498 0.177905 0.000000
O O11 0.919111 0.746351 0.572812
O O12 0.828066 0.612694 0.633301
O O13 0.022151 0.387504 0.500000
#
# Coordination Sequence:
#
# PCOD9529127 Si02
#       8
#    16  16   8  16   8   4   8  16
#     4   9  16  28  50  79 104 129 157 199 255 304
#     4  11  22  34  51  69  98 140 178 210 246 298
#     4   8  14  26  42  67 105 132 152 192 257 322
#     4   9  16  29  53  86 111 126 158 208 262 310
#     4   8  14  24  44  79 118 137 140 182 268 328
#     4  12  28  44  48  60 100 148 180 208 248 290
#     4   8  14  24  42  73 109 130 148 186 247 312
#     4   9  17  28  48  77 102 129 161 206 263 306
#
# _framework density 24.627067
#
# number of rings (size 3 to 8) (size 9 to 14) (size 15 to 20)
#    0.000    2.783    0.000    4.174    0.000    2.087 
#    0.000    0.000    0.000    6.783    0.000    0.000 
#    0.000    8.348    0.000    0.000    0.000    0.000 
#
# Total GULP energy -256329.077404 kJ/mol
# GULP energy per Si atom -5572.371248 kJ/mol
# Density = 2.457102 g / cm^3
# Si number density = 24.627067 Si / 1000 Ang^3
#
#
#
# Elastic Constant Matrix: (Units=GPa)
#
#
# Indices 1 2 3 4 5 6 
#
# 1 120.8055 10.6343 57.0956 0.0000 0.0000 0.0000
# 2 10.6343 26.9368 1.4524 0.0000 0.0000 0.0000
# 3 57.0956 1.4524 175.7873 0.0000 0.0000 0.0000
# 4 0.0000 0.0000 0.0000 3.9982 0.0000 0.0000
# 5 0.0000 0.0000 0.0000 0.0000 34.8347 0.0000
# 6 0.0000 0.0000 0.0000 0.0000 0.0000 20.4427
#
#
#
# Elastic Compliance Matrix: (Units=1/GPa)
#
#
# Indices 1 2 3 4 5 6 
#
# 1 0.010160 -0.003835 -0.003268 0.000000 0.000000 0.000000
# 2 -0.003835 0.038588 0.000927 0.000000 0.000000 0.000000
# 3 -0.003268 0.000927 0.006743 0.000000 0.000000 0.000000
# 4 0.000000 0.000000 0.000000 0.250114 0.000000 0.000000
# 5 0.000000 0.000000 0.000000 0.000000 0.028707 0.000000
# 6 0.000000 0.000000 0.000000 0.000000 0.000000 0.048917
#
#
# Mechanical properties :
#
#
# Convention : Reuss Voigt Hill
#
# Bulk Modulus (GPa) = 23.18153 51.32156 37.25155
# Shear Modulus (GPa) = 12.19627 28.81159 20.50393
#
# Velocity S-wave (km/s) = 2.22781 3.42411 2.88857
# Velocity P-wave (km/s) = 4.00637 6.04297 5.12681
#
# Compressibility (1/GPa) = 0.04313780
#
# Stress axis : x y z
#
# Youngs Moduli (GPa) = 98.42515 25.91482 148.31137
#
# Poissons Ratio (x) = 0.09938 0.48472
# Poissons Ratio (y) = 0.37744 -0.13744
# Poissons Ratio (z) = 0.32168 -0.02402
#
# Static dielectric constant tensor:
#      x y z
#    x 2.024100 0.000000 0.000000 
#    y 0.000000 1.984740 0.000000 
#    z 0.000000 0.000000 2.095670 
# 
# From -- ./inp_files/38383.got.cif
#   From: 2010.05.17/outbox.cif.g08.bks.cpg/sg72_20_cif.got.tgz:38383.got - 2010.06.03 17:03:01.
