data_PCOD9529632
_publ_section_title
;
Structure prediction by ZEFSAII (Michael W. Deem and Ramdas Pophale) SiO2 
 PCOD9529632
Probable space group: I B C A 
;
_chemical_formula_sum "Si O2"
_cell_formula_units_Z 72
_cell_length_a 21.407975
_cell_length_b 31.166064
_cell_length_c 5.422710
_cell_angle_alpha 90.000000
_cell_angle_beta 90.000000
_cell_angle_gamma 90.000000
_cell_volume 3618.044687
_symmetry_space_group_name_H-M "I B C A "
_symmetry_group_IT_number 73
_symmetry_cell_setting 'orthorhombic'
loop_
_space_group_symop_operation_xyz
x,y,z
-x,1/2-y,z
x,-y,1/2-z
1/2-x,y,-z
-x,-y,-z
x,1/2+y,-z
-x,y,1/2+z
1/2+x,-y,z
1/2+x,1/2+y,1/2+z
1/2-x,-y,1/2+z
1/2+x,1/2-y,-z
-x,1/2+y,1/2-z
1/2-x,1/2-y,1/2-z
1/2+x,y,1/2-z
1/2-x,1/2+y,z
x,1/2-y,1/2+z
loop_
_atom_site_type_symbol
_atom_site_label
_atom_site_fract_x
_atom_site_fract_y
_atom_site_fract_z
Si Si1 0.670970 0.276677 0.805279
Si Si2 0.207825 0.500000 0.250000
Si Si3 0.673512 0.905648 0.747395
Si Si4 0.313214 0.129304 0.752477
Si Si5 0.525682 0.298862 0.843364
O O1 0.681272 0.246034 0.569234
O O2 0.706683 0.321176 0.766204
O O3 0.599081 0.292775 0.803707
O O4 0.250000 0.498994 0.500000
O O5 0.167311 0.456637 0.242503
O O6 0.651596 0.882142 0.499456
O O7 0.748822 0.897462 0.749483
O O8 0.650945 0.884267 0.000305
O O9 0.500000 0.250000 0.863567
O O10 0.493126 0.319097 0.604305
#
# Coordination Sequence:
#
# PCOD9529632 Si02
#       5
#    16   8  16  16  16
#     4  12  21  32  47  67  87 128 168 189 233 267
#     4  12  16  30  58  72  84 120 160 178 230 306
#     4  10  19  35  47  69  94 124 148 189 237 264
#     4  10  20  32  46  64  97 121 155 199 229 255
#     4  10  16  30  48  64  85 105 154 201 235 272
#
# _framework density 19.900251000000001
#
# number of rings (size 3 to 8) (size 9 to 14) (size 15 to 20)
#    0.000    1.333    8.889    1.333    0.000    0.000 
#    0.000   13.333    0.000    0.000    0.000    0.000 
#    0.000    0.000    0.000   34.000    0.000    0.000 
#
# Total GULP energy -200871.652180 kJ/mol
# GULP energy per Si atom -5579.768116 kJ/mol
# Density = 1.985496 g / cm^3
# Si number density = 19.900251 Si / 1000 Ang^3
#
#
#
# Elastic Constant Matrix: (Units=GPa)
#
#
# Indices 1 2 3 4 5 6 
#
# 1 22.0819 -9.9381 -20.1910 0.0000 0.0000 0.0000
# 2 -9.9381 133.9721 57.2236 0.0000 0.0000 0.0000
# 3 -20.1910 57.2236 233.3348 0.0000 0.0000 0.0000
# 4 0.0000 0.0000 0.0000 26.4599 0.0000 0.0000
# 5 0.0000 0.0000 0.0000 0.0000 4.4251 0.0000
# 6 0.0000 0.0000 0.0000 0.0000 0.0000 0.2784
#
#
#
# Elastic Compliance Matrix: (Units=1/GPa)
#
#
# Indices 1 2 3 4 5 6 
#
# 1 0.049684 0.002066 0.003793 0.000000 0.000000 0.000000
# 2 0.002066 0.008423 -0.001887 0.000000 0.000000 0.000000
# 3 0.003793 -0.001887 0.005077 0.000000 0.000000 0.000000
# 4 0.000000 0.000000 0.000000 0.037793 0.000000 0.000000
# 5 0.000000 0.000000 0.000000 0.000000 0.225983 0.000000
# 6 0.000000 0.000000 0.000000 0.000000 0.000000 3.592579
#
#
# Mechanical properties :
#
#
# Convention : Reuss Voigt Hill
#
# Bulk Modulus (GPa) = 14.05955 49.28642 31.67298
# Shear Modulus (GPa) = 1.27055 30.38563 15.82809
#
# Velocity S-wave (km/s) = 0.79990 3.91179 2.82329
# Velocity P-wave (km/s) = 2.81664 6.72483 5.15542
#
# Compressibility (1/GPa) = 0.07112602
#
# Stress axis : x y z
#
# Youngs Moduli (GPa) = 20.12740 118.71569 196.97986
#
# Poissons Ratio (x) = -0.24522 -0.74708
# Poissons Ratio (y) = -0.04157 0.37171
# Poissons Ratio (z) = -0.07634 0.22402
#
# Static dielectric constant tensor:
#      x y z
#    x 1.755980 0.000000 0.000000 
#    y 0.000000 1.619950 0.000000 
#    z 0.000000 0.000000 1.983010 
# 
# From -- ./inp_files/1811.got.cif
#   From: 2010.05.17/outbox.cif.g08.bks.cpg/sg73_1_cif.got.tgz:1811.got - 2010.06.03 17:35:07.
