data_PCOD9529077
_publ_section_title
;
Structure prediction by ZEFSAII (Michael W. Deem and Ramdas Pophale) SiO2 
 PCOD9529077
Probable space group: I B A M
;
_chemical_formula_sum "Si O2"
_cell_formula_units_Z 84
_cell_length_a 21.753704
_cell_length_b 24.248057
_cell_length_c 10.285823
_cell_angle_alpha 90.000000
_cell_angle_beta 90.000000
_cell_angle_gamma 90.000000
_cell_volume 5425.617906
_symmetry_space_group_name_H-M "I B A M"
_symmetry_group_IT_number 72
_symmetry_cell_setting 'orthorhombic'
loop_
_space_group_symop_operation_xyz
x,y,z
-x,-y,z
x,-y,1/2-z
-x,y,1/2-z
-x,-y,-z
x,y,-z
-x,y,1/2+z
x,-y,1/2+z
1/2+x,1/2+y,1/2+z
1/2-x,1/2-y,1/2+z
1/2+x,1/2-y,-z
1/2-x,1/2+y,-z
1/2-x,1/2-y,1/2-z
1/2+x,1/2+y,1/2-z
1/2-x,1/2+y,z
1/2+x,1/2-y,z
loop_
_atom_site_type_symbol
_atom_site_label
_atom_site_fract_x
_atom_site_fract_y
_atom_site_fract_z
Si Si1 0.742370 0.167306 0.157001
Si Si2 0.074345 0.793231 0.500000
Si Si3 0.385836 0.583214 0.000000
Si Si4 0.899364 0.091710 0.000000
Si Si5 0.000000 0.000000 0.500000
Si Si6 0.690077 0.564224 0.239824
Si Si7 0.353368 0.747494 0.253597
Si Si8 0.569821 0.722415 0.000000
O O1 0.754668 0.105522 0.206074
O O2 0.683156 0.196878 0.218116
O O3 0.801092 0.203118 0.205100
O O4 0.740100 0.169167 0.000000
O O5 0.078463 0.859262 0.500000
O O6 0.110239 0.772446 0.626966
O O7 0.003659 0.774919 0.500000
O O8 0.433351 0.532688 0.000000
O O9 0.343151 0.580212 0.126523
O O10 0.859807 0.074433 0.125742
O O11 0.911095 0.157373 0.000000
O O12 0.963091 0.059054 0.000000
O O13 0.706863 0.500000 0.250000
O O14 0.400151 0.749797 0.373227
#
# Coordination Sequence:
#
# PCOD9529077 Si02
#       8
#    16   8   8   8   4  16  16   8
#     4  11  21  37  60  76 110 143 181 243 289 330
#     4  12  22  36  53  81 112 143 191 232 268 328
#     4  12  24  33  49  78 105 146 203 229 256 308
#     4  12  22  37  49  72 109 152 195 225 276 292
#     4  12  24  38  48  70 116 166 196 238 244 302
#     4  12  22  36  53  76 105 141 188 234 269 321
#     4  11  22  36  56  82 104 143 191 222 297 333
#     4  12  22  38  55  77 114 151 183 242 270 328
#
# _framework density 15.482108
#
# number of rings (size 3 to 8) (size 9 to 14) (size 15 to 20)
#    0.000    0.381    9.524    0.571    0.000    2.286 
#    0.000    0.000    0.000    0.000    0.000    0.000 
#    0.000    4.571    0.000    0.000    0.000    0.000 
#
# Total GULP energy -234101.585106 kJ/mol
# GULP energy per Si atom -5573.847264 kJ/mol
# Density = 1.544687 g / cm^3
# Si number density = 15.482108 Si / 1000 Ang^3
#
#
#
# Elastic Constant Matrix: (Units=GPa)
#
#
# Indices 1 2 3 4 5 6 
#
# 1 94.0637 63.5412 55.8143 0.0000 0.0000 0.0000
# 2 63.5412 97.8584 47.6627 0.0000 0.0000 0.0000
# 3 55.8143 47.6627 146.7095 0.0000 0.0000 0.0000
# 4 0.0000 0.0000 0.0000 15.6432 0.0000 0.0000
# 5 0.0000 0.0000 0.0000 0.0000 -21.5123 0.0000
# 6 0.0000 0.0000 0.0000 0.0000 0.0000 42.5846
#
#
#
# Elastic Compliance Matrix: (Units=1/GPa)
#
#
# Indices 1 2 3 4 5 6 
#
# 1 0.020921 -0.011533 -0.004213 0.000000 0.000000 0.000000
# 2 -0.011533 0.018497 -0.001622 0.000000 0.000000 0.000000
# 3 -0.004213 -0.001622 0.008946 0.000000 0.000000 0.000000
# 4 0.000000 0.000000 0.000000 0.063926 0.000000 0.000000
# 5 0.000000 0.000000 0.000000 0.000000 -0.046485 0.000000
# 6 0.000000 0.000000 0.000000 0.000000 0.000000 0.023483
#
#
# Mechanical properties :
#
#
# Convention : Reuss Voigt Hill
#
# Bulk Modulus (GPa) = 73.36816 74.74089 74.05452
# Shear Modulus (GPa) = 38.89091 18.78399 28.83745
#
# Velocity S-wave (km/s) = 5.01741 3.48698 4.32050
# Velocity P-wave (km/s) = 9.00321 8.03695 8.53377
#
# Compressibility (1/GPa) = 0.01362989
#
# Stress axis : x y z
#
# Youngs Moduli (GPa) = 47.79844 54.06227 111.78557
#
# Poissons Ratio (x) = 0.62349 0.47090
# Poissons Ratio (y) = 0.55125 0.18129
# Poissons Ratio (z) = 0.20135 0.08768
#
# Static dielectric constant tensor:
#      x y z
#    x 1.489950 0.000000 0.000000 
#    y 0.000000 1.522040 0.000000 
#    z 0.000000 0.000000 1.506020 
# 
# From -- ./inp_files/5921.got.cif
#   From: 2010.05.17/outbox.cif.g08.bks.cpg/sg72_3_cif.got.tgz:5921.got - 2010.06.03 17:03:01.
