data_PCOD9529424
_publ_section_title
;
Structure prediction by ZEFSAII (Michael W. Deem and Ramdas Pophale) SiO2 
 PCOD9529424
Probable space group: I B A M
;
_chemical_formula_sum "Si O2"
_cell_formula_units_Z 64
_cell_length_a 8.343050
_cell_length_b 15.191808
_cell_length_c 20.609825
_cell_angle_alpha 90.000000
_cell_angle_beta 90.000000
_cell_angle_gamma 90.000000
_cell_volume 2612.213163
_symmetry_space_group_name_H-M "I B A M"
_symmetry_group_IT_number 72
_symmetry_cell_setting 'orthorhombic'
loop_
_space_group_symop_operation_xyz
x,y,z
-x,-y,z
x,-y,1/2-z
-x,y,1/2-z
-x,-y,-z
x,y,-z
-x,y,1/2+z
x,-y,1/2+z
1/2+x,1/2+y,1/2+z
1/2-x,1/2-y,1/2+z
1/2+x,1/2-y,-z
1/2-x,1/2+y,-z
1/2-x,1/2-y,1/2-z
1/2+x,1/2+y,1/2-z
1/2-x,1/2+y,z
1/2+x,1/2-y,z
loop_
_atom_site_type_symbol
_atom_site_label
_atom_site_fract_x
_atom_site_fract_y
_atom_site_fract_z
Si Si1 0.195533 0.886286 0.000000
Si Si2 0.681729 0.470236 0.641487
Si Si3 0.376468 0.189545 0.690717
Si Si4 0.810570 0.344245 0.867364
Si Si5 0.142237 0.789894 0.500000
O O1 0.191806 0.942612 0.065685
O O2 0.036884 0.826006 0.000000
O O3 0.337098 0.815180 0.000000
O O4 0.500000 0.500000 0.656176
O O5 0.747287 0.387713 0.682094
O O6 0.792546 0.554735 0.652112
O O7 0.500000 0.180608 0.750000
O O8 0.286993 0.281837 0.682463
O O9 0.504734 0.182965 0.632021
O O10 0.729118 0.328035 0.936345
#
# Coordination Sequence:
#
# PCOD9529424 Si02
#       5
#     8  16  16  16   8
#     4  12  24  45  74 114 161 203 257 326 404 478
#     4  12  25  46  77 111 156 205 259 324 391 466
#     4  12  28  52  76 111 157 209 267 321 385 469
#     4  12  25  46  76 110 153 204 258 327 393 460
#     4  12  23  44  77 112 156 203 254 320 406 466
#
# _framework density 24.500298000000001
#
# number of rings (size 3 to 8) (size 9 to 14) (size 15 to 20)
#    0.000    0.000    5.000    5.625    0.000    2.000 
#    0.000    3.750    0.000    0.000    0.000    0.000 
#    0.000    0.000    0.000    0.000    0.000    0.000 
#
# Total GULP energy -179525.438033 kJ/mol
# GULP energy per Si atom -5610.169939 kJ/mol
# Density = 2.444453 g / cm^3
# Si number density = 24.500298 Si / 1000 Ang^3
#
#
#
# Elastic Constant Matrix: (Units=GPa)
#
#
# Indices 1 2 3 4 5 6 
#
# 1 123.6333 55.9241 32.0457 0.0000 0.0000 0.0000
# 2 55.9241 170.7259 37.7142 0.0000 0.0000 0.0000
# 3 32.0457 37.7142 125.9268 0.0000 0.0000 0.0000
# 4 0.0000 0.0000 0.0000 27.6053 0.0000 0.0000
# 5 0.0000 0.0000 0.0000 0.0000 35.8228 0.0000
# 6 0.0000 0.0000 0.0000 0.0000 0.0000 57.5593
#
#
#
# Elastic Compliance Matrix: (Units=1/GPa)
#
#
# Indices 1 2 3 4 5 6 
#
# 1 0.009802 -0.002848 -0.001641 0.000000 0.000000 0.000000
# 2 -0.002848 0.007100 -0.001402 0.000000 0.000000 0.000000
# 3 -0.001641 -0.001402 0.008779 0.000000 0.000000 0.000000
# 4 0.000000 0.000000 0.000000 0.036225 0.000000 0.000000
# 5 0.000000 0.000000 0.000000 0.000000 0.027915 0.000000
# 6 0.000000 0.000000 0.000000 0.000000 0.000000 0.017373
#
#
# Mechanical properties :
#
#
# Convention : Reuss Voigt Hill
#
# Bulk Modulus (GPa) = 71.95143 74.62822 73.28983
# Shear Modulus (GPa) = 40.44992 43.83762 42.14377
#
# Velocity S-wave (km/s) = 4.06765 4.23456 4.15195
# Velocity P-wave (km/s) = 7.17582 7.37801 7.27762
#
# Compressibility (1/GPa) = 0.01389826
#
# Stress axis : x y z
#
# Youngs Moduli (GPa) = 102.01697 140.84586 113.91352
#
# Poissons Ratio (x) = 0.40117 0.18698
# Poissons Ratio (y) = 0.29058 0.15966
# Poissons Ratio (z) = 0.16745 0.19740
#
# Static dielectric constant tensor:
#      x y z
#    x 1.935330 0.000000 0.000000 
#    y 0.000000 1.891390 0.000000 
#    z 0.000000 0.000000 2.069240 
# 
# From -- ./inp_files/41966.got.cif
#   From: 2010.05.17/outbox.cif.g08.bks.cpg/sg72_21_cif.got.tgz:41966.got - 2010.06.03 17:03:01.
