data_PCOD9529686
_publ_section_title
;
Structure prediction by ZEFSAII (Michael W. Deem and Ramdas Pophale) SiO2 
 PCOD9529686
Probable space group: I B C A 
;
_chemical_formula_sum "Si O2"
_cell_formula_units_Z 88
_cell_length_a 18.944807
_cell_length_b 13.714289
_cell_length_c 18.667771
_cell_angle_alpha 90.000000
_cell_angle_beta 90.000000
_cell_angle_gamma 90.000000
_cell_volume 4850.158676
_symmetry_space_group_name_H-M "I B C A "
_symmetry_group_IT_number 73
_symmetry_cell_setting 'orthorhombic'
loop_
_space_group_symop_operation_xyz
x,y,z
-x,1/2-y,z
x,-y,1/2-z
1/2-x,y,-z
-x,-y,-z
x,1/2+y,-z
-x,y,1/2+z
1/2+x,-y,z
1/2+x,1/2+y,1/2+z
1/2-x,-y,1/2+z
1/2+x,1/2-y,-z
-x,1/2+y,1/2-z
1/2-x,1/2-y,1/2-z
1/2+x,y,1/2-z
1/2-x,1/2+y,z
x,1/2-y,1/2+z
loop_
_atom_site_type_symbol
_atom_site_label
_atom_site_fract_x
_atom_site_fract_y
_atom_site_fract_z
Si Si1 0.890735 0.959583 0.547115
Si Si2 0.459496 0.586548 0.922329
Si Si3 0.356360 0.331578 0.928896
Si Si4 0.000000 0.250000 0.527418
Si Si5 0.836718 0.477697 0.833165
Si Si6 0.783168 0.375660 0.079461
O O1 0.928115 0.005870 0.476664
O O2 0.844201 0.042510 0.582348
O O3 0.846645 0.871877 0.510866
O O4 0.957740 0.927241 0.593534
O O5 0.456787 0.681023 0.973018
O O6 0.409687 0.576954 0.854285
O O7 0.335243 0.418868 0.875762
O O8 0.314198 0.232646 0.913376
O O9 0.440458 0.304975 0.926874
O O10 0.830699 0.500000 0.750000
O O11 0.775580 0.408251 0.864007
O O12 0.750000 0.384244 0.000000
#
# Coordination Sequence:
#
# PCOD9529686 Si02
#       6
#    16  16  16   8  16  16
#     4   9  18  34  58  92 114 141 192 257 300 336
#     4   9  17  35  59  87 117 144 194 252 300 346
#     4  10  21  34  63  87 118 150 196 251 306 352
#     4  10  16  34  66  96 110 142 198 274 306 344
#     4  11  25  42  56  81 130 168 196 243 308 371
#     4  12  21  36  61  93 117 152 204 249 301 361
#
# _framework density 18.143737000000002
#
# number of rings (size 3 to 8) (size 9 to 14) (size 15 to 20)
#    0.000    1.818    5.455    1.091    2.545    0.727 
#    0.000    1.818    0.000    0.000    0.000    0.000 
#    0.000    0.000    0.000    0.000    0.000    0.000 
#
# Total GULP energy -245097.479035 kJ/mol
# GULP energy per Si atom -5570.397251 kJ/mol
# Density = 1.810244 g / cm^3
# Si number density = 18.143737 Si / 1000 Ang^3
#
#
#
# Elastic Constant Matrix: (Units=GPa)
#
#
# Indices 1 2 3 4 5 6 
#
# 1 85.3950 59.5473 50.8717 0.0000 0.0000 0.0000
# 2 59.5473 117.9472 28.3845 0.0000 0.0000 0.0000
# 3 50.8717 28.3845 80.0289 0.0000 0.0000 0.0000
# 4 0.0000 0.0000 0.0000 2.5957 0.0000 0.0000
# 5 0.0000 0.0000 0.0000 0.0000 15.8204 0.0000
# 6 0.0000 0.0000 0.0000 0.0000 0.0000 33.6316
#
#
#
# Elastic Compliance Matrix: (Units=1/GPa)
#
#
# Indices 1 2 3 4 5 6 
#
# 1 0.026962 -0.010373 -0.013460 0.000000 0.000000 0.000000
# 2 -0.010373 0.013260 0.001891 0.000000 0.000000 0.000000
# 3 -0.013460 0.001891 0.020381 0.000000 0.000000 0.000000
# 4 0.000000 0.000000 0.000000 0.385246 0.000000 0.000000
# 5 0.000000 0.000000 0.000000 0.000000 0.063210 0.000000
# 6 0.000000 0.000000 0.000000 0.000000 0.000000 0.029734
#
#
# Mechanical properties :
#
#
# Convention : Reuss Voigt Hill
#
# Bulk Modulus (GPa) = 59.81261 62.33091 61.07176
# Shear Modulus (GPa) = 8.49980 20.04737 14.27358
#
# Velocity S-wave (km/s) = 2.16676 3.32764 2.80785
# Velocity P-wave (km/s) = 6.26876 7.01376 6.65170
#
# Compressibility (1/GPa) = 0.01671888
#
# Stress axis : x y z
#
# Youngs Moduli (GPa) = 37.08982 75.41317 49.06594
#
# Poissons Ratio (x) = 0.78225 0.66041
# Poissons Ratio (y) = 0.38473 -0.09276
# Poissons Ratio (z) = 0.49921 -0.14257
#
# Static dielectric constant tensor:
#      x y z
#    x 1.708770 0.000000 0.000000 
#    y 0.000000 1.702970 0.000000 
#    z 0.000000 0.000000 1.600870 
# 
# From -- ./inp_files/23158.got.cif
#   From: 2010.05.17/outbox.cif.g08.bks.cpg/sg73_12_cif.got.tgz:23158.got - 2010.06.03 17:35:07.
