data_PCOD9529028
_publ_section_title
;
Structure prediction by ZEFSAII (Michael W. Deem and Ramdas Pophale) SiO2 
 PCOD9529028
Probable space group: I B A M
;
_chemical_formula_sum "Si O2"
_cell_formula_units_Z 64
_cell_length_a 14.607411
_cell_length_b 9.563561
_cell_length_c 21.112593
_cell_angle_alpha 90.000000
_cell_angle_beta 90.000000
_cell_angle_gamma 90.000000
_cell_volume 2949.405304
_symmetry_space_group_name_H-M "I B A M"
_symmetry_group_IT_number 72
_symmetry_cell_setting 'orthorhombic'
loop_
_space_group_symop_operation_xyz
x,y,z
-x,-y,z
x,-y,1/2-z
-x,y,1/2-z
-x,-y,-z
x,y,-z
-x,y,1/2+z
x,-y,1/2+z
1/2+x,1/2+y,1/2+z
1/2-x,1/2-y,1/2+z
1/2+x,1/2-y,-z
1/2-x,1/2+y,-z
1/2-x,1/2-y,1/2-z
1/2+x,1/2+y,1/2-z
1/2-x,1/2+y,z
1/2+x,1/2-y,z
loop_
_atom_site_type_symbol
_atom_site_label
_atom_site_fract_x
_atom_site_fract_y
_atom_site_fract_z
Si Si1 0.357920 0.052447 0.500000
Si Si2 0.219622 0.873387 0.295466
Si Si3 0.022233 0.160646 0.174892
Si Si4 0.122151 0.359931 0.390900
Si Si5 0.256591 0.203753 0.000000
O O1 0.402115 0.988186 0.437229
O O2 0.337254 0.214210 0.500000
O O3 0.259798 0.965969 0.500000
O O4 0.250000 0.750000 0.250000
O O5 0.131026 0.824358 0.334259
O O6 0.306894 0.911789 0.337751
O O7 0.190232 0.000000 0.250000
O O8 0.000000 0.178561 0.250000
O O9 0.960100 0.271790 0.138095
O O10 0.000000 0.000000 0.157673
O O11 0.183624 0.262316 0.437619
#
# Coordination Sequence:
#
# PCOD9529028 Si02
#       5
#     8  16  16  16   8
#     4   8  20  36  64  86 126 162 217 252 315 367
#     4  12  23  36  64  92 122 166 205 257 325 377
#     4  11  20  37  59  92 127 163 211 260 309 388
#     4   9  22  39  61  89 129 158 216 260 314 364
#     4   8  20  38  64  89 118 173 209 264 299 379
#
# _framework density 21.699289
#
# number of rings (size 3 to 8) (size 9 to 14) (size 15 to 20)
#    1.500    0.250    5.000    0.000    7.000    0.000 
#    0.000   10.000    0.000    1.500    0.000    0.000 
#    0.000    0.000    0.000    0.000    0.000    0.000 
#
# Total GULP energy -178393.817613 kJ/mol
# GULP energy per Si atom -5574.806800 kJ/mol
# Density = 2.164990 g / cm^3
# Si number density = 21.699289 Si / 1000 Ang^3
#
#
#
# Elastic Constant Matrix: (Units=GPa)
#
#
# Indices 1 2 3 4 5 6 
#
# 1 103.3769 12.7326 12.5882 0.0000 0.0000 0.0000
# 2 12.7326 33.3252 2.9930 0.0000 0.0000 0.0000
# 3 12.5882 2.9930 67.3082 0.0000 0.0000 0.0000
# 4 0.0000 0.0000 0.0000 5.2977 0.0000 0.0000
# 5 0.0000 0.0000 0.0000 0.0000 15.3347 0.0000
# 6 0.0000 0.0000 0.0000 0.0000 0.0000 33.2916
#
#
#
# Elastic Compliance Matrix: (Units=1/GPa)
#
#
# Indices 1 2 3 4 5 6 
#
# 1 0.010356 -0.003798 -0.001768 0.000000 0.000000 0.000000
# 2 -0.003798 0.031521 -0.000691 0.000000 0.000000 0.000000
# 3 -0.001768 -0.000691 0.015218 0.000000 0.000000 0.000000
# 4 0.000000 0.000000 0.000000 0.188762 0.000000 0.000000
# 5 0.000000 0.000000 0.000000 0.000000 0.065212 0.000000
# 6 0.000000 0.000000 0.000000 0.000000 0.000000 0.030038
#
#
# Mechanical properties :
#
#
# Convention : Reuss Voigt Hill
#
# Bulk Modulus (GPa) = 22.43128 28.95976 25.69552
# Shear Modulus (GPa) = 13.56918 22.49790 18.03354
#
# Velocity S-wave (km/s) = 2.50337 3.22344 2.88595
# Velocity P-wave (km/s) = 4.32615 5.21814 4.79294
#
# Compressibility (1/GPa) = 0.04458060
#
# Stress axis : x y z
#
# Youngs Moduli (GPa) = 96.55840 31.72535 65.70982
#
# Poissons Ratio (x) = 0.12050 0.11617
# Poissons Ratio (y) = 0.36674 0.04543
# Poissons Ratio (z) = 0.17071 0.02193
#
# Static dielectric constant tensor:
#      x y z
#    x 1.864520 0.000000 0.000000 
#    y 0.000000 1.730000 0.000000 
#    z 0.000000 0.000000 1.816480 
# 
# From -- ./inp_files/48432.got.cif
#   From: 2010.05.17/outbox.cif.g08.bks.cpg/sg72_25_cif.got.tgz:48432.got - 2010.06.03 17:03:01.
