data_PCOD9529904
_publ_section_title
;
Structure prediction by ZEFSAII (Michael W. Deem and Ramdas Pophale) SiO2 
 PCOD9529904
Probable space group: I B C A 
;
_chemical_formula_sum "Si O2"
_cell_formula_units_Z 120
_cell_length_a 24.533424
_cell_length_b 8.737701
_cell_length_c 26.447317
_cell_angle_alpha 90.000000
_cell_angle_beta 90.000000
_cell_angle_gamma 90.000000
_cell_volume 5669.398241
_symmetry_space_group_name_H-M "I B C A "
_symmetry_group_IT_number 73
_symmetry_cell_setting 'orthorhombic'
loop_
_space_group_symop_operation_xyz
x,y,z
-x,1/2-y,z
x,-y,1/2-z
1/2-x,y,-z
-x,-y,-z
x,1/2+y,-z
-x,y,1/2+z
1/2+x,-y,z
1/2+x,1/2+y,1/2+z
1/2-x,-y,1/2+z
1/2+x,1/2-y,-z
-x,1/2+y,1/2-z
1/2-x,1/2-y,1/2-z
1/2+x,y,1/2-z
1/2-x,1/2+y,z
x,1/2-y,1/2+z
loop_
_atom_site_type_symbol
_atom_site_label
_atom_site_fract_x
_atom_site_fract_y
_atom_site_fract_z
Si Si1 0.250000 0.753586 0.000000
Si Si2 0.220336 0.007493 0.665125
Si Si3 0.438418 0.689590 0.372585
Si Si4 0.530666 0.595517 0.573635
Si Si5 0.120103 0.648786 0.222516
Si Si6 0.702161 0.305557 0.788293
Si Si7 0.688218 0.993020 0.943885
Si Si8 0.573966 0.407033 0.036368
O O1 0.297628 0.644492 0.981233
O O2 0.224463 0.862906 0.958341
O O3 0.208968 0.186983 0.665706
O O4 0.208807 0.942337 0.610546
O O5 0.173337 0.933913 0.699368
O O6 0.278656 0.967283 0.689749
O O7 0.500000 0.750000 0.366020
O O8 0.439372 0.506745 0.383541
O O9 0.408014 0.761164 0.323841
O O10 0.417716 0.763326 0.425810
O O11 0.500000 0.750000 0.590908
O O12 0.566750 0.627810 0.523183
O O13 0.482145 0.485038 0.553909
O O14 0.091254 0.500000 0.250000
O O15 0.144448 0.772024 0.262432
O O16 0.750000 0.250000 0.750000
O O17 0.624191 0.017923 0.950361
#
# Coordination Sequence:
#
# PCOD9529904 Si02
#       8
#     8  16  16  16  16  16  16  16
#     4  10  26  38  50  84 126 172 218 256 302 394
#     4  10  18  34  60  83 114 156 202 257 311 367
#     4  10  20  37  63  93 123 165 204 258 326 396
#     4  10  21  36  60  99 127 160 217 273 323 393
#     4   9  18  34  59  92 114 156 209 255 320 385
#     4   9  18  32  59  86 114 147 196 261 303 359
#     4  11  22  39  57  83 127 172 214 255 323 380
#     4  10  20  35  63  89 127 168 213 266 325 389
#
# _framework density 21.166267999999999
#
# number of rings (size 3 to 8) (size 9 to 14) (size 15 to 20)
#    0.000    2.133    1.333    4.000    3.733    0.000 
#    0.000    0.000    8.800    6.400    0.000    0.000 
#    0.000    0.000    0.000    0.000    0.000    0.000 
#
# Total GULP energy -334257.512531 kJ/mol
# GULP energy per Si atom -5570.958542 kJ/mol
# Density = 2.111809 g / cm^3
# Si number density = 21.166268 Si / 1000 Ang^3
#
#
#
# Elastic Constant Matrix: (Units=GPa)
#
#
# Indices 1 2 3 4 5 6 
#
# 1 51.1333 6.9985 31.8405 0.0000 0.0000 0.0000
# 2 6.9985 97.5655 43.9518 0.0000 0.0000 0.0000
# 3 31.8405 43.9518 101.1406 0.0000 0.0000 0.0000
# 4 0.0000 0.0000 0.0000 17.6833 0.0000 0.0000
# 5 0.0000 0.0000 0.0000 0.0000 29.4223 0.0000
# 6 0.0000 0.0000 0.0000 0.0000 0.0000 17.7764
#
#
#
# Elastic Compliance Matrix: (Units=1/GPa)
#
#
# Indices 1 2 3 4 5 6 
#
# 1 0.024683 0.002151 -0.008705 0.000000 0.000000 0.000000
# 2 0.002151 0.012932 -0.006297 0.000000 0.000000 0.000000
# 3 -0.008705 -0.006297 0.015364 0.000000 0.000000 0.000000
# 4 0.000000 0.000000 0.000000 0.056551 0.000000 0.000000
# 5 0.000000 0.000000 0.000000 0.000000 0.033988 0.000000
# 6 0.000000 0.000000 0.000000 0.000000 0.000000 0.056254
#
#
# Mechanical properties :
#
#
# Convention : Reuss Voigt Hill
#
# Bulk Modulus (GPa) = 36.66114 46.15789 41.40952
# Shear Modulus (GPa) = 21.31590 24.11296 22.71443
#
# Velocity S-wave (km/s) = 3.17688 3.37889 3.27944
# Velocity P-wave (km/s) = 5.55112 6.08910 5.82632
#
# Compressibility (1/GPa) = 0.02727684
#
# Stress axis : x y z
#
# Youngs Moduli (GPa) = 40.51351 77.32821 65.08633
#
# Poissons Ratio (x) = -0.16634 0.56660
# Poissons Ratio (y) = -0.08715 0.40984
# Poissons Ratio (z) = 0.35269 0.48693
#
# Static dielectric constant tensor:
#      x y z
#    x 1.790600 0.000000 0.000000 
#    y 0.000000 1.874650 0.000000 
#    z 0.000000 0.000000 1.797490 
# 
# From -- ./inp_files/32896.got.cif
#   From: 2010.05.17/outbox.cif.g08.bks.cpg/sg73_17_cif.got.tgz:32896.got - 2010.06.03 17:35:07.
