data_PCOD9529815
_publ_section_title
;
Structure prediction by ZEFSAII (Michael W. Deem and Ramdas Pophale) SiO2 
 PCOD9529815
Probable space group: I B C A 
;
_chemical_formula_sum "Si O2"
_cell_formula_units_Z 48
_cell_length_a 5.180958
_cell_length_b 24.790048
_cell_length_c 13.779975
_cell_angle_alpha 90.000000
_cell_angle_beta 90.000000
_cell_angle_gamma 90.000000
_cell_volume 1769.847591
_symmetry_space_group_name_H-M "I B C A "
_symmetry_group_IT_number 73
_symmetry_cell_setting 'orthorhombic'
loop_
_space_group_symop_operation_xyz
x,y,z
-x,1/2-y,z
x,-y,1/2-z
1/2-x,y,-z
-x,-y,-z
x,1/2+y,-z
-x,y,1/2+z
1/2+x,-y,z
1/2+x,1/2+y,1/2+z
1/2-x,-y,1/2+z
1/2+x,1/2-y,-z
-x,1/2+y,1/2-z
1/2-x,1/2-y,1/2-z
1/2+x,y,1/2-z
1/2-x,1/2+y,z
x,1/2-y,1/2+z
loop_
_atom_site_type_symbol
_atom_site_label
_atom_site_fract_x
_atom_site_fract_y
_atom_site_fract_z
Si Si1 0.292232 0.354893 0.116257
Si Si2 0.196793 0.200416 0.116065
Si Si3 0.361900 0.023266 0.640946
O O1 0.509018 0.311286 0.150060
O O2 0.405652 0.413267 0.139149
O O3 0.994554 0.347999 0.148552
O O4 0.250000 0.349383 0.000000
O O5 0.000000 0.250000 0.137650
O O6 0.250000 0.203202 0.000000
O O7 0.330759 0.000000 0.750000
O O8 0.587823 0.988816 0.595024
#
# Coordination Sequence:
#
# PCOD9529815 Si02
#       3
#    16  16  16
#     4  10  20  32  52  83 114 144 184 231 272 323
#     4  10  18  31  51  80 117 150 176 216 276 336
#     4  10  21  37  55  77 104 147 194 234 281 328
#
# _framework density 27.120979999999999
#
# number of rings (size 3 to 8) (size 9 to 14) (size 15 to 20)
#    0.000    2.000    0.000    6.000    0.000    1.333 
#    0.000    0.000    0.000    0.000    0.000   93.333 
#    0.000    0.000    0.000    0.000    0.000    1.333 
#
# Total GULP energy -133981.642906 kJ/mol
# GULP energy per Si atom -5582.568454 kJ/mol
# Density = 2.705925 g / cm^3
# Si number density = 27.120980 Si / 1000 Ang^3
#
#
#
# Elastic Constant Matrix: (Units=GPa)
#
#
# Indices 1 2 3 4 5 6 
#
# 1 170.7810 32.8549 -1.8171 0.0000 0.0000 0.0000
# 2 32.8549 139.5386 -7.0362 0.0000 0.0000 0.0000
# 3 -1.8171 -7.0362 123.5675 0.0000 0.0000 0.0000
# 4 0.0000 0.0000 0.0000 45.5448 0.0000 0.0000
# 5 0.0000 0.0000 0.0000 0.0000 -11.8286 0.0000
# 6 0.0000 0.0000 0.0000 0.0000 0.0000 51.5539
#
#
#
# Elastic Compliance Matrix: (Units=1/GPa)
#
#
# Indices 1 2 3 4 5 6 
#
# 1 0.006133 -0.001444 0.000008 0.000000 0.000000 0.000000
# 2 -0.001444 0.007527 0.000407 0.000000 0.000000 0.000000
# 3 0.000008 0.000407 0.008116 0.000000 0.000000 0.000000
# 4 0.000000 0.000000 0.000000 0.021956 0.000000 0.000000
# 5 0.000000 0.000000 0.000000 0.000000 -0.084541 0.000000
# 6 0.000000 0.000000 0.000000 0.000000 0.000000 0.019397
#
#
# Mechanical properties :
#
#
# Convention : Reuss Voigt Hill
#
# Bulk Modulus (GPa) = 50.71101 53.54336 52.12719
# Shear Modulus (GPa) = -391.19849 44.37972 -173.40939
#
# Velocity S-wave (km/s) = -12.02311 4.04958 -8.00487
# Velocity P-wave (km/s) = 13.19096 6.45374 8.13482
#
# Compressibility (1/GPa) = 0.01971958
#
# Stress axis : x y z
#
# Youngs Moduli (GPa) = 163.04498 132.85603 123.21256
#
# Poissons Ratio (x) = 0.19180 -0.00098
# Poissons Ratio (y) = 0.23539 -0.05019
# Poissons Ratio (z) = -0.00130 -0.05412
#
# Static dielectric constant tensor:
#      x y z
#    x 2.170570 0.000000 0.000000 
#    y 0.000000 2.147560 0.000000 
#    z 0.000000 0.000000 2.168720 
# 
# From -- ./inp_files/949.got.cif
#   From: 2010.05.17/outbox.cif.g08.bks.cpg/sg73_1_cif.got.tgz:949.got - 2010.06.03 17:35:07.
