data_PCOD9529315
_publ_section_title
;
Structure prediction by ZEFSAII (Michael W. Deem and Ramdas Pophale) SiO2 
 PCOD9529315
Probable space group: I B A M
;
_chemical_formula_sum "Si O2"
_cell_formula_units_Z 68
_cell_length_a 12.142662
_cell_length_b 19.216682
_cell_length_c 13.876164
_cell_angle_alpha 90.000000
_cell_angle_beta 90.000000
_cell_angle_gamma 90.000000
_cell_volume 3237.887340
_symmetry_space_group_name_H-M "I B A M"
_symmetry_group_IT_number 72
_symmetry_cell_setting 'orthorhombic'
loop_
_space_group_symop_operation_xyz
x,y,z
-x,-y,z
x,-y,1/2-z
-x,y,1/2-z
-x,-y,-z
x,y,-z
-x,y,1/2+z
x,-y,1/2+z
1/2+x,1/2+y,1/2+z
1/2-x,1/2-y,1/2+z
1/2+x,1/2-y,-z
1/2-x,1/2+y,-z
1/2-x,1/2-y,1/2-z
1/2+x,1/2+y,1/2-z
1/2-x,1/2+y,z
1/2+x,1/2-y,z
loop_
_atom_site_type_symbol
_atom_site_label
_atom_site_fract_x
_atom_site_fract_y
_atom_site_fract_z
Si Si1 0.123362 0.516995 0.637356
Si Si2 0.376010 0.699692 0.236518
Si Si3 0.000000 0.000000 0.250000
Si Si4 0.193788 0.322370 0.886995
Si Si5 0.331384 0.422185 0.392133
O O1 0.121744 0.500000 0.750000
O O2 0.157958 0.596997 0.620290
O O3 0.220731 0.467273 0.601157
O O4 0.000000 0.500000 0.602146
O O5 0.500000 0.675797 0.250000
O O6 0.313018 0.691427 0.337810
O O7 0.378929 0.774641 0.184635
O O8 0.311384 0.650872 0.160886
O O9 0.082060 0.040021 0.177764
O O10 0.189659 0.302680 0.000000
O O11 0.375791 0.412182 0.500000
#
# Coordination Sequence:
#
# PCOD9529315 Si02
#       5
#    16  16   4  16  16
#     4  11  24  44  72 101 136 183 231 290 347 405
#     4  11  25  46  68  99 143 180 228 287 344 420
#     4  12  22  44  58 102 136 180 224 290 336 410
#     4  11  25  45  70 102 137 181 232 287 349 412
#     4  12  24  42  69 101 138 184 232 282 348 413
#
# _framework density 21.001348
#
# number of rings (size 3 to 8) (size 9 to 14) (size 15 to 20)
#    0.000    0.706    4.706    1.765    3.294    3.765 
#    0.000    0.000    0.000    0.000    0.000    0.000 
#    0.000    0.000    0.000    0.000    0.000    0.000 
#
# Total GULP energy -189773.670767 kJ/mol
# GULP energy per Si atom -5581.578552 kJ/mol
# Density = 2.095355 g / cm^3
# Si number density = 21.001348 Si / 1000 Ang^3
#
#
#
# Elastic Constant Matrix: (Units=GPa)
#
#
# Indices 1 2 3 4 5 6 
#
# 1 116.7526 33.5001 34.7307 0.0000 0.0000 0.0000
# 2 33.5001 107.1847 14.3871 0.0000 0.0001 0.0000
# 3 34.7307 14.3871 148.9844 0.0000 0.0001 0.0000
# 4 0.0000 0.0000 0.0000 13.2830 0.0001 0.0000
# 5 0.0000 0.0001 0.0001 0.0001 -33.4120 0.0000
# 6 0.0000 0.0000 0.0000 0.0000 0.0000 39.0839
#
#
#
# Elastic Compliance Matrix: (Units=1/GPa)
#
#
# Indices 1 2 3 4 5 6 
#
# 1 0.009993 -0.002848 -0.002055 0.000000 0.000000 0.000000
# 2 -0.002848 0.010264 -0.000327 0.000000 0.000000 0.000000
# 3 -0.002055 -0.000327 0.007223 0.000000 0.000000 0.000000
# 4 0.000000 0.000000 0.000000 0.075284 0.000000 0.000000
# 5 0.000000 0.000000 0.000000 0.000000 -0.029929 0.000000
# 6 0.000000 0.000000 0.000000 0.000000 0.000000 0.025586
#
#
# Mechanical properties :
#
#
# Convention : Reuss Voigt Hill
#
# Bulk Modulus (GPa) = 58.75232 59.79527 59.27380
# Shear Modulus (GPa) = 43.64780 23.14456 33.39618
#
# Velocity S-wave (km/s) = 4.56382 3.32332 3.99205
# Velocity P-wave (km/s) = 7.47044 6.57722 7.03802
#
# Compressibility (1/GPa) = 0.01702061
#
# Stress axis : x y z
#
# Youngs Moduli (GPa) = 100.06624 97.43143 138.45261
#
# Poissons Ratio (x) = 0.27745 0.28447
# Poissons Ratio (y) = 0.28495 0.04532
# Poissons Ratio (z) = 0.20560 0.03189
#
# Static dielectric constant tensor:
#      x y z
#    x 1.747350 0.000000 0.000000 
#    y 0.000000 1.819450 0.000000 
#    z 0.000000 0.000000 1.744350 
# 
# From -- ./inp_files/19911.got.cif
#   From: 2010.05.17/outbox.cif.g08.bks.cpg/sg72_10_cif.got.tgz:19911.got - 2010.06.03 17:03:01.
