data_PCOD9529396
_publ_section_title
;
Structure prediction by ZEFSAII (Michael W. Deem and Ramdas Pophale) SiO2 
 PCOD9529396
Probable space group: I B A M
;
_chemical_formula_sum "Si O2"
_cell_formula_units_Z 92
_cell_length_a 11.847446
_cell_length_b 17.701042
_cell_length_c 18.075555
_cell_angle_alpha 90.000000
_cell_angle_beta 90.000000
_cell_angle_gamma 90.000000
_cell_volume 3790.663307
_symmetry_space_group_name_H-M "I B A M"
_symmetry_group_IT_number 72
_symmetry_cell_setting 'orthorhombic'
loop_
_space_group_symop_operation_xyz
x,y,z
-x,-y,z
x,-y,1/2-z
-x,y,1/2-z
-x,-y,-z
x,y,-z
-x,y,1/2+z
x,-y,1/2+z
1/2+x,1/2+y,1/2+z
1/2-x,1/2-y,1/2+z
1/2+x,1/2-y,-z
1/2-x,1/2+y,-z
1/2-x,1/2-y,1/2-z
1/2+x,1/2+y,1/2-z
1/2-x,1/2+y,z
1/2+x,1/2-y,z
loop_
_atom_site_type_symbol
_atom_site_label
_atom_site_fract_x
_atom_site_fract_y
_atom_site_fract_z
Si Si1 0.539704 0.109814 0.500000
Si Si2 0.853923 0.908247 0.634410
Si Si3 0.545290 0.123881 0.333530
Si Si4 0.737674 0.279628 0.000000
Si Si5 0.270747 0.336160 0.265954
Si Si6 0.771876 0.394433 0.500000
Si Si7 0.500000 0.500000 0.250000
Si Si8 0.449535 0.292952 0.370676
O O1 0.543005 0.080999 0.413347
O O2 0.646565 0.169974 0.500000
O O3 0.404005 0.122378 0.500000
O O4 0.760169 0.871109 0.685925
O O5 0.781890 0.939495 0.567838
O O6 0.944875 0.845522 0.608215
O O7 0.916183 0.961989 0.690966
O O8 0.500000 0.100350 0.250000
O O9 0.677979 0.131901 0.319261
O O10 0.492108 0.208247 0.350267
O O11 0.773167 0.191919 0.000000
O O12 0.652088 0.290868 0.930275
O O13 0.250000 0.250000 0.250000
O O14 0.394465 0.336004 0.300714
#
# Coordination Sequence:
#
# PCOD9529396 Si02
#       8
#     8  16  16   8  16   8   4  16
#     4  12  24  38  53  97 147 190 230 280 352 466
#     4  12  25  46  68 103 135 196 246 314 361 435
#     4  12  21  33  57  90 140 189 224 277 370 461
#     4  12  23  36  63 109 161 199 223 287 390 491
#     4  12  20  34  60  94 139 178 227 286 372 458
#     4  12  25  41  66  97 149 190 235 299 381 453
#     4  12  28  50  76  96 146 194 280 318 344 420
#     4  12  20  36  58  94 144 182 230 283 366 451
#
# _framework density 24.270157000000001
#
# number of rings (size 3 to 8) (size 9 to 14) (size 15 to 20)
#    0.000    0.000    8.696    3.652    0.000    0.348 
#    0.000    0.000    0.000    0.000    0.000   20.087 
#    0.000    0.000    0.000    0.000    0.000    0.000 
#
# Total GULP energy -256255.330001 kJ/mol
# GULP energy per Si atom -5570.768043 kJ/mol
# Density = 2.421492 g / cm^3
# Si number density = 24.270157 Si / 1000 Ang^3
#
#
#
# Elastic Constant Matrix: (Units=GPa)
#
#
# Indices 1 2 3 4 5 6 
#
# 1 148.9609 17.8494 54.6560 0.0000 0.0000 0.0000
# 2 17.8494 25.2959 16.0734 0.0000 0.0000 0.0000
# 3 54.6560 16.0734 185.6267 0.0000 0.0000 0.0000
# 4 0.0000 0.0000 0.0000 -5.5890 0.0000 0.0000
# 5 0.0000 0.0000 0.0000 0.0000 83.1365 0.0000
# 6 0.0000 0.0000 0.0000 0.0000 0.0000 7.5128
#
#
#
# Elastic Compliance Matrix: (Units=1/GPa)
#
#
# Indices 1 2 3 4 5 6 
#
# 1 0.007957 -0.004366 -0.001965 0.000000 0.000000 0.000000
# 2 -0.004366 0.044230 -0.002544 0.000000 0.000000 0.000000
# 3 -0.001965 -0.002544 0.006186 0.000000 0.000000 0.000000
# 4 0.000000 0.000000 0.000000 -0.178923 0.000000 0.000000
# 5 0.000000 0.000000 0.000000 0.000000 0.012028 0.000000
# 6 0.000000 0.000000 0.000000 0.000000 0.000000 0.133107
#
#
# Mechanical properties :
#
#
# Convention : Reuss Voigt Hill
#
# Bulk Modulus (GPa) = 24.61713 59.67124 42.14418
# Shear Modulus (GPa) = 89.48319 35.09903 62.29111
#
# Velocity S-wave (km/s) = 6.07862 3.80699 5.07163
# Velocity P-wave (km/s) = 7.70916 6.63053 7.19010
#
# Compressibility (1/GPa) = 0.04062212
#
# Stress axis : x y z
#
# Youngs Moduli (GPa) = 125.67049 22.60923 161.65543
#
# Poissons Ratio (x) = 0.09872 0.31763
# Poissons Ratio (y) = 0.54872 0.41129
# Poissons Ratio (z) = 0.24693 0.05752
#
# Static dielectric constant tensor:
#      x y z
#    x 1.848110 0.000000 0.000000 
#    y 0.000000 2.069420 0.000000 
#    z 0.000000 0.000000 2.174690 
# 
# From -- ./inp_files/29534.got.cif
#   From: 2010.05.17/outbox.cif.g08.bks.cpg/sg72_15_cif.got.tgz:29534.got - 2010.06.03 17:03:01.
