data_PCOD9529742
_publ_section_title
;
Structure prediction by ZEFSAII (Michael W. Deem and Ramdas Pophale) SiO2 
 PCOD9529742
Probable space group: I B C A 
;
_chemical_formula_sum "Si O2"
_cell_formula_units_Z 104
_cell_length_a 18.501184
_cell_length_b 19.416754
_cell_length_c 14.302459
_cell_angle_alpha 90.000000
_cell_angle_beta 90.000000
_cell_angle_gamma 90.000000
_cell_volume 5137.914373
_symmetry_space_group_name_H-M "I B C A "
_symmetry_group_IT_number 73
_symmetry_cell_setting 'orthorhombic'
loop_
_space_group_symop_operation_xyz
x,y,z
-x,1/2-y,z
x,-y,1/2-z
1/2-x,y,-z
-x,-y,-z
x,1/2+y,-z
-x,y,1/2+z
1/2+x,-y,z
1/2+x,1/2+y,1/2+z
1/2-x,-y,1/2+z
1/2+x,1/2-y,-z
-x,1/2+y,1/2-z
1/2-x,1/2-y,1/2-z
1/2+x,y,1/2-z
1/2-x,1/2+y,z
x,1/2-y,1/2+z
loop_
_atom_site_type_symbol
_atom_site_label
_atom_site_fract_x
_atom_site_fract_y
_atom_site_fract_z
Si Si1 0.390942 0.500000 0.750000
Si Si2 0.086633 0.864133 0.175816
Si Si3 0.250000 0.244819 0.000000
Si Si4 0.371522 0.859450 0.033119
Si Si5 0.779947 0.995021 0.404210
Si Si6 0.183971 0.228833 0.813888
Si Si7 0.442473 0.854504 0.218630
Si Si8 0.843625 0.500000 0.250000
O O1 0.340645 0.525706 0.835589
O O2 0.438539 0.436801 0.780600
O O3 0.141686 0.800723 0.177225
O O4 0.012409 0.836371 0.220948
O O5 0.110693 0.929773 0.238272
O O6 0.090082 0.881057 0.064456
O O7 0.183537 0.295273 0.026656
O O8 0.281142 0.204315 0.088545
O O9 0.318983 0.922217 0.067612
O O10 0.432038 0.838188 0.109251
O O11 0.750000 0.026796 0.500000
O O12 0.709805 0.992685 0.338516
O O13 0.250000 0.250000 0.750000
O O14 0.128898 0.176060 0.767465
#
# Coordination Sequence:
#
# PCOD9529742 Si02
#       8
#     8  16   8  16  16  16  16   8
#     4   9  23  36  62  88 124 166 204 270 318 368
#     4  11  24  42  65  95 131 176 214 263 331 404
#     4  10  18  38  66  96 116 168 222 266 322 386
#     4  10  19  39  68  87 127 179 214 248 337 407
#     4  10  17  34  60  93 119 159 209 260 308 373
#     4  11  23  41  68  95 128 169 221 276 326 383
#     4  11  23  45  62  92 132 174 216 267 329 400
#     4  11  21  36  68  96 128 162 224 268 312 390
#
# _framework density 20.241676999999999
#
# number of rings (size 3 to 8) (size 9 to 14) (size 15 to 20)
#    0.000    1.538    3.846    1.846    4.308    0.000 
#    6.923    3.846    0.000    0.000    0.000    0.000 
#    0.000    0.000    0.000    0.000    0.000    0.000 
#
# Total GULP energy -289628.924649 kJ/mol
# GULP energy per Si atom -5569.787012 kJ/mol
# Density = 2.019561 g / cm^3
# Si number density = 20.241677 Si / 1000 Ang^3
#
#
#
# Elastic Constant Matrix: (Units=GPa)
#
#
# Indices 1 2 3 4 5 6 
#
# 1 111.4362 4.6787 62.9620 0.0000 0.0000 0.0000
# 2 4.6787 43.5823 13.9264 0.0000 0.0000 0.0000
# 3 62.9620 13.9264 142.5668 0.0000 0.0000 0.0000
# 4 0.0000 0.0000 0.0000 24.9709 0.0000 0.0000
# 5 0.0000 0.0000 0.0000 0.0000 30.5282 0.0000
# 6 0.0000 0.0000 0.0000 0.0000 0.0000 31.1654
#
#
#
# Elastic Compliance Matrix: (Units=1/GPa)
#
#
# Indices 1 2 3 4 5 6 
#
# 1 0.011965 0.000417 -0.005325 0.000000 0.000000 0.000000
# 2 0.000417 0.023699 -0.002499 0.000000 0.000000 0.000000
# 3 -0.005325 -0.002499 0.009610 0.000000 0.000000 0.000000
# 4 0.000000 0.000000 0.000000 0.040047 0.000000 0.000000
# 5 0.000000 0.000000 0.000000 0.000000 0.032757 0.000000
# 6 0.000000 0.000000 0.000000 0.000000 0.000000 0.032087
#
#
# Mechanical properties :
#
#
# Convention : Reuss Voigt Hill
#
# Bulk Modulus (GPa) = 32.83010 51.19106 42.01058
# Shear Modulus (GPa) = 28.55009 31.73410 30.14210
#
# Velocity S-wave (km/s) = 3.75968 3.96379 3.86309
# Velocity P-wave (km/s) = 5.92463 6.80395 6.37946
#
# Compressibility (1/GPa) = 0.03045986
#
# Stress axis : x y z
#
# Youngs Moduli (GPa) = 83.57893 42.19600 104.05873
#
# Poissons Ratio (x) = -0.01760 0.55409
# Poissons Ratio (y) = -0.03485 0.26006
# Poissons Ratio (z) = 0.44504 0.10545
#
# Static dielectric constant tensor:
#      x y z
#    x 1.722840 0.000000 0.000000 
#    y 0.000000 1.734960 0.000000 
#    z 0.000000 0.000000 1.814040 
# 
# From -- ./inp_files/18186.got.cif
#   From: 2010.05.17/outbox.cif.g08.bks.cpg/sg73_10_cif.got.tgz:18186.got - 2010.06.03 17:35:07.
