data_PCOD9529250
_publ_section_title
;
Structure prediction by ZEFSAII (Michael W. Deem and Ramdas Pophale) SiO2 
 PCOD9529250
Probable space group: I B A M
;
_chemical_formula_sum "Si O2"
_cell_formula_units_Z 52
_cell_length_a 9.751693
_cell_length_b 9.408486
_cell_length_c 24.100974
_cell_angle_alpha 90.000000
_cell_angle_beta 90.000000
_cell_angle_gamma 90.000000
_cell_volume 2211.232240
_symmetry_space_group_name_H-M "I B A M"
_symmetry_group_IT_number 72
_symmetry_cell_setting 'orthorhombic'
loop_
_space_group_symop_operation_xyz
x,y,z
-x,-y,z
x,-y,1/2-z
-x,y,1/2-z
-x,-y,-z
x,y,-z
-x,y,1/2+z
x,-y,1/2+z
1/2+x,1/2+y,1/2+z
1/2-x,1/2-y,1/2+z
1/2+x,1/2-y,-z
1/2-x,1/2+y,-z
1/2-x,1/2-y,1/2-z
1/2+x,1/2+y,1/2-z
1/2-x,1/2+y,z
1/2+x,1/2-y,z
loop_
_atom_site_type_symbol
_atom_site_label
_atom_site_fract_x
_atom_site_fract_y
_atom_site_fract_z
Si Si1 0.500000 0.500000 0.250000
Si Si2 0.853805 0.077715 0.559530
Si Si3 0.304591 0.368590 0.841261
Si Si4 0.466952 0.839477 0.882556
O O1 0.603835 0.584776 0.210252
O O2 0.780235 0.064654 0.500000
O O3 0.888576 0.241636 0.572529
O O4 0.797871 0.995559 0.613208
O O5 0.000000 0.000000 0.554218
O O6 0.393352 0.241464 0.867710
O O7 0.144474 0.335456 0.832078
O O8 0.500000 0.000000 0.898607
#
# Coordination Sequence:
#
# PCOD9529250 Si02
#       4
#     4  16  16  16
#     4  12  24  48  74  88 136 192 228 286 332 404
#     4   9  19  41  67  95 138 182 221 276 338 405
#     4  11  24  46  69  99 138 182 230 278 343 405
#     4  11  23  42  69 104 136 171 229 282 340 411
#
# _framework density 23.516300999999999
#
# number of rings (size 3 to 8) (size 9 to 14) (size 15 to 20)
#    0.000    1.538    4.615    1.846    0.000    3.077 
#    0.000    6.154    0.000    0.000    0.000    0.000 
#    0.000    0.000    0.000    0.000    0.000    0.000 
#
# Total GULP energy -145079.549702 kJ/mol
# GULP energy per Si atom -5579.982681 kJ/mol
# Density = 2.346278 g / cm^3
# Si number density = 23.516301 Si / 1000 Ang^3
#
#
#
# Elastic Constant Matrix: (Units=GPa)
#
#
# Indices 1 2 3 4 5 6 
#
# 1 134.3289 38.1191 21.7704 0.0000 0.0000 0.0000
# 2 38.1191 188.0314 61.6500 0.0000 0.0000 0.0000
# 3 21.7704 61.6500 97.0838 0.0000 0.0000 0.0000
# 4 0.0000 0.0000 0.0000 -13.2452 0.0000 0.0000
# 5 0.0000 0.0000 0.0000 0.0000 -15.3882 0.0000
# 6 0.0000 0.0000 0.0000 0.0000 0.0000 31.9885
#
#
#
# Elastic Compliance Matrix: (Units=1/GPa)
#
#
# Indices 1 2 3 4 5 6 
#
# 1 0.007969 -0.001300 -0.000961 0.000000 0.000000 0.000000
# 2 -0.001300 0.006929 -0.004108 0.000000 0.000000 0.000000
# 3 -0.000961 -0.004108 0.013125 0.000000 0.000000 0.000000
# 4 0.000000 0.000000 0.000000 -0.075499 0.000000 0.000000
# 5 0.000000 0.000000 0.000000 0.000000 -0.064985 0.000000
# 6 0.000000 0.000000 0.000000 0.000000 0.000000 0.031261
#
#
# Mechanical properties :
#
#
# Convention : Reuss Voigt Hill
#
# Bulk Modulus (GPa) = 65.43272 73.61367 69.52319
# Shear Modulus (GPa) = -78.90736 20.53134 -29.18801
#
# Velocity S-wave (km/s) = -5.79889 2.95798 -3.52686
# Velocity P-wave (km/s) = 4.11721 6.56029 3.61151
#
# Compressibility (1/GPa) = 0.01528287
#
# Stress axis : x y z
#
# Youngs Moduli (GPa) = 125.48266 144.32297 76.19146
#
# Poissons Ratio (x) = 0.18768 0.07324
# Poissons Ratio (y) = 0.16318 0.31302
# Poissons Ratio (z) = 0.12062 0.59293
#
# Static dielectric constant tensor:
#      x y z
#    x 1.955290 0.000000 0.000000 
#    y 0.000000 1.925430 0.000000 
#    z 0.000000 0.000000 1.968350 
# 
# From -- ./inp_files/47773.got.cif
#   From: 2010.05.17/outbox.cif.g08.bks.cpg/sg72_24_cif.got.tgz:47773.got - 2010.06.03 17:03:01.
