data_PCOD9529960
_publ_section_title
;
Structure prediction by ZEFSAII (Michael W. Deem and Ramdas Pophale) SiO2 
 PCOD9529960
Probable space group: I B C A 
;
_chemical_formula_sum "Si O2"
_cell_formula_units_Z 88
_cell_length_a 11.850424
_cell_length_b 29.728506
_cell_length_c 12.011713
_cell_angle_alpha 90.000000
_cell_angle_beta 90.000000
_cell_angle_gamma 90.000000
_cell_volume 4231.671248
_symmetry_space_group_name_H-M "I B C A "
_symmetry_group_IT_number 73
_symmetry_cell_setting 'orthorhombic'
loop_
_space_group_symop_operation_xyz
x,y,z
-x,1/2-y,z
x,-y,1/2-z
1/2-x,y,-z
-x,-y,-z
x,1/2+y,-z
-x,y,1/2+z
1/2+x,-y,z
1/2+x,1/2+y,1/2+z
1/2-x,-y,1/2+z
1/2+x,1/2-y,-z
-x,1/2+y,1/2-z
1/2-x,1/2-y,1/2-z
1/2+x,y,1/2-z
1/2-x,1/2+y,z
x,1/2-y,1/2+z
loop_
_atom_site_type_symbol
_atom_site_label
_atom_site_fract_x
_atom_site_fract_y
_atom_site_fract_z
Si Si1 0.000000 0.250000 0.029891
Si Si2 0.639831 0.804162 0.661284
Si Si3 0.703597 0.781575 0.893499
Si Si4 0.165341 0.902383 0.906344
Si Si5 0.720820 0.546908 0.315168
Si Si6 0.938258 0.452756 0.026937
O O1 0.982839 0.208191 0.113076
O O2 0.898146 0.253629 0.945137
O O3 0.658158 0.810361 0.792004
O O4 0.707744 0.757418 0.640279
O O5 0.674340 0.848525 0.597541
O O6 0.750000 0.808667 0.000000
O O7 0.206244 0.918204 0.785159
O O8 0.038923 0.919092 0.936148
O O9 0.250000 0.921142 0.000000
O O10 0.698448 0.500000 0.250000
O O11 0.843291 0.544633 0.375593
O O12 0.630713 0.557221 0.413069
O O13 0.000000 0.500000 0.000000
#
# Coordination Sequence:
#
# PCOD9529960 Si02
#       6
#     8  16  16  16  16  16
#     4  10  18  36  64  88 120 172 214 256 334 386
#     4  10  22  41  62  96 132 171 222 274 331 396
#     4   9  19  39  62  87 123 171 214 263 322 399
#     4  12  26  43  70 103 138 177 230 292 339 408
#     4  11  25  45  70 100 135 181 227 279 344 413
#     4  11  25  46  69  98 136 180 229 279 345 408
#
# _framework density 20.795566000000001
#
# number of rings (size 3 to 8) (size 9 to 14) (size 15 to 20)
#    0.000    1.455    1.818    3.273    5.091    1.455 
#   16.364    0.000    0.000    0.000    0.000    0.000 
#    0.000    0.000    0.000    0.000    0.000    0.000 
#
# Total GULP energy -245057.893713 kJ/mol
# GULP energy per Si atom -5569.497584 kJ/mol
# Density = 2.074823 g / cm^3
# Si number density = 20.795566 Si / 1000 Ang^3
#
#
#
# Elastic Constant Matrix: (Units=GPa)
#
#
# Indices 1 2 3 4 5 6 
#
# 1 87.2293 16.7722 55.2557 0.0001 -0.0002 0.0000
# 2 16.7722 66.7921 32.1143 -0.0001 0.0000 0.0000
# 3 55.2557 32.1143 153.2001 -0.0001 -0.0001 -0.0001
# 4 0.0001 -0.0001 -0.0001 76.3571 -0.0006 0.0000
# 5 -0.0002 0.0000 -0.0001 -0.0006 3.0546 0.0000
# 6 0.0000 0.0000 -0.0001 0.0000 0.0000 14.4687
#
#
#
# Elastic Compliance Matrix: (Units=1/GPa)
#
#
# Indices 1 2 3 4 5 6 
#
# 1 0.014959 -0.001292 -0.005124 0.000000 0.000001 0.000000
# 2 -0.001292 0.016762 -0.003047 0.000000 0.000000 0.000000
# 3 -0.005124 -0.003047 0.009014 0.000000 0.000000 0.000000
# 4 0.000000 0.000000 0.000000 0.013096 0.000002 0.000000
# 5 0.000001 0.000000 0.000000 0.000002 0.327379 -0.000001
# 6 0.000000 0.000000 0.000000 0.000000 -0.000001 0.069115
#
#
# Mechanical properties :
#
#
# Convention : Reuss Voigt Hill
#
# Bulk Modulus (GPa) = 45.85849 57.27845 51.56847
# Shear Modulus (GPa) = 10.49269 32.31469 21.40369
#
# Velocity S-wave (km/s) = 2.24869 3.94626 3.21166
# Velocity P-wave (km/s) = 5.37048 6.95466 6.21327
#
# Compressibility (1/GPa) = 0.02180621
#
# Stress axis : x y z
#
# Youngs Moduli (GPa) = 66.85152 59.66009 110.93325
#
# Poissons Ratio (x) = 0.07711 0.56845
# Poissons Ratio (y) = 0.08640 0.33807
# Poissons Ratio (z) = 0.34256 0.18181
#
# Static dielectric constant tensor:
#      x y z
#    x 1.795270 0.000000 0.000000 
#    y 0.000000 1.795460 0.000000 
#    z 0.000000 0.000000 1.793830 
# 
# From -- ./inp_files/9858.got.cif
#   From: 2010.05.17/outbox.cif.g08.bks.cpg/sg73_5_cif.got.tgz:9858.got - 2010.06.03 17:35:07.
