data_PCOD9529393
_publ_section_title
;
Structure prediction by ZEFSAII (Michael W. Deem and Ramdas Pophale) SiO2 
 PCOD9529393
Probable space group: I B A M
;
_chemical_formula_sum "Si O2"
_cell_formula_units_Z 72
_cell_length_a 13.343587
_cell_length_b 26.442131
_cell_length_c 10.732689
_cell_angle_alpha 90.000000
_cell_angle_beta 90.000000
_cell_angle_gamma 90.000000
_cell_volume 3786.845521
_symmetry_space_group_name_H-M "I B A M"
_symmetry_group_IT_number 72
_symmetry_cell_setting 'orthorhombic'
loop_
_space_group_symop_operation_xyz
x,y,z
-x,-y,z
x,-y,1/2-z
-x,y,1/2-z
-x,-y,-z
x,y,-z
-x,y,1/2+z
x,-y,1/2+z
1/2+x,1/2+y,1/2+z
1/2-x,1/2-y,1/2+z
1/2+x,1/2-y,-z
1/2-x,1/2+y,-z
1/2-x,1/2-y,1/2-z
1/2+x,1/2+y,1/2-z
1/2-x,1/2+y,z
1/2+x,1/2-y,z
loop_
_atom_site_type_symbol
_atom_site_label
_atom_site_fract_x
_atom_site_fract_y
_atom_site_fract_z
Si Si1 0.500000 0.273356 0.750000
Si Si2 0.145946 0.152030 0.644004
Si Si3 0.148006 0.691025 0.354976
Si Si4 0.692256 0.458048 0.352683
Si Si5 0.424071 0.076155 0.641117
O O1 0.449245 0.312232 0.845760
O O2 0.586259 0.235740 0.794362
O O3 0.173860 0.144926 0.500000
O O4 0.242593 0.179899 0.702259
O O5 0.138380 0.094406 0.687832
O O6 0.158228 0.704816 0.500000
O O7 0.091535 0.636987 0.349095
O O8 0.667775 0.500000 0.250000
O O9 0.670052 0.469843 0.500000
O O10 0.812465 0.446946 0.346446
O O11 0.500000 0.060377 0.750000
O O12 0.460530 0.065057 0.500000
#
# Coordination Sequence:
#
# PCOD9529393 Si02
#       5
#     8  16  16  16  16
#     4  12  18  30  57  80 101 138 186 214 258 320
#     4   9  20  36  52  76 109 139 172 222 274 318
#     4   9  18  32  49  74 110 145 174 212 266 318
#     4   9  19  37  57  74 103 142 179 224 277 321
#     4   9  17  31  50  76 108 141 177 219 266 322
#
# _framework density 19.013186000000001
#
# number of rings (size 3 to 8) (size 9 to 14) (size 15 to 20)
#    0.000    2.667    1.111    4.000    0.000    1.333 
#    0.000    5.000    0.000    4.000    0.000    0.000 
#    0.000    0.000    0.000    0.000    0.000    0.000 
#
# Total GULP energy -200426.122279 kJ/mol
# GULP energy per Si atom -5567.392286 kJ/mol
# Density = 1.896991 g / cm^3
# Si number density = 19.013186 Si / 1000 Ang^3
#
#
#
# Elastic Constant Matrix: (Units=GPa)
#
#
# Indices 1 2 3 4 5 6 
#
# 1 16.4087 29.1791 3.7270 0.0000 0.0000 0.0000
# 2 29.1791 142.7094 44.4377 0.0000 0.0000 0.0000
# 3 3.7270 44.4377 54.7486 -0.0003 0.0000 0.0000
# 4 0.0000 0.0000 -0.0003 6.0553 0.0001 0.0000
# 5 0.0000 0.0000 0.0000 0.0001 19.7958 0.0000
# 6 0.0000 0.0000 0.0000 0.0000 0.0000 6.2894
#
#
#
# Elastic Compliance Matrix: (Units=1/GPa)
#
#
# Indices 1 2 3 4 5 6 
#
# 1 0.102662 -0.025178 0.013448 0.000000 0.000000 0.000000
# 2 -0.025178 0.015552 -0.010909 0.000000 0.000000 0.000000
# 3 0.013448 -0.010909 0.026205 0.000001 0.000000 0.000000
# 4 0.000000 0.000000 0.000001 0.165144 -0.000001 0.000000
# 5 0.000000 0.000000 0.000000 -0.000001 0.050516 0.000000
# 6 0.000000 0.000000 0.000000 0.000000 0.000000 0.158998
#
#
# Mechanical properties :
#
#
# Convention : Reuss Voigt Hill
#
# Bulk Modulus (GPa) = 10.08679 40.95047 25.51863
# Shear Modulus (GPa) = 8.36956 15.52963 11.94959
#
# Velocity S-wave (km/s) = 2.10036 2.86104 2.50969
# Velocity P-wave (km/s) = 3.34645 5.70077 4.67426
#
# Compressibility (1/GPa) = 0.09913956
#
# Stress axis : x y z
#
# Youngs Moduli (GPa) = 9.74067 64.29894 38.16117
#
# Poissons Ratio (x) = 1.61894 -0.51318
# Poissons Ratio (y) = 0.24525 0.41631
# Poissons Ratio (z) = -0.13099 0.70146
#
# Static dielectric constant tensor:
#      x y z
#    x 1.692120 0.000000 0.000000 
#    y 0.000000 1.677820 0.000000 
#    z 0.000000 0.000000 1.657890 
# 
# From -- ./inp_files/3701.got.cif
#   From: 2010.05.17/outbox.cif.g08.bks.cpg/sg72_2_cif.got.tgz:3701.got - 2010.06.03 17:03:01.
