data_PCOD9529759
_publ_section_title
;
Structure prediction by ZEFSAII (Michael W. Deem and Ramdas Pophale) SiO2 
 PCOD9529759
Probable space group: I B C A 
;
_chemical_formula_sum "Si O2"
_cell_formula_units_Z 88
_cell_length_a 16.965688
_cell_length_b 17.443686
_cell_length_c 13.767824
_cell_angle_alpha 90.000000
_cell_angle_beta 90.000000
_cell_angle_gamma 90.000000
_cell_volume 4074.506754
_symmetry_space_group_name_H-M "I B C A "
_symmetry_group_IT_number 73
_symmetry_cell_setting 'orthorhombic'
loop_
_space_group_symop_operation_xyz
x,y,z
-x,1/2-y,z
x,-y,1/2-z
1/2-x,y,-z
-x,-y,-z
x,1/2+y,-z
-x,y,1/2+z
1/2+x,-y,z
1/2+x,1/2+y,1/2+z
1/2-x,-y,1/2+z
1/2+x,1/2-y,-z
-x,1/2+y,1/2-z
1/2-x,1/2-y,1/2-z
1/2+x,y,1/2-z
1/2-x,1/2+y,z
x,1/2-y,1/2+z
loop_
_atom_site_type_symbol
_atom_site_label
_atom_site_fract_x
_atom_site_fract_y
_atom_site_fract_z
Si Si1 0.247788 0.712994 0.119046
Si Si2 0.317269 0.054418 0.159731
Si Si3 0.473199 0.582136 0.962421
Si Si4 0.750000 0.451289 0.500000
Si Si5 0.924448 0.215902 0.600861
Si Si6 0.376860 0.167288 0.566296
O O1 0.217202 0.638768 0.175167
O O2 0.338867 0.722443 0.148494
O O3 0.187823 0.784738 0.127780
O O4 0.250000 0.697625 0.000000
O O5 0.397345 0.069878 0.102762
O O6 0.332011 0.000000 0.250000
O O7 0.258040 0.006416 0.091718
O O8 0.544256 0.622732 0.901930
O O9 0.500000 0.500000 0.000000
O O10 0.446677 0.633823 0.055161
O O11 0.674881 0.396074 0.509704
O O12 0.912268 0.270455 0.507316
O O13 0.000000 0.250000 0.656822
#
# Coordination Sequence:
#
# PCOD9529759 Si02
#       6
#    16  16  16   8  16  16
#     4  10  17  37  63  92 130 177 222 271 345 407
#     4  12  25  40  64  98 140 180 229 280 339 410
#     4  11  20  35  61  95 129 171 221 279 341 398
#     4  12  20  40  66 100 126 176 230 272 344 406
#     4   9  17  31  60 100 122 166 224 265 334 409
#     4  10  19  32  67  94 122 175 225 273 336 414
#
# _framework density 21.597708000000001
#
# number of rings (size 3 to 8) (size 9 to 14) (size 15 to 20)
#    0.000    1.455    9.091    0.000    0.000    0.000 
#    0.000    1.818    0.000    2.182    0.000    0.000 
#    0.000    0.000    0.000    0.000    0.000    0.000 
#
# Total GULP energy -245457.609669 kJ/mol
# GULP energy per Si atom -5578.582038 kJ/mol
# Density = 2.154855 g / cm^3
# Si number density = 21.597708 Si / 1000 Ang^3
#
#
#
# Elastic Constant Matrix: (Units=GPa)
#
#
# Indices 1 2 3 4 5 6 
#
# 1 146.8000 51.5265 -3.9044 0.0000 0.0000 0.0000
# 2 51.5265 131.0032 14.6260 0.0000 0.0000 0.0000
# 3 -3.9044 14.6260 21.4702 0.0000 0.0000 0.0000
# 4 0.0000 0.0000 0.0000 80.8202 0.0000 0.0000
# 5 0.0000 0.0000 0.0000 0.0000 -5.7013 0.0000
# 6 0.0000 0.0000 0.0000 0.0000 0.0000 -31.9339
#
#
#
# Elastic Compliance Matrix: (Units=1/GPa)
#
#
# Indices 1 2 3 4 5 6 
#
# 1 0.008208 -0.003675 0.003996 0.000000 0.000000 0.000000
# 2 -0.003675 0.009907 -0.007417 0.000000 0.000000 0.000000
# 3 0.003996 -0.007417 0.052356 0.000000 0.000000 0.000000
# 4 0.000000 0.000000 0.000000 0.012373 0.000000 0.000000
# 5 0.000000 0.000000 0.000000 0.000000 -0.175397 0.000000
# 6 0.000000 0.000000 0.000000 0.000000 0.000000 -0.031315
#
#
# Mechanical properties :
#
#
# Convention : Reuss Voigt Hill
#
# Bulk Modulus (GPa) = 17.76862 47.08553 32.42707
# Shear Modulus (GPa) = -54.99493 24.43865 -15.27814
#
# Velocity S-wave (km/s) = -5.05159 3.36749 -2.66258
# Velocity P-wave (km/s) = 5.07739 6.08017 2.36523
#
# Compressibility (1/GPa) = 0.05627899
#
# Stress axis : x y z
#
# Youngs Moduli (GPa) = 121.83219 100.94129 19.10018
#
# Poissons Ratio (x) = 0.37091 -0.07632
# Poissons Ratio (y) = 0.44767 0.14166
# Poissons Ratio (z) = -0.48682 0.74868
#
# Static dielectric constant tensor:
#      x y z
#    x 1.892210 0.000000 0.000000 
#    y 0.000000 1.784380 0.000000 
#    z 0.000000 0.000000 2.112160 
# 
# From -- ./inp_files/17967.got.cif
#   From: 2010.05.17/outbox.cif.g08.bks.cpg/sg73_9_cif.got.tgz:17967.got - 2010.06.03 17:35:07.
