data_PCOD9529270
_publ_section_title
;
Structure prediction by ZEFSAII (Michael W. Deem and Ramdas Pophale) SiO2 
 PCOD9529270
Probable space group: I B A M
;
_chemical_formula_sum "Si O2"
_cell_formula_units_Z 88
_cell_length_a 21.847756
_cell_length_b 11.930241
_cell_length_c 15.366926
_cell_angle_alpha 90.000000
_cell_angle_beta 90.000000
_cell_angle_gamma 90.000000
_cell_volume 4005.373809
_symmetry_space_group_name_H-M "I B A M"
_symmetry_group_IT_number 72
_symmetry_cell_setting 'orthorhombic'
loop_
_space_group_symop_operation_xyz
x,y,z
-x,-y,z
x,-y,1/2-z
-x,y,1/2-z
-x,-y,-z
x,y,-z
-x,y,1/2+z
x,-y,1/2+z
1/2+x,1/2+y,1/2+z
1/2-x,1/2-y,1/2+z
1/2+x,1/2-y,-z
1/2-x,1/2+y,-z
1/2-x,1/2-y,1/2-z
1/2+x,1/2+y,1/2-z
1/2-x,1/2+y,z
1/2+x,1/2-y,z
loop_
_atom_site_type_symbol
_atom_site_label
_atom_site_fract_x
_atom_site_fract_y
_atom_site_fract_z
Si Si1 0.154888 0.503430 0.601440
Si Si2 0.323643 0.630306 0.500000
Si Si3 0.210830 0.041402 0.845311
Si Si4 0.110275 0.724950 0.135464
Si Si5 0.994396 0.871828 0.855693
Si Si6 0.369489 0.253830 0.340205
O O1 0.170571 0.502104 0.500000
O O2 0.216149 0.469824 0.652458
O O3 0.105119 0.407862 0.620576
O O4 0.135927 0.628697 0.624998
O O5 0.314507 0.536019 0.422381
O O6 0.336625 0.726339 0.575414
O O7 0.188421 0.168012 0.859451
O O8 0.187982 0.000000 0.750000
O O9 0.123288 0.745752 0.236354
O O10 0.049818 0.795504 0.110840
O O11 0.929221 0.817574 0.876437
O O12 0.000000 0.873566 0.750000
O O13 0.000000 0.000000 0.886169
#
# Coordination Sequence:
#
# PCOD9529270 Si02
#       6
#    16   8  16  16  16  16
#     4  12  28  45  67 101 144 191 238 293 353 421
#     4  12  24  42  73 105 140 186 233 290 353 423
#     4  12  26  44  73 103 142 187 235 297 358 416
#     4  11  23  46  72 101 145 184 230 289 363 421
#     4   9  20  42  74 105 134 175 230 293 352 421
#     4  11  25  45  72 106 137 183 243 286 351 432
#
# _framework density 21.970483999999999
#
# number of rings (size 3 to 8) (size 9 to 14) (size 15 to 20)
#    0.000    0.909    3.636    2.727    6.364    2.182 
#    1.636    5.000    0.000    0.000    0.000    0.000 
#    0.000    0.000    0.000    0.000    0.000    0.000 
#
# Total GULP energy -245187.659437 kJ/mol
# GULP energy per Si atom -5572.446805 kJ/mol
# Density = 2.192048 g / cm^3
# Si number density = 21.970484 Si / 1000 Ang^3
#
#
#
# Elastic Constant Matrix: (Units=GPa)
#
#
# Indices 1 2 3 4 5 6 
#
# 1 69.1467 85.3573 10.1230 0.0000 0.0000 0.0000
# 2 85.3573 229.1098 22.7430 0.0000 0.0000 0.0000
# 3 10.1230 22.7430 90.0758 0.0000 0.0000 0.0000
# 4 0.0000 0.0000 0.0000 40.9529 0.0000 0.0000
# 5 0.0000 0.0000 0.0000 0.0000 -4.0855 0.0000
# 6 0.0000 0.0000 0.0000 0.0000 0.0000 19.5848
#
#
#
# Elastic Compliance Matrix: (Units=1/GPa)
#
#
# Indices 1 2 3 4 5 6 
#
# 1 0.026799 -0.009934 -0.000503 0.000000 0.000000 0.000000
# 2 -0.009934 0.008160 -0.000944 0.000000 0.000000 0.000000
# 3 -0.000503 -0.000944 0.011397 0.000000 0.000000 0.000000
# 4 0.000000 0.000000 0.000000 0.024418 0.000000 0.000000
# 5 0.000000 0.000000 0.000000 0.000000 -0.244768 0.000000
# 6 0.000000 0.000000 0.000000 0.000000 0.000000 0.051060
#
#
# Mechanical properties :
#
#
# Convention : Reuss Voigt Hill
#
# Bulk Modulus (GPa) = 42.38699 69.41987 55.90343
# Shear Modulus (GPa) = -54.16679 29.29769 -12.43455
#
# Velocity S-wave (km/s) = -4.97070 3.65568 -2.38159
# Velocity P-wave (km/s) = 3.68907 7.03449 4.23526
#
# Compressibility (1/GPa) = 0.02359214
#
# Stress axis : x y z
#
# Youngs Moduli (GPa) = 37.31494 122.55633 87.74529
#
# Poissons Ratio (x) = 1.21751 0.04418
# Poissons Ratio (y) = 0.37070 0.08281
# Poissons Ratio (z) = 0.01879 0.11566
#
# Static dielectric constant tensor:
#      x y z
#    x 1.849080 0.000000 0.000000 
#    y 0.000000 1.784430 0.000000 
#    z 0.000000 0.000000 1.788110 
# 
# From -- ./inp_files/24992.got.cif
#   From: 2010.05.17/outbox.cif.g08.bks.cpg/sg72_13_cif.got.tgz:24992.got - 2010.06.03 17:03:01.
