data_PCOD9529451
_publ_section_title
;
Structure prediction by ZEFSAII (Michael W. Deem and Ramdas Pophale) SiO2 
 PCOD9529451
Probable space group: I B A M
;
_chemical_formula_sum "Si O2"
_cell_formula_units_Z 68
_cell_length_a 12.377045
_cell_length_b 16.657211
_cell_length_c 15.160742
_cell_angle_alpha 90.000000
_cell_angle_beta 90.000000
_cell_angle_gamma 90.000000
_cell_volume 3125.645456
_symmetry_space_group_name_H-M "I B A M"
_symmetry_group_IT_number 72
_symmetry_cell_setting 'orthorhombic'
loop_
_space_group_symop_operation_xyz
x,y,z
-x,-y,z
x,-y,1/2-z
-x,y,1/2-z
-x,-y,-z
x,y,-z
-x,y,1/2+z
x,-y,1/2+z
1/2+x,1/2+y,1/2+z
1/2-x,1/2-y,1/2+z
1/2+x,1/2-y,-z
1/2-x,1/2+y,-z
1/2-x,1/2-y,1/2-z
1/2+x,1/2+y,1/2-z
1/2-x,1/2+y,z
1/2+x,1/2-y,z
loop_
_atom_site_type_symbol
_atom_site_label
_atom_site_fract_x
_atom_site_fract_y
_atom_site_fract_z
Si Si1 0.029300 0.801447 0.607505
Si Si2 0.107844 0.943913 0.897470
Si Si3 0.980010 0.379006 0.848124
Si Si4 0.765728 0.909333 0.892720
Si Si5 0.000000 0.500000 0.500000
O O1 0.023734 0.799907 0.500000
O O2 0.931460 0.859258 0.640398
O O3 0.020396 0.712053 0.641748
O O4 0.140872 0.846168 0.630654
O O5 0.199267 0.002065 0.859420
O O6 0.135765 0.929025 0.000000
O O7 0.000000 0.000000 0.897242
O O8 0.851700 0.382319 0.865164
O O9 0.000000 0.407311 0.750000
O O10 0.031323 0.434780 0.922612
O O11 0.763514 0.914875 0.000000
#
# Coordination Sequence:
#
# PCOD9529451 Si02
#       5
#    16  16  16  16   4
#     4   9  17  36  65  99 137 172 220 274 321 379
#     4   7  12  26  57  94 129 169 214 261 311 376
#     4  12  25  43  68  96 132 173 221 277 334 399
#     4   9  17  36  65  97 136 179 220 265 327 390
#     4  12  26  52  64  86 128 176 220 274 320 418
#
# _framework density 21.755507000000001
#
# number of rings (size 3 to 8) (size 9 to 14) (size 15 to 20)
#    0.000    2.588    2.353    3.176    0.000    0.941 
#    4.235    0.000    5.176    4.941    0.000    0.000 
#    0.000    0.000    0.000    0.000    0.000    0.000 
#
# Total GULP energy -189284.733860 kJ/mol
# GULP energy per Si atom -5567.198055 kJ/mol
# Density = 2.170599 g / cm^3
# Si number density = 21.755507 Si / 1000 Ang^3
#
#
#
# Elastic Constant Matrix: (Units=GPa)
#
#
# Indices 1 2 3 4 5 6 
#
# 1 42.7574 -24.6435 2.7697 0.0000 0.0000 0.0000
# 2 -24.6435 93.9973 23.9636 0.0000 0.0000 0.0000
# 3 2.7697 23.9636 104.7889 0.0000 0.0000 0.0000
# 4 0.0000 0.0000 0.0000 45.4836 0.0000 0.0000
# 5 0.0000 0.0000 0.0000 0.0000 30.3511 0.0000
# 6 0.0000 0.0000 0.0000 0.0000 0.0000 -20.0263
#
#
#
# Elastic Compliance Matrix: (Units=1/GPa)
#
#
# Indices 1 2 3 4 5 6 
#
# 1 0.028196 0.008052 -0.002587 0.000000 0.000000 0.000000
# 2 0.008052 0.013596 -0.003322 0.000000 0.000000 0.000000
# 3 -0.002587 -0.003322 0.010371 0.000000 0.000000 0.000000
# 4 0.000000 0.000000 0.000000 0.021986 0.000000 0.000000
# 5 0.000000 0.000000 0.000000 0.000000 0.032948 0.000000
# 6 0.000000 0.000000 0.000000 0.000000 0.000000 -0.049934
#
#
# Mechanical properties :
#
#
# Convention : Reuss Voigt Hill
#
# Bulk Modulus (GPa) = 17.71503 27.30260 22.50881
# Shear Modulus (GPa) = 69.74173 27.12529 48.43351
#
# Velocity S-wave (km/s) = 5.66804 3.53487 4.72345
# Velocity P-wave (km/s) = 7.14115 5.40716 6.33377
#
# Compressibility (1/GPa) = 0.05644924
#
# Stress axis : x y z
#
# Youngs Moduli (GPa) = 35.46620 73.54872 96.42203
#
# Poissons Ratio (x) = -0.59218 0.24940
# Poissons Ratio (y) = -0.28556 0.32032
# Poissons Ratio (z) = 0.09173 0.24434
#
# Static dielectric constant tensor:
#      x y z
#    x 1.870590 0.000000 0.000000 
#    y 0.000000 1.794970 0.000000 
#    z 0.000000 0.000000 1.765170 
# 
# From -- ./inp_files/29047.got.cif
#   From: 2010.05.17/outbox.cif.g08.bks.cpg/sg72_15_cif.got.tgz:29047.got - 2010.06.03 17:03:01.
