data_PCOD9529517
_publ_section_title
;
Structure prediction by ZEFSAII (Michael W. Deem and Ramdas Pophale) SiO2 
 PCOD9529517
Probable space group: I B A M
;
_chemical_formula_sum "Si O2"
_cell_formula_units_Z 56
_cell_length_a 30.000000
_cell_length_b 12.000000
_cell_length_c 15.000000
_cell_angle_alpha 90.000000
_cell_angle_beta 90.000000
_cell_angle_gamma 90.000000
_cell_volume 5400.000000
_symmetry_space_group_name_H-M "I B A M"
_symmetry_group_IT_number 72
_symmetry_cell_setting 'orthorhombic'
loop_
_space_group_symop_operation_xyz
x,y,z
-x,-y,z
x,-y,1/2-z
-x,y,1/2-z
-x,-y,-z
x,y,-z
-x,y,1/2+z
x,-y,1/2+z
1/2+x,1/2+y,1/2+z
1/2-x,1/2-y,1/2+z
1/2+x,1/2-y,-z
1/2-x,1/2+y,-z
1/2-x,1/2-y,1/2-z
1/2+x,1/2+y,1/2-z
1/2-x,1/2+y,z
1/2+x,1/2-y,z
loop_
_atom_site_type_symbol
_atom_site_label
_atom_site_fract_x
_atom_site_fract_y
_atom_site_fract_z
Si Si1 0.894947 0.687536 0.594543
Si Si2 0.332785 0.387829 0.637269
Si Si3 0.948082 0.626733 0.757539
Si Si4 0.176733 0.510036 0.601946
Si Si5 0.385709 0.807460 0.900994
Si Si6 0.736726 0.181997 0.396790
Si Si7 0.825574 0.135727 0.846788
O O1 0.918629 0.687031 0.500000
O O2 0.927109 0.692946 0.676902
O O3 0.864263 0.577394 0.599617
O O4 0.861146 0.788697 0.603709
O O5 0.373715 0.321203 0.598327
O O6 0.288907 0.324682 0.606772
O O7 0.325283 0.514594 0.611744
O O8 0.337167 0.377847 0.743450
O O9 0.932005 0.500000 0.750000
O O10 0.930273 0.673008 0.848910
O O11 0.000000 0.627568 0.750000
O O12 0.191433 0.538336 0.500000
O O13 0.154930 0.620763 0.643569
O O14 0.215713 0.432827 0.642475
O O15 0.389405 0.852205 0.000000
O O16 0.721760 0.186729 0.500000
O O17 0.719554 0.293636 0.351336
#
# Coordination Sequence:
#
# PCOD9529517 Si02
#       7
#    16  16  16  16  16  16  16
#     4  10  19  38  64  84 113 158 201 241 293 360
#     4  11  23  37  58  86 119 161 209 258 305 354
#     4  11  23  39  63  96 128 156 192 245 309 379
#     4   8  17  33  54  81 114 158 201 237 288 349
#     4  11  22  38  60  89 126 164 200 252 309 363
#     4  10  21  36  55  81 118 161 207 255 297 347
#     4  10  22  40  57  83 117 158 210 255 298 360
#
# _framework density 10.370369999999999
#
# number of rings (size 3 to 8) (size 9 to 14) (size 15 to 20)
#    0.000    1.857    2.857    2.143    2.000    2.857 
#    0.000    1.429    0.000    1.714    0.000    2.000 
#    0.000    0.000    0.000    0.000    0.000    0.000 
#
# Total GULP energy -312115.678496 kJ/mol
# GULP energy per Si atom -5573.494259 kJ/mol
# Density = 1.034677 g / cm^3
# Si number density = 10.370370 Si / 1000 Ang^3
#
#
#
# Elastic Constant Matrix: (Units=GPa)
#
#
# Indices 1 2 3 4 5 6 
#
# 1 51.6617 35.2624 30.1522 0.0000 0.0000 0.0000
# 2 35.2624 107.1426 21.4993 0.0000 0.0000 0.0000
# 3 30.1522 21.4993 62.0642 0.0000 0.0000 0.0000
# 4 0.0000 0.0000 0.0000 14.1541 0.0000 0.0000
# 5 0.0000 0.0000 0.0000 0.0000 37.3893 0.0000
# 6 0.0000 0.0000 0.0000 0.0000 0.0000 77.0684
#
#
#
# Elastic Compliance Matrix: (Units=1/GPa)
#
#
# Indices 1 2 3 4 5 6 
#
# 1 0.032430 -0.008073 -0.012959 0.000000 0.000000 0.000000
# 2 -0.008073 0.012040 -0.000249 0.000000 0.000000 0.000000
# 3 -0.012959 -0.000249 0.022494 0.000000 0.000000 0.000000
# 4 0.000000 0.000000 0.000000 0.070651 0.000000 0.000000
# 5 0.000000 0.000000 0.000000 0.000000 0.026746 0.000000
# 6 0.000000 0.000000 0.000000 0.000000 0.000000 0.012975
#
#
# Mechanical properties :
#
#
# Convention : Reuss Voigt Hill
#
# Bulk Modulus (GPa) = 40.97759 43.85514 42.41637
# Shear Modulus (GPa) = 21.92665 34.65267 28.28966
#
# Velocity S-wave (km/s) = 3.25495 4.09192 3.69720
# Velocity P-wave (km/s) = 5.82462 6.59662 6.22261
#
# Compressibility (1/GPa) = 0.02440358
#
# Stress axis : x y z
#
# Youngs Moduli (GPa) = 30.83519 83.05477 44.45586
#
# Poissons Ratio (x) = 0.67051 0.57610
# Poissons Ratio (y) = 0.24893 0.01106
# Poissons Ratio (z) = 0.39959 0.02066
#
# Static dielectric constant tensor:
#      x y z
#    x 1.730930 0.000000 0.000000 
#    y 0.000000 1.823130 0.000000 
#    z 0.000000 0.000000 1.800220 
# 
# From -- ./inp_files/26402.got.cif
#   From: 2010.05.17/outbox.ucp.g08.bks.cvg/sg72_14_cif.got.tgz:26402.got - 2010.06.11 16:33:07.
