data_PCOD9529962
_publ_section_title
;
Structure prediction by ZEFSAII (Michael W. Deem and Ramdas Pophale) SiO2 
 PCOD9529962
Probable space group: I B C A 
;
_chemical_formula_sum "Si O2"
_cell_formula_units_Z 88
_cell_length_a 18.083542
_cell_length_b 12.194778
_cell_length_c 15.557785
_cell_angle_alpha 90.000000
_cell_angle_beta 90.000000
_cell_angle_gamma 90.000000
_cell_volume 3430.877117
_symmetry_space_group_name_H-M "I B C A "
_symmetry_group_IT_number 73
_symmetry_cell_setting 'orthorhombic'
loop_
_space_group_symop_operation_xyz
x,y,z
-x,1/2-y,z
x,-y,1/2-z
1/2-x,y,-z
-x,-y,-z
x,1/2+y,-z
-x,y,1/2+z
1/2+x,-y,z
1/2+x,1/2+y,1/2+z
1/2-x,-y,1/2+z
1/2+x,1/2-y,-z
-x,1/2+y,1/2-z
1/2-x,1/2-y,1/2-z
1/2+x,y,1/2-z
1/2-x,1/2+y,z
x,1/2-y,1/2+z
loop_
_atom_site_type_symbol
_atom_site_label
_atom_site_fract_x
_atom_site_fract_y
_atom_site_fract_z
Si Si1 0.627955 0.082633 0.615913
Si Si2 0.018188 0.134942 0.042130
Si Si3 0.668758 0.129431 0.240838
Si Si4 0.750000 0.049874 0.500000
Si Si5 0.343147 0.850555 0.198623
Si Si6 0.394236 0.938525 0.919074
O O1 0.572512 0.123815 0.541710
O O2 0.616176 0.127230 0.710914
O O3 0.707722 0.114388 0.575041
O O4 0.635354 0.950447 0.636042
O O5 0.000000 0.250000 0.085322
O O6 0.052349 0.042276 0.103586
O O7 0.940869 0.112201 0.995514
O O8 0.755571 0.136395 0.218124
O O9 0.649860 0.218968 0.313792
O O10 0.655337 0.000000 0.250000
O O11 0.620724 0.147976 0.155038
O O12 0.685060 0.981439 0.453259
#
# Coordination Sequence:
#
# PCOD9529962 Si02
#       6
#    16  16  16   8  16  16
#     4  10  19  39  65  93 131 174 227 272 353 415
#     4  10  22  41  63  90 134 179 221 281 349 425
#     4  11  20  38  60  93 128 165 219 282 340 403
#     4  10  18  36  66  96 126 166 222 278 336 406
#     4  10  20  36  64  91 131 172 218 281 345 413
#     4  10  21  40  62  90 130 169 225 277 336 419
#
# _framework density 25.649415999999999
#
# number of rings (size 3 to 8) (size 9 to 14) (size 15 to 20)
#    0.000    1.818    3.636    1.091    0.000    0.000 
#   13.091    8.182    0.000    0.000    0.000    0.000 
#    0.000    0.000    0.000    0.000    0.000    0.000 
#
# Total GULP energy -245295.431391 kJ/mol
# GULP energy per Si atom -5574.896168 kJ/mol
# Density = 2.559104 g / cm^3
# Si number density = 25.649416 Si / 1000 Ang^3
#
#
#
# Elastic Constant Matrix: (Units=GPa)
#
#
# Indices 1 2 3 4 5 6 
#
# 1 84.9218 -10.1081 7.9954 0.0000 0.0000 0.0000
# 2 -10.1081 128.6028 -1.0705 0.0000 0.0000 0.0000
# 3 7.9954 -1.0705 55.2383 0.0000 0.0000 0.0000
# 4 0.0000 0.0000 0.0000 38.3913 0.0000 0.0000
# 5 0.0000 0.0000 0.0000 0.0000 36.7704 0.0000
# 6 0.0000 0.0000 0.0000 0.0000 0.0000 2.6091
#
#
#
# Elastic Compliance Matrix: (Units=1/GPa)
#
#
# Indices 1 2 3 4 5 6 
#
# 1 0.012049 0.000933 -0.001726 0.000000 0.000000 0.000000
# 2 0.000933 0.007849 0.000017 0.000000 0.000000 0.000000
# 3 -0.001726 0.000017 0.018354 0.000000 0.000000 0.000000
# 4 0.000000 0.000000 0.000000 0.026048 0.000000 0.000000
# 5 0.000000 0.000000 0.000000 0.000000 0.027196 0.000000
# 6 0.000000 0.000000 0.000000 0.000000 0.000000 0.383278
#
#
# Mechanical properties :
#
#
# Convention : Reuss Voigt Hill
#
# Bulk Modulus (GPa) = 27.24824 29.15516 28.20170
# Shear Modulus (GPa) = 10.23418 33.68390 21.95904
#
# Velocity S-wave (km/s) = 1.99967 3.62780 2.92913
# Velocity P-wave (km/s) = 3.99725 5.37953 4.73906
#
# Compressibility (1/GPa) = 0.03669962
#
# Stress axis : x y z
#
# Youngs Moduli (GPa) = 82.99405 127.39934 54.48543
#
# Poissons Ratio (x) = -0.11882 0.09404
# Poissons Ratio (y) = -0.07741 -0.00093
# Poissons Ratio (z) = 0.14324 -0.00218
#
# Static dielectric constant tensor:
#      x y z
#    x 2.016680 0.000000 0.000000 
#    y 0.000000 2.244550 0.000000 
#    z 0.000000 0.000000 2.147790 
# 
# From -- ./inp_files/23087.got.cif
#   From: 2010.05.17/outbox.cif.g08.bks.cpg/sg73_12_cif.got.tgz:23087.got - 2010.06.03 17:35:07.
