data_PCOD9529592
_publ_section_title
;
Structure prediction by ZEFSAII (Michael W. Deem and Ramdas Pophale) SiO2 
 PCOD9529592
Probable space group: I B A M
;
_chemical_formula_sum "Si O2"
_cell_formula_units_Z 48
_cell_length_a 27.000000
_cell_length_b 21.000000
_cell_length_c 9.000000
_cell_angle_alpha 90.000000
_cell_angle_beta 90.000000
_cell_angle_gamma 90.000000
_cell_volume 5103.000000
_symmetry_space_group_name_H-M "I B A M"
_symmetry_group_IT_number 72
_symmetry_cell_setting 'orthorhombic'
loop_
_space_group_symop_operation_xyz
x,y,z
-x,-y,z
x,-y,1/2-z
-x,y,1/2-z
-x,-y,-z
x,y,-z
-x,y,1/2+z
x,-y,1/2+z
1/2+x,1/2+y,1/2+z
1/2-x,1/2-y,1/2+z
1/2+x,1/2-y,-z
1/2-x,1/2+y,-z
1/2-x,1/2-y,1/2-z
1/2+x,1/2+y,1/2-z
1/2-x,1/2+y,z
1/2+x,1/2-y,z
loop_
_atom_site_type_symbol
_atom_site_label
_atom_site_fract_x
_atom_site_fract_y
_atom_site_fract_z
Si Si1 0.052120 0.669724 0.680357
Si Si2 0.579024 0.695923 0.170835
Si Si3 0.369951 0.069737 0.181029
Si Si4 0.054543 0.936907 0.678894
Si Si5 0.804346 0.790311 0.332942
Si Si6 0.275966 0.851053 0.677607
O O1 0.052199 0.669200 0.500000
O O2 0.059793 0.741450 0.743717
O O3 0.093571 0.622352 0.747527
O O4 0.000000 0.647682 0.750000
O O5 0.572546 0.631409 0.263515
O O6 0.637544 0.703506 0.158343
O O7 0.558545 0.692047 0.000000
O O8 0.314422 0.094370 0.220343
O O9 0.378812 0.000000 0.250000
O O10 0.375044 0.069256 0.000000
O O11 0.053983 0.941033 0.500000
O O12 0.000000 0.937901 0.750000
O O13 0.080076 0.000000 0.750000
O O14 0.783391 0.792322 0.500000
O O15 0.778961 0.847099 0.242253
O O16 0.795606 0.718811 0.271818
O O17 0.274500 0.851166 0.500000
#
# Coordination Sequence:
#
# PCOD9529592 Si02
#       6
#    16  16  16  16  16  16
#     4  12  25  41  62  89 119 157 202 254 306 360
#     4  11  21  38  60  88 123 158 196 246 297 350
#     4  11  23  42  63  88 121 159 202 250 305 363
#     4  11  22  38  58  83 113 153 197 239 291 352
#     4   9  18  33  57  86 116 149 187 235 287 341
#     4   9  18  35  57  84 116 150 188 236 286 342
#
# _framework density 9.4062319999999993
#
# number of rings (size 3 to 8) (size 9 to 14) (size 15 to 20)
#    0.000    1.500    1.667    5.000    0.000    3.000 
#    0.000    2.500    0.000    2.000    0.000    0.000 
#    0.000    0.000    0.000    0.000    0.000    0.000 
#
# Total GULP energy -267521.835174 kJ/mol
# GULP energy per Si atom -5573.371566 kJ/mol
# Density = 0.938482 g / cm^3
# Si number density = 9.406232 Si / 1000 Ang^3
#
#
#
# Elastic Constant Matrix: (Units=GPa)
#
#
# Indices 1 2 3 4 5 6 
#
# 1 50.1719 7.9380 18.4331 0.0000 0.0000 0.0000
# 2 7.9380 113.3176 47.7806 0.0000 0.0000 0.0000
# 3 18.4331 47.7806 134.2998 0.0000 0.0000 0.0000
# 4 0.0000 0.0000 0.0000 32.0899 0.0000 0.0000
# 5 0.0000 0.0000 0.0000 0.0000 25.9446 0.0000
# 6 0.0000 0.0000 0.0000 0.0000 0.0000 -27.4662
#
#
#
# Elastic Compliance Matrix: (Units=1/GPa)
#
#
# Indices 1 2 3 4 5 6 
#
# 1 0.020999 -0.000301 -0.002775 0.000000 0.000000 0.000000
# 2 -0.000301 0.010387 -0.003654 0.000000 0.000000 0.000000
# 3 -0.002775 -0.003654 0.009127 0.000000 0.000000 0.000000
# 4 0.000000 0.000000 0.000000 0.031162 0.000000 0.000000
# 5 0.000000 0.000000 0.000000 0.000000 0.038544 0.000000
# 6 0.000000 0.000000 0.000000 0.000000 0.000000 -0.036408
#
#
# Mechanical properties :
#
#
# Convention : Reuss Voigt Hill
#
# Bulk Modulus (GPa) = 36.96549 49.56583 43.26566
# Shear Modulus (GPa) = 51.92804 21.02284 36.47544
#
# Velocity S-wave (km/s) = 5.25956 3.34652 4.40807
# Velocity P-wave (km/s) = 7.52170 6.42937 6.99689
#
# Compressibility (1/GPa) = 0.02705226
#
# Stress axis : x y z
#
# Youngs Moduli (GPa) = 47.62211 96.27851 109.56603
#
# Poissons Ratio (x) = 0.02896 0.30406
# Poissons Ratio (y) = 0.01433 0.40035
# Poissons Ratio (z) = 0.13216 0.35180
#
# Static dielectric constant tensor:
#      x y z
#    x 0.943410 0.000000 0.000000 
#    y 0.000000 1.692010 0.000000 
#    z 0.000000 0.000000 1.679310 
# 
# From -- ./inp_files/8078.got.cif
#   From: 2010.05.17/outbox.ucp.g08.bks.cvg/sg72_5_cif.got.tgz:8078.got - 2010.06.11 16:33:07.
