data_PCOD9529337
_publ_section_title
;
Structure prediction by ZEFSAII (Michael W. Deem and Ramdas Pophale) SiO2 
 PCOD9529337
Probable space group: I B A M
;
_chemical_formula_sum "Si O2"
_cell_formula_units_Z 32
_cell_length_a 6.130928
_cell_length_b 24.201026
_cell_length_c 9.454615
_cell_angle_alpha 90.000000
_cell_angle_beta 90.000000
_cell_angle_gamma 90.000000
_cell_volume 1402.826117
_symmetry_space_group_name_H-M "I B A M"
_symmetry_group_IT_number 72
_symmetry_cell_setting 'orthorhombic'
loop_
_space_group_symop_operation_xyz
x,y,z
-x,-y,z
x,-y,1/2-z
-x,y,1/2-z
-x,-y,-z
x,y,-z
-x,y,1/2+z
x,-y,1/2+z
1/2+x,1/2+y,1/2+z
1/2-x,1/2-y,1/2+z
1/2+x,1/2-y,-z
1/2-x,1/2+y,-z
1/2-x,1/2-y,1/2-z
1/2+x,1/2+y,1/2-z
1/2-x,1/2+y,z
1/2+x,1/2-y,z
loop_
_atom_site_type_symbol
_atom_site_label
_atom_site_fract_x
_atom_site_fract_y
_atom_site_fract_z
Si Si1 0.663513 0.222525 0.500000
Si Si2 0.711221 0.445867 0.661788
Si Si3 0.500000 0.848948 0.250000
O O1 0.913479 0.248370 0.500000
O O2 0.644787 0.187266 0.355781
O O3 0.783390 0.500000 0.750000
O O4 0.500000 0.428468 0.750000
O O5 0.674907 0.462005 0.500000
O O6 0.860407 0.392277 0.660239
#
# Coordination Sequence:
#
# PCOD9529337 Si02
#       3
#     8  16   8
#     4  12  30  52  77 112 151 200 266 328 382 450
#     4  11  25  43  72 111 152 196 250 307 382 469
#     4  12  27  44  78 104 150 202 253 316 392 454
#
# _framework density 22.811095000000002
#
# number of rings (size 3 to 8) (size 9 to 14) (size 15 to 20)
#    0.000    0.500    2.500    5.250   14.000    2.000 
#    0.000    0.000    0.000    0.000    0.000    0.000 
#    0.000    0.000    0.000    0.000    0.000    0.000 
#
# Total GULP energy -89119.071585 kJ/mol
# GULP energy per Si atom -5569.941974 kJ/mol
# Density = 2.275918 g / cm^3
# Si number density = 22.811095 Si / 1000 Ang^3
#
#
#
# Elastic Constant Matrix: (Units=GPa)
#
#
# Indices 1 2 3 4 5 6 
#
# 1 114.0203 43.3296 28.0803 0.0000 0.0000 0.0000
# 2 43.3296 98.6139 42.0582 0.0000 0.0000 0.0000
# 3 28.0803 42.0582 205.9732 0.0001 0.0000 0.0000
# 4 0.0000 0.0000 0.0001 38.4647 0.0000 0.0000
# 5 0.0000 0.0000 0.0000 0.0000 33.5968 0.0000
# 6 0.0000 0.0000 0.0000 0.0000 0.0000 71.0043
#
#
#
# Elastic Compliance Matrix: (Units=1/GPa)
#
#
# Indices 1 2 3 4 5 6 
#
# 1 0.010583 -0.004420 -0.000540 0.000000 0.000000 0.000000
# 2 -0.004420 0.012954 -0.002043 0.000000 0.000000 0.000000
# 3 -0.000540 -0.002043 0.005346 0.000000 0.000000 0.000000
# 4 0.000000 0.000000 0.000000 0.025998 0.000000 0.000000
# 5 0.000000 0.000000 0.000000 0.000000 0.029765 0.000000
# 6 0.000000 0.000000 0.000000 0.000000 0.000000 0.014084
#
#
# Mechanical properties :
#
#
# Convention : Reuss Voigt Hill
#
# Bulk Modulus (GPa) = 67.21577 71.72706 69.47141
# Shear Modulus (GPa) = 42.48363 48.95578 45.71971
#
# Velocity S-wave (km/s) = 4.32025 4.63767 4.48177
# Velocity P-wave (km/s) = 7.37674 7.75819 7.56987
#
# Compressibility (1/GPa) = 0.01487746
#
# Stress axis : x y z
#
# Youngs Moduli (GPa) = 94.49173 77.19887 187.06523
#
# Poissons Ratio (x) = 0.34118 0.10108
# Poissons Ratio (y) = 0.41761 0.38208
# Poissons Ratio (z) = 0.05106 0.15768
#
# Static dielectric constant tensor:
#      x y z
#    x 2.022040 0.000000 0.000000 
#    y 0.000000 1.831900 0.000000 
#    z 0.000000 0.000000 1.803480 
# 
# From -- ./inp_files/1164.got.cif
#   From: 2010.05.17/outbox.cif.g08.bks.cpg/sg72_1_cif.got.tgz:1164.got - 2010.06.03 17:03:01.
