data_PCOD9529855
_publ_section_title
;
Structure prediction by ZEFSAII (Michael W. Deem and Ramdas Pophale) SiO2 
 PCOD9529855
Probable space group: I B C A 
;
_chemical_formula_sum "Si O2"
_cell_formula_units_Z 104
_cell_length_a 20.065992
_cell_length_b 26.711142
_cell_length_c 9.131556
_cell_angle_alpha 90.000000
_cell_angle_beta 90.000000
_cell_angle_gamma 90.000000
_cell_volume 4894.382172
_symmetry_space_group_name_H-M "I B C A "
_symmetry_group_IT_number 73
_symmetry_cell_setting 'orthorhombic'
loop_
_space_group_symop_operation_xyz
x,y,z
-x,1/2-y,z
x,-y,1/2-z
1/2-x,y,-z
-x,-y,-z
x,1/2+y,-z
-x,y,1/2+z
1/2+x,-y,z
1/2+x,1/2+y,1/2+z
1/2-x,-y,1/2+z
1/2+x,1/2-y,-z
-x,1/2+y,1/2-z
1/2-x,1/2-y,1/2-z
1/2+x,y,1/2-z
1/2-x,1/2+y,z
x,1/2-y,1/2+z
loop_
_atom_site_type_symbol
_atom_site_label
_atom_site_fract_x
_atom_site_fract_y
_atom_site_fract_z
Si Si1 0.534238 0.846172 0.851763
Si Si2 0.319132 0.093382 0.916750
Si Si3 0.250000 0.761208 0.000000
Si Si4 0.917778 0.817524 0.852880
Si Si5 0.842898 0.717313 0.752675
Si Si6 0.737100 0.446269 0.329620
Si Si7 0.606185 0.553222 0.322942
O O1 0.464631 0.835987 0.776142
O O2 0.598749 0.821909 0.773439
O O3 0.548806 0.905769 0.847627
O O4 0.534240 0.816878 0.006125
O O5 0.364610 0.141565 0.904966
O O6 0.297504 0.079977 0.753658
O O7 0.250000 0.103376 0.000000
O O8 0.357329 0.051964 0.016686
O O9 0.201392 0.728795 0.106995
O O10 0.292927 0.793911 0.113695
O O11 0.879960 0.768133 0.803141
O O12 0.734920 0.500000 0.250000
O O13 0.750000 0.449346 0.500000
O O14 0.664453 0.425374 0.284444
O O15 0.586242 0.500000 0.250000
#
# Coordination Sequence:
#
# PCOD9529855 Si02
#       7
#    16  16   8  16  16  16  16
#     4  11  25  43  63  93 128 180 219 266 329 391
#     4   9  20  38  62  88 123 166 212 270 334 386
#     4  10  24  38  68 100 128 170 212 268 336 378
#     4  11  25  42  66  90 132 176 219 261 331 398
#     4  11  23  44  65  96 134 168 214 269 325 398
#     4  10  18  32  57  90 121 161 209 269 331 384
#     4   9  19  40  63  85 122 171 216 270 329 385
#
# _framework density 21.248850999999998
#
# number of rings (size 3 to 8) (size 9 to 14) (size 15 to 20)
#    0.000    1.846    1.538    2.769    3.231    6.154 
#    2.769    3.846    0.000    0.000    0.000    0.000 
#    0.000    0.000    0.000    0.000    0.000    0.000 
#
# Total GULP energy -290187.671558 kJ/mol
# GULP energy per Si atom -5580.532145 kJ/mol
# Density = 2.120049 g / cm^3
# Si number density = 21.248851 Si / 1000 Ang^3
#
#
#
# Elastic Constant Matrix: (Units=GPa)
#
#
# Indices 1 2 3 4 5 6 
#
# 1 41.6634 15.0156 22.3748 0.0000 0.0000 0.0000
# 2 15.0156 77.4532 26.2824 0.0000 0.0000 0.0000
# 3 22.3748 26.2824 149.2723 0.0000 0.0000 0.0000
# 4 0.0000 0.0000 0.0000 20.1798 0.0000 0.0000
# 5 0.0000 0.0000 0.0000 0.0000 28.8137 0.0000
# 6 0.0000 0.0000 0.0000 0.0000 0.0000 -1.0653
#
#
#
# Elastic Compliance Matrix: (Units=1/GPa)
#
#
# Indices 1 2 3 4 5 6 
#
# 1 0.027304 -0.004153 -0.003361 0.000000 0.000000 0.000000
# 2 -0.004153 0.014363 -0.001906 0.000000 0.000000 0.000000
# 3 -0.003361 -0.001906 0.007539 0.000000 0.000000 0.000000
# 4 0.000000 0.000000 0.000000 0.049554 0.000000 0.000000
# 5 0.000000 0.000000 0.000000 0.000000 0.034706 0.000000
# 6 0.000000 0.000000 0.000000 0.000000 0.000000 -0.938702
#
#
# Mechanical properties :
#
#
# Convention : Reuss Voigt Hill
#
# Bulk Modulus (GPa) = 32.93337 43.97050 38.45193
# Shear Modulus (GPa) = -6.44102 23.23338 8.39618
#
# Velocity S-wave (km/s) = -1.74293 3.31024 1.98996
# Velocity P-wave (km/s) = 3.38853 5.94544 4.83893
#
# Compressibility (1/GPa) = 0.03036434
#
# Stress axis : x y z
#
# Youngs Moduli (GPa) = 36.62505 69.62339 132.64892
#
# Poissons Ratio (x) = 0.28912 0.44590
# Poissons Ratio (y) = 0.15209 0.25289
# Poissons Ratio (z) = 0.12311 0.13273
#
# Static dielectric constant tensor:
#      x y z
#    x 1.792770 0.000000 0.000000 
#    y 0.000000 1.806180 0.000000 
#    z 0.000000 0.000000 1.862880 
# 
# From -- ./inp_files/6567.got.cif
#   From: 2010.05.17/outbox.cif.g08.bks.cpg/sg73_4_cif.got.tgz:6567.got - 2010.06.03 17:35:07.
