data_PCOD9529839
_publ_section_title
;
Structure prediction by ZEFSAII (Michael W. Deem and Ramdas Pophale) SiO2 
 PCOD9529839
Probable space group: I B C A 
;
_chemical_formula_sum "Si O2"
_cell_formula_units_Z 96
_cell_length_a 11.514379
_cell_length_b 13.674298
_cell_length_c 22.482781
_cell_angle_alpha 90.000000
_cell_angle_beta 90.000000
_cell_angle_gamma 90.000000
_cell_volume 3539.937469
_symmetry_space_group_name_H-M "I B C A "
_symmetry_group_IT_number 73
_symmetry_cell_setting 'orthorhombic'
loop_
_space_group_symop_operation_xyz
x,y,z
-x,1/2-y,z
x,-y,1/2-z
1/2-x,y,-z
-x,-y,-z
x,1/2+y,-z
-x,y,1/2+z
1/2+x,-y,z
1/2+x,1/2+y,1/2+z
1/2-x,-y,1/2+z
1/2+x,1/2-y,-z
-x,1/2+y,1/2-z
1/2-x,1/2-y,1/2-z
1/2+x,y,1/2-z
1/2-x,1/2+y,z
x,1/2-y,1/2+z
loop_
_atom_site_type_symbol
_atom_site_label
_atom_site_fract_x
_atom_site_fract_y
_atom_site_fract_z
Si Si1 0.372416 0.911296 0.110635
Si Si2 0.824154 0.000000 0.750000
Si Si3 0.171803 0.882593 0.653327
Si Si4 0.681930 0.809789 0.302671
Si Si5 0.500000 0.250000 0.527330
Si Si6 0.378560 0.633119 0.075227
Si Si7 0.111203 0.064533 0.476969
O O1 0.281091 0.860663 0.154780
O O2 0.502213 0.866105 0.112768
O O3 0.391740 0.026798 0.122736
O O4 0.337101 0.900938 0.040682
O O5 0.742842 0.941559 0.796095
O O6 0.887278 0.907376 0.719452
O O7 0.111768 0.783663 0.673303
O O8 0.268367 0.832738 0.610621
O O9 0.750000 0.750000 0.250000
O O10 0.409309 0.307378 0.484084
O O11 0.431109 0.161254 0.556669
O O12 0.338565 0.521525 0.062519
O O13 0.000000 0.000000 0.500000
#
# Coordination Sequence:
#
# PCOD9529839 Si02
#       7
#    16   8  16  16   8  16  16
#     4   9  18  33  51  75 108 142 178 231 285 327
#     4   8  18  34  48  74 108 132 164 222 280 330
#     4  10  18  32  54  76 104 140 179 224 278 342
#     4   9  17  32  56  79 103 140 181 227 284 343
#     4   8  14  30  52  72  98 136 178 226 280 320
#     4  10  19  32  53  78 104 143 191 230 273 345
#     4   8  16  30  48  74 106 139 180 230 277 330
#
# _framework density 27.119122000000001
#
# number of rings (size 3 to 8) (size 9 to 14) (size 15 to 20)
#    0.000    3.333    0.000    2.000    0.000    0.667 
#    0.000   15.000    0.000   26.000    0.000    0.000 
#    0.000    0.000    0.000    0.000    0.000    0.000 
#
# Total GULP energy -267674.818613 kJ/mol
# GULP energy per Si atom -5576.558721 kJ/mol
# Density = 2.705740 g / cm^3
# Si number density = 27.119122 Si / 1000 Ang^3
#
#
#
# Elastic Constant Matrix: (Units=GPa)
#
#
# Indices 1 2 3 4 5 6 
#
# 1 58.3003 21.4180 14.1976 0.0000 0.0000 0.0000
# 2 21.4180 303.4892 34.0765 0.0000 0.0000 0.0000
# 3 14.1976 34.0765 73.7393 0.0000 0.0000 0.0000
# 4 0.0000 0.0000 0.0000 58.6027 0.0000 0.0000
# 5 0.0000 0.0000 0.0000 0.0000 -5.9147 0.0000
# 6 0.0000 0.0000 0.0000 0.0000 0.0000 82.9074
#
#
#
# Elastic Compliance Matrix: (Units=1/GPa)
#
#
# Indices 1 2 3 4 5 6 
#
# 1 0.018248 -0.000942 -0.003078 0.000000 0.000000 0.000000
# 2 -0.000942 0.003524 -0.001447 0.000000 0.000000 0.000000
# 3 -0.003078 -0.001447 0.014823 0.000000 0.000000 0.000000
# 4 0.000000 0.000000 0.000000 0.017064 0.000000 0.000000
# 5 0.000000 0.000000 0.000000 0.000000 -0.169069 0.000000
# 6 0.000000 0.000000 0.000000 0.000000 0.000000 0.012062
#
#
# Mechanical properties :
#
#
# Convention : Reuss Voigt Hill
#
# Bulk Modulus (GPa) = 38.97089 63.87922 51.42505
# Shear Modulus (GPa) = -59.62275 51.50820 -4.05728
#
# Velocity S-wave (km/s) = -4.69396 4.36286 -1.22448
# Velocity P-wave (km/s) = 3.86991 6.99897 4.12368
#
# Compressibility (1/GPa) = 0.02566018
#
# Stress axis : x y z
#
# Youngs Moduli (GPa) = 54.79959 283.76943 67.46424
#
# Poissons Ratio (x) = 0.26737 0.20766
# Poissons Ratio (y) = 0.05163 0.09763
# Poissons Ratio (z) = 0.16868 0.41064
#
# Static dielectric constant tensor:
#      x y z
#    x 2.281270 0.000000 0.000000 
#    y 0.000000 2.142990 0.000000 
#    z 0.000000 0.000000 2.279180 
# 
# From -- ./inp_files/32139.got.cif
#   From: 2010.05.17/outbox.cif.g08.bks.cpg/sg73_17_cif.got.tgz:32139.got - 2010.06.03 17:35:07.
