data_PCOD9529324
_publ_section_title
;
Structure prediction by ZEFSAII (Michael W. Deem and Ramdas Pophale) SiO2 
 PCOD9529324
Probable space group: I B A M
;
_chemical_formula_sum "Si O2"
_cell_formula_units_Z 88
_cell_length_a 14.058608
_cell_length_b 20.305732
_cell_length_c 14.866350
_cell_angle_alpha 90.000000
_cell_angle_beta 90.000000
_cell_angle_gamma 90.000000
_cell_volume 4243.901786
_symmetry_space_group_name_H-M "I B A M"
_symmetry_group_IT_number 72
_symmetry_cell_setting 'orthorhombic'
loop_
_space_group_symop_operation_xyz
x,y,z
-x,-y,z
x,-y,1/2-z
-x,y,1/2-z
-x,-y,-z
x,y,-z
-x,y,1/2+z
x,-y,1/2+z
1/2+x,1/2+y,1/2+z
1/2-x,1/2-y,1/2+z
1/2+x,1/2-y,-z
1/2-x,1/2+y,-z
1/2-x,1/2-y,1/2-z
1/2+x,1/2+y,1/2-z
1/2-x,1/2+y,z
1/2+x,1/2-y,z
loop_
_atom_site_type_symbol
_atom_site_label
_atom_site_fract_x
_atom_site_fract_y
_atom_site_fract_z
Si Si1 0.052463 0.064428 0.654674
Si Si2 0.515323 0.667348 0.000000
Si Si3 0.625816 0.888917 0.846853
Si Si4 0.090965 0.623374 0.361010
Si Si5 0.366967 0.766652 0.000000
Si Si6 0.838001 0.284263 0.000000
Si Si7 0.247077 0.484329 0.896615
O O1 0.040020 0.124760 0.587298
O O2 0.162829 0.043350 0.658304
O O3 0.000000 0.077196 0.750000
O O4 0.000000 0.000000 0.616207
O O5 0.573818 0.734948 0.000000
O O6 0.407544 0.692874 0.000000
O O7 0.515870 0.904685 0.872240
O O8 0.616628 0.867445 0.743513
O O9 0.695970 0.950859 0.857351
O O10 0.658945 0.831299 0.913125
O O11 0.098968 0.691451 0.414322
O O12 0.167096 0.571900 0.397725
O O13 0.254279 0.761144 0.000000
O O14 0.277549 0.497335 0.000000
#
# Coordination Sequence:
#
# PCOD9529324 Si02
#       7
#    16   8  16  16   8   8  16
#     4  11  28  47  71 106 145 183 241 305 363 429
#     4  12  25  47  72  98 144 191 245 291 361 424
#     4  11  25  43  73 107 147 189 241 301 366 431
#     4  11  24  46  68 108 150 187 238 301 363 434
#     4  12  26  42  71  99 141 198 239 296 358 428
#     4  12  26  45  69 103 139 193 250 296 354 432
#     4  12  24  43  77 105 143 190 240 304 372 422
#
# _framework density 20.735634999999998
#
# number of rings (size 3 to 8) (size 9 to 14) (size 15 to 20)
#    0.000    0.545    4.545    2.455    7.636    4.364 
#    0.000    0.000    0.000    0.000    0.000    0.000 
#    0.000    0.000    0.000    0.000    0.000    0.000 
#
# Total GULP energy -246093.096710 kJ/mol
# GULP energy per Si atom -5593.024925 kJ/mol
# Density = 2.068844 g / cm^3
# Si number density = 20.735635 Si / 1000 Ang^3
#
#
#
# Elastic Constant Matrix: (Units=GPa)
#
#
# Indices 1 2 3 4 5 6 
#
# 1 103.2456 25.3096 51.1883 0.0000 0.0000 0.0000
# 2 25.3096 106.9056 53.5050 0.0001 0.0000 0.0000
# 3 51.1883 53.5050 146.2687 0.0001 0.0000 0.0000
# 4 0.0000 0.0001 0.0001 -17.5892 0.0000 0.0000
# 5 0.0000 0.0000 0.0000 0.0000 25.2678 0.0000
# 6 0.0000 0.0000 0.0000 0.0000 0.0000 39.8888
#
#
#
# Elastic Compliance Matrix: (Units=1/GPa)
#
#
# Indices 1 2 3 4 5 6 
#
# 1 0.011788 -0.000889 -0.003800 0.000000 0.000000 0.000000
# 2 -0.000889 0.011517 -0.003902 0.000000 0.000000 0.000000
# 3 -0.003800 -0.003902 0.009594 0.000000 0.000000 0.000000
# 4 0.000000 0.000000 0.000000 -0.056853 0.000000 0.000000
# 5 0.000000 0.000000 0.000000 0.000000 0.039576 0.000000
# 6 0.000000 0.000000 0.000000 0.000000 0.000000 0.025070
#
#
# Mechanical properties :
#
#
# Convention : Reuss Voigt Hill
#
# Bulk Modulus (GPa) = 63.62466 68.49176 66.05821
# Shear Modulus (GPa) = 79.22380 24.60794 51.91587
#
# Velocity S-wave (km/s) = 6.18785 3.44866 5.00913
# Velocity P-wave (km/s) = 9.04450 6.99716 8.08589
#
# Compressibility (1/GPa) = 0.01571718
#
# Stress axis : x y z
#
# Youngs Moduli (GPa) = 84.83517 86.82534 104.23222
#
# Poissons Ratio (x) = 0.07717 0.39609
# Poissons Ratio (y) = 0.07540 0.40672
# Poissons Ratio (z) = 0.32238 0.33879
#
# Static dielectric constant tensor:
#      x y z
#    x 1.746360 0.000000 0.000000 
#    y 0.000000 1.687670 0.000000 
#    z 0.000000 0.000000 1.760750 
# 
# From -- ./inp_files/21739.got.cif
#   From: 2010.05.17/outbox.cif.g08.bks.cpg/sg72_11_cif.got.tgz:21739.got - 2010.06.03 17:03:01.
