data_PCOD9529224
_publ_section_title
;
Structure prediction by ZEFSAII (Michael W. Deem and Ramdas Pophale) SiO2 
 PCOD9529224
Probable space group: I B A M
;
_chemical_formula_sum "Si O2"
_cell_formula_units_Z 88
_cell_length_a 21.553375
_cell_length_b 7.795983
_cell_length_c 28.085848
_cell_angle_alpha 90.000000
_cell_angle_beta 90.000000
_cell_angle_gamma 90.000000
_cell_volume 4719.257880
_symmetry_space_group_name_H-M "I B A M"
_symmetry_group_IT_number 72
_symmetry_cell_setting 'orthorhombic'
loop_
_space_group_symop_operation_xyz
x,y,z
-x,-y,z
x,-y,1/2-z
-x,y,1/2-z
-x,-y,-z
x,y,-z
-x,y,1/2+z
x,-y,1/2+z
1/2+x,1/2+y,1/2+z
1/2-x,1/2-y,1/2+z
1/2+x,1/2-y,-z
1/2-x,1/2+y,-z
1/2-x,1/2-y,1/2-z
1/2+x,1/2+y,1/2-z
1/2-x,1/2+y,z
1/2+x,1/2-y,z
loop_
_atom_site_type_symbol
_atom_site_label
_atom_site_fract_x
_atom_site_fract_y
_atom_site_fract_z
Si Si1 0.398827 0.689295 0.055456
Si Si2 0.171965 0.507170 0.097999
Si Si3 0.391014 0.027375 0.302984
Si Si4 0.497225 0.741814 0.303576
Si Si5 0.000000 0.000000 0.883390
Si Si6 0.199188 0.122156 0.443614
O O1 0.376065 0.873452 0.074144
O O2 0.456337 0.615332 0.084499
O O3 0.346134 0.541658 0.060265
O O4 0.414092 0.704202 0.000000
O O5 0.155708 0.506410 0.153969
O O6 0.171073 0.699848 0.076515
O O7 0.238828 0.427499 0.084866
O O8 0.431095 0.201191 0.312833
O O9 0.363060 0.000000 0.250000
O O10 0.448079 0.894866 0.302130
O O11 0.500000 0.674289 0.250000
O O12 0.469030 0.625597 0.345039
O O13 0.213843 0.146907 0.500000
#
# Coordination Sequence:
#
# PCOD9529224 Si02
#       6
#    16  16  16  16   8  16
#     4  11  24  39  58  89 126 158 198 249 302 361
#     4  12  21  39  63  85 117 157 204 252 298 348
#     4   9  19  37  58  83 116 154 194 244 305 355
#     4   9  18  34  58  85 115 153 197 244 293 360
#     4  12  20  36  58  90 122 152 194 248 308 358
#     4  11  23  39  62  87 114 158 209 246 290 358
#
# _framework density 18.646999999999998
#
# number of rings (size 3 to 8) (size 9 to 14) (size 15 to 20)
#    0.000    1.455    3.636    4.364    0.000    0.000 
#    0.000    0.909    0.000    4.364    0.000    0.000 
#    0.000    0.000    0.000    0.000    0.000    0.000 
#
# Total GULP energy -245117.560094 kJ/mol
# GULP energy per Si atom -5570.853639 kJ/mol
# Density = 1.860456 g / cm^3
# Si number density = 18.647000 Si / 1000 Ang^3
#
#
#
# Elastic Constant Matrix: (Units=GPa)
#
#
# Indices 1 2 3 4 5 6 
#
# 1 28.4647 -0.0141 32.7833 0.0000 0.0000 0.0000
# 2 -0.0141 75.8195 34.2056 0.0000 0.0000 0.0000
# 3 32.7833 34.2056 159.2211 0.0000 0.0000 0.0000
# 4 0.0000 0.0000 0.0000 35.4088 0.0000 0.0000
# 5 0.0000 0.0000 0.0000 0.0000 47.4529 0.0000
# 6 0.0000 0.0000 0.0000 0.0000 0.0000 12.3304
#
#
#
# Elastic Compliance Matrix: (Units=1/GPa)
#
#
# Indices 1 2 3 4 5 6 
#
# 1 0.047648 0.004911 -0.010866 0.000000 0.000000 0.000000
# 2 0.004911 0.015111 -0.004257 0.000000 0.000000 0.000000
# 3 -0.010866 -0.004257 0.009432 0.000000 0.000000 0.000000
# 4 0.000000 0.000000 0.000000 0.028242 0.000000 0.000000
# 5 0.000000 0.000000 0.000000 0.000000 0.021074 0.000000
# 6 0.000000 0.000000 0.000000 0.000000 0.000000 0.081100
#
#
# Mechanical properties :
#
#
# Convention : Reuss Voigt Hill
#
# Bulk Modulus (GPa) = 19.31744 44.16164 31.73954
# Shear Modulus (GPa) = 20.80851 32.14045 26.47448
#
# Velocity S-wave (km/s) = 3.34416 4.15616 3.77207
# Velocity P-wave (km/s) = 5.02924 6.83856 6.00247
#
# Compressibility (1/GPa) = 0.05176670
#
# Stress axis : x y z
#
# Youngs Moduli (GPa) = 20.98733 66.17772 106.01762
#
# Poissons Ratio (x) = -0.32499 1.15194
# Poissons Ratio (y) = -0.10307 0.45136
# Poissons Ratio (z) = 0.22804 0.28174
#
# Static dielectric constant tensor:
#      x y z
#    x 1.630350 0.000000 0.000000 
#    y 0.000000 1.651270 0.000000 
#    z 0.000000 0.000000 1.645090 
# 
# From -- ./inp_files/45268.got.cif
#   From: 2010.05.17/outbox.cif.g08.bks.cpg/sg72_23_cif.got.tgz:45268.got - 2010.06.03 17:03:01.
