data_PCOD9529515
_publ_section_title
;
Structure prediction by ZEFSAII (Michael W. Deem and Ramdas Pophale) SiO2 
 PCOD9529515
Probable space group: I B A M
;
_chemical_formula_sum "Si O2"
_cell_formula_units_Z 48
_cell_length_a 21.000000
_cell_length_b 15.000000
_cell_length_c 15.000000
_cell_angle_alpha 90.000000
_cell_angle_beta 90.000000
_cell_angle_gamma 90.000000
_cell_volume 4725.000000
_symmetry_space_group_name_H-M "I B A M"
_symmetry_group_IT_number 72
_symmetry_cell_setting 'orthorhombic'
loop_
_space_group_symop_operation_xyz
x,y,z
-x,-y,z
x,-y,1/2-z
-x,y,1/2-z
-x,-y,-z
x,y,-z
-x,y,1/2+z
x,-y,1/2+z
1/2+x,1/2+y,1/2+z
1/2-x,1/2-y,1/2+z
1/2+x,1/2-y,-z
1/2-x,1/2+y,-z
1/2-x,1/2-y,1/2-z
1/2+x,1/2+y,1/2-z
1/2-x,1/2+y,z
1/2+x,1/2-y,z
loop_
_atom_site_type_symbol
_atom_site_label
_atom_site_fract_x
_atom_site_fract_y
_atom_site_fract_z
Si Si1 0.490454 0.246346 0.108872
Si Si2 0.858192 0.760862 0.891660
Si Si3 0.062589 0.442824 0.391481
Si Si4 0.182921 0.439313 0.106248
Si Si5 0.553806 0.435627 0.396220
Si Si6 0.681948 0.465485 0.850101
O O1 0.566016 0.253381 0.131819
O O2 0.453597 0.157373 0.140495
O O3 0.453672 0.335497 0.140472
O O4 0.489520 0.240771 0.000000
O O5 0.825059 0.665441 0.862577
O O6 0.828215 0.857273 0.860050
O O7 0.854333 0.765139 0.000000
O O8 0.067680 0.438719 0.500000
O O9 0.125395 0.496419 0.360171
O O10 0.000000 0.500000 0.370302
O O11 0.249953 0.491900 0.120131
O O12 0.174331 0.431884 0.000000
O O13 0.500000 0.500000 0.355977
O O14 0.536652 0.423980 0.500000
O O15 0.621638 0.484486 0.394472
O O16 0.676252 0.500000 0.750000
#
# Coordination Sequence:
#
# PCOD9529515 Si02
#       6
#    16  16  16  16  16  16
#     4   9  16  29  56  91 119 144 180 243 306 349
#     4  10  19  37  63  88 116 153 197 247 306 351
#     4   9  15  28  55  92 120 139 180 241 301 350
#     4  10  21  37  62  90 118 154 199 249 298 358
#     4  10  19  35  60  85 110 145 199 253 294 347
#     4  12  26  40  56  82 125 164 198 240 294 366
#
# _framework density 10.15873
#
# number of rings (size 3 to 8) (size 9 to 14) (size 15 to 20)
#    0.000    2.000    3.333    1.500    0.000    2.333 
#    0.000    3.333    0.000    0.500    0.000    0.000 
#    0.000    0.000    0.000    0.000    0.000    0.000 
#
# Total GULP energy -267602.707440 kJ/mol
# GULP energy per Si atom -5575.056405 kJ/mol
# Density = 1.013561 g / cm^3
# Si number density = 10.158730 Si / 1000 Ang^3
#
#
#
# Elastic Constant Matrix: (Units=GPa)
#
#
# Indices 1 2 3 4 5 6 
#
# 1 151.6960 100.7317 -8.2502 0.0000 0.0000 0.0000
# 2 100.7317 264.1109 13.5076 0.0000 0.0000 0.0000
# 3 -8.2502 13.5076 41.0918 0.0000 0.0000 0.0000
# 4 0.0000 0.0000 0.0000 26.5189 0.0000 0.0000
# 5 0.0000 0.0000 0.0000 0.0000 -102.1533 0.0000
# 6 0.0000 0.0000 0.0000 0.0000 0.0000 41.0635
#
#
#
# Elastic Compliance Matrix: (Units=1/GPa)
#
#
# Indices 1 2 3 4 5 6 
#
# 1 0.009189 -0.003660 0.003048 0.000000 0.000000 0.000000
# 2 -0.003660 0.005309 -0.002480 0.000000 0.000000 0.000000
# 3 0.003048 -0.002480 0.025763 0.000000 0.000000 0.000000
# 4 0.000000 0.000000 0.000000 0.037709 0.000000 0.000000
# 5 0.000000 0.000000 0.000000 0.000000 -0.009789 0.000000
# 6 0.000000 0.000000 0.000000 0.000000 0.000000 0.024353
#
#
# Mechanical properties :
#
#
# Convention : Reuss Voigt Hill
#
# Bulk Modulus (GPa) = 29.34636 74.31966 51.83301
# Shear Modulus (GPa) = 45.42296 16.47980 30.95138
#
# Velocity S-wave (km/s) = 4.73341 2.85110 3.90730
# Velocity P-wave (km/s) = 6.65949 6.89180 6.77664
#
# Compressibility (1/GPa) = 0.03407577
#
# Stress axis : x y z
#
# Youngs Moduli (GPa) = 108.83126 188.35227 38.81540
#
# Poissons Ratio (x) = 0.68944 -0.11831
# Poissons Ratio (y) = 0.39836 0.09627
# Poissons Ratio (z) = -0.33172 0.46714
#
# Static dielectric constant tensor:
#      x y z
#    x 1.742620 0.000000 0.000000 
#    y 0.000000 1.759720 0.000000 
#    z 0.000000 0.000000 1.777760 
# 
# From -- ./inp_files/24132.got.cif
#   From: 2010.05.17/outbox.ucp.g08.bks.cvg/sg72_13_cif.got.tgz:24132.got - 2010.06.11 16:33:07.
