data_PCOD9529544
_publ_section_title
;
Structure prediction by ZEFSAII (Michael W. Deem and Ramdas Pophale) SiO2 
 PCOD9529544
Probable space group: I B A M
;
_chemical_formula_sum "Si O2"
_cell_formula_units_Z 58
_cell_length_a 24.000000
_cell_length_b 30.000000
_cell_length_c 9.000000
_cell_angle_alpha 90.000000
_cell_angle_beta 90.000000
_cell_angle_gamma 90.000000
_cell_volume 6480.000000
_symmetry_space_group_name_H-M "I B A M"
_symmetry_group_IT_number 72
_symmetry_cell_setting 'orthorhombic'
loop_
_space_group_symop_operation_xyz
x,y,z
-x,-y,z
x,-y,1/2-z
-x,y,1/2-z
-x,-y,-z
x,y,-z
-x,y,1/2+z
x,-y,1/2+z
1/2+x,1/2+y,1/2+z
1/2-x,1/2-y,1/2+z
1/2+x,1/2-y,-z
1/2-x,1/2+y,-z
1/2-x,1/2-y,1/2-z
1/2+x,1/2+y,1/2-z
1/2-x,1/2+y,z
1/2+x,1/2-y,z
loop_
_atom_site_type_symbol
_atom_site_label
_atom_site_fract_x
_atom_site_fract_y
_atom_site_fract_z
Si Si1 0.899440 0.073334 0.176498
Si Si2 0.753126 0.200889 0.321968
Si Si3 0.178070 0.382337 0.680164
Si Si4 0.437907 0.857982 0.180549
Si Si5 0.873448 0.833760 0.820775
Si Si6 0.500000 0.500000 0.250000
Si Si7 0.940728 0.745893 0.821985
Si Si8 0.769243 0.951504 0.680479
O O1 0.902494 0.122222 0.253270
O O2 0.835542 0.057631 0.216471
O O3 0.950696 0.038095 0.207817
O O4 0.900040 0.079599 0.000000
O O5 0.756194 0.207233 0.500000
O O6 0.750000 0.250000 0.250000
O O7 0.702181 0.167531 0.289152
O O8 0.808775 0.173297 0.277133
O O9 0.176148 0.388308 0.500000
O O10 0.115489 0.384214 0.750270
O O11 0.224128 0.416530 0.750145
O O12 0.500000 0.868057 0.250000
O O13 0.426485 0.805392 0.215926
O O14 0.439832 0.863219 0.000000
O O15 0.900971 0.786503 0.776738
O O16 0.875971 0.838078 0.000000
O O17 0.000000 0.755080 0.750000
O O18 0.944549 0.747299 0.000000
O O19 0.764434 0.951307 0.500000
O O20 0.756735 0.000000 0.750000
#
# Coordination Sequence:
#
# PCOD9529544 Si02
#       8
#    16  16  16  16  16   4  16  16
#     4  11  25  42  63  88 114 153 204 258 317 377
#     4  10  21  35  55  84 120 162 204 251 307 368
#     4  11  22  38  61  91 123 161 205 252 310 371
#     4  10  20  37  61  89 125 164 206 251 297 359
#     4  10  21  38  56  79 117 158 198 252 311 364
#     4  12  26  48  64  90 122 156 210 274 334 388
#     4   9  19  34  53  78 113 158 204 249 299 355
#     4  11  23  42  66  92 121 157 202 255 314 375
#
# _framework density 8.9506169999999994
#
# number of rings (size 3 to 8) (size 9 to 14) (size 15 to 20)
#    0.000    1.655    2.069    2.276    0.966    5.517 
#    0.000    0.000    0.000    0.414    0.000    2.897 
#    0.000    0.000    0.000    0.000    0.000    0.000 
#
# Total GULP energy -322979.660605 kJ/mol
# GULP energy per Si atom -5568.614838 kJ/mol
# Density = 0.893025 g / cm^3
# Si number density = 8.950617 Si / 1000 Ang^3
#
#
#
# Elastic Constant Matrix: (Units=GPa)
#
#
# Indices 1 2 3 4 5 6 
#
# 1 146.6484 43.3831 53.1455 0.0000 0.0000 0.0000
# 2 43.3831 93.3747 37.8971 0.0000 0.0000 0.0000
# 3 53.1455 37.8971 56.8885 0.0000 0.0000 0.0000
# 4 0.0000 0.0000 0.0000 29.2566 0.0000 0.0000
# 5 0.0000 0.0000 0.0000 0.0000 30.9463 0.0000
# 6 0.0000 0.0000 0.0000 0.0000 0.0000 44.8250
#
#
#
# Elastic Compliance Matrix: (Units=1/GPa)
#
#
# Indices 1 2 3 4 5 6 
#
# 1 0.010410 -0.001219 -0.008912 0.000000 0.000000 0.000000
# 2 -0.001219 0.014821 -0.008734 0.000000 0.000000 0.000000
# 3 -0.008912 -0.008734 0.031723 0.000000 0.000000 0.000000
# 4 0.000000 0.000000 0.000000 0.034180 0.000000 0.000000
# 5 0.000000 0.000000 0.000000 0.000000 0.032314 0.000000
# 6 0.000000 0.000000 0.000000 0.000000 0.000000 0.022309
#
#
# Mechanical properties :
#
#
# Convention : Reuss Voigt Hill
#
# Bulk Modulus (GPa) = 52.02515 62.86256 57.44385
# Shear Modulus (GPa) = 26.33030 31.83798 29.08414
#
# Velocity S-wave (km/s) = 3.83935 4.22184 4.03513
# Velocity P-wave (km/s) = 6.98423 7.67840 7.33953
#
# Compressibility (1/GPa) = 0.01922147
#
# Stress axis : x y z
#
# Youngs Moduli (GPa) = 96.06513 67.47256 31.52319
#
# Poissons Ratio (x) = 0.08226 0.28095
# Poissons Ratio (y) = 0.11712 0.27533
# Poissons Ratio (z) = 0.85618 0.58931
#
# Static dielectric constant tensor:
#      x y z
#    x 1.635130 0.000000 0.000000 
#    y 0.000000 1.615970 0.000000 
#    z 0.000000 0.000000 1.613690 
# 
# From -- ./inp_files/7563.got.cif
#   From: 2010.05.17/outbox.ucp.g08.bks.cvg/sg72_4_cif.got.tgz:7563.got - 2010.06.11 16:33:07.
