data_PCOD9529231
_publ_section_title
;
Structure prediction by ZEFSAII (Michael W. Deem and Ramdas Pophale) SiO2 
 PCOD9529231
Probable space group: I B A M
;
_chemical_formula_sum "Si O2"
_cell_formula_units_Z 68
_cell_length_a 29.050587
_cell_length_b 7.174036
_cell_length_c 14.265021
_cell_angle_alpha 90.000000
_cell_angle_beta 90.000000
_cell_angle_gamma 90.000000
_cell_volume 2972.972413
_symmetry_space_group_name_H-M "I B A M"
_symmetry_group_IT_number 72
_symmetry_cell_setting 'orthorhombic'
loop_
_space_group_symop_operation_xyz
x,y,z
-x,-y,z
x,-y,1/2-z
-x,y,1/2-z
-x,-y,-z
x,y,-z
-x,y,1/2+z
x,-y,1/2+z
1/2+x,1/2+y,1/2+z
1/2-x,1/2-y,1/2+z
1/2+x,1/2-y,-z
1/2-x,1/2+y,-z
1/2-x,1/2-y,1/2-z
1/2+x,1/2+y,1/2-z
1/2-x,1/2+y,z
1/2+x,1/2-y,z
loop_
_atom_site_type_symbol
_atom_site_label
_atom_site_fract_x
_atom_site_fract_y
_atom_site_fract_z
Si Si1 0.299255 0.866210 0.161012
Si Si2 0.500000 0.500000 0.500000
Si Si3 0.301099 0.470676 0.894399
Si Si4 0.126058 0.362248 0.605740
Si Si5 0.043242 0.182565 0.310435
O O1 0.305181 0.646675 0.174045
O O2 0.294150 0.000000 0.250000
O O3 0.250623 0.890931 0.109138
O O4 0.344830 0.949412 0.114675
O O5 0.527100 0.384290 0.585896
O O6 0.337175 0.305280 0.881052
O O7 0.308790 0.546237 0.000000
O O8 0.108576 0.352921 0.500000
O O9 0.084693 0.325487 0.676214
O O10 0.000000 0.255707 0.250000
O O11 0.058522 0.000000 0.250000
#
# Coordination Sequence:
#
# PCOD9529231 Si02
#       5
#    16   4  16  16  16
#     4  12  25  38  60  93 132 171 213 266 309 380
#     4   8  14  36  56  94 118 148 214 266 332 374
#     4  11  23  40  61  88 127 175 216 255 310 381
#     4  11  23  39  67  93 128 175 215 260 326 391
#     4   9  19  34  63  93 124 160 217 279 322 389
#
# _framework density 22.872731000000002
#
# number of rings (size 3 to 8) (size 9 to 14) (size 15 to 20)
#    0.000    1.647    3.529    2.824    3.294    0.000 
#    0.000    0.000    0.000    2.118    0.000    3.294 
#    0.000    0.000    0.000    0.000    0.000    0.000 
#
# Total GULP energy -189512.365752 kJ/mol
# GULP energy per Si atom -5573.893110 kJ/mol
# Density = 2.282067 g / cm^3
# Si number density = 22.872731 Si / 1000 Ang^3
#
#
#
# Elastic Constant Matrix: (Units=GPa)
#
#
# Indices 1 2 3 4 5 6 
#
# 1 133.0960 39.9632 29.2382 0.0000 0.0000 0.0000
# 2 39.9632 122.9261 16.1218 0.0000 0.0000 0.0000
# 3 29.2382 16.1218 134.7795 0.0000 0.0000 0.0000
# 4 0.0000 0.0000 0.0000 26.7895 0.0000 0.0000
# 5 0.0000 0.0000 0.0000 0.0000 30.0593 0.0000
# 6 0.0000 0.0000 0.0000 0.0000 0.0000 9.8658
#
#
#
# Elastic Compliance Matrix: (Units=1/GPa)
#
#
# Indices 1 2 3 4 5 6 
#
# 1 0.008638 -0.002603 -0.001563 0.000000 0.000000 0.000000
# 2 -0.002603 0.009049 -0.000518 0.000000 0.000000 0.000000
# 3 -0.001563 -0.000518 0.007820 0.000000 0.000000 0.000000
# 4 0.000000 0.000000 0.000000 0.037328 0.000000 0.000000
# 5 0.000000 0.000000 0.000000 0.000000 0.033268 0.000000
# 6 0.000000 0.000000 0.000000 0.000000 0.000000 0.101360
#
#
# Mechanical properties :
#
#
# Convention : Reuss Voigt Hill
#
# Bulk Modulus (GPa) = 61.95489 62.38309 62.16899
# Shear Modulus (GPa) = 23.56144 33.70815 28.63480
#
# Velocity S-wave (km/s) = 3.21302 3.84308 3.54208
# Velocity P-wave (km/s) = 6.39611 6.85752 6.63083
#
# Compressibility (1/GPa) = 0.01614078
#
# Stress axis : x y z
#
# Youngs Moduli (GPa) = 115.76330 110.50673 127.87050
#
# Poissons Ratio (x) = 0.28769 0.19980
# Poissons Ratio (y) = 0.30138 0.06619
# Poissons Ratio (z) = 0.18088 0.05721
#
# Static dielectric constant tensor:
#      x y z
#    x 1.854660 0.000000 0.000000 
#    y 0.000000 1.833020 0.000000 
#    z 0.000000 0.000000 1.754960 
# 
# From -- ./inp_files/25664.got.cif
#   From: 2010.05.17/outbox.cif.g08.bks.cpg/sg72_13_cif.got.tgz:25664.got - 2010.06.03 17:03:01.
