data_PCOD9529986
_publ_section_title
;
Structure prediction by ZEFSAII (Michael W. Deem and Ramdas Pophale) SiO2 
 PCOD9529986
Probable space group: I B C A 
;
_chemical_formula_sum "Si O2"
_cell_formula_units_Z 104
_cell_length_a 25.030379
_cell_length_b 17.325562
_cell_length_c 13.012610
_cell_angle_alpha 90.000000
_cell_angle_beta 90.000000
_cell_angle_gamma 90.000000
_cell_volume 5643.118503
_symmetry_space_group_name_H-M "I B C A "
_symmetry_group_IT_number 73
_symmetry_cell_setting 'orthorhombic'
loop_
_space_group_symop_operation_xyz
x,y,z
-x,1/2-y,z
x,-y,1/2-z
1/2-x,y,-z
-x,-y,-z
x,1/2+y,-z
-x,y,1/2+z
1/2+x,-y,z
1/2+x,1/2+y,1/2+z
1/2-x,-y,1/2+z
1/2+x,1/2-y,-z
-x,1/2+y,1/2-z
1/2-x,1/2-y,1/2-z
1/2+x,y,1/2-z
1/2-x,1/2+y,z
x,1/2-y,1/2+z
loop_
_atom_site_type_symbol
_atom_site_label
_atom_site_fract_x
_atom_site_fract_y
_atom_site_fract_z
Si Si1 0.250000 0.401867 0.000000
Si Si2 0.973798 0.043482 0.350119
Si Si3 0.187452 0.348190 0.504029
Si Si4 0.429661 0.422201 0.018375
Si Si5 0.148438 0.688210 0.415611
Si Si6 0.859001 0.909653 0.211791
Si Si7 0.672801 0.498596 0.628871
O O1 0.200524 0.351723 0.035849
O O2 0.274356 0.453571 0.090890
O O3 0.922105 0.089795 0.313259
O O4 0.020512 0.089578 0.406328
O O5 0.996218 0.000000 0.250000
O O6 0.950180 0.980618 0.430193
O O7 0.250000 0.326942 0.500000
O O8 0.154298 0.276525 0.550158
O O9 0.170401 0.382614 0.392495
O O10 0.179064 0.416918 0.583487
O O11 0.380084 0.461124 0.078471
O O12 0.404885 0.347385 0.965418
O O13 0.150337 0.654679 0.299542
O O14 0.847147 0.000000 0.250000
O O15 0.668597 0.500000 0.750000
#
# Coordination Sequence:
#
# PCOD9529986 Si02
#       7
#     8  16  16  16  16  16  16
#     4  10  22  38  60  88 124 174 230 258 326 386
#     4  10  18  37  70  99 116 168 227 272 317 379
#     4  12  26  41  62  99 138 175 217 272 334 397
#     4  10  20  38  66  93 128 162 225 274 316 390
#     4  11  23  41  62  96 132 175 208 279 333 390
#     4  11  22  44  71  92 127 181 232 261 331 408
#     4  11  23  38  61  94 127 169 220 278 316 388
#
# _framework density 18.429525999999999
#
# number of rings (size 3 to 8) (size 9 to 14) (size 15 to 20)
#    0.000    1.231    6.154    1.385    2.154    3.077 
#    0.000    0.769    0.000    3.692    0.000    0.000 
#    0.000    0.000    0.000    0.000    0.000    0.000 
#
# Total GULP energy -290029.238158 kJ/mol
# GULP energy per Si atom -5577.485349 kJ/mol
# Density = 1.838758 g / cm^3
# Si number density = 18.429526 Si / 1000 Ang^3
#
#
#
# Elastic Constant Matrix: (Units=GPa)
#
#
# Indices 1 2 3 4 5 6 
#
# 1 58.1084 4.5246 8.6404 0.0000 0.0000 0.0000
# 2 4.5246 67.7682 21.4499 0.0000 0.0000 0.0000
# 3 8.6404 21.4499 121.3977 0.0000 0.0000 0.0000
# 4 0.0000 0.0000 0.0000 20.0154 0.0000 0.0000
# 5 0.0000 0.0000 0.0000 0.0000 89.2333 0.0000
# 6 0.0000 0.0000 0.0000 0.0000 0.0000 14.9510
#
#
#
# Elastic Compliance Matrix: (Units=1/GPa)
#
#
# Indices 1 2 3 4 5 6 
#
# 1 0.017436 -0.000817 -0.001097 0.000000 0.000000 0.000000
# 2 -0.000817 0.015669 -0.002710 0.000000 0.000000 0.000000
# 3 -0.001097 -0.002710 0.008794 0.000000 0.000000 0.000000
# 4 0.000000 0.000000 0.000000 0.049961 0.000000 0.000000
# 5 0.000000 0.000000 0.000000 0.000000 0.011207 0.000000
# 6 0.000000 0.000000 0.000000 0.000000 0.000000 0.066885
#
#
# Mechanical properties :
#
#
# Convention : Reuss Voigt Hill
#
# Bulk Modulus (GPa) = 30.62707 35.16711 32.89709
# Shear Modulus (GPa) = 26.30422 39.01724 32.66073
#
# Velocity S-wave (km/s) = 3.78204 4.60619 4.21431
# Velocity P-wave (km/s) = 5.97715 6.88569 6.44744
#
# Compressibility (1/GPa) = 0.03265086
#
# Stress axis : x y z
#
# Youngs Moduli (GPa) = 57.35294 63.82191 113.70958
#
# Poissons Ratio (x) = 0.05214 0.12470
# Poissons Ratio (y) = 0.04686 0.30819
# Poissons Ratio (z) = 0.06290 0.17298
#
# Static dielectric constant tensor:
#      x y z
#    x 1.636020 0.000000 0.000000 
#    y 0.000000 1.639740 0.000000 
#    z 0.000000 0.000000 1.651010 
# 
# From -- ./inp_files/14330.got.cif
#   From: 2010.05.17/outbox.cif.g08.bks.cpg/sg73_8_cif.got.tgz:14330.got - 2010.06.03 17:35:07.
