data_PCOD9529365
_publ_section_title
;
Structure prediction by ZEFSAII (Michael W. Deem and Ramdas Pophale) SiO2 
 PCOD9529365
Probable space group: I B A M
;
_chemical_formula_sum "Si O2"
_cell_formula_units_Z 72
_cell_length_a 25.430693
_cell_length_b 8.662991
_cell_length_c 14.437057
_cell_angle_alpha 90.000000
_cell_angle_beta 90.000000
_cell_angle_gamma 90.000000
_cell_volume 3180.568324
_symmetry_space_group_name_H-M "I B A M"
_symmetry_group_IT_number 72
_symmetry_cell_setting 'orthorhombic'
loop_
_space_group_symop_operation_xyz
x,y,z
-x,-y,z
x,-y,1/2-z
-x,y,1/2-z
-x,-y,-z
x,y,-z
-x,y,1/2+z
x,-y,1/2+z
1/2+x,1/2+y,1/2+z
1/2-x,1/2-y,1/2+z
1/2+x,1/2-y,-z
1/2-x,1/2+y,-z
1/2-x,1/2-y,1/2-z
1/2+x,1/2+y,1/2-z
1/2-x,1/2+y,z
1/2+x,1/2-y,z
loop_
_atom_site_type_symbol
_atom_site_label
_atom_site_fract_x
_atom_site_fract_y
_atom_site_fract_z
Si Si1 0.199838 0.830473 0.794837
Si Si2 0.899251 0.371960 0.821603
Si Si3 0.854228 0.543431 0.000000
Si Si4 0.944012 0.942874 0.355179
Si Si5 0.229009 0.920223 0.000000
Si Si6 0.869506 0.102446 0.500000
O O1 0.250000 0.750000 0.750000
O O2 0.148418 0.727473 0.776700
O O3 0.211141 0.838600 0.905001
O O4 0.194576 0.000000 0.750000
O O5 0.919131 0.500000 0.750000
O O6 0.874763 0.456780 0.909615
O O7 0.940020 0.241909 0.854109
O O8 0.877235 0.716115 0.000000
O O9 0.790858 0.549817 0.000000
O O10 0.940088 0.000000 0.250000
O O11 0.896990 0.017640 0.413579
O O12 0.000000 0.000000 0.391810
O O13 0.192946 0.073763 0.000000
#
# Coordination Sequence:
#
# PCOD9529365 Si02
#       6
#    16  16   8  16   8   8
#     4  12  26  43  68 102 149 203 251 301 363 454
#     4  12  25  45  69 108 150 183 245 311 369 440
#     4  12  28  43  67 107 149 195 244 300 367 437
#     4  11  25  50  78 103 137 193 249 306 391 455
#     4  12  27  41  70 101 152 204 254 291 370 446
#     4  12  26  46  74 102 146 194 248 309 368 451
#
# _framework density 22.637463
#
# number of rings (size 3 to 8) (size 9 to 14) (size 15 to 20)
#    0.000    0.222    2.222    7.000    9.333    0.000 
#    0.000    8.889    0.000    0.000    0.000    0.000 
#    0.000    0.000    0.000    0.000    0.000    0.000 
#
# Total GULP energy -201836.532195 kJ/mol
# GULP energy per Si atom -5606.570339 kJ/mol
# Density = 2.258594 g / cm^3
# Si number density = 22.637463 Si / 1000 Ang^3
#
#
#
# Elastic Constant Matrix: (Units=GPa)
#
#
# Indices 1 2 3 4 5 6 
#
# 1 99.8088 52.0608 25.4900 0.0000 0.0000 0.0000
# 2 52.0608 192.0119 46.5750 0.0000 0.0000 0.0000
# 3 25.4900 46.5750 117.3609 0.0000 0.0000 0.0000
# 4 0.0000 0.0000 0.0000 40.7025 0.0000 0.0000
# 5 0.0000 0.0000 0.0000 0.0000 27.7132 0.0000
# 6 0.0000 0.0000 0.0000 0.0000 0.0000 41.1211
#
#
#
# Elastic Compliance Matrix: (Units=1/GPa)
#
#
# Indices 1 2 3 4 5 6 
#
# 1 0.011886 -0.002873 -0.001441 0.000000 0.000000 0.000000
# 2 -0.002873 0.006457 -0.001939 0.000000 0.000000 0.000000
# 3 -0.001441 -0.001939 0.009603 0.000000 0.000000 0.000000
# 4 0.000000 0.000000 0.000000 0.024569 0.000000 0.000000
# 5 0.000000 0.000000 0.000000 0.000000 0.036084 0.000000
# 6 0.000000 0.000000 0.000000 0.000000 0.000000 0.024318
#
#
# Mechanical properties :
#
#
# Convention : Reuss Voigt Hill
#
# Bulk Modulus (GPa) = 64.76571 73.04813 68.90692
# Shear Modulus (GPa) = 38.29373 40.91107 39.60240
#
# Velocity S-wave (km/s) = 4.11738 4.25576 4.18714
# Velocity P-wave (km/s) = 7.16071 7.51581 7.34041
#
# Compressibility (1/GPa) = 0.01544027
#
# Stress axis : x y z
#
# Youngs Moduli (GPa) = 84.13362 154.86570 104.13308
#
# Poissons Ratio (x) = 0.44493 0.15009
# Poissons Ratio (y) = 0.24172 0.20187
# Poissons Ratio (z) = 0.12127 0.30022
#
# Static dielectric constant tensor:
#      x y z
#    x 1.830630 0.000000 0.000000 
#    y 0.000000 1.826480 0.000000 
#    z 0.000000 0.000000 1.834110 
# 
# From -- ./inp_files/25736.got.cif
#   From: 2010.05.17/outbox.cif.g08.bks.cpg/sg72_13_cif.got.tgz:25736.got - 2010.06.03 17:03:01.
