data_PCOD9529546
_publ_section_title
;
Structure prediction by ZEFSAII (Michael W. Deem and Ramdas Pophale) SiO2 
 PCOD9529546
Probable space group: I B A M
;
_chemical_formula_sum "Si O2"
_cell_formula_units_Z 48
_cell_length_a 9.000000
_cell_length_b 27.000000
_cell_length_c 21.000000
_cell_angle_alpha 90.000000
_cell_angle_beta 90.000000
_cell_angle_gamma 90.000000
_cell_volume 5103.000000
_symmetry_space_group_name_H-M "I B A M"
_symmetry_group_IT_number 72
_symmetry_cell_setting 'orthorhombic'
loop_
_space_group_symop_operation_xyz
x,y,z
-x,-y,z
x,-y,1/2-z
-x,y,1/2-z
-x,-y,-z
x,y,-z
-x,y,1/2+z
x,-y,1/2+z
1/2+x,1/2+y,1/2+z
1/2-x,1/2-y,1/2+z
1/2+x,1/2-y,-z
1/2-x,1/2+y,-z
1/2-x,1/2-y,1/2-z
1/2+x,1/2+y,1/2-z
1/2-x,1/2+y,z
1/2+x,1/2-y,z
loop_
_atom_site_type_symbol
_atom_site_label
_atom_site_fract_x
_atom_site_fract_y
_atom_site_fract_z
Si Si1 0.521893 0.866507 0.678920
Si Si2 0.766449 0.448952 0.173634
Si Si3 0.558206 0.692603 0.424094
Si Si4 0.101632 0.292156 0.577801
Si Si5 0.779519 0.058096 0.183621
Si Si6 0.018143 0.922016 0.422718
O O1 0.500000 0.843660 0.750000
O O2 0.401185 0.910766 0.676144
O O3 0.493769 0.830068 0.620012
O O4 0.679647 0.893553 0.674034
O O5 0.676291 0.441047 0.240889
O O6 0.809741 0.506562 0.175880
O O7 0.673347 0.438153 0.109573
O O8 0.566961 0.697293 0.500000
O O9 0.727441 0.699948 0.402234
O O10 0.451155 0.736972 0.404283
O O11 0.505884 0.637088 0.412140
O O12 0.087509 0.299130 0.500000
O O13 0.899082 0.055279 0.126648
O O14 0.006955 0.932053 0.500000
#
# Coordination Sequence:
#
# PCOD9529546 Si02
#       6
#    16  16  16  16  16  16
#     4  10  21  38  59  85 115 146 189 238 283 326
#     4  10  20  40  59  79 114 154 193 226 277 339
#     4   9  20  36  58  82 109 147 187 227 278 338
#     4  10  20  38  60  81 109 149 190 230 279 341
#     4  10  22  36  59  85 111 153 192 228 275 341
#     4  11  22  37  57  86 117 145 185 239 284 327
#
# _framework density 9.4062319999999993
#
# number of rings (size 3 to 8) (size 9 to 14) (size 15 to 20)
#    0.000    2.000    1.667    1.500    2.333    5.333 
#    0.000    2.500    0.000    3.000    0.000    0.000 
#    0.000    0.000    0.000    0.000    0.000    0.000 
#
# Total GULP energy -267326.483873 kJ/mol
# GULP energy per Si atom -5569.301747 kJ/mol
# Density = 0.938482 g / cm^3
# Si number density = 9.406232 Si / 1000 Ang^3
#
#
#
# Elastic Constant Matrix: (Units=GPa)
#
#
# Indices 1 2 3 4 5 6 
#
# 1 29.1915 -5.5490 12.0841 0.0000 0.0000 0.0000
# 2 -5.5490 72.9668 11.6570 0.0000 0.0000 0.0000
# 3 12.0841 11.6570 102.1857 0.0000 0.0000 0.0000
# 4 0.0000 0.0000 0.0000 24.3050 0.0000 0.0000
# 5 0.0000 0.0000 0.0000 0.0000 24.2067 0.0000
# 6 0.0000 0.0000 0.0000 0.0000 0.0000 27.1841
#
#
#
# Elastic Compliance Matrix: (Units=1/GPa)
#
#
# Indices 1 2 3 4 5 6 
#
# 1 0.036910 0.003569 -0.004772 0.000000 0.000000 0.000000
# 2 0.003569 0.014304 -0.002054 0.000000 0.000000 0.000000
# 3 -0.004772 -0.002054 0.010585 0.000000 0.000000 0.000000
# 4 0.000000 0.000000 0.000000 0.041144 0.000000 0.000000
# 5 0.000000 0.000000 0.000000 0.000000 0.041311 0.000000
# 6 0.000000 0.000000 0.000000 0.000000 0.000000 0.036786
#
#
# Mechanical properties :
#
#
# Convention : Reuss Voigt Hill
#
# Bulk Modulus (GPa) = 18.08762 26.74759 22.41760
# Shear Modulus (GPa) = 24.27388 27.54928 25.91158
#
# Velocity S-wave (km/s) = 3.59598 3.83092 3.71531
# Velocity P-wave (km/s) = 5.18431 5.81522 5.50880
#
# Compressibility (1/GPa) = 0.05528643
#
# Stress axis : x y z
#
# Youngs Moduli (GPa) = 27.09256 69.90842 94.47570
#
# Poissons Ratio (x) = -0.24953 0.45085
# Poissons Ratio (y) = -0.09670 0.19404
# Poissons Ratio (z) = 0.12929 0.14359
#
# Static dielectric constant tensor:
#      x y z
#    x 1.696160 0.000000 0.000000 
#    y 0.000000 1.679510 0.000000 
#    z 0.000000 0.000000 1.637600 
# 
# From -- ./inp_files/36015.got.cif
#   From: 2010.05.17/outbox.ucp.g08.bks.cvg/sg72_19_cif.got.tgz:36015.got - 2010.06.11 16:33:07.
