data_PCOD9529209
_publ_section_title
;
Structure prediction by ZEFSAII (Michael W. Deem and Ramdas Pophale) SiO2 
 PCOD9529209
Probable space group: I B A M
;
_chemical_formula_sum "Si O2"
_cell_formula_units_Z 68
_cell_length_a 20.137570
_cell_length_b 9.881368
_cell_length_c 14.838056
_cell_angle_alpha 90.000000
_cell_angle_beta 90.000000
_cell_angle_gamma 90.000000
_cell_volume 2952.576388
_symmetry_space_group_name_H-M "I B A M"
_symmetry_group_IT_number 72
_symmetry_cell_setting 'orthorhombic'
loop_
_space_group_symop_operation_xyz
x,y,z
-x,-y,z
x,-y,1/2-z
-x,y,1/2-z
-x,-y,-z
x,y,-z
-x,y,1/2+z
x,-y,1/2+z
1/2+x,1/2+y,1/2+z
1/2-x,1/2-y,1/2+z
1/2+x,1/2-y,-z
1/2-x,1/2+y,-z
1/2-x,1/2-y,1/2-z
1/2+x,1/2+y,1/2-z
1/2-x,1/2+y,z
1/2+x,1/2-y,z
loop_
_atom_site_type_symbol
_atom_site_label
_atom_site_fract_x
_atom_site_fract_y
_atom_site_fract_z
Si Si1 0.788957 0.134014 0.306067
Si Si2 0.155285 0.559021 0.852573
Si Si3 0.905708 0.284759 0.401564
Si Si4 0.000000 0.000000 0.250000
Si Si5 0.446962 0.294025 0.107876
O O1 0.750000 0.250000 0.250000
O O2 0.731876 0.087787 0.376691
O O3 0.855762 0.199305 0.341564
O O4 0.803367 0.000000 0.250000
O O5 0.154946 0.500000 0.750000
O O6 0.120932 0.436858 0.904186
O O7 0.112583 0.693838 0.866372
O O8 0.902332 0.221008 0.500000
O O9 0.982788 0.282965 0.376409
O O10 0.954677 0.085062 0.179612
O O11 0.442301 0.329125 0.000000
#
# Coordination Sequence:
#
# PCOD9529209 Si02
#       5
#    16  16  16   4  16
#     4  11  23  44  69  99 142 185 236 288 348 427
#     4  11  22  44  73 101 140 186 239 294 361 430
#     4  11  24  43  68 104 142 180 232 298 359 423
#     4  12  26  44  70  98 148 184 244 282 372 430
#     4  11  26  45  70 105 144 187 244 304 359 434
#
# _framework density 23.030733999999999
#
# number of rings (size 3 to 8) (size 9 to 14) (size 15 to 20)
#    0.000    0.941    4.706    3.176    1.647    4.706 
#    0.000    0.000    0.000    0.000    0.000    0.000 
#    0.000    0.000    0.000    0.000    0.000    0.000 
#
# Total GULP energy -190077.156477 kJ/mol
# GULP energy per Si atom -5590.504602 kJ/mol
# Density = 2.297831 g / cm^3
# Si number density = 23.030734 Si / 1000 Ang^3
#
#
#
# Elastic Constant Matrix: (Units=GPa)
#
#
# Indices 1 2 3 4 5 6 
#
# 1 106.5326 20.8674 21.9377 0.0000 0.0000 0.0000
# 2 20.8674 124.4070 32.6400 0.0000 0.0000 0.0000
# 3 21.9377 32.6400 103.6100 0.0000 0.0000 0.0000
# 4 0.0000 0.0000 0.0000 16.2430 0.0000 0.0000
# 5 0.0000 0.0000 0.0000 0.0000 18.2824 0.0000
# 6 0.0000 0.0000 0.0000 0.0000 0.0000 48.7612
#
#
#
# Elastic Compliance Matrix: (Units=1/GPa)
#
#
# Indices 1 2 3 4 5 6 
#
# 1 0.009982 -0.001221 -0.001729 0.000000 0.000000 0.000000
# 2 -0.001221 0.008912 -0.002549 0.000000 0.000000 0.000000
# 3 -0.001729 -0.002549 0.010821 0.000000 0.000000 0.000000
# 4 0.000000 0.000000 0.000000 0.061565 0.000000 0.000000
# 5 0.000000 0.000000 0.000000 0.000000 0.054698 0.000000
# 6 0.000000 0.000000 0.000000 0.000000 0.000000 0.020508
#
#
# Mechanical properties :
#
#
# Convention : Reuss Voigt Hill
#
# Bulk Modulus (GPa) = 53.42734 53.93776 53.68255
# Shear Modulus (GPa) = 27.21517 33.93094 30.57306
#
# Velocity S-wave (km/s) = 3.44130 3.84251 3.64743
# Velocity P-wave (km/s) = 6.24810 6.56942 6.41077
#
# Compressibility (1/GPa) = 0.01871701
#
# Stress axis : x y z
#
# Youngs Moduli (GPa) = 100.18094 112.21276 92.41594
#
# Poissons Ratio (x) = 0.13698 0.15978
# Poissons Ratio (y) = 0.12229 0.23556
# Poissons Ratio (z) = 0.17321 0.28602
#
# Static dielectric constant tensor:
#      x y z
#    x 1.858250 0.000000 0.000000 
#    y 0.000000 1.860140 0.000000 
#    z 0.000000 0.000000 2.003690 
# 
# From -- ./inp_files/32306.got.cif
#   From: 2010.05.17/outbox.cif.g08.bks.cpg/sg72_17_cif.got.tgz:32306.got - 2010.06.03 17:03:01.
