data_PCOD9529286
_publ_section_title
;
Structure prediction by ZEFSAII (Michael W. Deem and Ramdas Pophale) SiO2 
 PCOD9529286
Probable space group: I B A M
;
_chemical_formula_sum "Si O2"
_cell_formula_units_Z 56
_cell_length_a 5.054537
_cell_length_b 32.328346
_cell_length_c 14.934227
_cell_angle_alpha 90.000000
_cell_angle_beta 90.000000
_cell_angle_gamma 90.000000
_cell_volume 2440.324690
_symmetry_space_group_name_H-M "I B A M"
_symmetry_group_IT_number 72
_symmetry_cell_setting 'orthorhombic'
loop_
_space_group_symop_operation_xyz
x,y,z
-x,-y,z
x,-y,1/2-z
-x,y,1/2-z
-x,-y,-z
x,y,-z
-x,y,1/2+z
x,-y,1/2+z
1/2+x,1/2+y,1/2+z
1/2-x,1/2-y,1/2+z
1/2+x,1/2-y,-z
1/2-x,1/2+y,-z
1/2-x,1/2-y,1/2-z
1/2+x,1/2+y,1/2-z
1/2-x,1/2+y,z
1/2+x,1/2-y,z
loop_
_atom_site_type_symbol
_atom_site_label
_atom_site_fract_x
_atom_site_fract_y
_atom_site_fract_z
Si Si1 0.010701 0.047586 0.857516
Si Si2 0.732659 0.775280 0.500000
Si Si3 0.520178 0.897499 0.401079
Si Si4 0.232393 0.316889 0.808419
O O1 0.263313 0.075362 0.880617
O O2 0.000000 0.046939 0.750000
O O3 0.759849 0.070616 0.896779
O O4 0.000000 0.000000 0.887985
O O5 0.422124 0.764752 0.500000
O O6 0.794443 0.797075 0.405184
O O7 0.489620 0.879142 0.500000
O O8 0.601455 0.860764 0.335509
O O9 0.500000 0.320907 0.750000
O O10 0.000000 0.294715 0.750000
#
# Coordination Sequence:
#
# PCOD9529286 Si02
#       4
#    16   8  16  16
#     4  11  24  41  63  94 135 183 237 294 353 417
#     4  12  28  50  76 112 151 184 240 298 361 446
#     4  12  24  42  67  98 137 181 239 295 347 418
#     4  12  26  47  76 107 146 194 241 295 364 433
#
# _framework density 22.947766000000001
#
# number of rings (size 3 to 8) (size 9 to 14) (size 15 to 20)
#    0.000    0.286    1.429    8.571    0.000    9.143 
#    0.000    0.000    0.000    0.000    0.000    0.000 
#    0.000    0.000    0.000    0.000    0.000    0.000 
#
# Total GULP energy -156717.774484 kJ/mol
# GULP energy per Si atom -5597.063374 kJ/mol
# Density = 2.289554 g / cm^3
# Si number density = 22.947766 Si / 1000 Ang^3
#
#
#
# Elastic Constant Matrix: (Units=GPa)
#
#
# Indices 1 2 3 4 5 6 
#
# 1 187.1925 30.9491 60.3773 0.0000 0.0000 0.0000
# 2 30.9491 66.5075 52.0720 0.0000 0.0000 0.0000
# 3 60.3773 52.0720 204.1566 0.0000 0.0000 0.0000
# 4 0.0000 0.0000 0.0000 31.1061 0.0000 0.0000
# 5 0.0000 0.0000 0.0000 0.0000 38.5067 0.0000
# 6 0.0000 0.0000 0.0000 0.0000 0.0000 32.8998
#
#
#
# Elastic Compliance Matrix: (Units=1/GPa)
#
#
# Indices 1 2 3 4 5 6 
#
# 1 0.006068 -0.001773 -0.001342 0.000000 0.000000 0.000000
# 2 -0.001773 0.019306 -0.004400 0.000000 0.000000 0.000000
# 3 -0.001342 -0.004400 0.006417 0.000000 0.000000 0.000000
# 4 0.000000 0.000000 0.000000 0.032148 0.000000 0.000000
# 5 0.000000 0.000000 0.000000 0.000000 0.025969 0.000000
# 6 0.000000 0.000000 0.000000 0.000000 0.000000 0.030395
#
#
# Mechanical properties :
#
#
# Convention : Reuss Voigt Hill
#
# Bulk Modulus (GPa) = 59.66139 82.73926 71.20032
# Shear Modulus (GPa) = 35.48082 41.46641 38.47361
#
# Velocity S-wave (km/s) = 3.93638 4.25548 4.09904
# Velocity P-wave (km/s) = 6.83487 7.76397 7.31419
#
# Compressibility (1/GPa) = 0.01676126
#
# Stress axis : x y z
#
# Youngs Moduli (GPa) = 164.79402 51.79830 155.82561
#
# Poissons Ratio (x) = 0.09182 0.20919
# Poissons Ratio (y) = 0.29214 0.68560
# Poissons Ratio (z) = 0.22123 0.22790
#
# Static dielectric constant tensor:
#      x y z
#    x 1.772400 0.000000 0.000000 
#    y 0.000000 1.873350 0.000000 
#    z 0.000000 0.000000 1.907740 
# 
# From -- ./inp_files/17561.got.cif
#   From: 2010.05.17/outbox.cif.g08.bks.cpg/sg72_9_cif.got.tgz:17561.got - 2010.06.03 17:03:01.
