data_PCOD9529148
_publ_section_title
;
Structure prediction by ZEFSAII (Michael W. Deem and Ramdas Pophale) SiO2 
 PCOD9529148
Probable space group: I B A M
;
_chemical_formula_sum "Si O2"
_cell_formula_units_Z 56
_cell_length_a 18.757915
_cell_length_b 9.904983
_cell_length_c 14.452434
_cell_angle_alpha 90.000000
_cell_angle_beta 90.000000
_cell_angle_gamma 90.000000
_cell_volume 2685.216411
_symmetry_space_group_name_H-M "I B A M"
_symmetry_group_IT_number 72
_symmetry_cell_setting 'orthorhombic'
loop_
_space_group_symop_operation_xyz
x,y,z
-x,-y,z
x,-y,1/2-z
-x,y,1/2-z
-x,-y,-z
x,y,-z
-x,y,1/2+z
x,-y,1/2+z
1/2+x,1/2+y,1/2+z
1/2-x,1/2-y,1/2+z
1/2+x,1/2-y,-z
1/2-x,1/2+y,-z
1/2-x,1/2-y,1/2-z
1/2+x,1/2+y,1/2-z
1/2-x,1/2+y,z
1/2+x,1/2-y,z
loop_
_atom_site_type_symbol
_atom_site_label
_atom_site_fract_x
_atom_site_fract_y
_atom_site_fract_z
Si Si1 0.103162 0.442745 0.394068
Si Si2 0.742660 0.375076 0.181886
Si Si3 0.500000 0.785766 0.750000
Si Si4 0.601209 0.730194 0.397945
O O1 0.082373 0.408905 0.500000
O O2 0.183102 0.395255 0.371435
O O3 0.106268 0.605892 0.387946
O O4 0.049630 0.375315 0.319704
O O5 0.729290 0.500000 0.250000
O O6 0.750000 0.250000 0.250000
O O7 0.676884 0.340843 0.115792
O O8 0.549527 0.694928 0.685452
O O9 0.573102 0.701145 0.500000
#
# Coordination Sequence:
#
# PCOD9529148 Si02
#       4
#    16  16   8  16
#     4  11  22  37  62  96 129 164 212 264 313 372
#     4  12  22  42  67  90 125 166 208 260 317 374
#     4  12  21  38  63  94 131 172 215 260 315 372
#     4  11  23  39  64  96 127 163 212 265 315 372
#
# _framework density 20.854928999999998
#
# number of rings (size 3 to 8) (size 9 to 14) (size 15 to 20)
#    0.000    0.571    5.714    4.286    0.000    2.286 
#    0.000    0.714    0.000    1.714    0.000    0.000 
#    0.000    0.000    0.000    0.000    0.000    0.000 
#
# Total GULP energy -156561.961539 kJ/mol
# GULP energy per Si atom -5591.498626 kJ/mol
# Density = 2.080746 g / cm^3
# Si number density = 20.854929 Si / 1000 Ang^3
#
#
#
# Elastic Constant Matrix: (Units=GPa)
#
#
# Indices 1 2 3 4 5 6 
#
# 1 148.5865 9.8504 67.5330 0.0000 0.0000 0.0000
# 2 9.8504 51.4790 21.7263 0.0000 0.0000 0.0000
# 3 67.5330 21.7263 171.9791 0.0000 0.0000 0.0000
# 4 0.0000 0.0000 0.0000 19.6189 0.0000 0.0000
# 5 0.0000 0.0000 0.0000 0.0000 12.9831 0.0000
# 6 0.0000 0.0000 0.0000 0.0000 0.0000 26.1707
#
#
#
# Elastic Compliance Matrix: (Units=1/GPa)
#
#
# Indices 1 2 3 4 5 6 
#
# 1 0.008195 -0.000222 -0.003190 0.000000 0.000000 0.000000
# 2 -0.000222 0.020525 -0.002506 0.000000 0.000000 0.000000
# 3 -0.003190 -0.002506 0.007384 0.000000 0.000000 0.000000
# 4 0.000000 0.000000 0.000000 0.050971 0.000000 0.000000
# 5 0.000000 0.000000 0.000000 0.000000 0.077023 0.000000
# 6 0.000000 0.000000 0.000000 0.000000 0.000000 0.038211
#
#
# Mechanical properties :
#
#
# Convention : Reuss Voigt Hill
#
# Bulk Modulus (GPa) = 41.20520 63.36268 52.28394
# Shear Modulus (GPa) = 22.49887 29.95022 26.22454
#
# Velocity S-wave (km/s) = 3.28811 3.79373 3.54994
# Velocity P-wave (km/s) = 5.84949 7.04545 6.47514
#
# Compressibility (1/GPa) = 0.02426878
#
# Stress axis : x y z
#
# Youngs Moduli (GPa) = 122.03187 48.72004 135.43109
#
# Poissons Ratio (x) = 0.01080 0.43200
# Poissons Ratio (y) = 0.02706 0.33938
# Poissons Ratio (z) = 0.38926 0.12209
#
# Static dielectric constant tensor:
#      x y z
#    x 1.297390 0.000000 0.000000 
#    y 0.000000 1.710780 0.000000 
#    z 0.000000 0.000000 1.771860 
# 
# From -- ./inp_files/23790.got.cif
#   From: 2010.05.17/outbox.cif.g08.bks.cpg/sg72_12_cif.got.tgz:23790.got - 2010.06.03 17:03:01.
