data_PCOD9529876
_publ_section_title
;
Structure prediction by ZEFSAII (Michael W. Deem and Ramdas Pophale) SiO2 
 PCOD9529876
Probable space group: I B C A 
;
_chemical_formula_sum "Si O2"
_cell_formula_units_Z 120
_cell_length_a 14.458447
_cell_length_b 26.367307
_cell_length_c 15.046366
_cell_angle_alpha 90.000000
_cell_angle_beta 90.000000
_cell_angle_gamma 90.000000
_cell_volume 5736.130786
_symmetry_space_group_name_H-M "I B C A "
_symmetry_group_IT_number 73
_symmetry_cell_setting 'orthorhombic'
loop_
_space_group_symop_operation_xyz
x,y,z
-x,1/2-y,z
x,-y,1/2-z
1/2-x,y,-z
-x,-y,-z
x,1/2+y,-z
-x,y,1/2+z
1/2+x,-y,z
1/2+x,1/2+y,1/2+z
1/2-x,-y,1/2+z
1/2+x,1/2-y,-z
-x,1/2+y,1/2-z
1/2-x,1/2-y,1/2-z
1/2+x,y,1/2-z
1/2-x,1/2+y,z
x,1/2-y,1/2+z
loop_
_atom_site_type_symbol
_atom_site_label
_atom_site_fract_x
_atom_site_fract_y
_atom_site_fract_z
Si Si1 0.313187 0.608428 0.079871
Si Si2 0.364222 0.786298 0.894912
Si Si3 0.493397 0.140568 0.394040
Si Si4 0.168505 0.441360 0.775806
Si Si5 0.679508 0.823244 0.830146
Si Si6 0.500000 0.250000 0.454929
Si Si7 0.208902 0.636452 0.368625
Si Si8 0.992567 0.372192 0.313951
O O1 0.421599 0.613613 0.056768
O O2 0.313533 0.582666 0.177536
O O3 0.264277 0.661695 0.106194
O O4 0.250000 0.586693 0.000000
O O5 0.340506 0.735909 0.840184
O O6 0.414680 0.764322 0.981554
O O7 0.279976 0.824235 0.911633
O O8 0.434763 0.822665 0.841995
O O9 0.515395 0.199972 0.398908
O O10 0.387449 0.130850 0.421110
O O11 0.494261 0.125855 0.291536
O O12 0.166889 0.500000 0.750000
O O13 0.246850 0.417732 0.840931
O O14 0.074218 0.421010 0.823989
O O15 0.695045 0.836196 0.727286
O O16 0.592881 0.860259 0.855280
#
# Coordination Sequence:
#
# PCOD9529876 Si02
#       8
#    16  16  16  16  16   8  16  16
#     4  10  21  37  59  84 122 154 195 250 308 364
#     4  11  20  34  52  82 115 158 199 235 291 351
#     4  10  23  37  51  83 119 157 200 241 295 351
#     4   9  19  40  69  93 111 149 204 259 311 367
#     4  10  18  33  57  84 112 157 197 238 284 360
#     4  12  24  30  52  80 122 168 192 240 288 370
#     4   9  21  36  59  83 114 154 207 253 293 353
#     4   9  19  36  59  84 113 152 196 246 291 359
#
# _framework density 20.920024999999999
#
# number of rings (size 3 to 8) (size 9 to 14) (size 15 to 20)
#    0.000    2.133    1.333    2.000    5.600    0.533 
#    0.000   10.667    5.867    1.600    0.000    0.000 
#    0.000    0.000    0.000    0.000    0.000    0.000 
#
# Total GULP energy -334195.751395 kJ/mol
# GULP energy per Si atom -5569.929190 kJ/mol
# Density = 2.087241 g / cm^3
# Si number density = 20.920025 Si / 1000 Ang^3
#
#
#
# Elastic Constant Matrix: (Units=GPa)
#
#
# Indices 1 2 3 4 5 6 
#
# 1 153.0448 37.0601 22.1546 0.0000 0.0000 0.0000
# 2 37.0601 95.8245 -11.2395 -0.0001 0.0000 -0.0001
# 3 22.1546 -11.2395 35.4168 -0.0001 0.0000 -0.0001
# 4 0.0000 -0.0001 -0.0001 5.2257 0.0000 0.0000
# 5 0.0000 0.0000 0.0000 0.0000 22.9128 0.0000
# 6 0.0000 -0.0001 -0.0001 0.0000 0.0000 12.0485
#
#
#
# Elastic Compliance Matrix: (Units=1/GPa)
#
#
# Indices 1 2 3 4 5 6 
#
# 1 0.008466 -0.004046 -0.006580 0.000000 0.000000 0.000000
# 2 -0.004046 0.012773 0.006584 0.000000 0.000000 0.000000
# 3 -0.006580 0.006584 0.034441 0.000000 0.000000 0.000000
# 4 0.000000 0.000000 0.000000 0.191363 0.000000 0.000000
# 5 0.000000 0.000000 0.000000 0.000000 0.043644 0.000000
# 6 0.000000 0.000000 0.000000 0.000000 0.000000 0.082998
#
#
# Mechanical properties :
#
#
# Convention : Reuss Voigt Hill
#
# Bulk Modulus (GPa) = 21.00990 42.24851 31.62920
# Shear Modulus (GPa) = 12.57440 23.79145 18.18292
#
# Velocity S-wave (km/s) = 2.45433 3.37598 2.95136
# Velocity P-wave (km/s) = 4.25399 5.95277 5.17358
#
# Compressibility (1/GPa) = 0.04759662
#
# Stress axis : x y z
#
# Youngs Moduli (GPa) = 118.11477 78.29074 29.03530
#
# Poissons Ratio (x) = 0.31678 0.19105
# Poissons Ratio (y) = 0.47791 -0.19118
# Poissons Ratio (z) = 0.77720 -0.51550
#
# Static dielectric constant tensor:
#      x y z
#    x 1.889670 0.000000 0.000000 
#    y 0.000000 1.714030 0.000000 
#    z 0.000000 0.000000 1.775710 
# 
# From -- ./inp_files/22188.got.cif
#   From: 2010.05.17/outbox.cif.g08.bks.cpg/sg73_12_cif.got.tgz:22188.got - 2010.06.03 17:35:07.
