data_PCOD9529700
_publ_section_title
;
Structure prediction by ZEFSAII (Michael W. Deem and Ramdas Pophale) SiO2 
 PCOD9529700
Probable space group: I B C A 
;
_chemical_formula_sum "Si O2"
_cell_formula_units_Z 64
_cell_length_a 5.309767
_cell_length_b 35.412759
_cell_length_c 14.168346
_cell_angle_alpha 90.000000
_cell_angle_beta 90.000000
_cell_angle_gamma 90.000000
_cell_volume 2664.123675
_symmetry_space_group_name_H-M "I B C A "
_symmetry_group_IT_number 73
_symmetry_cell_setting 'orthorhombic'
loop_
_space_group_symop_operation_xyz
x,y,z
-x,1/2-y,z
x,-y,1/2-z
1/2-x,y,-z
-x,-y,-z
x,1/2+y,-z
-x,y,1/2+z
1/2+x,-y,z
1/2+x,1/2+y,1/2+z
1/2-x,-y,1/2+z
1/2+x,1/2-y,-z
-x,1/2+y,1/2-z
1/2-x,1/2-y,1/2-z
1/2+x,y,1/2-z
1/2-x,1/2+y,z
x,1/2-y,1/2+z
loop_
_atom_site_type_symbol
_atom_site_label
_atom_site_fract_x
_atom_site_fract_y
_atom_site_fract_z
Si Si1 0.521268 0.484737 0.391638
Si Si2 0.698948 0.367164 0.108993
Si Si3 0.702355 0.399018 0.389937
Si Si4 0.502726 0.292306 0.687600
O O1 0.500000 0.500000 0.500000
O O2 0.245781 0.490346 0.350048
O O3 0.604621 0.441586 0.388145
O O4 0.483553 0.394520 0.150382
O O5 0.574263 0.325983 0.118182
O O6 0.979798 0.372461 0.150056
O O7 0.750000 0.376957 0.000000
O O8 0.750000 0.388821 0.500000
O O9 0.500000 0.250000 0.645701
O O10 0.779091 0.295294 0.734162
#
# Coordination Sequence:
#
# PCOD9529700 Si02
#       4
#    16  16  16  16
#     4  10  17  24  41  65 101 153 179 216 259 335
#     4  10  21  34  53  82 116 148 173 232 286 340
#     4  10  18  29  45  72 114 151 173 217 283 331
#     4  10  21  40  63  83 108 146 194 236 271 329
#
# _framework density 24.022911000000001
#
# number of rings (size 3 to 8) (size 9 to 14) (size 15 to 20)
#    0.000    2.000    2.500    3.000    7.000    0.000 
#    0.000    7.500    0.000    0.000    0.000    0.000 
#    0.000   70.000    0.000    0.000    0.000    0.000 
#
# Total GULP energy -178606.021766 kJ/mol
# GULP energy per Si atom -5581.438180 kJ/mol
# Density = 2.396823 g / cm^3
# Si number density = 24.022911 Si / 1000 Ang^3
#
#
#
# Elastic Constant Matrix: (Units=GPa)
#
#
# Indices 1 2 3 4 5 6 
#
# 1 218.9437 78.6006 3.3185 0.0000 0.0000 0.0000
# 2 78.6006 148.3207 -7.4918 0.0000 0.0000 0.0000
# 3 3.3185 -7.4918 66.5036 0.0000 0.0000 0.0000
# 4 0.0000 0.0000 0.0000 0.6588 0.0000 0.0000
# 5 0.0000 0.0000 0.0000 0.0000 -4.7238 0.0000
# 6 0.0000 0.0000 0.0000 0.0000 0.0000 46.1078
#
#
#
# Elastic Compliance Matrix: (Units=1/GPa)
#
#
# Indices 1 2 3 4 5 6 
#
# 1 0.005666 -0.003034 -0.000625 0.000000 0.000000 0.000000
# 2 -0.003034 0.008406 0.001098 0.000000 0.000000 0.000000
# 3 -0.000625 0.001098 0.015192 0.000000 0.000000 0.000000
# 4 0.000000 0.000000 0.000000 1.518001 0.000000 0.000000
# 5 0.000000 0.000000 0.000000 0.000000 -0.211692 0.000000
# 6 0.000000 0.000000 0.000000 0.000000 0.000000 0.021688
#
#
# Mechanical properties :
#
#
# Convention : Reuss Voigt Hill
#
# Bulk Modulus (GPa) = 41.42086 64.73585 53.07836
# Shear Modulus (GPa) = 3.64849 32.36458 18.00654
#
# Velocity S-wave (km/s) = 1.23371 3.67446 2.74077
# Velocity P-wave (km/s) = 4.39421 6.70882 5.67086
#
# Compressibility (1/GPa) = 0.02414242
#
# Stress axis : x y z
#
# Youngs Moduli (GPa) = 176.48691 118.96858 65.82557
#
# Poissons Ratio (x) = 0.36098 0.04111
# Poissons Ratio (y) = 0.53550 -0.07230
# Poissons Ratio (z) = 0.11023 -0.13066
#
# Static dielectric constant tensor:
#      x y z
#    x 1.997780 0.000000 0.000000 
#    y 0.000000 1.914470 0.000000 
#    z 0.000000 0.000000 1.875790 
# 
# From -- ./inp_files/1764.got.cif
#   From: 2010.05.17/outbox.cif.g08.bks.cpg/sg73_1_cif.got.tgz:1764.got - 2010.06.03 17:35:07.
