data_PCOD9529589
_publ_section_title
;
Structure prediction by ZEFSAII (Michael W. Deem and Ramdas Pophale) SiO2 
 PCOD9529589
Probable space group: I B A M
;
_chemical_formula_sum "Si O2"
_cell_formula_units_Z 56
_cell_length_a 24.000000
_cell_length_b 15.000000
_cell_length_c 15.000000
_cell_angle_alpha 90.000000
_cell_angle_beta 90.000000
_cell_angle_gamma 90.000000
_cell_volume 5400.000000
_symmetry_space_group_name_H-M "I B A M"
_symmetry_group_IT_number 72
_symmetry_cell_setting 'orthorhombic'
loop_
_space_group_symop_operation_xyz
x,y,z
-x,-y,z
x,-y,1/2-z
-x,y,1/2-z
-x,-y,-z
x,y,-z
-x,y,1/2+z
x,-y,1/2+z
1/2+x,1/2+y,1/2+z
1/2-x,1/2-y,1/2+z
1/2+x,1/2-y,-z
1/2-x,1/2+y,-z
1/2-x,1/2-y,1/2-z
1/2+x,1/2+y,1/2-z
1/2-x,1/2+y,z
1/2+x,1/2-y,z
loop_
_atom_site_type_symbol
_atom_site_label
_atom_site_fract_x
_atom_site_fract_y
_atom_site_fract_z
Si Si1 0.640224 0.989870 0.357934
Si Si2 0.880060 0.707403 0.900477
Si Si3 0.758263 0.773278 0.145359
Si Si4 0.057396 0.768645 0.222470
Si Si5 0.845592 0.847401 0.598822
Si Si6 0.034891 0.591958 0.102811
Si Si7 0.766580 0.014023 0.355989
O O1 0.600124 0.065331 0.395101
O O2 0.704270 0.990207 0.387999
O O3 0.639676 0.000000 0.250000
O O4 0.613353 0.898082 0.389360
O O5 0.814382 0.726898 0.888506
O O6 0.912044 0.746676 0.815808
O O7 0.897378 0.736131 0.000000
O O8 0.750000 0.750000 0.250000
O O9 0.702680 0.728807 0.105081
O O10 0.769098 0.878858 0.129279
O O11 0.104328 0.822128 0.166151
O O12 0.035934 0.679465 0.167280
O O13 0.000000 0.817335 0.250000
O O14 0.869595 0.846526 0.500000
O O15 0.813121 0.942880 0.611485
O O16 0.000000 0.500000 0.129909
O O17 0.018353 0.612230 0.000000
O O18 0.767113 0.000000 0.250000
#
# Coordination Sequence:
#
# PCOD9529589 Si02
#       7
#    16  16  16  16  16  16  16
#     4  11  20  36  61  92 135 183 222 272 341 423
#     4  12  24  40  64  95 133 177 232 287 350 428
#     4  12  21  43  72 104 146 186 231 287 361 434
#     4  12  26  45  68  92 133 189 245 306 368 426
#     4  12  26  44  69 107 149 191 241 295 360 444
#     4  11  24  40  62  96 137 183 240 296 362 444
#     4  11  22  39  68 101 139 183 227 281 351 425
#
# _framework density 10.370369999999999
#
# number of rings (size 3 to 8) (size 9 to 14) (size 15 to 20)
#    0.000    0.429    5.714    3.857    0.000    4.000 
#    0.000    0.000    0.000    4.286    0.000    5.000 
#    0.000    0.000    0.000    0.000    0.000    0.000 
#
# Total GULP energy -312828.756772 kJ/mol
# GULP energy per Si atom -5586.227799 kJ/mol
# Density = 1.034677 g / cm^3
# Si number density = 10.370370 Si / 1000 Ang^3
#
#
#
# Elastic Constant Matrix: (Units=GPa)
#
#
# Indices 1 2 3 4 5 6 
#
# 1 134.8443 30.0979 38.3569 0.0000 0.0000 0.0000
# 2 30.0979 105.0058 19.7585 0.0000 0.0000 0.0000
# 3 38.3569 19.7585 149.9381 0.0000 0.0000 0.0000
# 4 0.0000 0.0000 0.0000 15.3312 0.0000 0.0000
# 5 0.0000 0.0000 0.0000 0.0000 -8.9526 0.0000
# 6 0.0000 0.0000 0.0000 0.0000 0.0000 39.0395
#
#
#
# Elastic Compliance Matrix: (Units=1/GPa)
#
#
# Indices 1 2 3 4 5 6 
#
# 1 0.008410 -0.002057 -0.001880 0.000000 0.000000 0.000000
# 2 -0.002057 0.010268 -0.000827 0.000000 0.000000 0.000000
# 3 -0.001880 -0.000827 0.007259 0.000000 0.000000 0.000000
# 4 0.000000 0.000000 0.000000 0.065227 0.000000 0.000000
# 5 0.000000 0.000000 0.000000 0.000000 -0.111699 0.000000
# 6 0.000000 0.000000 0.000000 0.000000 0.000000 0.025615
#
#
# Mechanical properties :
#
#
# Convention : Reuss Voigt Hill
#
# Bulk Modulus (GPa) = 60.94009 62.91277 61.92643
# Shear Modulus (GPa) = 249.01944 29.18859 139.10402
#
# Velocity S-wave (km/s) = 10.96921 3.75548 8.19839
# Velocity P-wave (km/s) = 13.77959 7.01453 10.93345
#
# Compressibility (1/GPa) = 0.01640956
#
# Stress axis : x y z
#
# Youngs Moduli (GPa) = 118.90734 97.38600 137.75180
#
# Poissons Ratio (x) = 0.20030 0.25903
# Poissons Ratio (y) = 0.24456 0.11392
# Poissons Ratio (z) = 0.22359 0.08054
#
# Static dielectric constant tensor:
#      x y z
#    x 1.749160 0.000000 0.000000 
#    y 0.000000 1.769870 0.000000 
#    z 0.000000 0.000000 1.788260 
# 
# From -- ./inp_files/25178.got.cif
#   From: 2010.05.17/outbox.ucp.g08.bks.cvg/sg72_13_cif.got.tgz:25178.got - 2010.06.11 16:33:07.
