data_PCOD9529439
_publ_section_title
;
Structure prediction by ZEFSAII (Michael W. Deem and Ramdas Pophale) SiO2 
 PCOD9529439
Probable space group: I B A M
;
_chemical_formula_sum "Si O2"
_cell_formula_units_Z 64
_cell_length_a 8.890320
_cell_length_b 20.548159
_cell_length_c 16.126754
_cell_angle_alpha 90.000000
_cell_angle_beta 90.000000
_cell_angle_gamma 90.000000
_cell_volume 2946.030727
_symmetry_space_group_name_H-M "I B A M"
_symmetry_group_IT_number 72
_symmetry_cell_setting 'orthorhombic'
loop_
_space_group_symop_operation_xyz
x,y,z
-x,-y,z
x,-y,1/2-z
-x,y,1/2-z
-x,-y,-z
x,y,-z
-x,y,1/2+z
x,-y,1/2+z
1/2+x,1/2+y,1/2+z
1/2-x,1/2-y,1/2+z
1/2+x,1/2-y,-z
1/2-x,1/2+y,-z
1/2-x,1/2-y,1/2-z
1/2+x,1/2+y,1/2-z
1/2-x,1/2+y,z
1/2+x,1/2-y,z
loop_
_atom_site_type_symbol
_atom_site_label
_atom_site_fract_x
_atom_site_fract_y
_atom_site_fract_z
Si Si1 0.849088 0.081182 0.652695
Si Si2 0.607464 0.177021 0.092693
Si Si3 0.697336 0.780559 0.838463
Si Si4 0.689902 0.437816 0.351630
O O1 0.774115 0.150606 0.639843
O O2 0.831034 0.070402 0.752257
O O3 0.021403 0.082667 0.621126
O O4 0.783487 0.012390 0.621237
O O5 0.478569 0.205224 0.152144
O O6 0.746258 0.226673 0.097614
O O7 0.676543 0.108545 0.120499
O O8 0.546444 0.172667 0.000000
O O9 0.750000 0.750000 0.750000
#
# Coordination Sequence:
#
# PCOD9529439 Si02
#       4
#    16  16  16  16
#     4   9  19  38  67  98 124 162 223 274 317 379
#     4  12  26  43  62  95 138 176 214 278 349 400
#     4  12  24  40  66  96 124 172 227 275 327 396
#     4   9  19  39  66  96 128 165 215 274 322 393
#
# _framework density 21.724146999999999
#
# number of rings (size 3 to 8) (size 9 to 14) (size 15 to 20)
#    0.000    1.500    2.500    4.500    3.500    1.000 
#    0.000   10.000    0.000    0.000    0.000    0.000 
#    0.000    0.000    0.000    0.000    0.000    0.000 
#
# Total GULP energy -178504.033905 kJ/mol
# GULP energy per Si atom -5578.251060 kJ/mol
# Density = 2.167470 g / cm^3
# Si number density = 21.724147 Si / 1000 Ang^3
#
#
#
# Elastic Constant Matrix: (Units=GPa)
#
#
# Indices 1 2 3 4 5 6 
#
# 1 100.9850 64.5181 29.8186 0.0000 0.0000 0.0000
# 2 64.5181 147.1635 7.0709 0.0000 0.0000 0.0000
# 3 29.8186 7.0709 73.8743 0.0000 0.0000 0.0000
# 4 0.0000 0.0000 0.0000 1.3995 0.0000 0.0000
# 5 0.0000 0.0000 0.0000 0.0000 16.4017 0.0000
# 6 0.0000 0.0000 0.0000 0.0000 0.0000 41.2855
#
#
#
# Elastic Compliance Matrix: (Units=1/GPa)
#
#
# Indices 1 2 3 4 5 6 
#
# 1 0.015875 -0.006683 -0.005768 0.000000 0.000000 0.000000
# 2 -0.006683 0.009640 0.001775 0.000000 0.000000 0.000000
# 3 -0.005768 0.001775 0.015695 0.000000 0.000000 0.000000
# 4 0.000000 0.000000 0.000000 0.714545 0.000000 0.000000
# 5 0.000000 0.000000 0.000000 0.000000 0.060969 0.000000
# 6 0.000000 0.000000 0.000000 0.000000 0.000000 0.024222
#
#
# Mechanical properties :
#
#
# Convention : Reuss Voigt Hill
#
# Bulk Modulus (GPa) = 50.35907 58.31535 54.33721
# Shear Modulus (GPa) = 5.75429 26.52501 16.13965
#
# Velocity S-wave (km/s) = 1.62928 3.49806 2.72864
# Velocity P-wave (km/s) = 5.17406 6.57397 5.91557
#
# Compressibility (1/GPa) = 0.01985740
#
# Stress axis : x y z
#
# Youngs Moduli (GPa) = 62.99136 103.73807 63.71488
#
# Poissons Ratio (x) = 0.69325 0.36752
# Poissons Ratio (y) = 0.42095 -0.11308
# Poissons Ratio (z) = 0.36335 -0.18411
#
# Static dielectric constant tensor:
#      x y z
#    x 1.804410 0.000000 0.000000 
#    y 0.000000 1.799470 0.000000 
#    z 0.000000 0.000000 1.920310 
# 
# From -- ./inp_files/27679.got.cif
#   From: 2010.05.17/outbox.cif.g08.bks.cpg/sg72_14_cif.got.tgz:27679.got - 2010.06.03 17:03:01.
