data_PCOD9529422
_publ_section_title
;
Structure prediction by ZEFSAII (Michael W. Deem and Ramdas Pophale) SiO2 
 PCOD9529422
Probable space group: I B A M
;
_chemical_formula_sum "Si O2"
_cell_formula_units_Z 68
_cell_length_a 14.145976
_cell_length_b 8.800710
_cell_length_c 22.463005
_cell_angle_alpha 90.000000
_cell_angle_beta 90.000000
_cell_angle_gamma 90.000000
_cell_volume 2796.523551
_symmetry_space_group_name_H-M "I B A M"
_symmetry_group_IT_number 72
_symmetry_cell_setting 'orthorhombic'
loop_
_space_group_symop_operation_xyz
x,y,z
-x,-y,z
x,-y,1/2-z
-x,y,1/2-z
-x,-y,-z
x,y,-z
-x,y,1/2+z
x,-y,1/2+z
1/2+x,1/2+y,1/2+z
1/2-x,1/2-y,1/2+z
1/2+x,1/2-y,-z
1/2-x,1/2+y,-z
1/2-x,1/2-y,1/2-z
1/2+x,1/2+y,1/2-z
1/2-x,1/2+y,z
1/2+x,1/2-y,z
loop_
_atom_site_type_symbol
_atom_site_label
_atom_site_fract_x
_atom_site_fract_y
_atom_site_fract_z
Si Si1 0.666954 0.196267 0.869205
Si Si2 0.026366 0.837809 0.874038
Si Si3 0.500000 0.000000 0.250000
Si Si4 0.827840 0.638529 0.324211
Si Si5 0.604810 0.651179 0.000000
Si Si6 0.717074 0.666700 0.500000
O O1 0.555964 0.221125 0.859691
O O2 0.721407 0.296371 0.818336
O O3 0.685458 0.018386 0.859897
O O4 0.686831 0.256671 0.936479
O O5 0.129889 0.781750 0.858664
O O6 0.036119 0.850935 0.944374
O O7 0.000000 0.000000 0.847602
O O8 0.582328 0.895719 0.218548
O O9 0.675369 0.504669 0.000000
O O10 0.669965 0.802758 0.000000
#
# Coordination Sequence:
#
# PCOD9529422 Si02
#       6
#    16  16   4  16   8   8
#     4  12  24  45  74 109 150 200 246 308 387 466
#     4  12  23  44  70 106 151 196 247 311 374 461
#     4  12  28  56  78 106 150 196 274 336 388 434
#     4  12  27  50  77 107 150 196 259 326 381 450
#     4  12  24  39  66 106 159 204 255 299 378 473
#     4  12  23  40  69 110 156 207 243 295 388 469
#
# _framework density 24.315904
#
# number of rings (size 3 to 8) (size 9 to 14) (size 15 to 20)
#    0.000    0.000    7.059    3.882    0.000    0.941 
#    0.000    2.941    0.000    0.000    0.000    0.000 
#    0.000    0.000    0.000    0.000    0.000    0.000 
#
# Total GULP energy -189469.170504 kJ/mol
# GULP energy per Si atom -5572.622662 kJ/mol
# Density = 2.426056 g / cm^3
# Si number density = 24.315904 Si / 1000 Ang^3
#
#
#
# Elastic Constant Matrix: (Units=GPa)
#
#
# Indices 1 2 3 4 5 6 
#
# 1 133.1333 29.9416 17.2118 0.0000 0.0000 0.0000
# 2 29.9416 115.6595 -6.8148 0.0000 0.0000 0.0000
# 3 17.2118 -6.8148 53.8530 0.0000 0.0000 0.0000
# 4 0.0000 0.0000 0.0000 -16.0545 0.0000 0.0000
# 5 0.0000 0.0000 0.0000 0.0000 40.7146 0.0000
# 6 0.0000 0.0000 0.0000 0.0000 0.0000 65.0460
#
#
#
# Elastic Compliance Matrix: (Units=1/GPa)
#
#
# Indices 1 2 3 4 5 6 
#
# 1 0.008428 -0.002358 -0.002992 0.000000 0.000000 0.000000
# 2 -0.002358 0.009371 0.001940 0.000000 0.000000 0.000000
# 3 -0.002992 0.001940 0.019771 0.000000 0.000000 0.000000
# 4 0.000000 0.000000 0.000000 -0.062288 0.000000 0.000000
# 5 0.000000 0.000000 0.000000 0.000000 0.024561 0.000000
# 6 0.000000 0.000000 0.000000 0.000000 0.000000 0.015374
#
#
# Mechanical properties :
#
#
# Convention : Reuss Voigt Hill
#
# Bulk Modulus (GPa) = 32.52213 42.59145 37.55679
# Shear Modulus (GPa) = 154.85455 35.42839 95.14147
#
# Velocity S-wave (km/s) = 7.98891 3.82121 6.26196
# Velocity P-wave (km/s) = 9.92476 6.08464 8.23176
#
# Compressibility (1/GPa) = 0.03074829
#
# Stress axis : x y z
#
# Youngs Moduli (GPa) = 118.64543 106.71401 50.57956
#
# Poissons Ratio (x) = 0.25166 0.15135
# Poissons Ratio (y) = 0.27979 -0.09810
# Poissons Ratio (z) = 0.35501 -0.20698
#
# Static dielectric constant tensor:
#      x y z
#    x 1.876130 0.000000 0.000000 
#    y 0.000000 1.986730 0.000000 
#    z 0.000000 0.000000 2.084760 
# 
# From -- ./inp_files/46989.got.cif
#   From: 2010.05.17/outbox.cif.g08.bks.cpg/sg72_24_cif.got.tgz:46989.got - 2010.06.03 17:03:01.
