data_PCOD9529631
_publ_section_title
;
Structure prediction by ZEFSAII (Michael W. Deem and Ramdas Pophale) SiO2 
 PCOD9529631
Probable space group: I B C A 
;
_chemical_formula_sum "Si O2"
_cell_formula_units_Z 112
_cell_length_a 32.877921
_cell_length_b 5.297675
_cell_length_c 30.498227
_cell_angle_alpha 90.000000
_cell_angle_beta 90.000000
_cell_angle_gamma 90.000000
_cell_volume 5312.075659
_symmetry_space_group_name_H-M "I B C A "
_symmetry_group_IT_number 73
_symmetry_cell_setting 'orthorhombic'
loop_
_space_group_symop_operation_xyz
x,y,z
-x,1/2-y,z
x,-y,1/2-z
1/2-x,y,-z
-x,-y,-z
x,1/2+y,-z
-x,y,1/2+z
1/2+x,-y,z
1/2+x,1/2+y,1/2+z
1/2-x,-y,1/2+z
1/2+x,1/2-y,-z
-x,1/2+y,1/2-z
1/2-x,1/2-y,1/2-z
1/2+x,y,1/2-z
1/2-x,1/2+y,z
x,1/2-y,1/2+z
loop_
_atom_site_type_symbol
_atom_site_label
_atom_site_fract_x
_atom_site_fract_y
_atom_site_fract_z
Si Si1 0.775807 0.158490 0.197136
Si Si2 0.304805 0.623567 0.515339
Si Si3 0.150457 0.000000 0.750000
Si Si4 0.500000 0.750000 0.779704
Si Si5 0.588825 0.151442 0.203742
Si Si6 0.370881 0.507301 0.384046
Si Si7 0.319361 0.492720 0.888824
Si Si8 0.101985 0.862255 0.019418
O O1 0.748387 0.399768 0.206303
O O2 0.788418 0.116514 0.146751
O O3 0.818140 0.178201 0.223815
O O4 0.288613 0.408418 0.482747
O O5 0.301833 0.498149 0.562596
O O6 0.351867 0.660955 0.500222
O O7 0.121341 0.130723 0.785272
O O8 0.498134 0.500000 0.750000
O O9 0.457116 0.757178 0.804567
O O10 0.603727 0.006755 0.160849
O O11 0.588240 0.000000 0.250000
O O12 0.353512 0.227137 0.391197
O O13 0.393962 0.588572 0.428731
O O14 0.336922 0.729689 0.377816
O O15 0.082585 0.597882 0.005764
#
# Coordination Sequence:
#
# PCOD9529631 Si02
#       8
#    16  16   8   8  16  16  16  16
#     4  12  28  45  60  84 122 163 207 269 321 364
#     4  10  16  29  53  84 112 148 192 261 308 359
#     4  12  24  44  70  88 116 164 220 254 306 384
#     4  10  22  44  66  94 136 168 196 256 324 368
#     4  11  25  41  67 100 131 167 210 258 310 385
#     4  12  21  34  61  95 121 160 208 260 308 370
#     4  12  21  37  60  84 118 157 207 260 311 371
#     4  10  16  30  50  87 123 148 196 265 309 352
#
# _framework density 21.084039000000001
#
# number of rings (size 3 to 8) (size 9 to 14) (size 15 to 20)
#    0.000    0.857    7.857    2.143    2.000    0.000 
#    0.000    0.000    0.000    2.571    0.000    1.000 
#    0.000    0.000    0.000    0.000    0.000    0.000 
#
# Total GULP energy -312647.893356 kJ/mol
# GULP energy per Si atom -5582.998096 kJ/mol
# Density = 2.103605 g / cm^3
# Si number density = 21.084039 Si / 1000 Ang^3
#
#
#
# Elastic Constant Matrix: (Units=GPa)
#
#
# Indices 1 2 3 4 5 6 
#
# 1 78.1321 13.0074 17.2288 0.0000 0.0000 0.0000
# 2 13.0074 116.2293 -5.8416 0.0000 0.0000 0.0000
# 3 17.2288 -5.8416 104.7891 0.0000 0.0000 0.0000
# 4 0.0000 0.0000 0.0000 29.6825 0.0000 0.0000
# 5 0.0000 0.0000 0.0000 0.0000 8.9577 0.0000
# 6 0.0000 0.0000 0.0000 0.0000 0.0000 11.0177
#
#
#
# Elastic Compliance Matrix: (Units=1/GPa)
#
#
# Indices 1 2 3 4 5 6 
#
# 1 0.013584 -0.001637 -0.002325 0.000000 0.000000 0.000000
# 2 -0.001637 0.008825 0.000761 0.000000 0.000000 0.000000
# 3 -0.002325 0.000761 0.009968 0.000000 0.000000 0.000000
# 4 0.000000 0.000000 0.000000 0.033690 0.000000 0.000000
# 5 0.000000 0.000000 0.000000 0.000000 0.111636 0.000000
# 6 0.000000 0.000000 0.000000 0.000000 0.000000 0.090763
#
#
# Mechanical properties :
#
#
# Convention : Reuss Voigt Hill
#
# Bulk Modulus (GPa) = 38.49772 38.65999 38.57885
# Shear Modulus (GPa) = 17.63510 28.24863 22.94187
#
# Velocity S-wave (km/s) = 2.89523 3.66431 3.30224
# Velocity P-wave (km/s) = 5.42911 6.02319 5.73385
#
# Compressibility (1/GPa) = 0.02597557
#
# Stress axis : x y z
#
# Youngs Moduli (GPa) = 73.61616 113.31265 100.32495
#
# Poissons Ratio (x) = 0.18550 0.23322
# Poissons Ratio (y) = 0.12051 -0.07636
# Poissons Ratio (z) = 0.17113 -0.08624
#
# Static dielectric constant tensor:
#      x y z
#    x 1.791000 0.000000 0.000000 
#    y 0.000000 1.852690 0.000000 
#    z 0.000000 0.000000 1.795270 
# 
# From -- ./inp_files/34950.got.cif
#   From: 2010.05.17/outbox.cif.g08.bks.cpg/sg73_18_cif.got.tgz:34950.got - 2010.06.03 17:35:07.
