data_PCOD9529475
_publ_section_title
;
Structure prediction by ZEFSAII (Michael W. Deem and Ramdas Pophale) SiO2 
 PCOD9529475
Probable space group: I B A M
;
_chemical_formula_sum "Si O2"
_cell_formula_units_Z 80
_cell_length_a 15.971682
_cell_length_b 13.172112
_cell_length_c 14.542165
_cell_angle_alpha 90.000000
_cell_angle_beta 90.000000
_cell_angle_gamma 90.000000
_cell_volume 3059.392076
_symmetry_space_group_name_H-M "I B A M"
_symmetry_group_IT_number 72
_symmetry_cell_setting 'orthorhombic'
loop_
_space_group_symop_operation_xyz
x,y,z
-x,-y,z
x,-y,1/2-z
-x,y,1/2-z
-x,-y,-z
x,y,-z
-x,y,1/2+z
x,-y,1/2+z
1/2+x,1/2+y,1/2+z
1/2-x,1/2-y,1/2+z
1/2+x,1/2-y,-z
1/2-x,1/2+y,-z
1/2-x,1/2-y,1/2-z
1/2+x,1/2+y,1/2-z
1/2-x,1/2+y,z
1/2+x,1/2-y,z
loop_
_atom_site_type_symbol
_atom_site_label
_atom_site_fract_x
_atom_site_fract_y
_atom_site_fract_z
Si Si1 0.865212 0.809982 0.108455
Si Si2 0.133208 0.504926 0.139113
Si Si3 0.406143 0.524268 0.612825
Si Si4 0.731842 0.346985 0.394773
Si Si5 0.995022 0.660888 0.640092
O O1 0.859516 0.922523 0.145562
O O2 0.796130 0.733110 0.148967
O O3 0.959844 0.764986 0.113050
O O4 0.848582 0.816173 0.000000
O O5 0.138239 0.500000 0.250000
O O6 0.217317 0.454112 0.102758
O O7 0.096282 0.616169 0.113634
O O8 0.062045 0.424326 0.108738
O O9 0.500000 0.500000 0.640609
O O10 0.405395 0.528128 0.500000
O O11 0.358247 0.624810 0.646000
O O12 0.717334 0.315495 0.500000
O O13 0.000000 0.659144 0.750000
#
# Coordination Sequence:
#
# PCOD9529475 Si02
#       5
#    16  16  16  16  16
#     4   9  17  30  50  75  99 127 166 205 243 292
#     4   8  14  26  46  70  98 132 162 196 248 299
#     4   9  18  34  52  70  98 135 165 197 250 305
#     4   9  17  30  50  73  97 124 162 212 248 285
#     4   8  14  26  46  70 100 134 162 195 244 298
#
# _framework density 26.148987000000002
#
# number of rings (size 3 to 8) (size 9 to 14) (size 15 to 20)
#    0.000    3.400    0.000    1.200    0.000    0.800 
#    3.600    4.000    4.400    3.600    0.000    0.000 
#    0.000    0.000    0.000    0.000    0.000    0.000 
#
# Total GULP energy -223133.813569 kJ/mol
# GULP energy per Si atom -5578.345339 kJ/mol
# Density = 2.608947 g / cm^3
# Si number density = 26.148987 Si / 1000 Ang^3
#
#
#
# Elastic Constant Matrix: (Units=GPa)
#
#
# Indices 1 2 3 4 5 6 
#
# 1 113.5071 39.4067 -11.0183 0.0000 0.0000 0.0000
# 2 39.4067 90.5034 -16.6279 0.0000 0.0000 0.0000
# 3 -11.0183 -16.6279 89.8326 0.0000 0.0000 0.0000
# 4 0.0000 0.0000 0.0000 -11.4180 0.0000 0.0000
# 5 0.0000 0.0000 0.0000 0.0000 -5.9308 0.0000
# 6 0.0000 0.0000 0.0000 0.0000 0.0000 33.9339
#
#
#
# Elastic Compliance Matrix: (Units=1/GPa)
#
#
# Indices 1 2 3 4 5 6 
#
# 1 0.010397 -0.004444 0.000453 0.000000 0.000000 0.000000
# 2 -0.004444 0.013338 0.001924 0.000000 0.000000 0.000000
# 3 0.000453 0.001924 0.011543 0.000000 0.000000 0.000000
# 4 0.000000 0.000000 0.000000 -0.087581 0.000000 0.000000
# 5 0.000000 0.000000 0.000000 0.000000 -0.168612 0.000000
# 6 0.000000 0.000000 0.000000 0.000000 0.000000 0.029469
#
#
# Mechanical properties :
#
#
# Convention : Reuss Voigt Hill
#
# Bulk Modulus (GPa) = 32.10985 35.26267 33.68626
# Shear Modulus (GPa) = -28.25973 22.12254 -3.06860
#
# Velocity S-wave (km/s) = -3.29100 2.91180 -1.08446
# Velocity P-wave (km/s) = 1.46104 4.98190 3.36784
#
# Compressibility (1/GPa) = 0.03114309
#
# Stress axis : x y z
#
# Youngs Moduli (GPa) = 96.18431 74.97591 86.62946
#
# Poissons Ratio (x) = 0.33317 -0.03921
# Poissons Ratio (y) = 0.42742 -0.16665
# Poissons Ratio (z) = -0.04354 -0.14423
#
# Static dielectric constant tensor:
#      x y z
#    x 2.109380 0.000000 0.000000 
#    y 0.000000 2.074730 0.000000 
#    z 0.000000 0.000000 1.978960 
# 
# From -- ./inp_files/37850.got.cif
#   From: 2010.05.17/outbox.cif.g08.bks.cpg/sg72_19_cif.got.tgz:37850.got - 2010.06.03 17:03:01.
