data_PCOD9529821
_publ_section_title
;
Structure prediction by ZEFSAII (Michael W. Deem and Ramdas Pophale) SiO2 
 PCOD9529821
Probable space group: I B C A 
;
_chemical_formula_sum "Si O2"
_cell_formula_units_Z 96
_cell_length_a 15.724491
_cell_length_b 18.232556
_cell_length_c 13.899296
_cell_angle_alpha 90.000000
_cell_angle_beta 90.000000
_cell_angle_gamma 90.000000
_cell_volume 3984.895677
_symmetry_space_group_name_H-M "I B C A "
_symmetry_group_IT_number 73
_symmetry_cell_setting 'orthorhombic'
loop_
_space_group_symop_operation_xyz
x,y,z
-x,1/2-y,z
x,-y,1/2-z
1/2-x,y,-z
-x,-y,-z
x,1/2+y,-z
-x,y,1/2+z
1/2+x,-y,z
1/2+x,1/2+y,1/2+z
1/2-x,-y,1/2+z
1/2+x,1/2-y,-z
-x,1/2+y,1/2-z
1/2-x,1/2-y,1/2-z
1/2+x,y,1/2-z
1/2-x,1/2+y,z
x,1/2-y,1/2+z
loop_
_atom_site_type_symbol
_atom_site_label
_atom_site_fract_x
_atom_site_fract_y
_atom_site_fract_z
Si Si1 0.234116 0.748375 0.863661
Si Si2 0.449794 0.465632 0.883056
Si Si3 0.587484 0.784400 0.386016
Si Si4 0.440121 0.181068 0.841755
Si Si5 0.093977 0.444863 0.904803
Si Si6 0.729346 0.921755 0.611567
O O1 0.250000 0.750000 0.750000
O O2 0.329492 0.734839 0.902737
O O3 0.154514 0.695876 0.884208
O O4 0.218216 0.833768 0.887235
O O5 0.510668 0.393690 0.869896
O O6 0.508573 0.532870 0.849311
O O7 0.356487 0.451103 0.841040
O O8 0.419252 0.485210 0.993191
O O9 0.500000 0.750000 0.415690
O O10 0.575830 0.809410 0.273848
O O11 0.596381 0.861012 0.438937
O O12 0.500000 0.250000 0.866986
O O13 0.181142 0.450226 0.845286
O O14 0.750000 0.941874 0.500000
#
# Coordination Sequence:
#
# PCOD9529821 Si02
#       6
#    16  16  16  16  16  16
#     4   9  17  32  53  77 105 134 170 216 263 312
#     4  10  19  34  56  76 105 139 179 215 256 321
#     4   9  19  35  53  75 108 138 171 216 269 314
#     4  10  18  31  56  81 101 134 178 216 261 311
#     4   9  20  36  52  76 106 143 170 214 267 311
#     4   9  17  33  55  75 103 141 172 209 268 317
#
# _framework density 24.090969000000001
#
# number of rings (size 3 to 8) (size 9 to 14) (size 15 to 20)
#    0.000    2.667    1.667    0.000    0.000    1.333 
#    6.000    0.000    0.000    2.000    0.000    0.000 
#    0.000    0.000    0.000    0.000    0.000    0.000 
#
# Total GULP energy -267228.368918 kJ/mol
# GULP energy per Si atom -5567.257686 kJ/mol
# Density = 2.403614 g / cm^3
# Si number density = 24.090969 Si / 1000 Ang^3
#
#
#
# Elastic Constant Matrix: (Units=GPa)
#
#
# Indices 1 2 3 4 5 6 
#
# 1 295.1037 70.8762 0.7186 0.0000 0.0000 0.0000
# 2 70.8762 49.7070 8.0588 0.0000 0.0000 0.0000
# 3 0.7186 8.0588 78.1407 0.0000 0.0000 0.0000
# 4 0.0000 0.0000 0.0000 25.1700 0.0000 0.0000
# 5 0.0000 0.0000 0.0000 0.0000 -0.0829 0.0000
# 6 0.0000 0.0000 0.0000 0.0000 0.0000 47.3840
#
#
#
# Elastic Compliance Matrix: (Units=1/GPa)
#
#
# Indices 1 2 3 4 5 6 
#
# 1 0.005194 -0.007524 0.000728 0.000000 0.000000 0.000000
# 2 -0.007524 0.031359 -0.003165 0.000000 0.000000 0.000000
# 3 0.000728 -0.003165 0.013117 0.000000 0.000000 0.000000
# 4 0.000000 0.000000 0.000000 0.039730 0.000000 0.000000
# 5 0.000000 0.000000 0.000000 0.000000-12.063197 0.000000
# 6 0.000000 0.000000 0.000000 0.000000 0.000000 0.021104
#
#
# Mechanical properties :
#
#
# Convention : Reuss Voigt Hill
#
# Bulk Modulus (GPa) = 33.61470 64.69539 49.15504
# Shear Modulus (GPa) = -0.41936 37.38075 18.48069
#
# Velocity S-wave (km/s) = -0.41768 3.94337 2.77270
# Velocity P-wave (km/s) = 3.70822 6.90264 5.54064
#
# Compressibility (1/GPa) = 0.02974889
#
# Stress axis : x y z
#
# Youngs Moduli (GPa) = 192.53253 31.88851 76.23610
#
# Poissons Ratio (x) = 0.23993 -0.05552
# Poissons Ratio (y) = 1.44861 0.24128
# Poissons Ratio (z) = -0.14020 0.10093
#
# Static dielectric constant tensor:
#      x y z
#    x 2.165570 0.000000 0.000000 
#    y 0.000000 1.994140 0.000000 
#    z 0.000000 0.000000 2.051540 
# 
# From -- ./inp_files/26167.got.cif
#   From: 2010.05.17/outbox.cif.g08.bks.cpg/sg73_14_cif.got.tgz:26167.got - 2010.06.03 17:35:07.
