data_PCOD9529534
_publ_section_title
;
Structure prediction by ZEFSAII (Michael W. Deem and Ramdas Pophale) SiO2 
 PCOD9529534
Probable space group: I B A M
;
_chemical_formula_sum "Si O2"
_cell_formula_units_Z 48
_cell_length_a 27.000000
_cell_length_b 21.000000
_cell_length_c 9.000000
_cell_angle_alpha 90.000000
_cell_angle_beta 90.000000
_cell_angle_gamma 90.000000
_cell_volume 5103.000000
_symmetry_space_group_name_H-M "I B A M"
_symmetry_group_IT_number 72
_symmetry_cell_setting 'orthorhombic'
loop_
_space_group_symop_operation_xyz
x,y,z
-x,-y,z
x,-y,1/2-z
-x,y,1/2-z
-x,-y,-z
x,y,-z
-x,y,1/2+z
x,-y,1/2+z
1/2+x,1/2+y,1/2+z
1/2-x,1/2-y,1/2+z
1/2+x,1/2-y,-z
1/2-x,1/2+y,-z
1/2-x,1/2-y,1/2-z
1/2+x,1/2+y,1/2-z
1/2-x,1/2+y,z
1/2+x,1/2-y,z
loop_
_atom_site_type_symbol
_atom_site_label
_atom_site_fract_x
_atom_site_fract_y
_atom_site_fract_z
Si Si1 0.121674 0.432384 0.177912
Si Si2 0.899523 0.810063 0.677511
Si Si3 0.784961 0.197642 0.821866
Si Si4 0.054895 0.065603 0.821021
Si Si5 0.553062 0.174335 0.678194
Si Si6 0.261040 0.934240 0.176933
O O1 0.106574 0.500000 0.250000
O O2 0.092122 0.374624 0.251473
O O3 0.180460 0.424762 0.207346
O O4 0.114257 0.433707 0.000000
O O5 0.903591 0.823776 0.500000
O O6 0.842639 0.792763 0.710475
O O7 0.915797 0.871944 0.768648
O O8 0.931809 0.747469 0.710455
O O9 0.750000 0.250000 0.750000
O O10 0.768496 0.127473 0.770764
O O11 0.778569 0.200254 0.000000
O O12 0.000000 0.072015 0.750000
O O13 0.075667 0.000000 0.750000
O O14 0.052309 0.060996 0.000000
O O15 0.500000 0.161173 0.750000
O O16 0.552009 0.166700 0.500000
O O17 0.244813 0.000000 0.250000
O O18 0.255178 0.939773 0.000000
#
# Coordination Sequence:
#
# PCOD9529534 Si02
#       6
#    16  16  16  16  16  16
#     4  10  20  36  58  83 112 145 183 226 273 329
#     4  10  22  39  58  83 116 151 190 236 282 332
#     4  10  21  37  57  83 115 149 188 233 279 330
#     4  11  22  38  61  86 115 150 189 233 283 340
#     4  11  23  38  57  81 110 145 184 229 279 330
#     4   9  19  35  56  82 112 146 183 224 270 322
#
# _framework density 9.4062319999999993
#
# number of rings (size 3 to 8) (size 9 to 14) (size 15 to 20)
#    0.000    1.833    0.000    4.500    0.000    5.667 
#    0.000    3.333    0.000    0.000    0.000    0.000 
#    0.000    0.000    0.000    0.000    0.000    0.000 
#
# Total GULP energy -268185.857139 kJ/mol
# GULP energy per Si atom -5587.205357 kJ/mol
# Density = 0.938482 g / cm^3
# Si number density = 9.406232 Si / 1000 Ang^3
#
#
#
# Elastic Constant Matrix: (Units=GPa)
#
#
# Indices 1 2 3 4 5 6 
#
# 1 22.5074 -3.1355 10.3238 0.0000 0.0000 0.0000
# 2 -3.1355 53.1492 11.5875 0.0000 0.0000 0.0000
# 3 10.3238 11.5875 56.5039 0.0000 0.0000 0.0000
# 4 0.0000 0.0000 0.0000 39.0296 0.0000 0.0000
# 5 0.0000 0.0000 0.0000 0.0000 20.4588 0.0000
# 6 0.0000 0.0000 0.0000 0.0000 0.0000 35.5472
#
#
#
# Elastic Compliance Matrix: (Units=1/GPa)
#
#
# Indices 1 2 3 4 5 6 
#
# 1 0.049806 0.005153 -0.010157 0.000000 0.000000 0.000000
# 2 0.005153 0.020229 -0.005090 0.000000 0.000000 0.000000
# 3 -0.010157 -0.005090 0.020597 0.000000 0.000000 0.000000
# 4 0.000000 0.000000 0.000000 0.025622 0.000000 0.000000
# 5 0.000000 0.000000 0.000000 0.000000 0.048879 0.000000
# 6 0.000000 0.000000 0.000000 0.000000 0.000000 0.028132
#
#
# Mechanical properties :
#
#
# Convention : Reuss Voigt Hill
#
# Bulk Modulus (GPa) = 14.19556 18.85690 16.52623
# Shear Modulus (GPa) = 21.10296 26.56609 23.83452
#
# Velocity S-wave (km/s) = 3.35289 3.76194 3.56329
# Velocity P-wave (km/s) = 4.74883 5.37726 5.07279
#
# Compressibility (1/GPa) = 0.07044454
#
# Stress axis : x y z
#
# Youngs Moduli (GPa) = 20.07776 49.43494 48.54982
#
# Poissons Ratio (x) = -0.25472 0.49311
# Poissons Ratio (y) = -0.10345 0.24711
# Poissons Ratio (z) = 0.20392 0.25161
#
# Static dielectric constant tensor:
#      x y z
#    x 1.639780 0.000000 0.000000 
#    y 0.000000 1.632000 0.000000 
#    z 0.000000 0.000000 1.627520 
# 
# From -- ./inp_files/6003.got.cif
#   From: 2010.05.17/outbox.ucp.g08.bks.cvg/sg72_4_cif.got.tgz:6003.got - 2010.06.11 16:33:07.
