data_PCOD9529430
_publ_section_title
;
Structure prediction by ZEFSAII (Michael W. Deem and Ramdas Pophale) SiO2 
 PCOD9529430
Probable space group: I B A M
;
_chemical_formula_sum "Si O2"
_cell_formula_units_Z 44
_cell_length_a 5.429392
_cell_length_b 14.449074
_cell_length_c 25.645922
_cell_angle_alpha 90.000000
_cell_angle_beta 90.000000
_cell_angle_gamma 90.000000
_cell_volume 2011.914548
_symmetry_space_group_name_H-M "I B A M"
_symmetry_group_IT_number 72
_symmetry_cell_setting 'orthorhombic'
loop_
_space_group_symop_operation_xyz
x,y,z
-x,-y,z
x,-y,1/2-z
-x,y,1/2-z
-x,-y,-z
x,y,-z
-x,y,1/2+z
x,-y,1/2+z
1/2+x,1/2+y,1/2+z
1/2-x,1/2-y,1/2+z
1/2+x,1/2-y,-z
1/2-x,1/2+y,-z
1/2-x,1/2-y,1/2-z
1/2+x,1/2+y,1/2-z
1/2-x,1/2+y,z
1/2+x,1/2-y,z
loop_
_atom_site_type_symbol
_atom_site_label
_atom_site_fract_x
_atom_site_fract_y
_atom_site_fract_z
Si Si1 0.000000 0.000000 0.250000
Si Si2 0.770942 0.610002 0.611906
Si Si3 0.863542 0.308430 0.000000
Si Si4 0.231398 0.096977 0.345772
O O1 0.835701 0.936067 0.287663
O O2 0.826920 0.633351 0.552551
O O3 0.750731 0.499921 0.622227
O O4 0.505203 0.647722 0.630017
O O5 0.002768 0.641559 0.646893
O O6 0.637580 0.234832 0.000000
#
# Coordination Sequence:
#
# PCOD9529430 Si02
#       4
#     4  16   8  16
#     4   8  16  30  52  88 108 126 152 190 280 326
#     4   9  19  33  48  77 102 131 168 207 254 294
#     4  12  24  36  52  70 100 146 182 208 242 292
#     4   9  18  31  55  80 105 126 156 211 258 311
#
# _framework density 21.869716
#
# number of rings (size 3 to 8) (size 9 to 14) (size 15 to 20)
#    0.000    2.909    0.000    2.182    0.000   17.455 
#    0.000    0.000    0.000    0.000    0.000  134.909 
#    0.000    0.000    0.000    0.000    0.000    0.000 
#
# Total GULP energy -122704.975189 kJ/mol
# GULP energy per Si atom -5577.498872 kJ/mol
# Density = 2.181994 g / cm^3
# Si number density = 21.869716 Si / 1000 Ang^3
#
#
#
# Elastic Constant Matrix: (Units=GPa)
#
#
# Indices 1 2 3 4 5 6 
#
# 1 205.0980 -2.8480 36.9234 0.0000 0.0000 0.0000
# 2 -2.8480 65.5751 14.0647 0.0000 0.0000 0.0000
# 3 36.9234 14.0647 164.9226 0.0000 0.0000 0.0000
# 4 0.0000 0.0000 0.0000 -7.7980 0.0000 0.0000
# 5 0.0000 0.0000 0.0000 0.0000 2.3868 0.0000
# 6 0.0000 0.0000 0.0000 0.0000 0.0000 -0.4557
#
#
#
# Elastic Compliance Matrix: (Units=1/GPa)
#
#
# Indices 1 2 3 4 5 6 
#
# 1 0.005095 0.000475 -0.001181 0.000000 0.000000 0.000000
# 2 0.000475 0.015578 -0.001435 0.000000 0.000000 0.000000
# 3 -0.001181 -0.001435 0.006450 0.000000 0.000000 0.000000
# 4 0.000000 0.000000 0.000000 -0.128238 0.000000 0.000000
# 5 0.000000 0.000000 0.000000 0.000000 0.418968 0.000000
# 6 0.000000 0.000000 0.000000 0.000000 0.000000 -2.194369
#
#
# Mechanical properties :
#
#
# Convention : Reuss Voigt Hill
#
# Bulk Modulus (GPa) = 43.78163 59.09732 51.43947
# Shear Modulus (GPa) = -2.68151 24.65700 10.98774
#
# Velocity S-wave (km/s) = -1.10851 3.36139 2.24390
# Velocity P-wave (km/s) = 4.29236 6.49203 5.50322
#
# Compressibility (1/GPa) = 0.02284063
#
# Stress axis : x y z
#
# Youngs Moduli (GPa) = 196.27287 64.19297 155.03285
#
# Poissons Ratio (x) = -0.03047 0.18312
# Poissons Ratio (y) = -0.09315 0.22244
# Poissons Ratio (z) = 0.23183 0.09210
#
# Static dielectric constant tensor:
#      x y z
#    x 1.963040 0.000000 0.000000 
#    y 0.000000 1.720630 0.000000 
#    z 0.000000 0.000000 1.738810 
# 
# From -- ./inp_files/46340.got.cif
#   From: 2010.05.17/outbox.cif.g08.bks.cpg/sg72_24_cif.got.tgz:46340.got - 2010.06.03 17:03:01.
