data_PCOD9529611
_publ_section_title
;
Structure prediction by ZEFSAII (Michael W. Deem and Ramdas Pophale) SiO2 
 PCOD9529611
Probable space group: I B C A 
;
_chemical_formula_sum "Si O2"
_cell_formula_units_Z 112
_cell_length_a 32.734393
_cell_length_b 5.356920
_cell_length_c 26.056397
_cell_angle_alpha 90.000000
_cell_angle_beta 90.000000
_cell_angle_gamma 90.000000
_cell_volume 4569.133164
_symmetry_space_group_name_H-M "I B C A "
_symmetry_group_IT_number 73
_symmetry_cell_setting 'orthorhombic'
loop_
_space_group_symop_operation_xyz
x,y,z
-x,1/2-y,z
x,-y,1/2-z
1/2-x,y,-z
-x,-y,-z
x,1/2+y,-z
-x,y,1/2+z
1/2+x,-y,z
1/2+x,1/2+y,1/2+z
1/2-x,-y,1/2+z
1/2+x,1/2-y,-z
-x,1/2+y,1/2-z
1/2-x,1/2-y,1/2-z
1/2+x,y,1/2-z
1/2-x,1/2+y,z
x,1/2-y,1/2+z
loop_
_atom_site_type_symbol
_atom_site_label
_atom_site_fract_x
_atom_site_fract_y
_atom_site_fract_z
Si Si1 0.954350 0.749870 0.785012
Si Si2 0.071829 0.637947 0.433400
Si Si3 0.769771 0.146015 0.688101
Si Si4 0.544257 0.642711 0.948333
Si Si5 0.762439 0.645857 0.430943
Si Si6 0.362914 0.249344 0.784524
Si Si7 0.845556 0.666332 0.967858
O O1 0.954311 0.500000 0.750000
O O2 0.908669 0.744231 0.811264
O O3 0.000000 0.750000 0.811105
O O4 0.954254 0.000000 0.750000
O O5 0.063313 0.361618 0.413928
O O6 0.065560 0.605355 0.496119
O O7 0.118433 0.707379 0.427512
O O8 0.044659 0.876430 0.421131
O O9 0.739691 0.365994 0.707760
O O10 0.756365 0.111962 0.628801
O O11 0.817742 0.223757 0.689459
O O12 0.500000 0.750000 0.960444
O O13 0.768354 0.362049 0.451576
O O14 0.803385 0.799117 0.439790
O O15 0.360842 0.500000 0.750000
O O16 0.364496 0.000000 0.750000
O O17 0.849438 0.391426 0.991479
#
# Coordination Sequence:
#
# PCOD9529611 Si02
#       7
#    16  16  16  16  16  16  16
#     4   8  14  25  41  66 103 135 162 204 248 286
#     4  10  16  27  38  64  91 113 142 184 235 283
#     4  10  21  37  53  71 105 140 173 210 248 306
#     4  10  16  25  41  61  91 122 146 175 229 296
#     4  10  23  40  54  71  94 130 168 199 250 309
#     4  10  19  30  50  81 109 136 175 212 246 294
#     4  12  21  34  53  72  98 119 153 213 257 298
#
# _framework density 24.512307
#
# number of rings (size 3 to 8) (size 9 to 14) (size 15 to 20)
#    0.000    2.000    2.857    3.857    0.000    3.429 
#    0.000    0.000    0.000    0.000    0.000    3.000 
#    0.000    9.143    0.000    0.000    0.000    0.571 
#
# Total GULP energy -311922.450106 kJ/mol
# GULP energy per Si atom -5570.043752 kJ/mol
# Density = 2.445652 g / cm^3
# Si number density = 24.512307 Si / 1000 Ang^3
#
#
#
# Elastic Constant Matrix: (Units=GPa)
#
#
# Indices 1 2 3 4 5 6 
#
# 1 132.5260 18.6952 -5.5437 0.0000 0.0000 0.0000
# 2 18.6952 206.6105 21.9974 0.0000 0.0000 0.0000
# 3 -5.5437 21.9974 33.3012 0.0000 0.0000 0.0000
# 4 0.0000 0.0000 0.0000 0.3645 0.0000 0.0000
# 5 0.0000 0.0000 0.0000 0.0000 14.7561 0.0000
# 6 0.0000 0.0000 0.0000 0.0000 0.0000 41.7650
#
#
#
# Elastic Compliance Matrix: (Units=1/GPa)
#
#
# Indices 1 2 3 4 5 6 
#
# 1 0.007752 -0.000902 0.001886 0.000000 0.000000 0.000000
# 2 -0.000902 0.005311 -0.003659 0.000000 0.000000 0.000000
# 3 0.001886 -0.003659 0.032760 0.000000 0.000000 0.000000
# 4 0.000000 0.000000 0.000000 2.743257 0.000000 0.000000
# 5 0.000000 0.000000 0.000000 0.000000 0.067768 0.000000
# 6 0.000000 0.000000 0.000000 0.000000 0.000000 0.023944
#
#
# Mechanical properties :
#
#
# Convention : Reuss Voigt Hill
#
# Bulk Modulus (GPa) = 24.70720 49.19285 36.95003
# Shear Modulus (GPa) = 1.72436 33.86304 17.79370
#
# Velocity S-wave (km/s) = 0.83964 3.72085 2.69719
# Velocity P-wave (km/s) = 3.32286 6.21062 4.98062
#
# Compressibility (1/GPa) = 0.04047403
#
# Stress axis : x y z
#
# Youngs Moduli (GPa) = 129.00086 188.28174 30.52531
#
# Poissons Ratio (x) = 0.16988 -0.05759
# Poissons Ratio (y) = 0.11640 0.11168
# Poissons Ratio (z) = -0.24336 0.68884
#
# Static dielectric constant tensor:
#      x y z
#    x 2.077320 0.000000 0.000000 
#    y 0.000000 2.056760 0.000000 
#    z 0.000000 0.000000 1.967180 
# 
# From -- ./inp_files/34935.got.cif
#   From: 2010.05.17/outbox.cif.g08.bks.cpg/sg73_18_cif.got.tgz:34935.got - 2010.06.03 17:35:07.
