data_PCOD9529448
_publ_section_title
;
Structure prediction by ZEFSAII (Michael W. Deem and Ramdas Pophale) SiO2 
 PCOD9529448
Probable space group: I B A M
;
_chemical_formula_sum "Si O2"
_cell_formula_units_Z 64
_cell_length_a 14.870420
_cell_length_b 8.050964
_cell_length_c 21.956112
_cell_angle_alpha 90.000000
_cell_angle_beta 90.000000
_cell_angle_gamma 90.000000
_cell_volume 2628.612429
_symmetry_space_group_name_H-M "I B A M"
_symmetry_group_IT_number 72
_symmetry_cell_setting 'orthorhombic'
loop_
_space_group_symop_operation_xyz
x,y,z
-x,-y,z
x,-y,1/2-z
-x,y,1/2-z
-x,-y,-z
x,y,-z
-x,y,1/2+z
x,-y,1/2+z
1/2+x,1/2+y,1/2+z
1/2-x,1/2-y,1/2+z
1/2+x,1/2-y,-z
1/2-x,1/2+y,-z
1/2-x,1/2-y,1/2-z
1/2+x,1/2+y,1/2-z
1/2-x,1/2+y,z
1/2+x,1/2-y,z
loop_
_atom_site_type_symbol
_atom_site_label
_atom_site_fract_x
_atom_site_fract_y
_atom_site_fract_z
Si Si1 0.710255 0.842096 0.070342
Si Si2 0.379591 0.833617 0.123486
Si Si3 0.145402 0.800539 0.753117
Si Si4 0.052995 0.175328 0.380966
O O1 0.804718 0.796029 0.100279
O O2 0.641299 0.686882 0.077324
O O3 0.663089 0.991677 0.106353
O O4 0.720612 0.885718 0.000000
O O5 0.393571 0.794757 0.194842
O O6 0.476453 0.799562 0.094863
O O7 0.250000 0.750000 0.750000
O O8 0.092616 0.769103 0.815416
O O9 0.141048 0.000000 0.750000
O O10 0.000000 0.000000 0.376250
#
# Coordination Sequence:
#
# PCOD9529448 Si02
#       4
#    16  16  16  16
#     4  12  28  50  75 109 152 210 267 314 373 449
#     4  12  25  46  75 107 153 197 252 320 387 451
#     4  12  24  45  76 111 152 190 240 314 392 470
#     4  12  26  46  76 112 151 198 251 316 389 459
#
# _framework density 24.347445
#
# number of rings (size 3 to 8) (size 9 to 14) (size 15 to 20)
#    0.000    0.000    5.000    5.250    0.000    3.500 
#    0.000    2.500    0.000    0.000    0.000    0.000 
#    0.000    0.000    0.000    0.000    0.000    0.000 
#
# Total GULP energy -179201.643700 kJ/mol
# GULP energy per Si atom -5600.051366 kJ/mol
# Density = 2.429203 g / cm^3
# Si number density = 24.347445 Si / 1000 Ang^3
#
#
#
# Elastic Constant Matrix: (Units=GPa)
#
#
# Indices 1 2 3 4 5 6 
#
# 1 150.3861 23.3866 4.9089 0.0000 0.0000 0.0000
# 2 23.3866 111.2183 44.0540 0.0000 0.0000 0.0000
# 3 4.9089 44.0540 110.4763 0.0000 0.0000 0.0000
# 4 0.0000 0.0000 0.0000 20.9220 0.0000 0.0000
# 5 0.0000 0.0000 0.0000 0.0000 -17.8033 0.0000
# 6 0.0000 0.0000 0.0000 0.0000 0.0000 42.7520
#
#
#
# Elastic Compliance Matrix: (Units=1/GPa)
#
#
# Indices 1 2 3 4 5 6 
#
# 1 0.006884 -0.001575 0.000322 0.000000 0.000000 0.000000
# 2 -0.001575 0.011038 -0.004332 0.000000 0.000000 0.000000
# 3 0.000322 -0.004332 0.010765 0.000000 0.000000 0.000000
# 4 0.000000 0.000000 0.000000 0.047797 0.000000 0.000000
# 5 0.000000 0.000000 0.000000 0.000000 -0.056169 0.000000
# 6 0.000000 0.000000 0.000000 0.000000 0.000000 0.023391
#
#
# Mechanical properties :
#
#
# Convention : Reuss Voigt Hill
#
# Bulk Modulus (GPa) = 57.08488 57.41997 57.25243
# Shear Modulus (GPa) = 82.35381 29.15622 55.75502
#
# Velocity S-wave (km/s) = 5.82219 3.46425 4.79056
# Velocity P-wave (km/s) = 8.28818 6.29573 7.35969
#
# Compressibility (1/GPa) = 0.01751777
#
# Stress axis : x y z
#
# Youngs Moduli (GPa) = 145.26463 90.59317 92.89592
#
# Poissons Ratio (x) = 0.14270 -0.02994
# Poissons Ratio (y) = 0.22882 0.40240
# Poissons Ratio (z) = -0.04681 0.39242
#
# Static dielectric constant tensor:
#      x y z
#    x 1.956630 0.000000 0.000000 
#    y 0.000000 2.034450 0.000000 
#    z 0.000000 0.000000 1.942010 
# 
# From -- ./inp_files/43932.got.cif
#   From: 2010.05.17/outbox.cif.g08.bks.cpg/sg72_22_cif.got.tgz:43932.got - 2010.06.03 17:03:01.
