data_PCOD9529870
_publ_section_title
;
Structure prediction by ZEFSAII (Michael W. Deem and Ramdas Pophale) SiO2 
 PCOD9529870
Probable space group: I B C A 
;
_chemical_formula_sum "Si O2"
_cell_formula_units_Z 120
_cell_length_a 16.427009
_cell_length_b 24.991808
_cell_length_c 13.754910
_cell_angle_alpha 90.000000
_cell_angle_beta 90.000000
_cell_angle_gamma 90.000000
_cell_volume 5646.949760
_symmetry_space_group_name_H-M "I B C A "
_symmetry_group_IT_number 73
_symmetry_cell_setting 'orthorhombic'
loop_
_space_group_symop_operation_xyz
x,y,z
-x,1/2-y,z
x,-y,1/2-z
1/2-x,y,-z
-x,-y,-z
x,1/2+y,-z
-x,y,1/2+z
1/2+x,-y,z
1/2+x,1/2+y,1/2+z
1/2-x,-y,1/2+z
1/2+x,1/2-y,-z
-x,1/2+y,1/2-z
1/2-x,1/2-y,1/2-z
1/2+x,y,1/2-z
1/2-x,1/2+y,z
x,1/2-y,1/2+z
loop_
_atom_site_type_symbol
_atom_site_label
_atom_site_fract_x
_atom_site_fract_y
_atom_site_fract_z
Si Si1 0.240478 0.633025 0.734181
Si Si2 0.353691 0.174801 0.578307
Si Si3 0.374683 0.362354 0.395364
Si Si4 0.407879 0.759119 0.094951
Si Si5 0.972359 0.627041 0.571098
Si Si6 0.357640 0.955232 0.325785
Si Si7 0.250000 0.557838 0.000000
Si Si8 0.630294 0.713711 0.308734
O O1 0.221498 0.642070 0.621776
O O2 0.151873 0.626289 0.785340
O O3 0.300845 0.585665 0.764211
O O4 0.285262 0.684239 0.782753
O O5 0.358820 0.199975 0.471489
O O6 0.434382 0.139216 0.588639
O O7 0.359196 0.228130 0.645394
O O8 0.365520 0.298679 0.407009
O O9 0.457067 0.375143 0.454249
O O10 0.312549 0.400524 0.451884
O O11 0.500000 0.750000 0.057198
O O12 0.413734 0.780196 0.204903
O O13 0.932950 0.576154 0.625240
O O14 0.920262 0.676280 0.617588
O O15 0.299086 0.973003 0.415900
O O16 0.383542 0.000000 0.250000
#
# Coordination Sequence:
#
# PCOD9529870 Si02
#       8
#    16  16  16  16  16  16   8  16
#     4  10  23  37  55  85 112 152 188 239 281 341
#     4  12  21  34  51  82 119 155 188 230 275 335
#     4  10  18  33  53  79 112 147 195 222 271 333
#     4  12  22  31  50  78 116 165 190 219 267 329
#     4  10  20  36  56  82 111 150 191 235 278 339
#     4   9  19  40  63  82 105 141 193 245 302 348
#     4   8  18  32  60  86 104 138 186 250 288 350
#     4  11  22  35  51  78 117 158 190 218 276 331
#
# _framework density 21.250411
#
# number of rings (size 3 to 8) (size 9 to 14) (size 15 to 20)
#    0.000    1.600    4.000    2.400    0.000    0.533 
#    0.000    3.333    0.000    0.000    0.000    9.333 
#    0.000    0.000    0.000    0.000    0.000    0.000 
#
# Total GULP energy -334692.633821 kJ/mol
# GULP energy per Si atom -5578.210564 kJ/mol
# Density = 2.120204 g / cm^3
# Si number density = 21.250411 Si / 1000 Ang^3
#
#
#
# Elastic Constant Matrix: (Units=GPa)
#
#
# Indices 1 2 3 4 5 6 
#
# 1 46.3514 7.8182 3.3604 0.0000 0.0000 0.0000
# 2 7.8182 53.5647 16.8206 0.0000 0.0000 0.0000
# 3 3.3604 16.8206 58.8067 -0.0001 0.0000 0.0000
# 4 0.0000 0.0000 -0.0001 22.7528 0.0000 0.0000
# 5 0.0000 0.0000 0.0000 0.0000 22.6466 0.0000
# 6 0.0000 0.0000 0.0000 0.0000 0.0000 10.2672
#
#
#
# Elastic Compliance Matrix: (Units=1/GPa)
#
#
# Indices 1 2 3 4 5 6 
#
# 1 0.022126 -0.003112 -0.000374 0.000000 0.000000 0.000000
# 2 -0.003112 0.020949 -0.005814 0.000000 0.000000 0.000000
# 3 -0.000374 -0.005814 0.018689 0.000000 0.000000 0.000000
# 4 0.000000 0.000000 0.000000 0.043951 0.000000 0.000000
# 5 0.000000 0.000000 0.000000 0.000000 0.044157 0.000000
# 6 0.000000 0.000000 0.000000 0.000000 0.000000 0.097398
#
#
# Mechanical properties :
#
#
# Convention : Reuss Voigt Hill
#
# Bulk Modulus (GPa) = 23.16761 23.85791 23.51276
# Shear Modulus (GPa) = 17.84067 19.84823 18.84445
#
# Velocity S-wave (km/s) = 2.90063 3.05948 2.98112
# Velocity P-wave (km/s) = 4.70575 4.87155 4.78937
#
# Compressibility (1/GPa) = 0.04316372
#
# Stress axis : x y z
#
# Youngs Moduli (GPa) = 45.19496 47.73485 53.50651
#
# Poissons Ratio (x) = 0.14855 0.02003
# Poissons Ratio (y) = 0.14065 0.31110
# Poissons Ratio (z) = 0.01691 0.27754
#
# Static dielectric constant tensor:
#      x y z
#    x 1.799110 0.000000 0.000000 
#    y 0.000000 1.748820 0.000000 
#    z 0.000000 0.000000 1.842600 
# 
# From -- ./inp_files/18253.got.cif
#   From: 2010.05.17/outbox.cif.g08.bks.cpg/sg73_10_cif.got.tgz:18253.got - 2010.06.03 17:35:07.
