data_PCOD9529791
_publ_section_title
;
Structure prediction by ZEFSAII (Michael W. Deem and Ramdas Pophale) SiO2 
 PCOD9529791
Probable space group: I B C A 
;
_chemical_formula_sum "Si O2"
_cell_formula_units_Z 88
_cell_length_a 20.109745
_cell_length_b 26.255484
_cell_length_c 8.452266
_cell_angle_alpha 90.000000
_cell_angle_beta 90.000000
_cell_angle_gamma 90.000000
_cell_volume 4462.721122
_symmetry_space_group_name_H-M "I B C A "
_symmetry_group_IT_number 73
_symmetry_cell_setting 'orthorhombic'
loop_
_space_group_symop_operation_xyz
x,y,z
-x,1/2-y,z
x,-y,1/2-z
1/2-x,y,-z
-x,-y,-z
x,1/2+y,-z
-x,y,1/2+z
1/2+x,-y,z
1/2+x,1/2+y,1/2+z
1/2-x,-y,1/2+z
1/2+x,1/2-y,-z
-x,1/2+y,1/2-z
1/2-x,1/2-y,1/2-z
1/2+x,y,1/2-z
1/2-x,1/2+y,z
x,1/2-y,1/2+z
loop_
_atom_site_type_symbol
_atom_site_label
_atom_site_fract_x
_atom_site_fract_y
_atom_site_fract_z
Si Si1 0.750000 0.743755 0.000000
Si Si2 0.047544 0.653938 0.146453
Si Si3 0.904197 0.340981 0.214803
Si Si4 0.449320 0.948168 0.165873
Si Si5 0.403592 0.552346 0.299202
Si Si6 0.153622 0.729424 0.258468
O O1 0.806663 0.712104 0.912538
O O2 0.707643 0.777276 0.879060
O O3 0.069551 0.602158 0.235256
O O4 0.086635 0.699998 0.227516
O O5 0.968931 0.661341 0.171297
O O6 0.067444 0.654505 0.963304
O O7 0.869004 0.394050 0.260276
O O8 0.862392 0.289451 0.226975
O O9 0.529744 0.948487 0.187976
O O10 0.425431 0.000000 0.250000
O O11 0.427596 0.947219 0.982658
O O12 0.367787 0.500000 0.250000
#
# Coordination Sequence:
#
# PCOD9529791 Si02
#       6
#     8  16  16  16  16  16
#     4  10  24  42  58  78 102 150 192 232 270 322
#     4  11  22  34  55  85 117 147 178 225 280 331
#     4  11  22  34  55  85 117 147 178 225 280 331
#     4  10  18  30  49  75 112 148 180 214 263 332
#     4  10  18  30  49  75 112 148 180 214 263 332
#     4  11  23  40  60  80 111 141 190 230 278 329
#
# _framework density 19.718912
#
# number of rings (size 3 to 8) (size 9 to 14) (size 15 to 20)
#    0.000    1.455    1.818    8.182    5.091    1.455 
#    0.000    0.000    0.000    0.000    0.000    7.636 
#    0.000    0.000    0.000    0.000    0.000    0.000 
#
# Total GULP energy -245434.751625 kJ/mol
# GULP energy per Si atom -5578.062537 kJ/mol
# Density = 1.967403 g / cm^3
# Si number density = 19.718912 Si / 1000 Ang^3
#
#
#
# Elastic Constant Matrix: (Units=GPa)
#
#
# Indices 1 2 3 4 5 6 
#
# 1 30.5705 23.9630 6.8821 0.0000 0.0000 0.0000
# 2 23.9630 150.4230 26.0923 0.0000 0.0000 0.0000
# 3 6.8821 26.0923 93.3995 0.0000 0.0000 0.0000
# 4 0.0000 0.0000 0.0000 18.7324 0.0000 0.0000
# 5 0.0000 0.0000 0.0000 0.0000 21.5085 0.0000
# 6 0.0000 0.0000 0.0000 0.0000 0.0000 -3.3014
#
#
#
# Elastic Compliance Matrix: (Units=1/GPa)
#
#
# Indices 1 2 3 4 5 6 
#
# 1 0.037496 -0.005774 -0.001150 0.000000 0.000000 0.000000
# 2 -0.005774 0.007876 -0.001775 0.000000 0.000000 0.000000
# 3 -0.001150 -0.001775 0.011287 0.000000 0.000000 0.000000
# 4 0.000000 0.000000 0.000000 0.053384 0.000000 0.000000
# 5 0.000000 0.000000 0.000000 0.000000 0.046493 0.000000
# 6 0.000000 0.000000 0.000000 0.000000 0.000000 -0.302900
#
#
# Mechanical properties :
#
#
# Convention : Reuss Voigt Hill
#
# Bulk Modulus (GPa) = 25.46994 43.14086 34.30540
# Shear Modulus (GPa) = -43.14791 21.88493 -10.63149
#
# Velocity S-wave (km/s) = -4.68284 3.33505 -2.32448
# Velocity P-wave (km/s) = 4.03660 6.06263 3.19854
#
# Compressibility (1/GPa) = 0.03926196
#
# Stress axis : x y z
#
# Youngs Moduli (GPa) = 26.66952 126.97538 88.59593
#
# Poissons Ratio (x) = 0.73313 0.10188
# Poissons Ratio (y) = 0.15398 0.15723
# Poissons Ratio (z) = 0.03067 0.22534
#
# Static dielectric constant tensor:
#      x y z
#    x 1.646790 0.000000 0.000000 
#    y 0.000000 1.767040 0.000000 
#    z 0.000000 0.000000 1.762280 
# 
# From -- ./inp_files/5721.got.cif
#   From: 2010.05.17/outbox.cif.g08.bks.cpg/sg73_3_cif.got.tgz:5721.got - 2010.06.03 17:35:07.
