data_PCOD9529142
_publ_section_title
;
Structure prediction by ZEFSAII (Michael W. Deem and Ramdas Pophale) SiO2 
 PCOD9529142
Probable space group: I B A M
;
_chemical_formula_sum "Si O2"
_cell_formula_units_Z 64
_cell_length_a 5.104279
_cell_length_b 36.546852
_cell_length_c 14.904961
_cell_angle_alpha 90.000000
_cell_angle_beta 90.000000
_cell_angle_gamma 90.000000
_cell_volume 2780.450856
_symmetry_space_group_name_H-M "I B A M"
_symmetry_group_IT_number 72
_symmetry_cell_setting 'orthorhombic'
loop_
_space_group_symop_operation_xyz
x,y,z
-x,-y,z
x,-y,1/2-z
-x,y,1/2-z
-x,-y,-z
x,y,-z
-x,y,1/2+z
x,-y,1/2+z
1/2+x,1/2+y,1/2+z
1/2-x,1/2-y,1/2+z
1/2+x,1/2-y,-z
1/2-x,1/2+y,-z
1/2-x,1/2-y,1/2-z
1/2+x,1/2+y,1/2-z
1/2-x,1/2+y,z
1/2+x,1/2-y,z
loop_
_atom_site_type_symbol
_atom_site_label
_atom_site_fract_x
_atom_site_fract_y
_atom_site_fract_z
Si Si1 0.610748 0.897588 0.101470
Si Si2 0.104096 0.147150 0.351358
Si Si3 0.019757 0.770703 0.859215
Si Si4 0.239719 0.976030 0.606019
O O1 0.377960 0.874198 0.144890
O O2 0.692215 0.936265 0.145414
O O3 0.875916 0.874436 0.098377
O O4 0.515310 0.905396 0.000000
O O5 0.000000 0.148585 0.250000
O O6 0.115931 0.188925 0.384469
O O7 0.731639 0.759153 0.889365
O O8 0.000000 0.769897 0.750000
O O9 0.175362 0.969376 0.500000
O O10 0.500000 0.000000 0.611055
O O11 0.000000 0.000000 0.643004
#
# Coordination Sequence:
#
# PCOD9529142 Si02
#       4
#    16  16  16  16
#     4  11  22  37  59  86 117 151 189 238 291 343
#     4  11  22  37  59  86 116 150 190 238 291 346
#     4   9  17  31  53  79 105 140 191 240 275 323
#     4   9  17  31  53  80 107 140 187 232 265 313
#
# _framework density 23.017852000000001
#
# number of rings (size 3 to 8) (size 9 to 14) (size 15 to 20)
#    0.000    2.000    0.000    4.500    0.000    8.000 
#    0.000    0.000    0.000   26.250    0.000    0.000 
#    0.000    0.000    0.000    0.000    0.000    0.250 
#
# Total GULP energy -178829.016308 kJ/mol
# GULP energy per Si atom -5588.406760 kJ/mol
# Density = 2.296546 g / cm^3
# Si number density = 23.017852 Si / 1000 Ang^3
#
#
#
# Elastic Constant Matrix: (Units=GPa)
#
#
# Indices 1 2 3 4 5 6 
#
# 1 155.1862 75.6775 3.4617 0.0000 0.0000 0.0000
# 2 75.6775 185.1522 6.2751 0.0000 0.0000 0.0000
# 3 3.4617 6.2751 50.7124 0.0000 0.0000 0.0000
# 4 0.0000 0.0000 0.0000 22.7314 0.0000 0.0000
# 5 0.0000 0.0000 0.0000 0.0000 3.8955 0.0000
# 6 0.0000 0.0000 0.0000 0.0000 0.0000 43.9403
#
#
#
# Elastic Compliance Matrix: (Units=1/GPa)
#
#
# Indices 1 2 3 4 5 6 
#
# 1 0.008049 -0.003285 -0.000143 0.000000 0.000000 0.000000
# 2 -0.003285 0.006764 -0.000613 0.000000 0.000000 0.000000
# 3 -0.000143 -0.000613 0.019805 0.000000 0.000000 0.000000
# 4 0.000000 0.000000 0.000000 0.043992 0.000000 0.000000
# 5 0.000000 0.000000 0.000000 0.000000 0.256705 0.000000
# 6 0.000000 0.000000 0.000000 0.000000 0.000000 0.022758
#
#
# Mechanical properties :
#
#
# Convention : Reuss Voigt Hill
#
# Bulk Modulus (GPa) = 37.68391 62.43104 50.05748
# Shear Modulus (GPa) = 13.33331 34.48920 23.91126
#
# Velocity S-wave (km/s) = 2.40939 3.87507 3.22656
# Velocity P-wave (km/s) = 4.91400 6.87047 5.97289
#
# Compressibility (1/GPa) = 0.02653652
#
# Stress axis : x y z
#
# Youngs Moduli (GPa) = 124.23853 147.83212 50.49327
#
# Poissons Ratio (x) = 0.48564 0.00722
# Poissons Ratio (y) = 0.40813 0.03094
# Poissons Ratio (z) = 0.01776 0.09059
#
# Static dielectric constant tensor:
#      x y z
#    x 1.776480 0.000000 0.000000 
#    y 0.000000 1.863720 0.000000 
#    z 0.000000 0.000000 1.966820 
# 
# From -- ./inp_files/27023.got.cif
#   From: 2010.05.17/outbox.cif.g08.bks.cpg/sg72_14_cif.got.tgz:27023.got - 2010.06.03 17:03:01.
