data_PCOD9529552
_publ_section_title
;
Structure prediction by ZEFSAII (Michael W. Deem and Ramdas Pophale) SiO2 
 PCOD9529552
Probable space group: I B A M
;
_chemical_formula_sum "Si O2"
_cell_formula_units_Z 56
_cell_length_a 12.000000
_cell_length_b 30.000000
_cell_length_c 15.000000
_cell_angle_alpha 90.000000
_cell_angle_beta 90.000000
_cell_angle_gamma 90.000000
_cell_volume 5400.000000
_symmetry_space_group_name_H-M "I B A M"
_symmetry_group_IT_number 72
_symmetry_cell_setting 'orthorhombic'
loop_
_space_group_symop_operation_xyz
x,y,z
-x,-y,z
x,-y,1/2-z
-x,y,1/2-z
-x,-y,-z
x,y,-z
-x,y,1/2+z
x,-y,1/2+z
1/2+x,1/2+y,1/2+z
1/2-x,1/2-y,1/2+z
1/2+x,1/2-y,-z
1/2-x,1/2+y,-z
1/2-x,1/2-y,1/2-z
1/2+x,1/2+y,1/2-z
1/2-x,1/2+y,z
1/2+x,1/2-y,z
loop_
_atom_site_type_symbol
_atom_site_label
_atom_site_fract_x
_atom_site_fract_y
_atom_site_fract_z
Si Si1 0.133854 0.305478 0.102577
Si Si2 0.873018 0.068716 0.238670
Si Si3 0.654634 0.327325 0.716149
Si Si4 0.057322 0.204275 0.895193
Si Si5 0.209539 0.436097 0.602943
Si Si6 0.992211 0.606140 0.892806
Si Si7 0.803610 0.462819 0.396428
O O1 0.230675 0.311212 0.174119
O O2 0.081543 0.256804 0.104568
O O3 0.045318 0.343902 0.122866
O O4 0.174749 0.313539 0.000000
O O5 0.863725 0.119922 0.207220
O O6 0.814811 0.065628 0.334209
O O7 0.803027 0.041251 0.166630
O O8 0.000000 0.055513 0.250000
O O9 0.559809 0.305246 0.653566
O O10 0.641632 0.316468 0.821475
O O11 0.062441 0.189287 0.000000
O O12 0.236682 0.425815 0.500000
O O13 0.158779 0.485978 0.605305
O O14 0.114530 0.404144 0.641574
O O15 0.897989 0.571219 0.863186
O O16 0.000009 0.599195 0.000000
O O17 0.777289 0.451804 0.500000
#
# Coordination Sequence:
#
# PCOD9529552 Si02
#       7
#    16  16  16  16  16  16  16
#     4  10  20  39  67  97 129 166 209 257 317 389
#     4  12  25  43  62  91 125 171 224 265 312 379
#     4  11  22  43  62  91 127 168 214 268 322 381
#     4  10  22  40  63  92 125 167 217 267 323 380
#     4  10  23  42  64  96 132 163 206 268 327 380
#     4   9  18  38  67  98 129 161 203 255 320 391
#     4  10  21  40  68  95 126 169 210 260 323 387
#
# _framework density 10.370369999999999
#
# number of rings (size 3 to 8) (size 9 to 14) (size 15 to 20)
#    0.000    1.714    2.857    1.714    0.000    5.143 
#    7.714    2.857    0.000    0.000    0.000    0.000 
#    0.000    0.000    0.000    0.000    0.000    0.000 
#
# Total GULP energy -312749.397822 kJ/mol
# GULP energy per Si atom -5584.810675 kJ/mol
# Density = 1.034677 g / cm^3
# Si number density = 10.370370 Si / 1000 Ang^3
#
#
#
# Elastic Constant Matrix: (Units=GPa)
#
#
# Indices 1 2 3 4 5 6 
#
# 1 91.0024 25.0284 49.5275 0.0001 0.0000 -0.0005
# 2 25.0284 51.9926 18.3345 0.0001 -0.0001 -0.0005
# 3 49.5275 18.3345 126.5157 0.0004 -0.0003 0.0027
# 4 0.0001 0.0001 0.0004 29.4085 -0.0001 0.0004
# 5 0.0000 -0.0001 -0.0003 -0.0001 44.8984 0.0001
# 6 -0.0005 -0.0005 0.0027 0.0004 0.0001 375.4862
#
#
#
# Elastic Compliance Matrix: (Units=1/GPa)
#
#
# Indices 1 2 3 4 5 6 
#
# 1 0.015348 -0.005553 -0.005204 0.000000 0.000000 0.000000
# 2 -0.005553 0.022279 -0.001055 0.000000 0.000000 0.000000
# 3 -0.005204 -0.001055 0.010094 0.000000 0.000000 0.000000
# 4 0.000000 0.000000 0.000000 0.034004 0.000000 0.000000
# 5 0.000000 0.000000 0.000000 0.000000 0.022273 0.000000
# 6 0.000000 0.000000 0.000000 0.000000 0.000000 0.002663
#
#
# Mechanical properties :
#
#
# Convention : Reuss Voigt Hill
#
# Bulk Modulus (GPa) = 41.49766 50.58793 46.04280
# Shear Modulus (GPa) = 36.14914 101.73331 68.94122
#
# Velocity S-wave (km/s) = 4.17934 7.01117 5.77163
# Velocity P-wave (km/s) = 6.58334 9.48607 8.16474
#
# Compressibility (1/GPa) = 0.02409774
#
# Stress axis : x y z
#
# Youngs Moduli (GPa) = 65.15484 44.88600 99.06830
#
# Poissons Ratio (x) = 0.24927 0.51551
# Poissons Ratio (y) = 0.36183 0.10448
# Poissons Ratio (z) = 0.33904 0.04734
#
# Static dielectric constant tensor:
#      x y z
#    x 1.745590 0.000000 0.000000 
#    y 0.000000 1.740030 0.000000 
#    z 0.000000 0.000000 1.743510 
# 
# From -- ./inp_files/20751.got.cif
#   From: 2010.05.17/outbox.ucp.g08.bks.cvg/sg72_11_cif.got.tgz:20751.got - 2010.06.11 16:33:07.
