data_PCOD9529183
_publ_section_title
;
Structure prediction by ZEFSAII (Michael W. Deem and Ramdas Pophale) SiO2 
 PCOD9529183
Probable space group: I B A M
;
_chemical_formula_sum "Si O2"
_cell_formula_units_Z 64
_cell_length_a 18.971800
_cell_length_b 8.087613
_cell_length_c 16.264889
_cell_angle_alpha 90.000000
_cell_angle_beta 90.000000
_cell_angle_gamma 90.000000
_cell_volume 2495.628882
_symmetry_space_group_name_H-M "I B A M"
_symmetry_group_IT_number 72
_symmetry_cell_setting 'orthorhombic'
loop_
_space_group_symop_operation_xyz
x,y,z
-x,-y,z
x,-y,1/2-z
-x,y,1/2-z
-x,-y,-z
x,y,-z
-x,y,1/2+z
x,-y,1/2+z
1/2+x,1/2+y,1/2+z
1/2-x,1/2-y,1/2+z
1/2+x,1/2-y,-z
1/2-x,1/2+y,-z
1/2-x,1/2-y,1/2-z
1/2+x,1/2+y,1/2-z
1/2-x,1/2+y,z
1/2+x,1/2-y,z
loop_
_atom_site_type_symbol
_atom_site_label
_atom_site_fract_x
_atom_site_fract_y
_atom_site_fract_z
Si Si1 0.103193 0.057222 0.656033
Si Si2 0.766523 0.745679 0.405479
Si Si3 0.018965 0.747268 0.594067
Si Si4 0.852212 0.561388 0.157619
O O1 0.176282 0.115488 0.618564
O O2 0.048540 0.211416 0.649790
O O3 0.107933 0.000000 0.750000
O O4 0.067200 0.912110 0.603577
O O5 0.744355 0.758682 0.500000
O O6 0.808895 0.576744 0.391747
O O7 0.698419 0.777183 0.348910
O O8 0.996425 0.726498 0.500000
O O9 0.071593 0.603433 0.621648
O O10 0.857265 0.500000 0.250000
#
# Coordination Sequence:
#
# PCOD9529183 Si02
#       4
#    16  16  16  16
#     4  11  23  42  69 100 136 181 228 282 344 410
#     4  12  24  43  68 100 138 183 232 288 346 410
#     4  11  22  41  66  98 134 180 231 282 339 407
#     4  12  26  44  68 100 139 184 231 286 346 411
#
# _framework density 25.644839999999999
#
# number of rings (size 3 to 8) (size 9 to 14) (size 15 to 20)
#    0.000    0.500    0.000   11.250    0.000    1.000 
#    0.000    5.000    0.000    0.000    0.000    0.000 
#    0.000    0.000    0.000    0.000    0.000    0.000 
#
# Total GULP energy -179688.887502 kJ/mol
# GULP energy per Si atom -5615.277734 kJ/mol
# Density = 2.558647 g / cm^3
# Si number density = 25.644840 Si / 1000 Ang^3
#
#
#
# Elastic Constant Matrix: (Units=GPa)
#
#
# Indices 1 2 3 4 5 6 
#
# 1 133.0026 21.8976 23.7001 0.0000 0.0000 0.0000
# 2 21.8976 96.8740 30.0018 0.0000 0.0000 0.0000
# 3 23.7001 30.0018 149.7371 0.0000 0.0000 0.0000
# 4 0.0000 0.0000 0.0000 34.8763 0.0000 0.0000
# 5 0.0000 0.0000 0.0000 0.0000 98.9085 0.0000
# 6 0.0000 0.0000 0.0000 0.0000 0.0000 54.8903
#
#
#
# Elastic Compliance Matrix: (Units=1/GPa)
#
#
# Indices 1 2 3 4 5 6 
#
# 1 0.007936 -0.001498 -0.000956 0.000000 0.000000 0.000000
# 2 -0.001498 0.011288 -0.002025 0.000000 0.000000 0.000000
# 3 -0.000956 -0.002025 0.007235 0.000000 0.000000 0.000000
# 4 0.000000 0.000000 0.000000 0.028673 0.000000 0.000000
# 5 0.000000 0.000000 0.000000 0.000000 0.010110 0.000000
# 6 0.000000 0.000000 0.000000 0.000000 0.000000 0.018218
#
#
# Mechanical properties :
#
#
# Convention : Reuss Voigt Hill
#
# Bulk Modulus (GPa) = 57.13474 58.97921 58.05697
# Shear Modulus (GPa) = 50.88986 58.00262 54.44624
#
# Velocity S-wave (km/s) = 4.45950 4.76096 4.61270
# Velocity P-wave (km/s) = 6.98884 7.29868 7.14544
#
# Compressibility (1/GPa) = 0.01750249
#
# Stress axis : x y z
#
# Youngs Moduli (GPa) = 126.01479 88.58740 138.21023
#
# Poissons Ratio (x) = 0.13268 0.13212
# Poissons Ratio (y) = 0.18874 0.27983
# Poissons Ratio (z) = 0.12046 0.17936
#
# Static dielectric constant tensor:
#      x y z
#    x 1.979010 0.000000 0.000000 
#    y 0.000000 2.181970 0.000000 
#    z 0.000000 0.000000 1.883720 
# 
# From -- ./inp_files/24746.got.cif
#   From: 2010.05.17/outbox.cif.g08.bks.cpg/sg72_13_cif.got.tgz:24746.got - 2010.06.03 17:03:01.
