data_PCOD9529568
_publ_section_title
;
Structure prediction by ZEFSAII (Michael W. Deem and Ramdas Pophale) SiO2 
 PCOD9529568
Probable space group: I B A M
;
_chemical_formula_sum "Si O2"
_cell_formula_units_Z 56
_cell_length_a 12.000000
_cell_length_b 30.000000
_cell_length_c 15.000000
_cell_angle_alpha 90.000000
_cell_angle_beta 90.000000
_cell_angle_gamma 90.000000
_cell_volume 5400.000000
_symmetry_space_group_name_H-M "I B A M"
_symmetry_group_IT_number 72
_symmetry_cell_setting 'orthorhombic'
loop_
_space_group_symop_operation_xyz
x,y,z
-x,-y,z
x,-y,1/2-z
-x,y,1/2-z
-x,-y,-z
x,y,-z
-x,y,1/2+z
x,-y,1/2+z
1/2+x,1/2+y,1/2+z
1/2-x,1/2-y,1/2+z
1/2+x,1/2-y,-z
1/2-x,1/2+y,-z
1/2-x,1/2-y,1/2-z
1/2+x,1/2+y,1/2-z
1/2-x,1/2+y,z
1/2+x,1/2-y,z
loop_
_atom_site_type_symbol
_atom_site_label
_atom_site_fract_x
_atom_site_fract_y
_atom_site_fract_z
Si Si1 0.128657 0.392839 0.226789
Si Si2 0.790611 0.149733 0.902753
Si Si3 0.112717 0.219976 0.892314
Si Si4 0.755138 0.069822 0.599465
Si Si5 0.974273 0.880312 0.146156
Si Si6 0.878248 0.486830 0.354137
Si Si7 0.366817 0.248229 0.897601
O O1 0.204190 0.356723 0.177339
O O2 0.187189 0.407248 0.319586
O O3 0.133178 0.433885 0.155153
O O4 0.000000 0.382543 0.250000
O O5 0.837783 0.199569 0.898736
O O6 0.902181 0.119606 0.896193
O O7 0.737229 0.143199 0.000000
O O8 0.081319 0.168604 0.869566
O O9 0.243990 0.228831 0.862160
O O10 0.999908 0.249647 0.863526
O O11 0.115056 0.224879 0.000000
O O12 0.723614 0.085591 0.500000
O O13 0.884277 0.083173 0.614183
O O14 0.718802 0.017618 0.605452
O O15 0.000000 0.885949 0.250000
O O16 0.881187 0.500000 0.250000
O O17 0.000000 0.500000 0.391872
O O18 0.375006 0.231232 0.000000
#
# Coordination Sequence:
#
# PCOD9529568 Si02
#       7
#    16  16  16  16  16  16  16
#     4  11  21  40  61  90 124 160 199 252 306 368
#     4  10  21  39  63  86 122 170 209 247 310 376
#     4   9  17  34  58  83 118 159 206 254 307 372
#     4  11  22  37  62  92 118 154 208 254 300 367
#     4  11  21  39  61  86 120 165 206 258 314 363
#     4   9  17  37  59  81 118 155 189 239 303 361
#     4   8  16  33  56  84 116 159 203 251 306 363
#
# _framework density 10.370369999999999
#
# number of rings (size 3 to 8) (size 9 to 14) (size 15 to 20)
#    0.000    2.143    4.286    2.143    0.000    1.429 
#    2.571    4.286    0.000    1.714    0.000    0.000 
#    0.000    0.000    0.000    0.000    0.000    0.000 
#
# Total GULP energy -311744.094790 kJ/mol
# GULP energy per Si atom -5566.858836 kJ/mol
# Density = 1.034677 g / cm^3
# Si number density = 10.370370 Si / 1000 Ang^3
#
#
#
# Elastic Constant Matrix: (Units=GPa)
#
#
# Indices 1 2 3 4 5 6 
#
# 1 130.1473 15.9890 7.7829 0.0000 0.0000 0.0000
# 2 15.9890 26.9853 -0.2225 0.0001 0.0000 0.0000
# 3 7.7829 -0.2225 92.1487 0.0004 0.0000 0.0001
# 4 0.0000 0.0001 0.0004 19.5643 0.0000 0.0000
# 5 0.0000 0.0000 0.0000 0.0000 9.8970 0.0000
# 6 0.0000 0.0000 0.0001 0.0000 0.0000 42.1470
#
#
#
# Elastic Compliance Matrix: (Units=1/GPa)
#
#
# Indices 1 2 3 4 5 6 
#
# 1 0.008334 -0.004944 -0.000716 0.000000 0.000000 0.000000
# 2 -0.004944 0.039991 0.000514 0.000000 0.000000 0.000000
# 3 -0.000716 0.000514 0.010914 0.000000 0.000000 0.000000
# 4 0.000000 0.000000 0.000000 0.051114 0.000000 0.000000
# 5 0.000000 0.000000 0.000000 0.000000 0.101041 0.000000
# 6 0.000000 0.000000 0.000000 0.000000 0.000000 0.023726
#
#
# Mechanical properties :
#
#
# Convention : Reuss Voigt Hill
#
# Bulk Modulus (GPa) = 20.43016 32.93114 26.68065
# Shear Modulus (GPa) = 19.10399 29.37045 24.23722
#
# Velocity S-wave (km/s) = 3.03823 3.76716 3.42216
# Velocity P-wave (km/s) = 4.70950 5.90203 5.33917
#
# Compressibility (1/GPa) = 0.04894724
#
# Stress axis : x y z
#
# Youngs Moduli (GPa) = 119.99394 25.00589 91.62778
#
# Poissons Ratio (x) = 0.12362 0.06559
# Poissons Ratio (y) = 0.59321 -0.04711
# Poissons Ratio (z) = 0.08589 -0.01286
#
# Static dielectric constant tensor:
#      x y z
#    x 1.787180 0.000000 0.000000 
#    y 0.000000 1.811520 0.000000 
#    z 0.000000 0.000000 1.796030 
# 
# From -- ./inp_files/20710.got.cif
#   From: 2010.05.17/outbox.ucp.g08.bks.cvg/sg72_11_cif.got.tgz:20710.got - 2010.06.11 16:33:07.
