data_PCOD9529675
_publ_section_title
;
Structure prediction by ZEFSAII (Michael W. Deem and Ramdas Pophale) SiO2 
 PCOD9529675
Probable space group: I B C A 
;
_chemical_formula_sum "Si O2"
_cell_formula_units_Z 112
_cell_length_a 13.469185
_cell_length_b 22.277477
_cell_length_c 19.233786
_cell_angle_alpha 90.000000
_cell_angle_beta 90.000000
_cell_angle_gamma 90.000000
_cell_volume 5771.279423
_symmetry_space_group_name_H-M "I B C A "
_symmetry_group_IT_number 73
_symmetry_cell_setting 'orthorhombic'
loop_
_space_group_symop_operation_xyz
x,y,z
-x,1/2-y,z
x,-y,1/2-z
1/2-x,y,-z
-x,-y,-z
x,1/2+y,-z
-x,y,1/2+z
1/2+x,-y,z
1/2+x,1/2+y,1/2+z
1/2-x,-y,1/2+z
1/2+x,1/2-y,-z
-x,1/2+y,1/2-z
1/2-x,1/2-y,1/2-z
1/2+x,y,1/2-z
1/2-x,1/2+y,z
x,1/2-y,1/2+z
loop_
_atom_site_type_symbol
_atom_site_label
_atom_site_fract_x
_atom_site_fract_y
_atom_site_fract_z
Si Si1 0.008354 0.869310 0.050222
Si Si2 0.763846 0.433874 0.139437
Si Si3 0.895460 0.905774 0.418733
Si Si4 0.103757 0.000000 0.250000
Si Si5 0.250000 0.494448 0.000000
Si Si6 0.456421 0.476480 0.640357
Si Si7 0.295659 0.686815 0.922451
Si Si8 0.277809 0.676722 0.417388
O O1 0.111065 0.849445 0.086777
O O2 0.983443 0.937387 0.072803
O O3 0.912579 0.830089 0.070493
O O4 0.031731 0.868008 0.968025
O O5 0.833056 0.457932 0.199655
O O6 0.653988 0.456698 0.158974
O O7 0.756402 0.363463 0.124688
O O8 0.786489 0.465490 0.064652
O O9 0.809322 0.864562 0.385324
O O10 0.834587 0.951192 0.469602
O O11 0.954263 0.951968 0.370762
O O12 0.033786 0.038549 0.300198
O O13 0.279522 0.754123 0.895661
O O14 0.250000 0.682594 0.000000
O O15 0.250000 0.676471 0.500000
#
# Coordination Sequence:
#
# PCOD9529675 Si02
#       8
#    16  16  16   8   8  16  16  16
#     4  10  18  33  55  87 115 155 192 244 297 358
#     4  10  22  37  58  86 120 154 193 259 301 368
#     4  10  18  32  55  86 121 147 191 242 310 364
#     4  12  24  38  58  82 120 160 196 246 322 360
#     4  10  16  34  58  86 116 146 190 242 318 356
#     4  10  23  34  54  85 109 151 199 240 302 370
#     4  10  20  33  54  87 123 154 202 244 299 357
#     4   9  18  33  54  85 122 159 186 243 305 361
#
# _framework density 19.406441999999998
#
# number of rings (size 3 to 8) (size 9 to 14) (size 15 to 20)
#    0.000    2.000    2.857    2.143    4.000    0.000 
#    0.000    0.000    0.000    0.857    7.429    0.000 
#    0.000    0.000    0.000    0.000    0.000    0.000 
#
# Total GULP energy -312468.188271 kJ/mol
# GULP energy per Si atom -5579.789076 kJ/mol
# Density = 1.936227 g / cm^3
# Si number density = 19.406442 Si / 1000 Ang^3
#
#
#
# Elastic Constant Matrix: (Units=GPa)
#
#
# Indices 1 2 3 4 5 6 
#
# 1 102.6719 46.6063 42.4955 0.0000 0.0000 0.0000
# 2 46.6063 137.0124 28.4842 0.0000 0.0000 0.0000
# 3 42.4955 28.4842 51.7457 0.0000 0.0000 0.0000
# 4 0.0000 0.0000 0.0000 9.4847 0.0000 0.0000
# 5 0.0000 0.0000 0.0000 0.0000 28.1082 0.0000
# 6 0.0000 0.0000 0.0000 0.0000 0.0000 -16.5936
#
#
#
# Elastic Compliance Matrix: (Units=1/GPa)
#
#
# Indices 1 2 3 4 5 6 
#
# 1 0.015790 -0.003021 -0.011304 0.000000 0.000000 0.000000
# 2 -0.003021 0.008820 -0.002374 0.000000 0.000000 0.000000
# 3 -0.011304 -0.002374 0.029916 0.000000 0.000000 0.000000
# 4 0.000000 0.000000 0.000000 0.105433 0.000000 0.000000
# 5 0.000000 0.000000 0.000000 0.000000 0.035577 0.000000
# 6 0.000000 0.000000 0.000000 0.000000 0.000000 -0.060264
#
#
# Mechanical properties :
#
#
# Convention : Reuss Voigt Hill
#
# Bulk Modulus (GPa) = 47.33358 58.51134 52.92246
# Shear Modulus (GPa) = 28.45575 15.78947 22.12261
#
# Velocity S-wave (km/s) = 3.83339 2.85550 3.38000
# Velocity P-wave (km/s) = 6.63602 6.40997 6.52398
#
# Compressibility (1/GPa) = 0.02112665
#
# Stress axis : x y z
#
# Youngs Moduli (GPa) = 63.33151 113.38144 33.42729
#
# Poissons Ratio (x) = 0.34253 0.37787
# Poissons Ratio (y) = 0.19132 0.07936
# Poissons Ratio (z) = 0.71592 0.26917
#
# Static dielectric constant tensor:
#      x y z
#    x 1.719240 0.000000 0.000000 
#    y 0.000000 1.699500 0.000000 
#    z 0.000000 0.000000 1.719860 
# 
# From -- ./inp_files/25597.got.cif
#   From: 2010.05.17/outbox.cif.g08.bks.cpg/sg73_13_cif.got.tgz:25597.got - 2010.06.03 17:35:07.
