data_PCOD9529264
_publ_section_title
;
Structure prediction by ZEFSAII (Michael W. Deem and Ramdas Pophale) SiO2 
 PCOD9529264
Probable space group: I B A M
;
_chemical_formula_sum "Si O2"
_cell_formula_units_Z 56
_cell_length_a 10.612059
_cell_length_b 15.573310
_cell_length_c 13.714997
_cell_angle_alpha 90.000000
_cell_angle_beta 90.000000
_cell_angle_gamma 90.000000
_cell_volume 2266.607396
_symmetry_space_group_name_H-M "I B A M"
_symmetry_group_IT_number 72
_symmetry_cell_setting 'orthorhombic'
loop_
_space_group_symop_operation_xyz
x,y,z
-x,-y,z
x,-y,1/2-z
-x,y,1/2-z
-x,-y,-z
x,y,-z
-x,y,1/2+z
x,-y,1/2+z
1/2+x,1/2+y,1/2+z
1/2-x,1/2-y,1/2+z
1/2+x,1/2-y,-z
1/2-x,1/2+y,-z
1/2-x,1/2-y,1/2-z
1/2+x,1/2+y,1/2-z
1/2-x,1/2+y,z
1/2+x,1/2-y,z
loop_
_atom_site_type_symbol
_atom_site_label
_atom_site_fract_x
_atom_site_fract_y
_atom_site_fract_z
Si Si1 0.134627 0.693487 0.209227
Si Si2 0.786150 0.940240 0.326061
Si Si3 0.041992 0.897819 0.000000
Si Si4 0.483037 0.792185 0.500000
Si Si5 0.866223 0.460879 0.500000
O O1 0.250000 0.750000 0.250000
O O2 0.178085 0.606583 0.263337
O O3 0.104830 0.690588 0.094553
O O4 0.000000 0.723663 0.250000
O O5 0.878324 0.888940 0.398787
O O6 0.710058 0.991213 0.407474
O O7 0.856985 0.000000 0.250000
O O8 0.967039 0.807194 0.000000
O O9 0.000000 0.000000 0.000000
O O10 0.602408 0.858132 0.500000
O O11 0.000000 0.500000 0.500000
#
# Coordination Sequence:
#
# PCOD9529264 Si02
#       5
#    16  16   8   8   8
#     4  12  26  46  78 114 153 204 255 327 395 473
#     4  11  25  46  71 109 153 195 262 324 396 465
#     4  11  27  51  72 103 157 214 265 322 394 484
#     4  12  24  46  82 112 157 198 270 313 405 475
#     4  11  23  43  74 109 147 193 247 324 392 468
#
# _framework density 24.706529
#
# number of rings (size 3 to 8) (size 9 to 14) (size 15 to 20)
#    0.000    0.571    5.714    1.714    0.000    5.143 
#    0.000    2.857    0.000    0.000    0.000    0.000 
#    0.000    0.000    0.000    0.000    0.000    0.000 
#
# Total GULP energy -156057.163665 kJ/mol
# GULP energy per Si atom -5573.470131 kJ/mol
# Density = 2.465030 g / cm^3
# Si number density = 24.706529 Si / 1000 Ang^3
#
#
#
# Elastic Constant Matrix: (Units=GPa)
#
#
# Indices 1 2 3 4 5 6 
#
# 1 111.6209 14.2505 45.0116 0.0000 0.0000 0.0000
# 2 14.2505 71.5014 20.5989 0.0000 0.0000 0.0000
# 3 45.0116 20.5989 239.8737 0.0000 0.0000 0.0000
# 4 0.0000 0.0000 0.0000 23.4532 0.0000 0.0000
# 5 0.0000 0.0000 0.0000 0.0000 -13.4380 0.0000
# 6 0.0000 0.0000 0.0000 0.0000 0.0000 41.8343
#
#
#
# Elastic Compliance Matrix: (Units=1/GPa)
#
#
# Indices 1 2 3 4 5 6 
#
# 1 0.009840 -0.001465 -0.001721 0.000000 0.000000 0.000000
# 2 -0.001465 0.014559 -0.000975 0.000000 0.000000 0.000000
# 3 -0.001721 -0.000975 0.004575 0.000000 0.000000 0.000000
# 4 0.000000 0.000000 0.000000 0.042638 0.000000 0.000000
# 5 0.000000 0.000000 0.000000 0.000000 -0.074416 0.000000
# 6 0.000000 0.000000 0.000000 0.000000 0.000000 0.023904
#
#
# Mechanical properties :
#
#
# Convention : Reuss Voigt Hill
#
# Bulk Modulus (GPa) = 48.42246 64.74644 56.58445
# Shear Modulus (GPa) = 137.71658 33.24558 85.48108
#
# Velocity S-wave (km/s) = 7.47409 3.67225 5.88844
# Velocity P-wave (km/s) = 9.70176 6.65159 8.31769
#
# Compressibility (1/GPa) = 0.02065157
#
# Stress axis : x y z
#
# Youngs Moduli (GPa) = 101.62799 68.68720 218.55689
#
# Poissons Ratio (x) = 0.10066 0.37604
# Poissons Ratio (y) = 0.14893 0.21314
# Poissons Ratio (z) = 0.17486 0.06699
#
# Static dielectric constant tensor:
#      x y z
#    x 1.908930 0.000000 0.000000 
#    y 0.000000 2.127740 0.000000 
#    z 0.000000 0.000000 2.581780 
# 
# From -- ./inp_files/19467.got.cif
#   From: 2010.05.17/outbox.cif.g08.bks.cpg/sg72_10_cif.got.tgz:19467.got - 2010.06.03 17:03:01.
