data_PCOD9529621
_publ_section_title
;
Structure prediction by ZEFSAII (Michael W. Deem and Ramdas Pophale) SiO2 
 PCOD9529621
Probable space group: I B C A 
;
_chemical_formula_sum "Si O2"
_cell_formula_units_Z 80
_cell_length_a 21.945832
_cell_length_b 35.006020
_cell_length_c 5.382897
_cell_angle_alpha 90.000000
_cell_angle_beta 90.000000
_cell_angle_gamma 90.000000
_cell_volume 4135.336519
_symmetry_space_group_name_H-M "I B C A "
_symmetry_group_IT_number 73
_symmetry_cell_setting 'orthorhombic'
loop_
_space_group_symop_operation_xyz
x,y,z
-x,1/2-y,z
x,-y,1/2-z
1/2-x,y,-z
-x,-y,-z
x,1/2+y,-z
-x,y,1/2+z
1/2+x,-y,z
1/2+x,1/2+y,1/2+z
1/2-x,-y,1/2+z
1/2+x,1/2-y,-z
-x,1/2+y,1/2-z
1/2-x,1/2-y,1/2-z
1/2+x,y,1/2-z
1/2-x,1/2+y,z
x,1/2-y,1/2+z
loop_
_atom_site_type_symbol
_atom_site_label
_atom_site_fract_x
_atom_site_fract_y
_atom_site_fract_z
Si Si1 0.067844 0.854866 0.161540
Si Si2 0.882081 0.459968 0.596711
Si Si3 0.930959 0.765803 0.787232
Si Si4 0.250000 0.025570 0.500000
Si Si5 0.071162 0.614410 0.160516
Si Si6 0.540444 0.500000 0.750000
O O1 0.064231 0.810551 0.230999
O O2 0.098586 0.876208 0.392757
O O3 0.999848 0.873122 0.135172
O O4 0.096453 0.861053 0.891545
O O5 0.882209 0.500000 0.750000
O O6 0.811385 0.451025 0.553421
O O7 0.918767 0.428745 0.752483
O O8 0.914337 0.465890 0.329287
O O9 0.902112 0.744225 0.552282
O O10 0.000000 0.750000 0.812647
O O11 0.238971 0.000000 0.250000
O O12 0.500000 0.500000 0.500000
#
# Coordination Sequence:
#
# PCOD9529621 Si02
#       6
#    16  16  16   8  16   8
#     4  10  20  33  44  72 107 141 163 205 269 321
#     4  11  25  41  59  79 103 147 193 239 284 326
#     4  10  16  26  47  65  92 136 179 202 230 299
#     4  10  22  42  62  76  98 130 194 254 282 318
#     4  10  21  31  48  66 102 134 167 208 267 325
#     4  12  26  36  56  82 114 130 182 226 282 336
#
# _framework density 19.345464
#
# number of rings (size 3 to 8) (size 9 to 14) (size 15 to 20)
#    0.000    1.600    2.000    6.000    8.400    0.000 
#    0.000    0.000    0.000    0.000    0.000    0.000 
#    0.000    0.000    0.000   66.600    0.000    0.000 
#
# Total GULP energy -222907.381008 kJ/mol
# GULP energy per Si atom -5572.684525 kJ/mol
# Density = 1.930143 g / cm^3
# Si number density = 19.345464 Si / 1000 Ang^3
#
#
#
# Elastic Constant Matrix: (Units=GPa)
#
#
# Indices 1 2 3 4 5 6 
#
# 1 56.5543 9.1079 5.1799 0.0000 0.0007 0.0002
# 2 9.1079 74.0909 -15.4365 0.0000 -0.0001 0.0001
# 3 5.1799 -15.4365 125.1726 -0.0011 0.0086 0.0034
# 4 0.0000 0.0000 -0.0011 36.1552 -0.0009 0.0000
# 5 0.0007 -0.0001 0.0086 -0.0009 3.1952 0.0014
# 6 0.0002 0.0001 0.0034 0.0000 0.0014 2.3911
#
#
#
# Elastic Compliance Matrix: (Units=1/GPa)
#
#
# Indices 1 2 3 4 5 6 
#
# 1 0.018174 -0.002454 -0.001055 0.000000 -0.000001 0.000000
# 2 -0.002454 0.014184 0.001851 0.000000 -0.000004 -0.000003
# 3 -0.001055 0.001851 0.008261 0.000000 -0.000022 -0.000012
# 4 0.000000 0.000000 0.000000 0.027659 0.000008 0.000000
# 5 -0.000001 -0.000004 -0.000022 0.000008 0.312971 -0.000188
# 6 0.000000 -0.000003 -0.000012 0.000000 -0.000188 0.418211
#
#
# Mechanical properties :
#
#
# Convention : Reuss Voigt Hill
#
# Bulk Modulus (GPa) = 26.80717 28.16891 27.48804
# Shear Modulus (GPa) = 6.13339 25.47940 15.80640
#
# Velocity S-wave (km/s) = 1.78251 3.63309 2.86153
# Velocity P-wave (km/s) = 4.25718 5.67377 5.01574
#
# Compressibility (1/GPa) = 0.03730346
#
# Stress axis : x y z
#
# Youngs Moduli (GPa) = 55.02391 70.50103 121.05283
#
# Poissons Ratio (x) = 0.17300 0.12767
# Poissons Ratio (y) = 0.13502 -0.22404
# Poissons Ratio (z) = 0.05803 -0.13048
#
# Static dielectric constant tensor:
#      x y z
#    x 1.715150 0.000000 0.000000 
#    y 0.000000 1.726500 0.000000 
#    z 0.000000 0.000000 1.829900 
# 
# From -- ./inp_files/2239.got.cif
#   From: 2010.05.17/outbox.cif.g08.bks.cpg/sg73_2_cif.got.tgz:2239.got - 2010.06.03 17:35:07.
