data_PCOD9529136
_publ_section_title
;
Structure prediction by ZEFSAII (Michael W. Deem and Ramdas Pophale) SiO2 
 PCOD9529136
Probable space group: I B A M
;
_chemical_formula_sum "Si O2"
_cell_formula_units_Z 88
_cell_length_a 14.000604
_cell_length_b 23.220993
_cell_length_c 14.601455
_cell_angle_alpha 90.000000
_cell_angle_beta 90.000000
_cell_angle_gamma 90.000000
_cell_volume 4747.048773
_symmetry_space_group_name_H-M "I B A M"
_symmetry_group_IT_number 72
_symmetry_cell_setting 'orthorhombic'
loop_
_space_group_symop_operation_xyz
x,y,z
-x,-y,z
x,-y,1/2-z
-x,y,1/2-z
-x,-y,-z
x,y,-z
-x,y,1/2+z
x,-y,1/2+z
1/2+x,1/2+y,1/2+z
1/2-x,1/2-y,1/2+z
1/2+x,1/2-y,-z
1/2-x,1/2+y,-z
1/2-x,1/2-y,1/2-z
1/2+x,1/2+y,1/2-z
1/2-x,1/2+y,z
1/2+x,1/2-y,z
loop_
_atom_site_type_symbol
_atom_site_label
_atom_site_fract_x
_atom_site_fract_y
_atom_site_fract_z
Si Si1 0.104334 0.570262 0.644011
Si Si2 0.208194 0.359800 0.500000
Si Si3 0.614400 0.940524 0.863757
Si Si4 0.900461 0.777342 0.704762
Si Si5 0.700943 0.186563 0.175063
Si Si6 0.559493 0.755585 0.000000
Si Si7 0.664348 0.258424 0.000000
O O1 0.134093 0.506969 0.610260
O O2 0.111373 0.564811 0.754396
O O3 0.164139 0.627906 0.629063
O O4 0.994824 0.576309 0.611361
O O5 0.189119 0.399280 0.411993
O O6 0.122877 0.312975 0.500000
O O7 0.307105 0.325335 0.500000
O O8 0.805949 0.815981 0.719685
O O9 0.871474 0.715350 0.750922
O O10 0.917131 0.774261 0.596344
O O11 0.000000 0.795851 0.750000
O O12 0.707324 0.232250 0.092524
O O13 0.445405 0.760284 0.000000
#
# Coordination Sequence:
#
# PCOD9529136 Si02
#       7
#    16   8  16  16  16   8   8
#     4   9  19  35  54  79 109 147 188 231 278 355
#     4  12  22  36  53  80 116 149 181 238 278 352
#     4   9  20  34  53  80 110 147 184 227 294 334
#     4  11  23  36  56  84 118 159 192 232 295 346
#     4  11  22  36  57  85 117 156 194 235 290 349
#     4  12  22  38  53  82 119 147 191 239 283 343
#     4  12  24  35  54  87 114 153 197 231 292 350
#
# _framework density 18.537834
#
# number of rings (size 3 to 8) (size 9 to 14) (size 15 to 20)
#    0.000    1.455    3.636    3.273    5.091    2.182 
#    0.000    0.000    0.000    0.000    0.000   10.182 
#    0.000    0.000    0.000    0.000    0.000    0.000 
#
# Total GULP energy -245383.160440 kJ/mol
# GULP energy per Si atom -5576.890010 kJ/mol
# Density = 1.849564 g / cm^3
# Si number density = 18.537834 Si / 1000 Ang^3
#
#
#
# Elastic Constant Matrix: (Units=GPa)
#
#
# Indices 1 2 3 4 5 6 
#
# 1 84.6537 15.0278 3.1786 0.0000 0.0000 0.0000
# 2 15.0278 76.4222 5.3586 -0.0002 0.0002 0.0000
# 3 3.1786 5.3586 96.1236 -0.0003 0.0003 0.0001
# 4 0.0000 -0.0002 -0.0003 18.0852 0.0003 0.0000
# 5 0.0000 0.0002 0.0003 0.0003 29.8730 0.0000
# 6 0.0000 0.0000 0.0001 0.0000 0.0000 30.4425
#
#
#
# Elastic Compliance Matrix: (Units=1/GPa)
#
#
# Indices 1 2 3 4 5 6 
#
# 1 0.012247 -0.002389 -0.000272 0.000000 0.000000 0.000000
# 2 -0.002389 0.013603 -0.000679 0.000000 0.000000 0.000000
# 3 -0.000272 -0.000679 0.010450 0.000000 0.000000 0.000000
# 4 0.000000 0.000000 0.000000 0.055294 0.000000 0.000000
# 5 0.000000 0.000000 0.000000 0.000000 0.033475 0.000000
# 6 0.000000 0.000000 0.000000 0.000000 0.000000 0.032849
#
#
# Mechanical properties :
#
#
# Convention : Reuss Voigt Hill
#
# Bulk Modulus (GPa) = 33.76178 33.81437 33.78807
# Shear Modulus (GPa) = 28.65797 31.25577 29.95687
#
# Velocity S-wave (km/s) = 3.93608 4.11061 4.02429
# Velocity P-wave (km/s) = 6.23770 6.38826 6.31343
#
# Compressibility (1/GPa) = 0.02961930
#
# Stress axis : x y z
#
# Youngs Moduli (GPa) = 81.65144 73.51500 95.69262
#
# Poissons Ratio (x) = 0.17565 0.02601
# Poissons Ratio (y) = 0.19509 0.06500
# Poissons Ratio (z) = 0.02219 0.04994
#
# Static dielectric constant tensor:
#      x y z
#    x 1.665070 0.000000 0.000000 
#    y 0.000000 1.662910 0.000000 
#    z 0.000000 0.000000 1.707530 
# 
# From -- ./inp_files/22017.got.cif
#   From: 2010.05.17/outbox.cif.g08.bks.cpg/sg72_12_cif.got.tgz:22017.got - 2010.06.03 17:03:01.
