data_PCOD9529429
_publ_section_title
;
Structure prediction by ZEFSAII (Michael W. Deem and Ramdas Pophale) SiO2 
 PCOD9529429
Probable space group: I B A M
;
_chemical_formula_sum "Si O2"
_cell_formula_units_Z 64
_cell_length_a 31.946949
_cell_length_b 9.735820
_cell_length_c 10.058846
_cell_angle_alpha 90.000000
_cell_angle_beta 90.000000
_cell_angle_gamma 90.000000
_cell_volume 3128.600307
_symmetry_space_group_name_H-M "I B A M"
_symmetry_group_IT_number 72
_symmetry_cell_setting 'orthorhombic'
loop_
_space_group_symop_operation_xyz
x,y,z
-x,-y,z
x,-y,1/2-z
-x,y,1/2-z
-x,-y,-z
x,y,-z
-x,y,1/2+z
x,-y,1/2+z
1/2+x,1/2+y,1/2+z
1/2-x,1/2-y,1/2+z
1/2+x,1/2-y,-z
1/2-x,1/2+y,-z
1/2-x,1/2-y,1/2-z
1/2+x,1/2+y,1/2-z
1/2-x,1/2+y,z
1/2+x,1/2-y,z
loop_
_atom_site_type_symbol
_atom_site_label
_atom_site_fract_x
_atom_site_fract_y
_atom_site_fract_z
Si Si1 0.539784 0.400860 0.000000
Si Si2 0.592128 0.500000 0.250000
Si Si3 0.344814 0.271027 0.779717
Si Si4 0.197563 0.827519 0.500000
Si Si5 0.219886 0.149651 0.500000
Si Si6 0.043690 0.580074 0.500000
Si Si7 0.601900 0.000000 0.250000
O O1 0.500000 0.500000 0.000000
O O2 0.565226 0.432687 0.866093
O O3 0.531287 0.239618 0.000000
O O4 0.621425 0.613943 0.183201
O O5 0.330445 0.303596 0.629910
O O6 0.304890 0.291299 0.873020
O O7 0.367737 0.125693 0.788848
O O8 0.233999 0.713121 0.500000
O O9 0.216257 0.983166 0.500000
O O10 0.072123 0.544384 0.628118
O O11 0.000000 0.500000 0.500000
#
# Coordination Sequence:
#
# PCOD9529429 Si02
#       7
#     8   8  16   8   8   8   8
#     4  12  28  45  72 104 137 181 231 281 343 410
#     4  12  23  48  73  98 136 178 234 288 331 398
#     4  12  25  45  71  98 133 179 228 279 337 401
#     4  12  26  45  68  99 141 174 227 282 339 406
#     4  12  26  44  68 101 135 181 221 282 343 404
#     4  12  28  48  66 104 145 178 225 283 345 412
#     4  12  27  46  73 100 138 184 226 284 343 410
#
# _framework density 20.456432
#
# number of rings (size 3 to 8) (size 9 to 14) (size 15 to 20)
#    0.000    0.000    5.000    4.500    7.000    2.000 
#    0.000    0.000    0.000    0.000    0.000    0.000 
#    0.000    0.000    0.000    0.000    0.000    0.000 
#
# Total GULP energy -179187.923089 kJ/mol
# GULP energy per Si atom -5599.622597 kJ/mol
# Density = 2.040987 g / cm^3
# Si number density = 20.456432 Si / 1000 Ang^3
#
#
#
# Elastic Constant Matrix: (Units=GPa)
#
#
# Indices 1 2 3 4 5 6 
#
# 1 82.7784 51.0744 9.6553 0.0000 0.0000 0.0000
# 2 51.0744 179.5506 6.3888 0.0000 0.0000 0.0000
# 3 9.6553 6.3888 103.1431 0.0000 0.0000 0.0000
# 4 0.0000 0.0000 0.0000 26.4047 0.0000 0.0000
# 5 0.0000 0.0000 0.0000 0.0000 -55.9762 0.0000
# 6 0.0000 0.0000 0.0000 0.0000 0.0000 50.0293
#
#
#
# Elastic Compliance Matrix: (Units=1/GPa)
#
#
# Indices 1 2 3 4 5 6 
#
# 1 0.014781 -0.004165 -0.001126 0.000000 0.000000 0.000000
# 2 -0.004165 0.006755 -0.000029 0.000000 0.000000 0.000000
# 3 -0.001126 -0.000029 0.009802 0.000000 0.000000 0.000000
# 4 0.000000 0.000000 0.000000 0.037872 0.000000 0.000000
# 5 0.000000 0.000000 0.000000 0.000000 -0.017865 0.000000
# 6 0.000000 0.000000 0.000000 0.000000 0.000000 0.019988
#
#
# Mechanical properties :
#
#
# Convention : Reuss Voigt Hill
#
# Bulk Modulus (GPa) = 48.30669 55.52326 51.91497
# Shear Modulus (GPa) = 56.26035 23.98180 40.12108
#
# Velocity S-wave (km/s) = 5.24997 3.42765 4.43345
# Velocity P-wave (km/s) = 7.77273 6.54723 7.18615
#
# Compressibility (1/GPa) = 0.02070107
#
# Stress axis : x y z
#
# Youngs Moduli (GPa) = 67.65303 148.03582 102.01562
#
# Poissons Ratio (x) = 0.61651 0.11484
# Poissons Ratio (y) = 0.28175 0.00291
# Poissons Ratio (z) = 0.07616 0.00423
#
# Static dielectric constant tensor:
#      x y z
#    x 1.696780 0.000000 0.000000 
#    y 0.000000 1.738940 0.000000 
#    z 0.000000 0.000000 1.759740 
# 
# From -- ./inp_files/16657.got.cif
#   From: 2010.05.17/outbox.cif.g08.bks.cpg/sg72_9_cif.got.tgz:16657.got - 2010.06.03 17:03:01.
