data_PCOD9529133
_publ_section_title
;
Structure prediction by ZEFSAII (Michael W. Deem and Ramdas Pophale) SiO2 
 PCOD9529133
Probable space group: I B A M
;
_chemical_formula_sum "Si O2"
_cell_formula_units_Z 80
_cell_length_a 8.865465
_cell_length_b 27.554284
_cell_length_c 16.558479
_cell_angle_alpha 90.000000
_cell_angle_beta 90.000000
_cell_angle_gamma 90.000000
_cell_volume 4044.930757
_symmetry_space_group_name_H-M "I B A M"
_symmetry_group_IT_number 72
_symmetry_cell_setting 'orthorhombic'
loop_
_space_group_symop_operation_xyz
x,y,z
-x,-y,z
x,-y,1/2-z
-x,y,1/2-z
-x,-y,-z
x,y,-z
-x,y,1/2+z
x,-y,1/2+z
1/2+x,1/2+y,1/2+z
1/2-x,1/2-y,1/2+z
1/2+x,1/2-y,-z
1/2-x,1/2+y,-z
1/2-x,1/2-y,1/2-z
1/2+x,1/2+y,1/2-z
1/2-x,1/2+y,z
1/2+x,1/2-y,z
loop_
_atom_site_type_symbol
_atom_site_label
_atom_site_fract_x
_atom_site_fract_y
_atom_site_fract_z
Si Si1 0.767358 0.268998 0.092814
Si Si2 0.648141 0.909461 0.708755
Si Si3 0.609219 0.641654 0.676292
Si Si4 0.943000 0.949968 0.343834
Si Si5 0.932054 0.692986 0.839277
O O1 0.666082 0.313673 0.124452
O O2 0.720378 0.222723 0.146153
O O3 0.939554 0.285385 0.103558
O O4 0.737122 0.257983 0.000000
O O5 0.500000 0.931559 0.750000
O O6 0.747861 0.883819 0.779605
O O7 0.763296 0.944423 0.662514
O O8 0.596876 0.864306 0.653312
O O9 0.500000 0.657531 0.750000
O O10 0.519155 0.600023 0.626927
O O11 0.000000 0.950903 0.250000
O O12 0.000000 0.000000 0.381599
O O13 0.000000 0.700306 0.750000
#
# Coordination Sequence:
#
# PCOD9529133 Si02
#       5
#    16  16  16  16  16
#     4  12  24  36  51  81 114 146 189 240 284 323
#     4   9  16  31  54  79 107 142 193 221 272 330
#     4   9  18  33  55  78 108 148 182 223 277 337
#     4   8  16  30  52  83 114 135 175 235 285 321
#     4  11  22  36  56  77 108 153 195 228 270 339
#
# _framework density 19.777842
#
# number of rings (size 3 to 8) (size 9 to 14) (size 15 to 20)
#    0.000    2.600    4.000    1.800    5.600    0.000 
#    0.000    8.000    0.000    0.600    0.000    1.400 
#    0.000    0.000    0.000    0.000    0.000    0.000 
#
# Total GULP energy -223039.545982 kJ/mol
# GULP energy per Si atom -5575.988650 kJ/mol
# Density = 1.973283 g / cm^3
# Si number density = 19.777842 Si / 1000 Ang^3
#
#
#
# Elastic Constant Matrix: (Units=GPa)
#
#
# Indices 1 2 3 4 5 6 
#
# 1 124.1177 29.5800 2.5554 0.0001 0.0000 0.0000
# 2 29.5800 75.3215 -0.7242 0.0000 0.0000 0.0000
# 3 2.5554 -0.7242 32.3787 0.0005 0.0000 -0.0002
# 4 0.0001 0.0000 0.0005 -2.9075 0.0000 -0.0001
# 5 0.0000 0.0000 0.0000 0.0000 18.8477 0.0000
# 6 0.0000 0.0000 -0.0002 -0.0001 0.0000 35.4109
#
#
#
# Elastic Compliance Matrix: (Units=1/GPa)
#
#
# Indices 1 2 3 4 5 6 
#
# 1 0.008909 -0.003506 -0.000782 0.000000 0.000000 0.000000
# 2 -0.003506 0.014659 0.000605 0.000000 0.000000 0.000000
# 3 -0.000782 0.000605 0.030960 0.000005 0.000000 0.000000
# 4 0.000000 0.000000 0.000005 -0.343944 0.000001 -0.000001
# 5 0.000000 0.000000 0.000000 0.000001 0.053057 0.000000
# 6 0.000000 0.000000 0.000000 -0.000001 0.000000 0.028240
#
#
# Mechanical properties :
#
#
# Convention : Reuss Voigt Hill
#
# Bulk Modulus (GPa) = 21.20376 32.73782 26.97079
# Shear Modulus (GPa) = -27.02217 23.63066 -1.69575
#
# Velocity S-wave (km/s) = -3.70034 3.46034 -0.92696
# Velocity P-wave (km/s) = 2.74088 5.70561 3.53847
#
# Compressibility (1/GPa) = 0.04716144
#
# Stress axis : x y z
#
# Youngs Moduli (GPa) = 112.25202 68.21689 32.30002
#
# Poissons Ratio (x) = 0.23917 0.02524
# Poissons Ratio (y) = 0.39356 -0.01953
# Poissons Ratio (z) = 0.08773 -0.04124
#
# Static dielectric constant tensor:
#      x y z
#    x 1.761740 0.000000 0.000000 
#    y 0.000000 1.763410 0.000000 
#    z 0.000000 0.000000 1.683260 
# 
# From -- ./inp_files/28332.got.cif
#   From: 2010.05.17/outbox.cif.g08.bks.cpg/sg72_15_cif.got.tgz:28332.got - 2010.06.03 17:03:01.
