data_PCOD9529348
_publ_section_title
;
Structure prediction by ZEFSAII (Michael W. Deem and Ramdas Pophale) SiO2 
 PCOD9529348
Probable space group: I B A M
;
_chemical_formula_sum "Si O2"
_cell_formula_units_Z 88
_cell_length_a 22.784898
_cell_length_b 11.444075
_cell_length_c 15.422107
_cell_angle_alpha 90.000000
_cell_angle_beta 90.000000
_cell_angle_gamma 90.000000
_cell_volume 4021.346503
_symmetry_space_group_name_H-M "I B A M"
_symmetry_group_IT_number 72
_symmetry_cell_setting 'orthorhombic'
loop_
_space_group_symop_operation_xyz
x,y,z
-x,-y,z
x,-y,1/2-z
-x,y,1/2-z
-x,-y,-z
x,y,-z
-x,y,1/2+z
x,-y,1/2+z
1/2+x,1/2+y,1/2+z
1/2-x,1/2-y,1/2+z
1/2+x,1/2-y,-z
1/2-x,1/2+y,-z
1/2-x,1/2-y,1/2-z
1/2+x,1/2+y,1/2-z
1/2-x,1/2+y,z
1/2+x,1/2-y,z
loop_
_atom_site_type_symbol
_atom_site_label
_atom_site_fract_x
_atom_site_fract_y
_atom_site_fract_z
Si Si1 0.147427 0.499131 0.602154
Si Si2 0.335260 0.627975 0.500000
Si Si3 0.221014 0.036699 0.848091
Si Si4 0.095087 0.729127 0.151037
Si Si5 0.985898 0.869111 0.897322
Si Si6 0.364504 0.264886 0.344376
O O1 0.153942 0.481849 0.500000
O O2 0.208918 0.464951 0.646017
O O3 0.098837 0.409494 0.636220
O O4 0.135174 0.634282 0.619814
O O5 0.304047 0.547846 0.422655
O O6 0.369029 0.705951 0.575553
O O7 0.203447 0.000000 0.750000
O O8 0.194944 0.165691 0.864277
O O9 0.124463 0.758083 0.242310
O O10 0.029248 0.778653 0.148106
O O11 0.918356 0.838400 0.883641
O O12 0.998907 0.865842 0.000000
O O13 0.000000 0.000000 0.866524
#
# Coordination Sequence:
#
# PCOD9529348 Si02
#       6
#    16   8  16  16  16  16
#     4  12  28  47  73 105 146 197 240 296 367 431
#     4  12  24  44  75 103 142 194 237 294 363 431
#     4  12  27  45  74 107 147 192 243 304 360 425
#     4  12  25  49  73 103 149 193 238 293 373 429
#     4  11  25  45  76 109 143 184 236 302 364 428
#     4  12  28  45  73 111 143 185 252 298 350 440
#
# _framework density 21.883216999999998
#
# number of rings (size 3 to 8) (size 9 to 14) (size 15 to 20)
#    0.000    0.182    4.545    3.818    7.636    2.909 
#    0.000    3.636    0.000    0.000    0.000    0.000 
#    0.000    0.000    0.000    0.000    0.000    0.000 
#
# Total GULP energy -245380.581518 kJ/mol
# GULP energy per Si atom -5576.831398 kJ/mol
# Density = 2.183341 g / cm^3
# Si number density = 21.883217 Si / 1000 Ang^3
#
#
#
# Elastic Constant Matrix: (Units=GPa)
#
#
# Indices 1 2 3 4 5 6 
#
# 1 59.9547 61.3522 1.0757 0.0000 0.0000 0.0000
# 2 61.3522 109.8189 9.0793 0.0000 0.0000 0.0000
# 3 1.0757 9.0793 80.5728 0.0000 0.0000 0.0000
# 4 0.0000 0.0000 0.0000 22.5068 0.0000 0.0000
# 5 0.0000 0.0000 0.0000 0.0000 -248.1826 0.0000
# 6 0.0000 0.0000 0.0000 0.0000 0.0000 176.0593
#
#
#
# Elastic Compliance Matrix: (Units=1/GPa)
#
#
# Indices 1 2 3 4 5 6 
#
# 1 0.039248 -0.022089 0.001965 0.000000 0.000000 0.000000
# 2 -0.022089 0.021623 -0.002142 0.000000 0.000000 0.000000
# 3 0.001965 -0.002142 0.012626 0.000000 0.000000 0.000000
# 4 0.000000 0.000000 0.000000 0.044431 0.000000 0.000000
# 5 0.000000 0.000000 0.000000 0.000000 -0.004029 0.000000
# 6 0.000000 0.000000 0.000000 0.000000 0.000000 0.005680
#
#
# Mechanical properties :
#
#
# Convention : Reuss Voigt Hill
#
# Bulk Modulus (GPa) = 34.52289 43.70675 39.11482
# Shear Modulus (GPa) = 28.77438 1.99929 15.38684
#
# Velocity S-wave (km/s) = 3.63010 0.95687 2.65454
# Velocity P-wave (km/s) = 5.77757 4.60835 5.22577
#
# Compressibility (1/GPa) = 0.02896629
#
# Stress axis : x y z
#
# Youngs Moduli (GPa) = 25.47911 46.24634 79.20016
#
# Poissons Ratio (x) = 1.02153 -0.15564
# Poissons Ratio (y) = 0.56281 0.16962
# Poissons Ratio (z) = -0.05007 0.09905
#
# Static dielectric constant tensor:
#      x y z
#    x 1.813010 0.000000 0.000000 
#    y 0.000000 1.796950 0.000000 
#    z 0.000000 0.000000 1.787570 
# 
# From -- ./inp_files/24991.got.cif
#   From: 2010.05.17/outbox.cif.g08.bks.cpg/sg72_13_cif.got.tgz:24991.got - 2010.06.03 17:03:01.
