data_PCOD9529361
_publ_section_title
;
Structure prediction by ZEFSAII (Michael W. Deem and Ramdas Pophale) SiO2 
 PCOD9529361
Probable space group: I B A M
;
_chemical_formula_sum "Si O2"
_cell_formula_units_Z 64
_cell_length_a 7.679415
_cell_length_b 10.770045
_cell_length_c 27.370277
_cell_angle_alpha 90.000000
_cell_angle_beta 90.000000
_cell_angle_gamma 90.000000
_cell_volume 2263.731157
_symmetry_space_group_name_H-M "I B A M"
_symmetry_group_IT_number 72
_symmetry_cell_setting 'orthorhombic'
loop_
_space_group_symop_operation_xyz
x,y,z
-x,-y,z
x,-y,1/2-z
-x,y,1/2-z
-x,-y,-z
x,y,-z
-x,y,1/2+z
x,-y,1/2+z
1/2+x,1/2+y,1/2+z
1/2-x,1/2-y,1/2+z
1/2+x,1/2-y,-z
1/2-x,1/2+y,-z
1/2-x,1/2-y,1/2-z
1/2+x,1/2+y,1/2-z
1/2-x,1/2+y,z
1/2+x,1/2-y,z
loop_
_atom_site_type_symbol
_atom_site_label
_atom_site_fract_x
_atom_site_fract_y
_atom_site_fract_z
Si Si1 0.255646 0.942134 0.944683
Si Si2 0.996256 0.802229 0.308196
Si Si3 0.301104 0.006163 0.807567
Si Si4 0.094198 0.686209 0.091064
O O1 0.265037 0.070681 0.912927
O O2 0.140835 0.823365 0.928668
O O3 0.442902 0.875515 0.940898
O O4 0.214445 0.978617 0.000000
O O5 0.831057 0.892617 0.316718
O O6 0.981697 0.715958 0.355412
O O7 0.000000 0.761795 0.250000
O O8 0.177834 0.874457 0.314038
O O9 0.500000 0.000000 0.826075
O O10 0.321613 0.000000 0.750000
#
# Coordination Sequence:
#
# PCOD9529361 Si02
#       4
#    16  16  16  16
#     4  11  25  52  86 121 164 214 281 359 437 522
#     4   9  19  39  70 117 173 224 283 356 417 510
#     4   8  15  33  66 111 162 229 292 348 416 485
#     4  11  25  48  80 124 167 218 281 347 432 519
#
# _framework density 28.271906000000001
#
# number of rings (size 3 to 8) (size 9 to 14) (size 15 to 20)
#    0.000    2.250    0.000    4.500    0.000    5.000 
#    9.000    6.250    0.000    0.000    6.500    0.000 
#    0.000    0.000    0.000    0.000    0.000    0.000 
#
# Total GULP energy -178846.436493 kJ/mol
# GULP energy per Si atom -5588.951140 kJ/mol
# Density = 2.820756 g / cm^3
# Si number density = 28.271906 Si / 1000 Ang^3
#
#
#
# Elastic Constant Matrix: (Units=GPa)
#
#
# Indices 1 2 3 4 5 6 
#
# 1 195.3740 74.9105 44.0554 0.0000 0.0000 0.0000
# 2 74.9105 208.3332 123.1879 0.0000 0.0000 0.0000
# 3 44.0554 123.1879 214.1175 0.0000 0.0000 0.0000
# 4 0.0000 0.0000 0.0000 20.6254 0.0000 0.0000
# 5 0.0000 0.0000 0.0000 0.0000 106.6035 0.0000
# 6 0.0000 0.0000 0.0000 0.0000 0.0000 39.2147
#
#
#
# Elastic Compliance Matrix: (Units=1/GPa)
#
#
# Indices 1 2 3 4 5 6 
#
# 1 0.005937 -0.002141 0.000010 0.000000 0.000000 0.000000
# 2 -0.002141 0.008047 -0.004189 0.000000 0.000000 0.000000
# 3 0.000010 -0.004189 0.007078 0.000000 0.000000 0.000000
# 4 0.000000 0.000000 0.000000 0.048484 0.000000 0.000000
# 5 0.000000 0.000000 0.000000 0.000000 0.009381 0.000000
# 6 0.000000 0.000000 0.000000 0.000000 0.000000 0.025501
#
#
# Mechanical properties :
#
#
# Convention : Reuss Voigt Hill
#
# Bulk Modulus (GPa) = 118.72803 122.45914 120.59358
# Shear Modulus (GPa) = 41.71049 58.33347 50.02198
#
# Velocity S-wave (km/s) = 3.84517 4.54729 4.21089
# Velocity P-wave (km/s) = 7.86130 8.42492 8.14798
#
# Compressibility (1/GPa) = 0.00842261
#
# Stress axis : x y z
#
# Youngs Moduli (GPa) = 168.43803 124.27406 141.27591
#
# Poissons Ratio (x) = 0.26603 -0.00142
# Poissons Ratio (y) = 0.36057 0.59181
# Poissons Ratio (z) = -0.00169 0.52059
#
# Static dielectric constant tensor:
#      x y z
#    x 2.251770 0.000000 0.000000 
#    y 0.000000 2.418740 0.000000 
#    z 0.000000 0.000000 2.076030 
# 
# From -- ./inp_files/35405.got.cif
#   From: 2010.05.17/outbox.cif.g08.bks.cpg/sg72_18_cif.got.tgz:35405.got - 2010.06.03 17:03:01.
