data_PCOD9529138
_publ_section_title
;
Structure prediction by ZEFSAII (Michael W. Deem and Ramdas Pophale) SiO2 
 PCOD9529138
Probable space group: I B A M
;
_chemical_formula_sum "Si O2"
_cell_formula_units_Z 88
_cell_length_a 29.668600
_cell_length_b 12.363937
_cell_length_c 13.150787
_cell_angle_alpha 90.000000
_cell_angle_beta 90.000000
_cell_angle_gamma 90.000000
_cell_volume 4823.980910
_symmetry_space_group_name_H-M "I B A M"
_symmetry_group_IT_number 72
_symmetry_cell_setting 'orthorhombic'
loop_
_space_group_symop_operation_xyz
x,y,z
-x,-y,z
x,-y,1/2-z
-x,y,1/2-z
-x,-y,-z
x,y,-z
-x,y,1/2+z
x,-y,1/2+z
1/2+x,1/2+y,1/2+z
1/2-x,1/2-y,1/2+z
1/2+x,1/2-y,-z
1/2-x,1/2+y,-z
1/2-x,1/2-y,1/2-z
1/2+x,1/2+y,1/2-z
1/2-x,1/2+y,z
1/2+x,1/2-y,z
loop_
_atom_site_type_symbol
_atom_site_label
_atom_site_fract_x
_atom_site_fract_y
_atom_site_fract_z
Si Si1 0.346490 0.401694 0.500000
Si Si2 0.761698 0.580493 0.500000
Si Si3 0.658470 0.944116 0.500000
Si Si4 0.663507 0.358106 0.500000
Si Si5 0.208521 0.742258 0.172857
Si Si6 0.869419 0.273009 0.333369
Si Si7 0.947726 0.376063 0.220868
Si Si8 0.595009 0.154572 0.500000
O O1 0.291965 0.410413 0.500000
O O2 0.360481 0.526445 0.500000
O O3 0.362534 0.333742 0.598142
O O4 0.788232 0.467958 0.500000
O O5 0.779855 0.644146 0.401775
O O6 0.644931 0.872779 0.596014
O O7 0.629979 0.054236 0.500000
O O8 0.695753 0.341356 0.598166
O O9 0.626306 0.262091 0.500000
O O10 0.250000 0.750000 0.250000
O O11 0.164176 0.725872 0.238889
O O12 0.918712 0.295006 0.290113
O O13 0.934838 0.500000 0.250000
O O14 0.000000 0.364642 0.250000
O O15 0.934859 0.354865 0.102799
#
# Coordination Sequence:
#
# PCOD9529138 Si02
#       8
#     8   8   8   8  16  16  16   8
#     4  11  26  40  59  89 127 173 221 261 306 369
#     4  11  22  37  55  89 120 171 212 257 308 375
#     4  11  22  36  65  87 131 165 206 257 324 386
#     4  11  25  42  61  85 128 173 221 262 305 381
#     4  11  22  39  60  87 123 166 218 260 310 373
#     4  11  23  42  62  92 129 167 207 265 327 383
#     4  11  24  41  69 102 129 160 204 264 342 400
#     4  12  21  42  65  93 127 164 205 253 321 386
#
# _framework density 18.242194000000001
#
# number of rings (size 3 to 8) (size 9 to 14) (size 15 to 20)
#    0.000    0.909    7.273    0.000    2.545    3.636 
#    0.000    0.000    0.000    3.273    0.000    0.000 
#    0.000    0.000    0.000    0.000    0.000    0.000 
#
# Total GULP energy -245707.035288 kJ/mol
# GULP energy per Si atom -5584.250802 kJ/mol
# Density = 1.820067 g / cm^3
# Si number density = 18.242194 Si / 1000 Ang^3
#
#
#
# Elastic Constant Matrix: (Units=GPa)
#
#
# Indices 1 2 3 4 5 6 
#
# 1 101.0147 43.6775 56.0192 0.0000 0.0000 0.0000
# 2 43.6775 117.6708 50.2068 0.0000 0.0000 0.0000
# 3 56.0192 50.2068 143.5939 0.0000 0.0000 0.0000
# 4 0.0000 0.0000 0.0000 -35.1262 0.0000 0.0000
# 5 0.0000 0.0000 0.0000 0.0000 5.3413 0.0000
# 6 0.0000 0.0000 0.0000 0.0000 0.0000 25.8491
#
#
#
# Elastic Compliance Matrix: (Units=1/GPa)
#
#
# Indices 1 2 3 4 5 6 
#
# 1 0.013631 -0.003280 -0.004171 0.000000 0.000000 0.000000
# 2 -0.003280 0.010778 -0.002489 0.000000 0.000000 0.000000
# 3 -0.004171 -0.002489 0.009461 0.000000 0.000000 0.000000
# 4 0.000000 0.000000 0.000000 -0.028469 0.000000 0.000000
# 5 0.000000 0.000000 0.000000 0.000000 0.187221 0.000000
# 6 0.000000 0.000000 0.000000 0.000000 0.000000 0.038686
#
#
# Mechanical properties :
#
#
# Convention : Reuss Voigt Hill
#
# Bulk Modulus (GPa) = 71.47606 73.56516 72.52061
# Shear Modulus (GPa) = 19.54267 13.37124 16.45695
#
# Velocity S-wave (km/s) = 3.27661 2.71031 3.00682
# Velocity P-wave (km/s) = 7.31995 7.08582 7.20383
#
# Compressibility (1/GPa) = 0.01399070
#
# Stress axis : x y z
#
# Youngs Moduli (GPa) = 73.36355 92.78482 105.69251
#
# Poissons Ratio (x) = 0.30433 0.44083
# Poissons Ratio (y) = 0.24063 0.26304
# Poissons Ratio (z) = 0.30599 0.23092
#
# Static dielectric constant tensor:
#      x y z
#    x 1.620740 0.000000 0.000000 
#    y 0.000000 1.636730 0.000000 
#    z 0.000000 0.000000 1.613880 
# 
# From -- ./inp_files/16815.got.cif
#   From: 2010.05.17/outbox.cif.g08.bks.cpg/sg72_9_cif.got.tgz:16815.got - 2010.06.03 17:03:01.
