data_PCOD9529643
_publ_section_title
;
Structure prediction by ZEFSAII (Michael W. Deem and Ramdas Pophale) SiO2 
 PCOD9529643
Probable space group: I B C A 
;
_chemical_formula_sum "Si O2"
_cell_formula_units_Z 112
_cell_length_a 16.328083
_cell_length_b 18.262570
_cell_length_c 22.375904
_cell_angle_alpha 90.000000
_cell_angle_beta 90.000000
_cell_angle_gamma 90.000000
_cell_volume 6672.332543
_symmetry_space_group_name_H-M "I B C A "
_symmetry_group_IT_number 73
_symmetry_cell_setting 'orthorhombic'
loop_
_space_group_symop_operation_xyz
x,y,z
-x,1/2-y,z
x,-y,1/2-z
1/2-x,y,-z
-x,-y,-z
x,1/2+y,-z
-x,y,1/2+z
1/2+x,-y,z
1/2+x,1/2+y,1/2+z
1/2-x,-y,1/2+z
1/2+x,1/2-y,-z
-x,1/2+y,1/2-z
1/2-x,1/2-y,1/2-z
1/2+x,y,1/2-z
1/2-x,1/2+y,z
x,1/2-y,1/2+z
loop_
_atom_site_type_symbol
_atom_site_label
_atom_site_fract_x
_atom_site_fract_y
_atom_site_fract_z
Si Si1 0.303262 0.544406 0.940308
Si Si2 0.000000 0.750000 0.982645
Si Si3 0.817671 0.107392 0.653682
Si Si4 0.254415 0.000000 0.250000
Si Si5 0.513840 0.403955 0.029163
Si Si6 0.594346 0.243873 0.864804
Si Si7 0.974812 0.470691 0.100138
Si Si8 0.140233 0.925177 0.852553
O O1 0.258061 0.595782 0.891731
O O2 0.391945 0.577005 0.956519
O O3 0.316566 0.465262 0.909098
O O4 0.250000 0.539144 0.000000
O O5 0.923837 0.755758 0.935962
O O6 0.003786 0.819708 0.024069
O O7 0.847644 0.191428 0.659461
O O8 0.893985 0.067196 0.622491
O O9 0.796762 0.060362 0.712643
O O10 0.310435 0.045771 0.295827
O O11 0.462597 0.446310 0.079298
O O12 0.496781 0.433084 0.962121
O O13 0.500000 0.250000 0.839962
O O14 0.629764 0.162421 0.855870
O O15 0.048253 0.458280 0.146019
#
# Coordination Sequence:
#
# PCOD9529643 Si02
#       8
#    16   8  16   8  16  16  16  16
#     4  10  19  32  53  81 120 145 172 219 281 334
#     4  10  16  30  50  86 114 138 188 218 262 332
#     4  11  20  38  56  82 110 144 189 226 277 331
#     4  10  26  38  54  80 108 146 188 234 284 326
#     4  10  18  29  53  82 111 146 174 221 270 322
#     4  10  18  33  58  79 102 139 185 232 264 318
#     4  10  17  32  56  78 102 143 185 216 259 330
#     4  10  20  37  55  80 105 142 189 227 272 322
#
# _framework density 16.785734000000001
#
# number of rings (size 3 to 8) (size 9 to 14) (size 15 to 20)
#    0.429    1.429    5.714    0.000    0.000    1.143 
#    0.000    5.000    0.000    1.714    0.000    0.000 
#    0.000    0.000    0.000    0.000    0.000    0.000 
#
# Total GULP energy -311804.515208 kJ/mol
# GULP energy per Si atom -5567.937772 kJ/mol
# Density = 1.674753 g / cm^3
# Si number density = 16.785734 Si / 1000 Ang^3
#
#
#
# Elastic Constant Matrix: (Units=GPa)
#
#
# Indices 1 2 3 4 5 6 
#
# 1 35.9231 17.1365 9.3450 0.0000 0.0000 0.0000
# 2 17.1365 152.1010 34.3033 0.0000 0.0000 0.0000
# 3 9.3450 34.3033 52.6859 0.0000 0.0000 0.0000
# 4 0.0000 0.0000 0.0000 18.7384 0.0000 0.0000
# 5 0.0000 0.0000 0.0000 0.0000 18.0139 0.0000
# 6 0.0000 0.0000 0.0000 0.0000 0.0000 26.6527
#
#
#
# Elastic Compliance Matrix: (Units=1/GPa)
#
#
# Indices 1 2 3 4 5 6 
#
# 1 0.030008 -0.002556 -0.003659 0.000000 0.000000 0.000000
# 2 -0.002556 0.007924 -0.004706 0.000000 0.000000 0.000000
# 3 -0.003659 -0.004706 0.022693 0.000000 0.000000 0.000000
# 4 0.000000 0.000000 0.000000 0.053366 0.000000 0.000000
# 5 0.000000 0.000000 0.000000 0.000000 0.055513 0.000000
# 6 0.000000 0.000000 0.000000 0.000000 0.000000 0.037520
#
#
# Mechanical properties :
#
#
# Convention : Reuss Voigt Hill
#
# Bulk Modulus (GPa) = 25.78319 40.25328 33.01823
# Shear Modulus (GPa) = 20.67889 24.67601 22.67745
#
# Velocity S-wave (km/s) = 3.51370 3.83829 3.67958
# Velocity P-wave (km/s) = 5.64402 6.60878 6.14536
#
# Compressibility (1/GPa) = 0.03878496
#
# Stress axis : x y z
#
# Youngs Moduli (GPa) = 33.32428 126.20169 44.06598
#
# Poissons Ratio (x) = 0.32254 0.16122
# Poissons Ratio (y) = 0.08517 0.20737
# Poissons Ratio (z) = 0.12192 0.59388
#
# Static dielectric constant tensor:
#      x y z
#    x 1.579590 0.000000 0.000000 
#    y 0.000000 1.631950 0.000000 
#    z 0.000000 0.000000 1.555190 
# 
# From -- ./inp_files/26641.got.cif
#   From: 2010.05.17/outbox.cif.g08.bks.cpg/sg73_14_cif.got.tgz:26641.got - 2010.06.03 17:35:07.
