data_PCOD9529426
_publ_section_title
;
Structure prediction by ZEFSAII (Michael W. Deem and Ramdas Pophale) SiO2 
 PCOD9529426
Probable space group: I B A M
;
_chemical_formula_sum "Si O2"
_cell_formula_units_Z 52
_cell_length_a 9.634251
_cell_length_b 11.052537
_cell_length_c 22.261357
_cell_angle_alpha 90.000000
_cell_angle_beta 90.000000
_cell_angle_gamma 90.000000
_cell_volume 2370.454200
_symmetry_space_group_name_H-M "I B A M"
_symmetry_group_IT_number 72
_symmetry_cell_setting 'orthorhombic'
loop_
_space_group_symop_operation_xyz
x,y,z
-x,-y,z
x,-y,1/2-z
-x,y,1/2-z
-x,-y,-z
x,y,-z
-x,y,1/2+z
x,-y,1/2+z
1/2+x,1/2+y,1/2+z
1/2-x,1/2-y,1/2+z
1/2+x,1/2-y,-z
1/2-x,1/2+y,-z
1/2-x,1/2-y,1/2-z
1/2+x,1/2+y,1/2-z
1/2-x,1/2+y,z
1/2+x,1/2-y,z
loop_
_atom_site_type_symbol
_atom_site_label
_atom_site_fract_x
_atom_site_fract_y
_atom_site_fract_z
Si Si1 0.548095 0.787701 0.394401
Si Si2 0.187866 0.802195 0.811585
Si Si3 0.000000 0.000000 0.750000
Si Si4 0.159899 0.153335 0.000000
Si Si5 0.844828 0.415222 0.500000
O O1 0.679734 0.816634 0.353248
O O2 0.417095 0.778384 0.351255
O O3 0.573359 0.669096 0.437568
O O4 0.555982 0.890925 0.443819
O O5 0.250000 0.750000 0.750000
O O6 0.097721 0.917599 0.791706
O O7 0.749679 0.967288 0.000000
O O8 0.242035 0.284572 0.000000
#
# Coordination Sequence:
#
# PCOD9529426 Si02
#       5
#    16  16   4   8   8
#     4   9  23  40  71  94 153 184 243 307 376 447
#     4  12  23  46  66 105 136 198 248 307 373 450
#     4  12  28  40  78  96 144 192 254 308 384 436
#     4   8  20  40  66 110 141 193 237 306 381 453
#     4   8  20  38  70 104 147 189 245 299 383 461
#
# _framework density 21.936724000000002
#
# number of rings (size 3 to 8) (size 9 to 14) (size 15 to 20)
#    1.846    0.000    3.077    0.000    4.308    4.923 
#    0.000   10.769    0.000    0.000    0.000    0.000 
#    0.000    0.000    0.000    0.000    0.000    0.000 
#
# Total GULP energy -144763.954047 kJ/mol
# GULP energy per Si atom -5567.844386 kJ/mol
# Density = 2.188680 g / cm^3
# Si number density = 21.936724 Si / 1000 Ang^3
#
#
#
# Elastic Constant Matrix: (Units=GPa)
#
#
# Indices 1 2 3 4 5 6 
#
# 1 116.6941 43.4972 84.1229 0.0000 0.0000 0.0000
# 2 43.4972 115.3308 52.6595 0.0000 0.0000 0.0000
# 3 84.1229 52.6595 208.9059 0.0000 0.0000 0.0000
# 4 0.0000 0.0000 0.0000 -0.9542 0.0000 0.0000
# 5 0.0000 0.0000 0.0000 0.0000 26.9201 0.0000
# 6 0.0000 0.0000 0.0000 0.0000 0.0000 28.6169
#
#
#
# Elastic Compliance Matrix: (Units=1/GPa)
#
#
# Indices 1 2 3 4 5 6 
#
# 1 0.012829 -0.002802 -0.004460 0.000000 0.000000 0.000000
# 2 -0.002802 0.010411 -0.001496 0.000000 0.000000 0.000000
# 3 -0.004460 -0.001496 0.006960 0.000000 0.000000 0.000000
# 4 0.000000 0.000000 0.000000 -1.047961 0.000000 0.000000
# 5 0.000000 0.000000 0.000000 0.000000 0.037147 0.000000
# 6 0.000000 0.000000 0.000000 0.000000 0.000000 0.034944
#
#
# Mechanical properties :
#
#
# Convention : Reuss Voigt Hill
#
# Bulk Modulus (GPa) = 78.84039 89.05445 83.94742
# Shear Modulus (GPa) = -5.41168 28.29331 11.44082
#
# Velocity S-wave (km/s) = -1.57236 3.59523 2.28620
# Velocity P-wave (km/s) = 5.72027 7.61042 6.73201
#
# Compressibility (1/GPa) = 0.01268385
#
# Stress axis : x y z
#
# Youngs Moduli (GPa) = 77.95001 96.05653 143.68446
#
# Poissons Ratio (x) = 0.26917 0.64077
# Poissons Ratio (y) = 0.21843 0.21493
# Poissons Ratio (z) = 0.34762 0.14368
#
# Static dielectric constant tensor:
#      x y z
#    x 1.820210 0.000000 0.000000 
#    y 0.000000 1.872960 0.000000 
#    z 0.000000 0.000000 1.449600 
# 
# From -- ./inp_files/35188.got.cif
#   From: 2010.05.17/outbox.cif.g08.bks.cpg/sg72_18_cif.got.tgz:35188.got - 2010.06.03 17:03:01.
