data_PCOD9529064
_publ_section_title
;
Structure prediction by ZEFSAII (Michael W. Deem and Ramdas Pophale) SiO2 
 PCOD9529064
Probable space group: I B A M
;
_chemical_formula_sum "Si O2"
_cell_formula_units_Z 88
_cell_length_a 30.991509
_cell_length_b 14.524856
_cell_length_c 7.642483
_cell_angle_alpha 90.000000
_cell_angle_beta 90.000000
_cell_angle_gamma 90.000000
_cell_volume 3440.242365
_symmetry_space_group_name_H-M "I B A M"
_symmetry_group_IT_number 72
_symmetry_cell_setting 'orthorhombic'
loop_
_space_group_symop_operation_xyz
x,y,z
-x,-y,z
x,-y,1/2-z
-x,y,1/2-z
-x,-y,-z
x,y,-z
-x,y,1/2+z
x,-y,1/2+z
1/2+x,1/2+y,1/2+z
1/2-x,1/2-y,1/2+z
1/2+x,1/2-y,-z
1/2-x,1/2+y,-z
1/2-x,1/2-y,1/2-z
1/2+x,1/2+y,1/2-z
1/2-x,1/2+y,z
1/2+x,1/2-y,z
loop_
_atom_site_type_symbol
_atom_site_label
_atom_site_fract_x
_atom_site_fract_y
_atom_site_fract_z
Si Si1 0.453173 0.855686 0.708409
Si Si2 0.952987 0.140885 0.208135
Si Si3 0.701047 0.377071 0.500000
Si Si4 0.860984 0.125594 0.310721
Si Si5 0.735331 0.893693 0.208360
Si Si6 0.360865 0.159584 0.787353
O O1 0.500000 0.897093 0.750000
O O2 0.451086 0.857541 0.500000
O O3 0.454753 0.748600 0.766525
O O4 0.405787 0.888409 0.771040
O O5 0.911199 0.098872 0.297939
O O6 0.000000 0.102214 0.250000
O O7 0.945899 0.140209 0.000000
O O8 0.666869 0.409023 0.651713
O O9 0.734236 0.340695 0.656374
O O10 0.842663 0.105159 0.500000
O O11 0.860976 0.236620 0.282832
O O12 0.684885 0.883828 0.258325
O O13 0.746845 0.000000 0.250000
O O14 0.739952 0.877031 0.000000
O O15 0.361091 0.167265 0.000000
#
# Coordination Sequence:
#
# PCOD9529064 Si02
#       6
#    16  16   8  16  16  16
#     4   8  14  25  44  72 108 147 187 225 268 331
#     4   9  15  27  46  74 116 160 191 217 263 336
#     4  12  24  42  58  84 116 146 190 245 292 349
#     4  11  21  35  55  86 124 155 185 232 287 348
#     4  11  24  44  64  81 106 148 199 249 292 344
#     4   9  19  37  55  80 118 154 191 235 290 346
#
# _framework density 25.579594
#
# number of rings (size 3 to 8) (size 9 to 14) (size 15 to 20)
#    0.000    2.182    2.727    2.182    1.273    5.091 
#    0.000    0.000    0.000    0.545    0.000    3.818 
#    0.000    2.182    0.000    0.000    0.000    0.000 
#
# Total GULP energy -244980.231528 kJ/mol
# GULP energy per Si atom -5567.732535 kJ/mol
# Density = 2.552137 g / cm^3
# Si number density = 25.579594 Si / 1000 Ang^3
#
#
#
# Elastic Constant Matrix: (Units=GPa)
#
#
# Indices 1 2 3 4 5 6 
#
# 1 242.8826 4.5527 78.3454 0.0000 0.0000 0.0000
# 2 4.5527 73.7612 2.8180 0.0000 0.0000 0.0000
# 3 78.3454 2.8180 153.1172 0.0000 0.0000 0.0000
# 4 0.0000 0.0000 0.0000 8.0316 0.0000 0.0000
# 5 0.0000 0.0000 0.0000 0.0000 47.2896 0.0000
# 6 0.0000 0.0000 0.0000 0.0000 0.0000 1.4677
#
#
#
# Elastic Compliance Matrix: (Units=1/GPa)
#
#
# Indices 1 2 3 4 5 6 
#
# 1 0.004934 -0.000208 -0.002521 0.000000 0.000000 0.000000
# 2 -0.000208 0.013576 -0.000143 0.000000 0.000000 0.000000
# 3 -0.002521 -0.000143 0.007823 0.000000 0.000000 0.000000
# 4 0.000000 0.000000 0.000000 0.124508 0.000000 0.000000
# 5 0.000000 0.000000 0.000000 0.000000 0.021146 0.000000
# 6 0.000000 0.000000 0.000000 0.000000 0.000000 0.681336
#
#
# Mechanical properties :
#
#
# Convention : Reuss Voigt Hill
#
# Bulk Modulus (GPa) = 48.57091 71.24368 59.90730
# Shear Modulus (GPa) = 5.77413 36.96078 21.36745
#
# Velocity S-wave (km/s) = 1.50407 3.80535 2.89335
# Velocity P-wave (km/s) = 4.69528 6.87167 5.88496
#
# Compressibility (1/GPa) = 0.02058845
#
# Stress axis : x y z
#
# Youngs Moduli (GPa) = 202.66437 73.66161 127.82102
#
# Poissons Ratio (x) = 0.01534 0.32222
# Poissons Ratio (y) = 0.04220 0.01832
# Poissons Ratio (z) = 0.51089 0.01056
#
# Static dielectric constant tensor:
#      x y z
#    x 2.071330 0.000000 0.000000 
#    y 0.000000 2.111030 0.000000 
#    z 0.000000 0.000000 1.926360 
# 
# From -- ./inp_files/9060.got.cif
#   From: 2010.05.17/outbox.cif.g08.bks.cpg/sg72_5_cif.got.tgz:9060.got - 2010.06.03 17:03:01.
