data_PCOD9529790
_publ_section_title
;
Structure prediction by ZEFSAII (Michael W. Deem and Ramdas Pophale) SiO2 
 PCOD9529790
Probable space group: I B C A 
;
_chemical_formula_sum "Si O2"
_cell_formula_units_Z 120
_cell_length_a 27.420550
_cell_length_b 22.381160
_cell_length_c 9.379026
_cell_angle_alpha 90.000000
_cell_angle_beta 90.000000
_cell_angle_gamma 90.000000
_cell_volume 5755.943117
_symmetry_space_group_name_H-M "I B C A "
_symmetry_group_IT_number 73
_symmetry_cell_setting 'orthorhombic'
loop_
_space_group_symop_operation_xyz
x,y,z
-x,1/2-y,z
x,-y,1/2-z
1/2-x,y,-z
-x,-y,-z
x,1/2+y,-z
-x,y,1/2+z
1/2+x,-y,z
1/2+x,1/2+y,1/2+z
1/2-x,-y,1/2+z
1/2+x,1/2-y,-z
-x,1/2+y,1/2-z
1/2-x,1/2-y,1/2-z
1/2+x,y,1/2-z
1/2-x,1/2+y,z
x,1/2-y,1/2+z
loop_
_atom_site_type_symbol
_atom_site_label
_atom_site_fract_x
_atom_site_fract_y
_atom_site_fract_z
Si Si1 0.857130 0.127589 0.821961
Si Si2 0.426521 0.111063 0.929049
Si Si3 0.194148 0.000000 0.750000
Si Si4 0.020705 0.816599 0.667573
Si Si5 0.144648 0.497809 0.541620
Si Si6 0.728579 0.406423 0.852323
Si Si7 0.520755 0.958046 0.620053
Si Si8 0.067002 0.349998 0.030904
O O1 0.891686 0.141120 0.686809
O O2 0.802201 0.133168 0.760741
O O3 0.862992 0.056690 0.862477
O O4 0.880921 0.162725 0.956458
O O5 0.399556 0.049244 0.969029
O O6 0.477101 0.089595 0.857161
O O7 0.438682 0.154711 0.060851
O O8 0.162023 0.014915 0.614407
O O9 0.227936 0.942617 0.720537
O O10 0.045211 0.817673 0.827174
O O11 0.000000 0.750000 0.648750
O O12 0.973058 0.849024 0.596362
O O13 0.189929 0.457558 0.599174
O O14 0.750000 0.378815 0.000000
O O15 0.566676 0.918836 0.580190
O O16 0.530573 0.000000 0.750000
O O17 0.500000 0.000000 0.500000
#
# Coordination Sequence:
#
# PCOD9529790 Si02
#       8
#    16  16   8  16  16  16  16  16
#     4  11  20  34  54  82 122 160 202 259 288 356
#     4  10  20  35  52  79 108 154 204 251 305 356
#     4  10  18  30  48  80 120 180 204 234 288 368
#     4  11  24  43  61  80 111 153 206 270 322 372
#     4  10  19  29  52  80 124 165 202 249 291 346
#     4   9  17  32  50  76 116 170 212 229 286 353
#     4  11  19  31  48  71 110 151 191 231 287 354
#     4  11  23  36  57  82 110 153 204 250 308 363
#
# _framework density 20.848018
#
# number of rings (size 3 to 8) (size 9 to 14) (size 15 to 20)
#    0.000    1.600    1.333    7.200    1.867    0.000 
#    1.200    0.667    0.000    0.000    0.000    0.000 
#    0.000   17.067   12.267    1.467    0.000    0.133 
#
# Total GULP energy -334088.756246 kJ/mol
# GULP energy per Si atom -5568.145937 kJ/mol
# Density = 2.080057 g / cm^3
# Si number density = 20.848018 Si / 1000 Ang^3
#
#
#
# Elastic Constant Matrix: (Units=GPa)
#
#
# Indices 1 2 3 4 5 6 
#
# 1 101.3543 10.7248 51.0220 0.0000 0.0000 0.0000
# 2 10.7248 39.2723 32.4024 0.0000 0.0000 0.0000
# 3 51.0220 32.4024 146.7601 0.0000 0.0000 0.0000
# 4 0.0000 0.0000 0.0000 4.5797 0.0000 0.0000
# 5 0.0000 0.0000 0.0000 0.0000 25.7782 0.0000
# 6 0.0000 0.0000 0.0000 0.0000 0.0000 11.9638
#
#
#
# Elastic Compliance Matrix: (Units=1/GPa)
#
#
# Indices 1 2 3 4 5 6 
#
# 1 0.011961 0.000201 -0.004203 0.000000 0.000000 0.000000
# 2 0.000201 0.031138 -0.006945 0.000000 0.000000 0.000000
# 3 -0.004203 -0.006945 0.009808 0.000000 0.000000 0.000000
# 4 0.000000 0.000000 0.000000 0.218355 0.000000 0.000000
# 5 0.000000 0.000000 0.000000 0.000000 0.038793 0.000000
# 6 0.000000 0.000000 0.000000 0.000000 0.000000 0.083585
#
#
# Mechanical properties :
#
#
# Convention : Reuss Voigt Hill
#
# Bulk Modulus (GPa) = 32.24288 52.85390 42.54839
# Shear Modulus (GPa) = 11.74067 21.34685 16.54376
#
# Velocity S-wave (km/s) = 2.37566 3.20336 2.82004
# Velocity P-wave (km/s) = 4.79836 6.25212 5.57285
#
# Compressibility (1/GPa) = 0.03101460
#
# Stress axis : x y z
#
# Youngs Moduli (GPa) = 83.60716 32.11488 101.95557
#
# Poissons Ratio (x) = -0.00646 0.42848
# Poissons Ratio (y) = -0.01681 0.70806
# Poissons Ratio (z) = 0.35137 0.22303
#
# Static dielectric constant tensor:
#      x y z
#    x 1.814780 0.000000 0.000000 
#    y 0.000000 1.820790 0.000000 
#    z 0.000000 0.000000 1.855720 
# 
# From -- ./inp_files/8101.got.cif
#   From: 2010.05.17/outbox.cif.g08.bks.cpg/sg73_5_cif.got.tgz:8101.got - 2010.06.03 17:35:07.
