data_PCOD9529003
_publ_section_title
;
Structure prediction by ZEFSAII (Michael W. Deem and Ramdas Pophale) SiO2 
 PCOD9529003
Probable space group: I B A M
;
_chemical_formula_sum "Si O2"
_cell_formula_units_Z 64
_cell_length_a 24.096726
_cell_length_b 7.127371
_cell_length_c 17.976118
_cell_angle_alpha 90.000000
_cell_angle_beta 90.000000
_cell_angle_gamma 90.000000
_cell_volume 3087.331864
_symmetry_space_group_name_H-M "I B A M"
_symmetry_group_IT_number 72
_symmetry_cell_setting 'orthorhombic'
loop_
_space_group_symop_operation_xyz
x,y,z
-x,-y,z
x,-y,1/2-z
-x,y,1/2-z
-x,-y,-z
x,y,-z
-x,y,1/2+z
x,-y,1/2+z
1/2+x,1/2+y,1/2+z
1/2-x,1/2-y,1/2+z
1/2+x,1/2-y,-z
1/2-x,1/2+y,-z
1/2-x,1/2-y,1/2-z
1/2+x,1/2+y,1/2-z
1/2-x,1/2+y,z
1/2+x,1/2-y,z
loop_
_atom_site_type_symbol
_atom_site_label
_atom_site_fract_x
_atom_site_fract_y
_atom_site_fract_z
Si Si1 0.753097 0.370425 0.807842
Si Si2 0.851841 0.184917 0.585902
Si Si3 0.377304 0.938019 0.335765
Si Si4 0.936633 0.063652 0.833740
O O1 0.751745 0.622361 0.786440
O O2 0.700817 0.365103 0.862768
O O3 0.814649 0.359417 0.842430
O O4 0.836330 0.186587 0.500000
O O5 0.877663 0.383510 0.611336
O O6 0.899162 0.037306 0.605681
O O7 0.424350 0.782599 0.344673
O O8 0.381262 0.000000 0.250000
O O9 0.917535 0.000000 0.750000
O O10 0.000000 0.000000 0.839619
#
# Coordination Sequence:
#
# PCOD9529003 Si02
#       4
#    16  16  16  16
#     4  11  19  38  67  93 133 181 218 272 332 405
#     4  12  26  42  65 103 141 177 224 279 343 403
#     4  11  22  42  70  98 135 177 228 278 335 400
#     4  11  24  45  72 100 129 179 235 282 329 408
#
# _framework density 20.729873000000001
#
# number of rings (size 3 to 8) (size 9 to 14) (size 15 to 20)
#    0.000    0.750    7.500    2.250    0.000    3.500 
#    0.000    1.250    0.000    0.000    0.000    0.000 
#    0.000    0.000    0.000    0.000    0.000    0.000 
#
# Total GULP energy -178608.760040 kJ/mol
# GULP energy per Si atom -5581.523751 kJ/mol
# Density = 2.068269 g / cm^3
# Si number density = 20.729873 Si / 1000 Ang^3
#
#
#
# Elastic Constant Matrix: (Units=GPa)
#
#
# Indices 1 2 3 4 5 6 
#
# 1 101.4771 48.9047 40.8725 0.0000 0.0000 0.0000
# 2 48.9047 121.2499 42.9767 0.0000 0.0000 0.0000
# 3 40.8725 42.9767 113.5496 0.0000 0.0000 0.0000
# 4 0.0000 0.0000 0.0000 12.8747 0.0000 0.0000
# 5 0.0000 0.0000 0.0000 0.0000 14.6834 0.0000
# 6 0.0000 0.0000 0.0000 0.0000 0.0000 56.3580
#
#
#
# Elastic Compliance Matrix: (Units=1/GPa)
#
#
# Indices 1 2 3 4 5 6 
#
# 1 0.013138 -0.004184 -0.003145 0.000000 0.000000 0.000000
# 2 -0.004184 0.010858 -0.002603 0.000000 0.000000 0.000000
# 3 -0.003145 -0.002603 0.010924 0.000000 0.000000 0.000000
# 4 0.000000 0.000000 0.000000 0.077671 0.000000 0.000000
# 5 0.000000 0.000000 0.000000 0.000000 0.068104 0.000000
# 6 0.000000 0.000000 0.000000 0.000000 0.000000 0.017744
#
#
# Mechanical properties :
#
#
# Convention : Reuss Voigt Hill
#
# Bulk Modulus (GPa) = 66.42727 66.86495 66.64611
# Shear Modulus (GPa) = 22.38908 30.35139 26.37024
#
# Velocity S-wave (km/s) = 3.28996 3.83056 3.57050
# Velocity P-wave (km/s) = 6.82243 7.20344 7.01552
#
# Compressibility (1/GPa) = 0.01505406
#
# Stress axis : x y z
#
# Youngs Moduli (GPa) = 76.11649 92.09955 91.53931
#
# Poissons Ratio (x) = 0.38535 0.28792
# Poissons Ratio (y) = 0.31848 0.23832
# Poissons Ratio (z) = 0.23941 0.23978
#
# Static dielectric constant tensor:
#      x y z
#    x 1.688490 0.000000 0.000000 
#    y 0.000000 2.341130 0.000000 
#    z 0.000000 0.000000 1.724450 
# 
# From -- ./inp_files/34777.got.cif
#   From: 2010.05.17/outbox.cif.g08.bks.cpg/sg72_18_cif.got.tgz:34777.got - 2010.06.03 17:03:01.
