data_PCOD9529707
_publ_section_title
;
Structure prediction by ZEFSAII (Michael W. Deem and Ramdas Pophale) SiO2 
 PCOD9529707
Probable space group: I B C A 
;
_chemical_formula_sum "Si O2"
_cell_formula_units_Z 80
_cell_length_a 18.660103
_cell_length_b 5.560892
_cell_length_c 33.913932
_cell_angle_alpha 90.000000
_cell_angle_beta 90.000000
_cell_angle_gamma 90.000000
_cell_volume 3519.140792
_symmetry_space_group_name_H-M "I B C A "
_symmetry_group_IT_number 73
_symmetry_cell_setting 'orthorhombic'
loop_
_space_group_symop_operation_xyz
x,y,z
-x,1/2-y,z
x,-y,1/2-z
1/2-x,y,-z
-x,-y,-z
x,1/2+y,-z
-x,y,1/2+z
1/2+x,-y,z
1/2+x,1/2+y,1/2+z
1/2-x,-y,1/2+z
1/2+x,1/2-y,-z
-x,1/2+y,1/2-z
1/2-x,1/2-y,1/2-z
1/2+x,y,1/2-z
1/2-x,1/2+y,z
x,1/2-y,1/2+z
loop_
_atom_site_type_symbol
_atom_site_label
_atom_site_fract_x
_atom_site_fract_y
_atom_site_fract_z
Si Si1 0.594552 0.106549 0.603493
Si Si2 0.919232 0.203082 0.487506
Si Si3 0.746854 0.099504 0.425068
Si Si4 0.890681 0.897555 0.867368
Si Si5 0.792030 0.010242 0.703327
O O1 0.576579 0.112029 0.557281
O O2 0.682408 0.107554 0.602794
O O3 0.569074 0.359772 0.620710
O O4 0.574320 0.861316 0.625331
O O5 0.887105 0.473665 0.489445
O O6 0.000000 0.250000 0.502967
O O7 0.747760 0.349755 0.447783
O O8 0.677247 0.103221 0.397579
O O9 0.860297 0.939713 0.823861
O O10 0.757899 0.746075 0.694827
O O11 0.807408 0.000000 0.750000
#
# Coordination Sequence:
#
# PCOD9529707 Si02
#       5
#    16  16  16  16  16
#     4  10  18  29  49  68  87 120 158 190 230 282
#     4  10  21  37  54  71  92 116 145 192 253 303
#     4   8  14  23  39  59  83 112 146 177 207 249
#     4  10  17  28  45  67  95 127 161 191 223 266
#     4  10  18  27  41  65  99 137 169 196 227 265
#
# _framework density 22.73282
#
# number of rings (size 3 to 8) (size 9 to 14) (size 15 to 20)
#    0.000    2.400    0.000    6.000    0.000    0.000 
#    0.000    0.000    0.000   32.400    0.000    0.000 
#    0.000    3.200    0.000    0.000    0.000    0.000 
#
# Total GULP energy -223121.714949 kJ/mol
# GULP energy per Si atom -5578.042874 kJ/mol
# Density = 2.268108 g / cm^3
# Si number density = 22.732820 Si / 1000 Ang^3
#
#
#
# Elastic Constant Matrix: (Units=GPa)
#
#
# Indices 1 2 3 4 5 6 
#
# 1 59.8952 25.9748 8.4028 0.0000 0.0000 0.0000
# 2 25.9748 288.2856 55.7605 0.0000 0.0000 0.0000
# 3 8.4028 55.7605 98.9777 0.0000 0.0000 0.0000
# 4 0.0000 0.0000 0.0000 31.7640 0.0000 0.0000
# 5 0.0000 0.0000 0.0000 0.0000 -6.7600 0.0000
# 6 0.0000 0.0000 0.0000 0.0000 0.0000 30.2087
#
#
#
# Elastic Compliance Matrix: (Units=1/GPa)
#
#
# Indices 1 2 3 4 5 6 
#
# 1 0.017414 -0.001440 -0.000667 0.000000 0.000000 0.000000
# 2 -0.001440 0.004012 -0.002138 0.000000 0.000000 0.000000
# 3 -0.000667 -0.002138 0.011364 0.000000 0.000000 0.000000
# 4 0.000000 0.000000 0.000000 0.031482 0.000000 0.000000
# 5 0.000000 0.000000 0.000000 0.000000 -0.147930 0.000000
# 6 0.000000 0.000000 0.000000 0.000000 0.000000 0.033103
#
#
# Mechanical properties :
#
#
# Convention : Reuss Voigt Hill
#
# Bulk Modulus (GPa) = 41.15202 69.71493 55.43348
# Shear Modulus (GPa) = -147.21426 34.84391 -56.18518
#
# Velocity S-wave (km/s) = -8.05599 3.91929 -4.97686
# Velocity P-wave (km/s) = 8.26984 7.15645 2.93049
#
# Compressibility (1/GPa) = 0.02430014
#
# Stress axis : x y z
#
# Youngs Moduli (GPa) = 57.42540 249.24852 87.99408
#
# Poissons Ratio (x) = 0.35891 0.05870
# Poissons Ratio (y) = 0.08269 0.18813
# Poissons Ratio (z) = 0.03831 0.53289
#
# Static dielectric constant tensor:
#      x y z
#    x 1.920100 0.000000 0.000000 
#    y 0.000000 1.959790 0.000000 
#    z 0.000000 0.000000 1.786630 
# 
# From -- ./inp_files/2197.got.cif
#   From: 2010.05.17/outbox.cif.g08.bks.cpg/sg73_2_cif.got.tgz:2197.got - 2010.06.03 17:35:07.
