data_PCOD9529241
_publ_section_title
;
Structure prediction by ZEFSAII (Michael W. Deem and Ramdas Pophale) SiO2 
 PCOD9529241
Probable space group: I B A M
;
_chemical_formula_sum "Si O2"
_cell_formula_units_Z 96
_cell_length_a 25.839175
_cell_length_b 12.241703
_cell_length_c 15.200034
_cell_angle_alpha 90.000000
_cell_angle_beta 90.000000
_cell_angle_gamma 90.000000
_cell_volume 4808.006448
_symmetry_space_group_name_H-M "I B A M"
_symmetry_group_IT_number 72
_symmetry_cell_setting 'orthorhombic'
loop_
_space_group_symop_operation_xyz
x,y,z
-x,-y,z
x,-y,1/2-z
-x,y,1/2-z
-x,-y,-z
x,y,-z
-x,y,1/2+z
x,-y,1/2+z
1/2+x,1/2+y,1/2+z
1/2-x,1/2-y,1/2+z
1/2+x,1/2-y,-z
1/2-x,1/2+y,-z
1/2-x,1/2-y,1/2-z
1/2+x,1/2+y,1/2-z
1/2-x,1/2+y,z
1/2+x,1/2-y,z
loop_
_atom_site_type_symbol
_atom_site_label
_atom_site_fract_x
_atom_site_fract_y
_atom_site_fract_z
Si Si1 0.374515 0.009036 0.103761
Si Si2 0.780485 0.137253 0.500000
Si Si3 0.903100 0.892418 0.500000
Si Si4 0.103123 0.155098 0.000000
Si Si5 0.939339 0.724691 0.356392
Si Si6 0.255579 0.984955 0.148701
Si Si7 0.717411 0.666584 0.000000
Si Si8 0.059123 0.700482 0.346036
O O1 0.401242 0.126259 0.117161
O O2 0.316844 0.006472 0.142487
O O3 0.409741 0.912929 0.144406
O O4 0.370383 0.986940 0.000000
O O5 0.836468 0.189752 0.500000
O O6 0.776596 0.068009 0.411484
O O7 0.728505 0.206709 0.500000
O O8 0.928019 0.830686 0.415891
O O9 0.842112 0.864623 0.500000
O O10 0.905726 0.024134 0.500000
O O11 0.078897 0.210925 0.085138
O O12 0.933395 0.744292 0.252591
O O13 0.998435 0.684077 0.366514
O O14 0.239986 0.000000 0.250000
O O15 0.244170 0.876417 0.090507
#
# Coordination Sequence:
#
# PCOD9529241 Si02
#       8
#    16   8   8   8  16  16   8  16
#     4  12  21  40  71 101 136 166 208 271 339 399
#     4  11  23  43  65  92 126 165 216 268 314 381
#     4  12  25  44  65  92 133 178 219 270 318 376
#     4  12  25  44  65  92 133 178 219 270 318 376
#     4  11  25  43  67 100 132 170 219 270 329 390
#     4  11  23  41  64  95 128 162 205 257 326 385
#     4  11  23  43  65  92 126 165 216 268 314 381
#     4  11  25  43  67 100 132 170 219 270 329 390
#
# _framework density 19.966695000000001
#
# number of rings (size 3 to 8) (size 9 to 14) (size 15 to 20)
#    0.000    0.667    5.000    4.500    0.000    6.000 
#    0.000    1.667    0.000    0.000    0.000    0.000 
#    0.000    0.000    0.000    0.000    0.000    0.000 
#
# Total GULP energy -268115.298348 kJ/mol
# GULP energy per Si atom -5585.735382 kJ/mol
# Density = 1.992125 g / cm^3
# Si number density = 19.966695 Si / 1000 Ang^3
#
#
#
# Elastic Constant Matrix: (Units=GPa)
#
#
# Indices 1 2 3 4 5 6 
#
# 1 69.4979 -16.8128 36.8500 0.0000 0.0000 0.0000
# 2 -16.8128 46.0299 14.3192 0.0000 0.0000 0.0000
# 3 36.8500 14.3192 143.0612 0.0000 0.0000 0.0000
# 4 0.0000 0.0000 0.0000 -57.5062 0.0000 0.0000
# 5 0.0000 0.0000 0.0000 0.0000 73.7171 0.0000
# 6 0.0000 0.0000 0.0000 0.0000 0.0000 34.5207
#
#
#
# Elastic Compliance Matrix: (Units=1/GPa)
#
#
# Indices 1 2 3 4 5 6 
#
# 1 0.019770 0.009088 -0.006002 0.000000 0.000000 0.000000
# 2 0.009088 0.026601 -0.005004 0.000000 0.000000 0.000000
# 3 -0.006002 -0.005004 0.009037 0.000000 0.000000 0.000000
# 4 0.000000 0.000000 0.000000 -0.017389 0.000000 0.000000
# 5 0.000000 0.000000 0.000000 0.000000 0.013565 0.000000
# 6 0.000000 0.000000 0.000000 0.000000 0.000000 0.028968
#
#
# Mechanical properties :
#
#
# Convention : Reuss Voigt Hill
#
# Bulk Modulus (GPa) = 19.38984 36.36687 27.87836
# Shear Modulus (GPa) = 49.22338 25.09517 37.15927
#
# Velocity S-wave (km/s) = 4.97054 3.54906 4.31868
# Velocity P-wave (km/s) = 6.53252 5.92011 6.23384
#
# Compressibility (1/GPa) = 0.05157340
#
# Stress axis : x y z
#
# Youngs Moduli (GPa) = 50.58161 37.59245 110.65801
#
# Poissons Ratio (x) = -0.34165 0.66418
# Poissons Ratio (y) = -0.45970 0.55368
# Poissons Ratio (z) = 0.30359 0.18809
#
# Static dielectric constant tensor:
#      x y z
#    x 1.692650 0.000000 0.000000 
#    y 0.000000 1.713940 0.000000 
#    z 0.000000 0.000000 1.655330 
# 
# From -- ./inp_files/25158.got.cif
#   From: 2010.05.17/outbox.cif.g08.bks.cpg/sg72_13_cif.got.tgz:25158.got - 2010.06.03 17:03:01.
