data_PCOD9529672
_publ_section_title
;
Structure prediction by ZEFSAII (Michael W. Deem and Ramdas Pophale) SiO2 
 PCOD9529672
Probable space group: I B C A 
;
_chemical_formula_sum "Si O2"
_cell_formula_units_Z 120
_cell_length_a 16.407407
_cell_length_b 20.590108
_cell_length_c 16.266835
_cell_angle_alpha 90.000000
_cell_angle_beta 90.000000
_cell_angle_gamma 90.000000
_cell_volume 5495.429457
_symmetry_space_group_name_H-M "I B C A "
_symmetry_group_IT_number 73
_symmetry_cell_setting 'orthorhombic'
loop_
_space_group_symop_operation_xyz
x,y,z
-x,1/2-y,z
x,-y,1/2-z
1/2-x,y,-z
-x,-y,-z
x,1/2+y,-z
-x,y,1/2+z
1/2+x,-y,z
1/2+x,1/2+y,1/2+z
1/2-x,-y,1/2+z
1/2+x,1/2-y,-z
-x,1/2+y,1/2-z
1/2-x,1/2-y,1/2-z
1/2+x,y,1/2-z
1/2-x,1/2+y,z
x,1/2-y,1/2+z
loop_
_atom_site_type_symbol
_atom_site_label
_atom_site_fract_x
_atom_site_fract_y
_atom_site_fract_z
Si Si1 0.126345 0.616535 0.340803
Si Si2 0.657373 0.323258 0.183739
Si Si3 0.081998 0.649706 0.575469
Si Si4 0.000000 0.250000 0.805587
Si Si5 0.151775 0.027890 0.509416
Si Si6 0.248312 0.775761 0.906332
Si Si7 0.652803 0.620263 0.494780
Si Si8 0.984754 0.678142 0.408133
O O1 0.163334 0.619140 0.249702
O O2 0.138403 0.554821 0.398516
O O3 0.174211 0.676665 0.385490
O O4 0.029562 0.630335 0.345355
O O5 0.588657 0.276067 0.222562
O O6 0.736036 0.279952 0.160820
O O7 0.632806 0.349717 0.094032
O O8 0.029213 0.684186 0.646024
O O9 0.103327 0.574747 0.554279
O O10 0.170543 0.680504 0.590494
O O11 0.035604 0.673047 0.493102
O O12 0.250000 0.032721 0.500000
O O13 0.123283 0.954079 0.500111
O O14 0.250000 0.749605 0.000000
O O15 0.750000 0.616042 0.500000
O O16 0.606534 0.660756 0.565432
O O17 0.000000 0.750000 0.375802
#
# Coordination Sequence:
#
# PCOD9529672 Si02
#       8
#    16  16  16   8  16  16  16  16
#     4  11  23  37  62  92 125 169 202 259 324 386
#     4  11  24  37  56  96 131 165 199 265 333 377
#     4  10  16  33  62  86 115 155 208 256 303 355
#     4  10  20  36  54  88 128 160 198 264 314 370
#     4  10  20  40  66  91 120 166 223 257 303 384
#     4  11  18  35  63  91 120 163 219 253 309 383
#     4  11  25  42  66  94 122 167 223 267 309 381
#     4  11  21  38  61  93 124 159 204 264 317 375
#
# _framework density 21.836328000000002
#
# number of rings (size 3 to 8) (size 9 to 14) (size 15 to 20)
#    0.000    1.333    6.000    1.600    2.800    2.667 
#    0.000    0.000    0.000    0.000    0.000    0.000 
#    0.000    0.000    0.000    0.000    0.000    0.000 
#
# Total GULP energy -334333.067673 kJ/mol
# GULP energy per Si atom -5572.217795 kJ/mol
# Density = 2.178663 g / cm^3
# Si number density = 21.836328 Si / 1000 Ang^3
#
#
#
# Elastic Constant Matrix: (Units=GPa)
#
#
# Indices 1 2 3 4 5 6 
#
# 1 97.0445 16.3310 14.9008 0.0000 0.0000 0.0000
# 2 16.3310 90.6882 4.2947 0.0000 0.0000 0.0000
# 3 14.9008 4.2947 67.3166 0.0000 0.0000 0.0000
# 4 0.0000 0.0000 0.0000 4.7477 0.0000 0.0000
# 5 0.0000 0.0000 0.0000 0.0000 23.2059 0.0000
# 6 0.0000 0.0000 0.0000 0.0000 0.0000 26.0067
#
#
#
# Elastic Compliance Matrix: (Units=1/GPa)
#
#
# Indices 1 2 3 4 5 6 
#
# 1 0.010973 -0.001867 -0.002310 0.000000 0.000000 0.000000
# 2 -0.001867 0.011378 -0.000313 0.000000 0.000000 0.000000
# 3 -0.002310 -0.000313 0.015386 0.000000 0.000000 0.000000
# 4 0.000000 0.000000 0.000000 0.210629 0.000000 0.000000
# 5 0.000000 0.000000 0.000000 0.000000 0.043092 0.000000
# 6 0.000000 0.000000 0.000000 0.000000 0.000000 0.038452
#
#
# Mechanical properties :
#
#
# Convention : Reuss Voigt Hill
#
# Bulk Modulus (GPa) = 34.77171 36.23357 35.50264
# Shear Modulus (GPa) = 14.34821 25.42692 19.88756
#
# Velocity S-wave (km/s) = 2.56614 3.41608 3.02115
# Velocity P-wave (km/s) = 4.97378 5.67351 5.33513
#
# Compressibility (1/GPa) = 0.02875901
#
# Stress axis : x y z
#
# Youngs Moduli (GPa) = 91.12979 87.89083 64.99230
#
# Poissons Ratio (x) = 0.16406 0.15013
# Poissons Ratio (y) = 0.17011 0.02032
# Poissons Ratio (z) = 0.21050 0.02748
#
# Static dielectric constant tensor:
#      x y z
#    x 1.853330 0.000000 0.000000 
#    y 0.000000 1.818120 0.000000 
#    z 0.000000 0.000000 1.851820 
# 
# From -- ./inp_files/22823.got.cif
#   From: 2010.05.17/outbox.cif.g08.bks.cpg/sg73_12_cif.got.tgz:22823.got - 2010.06.03 17:35:07.
