data_PCOD9529215
_publ_section_title
;
Structure prediction by ZEFSAII (Michael W. Deem and Ramdas Pophale) SiO2 
 PCOD9529215
Probable space group: I B A M
;
_chemical_formula_sum "Si O2"
_cell_formula_units_Z 80
_cell_length_a 14.940192
_cell_length_b 16.858494
_cell_length_c 15.841951
_cell_angle_alpha 90.000000
_cell_angle_beta 90.000000
_cell_angle_gamma 90.000000
_cell_volume 3990.098530
_symmetry_space_group_name_H-M "I B A M"
_symmetry_group_IT_number 72
_symmetry_cell_setting 'orthorhombic'
loop_
_space_group_symop_operation_xyz
x,y,z
-x,-y,z
x,-y,1/2-z
-x,y,1/2-z
-x,-y,-z
x,y,-z
-x,y,1/2+z
x,-y,1/2+z
1/2+x,1/2+y,1/2+z
1/2-x,1/2-y,1/2+z
1/2+x,1/2-y,-z
1/2-x,1/2+y,-z
1/2-x,1/2-y,1/2-z
1/2+x,1/2+y,1/2-z
1/2-x,1/2+y,z
1/2+x,1/2-y,z
loop_
_atom_site_type_symbol
_atom_site_label
_atom_site_fract_x
_atom_site_fract_y
_atom_site_fract_z
Si Si1 0.671473 0.239705 0.593097
Si Si2 0.596689 0.843654 0.739511
Si Si3 0.712262 0.602460 0.181278
Si Si4 0.595286 0.476465 0.902701
Si Si5 0.862681 0.186596 0.650451
O O1 0.634892 0.223964 0.500000
O O2 0.624389 0.192838 0.669539
O O3 0.680120 0.333299 0.611764
O O4 0.773904 0.211387 0.601258
O O5 0.500000 0.883549 0.750000
O O6 0.681173 0.892263 0.701324
O O7 0.587246 0.766001 0.679004
O O8 0.674262 0.518343 0.150637
O O9 0.667210 0.640514 0.264387
O O10 0.500000 0.500000 0.865071
O O11 0.590903 0.381573 0.901428
O O12 0.602880 0.502841 0.000000
#
# Coordination Sequence:
#
# PCOD9529215 Si02
#       5
#    16  16  16  16  16
#     4   9  17  33  54  75 106 144 187 240 291 340
#     4   9  19  35  57  83 107 143 200 242 288 356
#     4   9  19  35  52  75 108 150 186 230 289 350
#     4  11  23  34  50  82 118 149 187 236 293 349
#     4   9  19  33  53  76 104 146 186 227 286 351
#
# _framework density 20.049630000000001
#
# number of rings (size 3 to 8) (size 9 to 14) (size 15 to 20)
#    0.000    2.600    0.000    4.200    5.600    0.800 
#    0.000    5.000    0.000    9.600    0.000    7.000 
#    0.000    0.000    0.000    0.000    0.000    0.000 
#
# Total GULP energy -222846.953303 kJ/mol
# GULP energy per Si atom -5571.173833 kJ/mol
# Density = 2.000400 g / cm^3
# Si number density = 20.049630 Si / 1000 Ang^3
#
#
#
# Elastic Constant Matrix: (Units=GPa)
#
#
# Indices 1 2 3 4 5 6 
#
# 1 94.4570 12.2607 18.2485 0.0000 0.0000 0.0000
# 2 12.2607 54.4560 13.5339 0.0000 0.0000 0.0000
# 3 18.2485 13.5339 90.0941 0.0000 0.0000 0.0000
# 4 0.0000 0.0000 0.0000 -35.1689 0.0000 0.0000
# 5 0.0000 0.0000 0.0000 0.0000 14.0478 0.0000
# 6 0.0000 0.0000 0.0000 0.0000 0.0000 7.7574
#
#
#
# Elastic Compliance Matrix: (Units=1/GPa)
#
#
# Indices 1 2 3 4 5 6 
#
# 1 0.011232 -0.002040 -0.001969 0.000000 0.000000 0.000000
# 2 -0.002040 0.019446 -0.002508 0.000000 0.000000 0.000000
# 3 -0.001969 -0.002508 0.011875 0.000000 0.000000 0.000000
# 4 0.000000 0.000000 0.000000 -0.028434 0.000000 0.000000
# 5 0.000000 0.000000 0.000000 0.000000 0.071185 0.000000
# 6 0.000000 0.000000 0.000000 0.000000 0.000000 0.128909
#
#
# Mechanical properties :
#
#
# Convention : Reuss Voigt Hill
#
# Bulk Modulus (GPa) = 33.87492 36.34369 35.10931
# Shear Modulus (GPa) = 21.08937 10.32487 15.70712
#
# Velocity S-wave (km/s) = 3.24675 2.27175 2.80199
# Velocity P-wave (km/s) = 5.56664 5.00473 5.29314
#
# Compressibility (1/GPa) = 0.02952036
#
# Stress axis : x y z
#
# Youngs Moduli (GPa) = 89.03221 51.42451 84.21042
#
# Poissons Ratio (x) = 0.10488 0.16578
# Poissons Ratio (y) = 0.18159 0.21120
# Poissons Ratio (z) = 0.17527 0.12898
#
# Static dielectric constant tensor:
#      x y z
#    x 1.726390 0.000000 0.000000 
#    y 0.000000 1.758010 0.000000 
#    z 0.000000 0.000000 1.744490 
# 
# From -- ./inp_files/23096.got.cif
#   From: 2010.05.17/outbox.cif.g08.bks.cpg/sg72_12_cif.got.tgz:23096.got - 2010.06.03 17:03:01.
