data_PCOD9529184
_publ_section_title
;
Structure prediction by ZEFSAII (Michael W. Deem and Ramdas Pophale) SiO2 
 PCOD9529184
Probable space group: I B A M
;
_chemical_formula_sum "Si O2"
_cell_formula_units_Z 96
_cell_length_a 13.906105
_cell_length_b 15.282716
_cell_length_c 21.307606
_cell_angle_alpha 90.000000
_cell_angle_beta 90.000000
_cell_angle_gamma 90.000000
_cell_volume 4528.357487
_symmetry_space_group_name_H-M "I B A M"
_symmetry_group_IT_number 72
_symmetry_cell_setting 'orthorhombic'
loop_
_space_group_symop_operation_xyz
x,y,z
-x,-y,z
x,-y,1/2-z
-x,y,1/2-z
-x,-y,-z
x,y,-z
-x,y,1/2+z
x,-y,1/2+z
1/2+x,1/2+y,1/2+z
1/2-x,1/2-y,1/2+z
1/2+x,1/2-y,-z
1/2-x,1/2+y,-z
1/2-x,1/2-y,1/2-z
1/2+x,1/2+y,1/2-z
1/2-x,1/2+y,z
1/2+x,1/2-y,z
loop_
_atom_site_type_symbol
_atom_site_label
_atom_site_fract_x
_atom_site_fract_y
_atom_site_fract_z
Si Si1 0.260949 0.337101 0.336917
Si Si2 0.238592 0.000213 0.070300
Si Si3 0.103257 0.778963 0.224954
Si Si4 0.905474 0.766099 0.073148
Si Si5 0.550894 0.411451 0.616702
Si Si6 0.054159 0.417596 0.927008
O O1 0.255450 0.429712 0.372868
O O2 0.164860 0.298993 0.305986
O O3 0.339164 0.325973 0.281598
O O4 0.305441 0.275443 0.390881
O O5 0.142022 0.943563 0.076755
O O6 0.333228 0.940375 0.074001
O O7 0.239325 0.041926 0.000000
O O8 0.087755 0.852709 0.173061
O O9 0.000000 0.749364 0.250000
O O10 0.959597 0.679666 0.098756
O O11 0.971162 0.851677 0.082304
O O12 0.887896 0.752889 0.000000
O O13 0.500000 0.500000 0.639162
O O14 0.000000 0.500000 0.897152
O O15 0.020703 0.413548 0.000000
#
# Coordination Sequence:
#
# PCOD9529184 Si02
#       6
#    16  16  16  16  16  16
#     4  11  24  41  69  99 133 182 229 293 342 420
#     4  11  23  41  66 104 143 178 229 287 352 428
#     4  11  24  45  66  96 137 183 244 284 346 409
#     4  11  22  41  66  98 138 179 225 286 361 422
#     4  12  24  41  68 100 138 182 226 287 346 416
#     4   9  21  40  61  90 131 176 223 272 333 421
#
# _framework density 21.199739999999998
#
# number of rings (size 3 to 8) (size 9 to 14) (size 15 to 20)
#    0.000    1.167    3.333    2.000    2.333    3.000 
#    0.000    1.667    0.000    0.000    4.333    0.000 
#    0.000    0.000    0.000    0.000    0.000    0.000 
#
# Total GULP energy -268071.163503 kJ/mol
# GULP energy per Si atom -5584.815906 kJ/mol
# Density = 2.115149 g / cm^3
# Si number density = 21.199740 Si / 1000 Ang^3
#
#
#
# Elastic Constant Matrix: (Units=GPa)
#
#
# Indices 1 2 3 4 5 6 
#
# 1 107.0626 29.0634 29.6110 0.0000 0.0000 0.0000
# 2 29.0634 96.3090 14.6411 0.0000 0.0000 0.0000
# 3 29.6110 14.6411 103.9986 0.0000 0.0000 0.0000
# 4 0.0000 0.0000 0.0000 91.7464 0.0000 0.0000
# 5 0.0000 0.0000 0.0000 0.0000 26.3094 0.0000
# 6 0.0000 0.0000 0.0000 0.0000 0.0000 22.4620
#
#
#
# Elastic Compliance Matrix: (Units=1/GPa)
#
#
# Indices 1 2 3 4 5 6 
#
# 1 0.010863 -0.002869 -0.002689 0.000000 0.000000 0.000000
# 2 -0.002869 0.011368 -0.000783 0.000000 0.000000 0.000000
# 3 -0.002689 -0.000783 0.010491 0.000000 0.000000 0.000000
# 4 0.000000 0.000000 0.000000 0.010900 0.000000 0.000000
# 5 0.000000 0.000000 0.000000 0.000000 0.038009 0.000000
# 6 0.000000 0.000000 0.000000 0.000000 0.000000 0.044520
#
#
# Mechanical properties :
#
#
# Convention : Reuss Voigt Hill
#
# Bulk Modulus (GPa) = 49.90270 50.44458 50.17364
# Shear Modulus (GPa) = 34.36086 43.70722 39.03404
#
# Velocity S-wave (km/s) = 4.03030 4.54551 4.29564
# Velocity P-wave (km/s) = 6.72668 7.16906 6.95139
#
# Compressibility (1/GPa) = 0.02003900
#
# Stress axis : x y z
#
# Youngs Moduli (GPa) = 92.05593 87.96439 95.31581
#
# Poissons Ratio (x) = 0.25240 0.25630
# Poissons Ratio (y) = 0.26414 0.07468
# Poissons Ratio (z) = 0.24754 0.06892
#
# Static dielectric constant tensor:
#      x y z
#    x 1.774790 0.000000 0.000000 
#    y 0.000000 1.784240 0.000000 
#    z 0.000000 0.000000 1.779970 
# 
# From -- ./inp_files/38050.got.cif
#   From: 2010.05.17/outbox.cif.g08.bks.cpg/sg72_20_cif.got.tgz:38050.got - 2010.06.03 17:03:01.
