data_PCOD9529229
_publ_section_title
;
Structure prediction by ZEFSAII (Michael W. Deem and Ramdas Pophale) SiO2 
 PCOD9529229
Probable space group: I B A M
;
_chemical_formula_sum "Si O2"
_cell_formula_units_Z 96
_cell_length_a 17.818896
_cell_length_b 11.231260
_cell_length_c 24.247633
_cell_angle_alpha 90.000000
_cell_angle_beta 90.000000
_cell_angle_gamma 90.000000
_cell_volume 4852.646152
_symmetry_space_group_name_H-M "I B A M"
_symmetry_group_IT_number 72
_symmetry_cell_setting 'orthorhombic'
loop_
_space_group_symop_operation_xyz
x,y,z
-x,-y,z
x,-y,1/2-z
-x,y,1/2-z
-x,-y,-z
x,y,-z
-x,y,1/2+z
x,-y,1/2+z
1/2+x,1/2+y,1/2+z
1/2-x,1/2-y,1/2+z
1/2+x,1/2-y,-z
1/2-x,1/2+y,-z
1/2-x,1/2-y,1/2-z
1/2+x,1/2+y,1/2-z
1/2-x,1/2+y,z
1/2+x,1/2-y,z
loop_
_atom_site_type_symbol
_atom_site_label
_atom_site_fract_x
_atom_site_fract_y
_atom_site_fract_z
Si Si1 0.324445 0.184838 0.727379
Si Si2 0.089148 0.259972 0.615826
Si Si3 0.687181 0.957573 0.836246
Si Si4 0.025967 0.196387 0.500000
Si Si5 0.349723 0.496481 0.622321
Si Si6 0.037988 0.154598 0.192758
Si Si7 0.616659 0.552621 0.500000
O O1 0.250000 0.250000 0.750000
O O2 0.340453 0.103132 0.779988
O O3 0.390573 0.273112 0.714250
O O4 0.319458 0.098706 0.674259
O O5 0.137575 0.380359 0.621791
O O6 0.052198 0.257958 0.555661
O O7 0.140811 0.140311 0.622966
O O8 0.021528 0.235601 0.659162
O O9 0.776183 0.947393 0.847005
O O10 0.938343 0.165509 0.500000
O O11 0.067220 0.068017 0.500000
O O12 0.424310 0.443149 0.651789
O O13 0.342800 0.454169 0.558849
O O14 0.000000 0.116098 0.250000
#
# Coordination Sequence:
#
# PCOD9529229 Si02
#       7
#    16  16  16   8  16  16   8
#     4  11  23  43  60  89 127 175 207 257 329 395
#     4  11  23  42  63  99 124 170 218 273 333 387
#     4  11  24  40  64  85 132 173 209 261 329 401
#     4   9  18  37  66  88 133 160 208 275 335 385
#     4  11  23  39  66  92 129 162 219 278 327 390
#     4  12  24  38  64  95 127 165 222 269 322 400
#     4   9  18  37  62  97 120 164 212 277 334 378
#
# _framework density 19.783021000000002
#
# number of rings (size 3 to 8) (size 9 to 14) (size 15 to 20)
#    0.000    1.167    5.000    1.500    0.000    2.667 
#    0.000    0.000    0.000    4.000    0.000    0.000 
#    0.000    0.000    0.000    0.000    0.000    0.000 
#
# Total GULP energy -267460.072679 kJ/mol
# GULP energy per Si atom -5572.084847 kJ/mol
# Density = 1.973799 g / cm^3
# Si number density = 19.783021 Si / 1000 Ang^3
#
#
#
# Elastic Constant Matrix: (Units=GPa)
#
#
# Indices 1 2 3 4 5 6 
#
# 1 112.4525 57.9297 38.3755 0.0000 0.0000 0.0000
# 2 57.9297 92.6857 32.6816 0.0000 0.0000 0.0000
# 3 38.3755 32.6816 109.4845 0.0000 0.0000 0.0000
# 4 0.0000 0.0000 0.0000 30.9423 0.0000 0.0000
# 5 0.0000 0.0000 0.0000 0.0000 11.3012 0.0000
# 6 0.0000 0.0000 0.0000 0.0000 0.0000 8.1946
#
#
#
# Elastic Compliance Matrix: (Units=1/GPa)
#
#
# Indices 1 2 3 4 5 6 
#
# 1 0.013707 -0.007681 -0.002511 0.000000 0.000000 0.000000
# 2 -0.007681 0.016363 -0.002192 0.000000 0.000000 0.000000
# 3 -0.002511 -0.002192 0.010668 0.000000 0.000000 0.000000
# 4 0.000000 0.000000 0.000000 0.032318 0.000000 0.000000
# 5 0.000000 0.000000 0.000000 0.000000 0.088486 0.000000
# 6 0.000000 0.000000 0.000000 0.000000 0.000000 0.122032
#
#
# Mechanical properties :
#
#
# Convention : Reuss Voigt Hill
#
# Bulk Modulus (GPa) = 62.62352 63.62182 63.12267
# Shear Modulus (GPa) = 15.94046 22.46333 19.20190
#
# Velocity S-wave (km/s) = 2.84168 3.37335 3.11887
# Velocity P-wave (km/s) = 6.51849 6.88493 6.70422
#
# Compressibility (1/GPa) = 0.01596844
#
# Stress axis : x y z
#
# Youngs Moduli (GPa) = 72.95696 61.11346 93.73528
#
# Poissons Ratio (x) = 0.46943 0.23541
# Poissons Ratio (y) = 0.56041 0.20547
# Poissons Ratio (z) = 0.18323 0.13396
#
# Static dielectric constant tensor:
#      x y z
#    x 1.692830 0.000000 0.000000 
#    y 0.000000 1.853840 0.000000 
#    z 0.000000 0.000000 1.755120 
# 
# From -- ./inp_files/43406.got.cif
#   From: 2010.05.17/outbox.cif.g08.bks.cpg/sg72_22_cif.got.tgz:43406.got - 2010.06.03 17:03:01.
