data_PCOD9529765
_publ_section_title
;
Structure prediction by ZEFSAII (Michael W. Deem and Ramdas Pophale) SiO2 
 PCOD9529765
Probable space group: I B C A 
;
_chemical_formula_sum "Si O2"
_cell_formula_units_Z 96
_cell_length_a 11.701427
_cell_length_b 12.461268
_cell_length_c 28.260442
_cell_angle_alpha 90.000000
_cell_angle_beta 90.000000
_cell_angle_gamma 90.000000
_cell_volume 4120.785550
_symmetry_space_group_name_H-M "I B C A "
_symmetry_group_IT_number 73
_symmetry_cell_setting 'orthorhombic'
loop_
_space_group_symop_operation_xyz
x,y,z
-x,1/2-y,z
x,-y,1/2-z
1/2-x,y,-z
-x,-y,-z
x,1/2+y,-z
-x,y,1/2+z
1/2+x,-y,z
1/2+x,1/2+y,1/2+z
1/2-x,-y,1/2+z
1/2+x,1/2-y,-z
-x,1/2+y,1/2-z
1/2-x,1/2-y,1/2-z
1/2+x,y,1/2-z
1/2-x,1/2+y,z
x,1/2-y,1/2+z
loop_
_atom_site_type_symbol
_atom_site_label
_atom_site_fract_x
_atom_site_fract_y
_atom_site_fract_z
Si Si1 0.437528 0.855069 0.952852
Si Si2 0.837259 0.000000 0.250000
Si Si3 0.106202 0.832410 0.151830
Si Si4 0.350092 0.471155 0.593105
Si Si5 0.250000 0.030868 0.500000
Si Si6 0.504798 0.068697 0.832843
Si Si7 0.769061 0.662800 0.323153
O O1 0.500000 0.750000 0.969665
O O2 0.366577 0.832297 0.904574
O O3 0.538338 0.928634 0.933705
O O4 0.362687 0.899475 0.994649
O O5 0.763322 0.085660 0.279421
O O6 0.920816 0.937068 0.285697
O O7 0.063343 0.952170 0.164195
O O8 0.211065 0.779869 0.179897
O O9 0.000000 0.750000 0.158513
O O10 0.258748 0.476281 0.550882
O O11 0.404089 0.568373 0.623864
O O12 0.296424 0.393245 0.632483
O O13 0.404106 0.155444 0.831838
#
# Coordination Sequence:
#
# PCOD9529765 Si02
#       7
#    16   8  16  16   8  16  16
#     4  10  20  39  57  85 118 159 205 249 304 380
#     4  10  20  36  58  90 130 154 202 258 312 372
#     4  10  17  40  64  83 120 168 203 247 314 379
#     4  10  20  38  61  84 122 156 208 253 313 371
#     4  12  24  36  60  92 120 160 208 268 318 354
#     4  10  21  37  62  95 122 162 217 255 306 383
#     4  11  20  38  67  87 121 171 205 253 321 369
#
# _framework density 23.296530000000001
#
# number of rings (size 3 to 8) (size 9 to 14) (size 15 to 20)
#    0.000    1.667    6.667    3.000    0.000    0.667 
#    3.000    5.000    0.000    2.000    0.000    0.000 
#    0.000    0.000    0.000    0.000    0.000    0.000 
#
# Total GULP energy -268090.767490 kJ/mol
# GULP energy per Si atom -5585.224323 kJ/mol
# Density = 2.324351 g / cm^3
# Si number density = 23.296530 Si / 1000 Ang^3
#
#
#
# Elastic Constant Matrix: (Units=GPa)
#
#
# Indices 1 2 3 4 5 6 
#
# 1 80.8008 15.9295 22.6190 0.0000 0.0000 0.0000
# 2 15.9295 40.8192 28.1417 0.0000 0.0000 0.0000
# 3 22.6190 28.1417 82.0247 0.0000 0.0000 0.0000
# 4 0.0000 0.0000 0.0000 16.0208 0.0000 0.0000
# 5 0.0000 0.0000 0.0000 0.0000 50.5628 0.0000
# 6 0.0000 0.0000 0.0000 0.0000 0.0000 30.7856
#
#
#
# Elastic Compliance Matrix: (Units=1/GPa)
#
#
# Indices 1 2 3 4 5 6 
#
# 1 0.013808 -0.003620 -0.002566 0.000000 0.000000 0.000000
# 2 -0.003620 0.033037 -0.010336 0.000000 0.000000 0.000000
# 3 -0.002566 -0.010336 0.016445 0.000000 0.000000 0.000000
# 4 0.000000 0.000000 0.000000 0.062419 0.000000 0.000000
# 5 0.000000 0.000000 0.000000 0.000000 0.019777 0.000000
# 6 0.000000 0.000000 0.000000 0.000000 0.000000 0.032483
#
#
# Mechanical properties :
#
#
# Convention : Reuss Voigt Hill
#
# Bulk Modulus (GPa) = 33.06163 37.44724 35.25444
# Shear Modulus (GPa) = 22.61470 28.60414 25.60942
#
# Velocity S-wave (km/s) = 3.11904 3.50784 3.31914
# Velocity P-wave (km/s) = 5.21475 5.70225 5.46394
#
# Compressibility (1/GPa) = 0.03024654
#
# Stress axis : x y z
#
# Youngs Moduli (GPa) = 72.42197 30.26912 60.80760
#
# Poissons Ratio (x) = 0.10956 0.15602
# Poissons Ratio (y) = 0.26214 0.62854
# Poissons Ratio (z) = 0.18582 0.31288
#
# Static dielectric constant tensor:
#      x y z
#    x 2.264980 0.000000 0.000000 
#    y 0.000000 1.940570 0.000000 
#    z 0.000000 0.000000 1.894670 
# 
# From -- ./inp_files/33983.got.cif
#   From: 2010.05.17/outbox.cif.g08.bks.cpg/sg73_17_cif.got.tgz:33983.got - 2010.06.03 17:35:07.
