data_PCOD9529748
_publ_section_title
;
Structure prediction by ZEFSAII (Michael W. Deem and Ramdas Pophale) SiO2 
 PCOD9529748
Probable space group: I B C A 
;
_chemical_formula_sum "Si O2"
_cell_formula_units_Z 88
_cell_length_a 14.386795
_cell_length_b 15.328164
_cell_length_c 20.881593
_cell_angle_alpha 90.000000
_cell_angle_beta 90.000000
_cell_angle_gamma 90.000000
_cell_volume 4604.874732
_symmetry_space_group_name_H-M "I B C A "
_symmetry_group_IT_number 73
_symmetry_cell_setting 'orthorhombic'
loop_
_space_group_symop_operation_xyz
x,y,z
-x,1/2-y,z
x,-y,1/2-z
1/2-x,y,-z
-x,-y,-z
x,1/2+y,-z
-x,y,1/2+z
1/2+x,-y,z
1/2+x,1/2+y,1/2+z
1/2-x,-y,1/2+z
1/2+x,1/2-y,-z
-x,1/2+y,1/2-z
1/2-x,1/2-y,1/2-z
1/2+x,y,1/2-z
1/2-x,1/2+y,z
x,1/2-y,1/2+z
loop_
_atom_site_type_symbol
_atom_site_label
_atom_site_fract_x
_atom_site_fract_y
_atom_site_fract_z
Si Si1 0.349251 0.786236 0.151101
Si Si2 0.540969 0.870221 0.107313
Si Si3 0.650778 0.297868 0.610745
Si Si4 0.062787 0.458275 0.815371
Si Si5 0.000000 0.250000 0.992448
Si Si6 0.583511 0.820068 0.781560
O O1 0.438618 0.841186 0.129521
O O2 0.382040 0.686221 0.145171
O O3 0.261428 0.801960 0.106047
O O4 0.341301 0.813195 0.225213
O O5 0.551917 0.969209 0.129306
O O6 0.541899 0.828592 0.036089
O O7 0.620927 0.380054 0.653829
O O8 0.583313 0.289463 0.550174
O O9 0.627835 0.212526 0.652893
O O10 0.102559 0.500000 0.750000
O O11 0.966803 0.411983 0.792309
O O12 0.500000 0.750000 0.766103
#
# Coordination Sequence:
#
# PCOD9529748 Si02
#       6
#    16  16  16  16   8  16
#     4  10  19  39  61  87 121 163 204 247 319 369
#     4  10  22  38  63  85 122 168 206 256 303 373
#     4  11  22  38  61  90 121 165 204 255 311 383
#     4  11  20  38  61  91 125 153 206 264 320 366
#     4  10  22  42  62  86 122 178 210 246 316 382
#     4  10  17  35  61  85 122 159 193 248 320 371
#
# _framework density 19.110182999999999
#
# number of rings (size 3 to 8) (size 9 to 14) (size 15 to 20)
#    0.000    1.818    6.364    1.636    0.000    3.636 
#    6.545    0.000    0.000    4.364    0.000    0.000 
#    0.000    0.000    0.000    0.000    0.000    0.000 
#
# Total GULP energy -245067.700363 kJ/mol
# GULP energy per Si atom -5569.720463 kJ/mol
# Density = 1.906669 g / cm^3
# Si number density = 19.110183 Si / 1000 Ang^3
#
#
#
# Elastic Constant Matrix: (Units=GPa)
#
#
# Indices 1 2 3 4 5 6 
#
# 1 69.7594 32.7952 18.7245 0.0000 0.0000 0.0000
# 2 32.7952 93.5313 24.8166 0.0000 0.0000 0.0000
# 3 18.7245 24.8166 88.3251 0.0000 0.0000 0.0000
# 4 0.0000 0.0000 0.0000 26.5874 0.0000 0.0000
# 5 0.0000 0.0000 0.0000 0.0000 299.2347 0.0000
# 6 0.0000 0.0000 0.0000 0.0000 0.0000 7.3968
#
#
#
# Elastic Compliance Matrix: (Units=1/GPa)
#
#
# Indices 1 2 3 4 5 6 
#
# 1 0.017534 -0.005578 -0.002150 0.000000 0.000000 0.000000
# 2 -0.005578 0.013327 -0.002562 0.000000 0.000000 0.000000
# 3 -0.002150 -0.002562 0.012497 0.000000 0.000000 0.000000
# 4 0.000000 0.000000 0.000000 0.037612 0.000000 0.000000
# 5 0.000000 0.000000 0.000000 0.000000 0.003342 0.000000
# 6 0.000000 0.000000 0.000000 0.000000 0.000000 0.135194
#
#
# Mechanical properties :
#
#
# Convention : Reuss Voigt Hill
#
# Bulk Modulus (GPa) = 43.89940 44.92093 44.41017
# Shear Modulus (GPa) = 20.18742 78.32907 49.25824
#
# Velocity S-wave (km/s) = 3.25371 6.40914 5.08251
# Velocity P-wave (km/s) = 6.09402 8.85024 7.59815
#
# Compressibility (1/GPa) = 0.02277935
#
# Stress axis : x y z
#
# Youngs Moduli (GPa) = 57.03129 75.03513 80.01617
#
# Poissons Ratio (x) = 0.41852 0.17204
# Poissons Ratio (y) = 0.31810 0.20501
# Poissons Ratio (z) = 0.12262 0.19225
#
# Static dielectric constant tensor:
#      x y z
#    x 1.701590 0.000000 0.000000 
#    y 0.000000 1.676310 0.000000 
#    z 0.000000 0.000000 1.742100 
# 
# From -- ./inp_files/18570.got.cif
#   From: 2010.05.17/outbox.cif.g08.bks.cpg/sg73_10_cif.got.tgz:18570.got - 2010.06.03 17:35:07.
