data_PCOD9529090
_publ_section_title
;
Structure prediction by ZEFSAII (Michael W. Deem and Ramdas Pophale) SiO2 
 PCOD9529090
Probable space group: I B A M
;
_chemical_formula_sum "Si O2"
_cell_formula_units_Z 96
_cell_length_a 22.355714
_cell_length_b 14.293862
_cell_length_c 14.617077
_cell_angle_alpha 90.000000
_cell_angle_beta 90.000000
_cell_angle_gamma 90.000000
_cell_volume 4670.879513
_symmetry_space_group_name_H-M "I B A M"
_symmetry_group_IT_number 72
_symmetry_cell_setting 'orthorhombic'
loop_
_space_group_symop_operation_xyz
x,y,z
-x,-y,z
x,-y,1/2-z
-x,y,1/2-z
-x,-y,-z
x,y,-z
-x,y,1/2+z
x,-y,1/2+z
1/2+x,1/2+y,1/2+z
1/2-x,1/2-y,1/2+z
1/2+x,1/2-y,-z
1/2-x,1/2+y,-z
1/2-x,1/2-y,1/2-z
1/2+x,1/2+y,1/2-z
1/2-x,1/2+y,z
1/2+x,1/2-y,z
loop_
_atom_site_type_symbol
_atom_site_label
_atom_site_fract_x
_atom_site_fract_y
_atom_site_fract_z
Si Si1 0.750958 0.501746 0.889682
Si Si2 0.145553 0.361227 0.893025
Si Si3 0.745301 0.784330 0.893748
Si Si4 0.412599 0.426376 0.000000
Si Si5 0.549745 0.628454 0.500000
Si Si6 0.654863 0.642618 0.823384
Si Si7 0.938109 0.770797 0.192865
O O1 0.816271 0.545869 0.871051
O O2 0.745863 0.392274 0.871100
O O3 0.703182 0.560101 0.831961
O O4 0.740385 0.517857 0.000000
O O5 0.194790 0.277344 0.888224
O O6 0.093304 0.329775 0.824721
O O7 0.126304 0.367661 0.000000
O O8 0.694487 0.735949 0.833863
O O9 0.725837 0.779273 0.000000
O O10 0.482594 0.408558 0.000000
O O11 0.405440 0.539338 0.000000
O O12 0.384869 0.377919 0.912126
O O13 0.555550 0.688252 0.591349
O O14 0.608302 0.659061 0.742810
O O15 0.000000 0.767013 0.250000
#
# Coordination Sequence:
#
# PCOD9529090 Si02
#       7
#    16  16  16   8   8  16  16
#     4   9  18  34  61  95 128 168 203 250 315 376
#     4   9  19  37  59  86 125 163 206 252 310 378
#     4   9  18  35  63  93 128 168 202 247 316 370
#     4  11  22  42  63  88 132 160 206 259 297 373
#     4  11  26  44  59  88 126 174 206 247 312 368
#     4  11  21  38  64  97 126 164 210 257 307 375
#     4  12  25  41  63  90 122 167 212 258 311 370
#
# _framework density 20.552873999999999
#
# number of rings (size 3 to 8) (size 9 to 14) (size 15 to 20)
#    0.000    1.833    4.167    1.000    2.333    3.333 
#    0.000    2.500    0.000    2.000    0.000    4.667 
#    0.000    0.000    0.000    0.000    0.000    0.000 
#
# Total GULP energy -268236.576966 kJ/mol
# GULP energy per Si atom -5588.262020 kJ/mol
# Density = 2.050610 g / cm^3
# Si number density = 20.552874 Si / 1000 Ang^3
#
#
#
# Elastic Constant Matrix: (Units=GPa)
#
#
# Indices 1 2 3 4 5 6 
#
# 1 84.7002 14.6392 36.7861 0.0000 0.0000 0.0000
# 2 14.6392 73.9294 4.1209 0.0000 0.0000 0.0000
# 3 36.7861 4.1209 107.2053 0.0000 0.0000 0.0000
# 4 0.0000 0.0000 0.0000 20.4678 0.0000 0.0000
# 5 0.0000 0.0000 0.0000 0.0000 25.1510 0.0000
# 6 0.0000 0.0000 0.0000 0.0000 0.0000 12.3619
#
#
#
# Elastic Compliance Matrix: (Units=1/GPa)
#
#
# Indices 1 2 3 4 5 6 
#
# 1 0.014346 -0.002572 -0.004824 0.000000 0.000000 0.000000
# 2 -0.002572 0.014017 0.000344 0.000000 0.000000 0.000000
# 3 -0.004824 0.000344 0.010970 0.000000 0.000000 0.000000
# 4 0.000000 0.000000 0.000000 0.048857 0.000000 0.000000
# 5 0.000000 0.000000 0.000000 0.000000 0.039760 0.000000
# 6 0.000000 0.000000 0.000000 0.000000 0.000000 0.080894
#
#
# Mechanical properties :
#
#
# Convention : Reuss Voigt Hill
#
# Bulk Modulus (GPa) = 39.63763 41.88080 40.75921
# Shear Modulus (GPa) = 21.61170 25.61539 23.61354
#
# Velocity S-wave (km/s) = 3.24623 3.53415 3.39324
# Velocity P-wave (km/s) = 5.77739 6.08892 5.93520
#
# Compressibility (1/GPa) = 0.02522855
#
# Stress axis : x y z
#
# Youngs Moduli (GPa) = 69.70662 71.34439 91.15869
#
# Poissons Ratio (x) = 0.18348 0.43972
# Poissons Ratio (y) = 0.17927 -0.03133
# Poissons Ratio (z) = 0.33625 -0.02452
#
# Static dielectric constant tensor:
#      x y z
#    x 1.732800 0.000000 0.000000 
#    y 0.000000 1.749940 0.000000 
#    z 0.000000 0.000000 1.834450 
# 
# From -- ./inp_files/25138.got.cif
#   From: 2010.05.17/outbox.cif.g08.bks.cpg/sg72_13_cif.got.tgz:25138.got - 2010.06.03 17:03:01.
