data_PCOD9529786
_publ_section_title
;
Structure prediction by ZEFSAII (Michael W. Deem and Ramdas Pophale) SiO2 
 PCOD9529786
Probable space group: I B C A 
;
_chemical_formula_sum "Si O2"
_cell_formula_units_Z 88
_cell_length_a 18.420503
_cell_length_b 20.729505
_cell_length_c 9.309564
_cell_angle_alpha 90.000000
_cell_angle_beta 90.000000
_cell_angle_gamma 90.000000
_cell_volume 3554.837547
_symmetry_space_group_name_H-M "I B C A "
_symmetry_group_IT_number 73
_symmetry_cell_setting 'orthorhombic'
loop_
_space_group_symop_operation_xyz
x,y,z
-x,1/2-y,z
x,-y,1/2-z
1/2-x,y,-z
-x,-y,-z
x,1/2+y,-z
-x,y,1/2+z
1/2+x,-y,z
1/2+x,1/2+y,1/2+z
1/2-x,-y,1/2+z
1/2+x,1/2-y,-z
-x,1/2+y,1/2-z
1/2-x,1/2-y,1/2-z
1/2+x,y,1/2-z
1/2-x,1/2+y,z
x,1/2-y,1/2+z
loop_
_atom_site_type_symbol
_atom_site_label
_atom_site_fract_x
_atom_site_fract_y
_atom_site_fract_z
Si Si1 0.750000 0.231119 0.000000
Si Si2 0.529529 0.316376 0.573728
Si Si3 0.843342 0.731742 0.242337
Si Si4 0.873146 0.627313 0.622105
Si Si5 0.933025 0.572556 0.879947
Si Si6 0.099512 0.463591 0.613118
O O1 0.810868 0.267359 0.098987
O O2 0.707175 0.194990 0.126299
O O3 0.500000 0.250000 0.509033
O O4 0.577826 0.296813 0.710988
O O5 0.458802 0.356178 0.611887
O O6 0.572035 0.358313 0.458705
O O7 0.840188 0.805541 0.179671
O O8 0.876399 0.575717 0.750148
O O9 0.856804 0.593343 0.469367
O O10 0.018569 0.561466 0.841409
O O11 0.914465 0.517812 0.993721
O O12 0.132696 0.500000 0.750000
#
# Coordination Sequence:
#
# PCOD9529786 Si02
#       6
#     8  16  16  16  16  16
#     4  10  22  38  56  76 108 150 188 234 282 340
#     4   9  19  31  51  83 118 148 179 228 288 346
#     4  10  21  38  56  80 111 146 192 234 285 344
#     4  10  20  33  54  82 113 147 183 233 286 342
#     4  10  18  30  48  75 113 152 183 217 272 343
#     4  10  19  31  47  74 114 153 185 219 275 348
#
# _framework density 24.754999999999999
#
# number of rings (size 3 to 8) (size 9 to 14) (size 15 to 20)
#    0.000    2.182    0.000    4.909    0.000    8.000 
#    0.000    0.000    0.000    0.000    0.000   19.091 
#    0.000    0.000    0.000    0.000    0.000    0.000 
#
# Total GULP energy -245601.771101 kJ/mol
# GULP energy per Si atom -5581.858434 kJ/mol
# Density = 2.469866 g / cm^3
# Si number density = 24.755000 Si / 1000 Ang^3
#
#
#
# Elastic Constant Matrix: (Units=GPa)
#
#
# Indices 1 2 3 4 5 6 
#
# 1 38.1114 3.5150 26.6152 0.0000 0.0000 0.0000
# 2 3.5150 112.6416 37.9083 0.0000 0.0000 0.0000
# 3 26.6152 37.9083 152.5089 0.0000 0.0000 0.0000
# 4 0.0000 0.0000 0.0000 40.6961 0.0000 0.0000
# 5 0.0000 0.0000 0.0000 0.0000 31.4737 0.0000
# 6 0.0000 0.0000 0.0000 0.0000 0.0000 4.9208
#
#
#
# Elastic Compliance Matrix: (Units=1/GPa)
#
#
# Indices 1 2 3 4 5 6 
#
# 1 0.029964 0.000900 -0.005453 0.000000 0.000000 0.000000
# 2 0.000900 0.009715 -0.002572 0.000000 0.000000 0.000000
# 3 -0.005453 -0.002572 0.008148 0.000000 0.000000 0.000000
# 4 0.000000 0.000000 0.000000 0.024572 0.000000 0.000000
# 5 0.000000 0.000000 0.000000 0.000000 0.031773 0.000000
# 6 0.000000 0.000000 0.000000 0.000000 0.000000 0.203221
#
#
# Mechanical properties :
#
#
# Convention : Reuss Voigt Hill
#
# Bulk Modulus (GPa) = 29.78183 48.81544 39.29864
# Shear Modulus (GPa) = 15.02248 31.09967 23.06107
#
# Velocity S-wave (km/s) = 2.46610 3.54828 3.05548
# Velocity P-wave (km/s) = 4.49061 6.04560 5.32517
#
# Compressibility (1/GPa) = 0.03357752
#
# Stress axis : x y z
#
# Youngs Moduli (GPa) = 33.37343 102.93165 122.73095
#
# Poissons Ratio (x) = -0.09265 0.66924
# Poissons Ratio (y) = -0.03004 0.31566
# Poissons Ratio (z) = 0.18198 0.26473
#
# Static dielectric constant tensor:
#      x y z
#    x 2.000060 0.000000 0.000000 
#    y 0.000000 2.011840 0.000000 
#    z 0.000000 0.000000 2.036230 
# 
# From -- ./inp_files/6267.got.cif
#   From: 2010.05.17/outbox.cif.g08.bks.cpg/sg73_4_cif.got.tgz:6267.got - 2010.06.03 17:35:07.
