data_PCOD9529899
_publ_section_title
;
Structure prediction by ZEFSAII (Michael W. Deem and Ramdas Pophale) SiO2 
 PCOD9529899
Probable space group: I B C A 
;
_chemical_formula_sum "Si O2"
_cell_formula_units_Z 80
_cell_length_a 24.376928
_cell_length_b 18.088390
_cell_length_c 8.920739
_cell_angle_alpha 90.000000
_cell_angle_beta 90.000000
_cell_angle_gamma 90.000000
_cell_volume 3933.505130
_symmetry_space_group_name_H-M "I B C A "
_symmetry_group_IT_number 73
_symmetry_cell_setting 'orthorhombic'
loop_
_space_group_symop_operation_xyz
x,y,z
-x,1/2-y,z
x,-y,1/2-z
1/2-x,y,-z
-x,-y,-z
x,1/2+y,-z
-x,y,1/2+z
1/2+x,-y,z
1/2+x,1/2+y,1/2+z
1/2-x,-y,1/2+z
1/2+x,1/2-y,-z
-x,1/2+y,1/2-z
1/2-x,1/2-y,1/2-z
1/2+x,y,1/2-z
1/2-x,1/2+y,z
x,1/2-y,1/2+z
loop_
_atom_site_type_symbol
_atom_site_label
_atom_site_fract_x
_atom_site_fract_y
_atom_site_fract_z
Si Si1 0.903554 0.697254 0.109629
Si Si2 0.199803 0.645967 0.076051
Si Si3 0.571660 0.637434 0.416899
Si Si4 0.981908 0.913757 0.780850
Si Si5 0.328609 0.222477 0.356927
O O1 0.933295 0.773838 0.063753
O O2 0.942183 0.634777 0.174553
O O3 0.865076 0.728116 0.243625
O O4 0.866813 0.674789 0.967608
O O5 0.136552 0.617572 0.075331
O O6 0.208562 0.672915 0.247603
O O7 0.250000 0.601416 0.000000
O O8 0.196847 0.717900 0.968207
O O9 0.542685 0.613702 0.262940
O O10 0.537898 0.601181 0.551202
O O11 0.977634 0.000000 0.750000
#
# Coordination Sequence:
#
# PCOD9529899 Si02
#       5
#    16  16  16  16  16
#     4  10  18  37  60  85 121 156 201 247 304 374
#     4  10  18  34  57  84 121 153 203 261 307 352
#     4  10  24  38  58  90 116 163 204 252 314 371
#     4  12  24  40  60  90 126 163 200 259 313 372
#     4   8  17  31  56  88 116 152 202 253 309 352
#
# _framework density 20.338094000000002
#
# number of rings (size 3 to 8) (size 9 to 14) (size 15 to 20)
#    0.000    2.400    4.000    1.800    5.600    1.600 
#    0.000    0.000    0.000    1.200    0.000    0.000 
#    0.000    0.000    0.000    0.000    0.000    0.000 
#
# Total GULP energy -222930.830864 kJ/mol
# GULP energy per Si atom -5573.270772 kJ/mol
# Density = 2.029180 g / cm^3
# Si number density = 20.338094 Si / 1000 Ang^3
#
#
#
# Elastic Constant Matrix: (Units=GPa)
#
#
# Indices 1 2 3 4 5 6 
#
# 1 109.7538 -2.8944 16.7685 0.0000 0.0000 0.0000
# 2 -2.8944 34.9472 -15.8397 0.0000 0.0000 0.0000
# 3 16.7685 -15.8397 73.3621 0.0000 0.0000 0.0000
# 4 0.0000 0.0000 0.0000 17.7467 0.0000 0.0000
# 5 0.0000 0.0000 0.0000 0.0000 44.3365 0.0000
# 6 0.0000 0.0000 0.0000 0.0000 0.0000 -285.6481
#
#
#
# Elastic Compliance Matrix: (Units=1/GPa)
#
#
# Indices 1 2 3 4 5 6 
#
# 1 0.009442 -0.000217 -0.002205 0.000000 0.000000 0.000000
# 2 -0.000217 0.031724 0.006899 0.000000 0.000000 0.000000
# 3 -0.002205 0.006899 0.015625 0.000000 0.000000 0.000000
# 4 0.000000 0.000000 0.000000 0.056348 0.000000 0.000000
# 5 0.000000 0.000000 0.000000 0.000000 0.022555 0.000000
# 6 0.000000 0.000000 0.000000 0.000000 0.000000 -0.003501
#
#
# Mechanical properties :
#
#
# Convention : Reuss Voigt Hill
#
# Bulk Modulus (GPa) = 15.21057 23.79244 19.50151
# Shear Modulus (GPa) = 34.44597 -30.04440 2.20079
#
# Velocity S-wave (km/s) = 4.11988 -3.84767 1.04137
# Velocity P-wave (km/s) = 5.48875 2.83117 3.32497
#
# Compressibility (1/GPa) = 0.06574377
#
# Stress axis : x y z
#
# Youngs Moduli (GPa) = 105.90427 31.52223 64.00131
#
# Poissons Ratio (x) = 0.00686 0.14114
# Poissons Ratio (y) = 0.02303 -0.44156
# Poissons Ratio (z) = 0.23354 -0.21748
#
# Static dielectric constant tensor:
#      x y z
#    x 1.858480 0.000000 0.000000 
#    y 0.000000 1.677200 0.000000 
#    z 0.000000 0.000000 1.779620 
# 
# From -- ./inp_files/7707.got.cif
#   From: 2010.05.17/outbox.cif.g08.bks.cpg/sg73_4_cif.got.tgz:7707.got - 2010.06.03 17:35:07.
