data_PCOD9529160
_publ_section_title
;
Structure prediction by ZEFSAII (Michael W. Deem and Ramdas Pophale) SiO2 
 PCOD9529160
Probable space group: I B A M
;
_chemical_formula_sum "Si O2"
_cell_formula_units_Z 80
_cell_length_a 15.210833
_cell_length_b 9.530930
_cell_length_c 25.638750
_cell_angle_alpha 90.000000
_cell_angle_beta 90.000000
_cell_angle_gamma 90.000000
_cell_volume 3716.936364
_symmetry_space_group_name_H-M "I B A M"
_symmetry_group_IT_number 72
_symmetry_cell_setting 'orthorhombic'
loop_
_space_group_symop_operation_xyz
x,y,z
-x,-y,z
x,-y,1/2-z
-x,y,1/2-z
-x,-y,-z
x,y,-z
-x,y,1/2+z
x,-y,1/2+z
1/2+x,1/2+y,1/2+z
1/2-x,1/2-y,1/2+z
1/2+x,1/2-y,-z
1/2-x,1/2+y,-z
1/2-x,1/2-y,1/2-z
1/2+x,1/2+y,1/2-z
1/2-x,1/2+y,z
1/2+x,1/2-y,z
loop_
_atom_site_type_symbol
_atom_site_label
_atom_site_fract_x
_atom_site_fract_y
_atom_site_fract_z
Si Si1 0.077149 0.384082 0.168976
Si Si2 0.477962 0.834066 0.944117
Si Si3 0.323830 0.248653 0.939610
Si Si4 0.251360 0.000309 0.370957
Si Si5 0.085454 0.080457 0.195846
O O1 0.172077 0.456601 0.169671
O O2 0.068210 0.245895 0.203775
O O3 0.000000 0.500000 0.175719
O O4 0.072494 0.321408 0.109748
O O5 0.570043 0.753253 0.939237
O O6 0.500000 0.000000 0.946727
O O7 0.435701 0.795955 0.000000
O O8 0.285032 0.369569 0.903781
O O9 0.293445 0.105236 0.912638
O O10 0.296300 0.258167 0.000000
O O11 0.170145 0.934726 0.340218
O O12 0.101900 0.000000 0.250000
O O13 0.000000 0.000000 0.172884
#
# Coordination Sequence:
#
# PCOD9529160 Si02
#       5
#    16  16  16  16  16
#     4  11  22  42  72 103 136 183 228 283 347 420
#     4   9  17  32  59  95 137 178 221 269 324 396
#     4  11  22  38  64 101 142 187 231 276 335 410
#     4  12  23  43  69 101 141 184 230 287 347 412
#     4  11  27  49  71  96 136 179 230 306 362 409
#
# _framework density 21.523102000000002
#
# number of rings (size 3 to 8) (size 9 to 14) (size 15 to 20)
#    0.000    1.200    6.000    1.800    0.000    1.600 
#    0.000    2.000    0.000    4.200    0.000    0.000 
#    0.000    0.000    0.000    0.000    0.000    0.000 
#
# Total GULP energy -223508.602298 kJ/mol
# GULP energy per Si atom -5587.715057 kJ/mol
# Density = 2.147411 g / cm^3
# Si number density = 21.523102 Si / 1000 Ang^3
#
#
#
# Elastic Constant Matrix: (Units=GPa)
#
#
# Indices 1 2 3 4 5 6 
#
# 1 119.3701 32.7102 16.8641 0.0000 0.0000 0.0000
# 2 32.7102 126.4382 22.7138 0.0000 0.0000 0.0000
# 3 16.8641 22.7138 55.4159 0.0000 0.0000 0.0000
# 4 0.0000 0.0000 0.0000 24.8719 0.0000 0.0000
# 5 0.0000 0.0000 0.0000 0.0000 7.6780 0.0000
# 6 0.0000 0.0000 0.0000 0.0000 0.0000 -5.8586
#
#
#
# Elastic Compliance Matrix: (Units=1/GPa)
#
#
# Indices 1 2 3 4 5 6 
#
# 1 0.009212 -0.002029 -0.001972 0.000000 0.000000 0.000000
# 2 -0.002029 0.008985 -0.003065 0.000000 0.000000 0.000000
# 3 -0.001972 -0.003065 0.019902 0.000000 0.000000 0.000000
# 4 0.000000 0.000000 0.000000 0.040206 0.000000 0.000000
# 5 0.000000 0.000000 0.000000 0.000000 0.130242 0.000000
# 6 0.000000 0.000000 0.000000 0.000000 0.000000 -0.170688
#
#
# Mechanical properties :
#
#
# Convention : Reuss Voigt Hill
#
# Bulk Modulus (GPa) = 41.72485 49.53338 45.62911
# Shear Modulus (GPa) = 83.36277 20.60065 51.98171
#
# Velocity S-wave (km/s) = 6.23024 3.09713 4.91976
# Velocity P-wave (km/s) = 8.43698 5.98779 7.31561
#
# Compressibility (1/GPa) = 0.02396653
#
# Stress axis : x y z
#
# Youngs Moduli (GPa) = 108.55593 111.30248 50.24688
#
# Poissons Ratio (x) = 0.22583 0.09907
# Poissons Ratio (y) = 0.22025 0.15401
# Poissons Ratio (z) = 0.21404 0.34116
#
# Static dielectric constant tensor:
#      x y z
#    x 1.891040 0.000000 0.000000 
#    y 0.000000 0.490210 0.000000 
#    z 0.000000 0.000000 1.808120 
# 
# From -- ./inp_files/52009.got.cif
#   From: 2010.05.17/outbox.cif.g08.bks.cpg/sg72_27_cif.got.tgz:52009.got - 2010.06.03 17:03:01.
