data_PCOD9529834
_publ_section_title
;
Structure prediction by ZEFSAII (Michael W. Deem and Ramdas Pophale) SiO2 
 PCOD9529834
Probable space group: I B C A 
;
_chemical_formula_sum "Si O2"
_cell_formula_units_Z 96
_cell_length_a 9.564613
_cell_length_b 31.180054
_cell_length_c 15.211378
_cell_angle_alpha 90.000000
_cell_angle_beta 90.000000
_cell_angle_gamma 90.000000
_cell_volume 4536.415483
_symmetry_space_group_name_H-M "I B C A "
_symmetry_group_IT_number 73
_symmetry_cell_setting 'orthorhombic'
loop_
_space_group_symop_operation_xyz
x,y,z
-x,1/2-y,z
x,-y,1/2-z
1/2-x,y,-z
-x,-y,-z
x,1/2+y,-z
-x,y,1/2+z
1/2+x,-y,z
1/2+x,1/2+y,1/2+z
1/2-x,-y,1/2+z
1/2+x,1/2-y,-z
-x,1/2+y,1/2-z
1/2-x,1/2-y,1/2-z
1/2+x,y,1/2-z
1/2-x,1/2+y,z
x,1/2-y,1/2+z
loop_
_atom_site_type_symbol
_atom_site_label
_atom_site_fract_x
_atom_site_fract_y
_atom_site_fract_z
Si Si1 0.598895 0.089913 0.238189
Si Si2 0.250000 0.554063 0.000000
Si Si3 0.524895 0.880641 0.076008
Si Si4 0.723179 0.181853 0.187251
Si Si5 0.250000 0.159507 0.500000
Si Si6 0.644528 0.462876 0.182875
Si Si7 0.535111 0.204195 0.338181
O O1 0.511354 0.099185 0.327045
O O2 0.664097 0.134159 0.204574
O O3 0.489991 0.067793 0.173276
O O4 0.727035 0.060442 0.268210
O O5 0.375049 0.586630 0.026001
O O6 0.202012 0.527089 0.085257
O O7 0.588550 0.833045 0.096508
O O8 0.378671 0.870067 0.030451
O O9 0.704767 0.188253 0.083071
O O10 0.640296 0.210118 0.257275
O O11 0.888737 0.186323 0.200536
O O12 0.600103 0.500000 0.250000
O O13 0.500000 0.250000 0.379962
#
# Coordination Sequence:
#
# PCOD9529834 Si02
#       7
#    16   8  16  16   8  16  16
#     4  10  20  38  60  81 113 157 201 244 294 372
#     4  10  22  40  62  86 120 158 200 246 304 382
#     4   9  20  36  58  85 114 157 202 241 299 362
#     4  10  20  35  57  81 112 157 201 239 295 357
#     4  10  18  32  52  84 110 136 196 252 284 342
#     4  11  22  39  60  88 119 153 196 252 312 369
#     4  10  20  36  56  83 117 157 204 250 294 349
#
# _framework density 21.162082000000002
#
# number of rings (size 3 to 8) (size 9 to 14) (size 15 to 20)
#    0.000    2.000    0.000    5.000    0.000    2.667 
#    0.000   17.500    0.000    0.000    0.000    0.000 
#    0.000    0.000    0.000    0.000    0.000    0.000 
#
# Total GULP energy -267715.445345 kJ/mol
# GULP energy per Si atom -5577.405111 kJ/mol
# Density = 2.111392 g / cm^3
# Si number density = 21.162082 Si / 1000 Ang^3
#
#
#
# Elastic Constant Matrix: (Units=GPa)
#
#
# Indices 1 2 3 4 5 6 
#
# 1 79.3570 -1.7197 8.3433 0.0000 0.0000 0.0000
# 2 -1.7197 47.6207 5.5094 0.0000 0.0000 0.0000
# 3 8.3433 5.5094 83.4969 0.0002 0.0001 0.0001
# 4 0.0000 0.0000 0.0002 16.4430 0.0001 0.0000
# 5 0.0000 0.0000 0.0001 0.0001 34.6294 0.0001
# 6 0.0000 0.0000 0.0001 0.0000 0.0001 6.5863
#
#
#
# Elastic Compliance Matrix: (Units=1/GPa)
#
#
# Indices 1 2 3 4 5 6 
#
# 1 0.012753 0.000613 -0.001315 0.000000 0.000000 0.000000
# 2 0.000613 0.021190 -0.001459 0.000000 0.000000 0.000000
# 3 -0.001315 -0.001459 0.012204 0.000000 0.000000 0.000000
# 4 0.000000 0.000000 0.000000 0.060816 0.000000 0.000000
# 5 0.000000 0.000000 0.000000 0.000000 0.028877 0.000000
# 6 0.000000 0.000000 0.000000 0.000000 0.000000 0.151831
#
#
# Mechanical properties :
#
#
# Convention : Reuss Voigt Hill
#
# Bulk Modulus (GPa) = 23.90962 26.08229 24.99595
# Shear Modulus (GPa) = 16.34331 24.75450 20.54890
#
# Velocity S-wave (km/s) = 2.78203 3.42388 3.11951
# Velocity P-wave (km/s) = 4.65214 5.28984 4.98121
#
# Compressibility (1/GPa) = 0.04182418
#
# Stress axis : x y z
#
# Youngs Moduli (GPa) = 78.41421 47.19154 81.93928
#
# Poissons Ratio (x) = -0.02891 0.10773
# Poissons Ratio (y) = -0.04804 0.11958
# Poissons Ratio (z) = 0.10309 0.06887
#
# Static dielectric constant tensor:
#      x y z
#    x 1.756720 0.000000 0.000000 
#    y 0.000000 1.812550 0.000000 
#    z 0.000000 0.000000 1.809620 
# 
# From -- ./inp_files/16288.got.cif
#   From: 2010.05.17/outbox.cif.g08.bks.cpg/sg73_9_cif.got.tgz:16288.got - 2010.06.03 17:35:07.
