data_PCOD9529298
_publ_section_title
;
Structure prediction by ZEFSAII (Michael W. Deem and Ramdas Pophale) SiO2 
 PCOD9529298
Probable space group: I B A M
;
_chemical_formula_sum "Si O2"
_cell_formula_units_Z 80
_cell_length_a 11.803029
_cell_length_b 22.910130
_cell_length_c 14.153117
_cell_angle_alpha 90.000000
_cell_angle_beta 90.000000
_cell_angle_gamma 90.000000
_cell_volume 3827.129207
_symmetry_space_group_name_H-M "I B A M"
_symmetry_group_IT_number 72
_symmetry_cell_setting 'orthorhombic'
loop_
_space_group_symop_operation_xyz
x,y,z
-x,-y,z
x,-y,1/2-z
-x,y,1/2-z
-x,-y,-z
x,y,-z
-x,y,1/2+z
x,-y,1/2+z
1/2+x,1/2+y,1/2+z
1/2-x,1/2-y,1/2+z
1/2+x,1/2-y,-z
1/2-x,1/2+y,-z
1/2-x,1/2-y,1/2-z
1/2+x,1/2+y,1/2-z
1/2-x,1/2+y,z
1/2+x,1/2-y,z
loop_
_atom_site_type_symbol
_atom_site_label
_atom_site_fract_x
_atom_site_fract_y
_atom_site_fract_z
Si Si1 0.158222 0.353287 0.701944
Si Si2 0.945736 0.685895 0.891618
Si Si3 0.024416 0.902539 0.500000
Si Si4 0.124637 0.482876 0.358484
Si Si5 0.590069 0.314814 0.165857
Si Si6 0.187199 0.983935 0.000000
O O1 0.112076 0.354034 0.810124
O O2 0.142665 0.413498 0.645155
O O3 0.287203 0.334182 0.702241
O O4 0.076200 0.310307 0.643310
O O5 0.897746 0.751029 0.880743
O O6 0.935985 0.665774 0.000000
O O7 0.047368 0.862187 0.590378
O O8 0.898953 0.930149 0.500000
O O9 0.110914 0.957283 0.500000
O O10 0.128163 0.500000 0.250000
O O11 0.227265 0.513141 0.412318
O O12 0.000000 0.500000 0.394703
O O13 0.500000 0.311248 0.250000
#
# Coordination Sequence:
#
# PCOD9529298 Si02
#       6
#    16  16   8  16  16   8
#     4  11  25  48  68 103 144 183 223 296 359 403
#     4  11  24  42  72 105 140 181 234 281 352 433
#     4  11  26  46  69 105 135 186 238 287 362 411
#     4  11  24  46  69 101 138 179 234 291 355 418
#     4  12  25  47  69 101 143 186 229 293 350 430
#     4  11  25  46  73  99 136 183 241 287 350 427
#
# _framework density 20.903396999999998
#
# number of rings (size 3 to 8) (size 9 to 14) (size 15 to 20)
#    0.000    0.800    5.000    3.300    5.600    0.000 
#    7.200    2.000    0.000    0.000    0.000    0.000 
#    0.000    0.000    0.000    0.000    0.000    0.000 
#
# Total GULP energy -223650.641376 kJ/mol
# GULP energy per Si atom -5591.266034 kJ/mol
# Density = 2.085582 g / cm^3
# Si number density = 20.903397 Si / 1000 Ang^3
#
#
#
# Elastic Constant Matrix: (Units=GPa)
#
#
# Indices 1 2 3 4 5 6 
#
# 1 165.9468 24.8350 51.1899 0.0000 0.0000 0.0000
# 2 24.8350 45.0476 -4.4187 0.0000 0.0000 0.0000
# 3 51.1899 -4.4187 136.4405 0.0000 0.0000 0.0000
# 4 0.0000 0.0000 0.0000 20.2945 0.0000 0.0000
# 5 0.0000 0.0000 0.0000 0.0000 28.1861 0.0000
# 6 0.0000 0.0000 0.0000 0.0000 0.0000 34.0040
#
#
#
# Elastic Compliance Matrix: (Units=1/GPa)
#
#
# Indices 1 2 3 4 5 6 
#
# 1 0.007627 -0.004500 -0.003007 0.000000 0.000000 0.000000
# 2 -0.004500 0.024924 0.002495 0.000000 0.000000 0.000000
# 3 -0.003007 0.002495 0.008538 0.000000 0.000000 0.000000
# 4 0.000000 0.000000 0.000000 0.049274 0.000000 0.000000
# 5 0.000000 0.000000 0.000000 0.000000 0.035479 0.000000
# 6 0.000000 0.000000 0.000000 0.000000 0.000000 0.029408
#
#
# Mechanical properties :
#
#
# Convention : Reuss Voigt Hill
#
# Bulk Modulus (GPa) = 32.18916 54.51636 43.35276
# Shear Modulus (GPa) = 28.46896 34.88549 31.67722
#
# Velocity S-wave (km/s) = 3.69444 4.08964 3.89705
# Velocity P-wave (km/s) = 5.79922 6.95967 6.40577
#
# Compressibility (1/GPa) = 0.03106636
#
# Stress axis : x y z
#
# Youngs Moduli (GPa) = 131.11107 40.12144 117.11945
#
# Poissons Ratio (x) = 0.18054 0.35221
# Poissons Ratio (y) = 0.58998 -0.29227
# Poissons Ratio (z) = 0.39429 -0.10012
#
# Static dielectric constant tensor:
#      x y z
#    x 1.717460 0.000000 0.000000 
#    y 0.000000 1.811890 0.000000 
#    z 0.000000 0.000000 1.752120 
# 
# From -- ./inp_files/20256.got.cif
#   From: 2010.05.17/outbox.cif.g08.bks.cpg/sg72_11_cif.got.tgz:20256.got - 2010.06.03 17:03:01.
