data_PCOD9529318
_publ_section_title
;
Structure prediction by ZEFSAII (Michael W. Deem and Ramdas Pophale) SiO2 
 PCOD9529318
Probable space group: I B A M
;
_chemical_formula_sum "Si O2"
_cell_formula_units_Z 96
_cell_length_a 15.541352
_cell_length_b 14.779632
_cell_length_c 20.540982
_cell_angle_alpha 90.000000
_cell_angle_beta 90.000000
_cell_angle_gamma 90.000000
_cell_volume 4718.170378
_symmetry_space_group_name_H-M "I B A M"
_symmetry_group_IT_number 72
_symmetry_cell_setting 'orthorhombic'
loop_
_space_group_symop_operation_xyz
x,y,z
-x,-y,z
x,-y,1/2-z
-x,y,1/2-z
-x,-y,-z
x,y,-z
-x,y,1/2+z
x,-y,1/2+z
1/2+x,1/2+y,1/2+z
1/2-x,1/2-y,1/2+z
1/2+x,1/2-y,-z
1/2-x,1/2+y,-z
1/2-x,1/2-y,1/2-z
1/2+x,1/2+y,1/2-z
1/2-x,1/2+y,z
1/2+x,1/2-y,z
loop_
_atom_site_type_symbol
_atom_site_label
_atom_site_fract_x
_atom_site_fract_y
_atom_site_fract_z
Si Si1 0.000000 0.500000 0.900014
Si Si2 0.909312 0.583436 0.284192
Si Si3 0.636428 0.059127 0.000000
Si Si4 0.894552 0.108591 0.379048
Si Si5 0.262140 0.380676 0.500000
Si Si6 0.298382 0.318706 0.000000
Si Si7 0.152493 0.781478 0.751665
Si Si8 0.404336 0.393267 0.122825
O O1 0.065603 0.560710 0.857675
O O2 0.068301 0.442361 0.940951
O O3 0.857104 0.500000 0.250000
O O4 0.884919 0.684096 0.269033
O O5 0.000000 0.580743 0.250000
O O6 0.699304 0.969448 0.000000
O O7 0.701093 0.142801 0.000000
O O8 0.825781 0.122387 0.437212
O O9 0.871545 0.169408 0.316099
O O10 0.995473 0.126833 0.394053
O O11 0.892370 0.000611 0.366777
O O12 0.205334 0.289729 0.500000
O O13 0.346115 0.357785 0.936460
O O14 0.250000 0.750000 0.750000
O O15 0.124406 0.845965 0.810547
#
# Coordination Sequence:
#
# PCOD9529318 Si02
#       8
#     8  16   8  16   8   8  16  16
#     4   9  23  42  72  94 133 197 220 284 352 415
#     4   9  21  42  65  94 133 177 222 275 338 419
#     4  11  24  46  67 100 142 174 243 288 348 423
#     4  11  24  47  71  99 136 183 231 291 355 414
#     4  12  26  45  71 103 142 176 236 299 352 423
#     4  12  26  43  69 101 134 184 228 287 350 413
#     4  12  26  40  66 105 138 179 231 291 349 418
#     4  11  24  45  72  97 134 186 235 287 353 417
#
# _framework density 20.346871
#
# number of rings (size 3 to 8) (size 9 to 14) (size 15 to 20)
#    0.000    1.333    1.667    3.500    4.667   10.667 
#    3.000    0.000    0.000    0.000    0.000    0.000 
#    0.000    0.000    0.000    0.000    0.000    0.000 
#
# Total GULP energy -267528.484862 kJ/mol
# GULP energy per Si atom -5573.510101 kJ/mol
# Density = 2.030056 g / cm^3
# Si number density = 20.346871 Si / 1000 Ang^3
#
#
#
# Elastic Constant Matrix: (Units=GPa)
#
#
# Indices 1 2 3 4 5 6 
#
# 1 85.0449 28.2987 28.9069 0.0000 0.0000 0.0000
# 2 28.2987 116.3226 46.1039 0.0000 0.0000 0.0000
# 3 28.9069 46.1039 124.8989 0.0000 0.0000 0.0000
# 4 0.0000 0.0000 0.0000 61.6444 0.0000 0.0000
# 5 0.0000 0.0000 0.0000 0.0000 12.4424 0.0000
# 6 0.0000 0.0000 0.0000 0.0000 0.0000 61.3191
#
#
#
# Elastic Compliance Matrix: (Units=1/GPa)
#
#
# Indices 1 2 3 4 5 6 
#
# 1 0.013293 -0.002360 -0.002206 0.000000 0.000000 0.000000
# 2 -0.002360 0.010489 -0.003326 0.000000 0.000000 0.000000
# 3 -0.002206 -0.003326 0.009745 0.000000 0.000000 0.000000
# 4 0.000000 0.000000 0.000000 0.016222 0.000000 0.000000
# 5 0.000000 0.000000 0.000000 0.000000 0.080370 0.000000
# 6 0.000000 0.000000 0.000000 0.000000 0.000000 0.016308
#
#
# Mechanical properties :
#
#
# Convention : Reuss Voigt Hill
#
# Bulk Modulus (GPa) = 56.35440 59.20951 57.78195
# Shear Modulus (GPa) = 29.73990 41.94499 35.84244
#
# Velocity S-wave (km/s) = 3.82729 4.54530 4.20166
# Velocity P-wave (km/s) = 6.87662 7.53057 7.21101
#
# Compressibility (1/GPa) = 0.01774484
#
# Stress axis : x y z
#
# Youngs Moduli (GPa) = 75.22528 95.33831 102.62172
#
# Poissons Ratio (x) = 0.22498 0.22634
# Poissons Ratio (y) = 0.17752 0.34128
# Poissons Ratio (z) = 0.16592 0.31706
#
# Static dielectric constant tensor:
#      x y z
#    x 1.679050 0.000000 0.000000 
#    y 0.000000 1.602180 0.000000 
#    z 0.000000 0.000000 1.476650 
# 
# From -- ./inp_files/38137.got.cif
#   From: 2010.05.17/outbox.cif.g08.bks.cpg/sg72_20_cif.got.tgz:38137.got - 2010.06.03 17:03:01.
