data_PCOD9529218
_publ_section_title
;
Structure prediction by ZEFSAII (Michael W. Deem and Ramdas Pophale) SiO2 
 PCOD9529218
Probable space group: I B A M
;
_chemical_formula_sum "Si O2"
_cell_formula_units_Z 68
_cell_length_a 16.298223
_cell_length_b 23.125528
_cell_length_c 9.492184
_cell_angle_alpha 90.000000
_cell_angle_beta 90.000000
_cell_angle_gamma 90.000000
_cell_volume 3577.651728
_symmetry_space_group_name_H-M "I B A M"
_symmetry_group_IT_number 72
_symmetry_cell_setting 'orthorhombic'
loop_
_space_group_symop_operation_xyz
x,y,z
-x,-y,z
x,-y,1/2-z
-x,y,1/2-z
-x,-y,-z
x,y,-z
-x,y,1/2+z
x,-y,1/2+z
1/2+x,1/2+y,1/2+z
1/2-x,1/2-y,1/2+z
1/2+x,1/2-y,-z
1/2-x,1/2+y,-z
1/2-x,1/2-y,1/2-z
1/2+x,1/2+y,1/2-z
1/2-x,1/2+y,z
1/2+x,1/2-y,z
loop_
_atom_site_type_symbol
_atom_site_label
_atom_site_fract_x
_atom_site_fract_y
_atom_site_fract_z
Si Si1 0.085858 0.833744 0.168327
Si Si2 0.806923 0.945287 0.668040
Si Si3 0.500000 0.000000 0.250000
Si Si4 0.415743 0.793626 0.333946
Si Si5 0.852029 0.580091 0.661054
O O1 0.145632 0.886286 0.204355
O O2 0.121456 0.769512 0.199719
O O3 0.000000 0.838935 0.250000
O O4 0.070975 0.836670 0.000000
O O5 0.808386 0.953403 0.500000
O O6 0.714475 0.939889 0.725791
O O7 0.844417 0.000000 0.750000
O O8 0.436533 0.043458 0.171995
O O9 0.500000 0.797617 0.250000
O O10 0.434298 0.793606 0.500000
O O11 0.366634 0.852172 0.308216
O O12 0.821336 0.573845 0.500000
#
# Coordination Sequence:
#
# PCOD9529218 Si02
#       5
#    16  16   4  16  16
#     4   9  20  39  62  86 114 149 191 239 289 342
#     4  11  24  40  58  84 117 151 191 241 291 342
#     4  12  22  36  60  90 120 152 188 228 278 336
#     4   9  18  35  57  84 115 150 193 236 280 335
#     4  11  23  37  58  87 120 155 191 233 282 340
#
# _framework density 19.006879999999999
#
# number of rings (size 3 to 8) (size 9 to 14) (size 15 to 20)
#    0.000    1.882    2.353    1.059    0.000    5.176 
#    0.000    2.353    0.000    0.000    0.000    0.000 
#    0.000    0.000    0.000    0.000    0.000    0.000 
#
# Total GULP energy -189544.643942 kJ/mol
# GULP energy per Si atom -5574.842469 kJ/mol
# Density = 1.896362 g / cm^3
# Si number density = 19.006880 Si / 1000 Ang^3
#
#
#
# Elastic Constant Matrix: (Units=GPa)
#
#
# Indices 1 2 3 4 5 6 
#
# 1 49.0583 46.0770 17.3420 0.0000 0.0000 0.0000
# 2 46.0770 178.0737 53.3982 0.0000 0.0000 0.0000
# 3 17.3420 53.3982 44.3320 0.0000 0.0000 -0.0001
# 4 0.0000 0.0000 0.0000 22.1410 0.0000 0.0000
# 5 0.0000 0.0000 0.0000 0.0000 21.4736 0.0000
# 6 0.0000 0.0000 -0.0001 0.0000 0.0000 -322.1194
#
#
#
# Elastic Compliance Matrix: (Units=1/GPa)
#
#
# Indices 1 2 3 4 5 6 
#
# 1 0.027250 -0.006034 -0.003392 0.000000 0.000000 0.000000
# 2 -0.006034 0.010127 -0.009838 0.000000 0.000000 0.000000
# 3 -0.003392 -0.009838 0.035733 0.000000 0.000000 0.000000
# 4 0.000000 0.000000 0.000000 0.045165 0.000000 0.000000
# 5 0.000000 0.000000 0.000000 0.000000 0.046569 0.000000
# 6 0.000000 0.000000 0.000000 0.000000 0.000000 -0.003104
#
#
# Mechanical properties :
#
#
# Convention : Reuss Voigt Hill
#
# Bulk Modulus (GPa) = 28.91546 56.12204 42.51875
# Shear Modulus (GPa) = 23.60782 -45.39115 -10.89167
#
# Velocity S-wave (km/s) = 3.52812 -4.89216 -2.39642
# Velocity P-wave (km/s) = 5.64296 1.52306 3.84209
#
# Compressibility (1/GPa) = 0.03458358
#
# Stress axis : x y z
#
# Youngs Moduli (GPa) = 36.69704 98.74711 27.98514
#
# Poissons Ratio (x) = 0.59583 0.09492
# Poissons Ratio (y) = 0.22143 0.27530
# Poissons Ratio (z) = 0.12447 0.97143
#
# Static dielectric constant tensor:
#      x y z
#    x 1.625560 0.000000 0.000000 
#    y 0.000000 1.735090 0.000000 
#    z 0.000000 0.000000 1.641470 
# 
# From -- ./inp_files/4390.got.cif
#   From: 2010.05.17/outbox.cif.g08.bks.cpg/sg72_3_cif.got.tgz:4390.got - 2010.06.03 17:03:01.
