data_PCOD9529222
_publ_section_title
;
Structure prediction by ZEFSAII (Michael W. Deem and Ramdas Pophale) SiO2 
 PCOD9529222
Probable space group: I B A M
;
_chemical_formula_sum "Si O2"
_cell_formula_units_Z 72
_cell_length_a 14.108750
_cell_length_b 10.360013
_cell_length_c 21.615255
_cell_angle_alpha 90.000000
_cell_angle_beta 90.000000
_cell_angle_gamma 90.000000
_cell_volume 3159.433377
_symmetry_space_group_name_H-M "I B A M"
_symmetry_group_IT_number 72
_symmetry_cell_setting 'orthorhombic'
loop_
_space_group_symop_operation_xyz
x,y,z
-x,-y,z
x,-y,1/2-z
-x,y,1/2-z
-x,-y,-z
x,y,-z
-x,y,1/2+z
x,-y,1/2+z
1/2+x,1/2+y,1/2+z
1/2-x,1/2-y,1/2+z
1/2+x,1/2-y,-z
1/2-x,1/2+y,-z
1/2-x,1/2-y,1/2-z
1/2+x,1/2+y,1/2-z
1/2-x,1/2+y,z
1/2+x,1/2-y,z
loop_
_atom_site_type_symbol
_atom_site_label
_atom_site_fract_x
_atom_site_fract_y
_atom_site_fract_z
Si Si1 0.609686 0.228910 0.702602
Si Si2 0.732432 0.935614 0.868075
Si Si3 0.916076 0.101581 0.429216
Si Si4 0.358848 0.500000 0.250000
Si Si5 0.406717 0.843506 0.163391
O O1 0.682530 0.202438 0.646739
O O2 0.588972 0.377745 0.718737
O O3 0.643375 0.176807 0.769638
O O4 0.516392 0.149492 0.683784
O O5 0.808686 0.951319 0.922133
O O6 0.794238 0.955112 0.806412
O O7 0.649265 0.041268 0.869095
O O8 0.933646 0.141231 0.500000
O O9 0.911911 0.221282 0.382249
O O10 0.000000 0.000000 0.413126
#
# Coordination Sequence:
#
# PCOD9529222 Si02
#       5
#    16  16  16   8  16
#     4  11  23  38  66 105 140 175 217 281 352 424
#     4  12  22  41  66 102 140 175 222 290 350 410
#     4  11  26  47  67  94 135 189 246 290 338 416
#     4  12  20  35  63  98 140 178 216 273 339 418
#     4  11  23  40  67  99 140 182 220 278 352 422
#
# _framework density 22.788896999999999
#
# number of rings (size 3 to 8) (size 9 to 14) (size 15 to 20)
#    0.000    0.667    4.444    4.000    0.000    3.556 
#    0.000    3.333    0.000    2.667    0.000    0.000 
#    0.000    0.000    0.000    0.000    0.000    0.000 
#
# Total GULP energy -200842.482333 kJ/mol
# GULP energy per Si atom -5578.957843 kJ/mol
# Density = 2.273703 g / cm^3
# Si number density = 22.788897 Si / 1000 Ang^3
#
#
#
# Elastic Constant Matrix: (Units=GPa)
#
#
# Indices 1 2 3 4 5 6 
#
# 1 109.7559 65.7976 28.9111 0.0000 0.0000 0.0000
# 2 65.7976 130.0303 30.5878 0.0000 0.0000 0.0000
# 3 28.9111 30.5878 92.3188 0.0000 0.0000 0.0000
# 4 0.0000 0.0000 0.0000 18.5447 0.0000 0.0000
# 5 0.0000 0.0000 0.0000 0.0000 25.0282 0.0000
# 6 0.0000 0.0000 0.0000 0.0000 0.0000 34.6114
#
#
#
# Elastic Compliance Matrix: (Units=1/GPa)
#
#
# Indices 1 2 3 4 5 6 
#
# 1 0.013451 -0.006307 -0.002123 0.000000 0.000000 0.000000
# 2 -0.006307 0.011298 -0.001768 0.000000 0.000000 0.000000
# 3 -0.002123 -0.001768 0.012083 0.000000 0.000000 0.000000
# 4 0.000000 0.000000 0.000000 0.053924 0.000000 0.000000
# 5 0.000000 0.000000 0.000000 0.000000 0.039955 0.000000
# 6 0.000000 0.000000 0.000000 0.000000 0.000000 0.028892
#
#
# Mechanical properties :
#
#
# Convention : Reuss Voigt Hill
#
# Bulk Modulus (GPa) = 60.84296 64.74424 62.79360
# Shear Modulus (GPa) = 26.95735 29.42408 28.19072
#
# Velocity S-wave (km/s) = 3.44309 3.59717 3.52097
# Velocity P-wave (km/s) = 6.52403 6.76202 6.64409
#
# Compressibility (1/GPa) = 0.01643576
#
# Stress axis : x y z
#
# Youngs Moduli (GPa) = 74.34132 88.51072 82.76348
#
# Poissons Ratio (x) = 0.55827 0.17569
# Poissons Ratio (y) = 0.46890 0.14634
# Poissons Ratio (z) = 0.15781 0.15650
#
# Static dielectric constant tensor:
#      x y z
#    x 1.980660 0.000000 0.000000 
#    y 0.000000 1.946200 0.000000 
#    z 0.000000 0.000000 1.769950 
# 
# From -- ./inp_files/44011.got.cif
#   From: 2010.05.17/outbox.cif.g08.bks.cpg/sg72_23_cif.got.tgz:44011.got - 2010.06.03 17:03:01.
