data_PCOD9529403
_publ_section_title
;
Structure prediction by ZEFSAII (Michael W. Deem and Ramdas Pophale) SiO2 
 PCOD9529403
Probable space group: I B A M
;
_chemical_formula_sum "Si O2"
_cell_formula_units_Z 92
_cell_length_a 19.560863
_cell_length_b 13.650096
_cell_length_c 14.663964
_cell_angle_alpha 90.000000
_cell_angle_beta 90.000000
_cell_angle_gamma 90.000000
_cell_volume 3915.390682
_symmetry_space_group_name_H-M "I B A M"
_symmetry_group_IT_number 72
_symmetry_cell_setting 'orthorhombic'
loop_
_space_group_symop_operation_xyz
x,y,z
-x,-y,z
x,-y,1/2-z
-x,y,1/2-z
-x,-y,-z
x,y,-z
-x,y,1/2+z
x,-y,1/2+z
1/2+x,1/2+y,1/2+z
1/2-x,1/2-y,1/2+z
1/2+x,1/2-y,-z
1/2-x,1/2+y,-z
1/2-x,1/2-y,1/2-z
1/2+x,1/2+y,1/2-z
1/2-x,1/2+y,z
1/2+x,1/2-y,z
loop_
_atom_site_type_symbol
_atom_site_label
_atom_site_fract_x
_atom_site_fract_y
_atom_site_fract_z
Si Si1 0.817806 0.240134 0.689658
Si Si2 0.259635 0.772679 0.500000
Si Si3 0.250852 0.510991 0.000000
Si Si4 0.668775 0.044328 0.163447
Si Si5 0.555283 0.118387 0.391312
Si Si6 0.500000 0.000000 0.750000
Si Si7 0.376746 0.597943 0.500000
Si Si8 0.431476 0.664690 0.311161
O O1 0.750000 0.250000 0.750000
O O2 0.788708 0.224636 0.588666
O O3 0.853723 0.346390 0.685427
O O4 0.868525 0.164729 0.739068
O O5 0.287013 0.884466 0.500000
O O6 0.320753 0.691296 0.500000
O O7 0.222750 0.451670 0.084632
O O8 0.331580 0.501154 0.000000
O O9 0.706467 0.000000 0.250000
O O10 0.612474 0.961197 0.140858
O O11 0.544941 0.113875 0.500000
O O12 0.570335 0.226875 0.357103
O O13 0.492094 0.083329 0.330172
O O14 0.418039 0.602208 0.404015
O O15 0.500000 0.648406 0.250000
#
# Coordination Sequence:
#
# PCOD9529403 Si02
#       8
#    16   8   8  16  16   4   8  16
#     4  12  23  42  66 101 141 189 239 295 352 427
#     4  12  24  43  73 102 147 180 243 307 368 430
#     4  12  24  42  69 102 134 183 233 300 363 408
#     4  12  21  36  63  97 139 182 224 282 348 425
#     4  12  23  38  61  92 140 191 227 274 343 432
#     4  12  22  40  48  90 140 188 236 276 310 426
#     4  12  24  47  72 105 147 189 238 305 367 437
#     4  12  25  44  70 100 146 192 232 288 368 439
#
# _framework density 23.497015999999999
#
# number of rings (size 3 to 8) (size 9 to 14) (size 15 to 20)
#    0.000    0.000    8.696    2.348    0.000    0.696 
#    0.000    0.000    0.000    3.130    0.000    0.000 
#    0.000    0.000    0.000    0.000    0.000    0.000 
#
# Total GULP energy -256179.383914 kJ/mol
# GULP energy per Si atom -5569.117042 kJ/mol
# Density = 2.344354 g / cm^3
# Si number density = 23.497016 Si / 1000 Ang^3
#
#
#
# Elastic Constant Matrix: (Units=GPa)
#
#
# Indices 1 2 3 4 5 6 
#
# 1 128.1669 -5.3171 59.7699 0.0000 0.0000 0.0000
# 2 -5.3171 29.9356 -9.3638 0.0000 0.0000 0.0000
# 3 59.7699 -9.3638 229.0260 0.0000 0.0000 0.0000
# 4 0.0000 0.0000 0.0000 -23.2215 0.0000 0.0000
# 5 0.0000 0.0000 0.0000 0.0000 21.6414 0.0000
# 6 0.0000 0.0000 0.0000 0.0000 0.0000 39.4065
#
#
#
# Elastic Compliance Matrix: (Units=1/GPa)
#
#
# Indices 1 2 3 4 5 6 
#
# 1 0.008906 0.000866 -0.002289 0.000000 0.000000 0.000000
# 2 0.000866 0.033922 0.001161 0.000000 0.000000 0.000000
# 3 -0.002289 0.001161 0.005011 0.000000 0.000000 0.000000
# 4 0.000000 0.000000 0.000000 -0.043064 0.000000 0.000000
# 5 0.000000 0.000000 0.000000 0.000000 0.046208 0.000000
# 6 0.000000 0.000000 0.000000 0.000000 0.000000 0.025377
#
#
# Mechanical properties :
#
#
# Convention : Reuss Voigt Hill
#
# Bulk Modulus (GPa) = 21.13500 53.03404 37.08452
# Shear Modulus (GPa) = 53.96367 30.36790 42.16578
#
# Velocity S-wave (km/s) = 4.79750 3.59892 4.24077
# Velocity P-wave (km/s) = 6.30098 6.31579 6.30839
#
# Compressibility (1/GPa) = 0.04731488
#
# Stress axis : x y z
#
# Youngs Moduli (GPa) = 112.28905 29.47939 199.55776
#
# Poissons Ratio (x) = -0.02553 0.45673
# Poissons Ratio (y) = -0.09723 -0.23167
# Poissons Ratio (z) = 0.25700 -0.03422
#
# Static dielectric constant tensor:
#      x y z
#    x 2.329800 0.000000 0.000000 
#    y 0.000000 1.943480 0.000000 
#    z 0.000000 0.000000 1.937880 
# 
# From -- ./inp_files/24208.got.cif
#   From: 2010.05.17/outbox.cif.g08.bks.cpg/sg72_13_cif.got.tgz:24208.got - 2010.06.03 17:03:01.
