data_PCOD9529073
_publ_section_title
;
Structure prediction by ZEFSAII (Michael W. Deem and Ramdas Pophale) SiO2 
 PCOD9529073
Probable space group: I B A M
;
_chemical_formula_sum "Si O2"
_cell_formula_units_Z 64
_cell_length_a 7.544444
_cell_length_b 26.047017
_cell_length_c 16.831164
_cell_angle_alpha 90.000000
_cell_angle_beta 90.000000
_cell_angle_gamma 90.000000
_cell_volume 3307.496433
_symmetry_space_group_name_H-M "I B A M"
_symmetry_group_IT_number 72
_symmetry_cell_setting 'orthorhombic'
loop_
_space_group_symop_operation_xyz
x,y,z
-x,-y,z
x,-y,1/2-z
-x,y,1/2-z
-x,-y,-z
x,y,-z
-x,y,1/2+z
x,-y,1/2+z
1/2+x,1/2+y,1/2+z
1/2-x,1/2-y,1/2+z
1/2+x,1/2-y,-z
1/2-x,1/2+y,-z
1/2-x,1/2-y,1/2-z
1/2+x,1/2+y,1/2-z
1/2-x,1/2+y,z
1/2+x,1/2-y,z
loop_
_atom_site_type_symbol
_atom_site_label
_atom_site_fract_x
_atom_site_fract_y
_atom_site_fract_z
Si Si1 0.627907 0.281737 0.311038
Si Si2 0.557168 0.189731 0.906646
Si Si3 0.507386 0.081424 0.653956
Si Si4 0.204018 0.003219 0.346481
O O1 0.500000 0.311215 0.250000
O O2 0.750000 0.250000 0.250000
O O3 0.531091 0.239123 0.364940
O O4 0.749023 0.315138 0.367426
O O5 0.463767 0.136828 0.884026
O O6 0.564328 0.197512 0.000000
O O7 0.500000 0.086700 0.750000
O O8 0.669248 0.044256 0.630484
O O9 0.321450 0.053382 0.631395
O O10 0.198650 0.000000 0.250000
O O11 0.000000 0.000000 0.374649
#
# Coordination Sequence:
#
# PCOD9529073 Si02
#       4
#    16  16  16  16
#     4   9  19  37  58  78 106 145 195 234 271 332
#     4  11  21  36  55  83 117 150 181 233 300 346
#     4   9  17  32  55  80 112 145 193 237 280 343
#     4   8  15  31  53  81 107 143 193 246 280 324
#
# _framework density 19.349983000000002
#
# number of rings (size 3 to 8) (size 9 to 14) (size 15 to 20)
#    0.000    2.750    0.000    4.500    0.000    0.000 
#   18.000    2.500    0.000    1.500    0.000    0.000 
#    0.000    0.000    0.000    0.000    0.000    0.000 
#
# Total GULP energy -178250.507491 kJ/mol
# GULP energy per Si atom -5570.328359 kJ/mol
# Density = 1.930594 g / cm^3
# Si number density = 19.349983 Si / 1000 Ang^3
#
#
#
# Elastic Constant Matrix: (Units=GPa)
#
#
# Indices 1 2 3 4 5 6 
#
# 1 102.5216 12.4146 26.8111 0.0000 0.0000 0.0000
# 2 12.4146 57.6775 17.9274 0.0000 0.0000 0.0000
# 3 26.8111 17.9274 90.6434 0.0000 0.0000 0.0000
# 4 0.0000 0.0000 0.0000 8.2487 0.0000 0.0000
# 5 0.0000 0.0000 0.0000 0.0000 14.3638 0.0000
# 6 0.0000 0.0000 0.0000 0.0000 0.0000 14.1632
#
#
#
# Elastic Compliance Matrix: (Units=1/GPa)
#
#
# Indices 1 2 3 4 5 6 
#
# 1 0.010677 -0.001403 -0.002881 0.000000 0.000000 0.000000
# 2 -0.001403 0.018658 -0.003275 0.000000 0.000000 0.000000
# 3 -0.002881 -0.003275 0.012532 0.000000 0.000000 0.000000
# 4 0.000000 0.000000 0.000000 0.121231 0.000000 0.000000
# 5 0.000000 0.000000 0.000000 0.000000 0.069620 0.000000
# 6 0.000000 0.000000 0.000000 0.000000 0.000000 0.070605
#
#
# Mechanical properties :
#
#
# Convention : Reuss Voigt Hill
#
# Bulk Modulus (GPa) = 37.38373 40.57210 38.97792
# Shear Modulus (GPa) = 15.27385 20.26777 17.77081
#
# Velocity S-wave (km/s) = 2.81258 3.23991 3.03378
# Velocity P-wave (km/s) = 5.46893 5.91685 5.69729
#
# Compressibility (1/GPa) = 0.02674961
#
# Stress axis : x y z
#
# Youngs Moduli (GPa) = 93.65688 53.59715 79.79515
#
# Poissons Ratio (x) = 0.07519 0.22987
# Poissons Ratio (y) = 0.13138 0.26134
# Poissons Ratio (z) = 0.26980 0.17554
#
# Static dielectric constant tensor:
#      x y z
#    x 1.782370 0.000000 0.000000 
#    y 0.000000 2.145860 0.000000 
#    z 0.000000 0.000000 1.659060 
# 
# From -- ./inp_files/35715.got.cif
#   From: 2010.05.17/outbox.cif.g08.bks.cpg/sg72_18_cif.got.tgz:35715.got - 2010.06.03 17:03:01.
