data_PCOD9529953
_publ_section_title
;
Structure prediction by ZEFSAII (Michael W. Deem and Ramdas Pophale) SiO2 
 PCOD9529953
Probable space group: I B C A 
;
_chemical_formula_sum "Si O2"
_cell_formula_units_Z 120
_cell_length_a 22.967959
_cell_length_b 9.110978
_cell_length_c 28.265983
_cell_angle_alpha 90.000000
_cell_angle_beta 90.000000
_cell_angle_gamma 90.000000
_cell_volume 5914.955690
_symmetry_space_group_name_H-M "I B C A "
_symmetry_group_IT_number 73
_symmetry_cell_setting 'orthorhombic'
loop_
_space_group_symop_operation_xyz
x,y,z
-x,1/2-y,z
x,-y,1/2-z
1/2-x,y,-z
-x,-y,-z
x,1/2+y,-z
-x,y,1/2+z
1/2+x,-y,z
1/2+x,1/2+y,1/2+z
1/2-x,-y,1/2+z
1/2+x,1/2-y,-z
-x,1/2+y,1/2-z
1/2-x,1/2-y,1/2-z
1/2+x,y,1/2-z
1/2-x,1/2+y,z
x,1/2-y,1/2+z
loop_
_atom_site_type_symbol
_atom_site_label
_atom_site_fract_x
_atom_site_fract_y
_atom_site_fract_z
Si Si1 0.380217 0.735437 0.168080
Si Si2 0.395103 0.717126 0.505816
Si Si3 0.000000 0.250000 0.609305
Si Si4 0.449286 0.503562 0.055354
Si Si5 0.202208 0.766822 0.575191
Si Si6 0.181851 0.104549 0.586665
Si Si7 0.627072 0.909015 0.355683
Si Si8 0.937074 0.326334 0.263044
O O1 0.442794 0.741573 0.141407
O O2 0.339367 0.844529 0.138583
O O3 0.355065 0.571059 0.161641
O O4 0.396945 0.749941 0.222983
O O5 0.448803 0.633477 0.480171
O O6 0.411420 0.874066 0.527701
O O7 0.343270 0.733459 0.467218
O O8 0.370468 0.624784 0.549647
O O9 0.000415 0.103216 0.577193
O O10 0.417575 0.440372 0.101648
O O11 0.266774 0.707974 0.567209
O O12 0.178657 0.681988 0.621296
O O13 0.202607 0.938665 0.584923
O O14 0.594618 0.825937 0.313487
O O15 0.944211 0.500000 0.250000
O O16 0.000000 0.250000 0.264396
#
# Coordination Sequence:
#
# PCOD9529953 Si02
#       8
#    16  16   8  16  16  16  16  16
#     4  10  20  39  65  91 124 166 207 256 318 377
#     4  11  21  38  60  88 121 161 214 260 301 371
#     4  10  18  36  62  84 130 170 202 252 316 372
#     4  10  21  37  60  88 125 167 209 255 309 365
#     4  11  25  38  62  91 123 164 210 261 324 366
#     4  12  23  39  62  90 123 163 208 264 317 374
#     4   9  20  41  58  89 128 157 205 261 310 374
#     4  10  21  38  67  97 122 163 208 257 315 373
#
# _framework density 20.287557
#
# number of rings (size 3 to 8) (size 9 to 14) (size 15 to 20)
#    0.000    1.600    4.667    1.200    1.867    2.667 
#    0.000    0.667    2.933    0.000    0.000    0.000 
#    0.000    0.000    0.000    0.000    0.000    0.000 
#
# Total GULP energy -334918.435247 kJ/mol
# GULP energy per Si atom -5581.973921 kJ/mol
# Density = 2.024138 g / cm^3
# Si number density = 20.287557 Si / 1000 Ang^3
#
#
#
# Elastic Constant Matrix: (Units=GPa)
#
#
# Indices 1 2 3 4 5 6 
#
# 1 51.3693 34.7284 18.2979 0.0000 0.0000 0.0000
# 2 34.7284 81.5839 35.2351 0.0000 0.0000 0.0000
# 3 18.2979 35.2351 123.8257 0.0000 0.0000 0.0000
# 4 0.0000 0.0000 0.0000 434.4886 0.0000 0.0000
# 5 0.0000 0.0000 0.0000 0.0000 19.8658 0.0000
# 6 0.0000 0.0000 0.0000 0.0000 0.0000 39.1283
#
#
#
# Elastic Compliance Matrix: (Units=1/GPa)
#
#
# Indices 1 2 3 4 5 6 
#
# 1 0.027408 -0.011307 -0.000833 0.000000 0.000000 0.000000
# 2 -0.011307 0.018640 -0.003633 0.000000 0.000000 0.000000
# 3 -0.000833 -0.003633 0.009233 0.000000 0.000000 0.000000
# 4 0.000000 0.000000 0.000000 0.002302 0.000000 0.000000
# 5 0.000000 0.000000 0.000000 0.000000 0.050338 0.000000
# 6 0.000000 0.000000 0.000000 0.000000 0.000000 0.025557
#
#
# Mechanical properties :
#
#
# Convention : Reuss Voigt Hill
#
# Bulk Modulus (GPa) = 42.13317 48.14464 45.13890
# Shear Modulus (GPa) = 28.91282 109.93105 69.42193
#
# Velocity S-wave (km/s) = 3.77921 7.36913 5.85604
# Velocity P-wave (km/s) = 6.31319 9.80755 8.24756
#
# Compressibility (1/GPa) = 0.02373427
#
# Stress axis : x y z
#
# Youngs Moduli (GPa) = 36.48600 53.64906 108.31053
#
# Poissons Ratio (x) = 0.60662 0.09017
# Poissons Ratio (y) = 0.41256 0.39350
# Poissons Ratio (z) = 0.03038 0.19491
#
# Static dielectric constant tensor:
#      x y z
#    x 1.719410 0.000000 0.000000 
#    y 0.000000 1.722150 0.000000 
#    z 0.000000 0.000000 1.734070 
# 
# From -- ./inp_files/7406.got.cif
#   From: 2010.05.17/outbox.cif.g08.bks.cpg/sg73_4_cif.got.tgz:7406.got - 2010.06.03 17:35:07.
