data_PCOD9529038
_publ_section_title
;
Structure prediction by ZEFSAII (Michael W. Deem and Ramdas Pophale) SiO2 
 PCOD9529038
Probable space group: I B A M
;
_chemical_formula_sum "Si O2"
_cell_formula_units_Z 56
_cell_length_a 33.439475
_cell_length_b 4.982235
_cell_length_c 14.387379
_cell_angle_alpha 90.000000
_cell_angle_beta 90.000000
_cell_angle_gamma 90.000000
_cell_volume 2396.985147
_symmetry_space_group_name_H-M "I B A M"
_symmetry_group_IT_number 72
_symmetry_cell_setting 'orthorhombic'
loop_
_space_group_symop_operation_xyz
x,y,z
-x,-y,z
x,-y,1/2-z
-x,y,1/2-z
-x,-y,-z
x,y,-z
-x,y,1/2+z
x,-y,1/2+z
1/2+x,1/2+y,1/2+z
1/2-x,1/2-y,1/2+z
1/2+x,1/2-y,-z
1/2-x,1/2+y,-z
1/2-x,1/2-y,1/2-z
1/2+x,1/2+y,1/2-z
1/2-x,1/2+y,z
1/2+x,1/2-y,z
loop_
_atom_site_type_symbol
_atom_site_label
_atom_site_fract_x
_atom_site_fract_y
_atom_site_fract_z
Si Si1 0.470785 0.249531 0.500000
Si Si2 0.273457 0.834208 0.386431
Si Si3 0.856572 0.082933 0.107597
Si Si4 0.407572 0.904942 0.150998
O O1 0.500000 0.500000 0.500000
O O2 0.441459 0.226349 0.412158
O O3 0.500000 0.000000 0.500000
O O4 0.275037 0.837974 0.500000
O O5 0.237851 0.633428 0.357919
O O6 0.315378 0.709743 0.356350
O O7 0.888141 0.327585 0.107753
O O8 0.873563 0.823569 0.159943
O O9 0.850445 0.994127 0.000000
O O10 0.423375 0.000000 0.250000
#
# Coordination Sequence:
#
# PCOD9529038 Si02
#       4
#     8  16  16  16
#     4  12  26  48  76 102 136 172 214 270 336 412
#     4   9  17  29  52  90 128 172 231 283 329 384
#     4  11  20  39  67  95 136 184 230 281 335 395
#     4  12  25  44  70 103 137 175 224 274 336 404
#
# _framework density 23.362680000000001
#
# number of rings (size 3 to 8) (size 9 to 14) (size 15 to 20)
#    0.000    1.143    2.857    4.286    0.000    5.143 
#    0.000    1.429    0.000   17.143    0.000    0.000 
#    0.000    0.000    0.000    0.000    0.000    0.000 
#
# Total GULP energy -156819.885329 kJ/mol
# GULP energy per Si atom -5600.710190 kJ/mol
# Density = 2.330951 g / cm^3
# Si number density = 23.362680 Si / 1000 Ang^3
#
#
#
# Elastic Constant Matrix: (Units=GPa)
#
#
# Indices 1 2 3 4 5 6 
#
# 1 99.3698 23.1880 33.4804 0.0000 0.0000 0.0000
# 2 23.1880 133.9037 14.8402 0.0000 0.0000 0.0000
# 3 33.4804 14.8402 99.5698 0.0000 0.0000 0.0000
# 4 0.0000 0.0000 0.0000 17.0730 0.0000 0.0000
# 5 0.0000 0.0000 0.0000 0.0000 1.9676 0.0000
# 6 0.0000 0.0000 0.0000 0.0000 0.0000 48.1779
#
#
#
# Elastic Compliance Matrix: (Units=1/GPa)
#
#
# Indices 1 2 3 4 5 6 
#
# 1 0.011683 -0.001614 -0.003688 0.000000 0.000000 0.000000
# 2 -0.001614 0.007817 -0.000622 0.000000 0.000000 0.000000
# 3 -0.003688 -0.000622 0.011376 0.000000 0.000000 0.000000
# 4 0.000000 0.000000 0.000000 0.058572 0.000000 0.000000
# 5 0.000000 0.000000 0.000000 0.000000 0.508228 0.000000
# 6 0.000000 0.000000 0.000000 0.000000 0.000000 0.020756
#
#
# Mechanical properties :
#
#
# Convention : Reuss Voigt Hill
#
# Bulk Modulus (GPa) = 52.55783 52.87339 52.71561
# Shear Modulus (GPa) = 7.85395 30.86599 19.35997
#
# Velocity S-wave (km/s) = 1.83550 3.63873 2.88179
# Velocity P-wave (km/s) = 5.19975 6.35094 5.80396
#
# Compressibility (1/GPa) = 0.01902666
#
# Stress axis : x y z
#
# Youngs Moduli (GPa) = 85.59722 127.93334 87.90492
#
# Poissons Ratio (x) = 0.20653 0.32417
# Poissons Ratio (y) = 0.13819 0.05469
# Poissons Ratio (z) = 0.31566 0.07960
#
# Static dielectric constant tensor:
#      x y z
#    x 1.846830 0.000000 0.000000 
#    y 0.000000 1.811040 0.000000 
#    z 0.000000 0.000000 1.780850 
# 
# From -- ./inp_files/17525.got.cif
#   From: 2010.05.17/outbox.cif.g08.bks.cpg/sg72_9_cif.got.tgz:17525.got - 2010.06.03 17:03:01.
