data_PCOD9529221
_publ_section_title
;
Structure prediction by ZEFSAII (Michael W. Deem and Ramdas Pophale) SiO2 
 PCOD9529221
Probable space group: I B A M
;
_chemical_formula_sum "Si O2"
_cell_formula_units_Z 88
_cell_length_a 14.264105
_cell_length_b 19.990774
_cell_length_c 14.831371
_cell_angle_alpha 90.000000
_cell_angle_beta 90.000000
_cell_angle_gamma 90.000000
_cell_volume 4229.172847
_symmetry_space_group_name_H-M "I B A M"
_symmetry_group_IT_number 72
_symmetry_cell_setting 'orthorhombic'
loop_
_space_group_symop_operation_xyz
x,y,z
-x,-y,z
x,-y,1/2-z
-x,y,1/2-z
-x,-y,-z
x,y,-z
-x,y,1/2+z
x,-y,1/2+z
1/2+x,1/2+y,1/2+z
1/2-x,1/2-y,1/2+z
1/2+x,1/2-y,-z
1/2-x,1/2+y,-z
1/2-x,1/2-y,1/2-z
1/2+x,1/2+y,1/2-z
1/2-x,1/2+y,z
1/2+x,1/2-y,z
loop_
_atom_site_type_symbol
_atom_site_label
_atom_site_fract_x
_atom_site_fract_y
_atom_site_fract_z
Si Si1 0.658853 0.120617 0.000000
Si Si2 0.703953 0.245976 0.500000
Si Si3 0.542858 0.317866 0.160184
Si Si4 0.784209 0.562446 0.189120
Si Si5 0.016551 0.272880 0.000000
Si Si6 0.751873 0.182619 0.691167
Si Si7 0.921790 0.944727 0.392832
O O1 0.672342 0.078318 0.908899
O O2 0.736928 0.183331 0.000000
O O3 0.554886 0.152592 0.000000
O O4 0.591204 0.249690 0.500000
O O5 0.723991 0.204159 0.590788
O O6 0.500000 0.287115 0.250000
O O7 0.559739 0.261684 0.087246
O O8 0.643518 0.347196 0.183413
O O9 0.472136 0.373869 0.124785
O O10 0.815023 0.500000 0.250000
O O11 0.802069 0.627053 0.252140
O O12 0.674093 0.551598 0.162705
O O13 0.750000 0.250000 0.750000
O O14 0.901491 0.951540 0.500000
O O15 0.000000 0.000000 0.368531
#
# Coordination Sequence:
#
# PCOD9529221 Si02
#       7
#     8   8  16  16   8  16  16
#     4  12  24  47  69 100 145 181 226 293 345 415
#     4  12  24  43  69 100 142 172 233 292 350 398
#     4  12  21  35  61  94 134 179 218 263 336 411
#     4  12  25  43  68  99 140 185 224 273 350 417
#     4  12  24  42  66  95 131 179 222 284 345 386
#     4  12  23  40  64  98 137 181 227 282 329 408
#     4  11  23  38  59  95 143 182 217 261 334 432
#
# _framework density 20.807850999999999
#
# number of rings (size 3 to 8) (size 9 to 14) (size 15 to 20)
#    0.000    0.182    7.273    3.273    0.000    0.727 
#    0.000    0.000    0.000    3.273    0.000    0.000 
#    0.000    0.000    0.000    0.000    0.000    0.000 
#
# Total GULP energy -245779.626888 kJ/mol
# GULP energy per Si atom -5585.900611 kJ/mol
# Density = 2.076049 g / cm^3
# Si number density = 20.807851 Si / 1000 Ang^3
#
#
#
# Elastic Constant Matrix: (Units=GPa)
#
#
# Indices 1 2 3 4 5 6 
#
# 1 35.3316 -7.2854 -0.3954 0.0000 0.0000 0.0000
# 2 -7.2854 113.7512 68.0914 0.0000 0.0000 0.0000
# 3 -0.3954 68.0914 187.2136 0.0000 0.0000 0.0000
# 4 0.0000 0.0000 0.0000 37.3492 0.0000 0.0000
# 5 0.0000 0.0000 0.0000 0.0000 19.4523 0.0000
# 6 0.0000 0.0000 0.0000 0.0000 0.0000 27.1460
#
#
#
# Elastic Compliance Matrix: (Units=1/GPa)
#
#
# Indices 1 2 3 4 5 6 
#
# 1 0.028771 0.002309 -0.000779 0.000000 0.000000 0.000000
# 2 0.002309 0.011423 -0.004150 0.000000 0.000000 0.000000
# 3 -0.000779 -0.004150 0.006849 0.000000 0.000000 0.000000
# 4 0.000000 0.000000 0.000000 0.026774 0.000000 0.000000
# 5 0.000000 0.000000 0.000000 0.000000 0.051408 0.000000
# 6 0.000000 0.000000 0.000000 0.000000 0.000000 0.036838
#
#
# Mechanical properties :
#
#
# Convention : Reuss Voigt Hill
#
# Bulk Modulus (GPa) = 23.92163 50.79085 37.35624
# Shear Modulus (GPa) = 27.58818 35.18187 31.38502
#
# Velocity S-wave (km/s) = 3.64518 4.11639 3.88793
# Velocity P-wave (km/s) = 5.40720 6.85969 6.17629
#
# Compressibility (1/GPa) = 0.04180317
#
# Stress axis : x y z
#
# Youngs Moduli (GPa) = 34.75766 87.54211 146.00300
#
# Poissons Ratio (x) = -0.20213 0.11374
# Poissons Ratio (y) = -0.08025 0.60588
# Poissons Ratio (z) = 0.02708 0.36328
#
# Static dielectric constant tensor:
#      x y z
#    x 1.814640 0.000000 0.000000 
#    y 0.000000 1.745540 0.000000 
#    z 0.000000 0.000000 1.738850 
# 
# From -- ./inp_files/21743.got.cif
#   From: 2010.05.17/outbox.cif.g08.bks.cpg/sg72_11_cif.got.tgz:21743.got - 2010.06.03 17:03:01.
