data_PCOD9529665
_publ_section_title
;
Structure prediction by ZEFSAII (Michael W. Deem and Ramdas Pophale) SiO2 
 PCOD9529665
Probable space group: I B C A 
;
_chemical_formula_sum "Si O2"
_cell_formula_units_Z 56
_cell_length_a 36.790898
_cell_length_b 5.018472
_cell_length_c 12.346735
_cell_angle_alpha 90.000000
_cell_angle_beta 90.000000
_cell_angle_gamma 90.000000
_cell_volume 2279.628199
_symmetry_space_group_name_H-M "I B C A "
_symmetry_group_IT_number 73
_symmetry_cell_setting 'orthorhombic'
loop_
_space_group_symop_operation_xyz
x,y,z
-x,1/2-y,z
x,-y,1/2-z
1/2-x,y,-z
-x,-y,-z
x,1/2+y,-z
-x,y,1/2+z
1/2+x,-y,z
1/2+x,1/2+y,1/2+z
1/2-x,-y,1/2+z
1/2+x,1/2-y,-z
-x,1/2+y,1/2-z
1/2-x,1/2-y,1/2-z
1/2+x,y,1/2-z
1/2-x,1/2+y,z
x,1/2-y,1/2+z
loop_
_atom_site_type_symbol
_atom_site_label
_atom_site_fract_x
_atom_site_fract_y
_atom_site_fract_z
Si Si1 0.556319 0.000000 0.250000
Si Si2 0.500000 0.250000 0.419205
Si Si3 0.601705 0.500000 0.250000
Si Si4 0.734545 0.628129 0.121003
Si Si5 0.152948 0.234863 0.071286
O O1 0.532318 0.839150 0.162129
O O2 0.578875 0.749780 0.299521
O O3 0.500000 0.500000 0.500000
O O4 0.625855 0.653273 0.161182
O O5 0.764662 0.830608 0.166146
O O6 0.694145 0.735905 0.113785
O O7 0.750000 0.566190 0.000000
O O8 0.148445 0.933475 0.031261
#
# Coordination Sequence:
#
# PCOD9529665 Si02
#       5
#     8   8   8  16  16
#     4  12  27  52  72 113 162 176 228 324 336 423
#     4  12  26  48  88 116 140 196 252 280 368 446
#     4  12  29  44  66 107 152 192 232 282 380 443
#     4  10  16  32  60  85 117 173 233 311 369 386
#     4  12  23  41  66  92 135 190 242 294 364 444
#
# _framework density 24.565408999999999
#
# number of rings (size 3 to 8) (size 9 to 14) (size 15 to 20)
#    0.000    0.571    5.714    5.143    0.000    6.857 
#    0.000    1.429    0.000    0.000    0.000    0.000 
#    0.000    0.000    0.000    0.000    0.000    0.000 
#
# Total GULP energy -156385.351682 kJ/mol
# GULP energy per Si atom -5585.191132 kJ/mol
# Density = 2.450950 g / cm^3
# Si number density = 24.565409 Si / 1000 Ang^3
#
#
#
# Elastic Constant Matrix: (Units=GPa)
#
#
# Indices 1 2 3 4 5 6 
#
# 1 102.5357 36.7496 26.8477 0.0000 0.0000 0.0000
# 2 36.7496 158.5585 9.5606 0.0000 0.0000 0.0000
# 3 26.8477 9.5606 52.1716 0.0000 0.0000 0.0000
# 4 0.0000 0.0000 0.0000 46.2283 0.0000 0.0000
# 5 0.0000 0.0000 0.0000 0.0000 7.8138 0.0000
# 6 0.0000 0.0000 0.0000 0.0000 0.0000 45.5087
#
#
#
# Elastic Compliance Matrix: (Units=1/GPa)
#
#
# Indices 1 2 3 4 5 6 
#
# 1 0.012157 -0.002468 -0.005804 0.000000 0.000000 0.000000
# 2 -0.002468 0.006878 0.000009 0.000000 0.000000 0.000000
# 3 -0.005804 0.000009 0.022152 0.000000 0.000000 0.000000
# 4 0.000000 0.000000 0.000000 0.021632 0.000000 0.000000
# 5 0.000000 0.000000 0.000000 0.000000 0.127979 0.000000
# 6 0.000000 0.000000 0.000000 0.000000 0.000000 0.021974
#
#
# Mechanical properties :
#
#
# Convention : Reuss Voigt Hill
#
# Bulk Modulus (GPa) = 40.54587 51.06466 45.80526
# Shear Modulus (GPa) = 21.05108 35.91734 28.48421
#
# Velocity S-wave (km/s) = 2.93053 3.82790 3.40887
# Velocity P-wave (km/s) = 5.29073 6.35370 5.84642
#
# Compressibility (1/GPa) = 0.02466343
#
# Stress axis : x y z
#
# Youngs Moduli (GPa) = 82.25876 145.38710 45.14186
#
# Poissons Ratio (x) = 0.35877 0.26199
# Poissons Ratio (y) = 0.20299 -0.00043
# Poissons Ratio (z) = 0.47741 -0.00137
#
# Static dielectric constant tensor:
#      x y z
#    x 1.898800 0.000000 0.000000 
#    y 0.000000 1.985140 0.000000 
#    z 0.000000 0.000000 0.600420 
# 
# From -- ./inp_files/2876.got.cif
#   From: 2010.05.17/outbox.cif.g08.bks.cpg/sg73_2_cif.got.tgz:2876.got - 2010.06.03 17:35:07.
