data_PCOD9529919
_publ_section_title
;
Structure prediction by ZEFSAII (Michael W. Deem and Ramdas Pophale) SiO2 
 PCOD9529919
Probable space group: I B C A 
;
_chemical_formula_sum "Si O2"
_cell_formula_units_Z 112
_cell_length_a 16.941773
_cell_length_b 25.425378
_cell_length_c 13.705843
_cell_angle_alpha 90.000000
_cell_angle_beta 90.000000
_cell_angle_gamma 90.000000
_cell_volume 5903.805338
_symmetry_space_group_name_H-M "I B C A "
_symmetry_group_IT_number 73
_symmetry_cell_setting 'orthorhombic'
loop_
_space_group_symop_operation_xyz
x,y,z
-x,1/2-y,z
x,-y,1/2-z
1/2-x,y,-z
-x,-y,-z
x,1/2+y,-z
-x,y,1/2+z
1/2+x,-y,z
1/2+x,1/2+y,1/2+z
1/2-x,-y,1/2+z
1/2+x,1/2-y,-z
-x,1/2+y,1/2-z
1/2-x,1/2-y,1/2-z
1/2+x,y,1/2-z
1/2-x,1/2+y,z
x,1/2-y,1/2+z
loop_
_atom_site_type_symbol
_atom_site_label
_atom_site_fract_x
_atom_site_fract_y
_atom_site_fract_z
Si Si1 0.967914 0.074911 0.404392
Si Si2 0.025161 0.193960 0.179052
Si Si3 0.236262 0.414472 0.889344
Si Si4 0.839190 0.500000 0.250000
Si Si5 0.093642 0.165254 0.370665
Si Si6 0.500000 0.750000 0.488734
Si Si7 0.544084 0.463075 0.895617
Si Si8 0.905836 0.900517 0.301804
O O1 0.925706 0.065438 0.507440
O O2 0.913576 0.077782 0.308751
O O3 0.022482 0.125857 0.399121
O O4 0.027400 0.025082 0.404379
O O5 0.090695 0.173216 0.253351
O O6 0.000000 0.250000 0.221924
O O7 0.952061 0.154359 0.188024
O O8 0.039662 0.208265 0.065676
O O9 0.207734 0.464319 0.826085
O O10 0.173503 0.366306 0.894053
O O11 0.318329 0.396590 0.841375
O O12 0.250000 0.431949 0.000000
O O13 0.894978 0.459146 0.192018
O O14 0.066784 0.218574 0.427312
O O15 0.459795 0.438967 0.867082
#
# Coordination Sequence:
#
# PCOD9529919 Si02
#       8
#    16  16  16   8  16   8  16  16
#     4  10  21  35  65  88 122 166 216 261 296 367
#     4   9  20  37  65  92 111 155 219 258 310 363
#     4  12  27  40  61  92 137 170 203 259 335 384
#     4  12  24  40  60  92 130 174 210 256 300 386
#     4  11  20  42  62  94 123 158 211 260 315 381
#     4  10  18  34  70  92 114 154 212 268 310 368
#     4  11  20  38  62  93 120 166 225 255 295 365
#     4  11  22  39  61  93 128 165 204 267 319 375
#
# _framework density 18.970815000000002
#
# number of rings (size 3 to 8) (size 9 to 14) (size 15 to 20)
#    0.429    0.857    3.571    3.429    4.000    0.000 
#    0.000    0.714    0.000    0.000    0.000    0.000 
#    0.000    0.000    0.000    0.000    0.000    0.000 
#
# Total GULP energy -312060.342739 kJ/mol
# GULP energy per Si atom -5572.506120 kJ/mol
# Density = 1.892764 g / cm^3
# Si number density = 18.970815 Si / 1000 Ang^3
#
#
#
# Elastic Constant Matrix: (Units=GPa)
#
#
# Indices 1 2 3 4 5 6 
#
# 1 62.9662 25.1980 58.5634 0.0001 0.0001 0.0000
# 2 25.1980 79.7919 33.3591 -0.0001 0.0000 0.0000
# 3 58.5634 33.3591 151.7633 -0.0003 -0.0001 0.0000
# 4 0.0001 -0.0001 -0.0003 27.9603 -0.0001 0.0000
# 5 0.0001 0.0000 -0.0001 -0.0001 13.6129 0.0000
# 6 0.0000 0.0000 0.0000 0.0000 0.0000 19.5223
#
#
#
# Elastic Compliance Matrix: (Units=1/GPa)
#
#
# Indices 1 2 3 4 5 6 
#
# 1 0.026130 -0.004445 -0.009106 0.000000 0.000000 0.000000
# 2 -0.004445 0.014557 -0.001485 0.000000 0.000000 0.000000
# 3 -0.009106 -0.001485 0.010429 0.000000 0.000000 0.000000
# 4 0.000000 0.000000 0.000000 0.035765 0.000000 0.000000
# 5 0.000000 0.000000 0.000000 0.000000 0.073460 0.000000
# 6 0.000000 0.000000 0.000000 0.000000 0.000000 0.051223
#
#
# Mechanical properties :
#
#
# Convention : Reuss Voigt Hill
#
# Bulk Modulus (GPa) = 47.51663 58.75138 53.13401
# Shear Modulus (GPa) = 20.10861 24.04583 22.07722
#
# Velocity S-wave (km/s) = 3.25926 3.56408 3.41507
# Velocity P-wave (km/s) = 6.26620 6.92629 6.60450
#
# Compressibility (1/GPa) = 0.02104526
#
# Stress axis : x y z
#
# Youngs Moduli (GPa) = 38.27085 68.69604 95.88221
#
# Poissons Ratio (x) = 0.30533 0.87311
# Poissons Ratio (y) = 0.17010 0.14235
# Poissons Ratio (z) = 0.34850 0.10199
#
# Static dielectric constant tensor:
#      x y z
#    x 1.621720 0.000000 0.000000 
#    y 0.000000 1.282740 0.000000 
#    z 0.000000 0.000000 1.753570 
# 
# From -- ./inp_files/17417.got.cif
#   From: 2010.05.17/outbox.cif.g08.bks.cpg/sg73_9_cif.got.tgz:17417.got - 2010.06.03 17:35:07.
