data_PCOD9529531
_publ_section_title
;
Structure prediction by ZEFSAII (Michael W. Deem and Ramdas Pophale) SiO2 
 PCOD9529531
Probable space group: I B A M
;
_chemical_formula_sum "Si O2"
_cell_formula_units_Z 48
_cell_length_a 21.000000
_cell_length_b 27.000000
_cell_length_c 9.000000
_cell_angle_alpha 90.000000
_cell_angle_beta 90.000000
_cell_angle_gamma 90.000000
_cell_volume 5103.000000
_symmetry_space_group_name_H-M "I B A M"
_symmetry_group_IT_number 72
_symmetry_cell_setting 'orthorhombic'
loop_
_space_group_symop_operation_xyz
x,y,z
-x,-y,z
x,-y,1/2-z
-x,y,1/2-z
-x,-y,-z
x,y,-z
-x,y,1/2+z
x,-y,1/2+z
1/2+x,1/2+y,1/2+z
1/2-x,1/2-y,1/2+z
1/2+x,1/2-y,-z
1/2-x,1/2+y,-z
1/2-x,1/2-y,1/2-z
1/2+x,1/2+y,1/2-z
1/2-x,1/2+y,z
1/2+x,1/2-y,z
loop_
_atom_site_type_symbol
_atom_site_label
_atom_site_fract_x
_atom_site_fract_y
_atom_site_fract_z
Si Si1 0.565826 0.912833 0.678397
Si Si2 0.434910 0.446526 0.176572
Si Si3 0.684754 0.624940 0.823247
Si Si4 0.934430 0.703535 0.178173
Si Si5 0.703761 0.050947 0.178943
Si Si6 0.314501 0.730444 0.177784
O O1 0.500000 0.930990 0.750000
O O2 0.560929 0.916815 0.500000
O O3 0.573140 0.854523 0.716675
O O4 0.630964 0.939083 0.726478
O O5 0.423207 0.500000 0.250000
O O6 0.500000 0.426827 0.250000
O O7 0.374893 0.411258 0.200904
O O8 0.443968 0.452352 0.000000
O O9 0.749379 0.595925 0.781481
O O10 0.676027 0.674673 0.731995
O O11 0.688495 0.636263 0.000000
O O12 0.873781 0.735320 0.225234
O O13 0.000000 0.721482 0.250000
O O14 0.939563 0.706447 0.000000
O O15 0.726904 0.000000 0.250000
O O16 0.704946 0.046956 0.000000
O O17 0.250000 0.750000 0.250000
O O18 0.309849 0.733024 0.000000
#
# Coordination Sequence:
#
# PCOD9529531 Si02
#       6
#    16  16  16  16  16  16
#     4   9  18  34  55  77 105 139 173 214 262 313
#     4  10  20  35  57  82 111 146 183 227 276 330
#     4  10  22  39  57  79 109 144 182 227 276 324
#     4   9  19  36  57  81 109 142 180 222 269 320
#     4  10  21  37  56  78 107 141 178 223 270 317
#     4  11  23  38  58  83 112 146 184 228 275 327
#
# _framework density 9.4062319999999993
#
# number of rings (size 3 to 8) (size 9 to 14) (size 15 to 20)
#    0.000    2.167    0.000    3.000    0.000    7.667 
#    0.000    8.333    0.000    0.000    0.000    0.000 
#    0.000    0.000    0.000    0.000    0.000    0.000 
#
# Total GULP energy -268051.151457 kJ/mol
# GULP energy per Si atom -5584.398989 kJ/mol
# Density = 0.938482 g / cm^3
# Si number density = 9.406232 Si / 1000 Ang^3
#
#
#
# Elastic Constant Matrix: (Units=GPa)
#
#
# Indices 1 2 3 4 5 6 
#
# 1 99.3181 23.5350 31.9743 0.0000 0.0000 0.0000
# 2 23.5350 47.2453 21.9635 0.0000 0.0000 0.0000
# 3 31.9743 21.9635 31.0949 0.0000 0.0000 0.0000
# 4 0.0000 0.0000 0.0000 27.9630 0.0000 0.0000
# 5 0.0000 0.0000 0.0000 0.0000 30.5346 0.0000
# 6 0.0000 0.0000 0.0000 0.0000 0.0000 33.0515
#
#
#
# Elastic Compliance Matrix: (Units=1/GPa)
#
#
# Indices 1 2 3 4 5 6 
#
# 1 0.015058 -0.000451 -0.015165 0.000000 0.000000 0.000000
# 2 -0.000451 0.031528 -0.021806 0.000000 0.000000 0.000000
# 3 -0.015165 -0.021806 0.063156 0.000000 0.000000 0.000000
# 4 0.000000 0.000000 0.000000 0.035762 0.000000 0.000000
# 5 0.000000 0.000000 0.000000 0.000000 0.032750 0.000000
# 6 0.000000 0.000000 0.000000 0.000000 0.000000 0.030256
#
#
# Mechanical properties :
#
#
# Convention : Reuss Voigt Hill
#
# Bulk Modulus (GPa) = 28.65490 36.95600 32.80545
# Shear Modulus (GPa) = 16.95005 24.98886 20.96946
#
# Velocity S-wave (km/s) = 3.00492 3.64856 3.34227
# Velocity P-wave (km/s) = 5.22536 6.11853 5.68950
#
# Compressibility (1/GPa) = 0.03489804
#
# Stress axis : x y z
#
# Youngs Moduli (GPa) = 66.41104 31.71805 15.83385
#
# Poissons Ratio (x) = 0.01430 0.24012
# Poissons Ratio (y) = 0.02995 0.34527
# Poissons Ratio (z) = 1.00713 0.69163
#
# Static dielectric constant tensor:
#      x y z
#    x 1.654760 0.000000 0.000000 
#    y 0.000000 1.634530 0.000000 
#    z 0.000000 0.000000 1.627280 
# 
# From -- ./inp_files/5959.got.cif
#   From: 2010.05.17/outbox.ucp.g08.bks.cvg/sg72_3_cif.got.tgz:5959.got - 2010.06.11 16:33:07.
