data_PCOD9529292
_publ_section_title
;
Structure prediction by ZEFSAII (Michael W. Deem and Ramdas Pophale) SiO2 
 PCOD9529292
Probable space group: I B A M
;
_chemical_formula_sum "Si O2"
_cell_formula_units_Z 44
_cell_length_a 4.991886
_cell_length_b 26.581975
_cell_length_c 14.183490
_cell_angle_alpha 90.000000
_cell_angle_beta 90.000000
_cell_angle_gamma 90.000000
_cell_volume 1882.066701
_symmetry_space_group_name_H-M "I B A M"
_symmetry_group_IT_number 72
_symmetry_cell_setting 'orthorhombic'
loop_
_space_group_symop_operation_xyz
x,y,z
-x,-y,z
x,-y,1/2-z
-x,y,1/2-z
-x,-y,-z
x,y,-z
-x,y,1/2+z
x,-y,1/2+z
1/2+x,1/2+y,1/2+z
1/2-x,1/2-y,1/2+z
1/2+x,1/2-y,-z
1/2-x,1/2+y,-z
1/2-x,1/2-y,1/2-z
1/2+x,1/2+y,1/2-z
1/2-x,1/2+y,z
1/2+x,1/2-y,z
loop_
_atom_site_type_symbol
_atom_site_label
_atom_site_fract_x
_atom_site_fract_y
_atom_site_fract_z
Si Si1 0.339302 0.051342 0.112254
Si Si2 0.769641 0.343321 0.188799
Si Si3 0.252736 0.282689 0.500000
Si Si4 0.500000 0.500000 0.250000
O O1 0.419886 0.105410 0.151534
O O2 0.071199 0.041366 0.169241
O O3 0.500000 0.000000 0.140367
O O4 0.318255 0.052024 0.000000
O O5 0.500000 0.350103 0.250000
O O6 0.693457 0.314301 0.093942
O O7 0.000000 0.316214 0.250000
O O8 0.445382 0.234622 0.500000
#
# Coordination Sequence:
#
# PCOD9529292 Si02
#       4
#    16  16   8   4
#     4  11  24  42  65 101 145 193 236 291 351 432
#     4  12  26  48  77 108 148 196 244 300 373 444
#     4  12  28  52  77 111 145 185 250 322 376 438
#     4  12  20  40  64 100 136 180 240 280 350 418
#
# _framework density 23.378553
#
# number of rings (size 3 to 8) (size 9 to 14) (size 15 to 20)
#    0.000    0.364    3.636    5.455    0.000    4.364 
#    0.000    0.000    0.000    0.000    0.000    0.000 
#    0.000    0.000    0.000    0.000    0.000    0.000 
#
# Total GULP energy -122479.513517 kJ/mol
# GULP energy per Si atom -5567.250614 kJ/mol
# Density = 2.332534 g / cm^3
# Si number density = 23.378553 Si / 1000 Ang^3
#
#
#
# Elastic Constant Matrix: (Units=GPa)
#
#
# Indices 1 2 3 4 5 6 
#
# 1 62.2010 3.1700 24.5124 0.0000 0.0000 0.0000
# 2 3.1700 58.3099 48.1024 0.0000 0.0000 0.0000
# 3 24.5124 48.1024 208.5834 0.0001 0.0000 0.0000
# 4 0.0000 0.0000 0.0001 94.1328 0.0000 0.0000
# 5 0.0000 0.0000 0.0000 0.0000 42.1481 0.0000
# 6 0.0000 0.0000 0.0000 0.0000 0.0000 29.7384
#
#
#
# Elastic Compliance Matrix: (Units=1/GPa)
#
#
# Indices 1 2 3 4 5 6 
#
# 1 0.016895 0.000888 -0.002190 0.000000 0.000000 0.000000
# 2 0.000888 0.021226 -0.004999 0.000000 0.000000 0.000000
# 3 -0.002190 -0.004999 0.006205 0.000000 0.000000 0.000000
# 4 0.000000 0.000000 0.000000 0.010623 0.000000 0.000000
# 5 0.000000 0.000000 0.000000 0.000000 0.023726 0.000000
# 6 0.000000 0.000000 0.000000 0.000000 0.000000 0.033627
#
#
# Mechanical properties :
#
#
# Convention : Reuss Voigt Hill
#
# Bulk Modulus (GPa) = 31.52338 53.40710 42.46524
# Shear Modulus (GPa) = 36.90651 50.09114 43.49883
#
# Velocity S-wave (km/s) = 3.97753 4.63386 4.31818
# Velocity P-wave (km/s) = 5.88281 7.17804 6.56246
#
# Compressibility (1/GPa) = 0.03172249
#
# Stress axis : x y z
#
# Youngs Moduli (GPa) = 59.18979 47.11284 161.17144
#
# Poissons Ratio (x) = -0.04186 0.35302
# Poissons Ratio (y) = -0.05259 0.80575
# Poissons Ratio (z) = 0.12965 0.23553
#
# Static dielectric constant tensor:
#      x y z
#    x 2.050860 0.000000 0.000000 
#    y 0.000000 1.881260 0.000000 
#    z 0.000000 0.000000 1.824750 
# 
# From -- ./inp_files/17361.got.cif
#   From: 2010.05.17/outbox.cif.g08.bks.cpg/sg72_9_cif.got.tgz:17361.got - 2010.06.03 17:03:01.
