data_PCOD9529465
_publ_section_title
;
Structure prediction by ZEFSAII (Michael W. Deem and Ramdas Pophale) SiO2 
 PCOD9529465
Probable space group: I B A M
;
_chemical_formula_sum "Si O2"
_cell_formula_units_Z 52
_cell_length_a 15.334422
_cell_length_b 9.500176
_cell_length_c 16.742854
_cell_angle_alpha 90.000000
_cell_angle_beta 90.000000
_cell_angle_gamma 90.000000
_cell_volume 2439.094079
_symmetry_space_group_name_H-M "I B A M"
_symmetry_group_IT_number 72
_symmetry_cell_setting 'orthorhombic'
loop_
_space_group_symop_operation_xyz
x,y,z
-x,-y,z
x,-y,1/2-z
-x,y,1/2-z
-x,-y,-z
x,y,-z
-x,y,1/2+z
x,-y,1/2+z
1/2+x,1/2+y,1/2+z
1/2-x,1/2-y,1/2+z
1/2+x,1/2-y,-z
1/2-x,1/2+y,-z
1/2-x,1/2-y,1/2-z
1/2+x,1/2+y,1/2-z
1/2-x,1/2+y,z
1/2+x,1/2-y,z
loop_
_atom_site_type_symbol
_atom_site_label
_atom_site_fract_x
_atom_site_fract_y
_atom_site_fract_z
Si Si1 0.000000 0.000000 0.750000
Si Si2 0.485398 0.332824 0.000000
Si Si3 0.800281 0.463578 0.157336
Si Si4 0.405081 0.071005 0.500000
Si Si5 0.138728 0.843075 0.146298
O O1 0.933029 0.893842 0.708340
O O2 0.500000 0.500000 0.000000
O O3 0.423026 0.302259 0.926490
O O4 0.572142 0.238235 0.000000
O O5 0.825432 0.500000 0.250000
O O6 0.803487 0.294854 0.159403
O O7 0.705090 0.527086 0.139133
O O8 0.857447 0.524180 0.082690
O O9 0.500000 0.000000 0.500000
#
# Coordination Sequence:
#
# PCOD9529465 Si02
#       5
#     4   8  16   8  16
#     4  12  28  46  74 112 154 190 274 304 384 462
#     4  12  27  46  74 104 153 201 245 318 369 450
#     4  12  28  48  79 110 155 203 252 318 388 455
#     4  12  27  50  72 115 150 197 265 302 389 464
#     4  12  27  48  74 111 151 200 252 319 380 461
#
# _framework density 21.319391
#
# number of rings (size 3 to 8) (size 9 to 14) (size 15 to 20)
#    0.000    0.000    6.154    1.846    8.615    0.615 
#    0.000    0.000    0.000    0.000    0.000    0.000 
#    0.000    0.000    0.000    0.000    0.000    0.000 
#
# Total GULP energy -144969.024564 kJ/mol
# GULP energy per Si atom -5575.731714 kJ/mol
# Density = 2.127087 g / cm^3
# Si number density = 21.319391 Si / 1000 Ang^3
#
#
#
# Elastic Constant Matrix: (Units=GPa)
#
#
# Indices 1 2 3 4 5 6 
#
# 1 135.3849 32.5584 31.2646 0.0000 0.0000 0.0000
# 2 32.5584 127.6971 -2.5341 0.0000 0.0000 0.0000
# 3 31.2646 -2.5341 105.6790 0.0000 0.0000 0.0000
# 4 0.0000 0.0000 0.0000 25.4835 0.0000 0.0000
# 5 0.0000 0.0000 0.0000 0.0000 57.4771 0.0000
# 6 0.0000 0.0000 0.0000 0.0000 0.0000 51.8831
#
#
#
# Elastic Compliance Matrix: (Units=1/GPa)
#
#
# Indices 1 2 3 4 5 6 
#
# 1 0.008515 -0.002222 -0.002572 0.000000 0.000000 0.000000
# 2 -0.002222 0.008415 0.000859 0.000000 0.000000 0.000000
# 3 -0.002572 0.000859 0.010244 0.000000 0.000000 0.000000
# 4 0.000000 0.000000 0.000000 0.039241 0.000000 0.000000
# 5 0.000000 0.000000 0.000000 0.000000 0.017398 0.000000
# 6 0.000000 0.000000 0.000000 0.000000 0.000000 0.019274
#
#
# Mechanical properties :
#
#
# Convention : Reuss Voigt Hill
#
# Bulk Modulus (GPa) = 51.80489 54.59322 53.19905
# Shear Modulus (GPa) = 42.59242 47.46689 45.02965
#
# Velocity S-wave (km/s) = 4.47455 4.72366 4.60079
# Velocity P-wave (km/s) = 7.14477 7.44403 7.29593
#
# Compressibility (1/GPa) = 0.01930320
#
# Stress axis : x y z
#
# Youngs Moduli (GPa) = 117.44335 118.84086 97.61598
#
# Poissons Ratio (x) = 0.26407 0.25110
# Poissons Ratio (y) = 0.26096 -0.08387
# Poissons Ratio (z) = 0.30210 -0.10210
#
# Static dielectric constant tensor:
#      x y z
#    x 1.774180 0.000000 0.000000 
#    y 0.000000 1.028100 0.000000 
#    z 0.000000 0.000000 1.759540 
# 
# From -- ./inp_files/31055.got.cif
#   From: 2010.05.17/outbox.cif.g08.bks.cpg/sg72_16_cif.got.tgz:31055.got - 2010.06.03 17:03:01.
