data_PCOD9529364
_publ_section_title
;
Structure prediction by ZEFSAII (Michael W. Deem and Ramdas Pophale) SiO2 
 PCOD9529364
Probable space group: I B A M
;
_chemical_formula_sum "Si O2"
_cell_formula_units_Z 68
_cell_length_a 19.883737
_cell_length_b 7.625991
_cell_length_c 20.186616
_cell_angle_alpha 90.000000
_cell_angle_beta 90.000000
_cell_angle_gamma 90.000000
_cell_volume 3060.961169
_symmetry_space_group_name_H-M "I B A M"
_symmetry_group_IT_number 72
_symmetry_cell_setting 'orthorhombic'
loop_
_space_group_symop_operation_xyz
x,y,z
-x,-y,z
x,-y,1/2-z
-x,y,1/2-z
-x,-y,-z
x,y,-z
-x,y,1/2+z
x,-y,1/2+z
1/2+x,1/2+y,1/2+z
1/2-x,1/2-y,1/2+z
1/2+x,1/2-y,-z
1/2-x,1/2+y,-z
1/2-x,1/2-y,1/2-z
1/2+x,1/2+y,1/2-z
1/2-x,1/2+y,z
1/2+x,1/2-y,z
loop_
_atom_site_type_symbol
_atom_site_label
_atom_site_fract_x
_atom_site_fract_y
_atom_site_fract_z
Si Si1 0.000000 0.000000 0.000000
Si Si2 0.335567 0.682317 0.129084
Si Si3 0.419964 0.789867 0.744435
Si Si4 0.404509 0.343025 0.096252
Si Si5 0.296556 0.052131 0.926461
O O1 0.974187 0.141313 0.057950
O O2 0.373796 0.704587 0.198690
O O3 0.375787 0.538653 0.087338
O O4 0.330084 0.870525 0.094729
O O5 0.259493 0.607276 0.127408
O O6 0.500000 0.761734 0.750000
O O7 0.405359 0.707426 0.673199
O O8 0.408271 0.000000 0.750000
O O9 0.352179 0.201955 0.069463
O O10 0.265499 0.032857 0.000000
#
# Coordination Sequence:
#
# PCOD9529364 Si02
#       5
#     4  16  16  16  16
#     4  12  28  48  80 112 156 222 266 314 418 472
#     4  12  26  47  79 108 154 205 255 331 400 461
#     4  11  25  50  76 109 155 205 265 329 389 466
#     4  12  26  49  73 112 154 203 265 322 390 487
#     4  12  26  46  73 115 158 196 260 331 392 477
#
# _framework density 22.215246
#
# number of rings (size 3 to 8) (size 9 to 14) (size 15 to 20)
#    0.000    0.235    5.882    2.824    3.294    1.882 
#    4.235    1.176    0.000    0.000    0.000    0.000 
#    0.000    0.000    0.000    0.000    0.000    0.000 
#
# Total GULP energy -189483.640366 kJ/mol
# GULP energy per Si atom -5573.048246 kJ/mol
# Density = 2.216468 g / cm^3
# Si number density = 22.215246 Si / 1000 Ang^3
#
#
#
# Elastic Constant Matrix: (Units=GPa)
#
#
# Indices 1 2 3 4 5 6 
#
# 1 75.2309 62.2791 34.2461 0.0000 0.0000 0.0000
# 2 62.2791 145.7499 67.6615 0.0000 0.0000 0.0000
# 3 34.2461 67.6615 138.2010 0.0000 0.0000 0.0000
# 4 0.0000 0.0000 0.0000 -49.4238 0.0000 0.0000
# 5 0.0000 0.0000 0.0000 0.0000 -266.9199 0.0000
# 6 0.0000 0.0000 0.0000 0.0000 0.0000 16.0822
#
#
#
# Elastic Compliance Matrix: (Units=1/GPa)
#
#
# Indices 1 2 3 4 5 6 
#
# 1 0.020681 -0.008358 -0.001033 0.000000 0.000000 0.000000
# 2 -0.008358 0.012257 -0.003930 0.000000 0.000000 0.000000
# 3 -0.001033 -0.003930 0.009416 0.000000 0.000000 0.000000
# 4 0.000000 0.000000 0.000000 -0.020233 0.000000 0.000000
# 5 0.000000 0.000000 0.000000 0.000000 -0.003746 0.000000
# 6 0.000000 0.000000 0.000000 0.000000 0.000000 0.062181
#
#
# Mechanical properties :
#
#
# Convention : Reuss Voigt Hill
#
# Bulk Modulus (GPa) = 63.64125 76.39501 70.01813
# Shear Modulus (GPa) = 44.47091 -47.05262 -1.29085
#
# Velocity S-wave (km/s) = 4.47902 -4.60720 -0.76310
# Velocity P-wave (km/s) = 7.44705 2.48223 5.55068
#
# Compressibility (1/GPa) = 0.01571308
#
# Stress axis : x y z
#
# Youngs Moduli (GPa) = 48.35257 81.58900 106.20519
#
# Poissons Ratio (x) = 0.68189 0.10971
# Poissons Ratio (y) = 0.40411 0.41735
# Poissons Ratio (z) = 0.04995 0.32062
#
# Static dielectric constant tensor:
#      x y z
#    x 1.895120 0.000000 0.000000 
#    y 0.000000 1.800300 0.000000 
#    z 0.000000 0.000000 1.888040 
# 
# From -- ./inp_files/38714.got.cif
#   From: 2010.05.17/outbox.cif.g08.bks.cpg/sg72_20_cif.got.tgz:38714.got - 2010.06.03 17:03:01.
