data_PCOD9529389
_publ_section_title
;
Structure prediction by ZEFSAII (Michael W. Deem and Ramdas Pophale) SiO2 
 PCOD9529389
Probable space group: I B A M
;
_chemical_formula_sum "Si O2"
_cell_formula_units_Z 48
_cell_length_a 9.285059
_cell_length_b 12.533190
_cell_length_c 16.648579
_cell_angle_alpha 90.000000
_cell_angle_beta 90.000000
_cell_angle_gamma 90.000000
_cell_volume 1937.418590
_symmetry_space_group_name_H-M "I B A M"
_symmetry_group_IT_number 72
_symmetry_cell_setting 'orthorhombic'
loop_
_space_group_symop_operation_xyz
x,y,z
-x,-y,z
x,-y,1/2-z
-x,y,1/2-z
-x,-y,-z
x,y,-z
-x,y,1/2+z
x,-y,1/2+z
1/2+x,1/2+y,1/2+z
1/2-x,1/2-y,1/2+z
1/2+x,1/2-y,-z
1/2-x,1/2+y,-z
1/2-x,1/2-y,1/2-z
1/2+x,1/2+y,1/2-z
1/2-x,1/2+y,z
1/2+x,1/2-y,z
loop_
_atom_site_type_symbol
_atom_site_label
_atom_site_fract_x
_atom_site_fract_y
_atom_site_fract_z
Si Si1 0.456030 0.880610 0.156363
Si Si2 0.890074 0.922754 0.186847
Si Si3 0.789180 0.748422 0.405614
O O1 0.500000 0.876067 0.250000
O O2 0.291188 0.847643 0.136912
O O3 0.547276 0.786646 0.112143
O O4 0.500000 0.000000 0.127605
O O5 0.792263 0.852274 0.133547
O O6 0.000000 0.865291 0.250000
O O7 0.807566 0.000000 0.250000
O O8 0.000000 0.000000 0.139480
O O9 0.769595 0.759431 0.500000
#
# Coordination Sequence:
#
# PCOD9529389 Si02
#       3
#    16  16  16
#     4  11  28  48  77 105 143 196 249 294 353 438
#     4   6  17  35  63  93 138 180 243 283 337 424
#     4  12  24  43  71 106 148 186 232 307 370 420
#
# _framework density 24.775234999999999
#
# number of rings (size 3 to 8) (size 9 to 14) (size 15 to 20)
#    2.000    0.333    0.000    3.000    4.667    6.000 
#    0.000    0.000    0.000    0.000    0.000    0.000 
#    0.000    0.000    0.000    0.000    0.000    0.000 
#
# Total GULP energy -133917.525616 kJ/mol
# GULP energy per Si atom -5579.896901 kJ/mol
# Density = 2.471885 g / cm^3
# Si number density = 24.775235 Si / 1000 Ang^3
#
#
#
# Elastic Constant Matrix: (Units=GPa)
#
#
# Indices 1 2 3 4 5 6 
#
# 1 113.1027 43.2053 31.4145 0.0000 0.0000 0.0000
# 2 43.2053 125.7786 32.6817 0.0000 0.0000 0.0000
# 3 31.4145 32.6817 134.8701 0.0000 0.0000 0.0000
# 4 0.0000 0.0000 0.0000 -11.6903 0.0000 0.0000
# 5 0.0000 0.0000 0.0000 0.0000 33.3753 0.0000
# 6 0.0000 0.0000 0.0000 0.0000 0.0000 50.8922
#
#
#
# Elastic Compliance Matrix: (Units=1/GPa)
#
#
# Indices 1 2 3 4 5 6 
#
# 1 0.010522 -0.003178 -0.001681 0.000000 0.000000 0.000000
# 2 -0.003178 0.009444 -0.001548 0.000000 0.000000 0.000000
# 3 -0.001681 -0.001548 0.008181 0.000000 0.000000 0.000000
# 4 0.000000 0.000000 0.000000 -0.085541 0.000000 0.000000
# 5 0.000000 0.000000 0.000000 0.000000 0.029962 0.000000
# 6 0.000000 0.000000 0.000000 0.000000 0.000000 0.019649
#
#
# Mechanical properties :
#
#
# Convention : Reuss Voigt Hill
#
# Bulk Modulus (GPa) = 65.21463 65.37270 65.29367
# Shear Modulus (GPa) = 492.92848 32.27878 262.60363
#
# Velocity S-wave (km/s) = 14.12063 3.61344 10.30653
# Velocity P-wave (km/s) = 17.09490 6.62215 12.96319
#
# Compressibility (1/GPa) = 0.01533398
#
# Stress axis : x y z
#
# Youngs Moduli (GPa) = 95.03666 105.88352 122.23047
#
# Poissons Ratio (x) = 0.33646 0.20545
# Poissons Ratio (y) = 0.30200 0.18926
# Poissons Ratio (z) = 0.15974 0.16395
#
# Static dielectric constant tensor:
#      x y z
#    x 1.954310 0.000000 0.000000 
#    y 0.000000 2.057710 0.000000 
#    z 0.000000 0.000000 1.882700 
# 
# From -- ./inp_files/28526.got.cif
#   From: 2010.05.17/outbox.cif.g08.bks.cpg/sg72_15_cif.got.tgz:28526.got - 2010.06.03 17:03:01.
