data_PCOD9529016
_publ_section_title
;
Structure prediction by ZEFSAII (Michael W. Deem and Ramdas Pophale) SiO2 
 PCOD9529016
Probable space group: I B A M
;
_chemical_formula_sum "Si O2"
_cell_formula_units_Z 88
_cell_length_a 9.220045
_cell_length_b 24.262935
_cell_length_c 21.076047
_cell_angle_alpha 90.000000
_cell_angle_beta 90.000000
_cell_angle_gamma 90.000000
_cell_volume 4714.824524
_symmetry_space_group_name_H-M "I B A M"
_symmetry_group_IT_number 72
_symmetry_cell_setting 'orthorhombic'
loop_
_space_group_symop_operation_xyz
x,y,z
-x,-y,z
x,-y,1/2-z
-x,y,1/2-z
-x,-y,-z
x,y,-z
-x,y,1/2+z
x,-y,1/2+z
1/2+x,1/2+y,1/2+z
1/2-x,1/2-y,1/2+z
1/2+x,1/2-y,-z
1/2-x,1/2+y,-z
1/2-x,1/2-y,1/2-z
1/2+x,1/2+y,1/2-z
1/2-x,1/2+y,z
1/2+x,1/2-y,z
loop_
_atom_site_type_symbol
_atom_site_label
_atom_site_fract_x
_atom_site_fract_y
_atom_site_fract_z
Si Si1 0.309898 0.638949 0.358096
Si Si2 0.729341 0.029457 0.315014
Si Si3 0.123386 0.750763 0.198768
Si Si4 0.851575 0.035290 0.929124
Si Si5 0.524107 0.131248 0.674820
Si Si6 0.000000 0.916134 0.750000
O O1 0.348985 0.703217 0.354354
O O2 0.372431 0.599816 0.412917
O O3 0.387607 0.616732 0.293968
O O4 0.135836 0.631730 0.355524
O O5 0.629084 0.079728 0.338290
O O6 0.890347 0.050435 0.295234
O O7 0.674446 0.000000 0.250000
O O8 0.750748 0.987333 0.372565
O O9 0.250000 0.750000 0.250000
O O10 0.096832 0.691295 0.167174
O O11 0.000000 0.764651 0.250000
O O12 0.791175 0.028982 0.000000
O O13 0.000000 0.000000 0.926964
O O14 0.500000 0.127453 0.750000
#
# Coordination Sequence:
#
# PCOD9529016 Si02
#       6
#    16  16  16  16  16   8
#     4  12  22  37  58  86 125 160 194 249 306 360
#     4  12  21  36  59  88 121 158 197 247 299 361
#     4  11  20  33  55  89 125 150 193 249 307 355
#     4  11  24  41  62  90 122 158 205 250 302 370
#     4  11  22  35  52  92 126 153 196 248 306 357
#     4  12  19  32  58  92 112 152 199 244 294 354
#
# _framework density 18.664534
#
# number of rings (size 3 to 8) (size 9 to 14) (size 15 to 20)
#    0.000    0.545   10.000    0.273    0.000    2.545 
#    0.000    1.818    0.000    2.182    0.000    0.000 
#    0.000    0.000    0.000    0.000    0.000    0.000 
#
# Total GULP energy -245317.112433 kJ/mol
# GULP energy per Si atom -5575.388919 kJ/mol
# Density = 1.862205 g / cm^3
# Si number density = 18.664534 Si / 1000 Ang^3
#
#
#
# Elastic Constant Matrix: (Units=GPa)
#
#
# Indices 1 2 3 4 5 6 
#
# 1 110.1873 49.1868 7.3545 0.0000 0.0000 0.0000
# 2 49.1868 147.8204 34.2925 0.0000 0.0000 0.0000
# 3 7.3545 34.2925 81.5455 0.0000 0.0000 0.0000
# 4 0.0000 0.0000 0.0000 7.6518 0.0000 0.0000
# 5 0.0000 0.0000 0.0000 0.0000 1.8265 0.0000
# 6 0.0000 0.0000 0.0000 0.0000 0.0000 30.0164
#
#
#
# Elastic Compliance Matrix: (Units=1/GPa)
#
#
# Indices 1 2 3 4 5 6 
#
# 1 0.010684 -0.003692 0.000589 0.000000 0.000000 0.000000
# 2 -0.003692 0.008772 -0.003356 0.000000 0.000000 0.000000
# 3 0.000589 -0.003356 0.013621 0.000000 0.000000 0.000000
# 4 0.000000 0.000000 0.000000 0.130688 0.000000 0.000000
# 5 0.000000 0.000000 0.000000 0.000000 0.547494 0.000000
# 6 0.000000 0.000000 0.000000 0.000000 0.000000 0.033315
#
#
# Mechanical properties :
#
#
# Convention : Reuss Voigt Hill
#
# Bulk Modulus (GPa) = 49.60371 57.91343 53.75857
# Shear Modulus (GPa) = 6.54269 24.48022 15.51146
#
# Velocity S-wave (km/s) = 1.87431 3.62552 2.88595
# Velocity P-wave (km/s) = 5.59627 6.97293 6.32218
#
# Compressibility (1/GPa) = 0.02015978
#
# Stress axis : x y z
#
# Youngs Moduli (GPa) = 93.59695 114.00026 73.41468
#
# Poissons Ratio (x) = 0.42086 -0.04323
# Poissons Ratio (y) = 0.34553 0.24637
# Poissons Ratio (z) = -0.05512 0.38258
#
# Static dielectric constant tensor:
#      x y z
#    x 1.685110 0.000000 0.000000 
#    y 0.000000 1.732020 0.000000 
#    z 0.000000 0.000000 1.617010 
# 
# From -- ./inp_files/35839.got.cif
#   From: 2010.05.17/outbox.cif.g08.bks.cpg/sg72_18_cif.got.tgz:35839.got - 2010.06.03 17:03:01.
