data_PCOD9529999
_publ_section_title
;
Structure prediction by ZEFSAII (Michael W. Deem and Ramdas Pophale) SiO2 
 PCOD9529999
Probable space group: I B C A 
;
_chemical_formula_sum "Si O2"
_cell_formula_units_Z 112
_cell_length_a 15.672608
_cell_length_b 14.521357
_cell_length_c 21.525274
_cell_angle_alpha 90.000000
_cell_angle_beta 90.000000
_cell_angle_gamma 90.000000
_cell_volume 4898.884069
_symmetry_space_group_name_H-M "I B C A "
_symmetry_group_IT_number 73
_symmetry_cell_setting 'orthorhombic'
loop_
_space_group_symop_operation_xyz
x,y,z
-x,1/2-y,z
x,-y,1/2-z
1/2-x,y,-z
-x,-y,-z
x,1/2+y,-z
-x,y,1/2+z
1/2+x,-y,z
1/2+x,1/2+y,1/2+z
1/2-x,-y,1/2+z
1/2+x,1/2-y,-z
-x,1/2+y,1/2-z
1/2-x,1/2-y,1/2-z
1/2+x,y,1/2-z
1/2-x,1/2+y,z
x,1/2-y,1/2+z
loop_
_atom_site_type_symbol
_atom_site_label
_atom_site_fract_x
_atom_site_fract_y
_atom_site_fract_z
Si Si1 0.901425 0.664512 0.185991
Si Si2 0.799313 0.612508 0.413379
Si Si3 0.107160 0.405345 0.426032
Si Si4 0.903054 0.738773 0.984358
Si Si5 0.919532 0.441483 0.444939
Si Si6 0.424440 0.124632 0.207909
Si Si7 0.258004 0.102558 0.766892
O O1 0.905478 0.612997 0.120690
O O2 0.918381 0.772259 0.181437
O O3 0.812262 0.662764 0.220437
O O4 0.977587 0.618153 0.227600
O O5 0.706887 0.579664 0.438409
O O6 0.834059 0.709650 0.440772
O O7 0.868504 0.536142 0.434457
O O8 0.782821 0.620680 0.338886
O O9 0.096347 0.301174 0.452773
O O10 0.095403 0.431941 0.353866
O O11 0.021931 0.451699 0.452129
O O12 0.000000 0.750000 0.958511
O O13 0.887905 0.632444 0.003122
O O14 0.342343 0.110272 0.249372
O O15 0.285521 0.000000 0.750000
#
# Coordination Sequence:
#
# PCOD9529999 Si02
#       7
#    16  16  16  16  16  16  16
#     4  10  18  38  63  89 118 175 215 256 320 393
#     4  11  23  41  62  97 138 166 214 282 326 385
#     4   9  19  38  64  90 123 170 211 269 325 386
#     4  10  21  41  67  88 124 168 216 269 329 386
#     4  10  20  40  69  91 122 174 228 253 334 410
#     4   9  19  35  63  88 119 168 219 260 312 389
#     4  11  22  37  59  94 135 166 208 269 330 387
#
# _framework density 22.862349999999999
#
# number of rings (size 3 to 8) (size 9 to 14) (size 15 to 20)
#    0.000    2.000    2.857    0.857    0.000    2.857 
#    5.143    7.143    0.000    0.000    0.000    0.000 
#    0.000    0.000    0.000    0.000    0.000    0.000 
#
# Total GULP energy -311944.781012 kJ/mol
# GULP energy per Si atom -5570.442518 kJ/mol
# Density = 2.281031 g / cm^3
# Si number density = 22.862350 Si / 1000 Ang^3
#
#
#
# Elastic Constant Matrix: (Units=GPa)
#
#
# Indices 1 2 3 4 5 6 
#
# 1 151.3775 26.9313 29.8871 0.0000 0.0000 0.0000
# 2 26.9313 53.7976 0.2723 0.0000 0.0000 0.0000
# 3 29.8871 0.2723 44.7961 0.0000 0.0000 0.0000
# 4 0.0000 0.0000 0.0000 21.3787 0.0000 0.0000
# 5 0.0000 0.0000 0.0000 0.0000 77.1289 0.0000
# 6 0.0000 0.0000 0.0000 0.0000 0.0000 25.6617
#
#
#
# Elastic Compliance Matrix: (Units=1/GPa)
#
#
# Indices 1 2 3 4 5 6 
#
# 1 0.008465 -0.004209 -0.005622 0.000000 0.000000 0.000000
# 2 -0.004209 0.020682 0.002683 0.000000 0.000000 0.000000
# 3 -0.005622 0.002683 0.026058 0.000000 0.000000 0.000000
# 4 0.000000 0.000000 0.000000 0.046776 0.000000 0.000000
# 5 0.000000 0.000000 0.000000 0.000000 0.012965 0.000000
# 6 0.000000 0.000000 0.000000 0.000000 0.000000 0.038969
#
#
# Mechanical properties :
#
#
# Convention : Reuss Voigt Hill
#
# Bulk Modulus (GPa) = 24.44545 40.46138 32.45342
# Shear Modulus (GPa) = 27.49568 37.69256 32.59412
#
# Velocity S-wave (km/s) = 3.47170 4.06479 3.77990
# Velocity P-wave (km/s) = 5.17552 6.30605 5.76855
#
# Compressibility (1/GPa) = 0.04090740
#
# Stress axis : x y z
#
# Youngs Moduli (GPa) = 118.13631 48.35197 38.37598
#
# Poissons Ratio (x) = 0.20352 0.21575
# Poissons Ratio (y) = 0.49724 -0.10294
# Poissons Ratio (z) = 0.66416 -0.12970
#
# Static dielectric constant tensor:
#      x y z
#    x 1.910040 0.000000 0.000000 
#    y 0.000000 2.059900 0.000000 
#    z 0.000000 0.000000 1.929890 
# 
# From -- ./inp_files/29556.got.cif
#   From: 2010.05.17/outbox.cif.g08.bks.cpg/sg73_15_cif.got.tgz:29556.got - 2010.06.03 17:35:07.
