data_PCOD9529634
_publ_section_title
;
Structure prediction by ZEFSAII (Michael W. Deem and Ramdas Pophale) SiO2 
 PCOD9529634
Probable space group: I B C A 
;
_chemical_formula_sum "Si O2"
_cell_formula_units_Z 88
_cell_length_a 5.392731
_cell_length_b 26.452194
_cell_length_c 27.085303
_cell_angle_alpha 90.000000
_cell_angle_beta 90.000000
_cell_angle_gamma 90.000000
_cell_volume 3863.706734
_symmetry_space_group_name_H-M "I B C A "
_symmetry_group_IT_number 73
_symmetry_cell_setting 'orthorhombic'
loop_
_space_group_symop_operation_xyz
x,y,z
-x,1/2-y,z
x,-y,1/2-z
1/2-x,y,-z
-x,-y,-z
x,1/2+y,-z
-x,y,1/2+z
1/2+x,-y,z
1/2+x,1/2+y,1/2+z
1/2-x,-y,1/2+z
1/2+x,1/2-y,-z
-x,1/2+y,1/2-z
1/2-x,1/2-y,1/2-z
1/2+x,y,1/2-z
1/2-x,1/2+y,z
x,1/2-y,1/2+z
loop_
_atom_site_type_symbol
_atom_site_label
_atom_site_fract_x
_atom_site_fract_y
_atom_site_fract_z
Si Si1 0.916419 0.974832 0.433157
Si Si2 0.000389 0.862350 0.967073
Si Si3 0.782195 0.615409 0.281222
Si Si4 0.750026 0.729806 0.307329
Si Si5 0.000000 0.750000 0.466366
Si Si6 0.362661 0.515644 0.822627
O O1 0.976443 0.915434 0.437870
O O2 0.644946 0.991108 0.452771
O O3 0.901127 0.990895 0.375739
O O4 0.994191 0.806325 0.941583
O O5 0.750000 0.866009 0.000000
O O6 0.250000 0.861950 0.000000
O O7 0.557453 0.611331 0.241535
O O8 0.753941 0.670239 0.304445
O O9 0.730066 0.572657 0.321198
O O10 0.500000 0.750000 0.331185
O O11 0.750000 0.750000 0.250000
O O12 0.000000 0.750000 0.330724
O O13 0.750000 0.750187 0.500000
O O14 0.634773 0.514643 0.798900
#
# Coordination Sequence:
#
# PCOD9529634 Si02
#       6
#    16  16  16  16   8  16
#     4  10  21  37  55  77 111 158 187 226 277 332
#     4  10  19  32  55  88 119 146 183 230 273 328
#     4  12  21  32  56  82 105 138 181 237 281 335
#     4  10  16  30  48  76 109 131 162 216 284 346
#     4   8  16  30  48  80 120 144 174 220 278 324
#     4  10  23  40  52  74 107 149 189 222 280 336
#
# _framework density 22.776057000000002
#
# number of rings (size 3 to 8) (size 9 to 14) (size 15 to 20)
#    0.000    1.818    3.636    2.182    0.000    4.364 
#    0.000    0.000    0.000    0.000   28.364    0.000 
#    0.000    0.000    0.000    0.000    0.000    0.000 
#
# Total GULP energy -245419.369543 kJ/mol
# GULP energy per Si atom -5577.712944 kJ/mol
# Density = 2.272422 g / cm^3
# Si number density = 22.776057 Si / 1000 Ang^3
#
#
#
# Elastic Constant Matrix: (Units=GPa)
#
#
# Indices 1 2 3 4 5 6 
#
# 1 226.2472 47.3749 18.8664 0.0000 0.0000 0.0000
# 2 47.3749 256.8078 33.7864 0.0000 0.0000 0.0000
# 3 18.8664 33.7864 50.8543 0.0000 0.0000 0.0000
# 4 0.0000 0.0000 0.0000 16.0880 0.0000 0.0000
# 5 0.0000 0.0000 0.0000 0.0000 -48.1066 0.0000
# 6 0.0000 0.0000 0.0000 0.0000 0.0000 22.3443
#
#
#
# Elastic Compliance Matrix: (Units=1/GPa)
#
#
# Indices 1 2 3 4 5 6 
#
# 1 0.004671 -0.000694 -0.001272 0.000000 0.000000 0.000000
# 2 -0.000694 0.004370 -0.002646 0.000000 0.000000 0.000000
# 3 -0.001272 -0.002646 0.021894 0.000000 0.000000 0.000000
# 4 0.000000 0.000000 0.000000 0.062158 0.000000 0.000000
# 5 0.000000 0.000000 0.000000 0.000000 -0.020787 0.000000
# 6 0.000000 0.000000 0.000000 0.000000 0.000000 0.044754
#
#
# Mechanical properties :
#
#
# Convention : Reuss Voigt Hill
#
# Bulk Modulus (GPa) = 46.05885 81.55161 63.80523
# Shear Modulus (GPa) = 37.44721 26.99058 32.21890
#
# Velocity S-wave (km/s) = 4.05921 3.44618 3.76519
# Velocity P-wave (km/s) = 6.49892 7.19155 6.85399
#
# Compressibility (1/GPa) = 0.02171135
#
# Stress axis : x y z
#
# Youngs Moduli (GPa) = 214.06849 228.82447 45.67542
#
# Poissons Ratio (x) = 0.15891 0.05808
# Poissons Ratio (y) = 0.14866 0.12085
# Poissons Ratio (z) = 0.27222 0.60542
#
# Static dielectric constant tensor:
#      x y z
#    x 1.898070 0.000000 0.000000 
#    y 0.000000 1.843820 0.000000 
#    z 0.000000 0.000000 1.547250 
# 
# From -- ./inp_files/33256.got.cif
#   From: 2010.05.17/outbox.cif.g08.bks.cpg/sg73_17_cif.got.tgz:33256.got - 2010.06.03 17:35:07.
