data_PCOD9529409
_publ_section_title
;
Structure prediction by ZEFSAII (Michael W. Deem and Ramdas Pophale) SiO2 
 PCOD9529409
Probable space group: I B A M
;
_chemical_formula_sum "Si O2"
_cell_formula_units_Z 116
_cell_length_a 18.929739
_cell_length_b 23.667523
_cell_length_c 14.117609
_cell_angle_alpha 90.000000
_cell_angle_beta 90.000000
_cell_angle_gamma 90.000000
_cell_volume 6324.971652
_symmetry_space_group_name_H-M "I B A M"
_symmetry_group_IT_number 72
_symmetry_cell_setting 'orthorhombic'
loop_
_space_group_symop_operation_xyz
x,y,z
-x,-y,z
x,-y,1/2-z
-x,y,1/2-z
-x,-y,-z
x,y,-z
-x,y,1/2+z
x,-y,1/2+z
1/2+x,1/2+y,1/2+z
1/2-x,1/2-y,1/2+z
1/2+x,1/2-y,-z
1/2-x,1/2+y,-z
1/2-x,1/2-y,1/2-z
1/2+x,1/2+y,1/2-z
1/2-x,1/2+y,z
1/2+x,1/2-y,z
loop_
_atom_site_type_symbol
_atom_site_label
_atom_site_fract_x
_atom_site_fract_y
_atom_site_fract_z
Si Si1 0.957860 0.307573 0.344326
Si Si2 0.397951 0.759753 0.392472
Si Si3 0.689032 0.657239 0.887120
Si Si4 0.215673 0.348767 0.387195
Si Si5 0.756815 0.435752 0.275172
Si Si6 0.317594 0.244409 0.612102
Si Si7 0.500000 0.000000 0.250000
Si Si8 0.598415 0.928995 0.391333
O O1 0.889477 0.268121 0.332834
O O2 0.928994 0.364352 0.391370
O O3 0.000000 0.324367 0.250000
O O4 0.019730 0.272514 0.394604
O O5 0.369694 0.756519 0.500000
O O6 0.373965 0.698980 0.354932
O O7 0.354579 0.814196 0.356762
O O8 0.696619 0.600646 0.827176
O O9 0.759604 0.695443 0.870026
O O10 0.685407 0.644852 0.000000
O O11 0.213225 0.361886 0.500000
O O12 0.223416 0.402715 0.321186
O O13 0.278966 0.303827 0.369891
O O14 0.739689 0.500000 0.250000
O O15 0.823759 0.432934 0.346397
O O16 0.334657 0.242053 0.500000
O O17 0.548427 0.963138 0.319909
O O18 0.597131 0.949781 0.500000
#
# Coordination Sequence:
#
# PCOD9529409 Si02
#       8
#    16  16  16  16  16  16   4  16
#     4  12  22  32  55  89 117 148 187 232 293 367
#     4   9  19  34  54  84 112 143 185 234 299 353
#     4   9  19  36  58  81 111 147 186 238 295 348
#     4   9  21  38  56  80 114 150 186 241 293 346
#     4  12  24  38  56  83 112 153 210 235 277 347
#     4   9  18  35  57  80 110 150 185 227 304 364
#     4  12  26  48  52  82 104 160 218 238 282 322
#     4  12  25  42  59  79 117 157 198 247 286 338
#
# _framework density 18.340001999999998
#
# number of rings (size 3 to 8) (size 9 to 14) (size 15 to 20)
#    0.000    1.655    2.759    4.345    1.931    2.207 
#    0.000    0.000    0.000    0.000    0.000    1.931 
#    0.000    4.414    0.000    0.000    0.000    0.000 
#
# Total GULP energy -323708.210691 kJ/mol
# GULP energy per Si atom -5581.176046 kJ/mol
# Density = 1.829826 g / cm^3
# Si number density = 18.340002 Si / 1000 Ang^3
#
#
#
# Elastic Constant Matrix: (Units=GPa)
#
#
# Indices 1 2 3 4 5 6 
#
# 1 56.2561 29.6248 11.3284 0.0000 0.0000 0.0000
# 2 29.6248 124.0426 48.3535 0.0000 0.0000 0.0000
# 3 11.3284 48.3535 108.3003 0.0000 0.0000 0.0000
# 4 0.0000 0.0000 0.0000 11.7905 0.0000 0.0000
# 5 0.0000 0.0000 0.0000 0.0000 21.7536 0.0000
# 6 0.0000 0.0000 0.0000 0.0000 0.0000 12.1545
#
#
#
# Elastic Compliance Matrix: (Units=1/GPa)
#
#
# Indices 1 2 3 4 5 6 
#
# 1 0.020333 -0.004876 0.000050 0.000000 0.000000 0.000000
# 2 -0.004876 0.010930 -0.004370 0.000000 0.000000 0.000000
# 3 0.000050 -0.004370 0.011179 0.000000 0.000000 0.000000
# 4 0.000000 0.000000 0.000000 0.084814 0.000000 0.000000
# 5 0.000000 0.000000 0.000000 0.000000 0.045969 0.000000
# 6 0.000000 0.000000 0.000000 0.000000 0.000000 0.082274
#
#
# Mechanical properties :
#
#
# Convention : Reuss Voigt Hill
#
# Bulk Modulus (GPa) = 41.57772 51.91248 46.74510
# Shear Modulus (GPa) = 17.73631 22.42589 20.08110
#
# Velocity S-wave (km/s) = 3.11317 3.50063 3.31257
# Velocity P-wave (km/s) = 5.97011 6.68627 6.33831
#
# Compressibility (1/GPa) = 0.02405134
#
# Stress axis : x y z
#
# Youngs Moduli (GPa) = 49.18033 91.49478 89.45050
#
# Poissons Ratio (x) = 0.44609 -0.00447
# Poissons Ratio (y) = 0.23979 0.39088
# Poissons Ratio (z) = -0.00246 0.39981
#
# Static dielectric constant tensor:
#      x y z
#    x 1.629530 0.000000 0.000000 
#    y 0.000000 1.623920 0.000000 
#    z 0.000000 0.000000 1.731420 
# 
# From -- ./inp_files/23549.got.cif
#   From: 2010.05.17/outbox.cif.g08.bks.cpg/sg72_12_cif.got.tgz:23549.got - 2010.06.03 17:03:01.
