data_PCOD9529638
_publ_section_title
;
Structure prediction by ZEFSAII (Michael W. Deem and Ramdas Pophale) SiO2 
 PCOD9529638
Probable space group: I B C A 
;
_chemical_formula_sum "Si O2"
_cell_formula_units_Z 80
_cell_length_a 21.536393
_cell_length_b 5.370162
_cell_length_c 34.071101
_cell_angle_alpha 90.000000
_cell_angle_beta 90.000000
_cell_angle_gamma 90.000000
_cell_volume 3940.456366
_symmetry_space_group_name_H-M "I B C A "
_symmetry_group_IT_number 73
_symmetry_cell_setting 'orthorhombic'
loop_
_space_group_symop_operation_xyz
x,y,z
-x,1/2-y,z
x,-y,1/2-z
1/2-x,y,-z
-x,-y,-z
x,1/2+y,-z
-x,y,1/2+z
1/2+x,-y,z
1/2+x,1/2+y,1/2+z
1/2-x,-y,1/2+z
1/2+x,1/2-y,-z
-x,1/2+y,1/2-z
1/2-x,1/2-y,1/2-z
1/2+x,y,1/2-z
1/2-x,1/2+y,z
x,1/2-y,1/2+z
loop_
_atom_site_type_symbol
_atom_site_label
_atom_site_fract_x
_atom_site_fract_y
_atom_site_fract_z
Si Si1 0.275581 0.832466 0.955515
Si Si2 0.579946 0.888369 0.475235
Si Si3 0.063022 0.032504 0.388874
Si Si4 0.075258 0.755061 0.772299
Si Si5 0.423881 0.954835 0.141028
O O1 0.241453 0.068488 0.936556
O O2 0.348006 0.880910 0.961477
O O3 0.250000 0.805570 0.000000
O O4 0.568291 0.629056 0.497648
O O5 0.546704 0.918913 0.433769
O O6 0.098741 0.267174 0.369602
O O7 0.095653 0.763390 0.388530
O O8 0.998573 0.996591 0.364762
O O9 0.095489 0.500000 0.750000
O O10 0.090102 0.825159 0.817358
O O11 0.000000 0.750000 0.770383
O O12 0.097717 0.000000 0.750000
#
# Coordination Sequence:
#
# PCOD9529638 Si02
#       5
#    16  16  16  16  16
#     4  10  16  30  49  68  86 108 129 196 257 283
#     4  12  21  33  48  69  88 109 168 208 226 288
#     4  10  21  32  48  61  85 133 153 193 241 270
#     4  10  18  26  48  72  83 109 156 197 213 256
#     4  10  19  37  45  60  98 125 159 182 228 285
#
# _framework density 20.302216999999999
#
# number of rings (size 3 to 8) (size 9 to 14) (size 15 to 20)
#    0.000    1.600    6.000    2.400    5.600    0.000 
#    0.000   12.000    0.000    0.000    0.000    0.000 
#    0.000    0.000    0.000    0.000    0.000  106.000 
#
# Total GULP energy -222740.994624 kJ/mol
# GULP energy per Si atom -5568.524866 kJ/mol
# Density = 2.025601 g / cm^3
# Si number density = 20.302217 Si / 1000 Ang^3
#
#
#
# Elastic Constant Matrix: (Units=GPa)
#
#
# Indices 1 2 3 4 5 6 
#
# 1 13.4182 4.3544 2.2081 0.0000 0.0000 0.0000
# 2 4.3544 232.3304 59.1107 0.0000 0.0000 0.0000
# 3 2.2081 59.1107 113.6303 0.0000 0.0000 0.0000
# 4 0.0000 0.0000 0.0000 45.9712 0.0000 0.0000
# 5 0.0000 0.0000 0.0000 0.0000 -1.6744 0.0000
# 6 0.0000 0.0000 0.0000 0.0000 0.0000 11.0847
#
#
#
# Elastic Compliance Matrix: (Units=1/GPa)
#
#
# Indices 1 2 3 4 5 6 
#
# 1 0.075051 -0.001194 -0.000838 0.000000 0.000000 0.000000
# 2 -0.001194 0.004980 -0.002567 0.000000 0.000000 0.000000
# 3 -0.000838 -0.002567 0.010152 0.000000 0.000000 0.000000
# 4 0.000000 0.000000 0.000000 0.021753 0.000000 0.000000
# 5 0.000000 0.000000 0.000000 0.000000 -0.597230 0.000000
# 6 0.000000 0.000000 0.000000 0.000000 0.000000 0.090215
#
#
# Mechanical properties :
#
#
# Convention : Reuss Voigt Hill
#
# Bulk Modulus (GPa) = 12.34777 54.52503 33.43640
# Shear Modulus (GPa) = -13.93193 30.65667 8.36237
#
# Velocity S-wave (km/s) = -2.62244 3.89011 2.03172
# Velocity P-wave (km/s) = 1.75339 6.86238 4.69137
#
# Compressibility (1/GPa) = 0.08098625
#
# Stress axis : x y z
#
# Youngs Moduli (GPa) = 13.32428 200.81252 98.50027
#
# Poissons Ratio (x) = 0.23967 0.08250
# Poissons Ratio (y) = 0.01590 0.25288
# Poissons Ratio (z) = 0.01116 0.51554
#
# Static dielectric constant tensor:
#      x y z
#    x 1.603670 0.000000 0.000000 
#    y 0.000000 1.893920 0.000000 
#    z 0.000000 0.000000 1.746930 
# 
# From -- ./inp_files/33240.got.cif
#   From: 2010.05.17/outbox.cif.g08.bks.cpg/sg73_17_cif.got.tgz:33240.got - 2010.06.03 17:35:07.
