data_PCOD9529173
_publ_section_title
;
Structure prediction by ZEFSAII (Michael W. Deem and Ramdas Pophale) SiO2 
 PCOD9529173
Probable space group: I B A M
;
_chemical_formula_sum "Si O2"
_cell_formula_units_Z 64
_cell_length_a 32.720424
_cell_length_b 9.868113
_cell_length_c 10.158204
_cell_angle_alpha 90.000000
_cell_angle_beta 90.000000
_cell_angle_gamma 90.000000
_cell_volume 3279.970721
_symmetry_space_group_name_H-M "I B A M"
_symmetry_group_IT_number 72
_symmetry_cell_setting 'orthorhombic'
loop_
_space_group_symop_operation_xyz
x,y,z
-x,-y,z
x,-y,1/2-z
-x,y,1/2-z
-x,-y,-z
x,y,-z
-x,y,1/2+z
x,-y,1/2+z
1/2+x,1/2+y,1/2+z
1/2-x,1/2-y,1/2+z
1/2+x,1/2-y,-z
1/2-x,1/2+y,-z
1/2-x,1/2-y,1/2-z
1/2+x,1/2+y,1/2-z
1/2-x,1/2+y,z
1/2+x,1/2-y,z
loop_
_atom_site_type_symbol
_atom_site_label
_atom_site_fract_x
_atom_site_fract_y
_atom_site_fract_z
Si Si1 0.444178 0.353154 0.500000
Si Si2 0.840668 0.000000 0.750000
Si Si3 0.710497 0.605592 0.500000
Si Si4 0.292611 0.071397 0.500000
Si Si5 0.961068 0.823384 0.500000
Si Si6 0.848225 0.500000 0.250000
Si Si7 0.902034 0.766345 0.728992
O O1 0.450705 0.515571 0.500000
O O2 0.490633 0.299576 0.500000
O O3 0.419595 0.304614 0.372195
O O4 0.870093 0.884345 0.691920
O O5 0.814264 0.064035 0.631833
O O6 0.717097 0.767778 0.500000
O O7 0.752137 0.519987 0.500000
O O8 0.319528 0.034907 0.626943
O O9 0.939376 0.764356 0.628287
O O10 0.877202 0.628050 0.273858
#
# Coordination Sequence:
#
# PCOD9529173 Si02
#       7
#     8   8   8   8   8   8  16
#     4  11  22  40  65  97 137 165 220 280 324 386
#     4  12  23  44  71  96 132 178 226 274 321 400
#     4  12  28  45  69 100 137 171 221 274 336 396
#     4  12  28  48  66 101 134 176 218 277 333 401
#     4  11  22  39  66 100 128 175 218 272 332 386
#     4  12  27  46  69  94 140 172 222 274 333 390
#     4  12  23  42  66  97 127 176 220 269 325 390
#
# _framework density 19.512369
#
# number of rings (size 3 to 8) (size 9 to 14) (size 15 to 20)
#    0.000    0.250    5.000    4.500    3.500    4.000 
#    0.000    3.750    0.000    0.000    0.000    0.000 
#    0.000    0.000    0.000    0.000    0.000    0.000 
#
# Total GULP energy -179108.374696 kJ/mol
# GULP energy per Si atom -5597.136709 kJ/mol
# Density = 1.946796 g / cm^3
# Si number density = 19.512369 Si / 1000 Ang^3
#
#
#
# Elastic Constant Matrix: (Units=GPa)
#
#
# Indices 1 2 3 4 5 6 
#
# 1 137.9956 70.7124 44.3984 0.0000 0.0000 0.0000
# 2 70.7124 145.3280 27.2026 0.0000 0.0000 0.0000
# 3 44.3984 27.2026 121.9452 0.0000 0.0000 0.0000
# 4 0.0000 0.0000 0.0000 30.9396 0.0000 0.0000
# 5 0.0000 0.0000 0.0000 0.0000 25.8173 0.0000
# 6 0.0000 0.0000 0.0000 0.0000 0.0000 17.8353
#
#
#
# Elastic Compliance Matrix: (Units=1/GPa)
#
#
# Indices 1 2 3 4 5 6 
#
# 1 0.010496 -0.004583 -0.002799 0.000000 0.000000 0.000000
# 2 -0.004583 0.009182 -0.000380 0.000000 0.000000 0.000000
# 3 -0.002799 -0.000380 0.009304 0.000000 0.000000 0.000000
# 4 0.000000 0.000000 0.000000 0.032321 0.000000 0.000000
# 5 0.000000 0.000000 0.000000 0.000000 0.038734 0.000000
# 6 0.000000 0.000000 0.000000 0.000000 0.000000 0.056069
#
#
# Mechanical properties :
#
#
# Convention : Reuss Voigt Hill
#
# Bulk Modulus (GPa) = 74.30201 76.65509 75.47855
# Shear Modulus (GPa) = 28.39063 32.44878 30.41971
#
# Velocity S-wave (km/s) = 3.81859 4.08240 3.95270
# Velocity P-wave (km/s) = 7.58975 7.84805 7.71998
#
# Compressibility (1/GPa) = 0.01345859
#
# Stress axis : x y z
#
# Youngs Moduli (GPa) = 95.27855 108.90906 107.47891
#
# Poissons Ratio (x) = 0.49912 0.30083
# Poissons Ratio (y) = 0.43665 0.04081
# Poissons Ratio (z) = 0.26668 0.04135
#
# Static dielectric constant tensor:
#      x y z
#    x 1.658550 0.000000 0.000000 
#    y 0.000000 1.679990 0.000000 
#    z 0.000000 0.000000 1.660110 
# 
# From -- ./inp_files/16655.got.cif
#   From: 2010.05.17/outbox.cif.g08.bks.cpg/sg72_9_cif.got.tgz:16655.got - 2010.06.03 17:03:01.
