data_PCOD9529025
_publ_section_title
;
Structure prediction by ZEFSAII (Michael W. Deem and Ramdas Pophale) SiO2 
 PCOD9529025
Probable space group: I B A M
;
_chemical_formula_sum "Si O2"
_cell_formula_units_Z 96
_cell_length_a 23.497667
_cell_length_b 13.276781
_cell_length_c 17.957840
_cell_angle_alpha 90.000000
_cell_angle_beta 90.000000
_cell_angle_gamma 90.000000
_cell_volume 5602.368020
_symmetry_space_group_name_H-M "I B A M"
_symmetry_group_IT_number 72
_symmetry_cell_setting 'orthorhombic'
loop_
_space_group_symop_operation_xyz
x,y,z
-x,-y,z
x,-y,1/2-z
-x,y,1/2-z
-x,-y,-z
x,y,-z
-x,y,1/2+z
x,-y,1/2+z
1/2+x,1/2+y,1/2+z
1/2-x,1/2-y,1/2+z
1/2+x,1/2-y,-z
1/2-x,1/2+y,-z
1/2-x,1/2-y,1/2-z
1/2+x,1/2+y,1/2-z
1/2-x,1/2+y,z
1/2+x,1/2-y,z
loop_
_atom_site_type_symbol
_atom_site_label
_atom_site_fract_x
_atom_site_fract_y
_atom_site_fract_z
Si Si1 0.918804 0.583128 0.910962
Si Si2 0.320279 0.809416 0.179750
Si Si3 0.247280 0.142688 0.088475
Si Si4 0.146033 0.753653 0.156119
Si Si5 0.455186 0.854273 0.411146
Si Si6 0.211489 0.946953 0.824874
O O1 0.867081 0.627661 0.864823
O O2 0.930070 0.465545 0.894295
O O3 0.977904 0.640503 0.893141
O O4 0.908903 0.591397 0.000000
O O5 0.295745 0.720093 0.128666
O O6 0.345008 0.767364 0.256510
O O7 0.266368 0.880306 0.198029
O O8 0.310055 0.179608 0.113108
O O9 0.232610 0.031863 0.118335
O O10 0.242448 0.147972 0.000000
O O11 0.082891 0.726858 0.130657
O O12 0.166691 0.867630 0.142037
O O13 0.450340 0.839959 0.500000
O O14 0.189411 0.000000 0.750000
#
# Coordination Sequence:
#
# PCOD9529025 Si02
#       6
#    16  16  16  16  16  16
#     4   9  19  35  54  77 111 144 176 223 272 324
#     4  11  21  33  55  78 108 143 176 219 273 324
#     4  11  22  35  53  80 108 140 181 221 269 330
#     4  11  21  34  56  78 109 145 178 225 270 326
#     4   9  19  35  53  79 110 142 180 222 270 325
#     4  11  20  37  53  77 111 145 179 223 276 323
#
# _framework density 17.135611000000001
#
# number of rings (size 3 to 8) (size 9 to 14) (size 15 to 20)
#    0.000    1.667    3.333    4.000    0.000    6.000 
#    0.000    1.667    0.000    1.000    0.000    3.500 
#    0.000    0.000    0.000    0.000    0.000    0.000 
#
# Total GULP energy -268064.129463 kJ/mol
# GULP energy per Si atom -5584.669364 kJ/mol
# Density = 1.709661 g / cm^3
# Si number density = 17.135611 Si / 1000 Ang^3
#
#
#
# Elastic Constant Matrix: (Units=GPa)
#
#
# Indices 1 2 3 4 5 6 
#
# 1 57.8994 13.8900 2.4231 0.0000 0.0000 0.0000
# 2 13.8900 65.7458 10.4558 0.0000 0.0000 0.0000
# 3 2.4231 10.4558 54.0998 0.0000 0.0000 0.0000
# 4 0.0000 0.0000 0.0000 19.8078 0.0000 0.0000
# 5 0.0000 0.0000 0.0000 0.0000 25.2718 0.0000
# 6 0.0000 0.0000 0.0000 0.0000 0.0000 27.0827
#
#
#
# Elastic Compliance Matrix: (Units=1/GPa)
#
#
# Indices 1 2 3 4 5 6 
#
# 1 0.018194 -0.003832 -0.000074 0.000000 0.000000 0.000000
# 2 -0.003832 0.016499 -0.003017 0.000000 0.000000 0.000000
# 3 -0.000074 -0.003017 0.019071 0.000000 0.000000 0.000000
# 4 0.000000 0.000000 0.000000 0.050485 0.000000 0.000000
# 5 0.000000 0.000000 0.000000 0.000000 0.039570 0.000000
# 6 0.000000 0.000000 0.000000 0.000000 0.000000 0.036924
#
#
# Mechanical properties :
#
#
# Convention : Reuss Voigt Hill
#
# Bulk Modulus (GPa) = 25.05189 25.69809 25.37499
# Shear Modulus (GPa) = 24.05055 24.49754 24.27404
#
# Velocity S-wave (km/s) = 3.75045 3.78514 3.76784
# Velocity P-wave (km/s) = 5.77980 5.84231 5.81113
#
# Compressibility (1/GPa) = 0.03991715
#
# Stress axis : x y z
#
# Youngs Moduli (GPa) = 54.96401 60.60793 52.43615
#
# Poissons Ratio (x) = 0.23225 0.00390
# Poissons Ratio (y) = 0.21062 0.15821
# Poissons Ratio (z) = 0.00408 0.18287
#
# Static dielectric constant tensor:
#      x y z
#    x 1.567750 0.000000 0.000000 
#    y 0.000000 1.586030 0.000000 
#    z 0.000000 0.000000 1.571240 
# 
# From -- ./inp_files/29409.got.cif
#   From: 2010.05.17/outbox.cif.g08.bks.cpg/sg72_15_cif.got.tgz:29409.got - 2010.06.03 17:03:01.
