data_PCOD9529698
_publ_section_title
;
Structure prediction by ZEFSAII (Michael W. Deem and Ramdas Pophale) SiO2 
 PCOD9529698
Probable space group: I B C A 
;
_chemical_formula_sum "Si O2"
_cell_formula_units_Z 64
_cell_length_a 14.829335
_cell_length_b 13.147678
_cell_length_c 13.542657
_cell_angle_alpha 90.000000
_cell_angle_beta 90.000000
_cell_angle_gamma 90.000000
_cell_volume 2640.429732
_symmetry_space_group_name_H-M "I B C A "
_symmetry_group_IT_number 73
_symmetry_cell_setting 'orthorhombic'
loop_
_space_group_symop_operation_xyz
x,y,z
-x,1/2-y,z
x,-y,1/2-z
1/2-x,y,-z
-x,-y,-z
x,1/2+y,-z
-x,y,1/2+z
1/2+x,-y,z
1/2+x,1/2+y,1/2+z
1/2-x,-y,1/2+z
1/2+x,1/2-y,-z
-x,1/2+y,1/2-z
1/2-x,1/2-y,1/2-z
1/2+x,y,1/2-z
1/2-x,1/2+y,z
x,1/2-y,1/2+z
loop_
_atom_site_type_symbol
_atom_site_label
_atom_site_fract_x
_atom_site_fract_y
_atom_site_fract_z
Si Si1 0.781842 0.000000 0.250000
Si Si2 0.848333 0.833880 0.849564
Si Si3 0.835362 0.610739 0.935118
Si Si4 0.974906 0.862132 0.013081
Si Si5 0.000000 0.750000 0.202836
O O1 0.721499 0.908329 0.204297
O O2 0.840528 0.954086 0.336768
O O3 0.815847 0.727114 0.897905
O O4 0.923433 0.801659 0.768644
O O5 0.894035 0.891636 0.942149
O O6 0.928117 0.589880 0.993383
O O7 0.750000 0.581371 0.000000
O O8 0.000000 0.750000 0.970226
O O9 0.958480 0.834567 0.127232
#
# Coordination Sequence:
#
# PCOD9529698 Si02
#       5
#     8  16  16  16   8
#     4  12  28  38  68 110 144 180 232 296 354 432
#     4  11  22  46  69 100 131 189 237 279 357 419
#     4  11  23  47  66  99 145 178 227 292 362 417
#     4   8  19  38  70  93 120 183 231 272 338 408
#     4  10  16  42  78  86 122 178 244 278 320 418
#
# _framework density 24.238478000000001
#
# number of rings (size 3 to 8) (size 9 to 14) (size 15 to 20)
#    0.750    1.000    3.750    2.250    0.000    2.000 
#    4.500    2.500    0.000    0.000    0.000    0.000 
#    0.000    0.000    0.000    0.000    0.000    0.000 
#
# Total GULP energy -178693.918279 kJ/mol
# GULP energy per Si atom -5584.184946 kJ/mol
# Density = 2.418331 g / cm^3
# Si number density = 24.238478 Si / 1000 Ang^3
#
#
#
# Elastic Constant Matrix: (Units=GPa)
#
#
# Indices 1 2 3 4 5 6 
#
# 1 19.5019 6.5543 -9.1078 0.0000 0.0000 0.0000
# 2 6.5543 104.9461 26.9172 0.0000 0.0000 0.0000
# 3 -9.1078 26.9172 99.1251 0.0000 0.0000 0.0000
# 4 0.0000 0.0000 0.0000 22.8748 0.0000 0.0000
# 5 0.0000 0.0000 0.0000 0.0000 59.9917 0.0000
# 6 0.0000 0.0000 0.0000 0.0000 0.0000 19.8579
#
#
#
# Elastic Compliance Matrix: (Units=1/GPa)
#
#
# Indices 1 2 3 4 5 6 
#
# 1 0.056084 -0.005186 0.006561 0.000000 0.000000 0.000000
# 2 -0.005186 0.010721 -0.003388 0.000000 0.000000 0.000000
# 3 0.006561 -0.003388 0.011611 0.000000 0.000000 0.000000
# 4 0.000000 0.000000 0.000000 0.043716 0.000000 0.000000
# 5 0.000000 0.000000 0.000000 0.000000 0.016669 0.000000
# 6 0.000000 0.000000 0.000000 0.000000 0.000000 0.050358
#
#
# Mechanical properties :
#
#
# Convention : Reuss Voigt Hill
#
# Bulk Modulus (GPa) = 13.44227 30.25563 21.84895
# Shear Modulus (GPa) = 22.93775 33.82550 28.38163
#
# Velocity S-wave (km/s) = 3.07960 3.73973 3.42560
# Velocity P-wave (km/s) = 4.26651 5.58185 4.96790
#
# Compressibility (1/GPa) = 0.07439218
#
# Stress axis : x y z
#
# Youngs Moduli (GPa) = 17.83041 93.27062 86.12466
#
# Poissons Ratio (x) = 0.48366 -0.56508
# Poissons Ratio (y) = 0.09246 0.29178
# Poissons Ratio (z) = -0.11699 0.31599
#
# Static dielectric constant tensor:
#      x y z
#    x 1.981700 0.000000 0.000000 
#    y 0.000000 1.805190 0.000000 
#    z 0.000000 0.000000 1.881640 
# 
# From -- ./inp_files/17652.got.cif
#   From: 2010.05.17/outbox.cif.g08.bks.cpg/sg73_9_cif.got.tgz:17652.got - 2010.06.03 17:35:07.
