data_PCOD9529927
_publ_section_title
;
Structure prediction by ZEFSAII (Michael W. Deem and Ramdas Pophale) SiO2 
 PCOD9529927
Probable space group: I B C A 
;
_chemical_formula_sum "Si O2"
_cell_formula_units_Z 112
_cell_length_a 13.035397
_cell_length_b 19.496603
_cell_length_c 26.108196
_cell_angle_alpha 90.000000
_cell_angle_beta 90.000000
_cell_angle_gamma 90.000000
_cell_volume 6635.292543
_symmetry_space_group_name_H-M "I B C A "
_symmetry_group_IT_number 73
_symmetry_cell_setting 'orthorhombic'
loop_
_space_group_symop_operation_xyz
x,y,z
-x,1/2-y,z
x,-y,1/2-z
1/2-x,y,-z
-x,-y,-z
x,1/2+y,-z
-x,y,1/2+z
1/2+x,-y,z
1/2+x,1/2+y,1/2+z
1/2-x,-y,1/2+z
1/2+x,1/2-y,-z
-x,1/2+y,1/2-z
1/2-x,1/2-y,1/2-z
1/2+x,y,1/2-z
1/2-x,1/2+y,z
x,1/2-y,1/2+z
loop_
_atom_site_type_symbol
_atom_site_label
_atom_site_fract_x
_atom_site_fract_y
_atom_site_fract_z
Si Si1 0.585678 0.050529 0.977098
Si Si2 0.439170 0.083288 0.889606
Si Si3 0.882685 0.775080 0.847820
Si Si4 0.924591 0.811966 0.735073
Si Si5 0.059046 0.069023 0.716828
Si Si6 0.704932 0.040005 0.073335
Si Si7 0.256147 0.145055 0.337806
O O1 0.524647 0.093630 0.934226
O O2 0.683462 0.017224 0.948056
O O3 0.641611 0.078535 0.028057
O O4 0.500000 0.000000 0.000000
O O5 0.379088 0.153613 0.877919
O O6 0.497009 0.060545 0.837066
O O7 0.361777 0.024287 0.907833
O O8 0.867109 0.790149 0.787521
O O9 0.811233 0.711732 0.861779
O O10 0.000000 0.750000 0.851909
O O11 0.842706 0.830343 0.692753
O O12 0.000000 0.750000 0.720550
O O13 0.992834 0.877607 0.749962
O O14 0.163888 0.106870 0.700224
O O15 0.073591 0.000000 0.750000
O O16 0.725320 0.091374 0.119193
#
# Coordination Sequence:
#
# PCOD9529927 Si02
#       7
#    16  16  16  16  16  16  16
#     4   9  18  36  60  82 113 145 189 239 296 351
#     4  10  19  37  57  86 115 148 193 241 283 346
#     4  10  18  35  59  80 110 155 195 225 281 350
#     4  10  21  38  54  78 114 158 197 226 279 352
#     4  11  22  35  55  87 118 148 194 242 285 335
#     4  10  20  34  60  88 108 149 190 241 303 341
#     4  12  21  37  57  81 118 154 192 236 295 341
#
# _framework density 16.879436999999999
#
# number of rings (size 3 to 8) (size 9 to 14) (size 15 to 20)
#    0.000    1.714    5.714    1.286    0.000    2.857 
#    0.000    0.000    0.000   19.714    0.000    0.000 
#    0.000    0.000    0.000    0.000    0.000    0.000 
#
# Total GULP energy -311993.918933 kJ/mol
# GULP energy per Si atom -5571.319981 kJ/mol
# Density = 1.684102 g / cm^3
# Si number density = 16.879437 Si / 1000 Ang^3
#
#
#
# Elastic Constant Matrix: (Units=GPa)
#
#
# Indices 1 2 3 4 5 6 
#
# 1 96.4831 39.3808 52.7740 0.0000 0.0000 0.0000
# 2 39.3808 99.0793 52.0926 0.0000 0.0000 0.0000
# 3 52.7740 52.0926 69.3990 0.0000 0.0000 0.0000
# 4 0.0000 0.0000 0.0000 14.0755 0.0000 0.0000
# 5 0.0000 0.0000 0.0000 0.0000 14.4853 0.0000
# 6 0.0000 0.0000 0.0000 0.0000 0.0000 20.5882
#
#
#
# Elastic Compliance Matrix: (Units=1/GPa)
#
#
# Indices 1 2 3 4 5 6 
#
# 1 0.017746 0.000069 -0.013546 0.000000 0.000000 0.000000
# 2 0.000069 0.016673 -0.012568 0.000000 0.000000 0.000000
# 3 -0.013546 -0.012568 0.034144 0.000000 0.000000 0.000000
# 4 0.000000 0.000000 0.000000 0.071045 0.000000 0.000000
# 5 0.000000 0.000000 0.000000 0.000000 0.069035 0.000000
# 6 0.000000 0.000000 0.000000 0.000000 0.000000 0.048572
#
#
# Mechanical properties :
#
#
# Convention : Reuss Voigt Hill
#
# Bulk Modulus (GPa) = 60.70566 61.49514 61.10040
# Shear Modulus (GPa) = 15.88322 17.87741 16.88031
#
# Velocity S-wave (km/s) = 3.07087 3.25795 3.16579
# Velocity P-wave (km/s) = 6.97252 7.11782 7.04554
#
# Compressibility (1/GPa) = 0.01647293
#
# Stress axis : x y z
#
# Youngs Moduli (GPa) = 56.35066 59.97633 29.28741
#
# Poissons Ratio (x) = -0.00413 0.39674
# Poissons Ratio (y) = -0.00388 0.36808
# Poissons Ratio (z) = 0.76335 0.75376
#
# Static dielectric constant tensor:
#      x y z
#    x 1.578010 0.000000 0.000000 
#    y 0.000000 1.564410 0.000000 
#    z 0.000000 0.000000 1.586290 
# 
# From -- ./inp_files/29035.got.cif
#   From: 2010.05.17/outbox.cif.g08.bks.cpg/sg73_15_cif.got.tgz:29035.got - 2010.06.03 17:35:07.
