data_PCOD9529520
_publ_section_title
;
Structure prediction by ZEFSAII (Michael W. Deem and Ramdas Pophale) SiO2 
 PCOD9529520
Probable space group: I B A M
;
_chemical_formula_sum "Si O2"
_cell_formula_units_Z 40
_cell_length_a 27.000000
_cell_length_b 18.000000
_cell_length_c 9.000000
_cell_angle_alpha 90.000000
_cell_angle_beta 90.000000
_cell_angle_gamma 90.000000
_cell_volume 4374.000000
_symmetry_space_group_name_H-M "I B A M"
_symmetry_group_IT_number 72
_symmetry_cell_setting 'orthorhombic'
loop_
_space_group_symop_operation_xyz
x,y,z
-x,-y,z
x,-y,1/2-z
-x,y,1/2-z
-x,-y,-z
x,y,-z
-x,y,1/2+z
x,-y,1/2+z
1/2+x,1/2+y,1/2+z
1/2-x,1/2-y,1/2+z
1/2+x,1/2-y,-z
1/2-x,1/2+y,-z
1/2-x,1/2-y,1/2-z
1/2+x,1/2+y,1/2-z
1/2-x,1/2+y,z
1/2+x,1/2-y,z
loop_
_atom_site_type_symbol
_atom_site_label
_atom_site_fract_x
_atom_site_fract_y
_atom_site_fract_z
Si Si1 0.821236 0.881341 0.826394
Si Si2 0.079562 0.074186 0.675356
Si Si3 0.151128 0.287346 0.823842
Si Si4 0.949786 0.760205 0.321730
Si Si5 0.291712 0.923010 0.323505
O O1 0.863215 0.916422 0.723919
O O2 0.822151 0.792426 0.802257
O O3 0.767037 0.912632 0.798335
O O4 0.834521 0.894385 0.000000
O O5 0.075560 0.066989 0.500000
O O6 0.055517 0.152445 0.720884
O O7 0.059438 0.000000 0.750000
O O8 0.098022 0.279413 0.745814
O O9 0.181252 0.353617 0.750726
O O10 0.145613 0.298641 0.000000
O O11 0.950176 0.755151 0.500000
O O12 0.000000 0.731072 0.250000
O O13 0.300247 0.923622 0.500000
O O14 0.307916 0.000000 0.250000
#
# Coordination Sequence:
#
# PCOD9529520 Si02
#       5
#    16  16  16  16  16
#     4   9  19  34  53  77 107 143 181 216 255 305
#     4  10  20  32  49  74 107 143 179 218 260 306
#     4  10  20  36  57  80 106 138 175 218 264 312
#     4  10  21  37  56  78 102 134 175 220 267 316
#     4  11  22  35  52  78 110 143 178 217 260 309
#
# _framework density 9.1449470000000002
#
# number of rings (size 3 to 8) (size 9 to 14) (size 15 to 20)
#    0.000    2.000    0.000    3.600    0.000    6.800 
#    0.000    2.000    0.000    0.600    0.000    4.200 
#    0.000    0.000    0.000    0.000    0.000    0.000 
#
# Total GULP energy -223441.870590 kJ/mol
# GULP energy per Si atom -5586.046765 kJ/mol
# Density = 0.912413 g / cm^3
# Si number density = 9.144947 Si / 1000 Ang^3
#
#
#
# Elastic Constant Matrix: (Units=GPa)
#
#
# Indices 1 2 3 4 5 6 
#
# 1 44.6896 12.0881 32.1368 0.0000 0.0000 0.0000
# 2 12.0881 49.3652 23.9003 0.0000 0.0000 0.0000
# 3 32.1368 23.9003 42.3937 0.0000 0.0000 0.0000
# 4 0.0000 0.0000 0.0000 31.1840 0.0000 0.0000
# 5 0.0000 0.0000 0.0000 0.0000 21.6485 0.0000
# 6 0.0000 0.0000 0.0000 0.0000 0.0000 -8.5221
#
#
#
# Elastic Compliance Matrix: (Units=1/GPa)
#
#
# Indices 1 2 3 4 5 6 
#
# 1 0.051773 0.008698 -0.044151 0.000000 0.000000 0.000000
# 2 0.008698 0.029324 -0.023125 0.000000 0.000000 0.000000
# 3 -0.044151 -0.023125 0.070095 0.000000 0.000000 0.000000
# 4 0.000000 0.000000 0.000000 0.032068 0.000000 0.000000
# 5 0.000000 0.000000 0.000000 0.000000 0.046193 0.000000
# 6 0.000000 0.000000 0.000000 0.000000 0.000000 -0.117343
#
#
# Mechanical properties :
#
#
# Convention : Reuss Voigt Hill
#
# Bulk Modulus (GPa) = 29.38139 30.29990 29.84065
# Shear Modulus (GPa) = 20.78050 13.41695 17.09873
#
# Velocity S-wave (km/s) = 3.37437 2.71139 3.06089
# Velocity P-wave (km/s) = 5.59294 5.13854 5.37055
#
# Compressibility (1/GPa) = 0.03403515
#
# Stress axis : x y z
#
# Youngs Moduli (GPa) = 19.31505 34.10233 14.26644
#
# Poissons Ratio (x) = -0.29662 0.62987
# Poissons Ratio (y) = -0.16800 0.32992
# Poissons Ratio (z) = 0.85277 0.78863
#
# Static dielectric constant tensor:
#      x y z
#    x 1.616940 0.000000 0.000000 
#    y 0.000000 1.623830 0.000000 
#    z 0.000000 0.000000 1.592930 
# 
# From -- ./inp_files/4758.got.cif
#   From: 2010.05.17/outbox.ucp.g08.bks.cvg/sg72_3_cif.got.tgz:4758.got - 2010.06.11 16:33:07.
