data_PCOD9529050
_publ_section_title
;
Structure prediction by ZEFSAII (Michael W. Deem and Ramdas Pophale) SiO2 
 PCOD9529050
Probable space group: I B A M
;
_chemical_formula_sum "Si O2"
_cell_formula_units_Z 80
_cell_length_a 8.405233
_cell_length_b 23.129827
_cell_length_c 20.816409
_cell_angle_alpha 90.000000
_cell_angle_beta 90.000000
_cell_angle_gamma 90.000000
_cell_volume 4046.951072
_symmetry_space_group_name_H-M "I B A M"
_symmetry_group_IT_number 72
_symmetry_cell_setting 'orthorhombic'
loop_
_space_group_symop_operation_xyz
x,y,z
-x,-y,z
x,-y,1/2-z
-x,y,1/2-z
-x,-y,-z
x,y,-z
-x,y,1/2+z
x,-y,1/2+z
1/2+x,1/2+y,1/2+z
1/2-x,1/2-y,1/2+z
1/2+x,1/2-y,-z
1/2-x,1/2+y,-z
1/2-x,1/2-y,1/2-z
1/2+x,1/2+y,1/2-z
1/2-x,1/2+y,z
1/2+x,1/2-y,z
loop_
_atom_site_type_symbol
_atom_site_label
_atom_site_fract_x
_atom_site_fract_y
_atom_site_fract_z
Si Si1 0.688003 0.376117 0.891026
Si Si2 0.816773 0.897303 0.380962
Si Si3 0.812478 0.294475 0.000000
Si Si4 0.677004 0.169339 0.000000
Si Si5 0.693632 0.431779 0.754206
Si Si6 0.324233 0.994297 0.427638
O O1 0.496963 0.376956 0.888950
O O2 0.737424 0.395549 0.818237
O O3 0.762494 0.429863 0.929021
O O4 0.739773 0.321349 0.933836
O O5 0.713446 0.866429 0.435298
O O6 0.755702 0.894780 0.308130
O O7 0.805394 0.965926 0.393922
O O8 0.785839 0.226207 0.000000
O O9 0.996314 0.310827 0.000000
O O10 0.746915 0.500000 0.750000
O O11 0.500000 0.434135 0.750000
O O12 0.339489 0.016577 0.500000
O O13 0.500000 0.000000 0.397565
#
# Coordination Sequence:
#
# PCOD9529050 Si02
#       6
#    16  16   8   8  16  16
#     4  11  21  37  62  89 121 160 199 243 299 353
#     4  11  21  37  62  89 121 160 199 243 299 353
#     4  12  26  45  64  87 116 152 206 256 300 352
#     4  12  26  45  64  87 116 152 206 256 300 352
#     4   9  18  34  57  92 129 160 195 237 288 360
#     4  11  21  32  51  86 127 159 194 244 297 354
#
# _framework density 19.767969000000001
#
# number of rings (size 3 to 8) (size 9 to 14) (size 15 to 20)
#    0.000    1.200    4.000    3.600    0.000    0.800 
#    0.000    6.000    0.000    0.000    0.000    0.000 
#    0.000    0.000    0.000    0.000    0.000    0.000 
#
# Total GULP energy -222951.802212 kJ/mol
# GULP energy per Si atom -5573.795055 kJ/mol
# Density = 1.972298 g / cm^3
# Si number density = 19.767969 Si / 1000 Ang^3
#
#
#
# Elastic Constant Matrix: (Units=GPa)
#
#
# Indices 1 2 3 4 5 6 
#
# 1 46.1428 -9.5336 26.8234 0.0000 0.0000 0.0000
# 2 -9.5336 57.6321 31.4129 0.0000 0.0000 0.0000
# 3 26.8234 31.4129 158.6482 0.0000 0.0000 0.0000
# 4 0.0000 0.0000 0.0000 -70.0864 0.0000 0.0000
# 5 0.0000 0.0000 0.0000 0.0000 9.6604 0.0000
# 6 0.0000 0.0000 0.0000 0.0000 0.0000 30.0206
#
#
#
# Elastic Compliance Matrix: (Units=1/GPa)
#
#
# Indices 1 2 3 4 5 6 
#
# 1 0.026794 0.007737 -0.006062 0.000000 0.000000 0.000000
# 2 0.007737 0.021684 -0.005602 0.000000 0.000000 0.000000
# 3 -0.006062 -0.005602 0.008437 0.000000 0.000000 0.000000
# 4 0.000000 0.000000 0.000000 -0.014268 0.000000 0.000000
# 5 0.000000 0.000000 0.000000 0.000000 0.103516 0.000000
# 6 0.000000 0.000000 0.000000 0.000000 0.000000 0.033311
#
#
# Mechanical properties :
#
#
# Convention : Reuss Voigt Hill
#
# Bulk Modulus (GPa) = 20.38252 39.98096 30.18174
# Shear Modulus (GPa) = 24.54802 8.16694 16.35748
#
# Velocity S-wave (km/s) = 3.52775 2.03479 2.87971
# Velocity P-wave (km/s) = 5.18909 5.07834 5.13401
#
# Compressibility (1/GPa) = 0.04906164
#
# Stress axis : x y z
#
# Youngs Moduli (GPa) = 37.32142 46.11603 118.52072
#
# Poissons Ratio (x) = -0.35678 0.71848
# Poissons Ratio (y) = -0.28874 0.66391
# Poissons Ratio (z) = 0.22625 0.25833
#
# Static dielectric constant tensor:
#      x y z
#    x 1.702830 0.000000 0.000000 
#    y 0.000000 1.662630 0.000000 
#    z 0.000000 0.000000 1.775290 
# 
# From -- ./inp_files/35774.got.cif
#   From: 2010.05.17/outbox.cif.g08.bks.cpg/sg72_18_cif.got.tgz:35774.got - 2010.06.03 17:03:01.
