data_PCOD9529916
_publ_section_title
;
Structure prediction by ZEFSAII (Michael W. Deem and Ramdas Pophale) SiO2 
 PCOD9529916
Probable space group: I B C A 
;
_chemical_formula_sum "Si O2"
_cell_formula_units_Z 104
_cell_length_a 9.263539
_cell_length_b 18.545419
_cell_length_c 27.449914
_cell_angle_alpha 90.000000
_cell_angle_beta 90.000000
_cell_angle_gamma 90.000000
_cell_volume 4715.791250
_symmetry_space_group_name_H-M "I B C A "
_symmetry_group_IT_number 73
_symmetry_cell_setting 'orthorhombic'
loop_
_space_group_symop_operation_xyz
x,y,z
-x,1/2-y,z
x,-y,1/2-z
1/2-x,y,-z
-x,-y,-z
x,1/2+y,-z
-x,y,1/2+z
1/2+x,-y,z
1/2+x,1/2+y,1/2+z
1/2-x,-y,1/2+z
1/2+x,1/2-y,-z
-x,1/2+y,1/2-z
1/2-x,1/2-y,1/2-z
1/2+x,y,1/2-z
1/2-x,1/2+y,z
x,1/2-y,1/2+z
loop_
_atom_site_type_symbol
_atom_site_label
_atom_site_fract_x
_atom_site_fract_y
_atom_site_fract_z
Si Si1 0.250000 0.241882 0.500000
Si Si2 0.755062 0.376828 0.567616
Si Si3 0.750000 0.011473 0.500000
Si Si4 0.078836 0.000000 0.250000
Si Si5 0.628702 0.148750 0.656166
Si Si6 0.082660 0.370379 0.450707
Si Si7 0.675304 0.902595 0.737694
Si Si8 0.209782 0.190594 0.335417
O O1 0.168874 0.186060 0.536182
O O2 0.151775 0.296072 0.468971
O O3 0.768328 0.456189 0.545198
O O4 0.585482 0.361279 0.558893
O O5 0.782541 0.359839 0.623501
O O6 0.880477 0.068024 0.490407
O O7 0.971042 0.943944 0.275688
O O8 0.190051 0.951084 0.220137
O O9 0.643940 0.111638 0.603415
O O10 0.677692 0.105147 0.703775
O O11 0.459776 0.168538 0.666011
O O12 0.710607 0.225131 0.652709
O O13 0.703875 0.826123 0.713712
#
# Coordination Sequence:
#
# PCOD9529916 Si02
#       8
#     8  16   8   8  16  16  16  16
#     4  10  18  34  64  82 116 156 198 248 300 376
#     4  10  20  37  59  88 123 160 207 252 313 374
#     4  10  22  34  60  90 116 166 206 258 308 366
#     4  10  24  38  62  86 124 176 196 252 320 366
#     4  10  20  37  64  91 119 166 207 262 320 377
#     4  10  20  37  59  88 123 160 207 252 313 374
#     4  11  21  42  62  92 125 167 210 254 310 388
#     4  10  20  37  64  91 119 166 207 262 320 377
#
# _framework density 22.053563
#
# number of rings (size 3 to 8) (size 9 to 14) (size 15 to 20)
#    0.000    1.846    3.077    1.385    0.000    2.462 
#    0.000    0.000   16.923    0.000    0.000    0.000 
#    0.000    0.000    0.000    0.000    0.000    0.000 
#
# Total GULP energy -289749.321177 kJ/mol
# GULP energy per Si atom -5572.102330 kJ/mol
# Density = 2.200337 g / cm^3
# Si number density = 22.053563 Si / 1000 Ang^3
#
#
#
# Elastic Constant Matrix: (Units=GPa)
#
#
# Indices 1 2 3 4 5 6 
#
# 1 43.6968 7.2067 8.4361 0.0000 0.0000 0.0000
# 2 7.2067 108.0695 26.5694 0.0000 0.0000 0.0000
# 3 8.4361 26.5694 85.2758 0.0000 0.0000 0.0000
# 4 0.0000 0.0000 0.0000 31.0475 0.0000 0.0000
# 5 0.0000 0.0000 0.0000 0.0000 20.6881 0.0000
# 6 0.0000 0.0000 0.0000 0.0000 0.0000 25.9233
#
#
#
# Elastic Compliance Matrix: (Units=1/GPa)
#
#
# Indices 1 2 3 4 5 6 
#
# 1 0.023445 -0.001076 -0.001984 0.000000 0.000000 0.000000
# 2 -0.001076 0.010070 -0.003031 0.000000 0.000000 0.000000
# 3 -0.001984 -0.003031 0.012867 0.000000 0.000000 0.000000
# 4 0.000000 0.000000 0.000000 0.032209 0.000000 0.000000
# 5 0.000000 0.000000 0.000000 0.000000 0.048337 0.000000
# 6 0.000000 0.000000 0.000000 0.000000 0.000000 0.038575
#
#
# Mechanical properties :
#
#
# Convention : Reuss Voigt Hill
#
# Bulk Modulus (GPa) = 29.23898 35.71851 32.47874
# Shear Modulus (GPa) = 26.44295 28.52047 27.48171
#
# Velocity S-wave (km/s) = 3.46646 3.60006 3.53389
# Velocity P-wave (km/s) = 5.41376 5.78895 5.60450
#
# Compressibility (1/GPa) = 0.03420092
#
# Stress axis : x y z
#
# Youngs Moduli (GPa) = 42.65225 99.30232 77.71596
#
# Poissons Ratio (x) = 0.10681 0.15421
# Poissons Ratio (y) = 0.04588 0.23557
# Poissons Ratio (z) = 0.08463 0.30100
#
# Static dielectric constant tensor:
#      x y z
#    x 1.823050 0.000000 0.000000 
#    y 0.000000 1.825600 0.000000 
#    z 0.000000 0.000000 1.881320 
# 
# From -- ./inp_files/34110.got.cif
#   From: 2010.05.17/outbox.cif.g08.bks.cpg/sg73_18_cif.got.tgz:34110.got - 2010.06.03 17:35:07.
