data_PCOD9529616
_publ_section_title
;
Structure prediction by ZEFSAII (Michael W. Deem and Ramdas Pophale) SiO2 
 PCOD9529616
Probable space group: I B C A 
;
_chemical_formula_sum "Si O2"
_cell_formula_units_Z 80
_cell_length_a 5.321596
_cell_length_b 33.427421
_cell_length_c 20.300705
_cell_angle_alpha 90.000000
_cell_angle_beta 90.000000
_cell_angle_gamma 90.000000
_cell_volume 3611.236177
_symmetry_space_group_name_H-M "I B C A "
_symmetry_group_IT_number 73
_symmetry_cell_setting 'orthorhombic'
loop_
_space_group_symop_operation_xyz
x,y,z
-x,1/2-y,z
x,-y,1/2-z
1/2-x,y,-z
-x,-y,-z
x,1/2+y,-z
-x,y,1/2+z
1/2+x,-y,z
1/2+x,1/2+y,1/2+z
1/2-x,-y,1/2+z
1/2+x,1/2-y,-z
-x,1/2+y,1/2-z
1/2-x,1/2-y,1/2-z
1/2+x,y,1/2-z
1/2-x,1/2+y,z
x,1/2-y,1/2+z
loop_
_atom_site_type_symbol
_atom_site_label
_atom_site_fract_x
_atom_site_fract_y
_atom_site_fract_z
Si Si1 0.993484 0.795950 0.472426
Si Si2 0.400866 0.892840 0.672150
Si Si3 0.901766 0.860586 0.680942
Si Si4 0.229952 0.484080 0.325870
Si Si5 0.733727 0.773600 0.668107
O O1 0.750000 0.817644 0.500000
O O2 0.923051 0.788831 0.396485
O O3 0.000000 0.750000 0.500690
O O4 0.250000 0.813685 0.500000
O O5 0.671552 0.881526 0.643303
O O6 0.439086 0.882940 0.749587
O O7 0.321733 0.938744 0.669209
O O8 0.172116 0.865253 0.647073
O O9 0.824881 0.815447 0.697844
O O10 0.199495 0.500000 0.250000
O O11 0.454193 0.510487 0.355390
O O12 0.500000 0.750000 0.703831
O O13 0.000000 0.750000 0.653730
#
# Coordination Sequence:
#
# PCOD9529616 Si02
#       5
#    16  16  16  16  16
#     4   9  16  28  46  64  81  99 124 170 229 277
#     4  10  19  32  44  61  89 123 160 183 224 274
#     4  10  19  32  45  59  85 121 154 192 226 262
#     4  10  16  25  43  64  82 107 150 191 222 259
#     4  11  21  33  47  66  87 112 154 195 226 264
#
# _framework density 22.153078000000001
#
# number of rings (size 3 to 8) (size 9 to 14) (size 15 to 20)
#    0.000    2.000    0.000   10.200    0.000    0.000 
#    0.000   12.000    0.000    0.000    0.000    0.000 
#    0.000    0.000    0.000    0.000    0.000  244.000 
#
# Total GULP energy -222758.007503 kJ/mol
# GULP energy per Si atom -5568.950188 kJ/mol
# Density = 2.210266 g / cm^3
# Si number density = 22.153078 Si / 1000 Ang^3
#
#
#
# Elastic Constant Matrix: (Units=GPa)
#
#
# Indices 1 2 3 4 5 6 
#
# 1 198.2532 -7.7809 4.0233 0.0000 0.0000 0.0000
# 2 -7.7809 65.8110 -0.4208 0.0000 0.0000 0.0000
# 3 4.0233 -0.4208 37.1808 0.0000 0.0000 0.0000
# 4 0.0000 0.0000 0.0000 3.4285 0.0000 0.0000
# 5 0.0000 0.0000 0.0000 0.0000 3.7312 0.0000
# 6 0.0000 0.0000 0.0000 0.0000 0.0000 37.2792
#
#
#
# Elastic Compliance Matrix: (Units=1/GPa)
#
#
# Indices 1 2 3 4 5 6 
#
# 1 0.005079 0.000597 -0.000543 0.000000 0.000000 0.000000
# 2 0.000597 0.015266 0.000108 0.000000 0.000000 0.000000
# 3 -0.000543 0.000108 0.026956 0.000000 0.000000 0.000000
# 4 0.000000 0.000000 0.000000 0.291673 0.000000 0.000000
# 5 0.000000 0.000000 0.000000 0.000000 0.268012 0.000000
# 6 0.000000 0.000000 0.000000 0.000000 0.000000 0.026825
#
#
# Mechanical properties :
#
#
# Convention : Reuss Voigt Hill
#
# Bulk Modulus (GPa) = 20.99737 32.54314 26.77025
# Shear Modulus (GPa) = 7.69988 29.24934 18.47461
#
# Velocity S-wave (km/s) = 1.86636 3.63757 2.89096
# Velocity P-wave (km/s) = 3.76076 5.68899 4.82224
#
# Compressibility (1/GPa) = 0.04762501
#
# Stress axis : x y z
#
# Youngs Moduli (GPa) = 196.90853 65.50380 37.09814
#
# Poissons Ratio (x) = -0.03910 0.02014
# Poissons Ratio (y) = -0.11755 -0.00401
# Poissons Ratio (z) = 0.10688 -0.00709
#
# Static dielectric constant tensor:
#      x y z
#    x 3.217510 0.000000 0.000000 
#    y 0.000000 1.836010 0.000000 
#    z 0.000000 0.000000 1.931460 
# 
# From -- ./inp_files/30943.got.cif
#   From: 2010.05.17/outbox.cif.g08.bks.cpg/sg73_16_cif.got.tgz:30943.got - 2010.06.03 17:35:07.
