data_PCOD9529957
_publ_section_title
;
Structure prediction by ZEFSAII (Michael W. Deem and Ramdas Pophale) SiO2 
 PCOD9529957
Probable space group: I B C A 
;
_chemical_formula_sum "Si O2"
_cell_formula_units_Z 80
_cell_length_a 19.745726
_cell_length_b 13.733270
_cell_length_c 11.679603
_cell_angle_alpha 90.000000
_cell_angle_beta 90.000000
_cell_angle_gamma 90.000000
_cell_volume 3167.197499
_symmetry_space_group_name_H-M "I B C A "
_symmetry_group_IT_number 73
_symmetry_cell_setting 'orthorhombic'
loop_
_space_group_symop_operation_xyz
x,y,z
-x,1/2-y,z
x,-y,1/2-z
1/2-x,y,-z
-x,-y,-z
x,1/2+y,-z
-x,y,1/2+z
1/2+x,-y,z
1/2+x,1/2+y,1/2+z
1/2-x,-y,1/2+z
1/2+x,1/2-y,-z
-x,1/2+y,1/2-z
1/2-x,1/2-y,1/2-z
1/2+x,y,1/2-z
1/2-x,1/2+y,z
x,1/2-y,1/2+z
loop_
_atom_site_type_symbol
_atom_site_label
_atom_site_fract_x
_atom_site_fract_y
_atom_site_fract_z
Si Si1 0.340443 0.013262 0.384291
Si Si2 0.638735 0.847932 0.338227
Si Si3 0.485508 0.079224 0.344960
Si Si4 0.868238 0.922270 0.906708
Si Si5 0.250000 0.672356 0.500000
Si Si6 0.000000 0.750000 0.687640
O O1 0.419153 0.040291 0.403956
O O2 0.294321 0.102516 0.418956
O O3 0.331716 0.000000 0.250000
O O4 0.330448 0.923466 0.471642
O O5 0.651842 0.853839 0.200648
O O6 0.693835 0.788830 0.411412
O O7 0.563626 0.806029 0.367605
O O8 0.641265 0.963392 0.370961
O O9 0.551540 0.100623 0.418910
O O10 0.465047 0.171849 0.270727
O O11 0.507753 0.000000 0.250000
#
# Coordination Sequence:
#
# PCOD9529957 Si02
#       6
#    16  16  16  16   8   8
#     4  10  22  33  59  89 130 174 222 273 342 413
#     4   9  18  34  64  96 129 181 222 273 352 407
#     4  10  18  36  62  97 129 161 222 291 333 409
#     4   9  16  35  61  90 135 165 213 286 340 403
#     4  10  22  38  58  94 138 176 220 288 332 420
#     4  10  18  36  68  96 130 182 226 276 354 402
#
# _framework density 25.258924
#
# number of rings (size 3 to 8) (size 9 to 14) (size 15 to 20)
#    0.000    2.400    4.000    0.600    5.600    0.000 
#    0.000    5.000   17.600    4.800    0.000    0.000 
#    0.000    0.000    0.000    0.000    0.000    0.000 
#
# Total GULP energy -223168.145725 kJ/mol
# GULP energy per Si atom -5579.203643 kJ/mol
# Density = 2.520143 g / cm^3
# Si number density = 25.258924 Si / 1000 Ang^3
#
#
#
# Elastic Constant Matrix: (Units=GPa)
#
#
# Indices 1 2 3 4 5 6 
#
# 1 96.4607 5.7345 41.7430 0.0000 0.0000 0.0000
# 2 5.7345 76.4034 18.8923 0.0000 0.0000 0.0000
# 3 41.7430 18.8923 152.7448 0.0000 0.0000 0.0000
# 4 0.0000 0.0000 0.0000 5.7026 0.0000 0.0000
# 5 0.0000 0.0000 0.0000 0.0000 34.3440 0.0000
# 6 0.0000 0.0000 0.0000 0.0000 0.0000 7.4371
#
#
#
# Elastic Compliance Matrix: (Units=1/GPa)
#
#
# Indices 1 2 3 4 5 6 
#
# 1 0.011758 -0.000091 -0.003202 0.000000 0.000000 0.000000
# 2 -0.000091 0.013502 -0.001645 0.000000 0.000000 0.000000
# 3 -0.003202 -0.001645 0.007625 0.000000 0.000000 0.000000
# 4 0.000000 0.000000 0.000000 0.175360 0.000000 0.000000
# 5 0.000000 0.000000 0.000000 0.000000 0.029117 0.000000
# 6 0.000000 0.000000 0.000000 0.000000 0.000000 0.134461
#
#
# Mechanical properties :
#
#
# Convention : Reuss Voigt Hill
#
# Bulk Modulus (GPa) = 43.46038 50.92760 47.19399
# Shear Modulus (GPa) = 12.84130 26.77934 19.81032
#
# Velocity S-wave (km/s) = 2.25719 3.25959 2.80356
# Velocity P-wave (km/s) = 4.90270 5.86281 5.40412
#
# Compressibility (1/GPa) = 0.02300947
#
# Stress axis : x y z
#
# Youngs Moduli (GPa) = 85.04848 74.06282 131.13995
#
# Poissons Ratio (x) = 0.00672 0.41992
# Poissons Ratio (y) = 0.00772 0.21575
# Poissons Ratio (z) = 0.27233 0.12185
#
# Static dielectric constant tensor:
#      x y z
#    x 2.049960 0.000000 0.000000 
#    y 0.000000 2.124740 0.000000 
#    z 0.000000 0.000000 2.089730 
# 
# From -- ./inp_files/13481.got.cif
#   From: 2010.05.17/outbox.cif.g08.bks.cpg/sg73_7_cif.got.tgz:13481.got - 2010.06.03 17:35:07.
