data_PCOD9529211
_publ_section_title
;
Structure prediction by ZEFSAII (Michael W. Deem and Ramdas Pophale) SiO2 
 PCOD9529211
Probable space group: I B A M
;
_chemical_formula_sum "Si O2"
_cell_formula_units_Z 64
_cell_length_a 13.802848
_cell_length_b 9.702640
_cell_length_c 25.432377
_cell_angle_alpha 90.000000
_cell_angle_beta 90.000000
_cell_angle_gamma 90.000000
_cell_volume 3406.007313
_symmetry_space_group_name_H-M "I B A M"
_symmetry_group_IT_number 72
_symmetry_cell_setting 'orthorhombic'
loop_
_space_group_symop_operation_xyz
x,y,z
-x,-y,z
x,-y,1/2-z
-x,y,1/2-z
-x,-y,-z
x,y,-z
-x,y,1/2+z
x,-y,1/2+z
1/2+x,1/2+y,1/2+z
1/2-x,1/2-y,1/2+z
1/2+x,1/2-y,-z
1/2-x,1/2+y,-z
1/2-x,1/2-y,1/2-z
1/2+x,1/2+y,1/2-z
1/2-x,1/2+y,z
1/2+x,1/2-y,z
loop_
_atom_site_type_symbol
_atom_site_label
_atom_site_fract_x
_atom_site_fract_y
_atom_site_fract_z
Si Si1 0.651610 0.665589 0.743027
Si Si2 0.500000 0.500000 0.084292
Si Si3 0.500000 0.000000 0.591311
Si Si4 0.491074 0.730955 0.662725
Si Si5 0.153542 0.445399 0.000000
Si Si6 0.148491 0.116414 0.000000
O O1 0.662580 0.500000 0.750000
O O2 0.750000 0.750000 0.750000
O O3 0.595857 0.694304 0.688056
O O4 0.581672 0.723910 0.788570
O O5 0.542969 0.615048 0.122119
O O6 0.581622 0.427726 0.049138
O O7 0.506699 0.129964 0.629782
O O8 0.409069 0.015037 0.551650
O O9 0.253339 0.528939 0.000000
O O10 0.167361 0.279939 0.000000
#
# Coordination Sequence:
#
# PCOD9529211 Si02
#       6
#    16   8   8  16   8   8
#     4  11  25  42  65  96 129 162 211 262 312 375
#     4  11  22  45  66  90 126 175 210 253 320 374
#     4  11  26  43  66  92 130 167 214 261 310 376
#     4  11  23  45  66  89 129 171 208 256 315 374
#     4  11  26  44  61  99 129 163 213 265 314 374
#     4  11  26  40  67  95 129 165 213 263 314 376
#
# _framework density 18.790330000000001
#
# number of rings (size 3 to 8) (size 9 to 14) (size 15 to 20)
#    0.000    1.000    5.000    0.750    7.000    5.000 
#    0.000    0.000    0.000    0.000    0.000    0.000 
#    0.000    0.000    0.000    0.000    0.000    0.000 
#
# Total GULP energy -178705.504498 kJ/mol
# GULP energy per Si atom -5584.547016 kJ/mol
# Density = 1.874756 g / cm^3
# Si number density = 18.790330 Si / 1000 Ang^3
#
#
#
# Elastic Constant Matrix: (Units=GPa)
#
#
# Indices 1 2 3 4 5 6 
#
# 1 125.1061 51.4671 37.0885 0.0000 0.0000 0.0000
# 2 51.4671 158.0054 62.7751 0.0000 0.0000 0.0000
# 3 37.0885 62.7751 115.4986 0.0000 0.0000 0.0000
# 4 0.0000 0.0000 0.0000 40.1903 0.0000 0.0000
# 5 0.0000 0.0000 0.0000 0.0000 8.2588 0.0000
# 6 0.0000 0.0000 0.0000 0.0000 0.0000 32.4528
#
#
#
# Elastic Compliance Matrix: (Units=1/GPa)
#
#
# Indices 1 2 3 4 5 6 
#
# 1 0.009498 -0.002400 -0.001745 0.000000 0.000000 0.000000
# 2 -0.002400 0.008679 -0.003946 0.000000 0.000000 0.000000
# 3 -0.001745 -0.003946 0.011363 0.000000 0.000000 0.000000
# 4 0.000000 0.000000 0.000000 0.024882 0.000000 0.000000
# 5 0.000000 0.000000 0.000000 0.000000 0.121084 0.000000
# 6 0.000000 0.000000 0.000000 0.000000 0.000000 0.030814
#
#
# Mechanical properties :
#
#
# Convention : Reuss Voigt Hill
#
# Bulk Modulus (GPa) = 74.87105 77.91908 76.39507
# Shear Modulus (GPa) = 22.03079 32.66567 27.34823
#
# Velocity S-wave (km/s) = 3.42783 4.17397 3.81916
# Velocity P-wave (km/s) = 7.45645 8.04904 7.75841
#
# Compressibility (1/GPa) = 0.01335630
#
# Stress axis : x y z
#
# Youngs Moduli (GPa) = 105.28378 115.22650 88.00226
#
# Poissons Ratio (x) = 0.27659 0.15360
# Poissons Ratio (y) = 0.25272 0.34727
# Poissons Ratio (z) = 0.18376 0.45470
#
# Static dielectric constant tensor:
#      x y z
#    x 1.637770 0.000000 0.000000 
#    y 0.000000 1.542330 0.000000 
#    z 0.000000 0.000000 1.646410 
# 
# From -- ./inp_files/41988.got.cif
#   From: 2010.05.17/outbox.cif.g08.bks.cpg/sg72_21_cif.got.tgz:41988.got - 2010.06.03 17:03:01.
