data_PCOD9529018
_publ_section_title
;
Structure prediction by ZEFSAII (Michael W. Deem and Ramdas Pophale) SiO2 
 PCOD9529018
Probable space group: I B A M
;
_chemical_formula_sum "Si O2"
_cell_formula_units_Z 68
_cell_length_a 19.985403
_cell_length_b 9.244456
_cell_length_c 15.695917
_cell_angle_alpha 90.000000
_cell_angle_beta 90.000000
_cell_angle_gamma 90.000000
_cell_volume 2899.886254
_symmetry_space_group_name_H-M "I B A M"
_symmetry_group_IT_number 72
_symmetry_cell_setting 'orthorhombic'
loop_
_space_group_symop_operation_xyz
x,y,z
-x,-y,z
x,-y,1/2-z
-x,y,1/2-z
-x,-y,-z
x,y,-z
-x,y,1/2+z
x,-y,1/2+z
1/2+x,1/2+y,1/2+z
1/2-x,1/2-y,1/2+z
1/2+x,1/2-y,-z
1/2-x,1/2+y,-z
1/2-x,1/2-y,1/2-z
1/2+x,1/2+y,1/2-z
1/2-x,1/2+y,z
1/2+x,1/2-y,z
loop_
_atom_site_type_symbol
_atom_site_label
_atom_site_fract_x
_atom_site_fract_y
_atom_site_fract_z
Si Si1 0.000000 0.000000 0.250000
Si Si2 0.376161 0.667344 0.172806
Si Si3 0.741818 0.531437 0.897491
Si Si4 0.078006 0.168725 0.500000
Si Si5 0.832915 0.294110 0.849189
Si Si6 0.422356 0.684060 0.000000
O O1 0.948290 0.092913 0.306388
O O2 0.320185 0.545966 0.151960
O O3 0.356535 0.758788 0.254822
O O4 0.387953 0.745814 0.083720
O O5 0.808670 0.455396 0.865377
O O6 0.732616 0.697486 0.872062
O O7 0.736463 0.515088 0.000000
O O8 0.113530 0.236277 0.582654
O O9 0.000864 0.208820 0.500000
O O10 0.085067 0.993279 0.500000
#
# Coordination Sequence:
#
# PCOD9529018 Si02
#       6
#     4  16  16   8  16   8
#     4  12  20  34  64  92 130 154 204 272 322 356
#     4  12  21  35  58  91 128 159 203 256 324 354
#     4  12  22  40  60  88 128 166 203 256 309 377
#     4  11  20  35  59  92 125 155 205 261 319 359
#     4  12  23  39  61  91 132 161 208 254 313 376
#     4  11  20  33  59  88 131 154 202 270 312 354
#
# _framework density 23.449195
#
# number of rings (size 3 to 8) (size 9 to 14) (size 15 to 20)
#    0.000    0.235    8.235    3.529    0.000    0.000 
#    0.000    0.000    0.000    0.000    0.000   13.176 
#    0.000    0.000    0.000    0.000    0.000    0.000 
#
# Total GULP energy -190541.064898 kJ/mol
# GULP energy per Si atom -5604.148968 kJ/mol
# Density = 2.339582 g / cm^3
# Si number density = 23.449195 Si / 1000 Ang^3
#
#
#
# Elastic Constant Matrix: (Units=GPa)
#
#
# Indices 1 2 3 4 5 6 
#
# 1 95.6704 35.0405 53.2465 0.0000 0.0000 0.0000
# 2 35.0405 63.9842 33.7012 0.0000 0.0000 0.0000
# 3 53.2465 33.7012 236.7146 0.0000 0.0000 0.0000
# 4 0.0000 0.0000 0.0000 9.6721 0.0000 0.0000
# 5 0.0000 0.0000 0.0000 0.0000 40.8800 0.0000
# 6 0.0000 0.0000 0.0000 0.0000 0.0000 29.9391
#
#
#
# Elastic Compliance Matrix: (Units=1/GPa)
#
#
# Indices 1 2 3 4 5 6 
#
# 1 0.014094 -0.006539 -0.002239 0.000000 0.000000 0.000000
# 2 -0.006539 0.019930 -0.001367 0.000000 0.000000 0.000000
# 3 -0.002239 -0.001367 0.004923 0.000000 0.000000 0.000000
# 4 0.000000 0.000000 0.000000 0.103390 0.000000 0.000000
# 5 0.000000 0.000000 0.000000 0.000000 0.024462 0.000000
# 6 0.000000 0.000000 0.000000 0.000000 0.000000 0.033401
#
#
# Mechanical properties :
#
#
# Convention : Reuss Voigt Hill
#
# Bulk Modulus (GPa) = 53.60006 71.14950 62.37478
# Shear Modulus (GPa) = 22.05485 34.39030 28.22258
#
# Velocity S-wave (km/s) = 3.07015 3.83376 3.47300
# Velocity P-wave (km/s) = 5.95611 7.07141 6.53759
#
# Compressibility (1/GPa) = 0.01865670
#
# Stress axis : x y z
#
# Youngs Moduli (GPa) = 70.95301 50.17657 203.13803
#
# Poissons Ratio (x) = 0.32810 0.45489
# Poissons Ratio (y) = 0.46396 0.27759
# Poissons Ratio (z) = 0.15889 0.06857
#
# Static dielectric constant tensor:
#      x y z
#    x 1.899100 0.000000 0.000000 
#    y 0.000000 1.855080 0.000000 
#    z 0.000000 0.000000 1.894120 
# 
# From -- ./inp_files/23924.got.cif
#   From: 2010.05.17/outbox.cif.g08.bks.cpg/sg72_12_cif.got.tgz:23924.got - 2010.06.03 17:03:01.
