data_PCOD9529723
_publ_section_title
;
Structure prediction by ZEFSAII (Michael W. Deem and Ramdas Pophale) SiO2 
 PCOD9529723
Probable space group: I B C A 
;
_chemical_formula_sum "Si O2"
_cell_formula_units_Z 72
_cell_length_a 29.113485
_cell_length_b 5.663970
_cell_length_c 18.822831
_cell_angle_alpha 90.000000
_cell_angle_beta 90.000000
_cell_angle_gamma 90.000000
_cell_volume 3103.845410
_symmetry_space_group_name_H-M "I B C A "
_symmetry_group_IT_number 73
_symmetry_cell_setting 'orthorhombic'
loop_
_space_group_symop_operation_xyz
x,y,z
-x,1/2-y,z
x,-y,1/2-z
1/2-x,y,-z
-x,-y,-z
x,1/2+y,-z
-x,y,1/2+z
1/2+x,-y,z
1/2+x,1/2+y,1/2+z
1/2-x,-y,1/2+z
1/2+x,1/2-y,-z
-x,1/2+y,1/2-z
1/2-x,1/2-y,1/2-z
1/2+x,y,1/2-z
1/2-x,1/2+y,z
x,1/2-y,1/2+z
loop_
_atom_site_type_symbol
_atom_site_label
_atom_site_fract_x
_atom_site_fract_y
_atom_site_fract_z
Si Si1 0.568752 0.873524 0.503154
Si Si2 0.802417 0.350871 0.527900
Si Si3 0.099965 0.141281 0.346983
Si Si4 0.000000 0.750000 0.710683
Si Si5 0.367123 0.361396 0.856293
O O1 0.543729 0.623350 0.500638
O O2 0.600756 0.872307 0.432885
O O3 0.598024 0.872979 0.575722
O O4 0.750000 0.355318 0.500000
O O5 0.820852 0.605463 0.503556
O O6 0.816076 0.337629 0.610689
O O7 0.126369 0.378840 0.323004
O O8 0.046355 0.180915 0.330029
O O9 0.117696 0.885304 0.320507
O O10 0.988620 0.500000 0.750000
#
# Coordination Sequence:
#
# PCOD9529723 Si02
#       5
#    16  16  16   8  16
#     4   8  14  25  44  68  95 125 157 196 240 303
#     4  10  18  27  44  74 115 162 186 199 237 298
#     4  10  20  34  54  73  96 140 183 223 276 334
#     4  12  26  44  58  74 100 132 184 262 316 330
#     4  10  17  31  51  77 109 145 176 209 253 324
#
# _framework density 23.197030999999999
#
# number of rings (size 3 to 8) (size 9 to 14) (size 15 to 20)
#    0.000    2.222    0.000    6.667    0.000    0.000 
#    0.000   10.000    0.000    0.000    0.000    0.000 
#    0.000    0.000    0.000  464.000    0.000    0.000 
#
# Total GULP energy -200485.323133 kJ/mol
# GULP energy per Si atom -5569.036754 kJ/mol
# Density = 2.314423 g / cm^3
# Si number density = 23.197031 Si / 1000 Ang^3
#
#
#
# Elastic Constant Matrix: (Units=GPa)
#
#
# Indices 1 2 3 4 5 6 
#
# 1 112.6497 54.0603 17.0045 0.0000 0.0000 0.0000
# 2 54.0603 314.2845 40.7799 0.0000 0.0000 0.0000
# 3 17.0045 40.7799 50.2923 0.0000 0.0000 0.0000
# 4 0.0000 0.0000 0.0000 41.8496 0.0000 0.0000
# 5 0.0000 0.0000 0.0000 0.0000 6.1117 0.0000
# 6 0.0000 0.0000 0.0000 0.0000 0.0000 34.8585
#
#
#
# Elastic Compliance Matrix: (Units=1/GPa)
#
#
# Indices 1 2 3 4 5 6 
#
# 1 0.009888 -0.001416 -0.002195 0.000000 0.000000 0.000000
# 2 -0.001416 0.003759 -0.002569 0.000000 0.000000 0.000000
# 3 -0.002195 -0.002569 0.022709 0.000000 0.000000 0.000000
# 4 0.000000 0.000000 0.000000 0.023895 0.000000 0.000000
# 5 0.000000 0.000000 0.000000 0.000000 0.163621 0.000000
# 6 0.000000 0.000000 0.000000 0.000000 0.000000 0.028687
#
#
# Mechanical properties :
#
#
# Convention : Reuss Voigt Hill
#
# Bulk Modulus (GPa) = 41.67440 77.87955 59.77698
# Shear Modulus (GPa) = 18.32052 40.92274 29.62163
#
# Velocity S-wave (km/s) = 2.81335 4.20472 3.57733
# Velocity P-wave (km/s) = 5.34394 7.56431 6.54891
#
# Compressibility (1/GPa) = 0.02399555
#
# Stress axis : x y z
#
# Youngs Moduli (GPa) = 101.13304 266.04622 44.03522
#
# Poissons Ratio (x) = 0.37673 0.09666
# Poissons Ratio (y) = 0.14321 0.11313
# Poissons Ratio (z) = 0.22199 0.68348
#
# Static dielectric constant tensor:
#      x y z
#    x 2.021130 0.000000 0.000000 
#    y 0.000000 1.957410 0.000000 
#    z 0.000000 0.000000 1.930720 
# 
# From -- ./inp_files/24482.got.cif
#   From: 2010.05.17/outbox.cif.g08.bks.cpg/sg73_13_cif.got.tgz:24482.got - 2010.06.03 17:35:07.
