data_PCOD9529690
_publ_section_title
;
Structure prediction by ZEFSAII (Michael W. Deem and Ramdas Pophale) SiO2 
 PCOD9529690
Probable space group: I B C A 
;
_chemical_formula_sum "Si O2"
_cell_formula_units_Z 104
_cell_length_a 21.355208
_cell_length_b 16.427186
_cell_length_c 11.507715
_cell_angle_alpha 90.000000
_cell_angle_beta 90.000000
_cell_angle_gamma 90.000000
_cell_volume 4036.975168
_symmetry_space_group_name_H-M "I B C A "
_symmetry_group_IT_number 73
_symmetry_cell_setting 'orthorhombic'
loop_
_space_group_symop_operation_xyz
x,y,z
-x,1/2-y,z
x,-y,1/2-z
1/2-x,y,-z
-x,-y,-z
x,1/2+y,-z
-x,y,1/2+z
1/2+x,-y,z
1/2+x,1/2+y,1/2+z
1/2-x,-y,1/2+z
1/2+x,1/2-y,-z
-x,1/2+y,1/2-z
1/2-x,1/2-y,1/2-z
1/2+x,y,1/2-z
1/2-x,1/2+y,z
x,1/2-y,1/2+z
loop_
_atom_site_type_symbol
_atom_site_label
_atom_site_fract_x
_atom_site_fract_y
_atom_site_fract_z
Si Si1 0.648033 0.697079 0.053605
Si Si2 0.500000 0.750000 0.894657
Si Si3 0.922909 0.408517 0.896979
Si Si4 0.675193 0.936433 0.104733
Si Si5 0.082200 0.834650 0.289349
Si Si6 0.750000 0.578745 0.000000
Si Si7 0.750000 0.692627 0.500000
Si Si8 0.950606 0.089935 0.135537
O O1 0.618230 0.764454 0.138905
O O2 0.703749 0.632929 0.078998
O O3 0.589234 0.637307 0.038935
O O4 0.689492 0.753030 0.966532
O O5 0.462919 0.669529 0.938436
O O6 0.442964 0.790252 0.823336
O O7 0.958150 0.495629 0.895048
O O8 0.911815 0.399506 0.757770
O O9 0.866212 0.421591 0.986619
O O10 0.628876 0.911191 0.208212
O O11 0.728976 0.867589 0.101747
O O12 0.708596 0.021672 0.083923
O O13 0.016515 0.868911 0.337910
#
# Coordination Sequence:
#
# PCOD9529690 Si02
#       8
#    16   8  16  16  16   8   8  16
#     4  10  16  35  59  81 110 154 196 240 296 359
#     4  10  20  38  56  86 120 162 198 250 318 396
#     4  10  20  35  56  87 119 157 199 248 308 376
#     4  10  20  36  54  85 117 156 199 261 299 351
#     4  10  19  35  60  84 118 155 197 249 316 366
#     4  10  20  34  56  86 114 150 211 251 284 356
#     4   8  20  32  54  80 112 152 203 245 290 348
#     4  10  19  35  60  86 117 161 197 244 318 382
#
# _framework density 25.761863000000002
#
# number of rings (size 3 to 8) (size 9 to 14) (size 15 to 20)
#    0.000    2.154    4.615    0.000    0.000    1.231 
#    0.000    2.308    0.000    0.000    0.000    0.000 
#    0.000    0.000    0.000    0.000    0.000    0.000 
#
# Total GULP energy -289761.911006 kJ/mol
# GULP energy per Si atom -5572.344442 kJ/mol
# Density = 2.570323 g / cm^3
# Si number density = 25.761863 Si / 1000 Ang^3
#
#
#
# Elastic Constant Matrix: (Units=GPa)
#
#
# Indices 1 2 3 4 5 6 
#
# 1 152.4291 67.7254 35.6936 0.0000 0.0000 0.0000
# 2 67.7254 197.5927 40.1978 0.0000 0.0000 0.0000
# 3 35.6936 40.1978 75.7644 0.0000 0.0000 0.0000
# 4 0.0000 0.0000 0.0000 -9.7394 0.0000 0.0000
# 5 0.0000 0.0000 0.0000 0.0000 84.8034 0.0000
# 6 0.0000 0.0000 0.0000 0.0000 0.0000 66.7197
#
#
#
# Elastic Compliance Matrix: (Units=1/GPa)
#
#
# Indices 1 2 3 4 5 6 
#
# 1 0.008189 -0.002267 -0.002655 0.000000 0.000000 0.000000
# 2 -0.002267 0.006301 -0.002275 0.000000 0.000000 0.000000
# 3 -0.002655 -0.002275 0.015657 0.000000 0.000000 0.000000
# 4 0.000000 0.000000 0.000000 -0.102676 0.000000 0.000000
# 5 0.000000 0.000000 0.000000 0.000000 0.011792 0.000000
# 6 0.000000 0.000000 0.000000 0.000000 0.000000 0.014988
#
#
# Mechanical properties :
#
#
# Convention : Reuss Voigt Hill
#
# Bulk Modulus (GPa) = 63.48206 79.22442 71.35324
# Shear Modulus (GPa) = -191.54501 47.16804 -72.18849
#
# Velocity S-wave (km/s) = -8.63212 4.28357 -5.29927
# Velocity P-wave (km/s) = 8.64037 7.43537 3.11218
#
# Compressibility (1/GPa) = 0.01575248
#
# Stress axis : x y z
#
# Youngs Moduli (GPa) = 122.10966 158.71358 63.86968
#
# Poissons Ratio (x) = 0.35976 0.16960
# Poissons Ratio (y) = 0.27679 0.14531
# Poissons Ratio (z) = 0.32426 0.36108
#
# Static dielectric constant tensor:
#      x y z
#    x 2.012560 0.000000 0.000000 
#    y 0.000000 2.084400 0.000000 
#    z 0.000000 0.000000 2.200400 
# 
# From -- ./inp_files/18845.got.cif
#   From: 2010.05.17/outbox.cif.g08.bks.cpg/sg73_10_cif.got.tgz:18845.got - 2010.06.03 17:35:07.
