data_PCOD9529575
_publ_section_title
;
Structure prediction by ZEFSAII (Michael W. Deem and Ramdas Pophale) SiO2 
 PCOD9529575
Probable space group: I B A M
;
_chemical_formula_sum "Si O2"
_cell_formula_units_Z 58
_cell_length_a 18.000000
_cell_length_b 12.000000
_cell_length_c 27.000000
_cell_angle_alpha 90.000000
_cell_angle_beta 90.000000
_cell_angle_gamma 90.000000
_cell_volume 5832.000000
_symmetry_space_group_name_H-M "I B A M"
_symmetry_group_IT_number 72
_symmetry_cell_setting 'orthorhombic'
loop_
_space_group_symop_operation_xyz
x,y,z
-x,-y,z
x,-y,1/2-z
-x,y,1/2-z
-x,-y,-z
x,y,-z
-x,y,1/2+z
x,-y,1/2+z
1/2+x,1/2+y,1/2+z
1/2-x,1/2-y,1/2+z
1/2+x,1/2-y,-z
1/2-x,1/2+y,-z
1/2-x,1/2-y,1/2-z
1/2+x,1/2+y,1/2-z
1/2-x,1/2+y,z
1/2+x,1/2-y,z
loop_
_atom_site_type_symbol
_atom_site_label
_atom_site_fract_x
_atom_site_fract_y
_atom_site_fract_z
Si Si1 0.662532 0.496153 0.443635
Si Si2 0.000000 0.000000 0.250000
Si Si3 0.860394 0.872800 0.708302
Si Si4 0.799206 0.454241 0.304478
Si Si5 0.333867 0.703055 0.182592
Si Si6 0.044440 0.883853 0.612394
Si Si7 0.708798 0.895302 0.110749
Si Si8 0.603111 0.279125 0.390747
O O1 0.657524 0.464320 0.500000
O O2 0.603480 0.592928 0.430711
O O3 0.743091 0.536084 0.427765
O O4 0.638533 0.392807 0.410489
O O5 0.059743 0.928289 0.218716
O O6 0.791470 0.947104 0.688382
O O7 0.827225 0.836288 0.760871
O O8 0.877931 0.779510 0.667889
O O9 0.813635 0.500000 0.250000
O O10 0.833511 0.334315 0.312088
O O11 0.829471 0.528593 0.348395
O O12 0.407878 0.649830 0.159966
O O13 0.268107 0.673781 0.144403
O O14 0.983902 0.790420 0.601318
O O15 0.000000 0.000000 0.618939
O O16 0.647887 0.819749 0.085299
#
# Coordination Sequence:
#
# PCOD9529575 Si02
#       8
#    16   4  16  16  16  16  16  16
#     4  10  22  39  59  85 114 143 183 243 311 359
#     4  12  24  28  56  84 124 156 194 252 288 320
#     4  12  21  31  51  86 117 151 195 237 277 329
#     4  12  21  34  56  82 118 163 197 235 277 335
#     4  11  21  36  55  84 120 157 200 237 280 339
#     4   9  22  38  59  84 115 152 191 242 297 346
#     4  11  20  36  57  84 114 152 195 234 287 349
#     4  11  22  36  57  84 112 146 191 237 283 347
#
# _framework density 9.9451300000000007
#
# number of rings (size 3 to 8) (size 9 to 14) (size 15 to 20)
#    0.000    1.103    4.828    2.069    7.724    3.034 
#    0.000    0.690    0.000    0.828    0.000    0.000 
#    0.000   11.034    0.000    0.000    0.000    0.000 
#
# Total GULP energy -323361.900584 kJ/mol
# GULP energy per Si atom -5575.205182 kJ/mol
# Density = 0.992249 g / cm^3
# Si number density = 9.945130 Si / 1000 Ang^3
#
#
#
# Elastic Constant Matrix: (Units=GPa)
#
#
# Indices 1 2 3 4 5 6 
#
# 1 63.2899 30.9147 15.0708 0.0000 0.0000 0.0000
# 2 30.9147 56.6614 2.3358 0.0000 0.0000 0.0000
# 3 15.0708 2.3358 43.4320 0.0000 0.0000 0.0000
# 4 0.0000 0.0000 0.0000 -9.9398 0.0000 0.0000
# 5 0.0000 0.0000 0.0000 0.0000 7.3743 0.0000
# 6 0.0000 0.0000 0.0000 0.0000 0.0000 29.7322
#
#
#
# Elastic Compliance Matrix: (Units=1/GPa)
#
#
# Indices 1 2 3 4 5 6 
#
# 1 0.023792 -0.012669 -0.007575 0.000000 0.000000 0.000000
# 2 -0.012669 0.024434 0.003082 0.000000 0.000000 0.000000
# 3 -0.007575 0.003082 0.025487 0.000000 0.000000 0.000000
# 4 0.000000 0.000000 0.000000 -0.100606 0.000000 0.000000
# 5 0.000000 0.000000 0.000000 0.000000 0.135605 0.000000
# 6 0.000000 0.000000 0.000000 0.000000 0.000000 0.033634
#
#
# Mechanical properties :
#
#
# Convention : Reuss Voigt Hill
#
# Bulk Modulus (GPa) = 25.38689 28.89177 27.13933
# Shear Modulus (GPa) = 26.34361 13.10415 19.72388
#
# Velocity S-wave (km/s) = 3.64324 2.56954 3.15244
# Velocity P-wave (km/s) = 5.52167 4.83327 5.18890
#
# Compressibility (1/GPa) = 0.03939041
#
# Stress axis : x y z
#
# Youngs Moduli (GPa) = 42.03042 40.92680 39.23548
#
# Poissons Ratio (x) = 0.51850 0.29719
# Poissons Ratio (y) = 0.53248 -0.12093
# Poissons Ratio (z) = 0.31836 -0.12614
#
# Static dielectric constant tensor:
#      x y z
#    x 1.790750 0.000000 0.000000 
#    y 0.000000 1.794790 0.000000 
#    z 0.000000 0.000000 1.699030 
# 
# From -- ./inp_files/49147.got.cif
#   From: 2010.05.17/outbox.ucp.g08.bks.cvg/sg72_25_cif.got.tgz:49147.got - 2010.06.11 16:33:07.
