data_PCOD9529778
_publ_section_title
;
Structure prediction by ZEFSAII (Michael W. Deem and Ramdas Pophale) SiO2 
 PCOD9529778
Probable space group: I B C A 
;
_chemical_formula_sum "Si O2"
_cell_formula_units_Z 88
_cell_length_a 9.094875
_cell_length_b 17.255343
_cell_length_c 29.526876
_cell_angle_alpha 90.000000
_cell_angle_beta 90.000000
_cell_angle_gamma 90.000000
_cell_volume 4633.805826
_symmetry_space_group_name_H-M "I B C A "
_symmetry_group_IT_number 73
_symmetry_cell_setting 'orthorhombic'
loop_
_space_group_symop_operation_xyz
x,y,z
-x,1/2-y,z
x,-y,1/2-z
1/2-x,y,-z
-x,-y,-z
x,1/2+y,-z
-x,y,1/2+z
1/2+x,-y,z
1/2+x,1/2+y,1/2+z
1/2-x,-y,1/2+z
1/2+x,1/2-y,-z
-x,1/2+y,1/2-z
1/2-x,1/2-y,1/2-z
1/2+x,y,1/2-z
1/2-x,1/2+y,z
x,1/2-y,1/2+z
loop_
_atom_site_type_symbol
_atom_site_label
_atom_site_fract_x
_atom_site_fract_y
_atom_site_fract_z
Si Si1 0.565757 0.667431 0.625792
Si Si2 0.227550 0.568946 0.811230
Si Si3 0.423695 0.555469 0.448198
Si Si4 0.658976 0.534971 0.110842
Si Si5 0.475838 0.000000 0.250000
Si Si6 0.896980 0.878298 0.977285
O O1 0.500000 0.750000 0.637005
O O2 0.700073 0.646128 0.659185
O O3 0.449163 0.597892 0.631724
O O4 0.590551 0.661040 0.571545
O O5 0.246926 0.504980 0.850377
O O6 0.369964 0.555989 0.779594
O O7 0.085629 0.549906 0.781037
O O8 0.561345 0.530173 0.415737
O O9 0.275565 0.576855 0.421939
O O10 0.382734 0.471073 0.468574
O O11 0.472827 0.618016 0.485541
O O12 0.750000 0.848240 0.000000
#
# Coordination Sequence:
#
# PCOD9529778 Si02
#       6
#    16  16  16  16   8  16
#     4  11  24  38  56  87 128 162 189 243 310 353
#     4  11  19  39  63  91 117 145 196 241 300 353
#     4  10  18  28  56  89 106 150 215 244 280 326
#     4  11  18  36  61  85 114 159 197 250 284 350
#     4  10  22  34  68  98 108 136 200 262 278 350
#     4  10  18  32  53  79 118 156 204 250 281 334
#
# _framework density 18.990870000000001
#
# number of rings (size 3 to 8) (size 9 to 14) (size 15 to 20)
#    0.000    1.455    7.273    0.000    0.000    0.000 
#    3.273    0.909    0.000    4.364    0.000    0.000 
#    0.000    0.000    0.000    0.000    0.000    0.000 
#
# Total GULP energy -245092.534974 kJ/mol
# GULP energy per Si atom -5570.284886 kJ/mol
# Density = 1.894765 g / cm^3
# Si number density = 18.990870 Si / 1000 Ang^3
#
#
#
# Elastic Constant Matrix: (Units=GPa)
#
#
# Indices 1 2 3 4 5 6 
#
# 1 79.9166 -3.7776 32.6771 0.0000 0.0000 0.0000
# 2 -3.7776 31.7566 9.5558 0.0000 0.0000 0.0000
# 3 32.6771 9.5558 86.2614 0.0000 0.0000 0.0000
# 4 0.0000 0.0000 0.0000 -0.2111 0.0000 0.0000
# 5 0.0000 0.0000 0.0000 0.0000 53.7288 0.0000
# 6 0.0000 0.0000 0.0000 0.0000 0.0000 1.2685
#
#
#
# Elastic Compliance Matrix: (Units=1/GPa)
#
#
# Indices 1 2 3 4 5 6 
#
# 1 0.015208 0.003665 -0.006167 0.000000 0.000000 0.000000
# 2 0.003665 0.033458 -0.005095 -0.000001 0.000000 0.000000
# 3 -0.006167 -0.005095 0.014493 0.000000 0.000000 0.000000
# 4 0.000000 -0.000001 0.000000 -4.736800 0.000000 0.000000
# 5 0.000000 0.000000 0.000000 0.000000 0.018612 0.000000
# 6 0.000000 0.000000 0.000000 0.000000 0.000000 0.788347
#
#
# Mechanical properties :
#
#
# Convention : Reuss Voigt Hill
#
# Bulk Modulus (GPa) = 20.84822 30.53835 25.69328
# Shear Modulus (GPa) = -1.30361 21.58918 10.14279
#
# Velocity S-wave (km/s) = -0.82942 3.37533 2.31354
# Velocity P-wave (km/s) = 3.17563 5.59517 4.54921
#
# Compressibility (1/GPa) = 0.04796572
#
# Stress axis : x y z
#
# Youngs Moduli (GPa) = 65.75539 29.88781 68.99804
#
# Poissons Ratio (x) = -0.10953 0.42551
# Poissons Ratio (y) = -0.24097 0.35152
# Poissons Ratio (z) = 0.40551 0.15227
#
# Static dielectric constant tensor:
#      x y z
#    x 1.728460 0.000000 0.000000 
#    y 0.000000 1.613070 0.000000 
#    z 0.000000 0.000000 1.747540 
# 
# From -- ./inp_files/5720.got.cif
#   From: 2010.05.17/outbox.cif.g08.bks.cpg/sg73_3_cif.got.tgz:5720.got - 2010.06.03 17:35:07.
