data_PCOD9529383
_publ_section_title
;
Structure prediction by ZEFSAII (Michael W. Deem and Ramdas Pophale) SiO2 
 PCOD9529383
Probable space group: I B A M
;
_chemical_formula_sum "Si O2"
_cell_formula_units_Z 56
_cell_length_a 25.950323
_cell_length_b 5.321875
_cell_length_c 16.096019
_cell_angle_alpha 90.000000
_cell_angle_beta 90.000000
_cell_angle_gamma 90.000000
_cell_volume 2222.930647
_symmetry_space_group_name_H-M "I B A M"
_symmetry_group_IT_number 72
_symmetry_cell_setting 'orthorhombic'
loop_
_space_group_symop_operation_xyz
x,y,z
-x,-y,z
x,-y,1/2-z
-x,y,1/2-z
-x,-y,-z
x,y,-z
-x,y,1/2+z
x,-y,1/2+z
1/2+x,1/2+y,1/2+z
1/2-x,1/2-y,1/2+z
1/2+x,1/2-y,-z
1/2-x,1/2+y,-z
1/2-x,1/2-y,1/2-z
1/2+x,1/2+y,1/2-z
1/2-x,1/2+y,z
1/2+x,1/2-y,z
loop_
_atom_site_type_symbol
_atom_site_label
_atom_site_fract_x
_atom_site_fract_y
_atom_site_fract_z
Si Si1 0.800138 0.805595 0.689519
Si Si2 0.942798 0.983161 0.403230
Si Si3 0.106264 0.481074 0.841483
Si Si4 0.276007 0.623549 0.500000
O O1 0.750000 0.750000 0.750000
O O2 0.834037 0.560685 0.668325
O O3 0.794168 0.924120 0.596496
O O4 0.829904 0.000000 0.750000
O O5 0.948058 0.033255 0.500000
O O6 0.906248 0.206833 0.373248
O O7 0.919236 0.707348 0.392443
O O8 0.000000 0.000000 0.364729
O O9 0.082926 0.500000 0.750000
O O10 0.229658 0.423524 0.500000
#
# Coordination Sequence:
#
# PCOD9529383 Si02
#       4
#    16  16  16   8
#     4  12  26  50  77 110 170 214 278 342 402 481
#     4  11  26  50  78 112 154 196 252 336 409 480
#     4  12  27  46  75 113 150 205 259 322 398 488
#     4  12  28  46  76 112 141 228 276 333 410 476
#
# _framework density 25.191969
#
# number of rings (size 3 to 8) (size 9 to 14) (size 15 to 20)
#    0.000    0.286    2.857    5.143    4.000    8.000 
#    0.000    0.000    0.000    0.000    0.000    0.000 
#    0.000    0.000    0.000    0.000    0.000    0.000 
#
# Total GULP energy -156119.711861 kJ/mol
# GULP energy per Si atom -5575.703995 kJ/mol
# Density = 2.513463 g / cm^3
# Si number density = 25.191969 Si / 1000 Ang^3
#
#
#
# Elastic Constant Matrix: (Units=GPa)
#
#
# Indices 1 2 3 4 5 6 
#
# 1 134.8498 50.0719 37.4314 0.0000 0.0000 0.0000
# 2 50.0719 103.9705 27.7275 0.0000 0.0000 0.0000
# 3 37.4314 27.7275 197.3922 0.0000 0.0000 0.0000
# 4 0.0000 0.0000 0.0000 55.5153 0.0000 0.0000
# 5 0.0000 0.0000 0.0000 0.0000 34.6689 0.0000
# 6 0.0000 0.0000 0.0000 0.0000 0.0000 1052.2688
#
#
#
# Elastic Compliance Matrix: (Units=1/GPa)
#
#
# Indices 1 2 3 4 5 6 
#
# 1 0.009286 -0.004158 -0.001177 0.000000 0.000000 0.000000
# 2 -0.004158 0.011855 -0.000877 0.000000 0.000000 0.000000
# 3 -0.001177 -0.000877 0.005412 0.000000 0.000000 0.000000
# 4 0.000000 0.000000 0.000000 0.018013 0.000000 0.000000
# 5 0.000000 0.000000 0.000000 0.000000 0.028844 0.000000
# 6 0.000000 0.000000 0.000000 0.000000 0.000000 0.000950
#
#
# Mechanical properties :
#
#
# Convention : Reuss Voigt Hill
#
# Bulk Modulus (GPa) = 70.77394 74.07490 72.42442
# Shear Modulus (GPa) = 54.64794 249.88939 152.26867
#
# Velocity S-wave (km/s) = 4.66258 9.97043 7.78297
# Velocity P-wave (km/s) = 7.55917 12.72847 10.46793
#
# Compressibility (1/GPa) = 0.01412949
#
# Stress axis : x y z
#
# Youngs Moduli (GPa) = 107.68397 84.35546 184.76223
#
# Poissons Ratio (x) = 0.35079 0.21744
# Poissons Ratio (y) = 0.44780 0.16197
# Poissons Ratio (z) = 0.12673 0.07395
#
# Static dielectric constant tensor:
#      x y z
#    x 2.109640 0.000000 0.000000 
#    y 0.000000 2.149350 0.000000 
#    z 0.000000 0.000000 2.063830 
# 
# From -- ./inp_files/33657.got.cif
#   From: 2010.05.17/outbox.cif.g08.bks.cpg/sg72_17_cif.got.tgz:33657.got - 2010.06.03 17:03:01.
