data_PCOD9529610
_publ_section_title
;
Structure prediction by ZEFSAII (Michael W. Deem and Ramdas Pophale) SiO2 
 PCOD9529610
Probable space group: I B C A 
;
_chemical_formula_sum "Si O2"
_cell_formula_units_Z 80
_cell_length_a 24.819081
_cell_length_b 29.955325
_cell_length_c 5.418426
_cell_angle_alpha 90.000000
_cell_angle_beta 90.000000
_cell_angle_gamma 90.000000
_cell_volume 4028.402704
_symmetry_space_group_name_H-M "I B C A "
_symmetry_group_IT_number 73
_symmetry_cell_setting 'orthorhombic'
loop_
_space_group_symop_operation_xyz
x,y,z
-x,1/2-y,z
x,-y,1/2-z
1/2-x,y,-z
-x,-y,-z
x,1/2+y,-z
-x,y,1/2+z
1/2+x,-y,z
1/2+x,1/2+y,1/2+z
1/2-x,-y,1/2+z
1/2+x,1/2-y,-z
-x,1/2+y,1/2-z
1/2-x,1/2-y,1/2-z
1/2+x,y,1/2-z
1/2-x,1/2+y,z
x,1/2-y,1/2+z
loop_
_atom_site_type_symbol
_atom_site_label
_atom_site_fract_x
_atom_site_fract_y
_atom_site_fract_z
Si Si1 0.934836 0.551306 0.682815
Si Si2 0.470037 0.692179 0.330360
Si Si3 0.943790 0.087412 0.822995
Si Si4 0.354871 0.296626 0.962041
Si Si5 0.812802 0.304208 0.043023
O O1 0.925544 0.500000 0.750000
O O2 0.914447 0.569234 0.420059
O O3 0.999490 0.560358 0.664278
O O4 0.914907 0.579080 0.918095
O O5 0.512931 0.702729 0.548750
O O6 0.460044 0.638980 0.314699
O O7 0.414900 0.712001 0.439321
O O8 0.324707 0.249099 0.932385
O O9 0.328866 0.323146 0.190419
O O10 0.348179 0.318676 0.693638
O O11 0.750000 0.311129 0.000000
#
# Coordination Sequence:
#
# PCOD9529610 Si02
#       5
#    16  16  16  16  16
#     4  10  16  25  41  60  76 106 172 214 221 245
#     4  12  21  34  44  62  99 139 164 186 215 281
#     4  10  16  27  38  55  82 120 155 194 228 250
#     4  10  20  32  53  75  88 120 161 187 238 301
#     4  10  19  38  57  74  92 106 145 214 263 292
#
# _framework density 19.858986999999999
#
# number of rings (size 3 to 8) (size 9 to 14) (size 15 to 20)
#    0.000    1.600    4.000    7.200    0.000    0.000 
#    0.000   12.000    0.000    0.000    0.000    0.000 
#    0.000    0.000    0.000    0.000    0.000  144.000 
#
# Total GULP energy -222978.374243 kJ/mol
# GULP energy per Si atom -5574.459356 kJ/mol
# Density = 1.981379 g / cm^3
# Si number density = 19.858987 Si / 1000 Ang^3
#
#
#
# Elastic Constant Matrix: (Units=GPa)
#
#
# Indices 1 2 3 4 5 6 
#
# 1 38.5133 -4.3313 -11.2394 0.0000 0.0000 0.0000
# 2 -4.3313 47.9291 -13.3498 0.0000 0.0000 0.0000
# 3 -11.2394 -13.3498 136.3738 0.0000 0.0000 0.0000
# 4 0.0000 0.0000 0.0000 -239.0910 0.0000 0.0000
# 5 0.0000 0.0000 0.0000 0.0000 23.4115 0.0000
# 6 0.0000 0.0000 0.0000 0.0000 0.0000 -0.5285
#
#
#
# Elastic Compliance Matrix: (Units=1/GPa)
#
#
# Indices 1 2 3 4 5 6 
#
# 1 0.027061 0.003153 0.002539 0.000000 0.000000 0.000000
# 2 0.003153 0.021816 0.002395 0.000000 0.000000 0.000000
# 3 0.002539 0.002395 0.007777 0.000000 0.000000 0.000000
# 4 0.000000 0.000000 0.000000 -0.004183 0.000000 0.000000
# 5 0.000000 0.000000 0.000000 0.000000 0.042714 0.000000
# 6 0.000000 0.000000 0.000000 0.000000 0.000000 -1.892234
#
#
# Mechanical properties :
#
#
# Convention : Reuss Voigt Hill
#
# Bulk Modulus (GPa) = 13.73117 18.33058 16.03088
# Shear Modulus (GPa) = -2.79494 -26.45914 -14.62704
#
# Velocity S-wave (km/s) = -1.18762 -3.65410 -2.71688
# Velocity P-wave (km/s) = 2.24694 2.92452 1.32365
#
# Compressibility (1/GPa) = 0.07282699
#
# Stress axis : x y z
#
# Youngs Moduli (GPa) = 36.95420 45.83742 128.59222
#
# Poissons Ratio (x) = -0.14451 -0.32647
# Poissons Ratio (y) = -0.11650 -0.30804
# Poissons Ratio (z) = -0.09382 -0.10980
#
# Static dielectric constant tensor:
#      x y z
#    x 1.712760 0.000000 0.000000 
#    y 0.000000 1.696290 0.000000 
#    z 0.000000 0.000000 1.866480 
# 
# From -- ./inp_files/2218.got.cif
#   From: 2010.05.17/outbox.cif.g08.bks.cpg/sg73_2_cif.got.tgz:2218.got - 2010.06.03 17:35:07.
