data_PCOD9529494
_publ_section_title
;
Structure prediction by ZEFSAII (Michael W. Deem and Ramdas Pophale) SiO2 
 PCOD9529494
Probable space group: I B A M
;
_chemical_formula_sum "Si O2"
_cell_formula_units_Z 32
_cell_length_a 30.000000
_cell_length_b 12.000000
_cell_length_c 9.000000
_cell_angle_alpha 90.000000
_cell_angle_beta 90.000000
_cell_angle_gamma 90.000000
_cell_volume 3240.000000
_symmetry_space_group_name_H-M "I B A M"
_symmetry_group_IT_number 72
_symmetry_cell_setting 'orthorhombic'
loop_
_space_group_symop_operation_xyz
x,y,z
-x,-y,z
x,-y,1/2-z
-x,y,1/2-z
-x,-y,-z
x,y,-z
-x,y,1/2+z
x,-y,1/2+z
1/2+x,1/2+y,1/2+z
1/2-x,1/2-y,1/2+z
1/2+x,1/2-y,-z
1/2-x,1/2+y,-z
1/2-x,1/2-y,1/2-z
1/2+x,1/2+y,1/2-z
1/2-x,1/2+y,z
1/2+x,1/2-y,z
loop_
_atom_site_type_symbol
_atom_site_label
_atom_site_fract_x
_atom_site_fract_y
_atom_site_fract_z
Si Si1 0.708419 0.828598 0.283963
Si Si2 0.228357 0.059480 0.500000
Si Si3 0.000000 0.829969 0.250000
Si Si4 0.836559 0.842342 0.000000
Si Si5 0.062572 0.939158 0.500000
Si Si6 0.164879 0.284059 0.500000
Si Si7 0.936670 0.791323 0.500000
O O1 0.750000 0.750000 0.250000
O O2 0.735642 0.923458 0.369185
O O3 0.675100 0.742413 0.367499
O O4 0.680967 0.855509 0.139222
O O5 0.193250 0.165479 0.500000
O O6 0.198457 0.947305 0.500000
O O7 0.033116 0.899082 0.359094
O O8 0.966491 0.763040 0.356529
O O9 0.887329 0.887525 0.000000
O O10 0.066813 0.072790 0.500000
O O11 0.112826 0.256539 0.500000
#
# Coordination Sequence:
#
# PCOD9529494 Si02
#       7
#    16   8   8   8   8   8   8
#     4   9  20  34  49  69 102 124 169 232 266 286
#     4   9  19  36  48  70  95 127 177 222 260 298
#     4  10  21  30  42  62 104 130 160 233 247 272
#     4  11  20  34  55  74  93 144 192 209 243 324
#     4  11  19  31  46  68  94 133 182 209 248 290
#     4  10  18  31  48  68  92 129 171 215 255 304
#     4  11  18  30  43  65  92 131 173 208 250 291
#
# _framework density 9.8765429999999999
#
# number of rings (size 3 to 8) (size 9 to 14) (size 15 to 20)
#    0.000    2.000    1.250    5.250    0.000    4.000 
#    0.000    1.250    0.000    0.000    0.000    0.000 
#    0.000    0.000    0.000    0.000    0.000 2905.000 
#
# Total GULP energy -178172.908917 kJ/mol
# GULP energy per Si atom -5567.903404 kJ/mol
# Density = 0.985406 g / cm^3
# Si number density = 9.876543 Si / 1000 Ang^3
#
#
#
# Elastic Constant Matrix: (Units=GPa)
#
#
# Indices 1 2 3 4 5 6 
#
# 1 206.1305 36.5417 82.9557 0.0000 0.0000 0.0000
# 2 36.5417 46.3143 28.2219 0.0000 0.0000 0.0000
# 3 82.9557 28.2219 142.1866 -0.0001 0.0000 0.0000
# 4 0.0000 0.0000 -0.0001 253.0809 0.0000 0.0000
# 5 0.0000 0.0000 0.0000 0.0000 34.8689 0.0000
# 6 0.0000 0.0000 0.0000 0.0000 0.0000 40.7157
#
#
#
# Elastic Compliance Matrix: (Units=1/GPa)
#
#
# Indices 1 2 3 4 5 6 
#
# 1 0.006764 -0.003336 -0.003284 0.000000 0.000000 0.000000
# 2 -0.003336 0.026207 -0.003256 0.000000 0.000000 0.000000
# 3 -0.003284 -0.003256 0.009595 0.000000 0.000000 0.000000
# 4 0.000000 0.000000 0.000000 0.003951 0.000000 0.000000
# 5 0.000000 0.000000 0.000000 0.000000 0.028679 0.000000
# 6 0.000000 0.000000 0.000000 0.000000 0.000000 0.024561
#
#
# Mechanical properties :
#
#
# Convention : Reuss Voigt Hill
#
# Bulk Modulus (GPa) = 43.82963 76.67445 60.25204
# Shear Modulus (GPa) = 39.33455 82.19390 60.76423
#
# Velocity S-wave (km/s) = 4.46725 6.45763 5.55236
# Velocity P-wave (km/s) = 6.98895 9.72122 8.46603
#
# Compressibility (1/GPa) = 0.02281561
#
# Stress axis : x y z
#
# Youngs Moduli (GPa) = 147.83174 38.15732 104.21583
#
# Poissons Ratio (x) = 0.12728 0.34230
# Poissons Ratio (y) = 0.49312 0.33929
# Poissons Ratio (z) = 0.48555 0.12423
#
# Static dielectric constant tensor:
#      x y z
#    x 1.628010 0.000000 0.000000 
#    y 0.000000 1.663290 0.000000 
#    z 0.000000 0.000000 1.908350 
# 
# From -- ./inp_files/2703.got.cif
#   From: 2010.05.17/outbox.ucp.g08.bks.cvg/sg72_2_cif.got.tgz:2703.got - 2010.06.11 16:33:07.
