data_PCOD9529646
_publ_section_title
;
Structure prediction by ZEFSAII (Michael W. Deem and Ramdas Pophale) SiO2 
 PCOD9529646
Probable space group: I B C A 
;
_chemical_formula_sum "Si O2"
_cell_formula_units_Z 48
_cell_length_a 5.325815
_cell_length_b 17.070800
_cell_length_c 22.744592
_cell_angle_alpha 90.000000
_cell_angle_beta 90.000000
_cell_angle_gamma 90.000000
_cell_volume 2067.845568
_symmetry_space_group_name_H-M "I B C A "
_symmetry_group_IT_number 73
_symmetry_cell_setting 'orthorhombic'
loop_
_space_group_symop_operation_xyz
x,y,z
-x,1/2-y,z
x,-y,1/2-z
1/2-x,y,-z
-x,-y,-z
x,1/2+y,-z
-x,y,1/2+z
1/2+x,-y,z
1/2+x,1/2+y,1/2+z
1/2-x,-y,1/2+z
1/2+x,1/2-y,-z
-x,1/2+y,1/2-z
1/2-x,1/2-y,1/2-z
1/2+x,y,1/2-z
1/2-x,1/2+y,z
x,1/2-y,1/2+z
loop_
_atom_site_type_symbol
_atom_site_label
_atom_site_fract_x
_atom_site_fract_y
_atom_site_fract_z
Si Si1 0.495424 0.411460 0.974315
Si Si2 0.254333 0.716272 0.684107
Si Si3 0.072973 0.047357 0.662780
O O1 0.454266 0.426708 0.905517
O O2 0.750000 0.375139 0.000000
O O3 0.500000 0.500000 0.000000
O O4 0.250000 0.370478 0.000000
O O5 0.500000 0.750000 0.652432
O O6 0.250000 0.750000 0.750000
O O7 0.306956 0.624646 0.691173
O O8 0.000000 0.750000 0.656101
O O9 0.288908 0.982069 0.675493
#
# Coordination Sequence:
#
# PCOD9529646 Si02
#       3
#    16  16  16
#     4  10  16  30  51  90 132 147 178 259 321 348
#     4  10  23  45  62  82 128 177 203 261 340 387
#     4  12  21  35  65 100 116 158 222 266 305 387
#
# _framework density 23.212565000000001
#
# number of rings (size 3 to 8) (size 9 to 14) (size 15 to 20)
#    0.000    1.333    6.667    2.000    0.000    0.000 
#    0.000   20.000    0.000    4.000    0.000    0.000 
#    0.000    0.000    0.000    0.000    0.000    0.000 
#
# Total GULP energy -133732.439310 kJ/mol
# GULP energy per Si atom -5572.184971 kJ/mol
# Density = 2.315973 g / cm^3
# Si number density = 23.212565 Si / 1000 Ang^3
#
#
#
# Elastic Constant Matrix: (Units=GPa)
#
#
# Indices 1 2 3 4 5 6 
#
# 1 260.6227 20.9332 1.3046 0.0000 0.0000 0.0000
# 2 20.9332 84.4368 24.6833 0.0000 0.0000 0.0000
# 3 1.3046 24.6833 74.3523 0.0000 0.0000 0.0000
# 4 0.0000 0.0000 0.0000 -10.4381 0.0000 0.0000
# 5 0.0000 0.0000 0.0000 0.0000 -3.5370 0.0000
# 6 0.0000 0.0000 0.0000 0.0000 0.0000 28.6003
#
#
#
# Elastic Compliance Matrix: (Units=1/GPa)
#
#
# Indices 1 2 3 4 5 6 
#
# 1 0.003920 -0.001054 0.000281 0.000000 0.000000 0.000000
# 2 -0.001054 0.013399 -0.004430 0.000000 0.000000 0.000000
# 3 0.000281 -0.004430 0.014915 0.000000 0.000000 0.000000
# 4 0.000000 0.000000 0.000000 -0.095803 0.000000 0.000000
# 5 0.000000 0.000000 0.000000 0.000000 -0.282725 0.000000
# 6 0.000000 0.000000 0.000000 0.000000 0.000000 0.034965
#
#
# Mechanical properties :
#
#
# Convention : Reuss Voigt Hill
#
# Bulk Modulus (GPa) = 45.80993 57.02822 51.41908
# Shear Modulus (GPa) = -17.02727 27.75774 5.36524
#
# Velocity S-wave (km/s) = -2.71133 3.46180 1.52196
# Velocity P-wave (km/s) = 3.15850 6.37180 5.02872
#
# Compressibility (1/GPa) = 0.02182933
#
# Stress axis : x y z
#
# Youngs Moduli (GPa) = 255.08775 74.62982 67.04585
#
# Poissons Ratio (x) = 0.07866 -0.01885
# Poissons Ratio (y) = 0.26888 0.29700
# Poissons Ratio (z) = -0.07172 0.33060
#
# Static dielectric constant tensor:
#      x y z
#    x 1.746890 0.000000 0.000000 
#    y 0.000000 1.831750 0.000000 
#    z 0.000000 0.000000 3.163140 
# 
# From -- ./inp_files/559.got.cif
#   From: 2010.05.17/outbox.cif.g08.bks.cpg/sg73_1_cif.got.tgz:559.got - 2010.06.03 17:35:07.
