data_PCOD9529121
_publ_section_title
;
Structure prediction by ZEFSAII (Michael W. Deem and Ramdas Pophale) SiO2 
 PCOD9529121
Probable space group: I B A M
;
_chemical_formula_sum "Si O2"
_cell_formula_units_Z 64
_cell_length_a 24.332807
_cell_length_b 8.528488
_cell_length_c 14.235878
_cell_angle_alpha 90.000000
_cell_angle_beta 90.000000
_cell_angle_gamma 90.000000
_cell_volume 2954.258622
_symmetry_space_group_name_H-M "I B A M"
_symmetry_group_IT_number 72
_symmetry_cell_setting 'orthorhombic'
loop_
_space_group_symop_operation_xyz
x,y,z
-x,-y,z
x,-y,1/2-z
-x,y,1/2-z
-x,-y,-z
x,y,-z
-x,y,1/2+z
x,-y,1/2+z
1/2+x,1/2+y,1/2+z
1/2-x,1/2-y,1/2+z
1/2+x,1/2-y,-z
1/2-x,1/2+y,-z
1/2-x,1/2-y,1/2-z
1/2+x,1/2+y,1/2-z
1/2-x,1/2+y,z
1/2+x,1/2-y,z
loop_
_atom_site_type_symbol
_atom_site_label
_atom_site_fract_x
_atom_site_fract_y
_atom_site_fract_z
Si Si1 0.353427 0.922240 0.649937
Si Si2 0.333968 0.422837 0.500000
Si Si3 0.937248 0.558713 0.000000
Si Si4 0.098123 0.091043 0.654670
Si Si5 0.986711 0.823133 0.500000
Si Si6 0.220982 0.425962 0.000000
O O1 0.360175 0.736951 0.666603
O O2 0.352643 0.000000 0.750000
O O3 0.403409 0.997263 0.588595
O O4 0.301306 0.976781 0.589503
O O5 0.371342 0.462972 0.409958
O O6 0.286043 0.555267 0.500000
O O7 0.306418 0.248735 0.500000
O O8 0.000000 0.500000 0.000000
O O9 0.954605 0.738019 0.000000
O O10 0.050348 0.182035 0.594802
O O11 0.081171 0.000000 0.750000
O O12 0.000000 0.000000 0.500000
#
# Coordination Sequence:
#
# PCOD9529121 Si02
#       6
#    16   8   8  16   8   8
#     4  11  24  41  67  95 131 170 222 267 327 387
#     4  11  23  43  70  95 132 169 213 268 330 392
#     4  11  21  45  64  90 127 174 218 269 319 382
#     4  11  24  43  63  97 133 170 216 275 324 386
#     4  11  25  41  64  90 131 170 220 267 327 380
#     4  11  23  43  70  97 128 172 213 265 331 392
#
# _framework density 21.663641999999999
#
# number of rings (size 3 to 8) (size 9 to 14) (size 15 to 20)
#    0.000    1.000    2.500    5.250   10.500    2.000 
#    0.000    5.000    0.000    0.000    0.000    0.000 
#    0.000    0.000    0.000    0.000    0.000    0.000 
#
# Total GULP energy -178399.013640 kJ/mol
# GULP energy per Si atom -5574.969176 kJ/mol
# Density = 2.161433 g / cm^3
# Si number density = 21.663642 Si / 1000 Ang^3
#
#
#
# Elastic Constant Matrix: (Units=GPa)
#
#
# Indices 1 2 3 4 5 6 
#
# 1 65.5042 -6.1512 30.9928 0.0000 0.0000 0.0000
# 2 -6.1512 134.7572 27.2416 0.0000 0.0000 0.0000
# 3 30.9928 27.2416 175.4374 0.0000 0.0000 0.0000
# 4 0.0000 0.0000 0.0000 21.7657 0.0000 0.0000
# 5 0.0000 0.0000 0.0000 0.0000 -6.7990 0.0000
# 6 0.0000 0.0000 0.0000 0.0000 0.0000 45.8897
#
#
#
# Elastic Compliance Matrix: (Units=1/GPa)
#
#
# Indices 1 2 3 4 5 6 
#
# 1 0.016918 0.001421 -0.003209 0.000000 0.000000 0.000000
# 2 0.001421 0.007781 -0.001459 0.000000 0.000000 0.000000
# 3 -0.003209 -0.001459 0.006494 0.000000 0.000000 0.000000
# 4 0.000000 0.000000 0.000000 0.045944 0.000000 0.000000
# 5 0.000000 0.000000 0.000000 0.000000 -0.147081 0.000000
# 6 0.000000 0.000000 0.000000 0.000000 0.000000 0.021791
#
#
# Mechanical properties :
#
#
# Convention : Reuss Voigt Hill
#
# Bulk Modulus (GPa) = 40.49042 53.31837 46.90439
# Shear Modulus (GPa) = -149.58653 33.74564 -57.92044
#
# Velocity S-wave (km/s) = -8.31862 3.95106 -5.17632
# Velocity P-wave (km/s) = 8.57525 6.74388 3.74533
#
# Compressibility (1/GPa) = 0.02469720
#
# Stress axis : x y z
#
# Youngs Moduli (GPa) = 59.10810 128.52475 153.99780
#
# Poissons Ratio (x) = -0.18264 0.49424
# Poissons Ratio (y) = -0.08400 0.22471
# Poissons Ratio (z) = 0.18970 0.18754
#
# Static dielectric constant tensor:
#      x y z
#    x 1.768490 0.000000 0.000000 
#    y 0.000000 1.676470 0.000000 
#    z 0.000000 0.000000 1.596030 
# 
# From -- ./inp_files/18741.got.cif
#   From: 2010.05.17/outbox.cif.g08.bks.cpg/sg72_10_cif.got.tgz:18741.got - 2010.06.03 17:03:01.
