data_PCOD9529244
_publ_section_title
;
Structure prediction by ZEFSAII (Michael W. Deem and Ramdas Pophale) SiO2 
 PCOD9529244
Probable space group: I B A M
;
_chemical_formula_sum "Si O2"
_cell_formula_units_Z 64
_cell_length_a 11.257171
_cell_length_b 13.392707
_cell_length_c 18.429205
_cell_angle_alpha 90.000000
_cell_angle_beta 90.000000
_cell_angle_gamma 90.000000
_cell_volume 2778.460531
_symmetry_space_group_name_H-M "I B A M"
_symmetry_group_IT_number 72
_symmetry_cell_setting 'orthorhombic'
loop_
_space_group_symop_operation_xyz
x,y,z
-x,-y,z
x,-y,1/2-z
-x,y,1/2-z
-x,-y,-z
x,y,-z
-x,y,1/2+z
x,-y,1/2+z
1/2+x,1/2+y,1/2+z
1/2-x,1/2-y,1/2+z
1/2+x,1/2-y,-z
1/2-x,1/2+y,-z
1/2-x,1/2-y,1/2-z
1/2+x,1/2+y,1/2-z
1/2-x,1/2+y,z
1/2+x,1/2-y,z
loop_
_atom_site_type_symbol
_atom_site_label
_atom_site_fract_x
_atom_site_fract_y
_atom_site_fract_z
Si Si1 0.760248 0.436422 0.822359
Si Si2 0.891250 0.921570 0.418961
Si Si3 0.476064 0.117571 0.082916
Si Si4 0.950212 0.222905 0.326305
O O1 0.790277 0.500000 0.750000
O O2 0.711040 0.517495 0.879380
O O3 0.865199 0.377998 0.862231
O O4 0.654834 0.355801 0.810176
O O5 0.857708 0.889207 0.500000
O O6 0.946039 0.835768 0.369268
O O7 0.000000 0.000000 0.425068
O O8 0.577650 0.185021 0.120422
O O9 0.500000 0.000000 0.080686
O O10 0.454196 0.150444 0.000000
O O11 0.000000 0.259229 0.250000
#
# Coordination Sequence:
#
# PCOD9529244 Si02
#       4
#    16  16  16  16
#     4  11  23  42  72 104 137 181 231 291 351 420
#     4   9  18  35  63  97 133 172 221 284 345 405
#     4  11  28  48  66  97 144 189 233 287 353 424
#     4  11  23  41  71 103 136 177 234 290 342 412
#
# _framework density 23.034338000000002
#
# number of rings (size 3 to 8) (size 9 to 14) (size 15 to 20)
#    0.000    1.500    2.500    1.500    3.500    6.000 
#    0.000    2.500    0.000    0.000    0.000    0.000 
#    0.000    0.000    0.000    0.000    0.000    0.000 
#
# Total GULP energy -178862.965630 kJ/mol
# GULP energy per Si atom -5589.467676 kJ/mol
# Density = 2.298191 g / cm^3
# Si number density = 23.034338 Si / 1000 Ang^3
#
#
#
# Elastic Constant Matrix: (Units=GPa)
#
#
# Indices 1 2 3 4 5 6 
#
# 1 39.1954 10.8212 29.9135 0.0000 0.0000 0.0000
# 2 10.8212 106.7098 48.8243 0.0000 0.0000 0.0000
# 3 29.9135 48.8243 198.4155 0.0000 0.0000 0.0000
# 4 0.0000 0.0000 0.0000 42.4979 0.0000 0.0000
# 5 0.0000 0.0000 0.0000 0.0000 16.1858 0.0000
# 6 0.0000 0.0000 0.0000 0.0000 0.0000 30.7088
#
#
#
# Elastic Compliance Matrix: (Units=1/GPa)
#
#
# Indices 1 2 3 4 5 6 
#
# 1 0.028936 -0.001057 -0.004102 0.000000 0.000000 0.000000
# 2 -0.001057 0.010599 -0.002449 0.000000 0.000000 0.000000
# 3 -0.004102 -0.002449 0.006261 0.000000 0.000000 0.000000
# 4 0.000000 0.000000 0.000000 0.023531 0.000000 0.000000
# 5 0.000000 0.000000 0.000000 0.000000 0.061783 0.000000
# 6 0.000000 0.000000 0.000000 0.000000 0.000000 0.032564
#
#
# Mechanical properties :
#
#
# Convention : Reuss Voigt Hill
#
# Bulk Modulus (GPa) = 32.70204 58.15987 45.43095
# Shear Modulus (GPa) = 26.44348 34.86260 30.65304
#
# Velocity S-wave (km/s) = 3.39189 3.89460 3.65191
# Velocity P-wave (km/s) = 5.43763 6.74744 6.12763
#
# Compressibility (1/GPa) = 0.03057913
#
# Stress axis : x y z
#
# Youngs Moduli (GPa) = 34.55910 94.35028 159.72055
#
# Poissons Ratio (x) = 0.09976 0.65521
# Poissons Ratio (y) = 0.03654 0.39110
# Poissons Ratio (z) = 0.14177 0.23103
#
# Static dielectric constant tensor:
#      x y z
#    x 1.931400 0.000000 0.000000 
#    y 0.000000 1.902950 0.000000 
#    z 0.000000 0.000000 1.821930 
# 
# From -- ./inp_files/28777.got.cif
#   From: 2010.05.17/outbox.cif.g08.bks.cpg/sg72_15_cif.got.tgz:28777.got - 2010.06.03 17:03:01.
