data_PCOD9529651
_publ_section_title
;
Structure prediction by ZEFSAII (Michael W. Deem and Ramdas Pophale) SiO2 
 PCOD9529651
Probable space group: I B C A 
;
_chemical_formula_sum "Si O2"
_cell_formula_units_Z 88
_cell_length_a 5.339427
_cell_length_b 29.510209
_cell_length_c 26.675452
_cell_angle_alpha 90.000000
_cell_angle_beta 90.000000
_cell_angle_gamma 90.000000
_cell_volume 4203.187130
_symmetry_space_group_name_H-M "I B C A "
_symmetry_group_IT_number 73
_symmetry_cell_setting 'orthorhombic'
loop_
_space_group_symop_operation_xyz
x,y,z
-x,1/2-y,z
x,-y,1/2-z
1/2-x,y,-z
-x,-y,-z
x,1/2+y,-z
-x,y,1/2+z
1/2+x,-y,z
1/2+x,1/2+y,1/2+z
1/2-x,-y,1/2+z
1/2+x,1/2-y,-z
-x,1/2+y,1/2-z
1/2-x,1/2-y,1/2-z
1/2+x,y,1/2-z
1/2-x,1/2+y,z
x,1/2-y,1/2+z
loop_
_atom_site_type_symbol
_atom_site_label
_atom_site_fract_x
_atom_site_fract_y
_atom_site_fract_z
Si Si1 0.862681 0.690282 0.776404
Si Si2 0.000000 0.250000 0.030995
Si Si3 0.645270 0.824512 0.611462
Si Si4 0.750627 0.526253 0.439692
Si Si5 0.614081 0.911769 0.765345
Si Si6 0.138304 0.617242 0.119391
O O1 0.633149 0.705927 0.742095
O O2 0.814111 0.699326 0.834512
O O3 0.871522 0.635248 0.767415
O O4 0.900222 0.210064 0.066690
O O5 0.750000 0.264143 0.000000
O O6 0.388622 0.852628 0.617295
O O7 0.890271 0.855388 0.603173
O O8 0.750000 0.530646 0.500000
O O9 0.525699 0.491938 0.425394
O O10 0.686112 0.573756 0.414677
O O11 0.368894 0.936785 0.747028
O O12 0.600649 0.898131 0.823161
#
# Coordination Sequence:
#
# PCOD9529651 Si02
#       6
#    16   8  16  16  16  16
#     4  10  16  32  57  90 126 154 197 252 319 357
#     4  12  30  52  62  84 138 176 202 284 330 340
#     4  12  23  40  67  95 120 173 222 248 315 392
#     4  10  23  43  62  89 129 161 202 274 331 354
#     4  10  16  30  54  91 128 156 191 248 319 352
#     4  12  21  36  71  98 118 167 222 251 303 408
#
# _framework density 20.936492000000001
#
# number of rings (size 3 to 8) (size 9 to 14) (size 15 to 20)
#    0.000    1.091    7.273    2.182    0.000    2.182 
#    0.000    0.909    0.000    3.273    0.000    0.000 
#    0.000    0.000    0.000    0.000    0.000    0.000 
#
# Total GULP energy -245931.859944 kJ/mol
# GULP energy per Si atom -5589.360453 kJ/mol
# Density = 2.088884 g / cm^3
# Si number density = 20.936492 Si / 1000 Ang^3
#
#
#
# Elastic Constant Matrix: (Units=GPa)
#
#
# Indices 1 2 3 4 5 6 
#
# 1 190.1608 42.4648 48.7068 0.0000 0.0000 0.0000
# 2 42.4648 54.8153 44.1375 0.0000 0.0000 0.0000
# 3 48.7068 44.1375 89.9990 0.0000 0.0000 0.0000
# 4 0.0000 0.0000 0.0000 56.2751 0.0000 0.0000
# 5 0.0000 0.0000 0.0000 0.0000 36.6740 0.0000
# 6 0.0000 0.0000 0.0000 0.0000 0.0000 20.2161
#
#
#
# Elastic Compliance Matrix: (Units=1/GPa)
#
#
# Indices 1 2 3 4 5 6 
#
# 1 0.006519 -0.003651 -0.001737 0.000000 0.000000 0.000000
# 2 -0.003651 0.032193 -0.013812 0.000000 0.000000 0.000000
# 3 -0.001737 -0.013812 0.018825 0.000000 0.000000 0.000000
# 4 0.000000 0.000000 0.000000 0.017770 0.000000 0.000000
# 5 0.000000 0.000000 0.000000 0.000000 0.027267 0.000000
# 6 0.000000 0.000000 0.000000 0.000000 0.000000 0.049466
#
#
# Mechanical properties :
#
#
# Convention : Reuss Voigt Hill
#
# Bulk Modulus (GPa) = 52.25791 67.28815 59.77303
# Shear Modulus (GPa) = 25.40374 35.94409 30.67391
#
# Velocity S-wave (km/s) = 3.48713 4.14794 3.83181
# Velocity P-wave (km/s) = 6.42089 7.42627 6.94180
#
# Compressibility (1/GPa) = 0.01913586
#
# Stress axis : x y z
#
# Youngs Moduli (GPa) = 153.39561 31.06219 53.11976
#
# Poissons Ratio (x) = 0.11342 0.09229
# Poissons Ratio (y) = 0.56009 0.73371
# Poissons Ratio (z) = 0.26651 0.42904
#
# Static dielectric constant tensor:
#      x y z
#    x 1.823410 0.000000 0.000000 
#    y 0.000000 1.755650 0.000000 
#    z 0.000000 0.000000 1.725560 
# 
# From -- ./inp_files/3114.got.cif
#   From: 2010.05.17/outbox.cif.g08.bks.cpg/sg73_2_cif.got.tgz:3114.got - 2010.06.03 17:35:07.
