data_PCOD9529316
_publ_section_title
;
Structure prediction by ZEFSAII (Michael W. Deem and Ramdas Pophale) SiO2 
 PCOD9529316
Probable space group: I B A M
;
_chemical_formula_sum "Si O2"
_cell_formula_units_Z 52
_cell_length_a 15.469901
_cell_length_b 11.662315
_cell_length_c 14.365779
_cell_angle_alpha 90.000000
_cell_angle_beta 90.000000
_cell_angle_gamma 90.000000
_cell_volume 2591.799985
_symmetry_space_group_name_H-M "I B A M"
_symmetry_group_IT_number 72
_symmetry_cell_setting 'orthorhombic'
loop_
_space_group_symop_operation_xyz
x,y,z
-x,-y,z
x,-y,1/2-z
-x,y,1/2-z
-x,-y,-z
x,y,-z
-x,y,1/2+z
x,-y,1/2+z
1/2+x,1/2+y,1/2+z
1/2-x,1/2-y,1/2+z
1/2+x,1/2-y,-z
1/2-x,1/2+y,-z
1/2-x,1/2-y,1/2-z
1/2+x,1/2+y,1/2-z
1/2-x,1/2+y,z
1/2+x,1/2-y,z
loop_
_atom_site_type_symbol
_atom_site_label
_atom_site_fract_x
_atom_site_fract_y
_atom_site_fract_z
Si Si1 0.500000 0.000000 0.500000
Si Si2 0.897538 0.823394 0.767482
Si Si3 0.131558 0.426533 0.840506
Si Si4 0.826805 0.968149 0.391221
O O1 0.439392 0.058915 0.419067
O O2 0.862794 0.704676 0.807506
O O3 0.857001 0.858249 0.668224
O O4 0.000000 0.817428 0.750000
O O5 0.871860 0.924143 0.839836
O O6 0.108775 0.500000 0.750000
O O7 0.223661 0.472793 0.877591
O O8 0.848464 0.962779 0.500000
#
# Coordination Sequence:
#
# PCOD9529316 Si02
#       4
#     4  16  16  16
#     4  12  26  44  72 106 140 188 244 286 368 444
#     4  11  25  47  72 103 146 191 237 303 361 425
#     4  12  25  49  69 105 147 186 238 302 362 430
#     4  11  24  44  74 104 142 188 245 292 360 437
#
# _framework density 20.063276999999999
#
# number of rings (size 3 to 8) (size 9 to 14) (size 15 to 20)
#    0.000    0.615    4.615    5.077    2.154    2.462 
#    8.308    0.000    0.000    0.000    0.000    0.000 
#    0.000    0.000    0.000    0.000    0.000    0.000 
#
# Total GULP energy -144876.905568 kJ/mol
# GULP energy per Si atom -5572.188676 kJ/mol
# Density = 2.001761 g / cm^3
# Si number density = 20.063277 Si / 1000 Ang^3
#
#
#
# Elastic Constant Matrix: (Units=GPa)
#
#
# Indices 1 2 3 4 5 6 
#
# 1 40.0625 19.3472 13.5268 0.0000 0.0000 0.0000
# 2 19.3472 44.5561 24.2331 0.0000 0.0000 0.0000
# 3 13.5268 24.2331 194.4109 0.0000 0.0000 0.0000
# 4 0.0000 0.0000 0.0000 14.3693 0.0000 0.0000
# 5 0.0000 0.0000 0.0000 0.0000 24.6155 0.0000
# 6 0.0000 0.0000 0.0000 0.0000 0.0000 22.5625
#
#
#
# Elastic Compliance Matrix: (Units=1/GPa)
#
#
# Indices 1 2 3 4 5 6 
#
# 1 0.031634 -0.013451 -0.000524 0.000000 0.000000 0.000000
# 2 -0.013451 0.029795 -0.002778 0.000000 0.000000 0.000000
# 3 -0.000524 -0.002778 0.005527 0.000000 0.000000 0.000000
# 4 0.000000 0.000000 0.000000 0.069593 0.000000 0.000000
# 5 0.000000 0.000000 0.000000 0.000000 0.040625 0.000000
# 6 0.000000 0.000000 0.000000 0.000000 0.000000 0.044321
#
#
# Mechanical properties :
#
#
# Convention : Reuss Voigt Hill
#
# Bulk Modulus (GPa) = 29.89636 43.69376 36.79506
# Shear Modulus (GPa) = 18.78634 27.10429 22.94532
#
# Velocity S-wave (km/s) = 3.06331 3.67950 3.38545
# Velocity P-wave (km/s) = 5.23882 6.31482 5.80181
#
# Compressibility (1/GPa) = 0.03344889
#
# Stress axis : x y z
#
# Youngs Moduli (GPa) = 31.61165 33.56245 180.94601
#
# Poissons Ratio (x) = 0.45145 0.09489
# Poissons Ratio (y) = 0.42521 0.50268
# Poissons Ratio (z) = 0.01658 0.09324
#
# Static dielectric constant tensor:
#      x y z
#    x 1.735980 0.000000 0.000000 
#    y 0.000000 1.707400 0.000000 
#    z 0.000000 0.000000 1.674380 
# 
# From -- ./inp_files/21043.got.cif
#   From: 2010.05.17/outbox.cif.g08.bks.cpg/sg72_11_cif.got.tgz:21043.got - 2010.06.03 17:03:01.
