data_PCOD9529291
_publ_section_title
;
Structure prediction by ZEFSAII (Michael W. Deem and Ramdas Pophale) SiO2 
 PCOD9529291
Probable space group: I B A M
;
_chemical_formula_sum "Si O2"
_cell_formula_units_Z 80
_cell_length_a 28.820296
_cell_length_b 7.471062
_cell_length_c 16.892681
_cell_angle_alpha 90.000000
_cell_angle_beta 90.000000
_cell_angle_gamma 90.000000
_cell_volume 3637.301975
_symmetry_space_group_name_H-M "I B A M"
_symmetry_group_IT_number 72
_symmetry_cell_setting 'orthorhombic'
loop_
_space_group_symop_operation_xyz
x,y,z
-x,-y,z
x,-y,1/2-z
-x,y,1/2-z
-x,-y,-z
x,y,-z
-x,y,1/2+z
x,-y,1/2+z
1/2+x,1/2+y,1/2+z
1/2-x,1/2-y,1/2+z
1/2+x,1/2-y,-z
1/2-x,1/2+y,-z
1/2-x,1/2-y,1/2-z
1/2+x,1/2+y,1/2-z
1/2-x,1/2+y,z
1/2+x,1/2-y,z
loop_
_atom_site_type_symbol
_atom_site_label
_atom_site_fract_x
_atom_site_fract_y
_atom_site_fract_z
Si Si1 0.219897 0.685135 0.092582
Si Si2 0.102926 0.881783 0.670762
Si Si3 0.051109 0.474891 0.843704
Si Si4 0.196434 0.647553 0.321848
Si Si5 0.378987 0.272328 0.090782
O O1 0.200684 0.484283 0.102539
O O2 0.260034 0.724579 0.156513
O O3 0.174423 0.795054 0.118381
O O4 0.232337 0.717435 0.000000
O O5 0.067283 0.727941 0.647670
O O6 0.151087 0.771388 0.682171
O O7 0.094066 0.000000 0.750000
O O8 0.101505 0.031312 0.603588
O O9 0.047788 0.500000 0.750000
O O10 0.089657 0.619627 0.869865
O O11 0.000000 0.500000 0.879788
O O12 0.196537 0.500000 0.250000
O O13 0.375640 0.221914 0.000000
#
# Coordination Sequence:
#
# PCOD9529291 Si02
#       5
#    16  16  16  16  16
#     4  11  24  42  64  96 142 188 234 284 343 410
#     4  12  24  44  73 102 142 184 231 290 350 418
#     4  11  24  48  76 102 136 183 234 290 355 415
#     4  12  24  41  67 100 140 188 237 291 343 406
#     4  11  25  45  70 106 144 184 232 289 349 414
#
# _framework density 21.994323999999999
#
# number of rings (size 3 to 8) (size 9 to 14) (size 15 to 20)
#    0.000    0.600    4.000    4.200    0.000    6.800 
#    0.000    1.000    0.000    0.000    0.000    0.000 
#    0.000    0.000    0.000    0.000    0.000    0.000 
#
# Total GULP energy -223130.383268 kJ/mol
# GULP energy per Si atom -5578.259582 kJ/mol
# Density = 2.194426 g / cm^3
# Si number density = 21.994324 Si / 1000 Ang^3
#
#
#
# Elastic Constant Matrix: (Units=GPa)
#
#
# Indices 1 2 3 4 5 6 
#
# 1 115.3336 46.1448 29.8090 0.0000 0.0000 0.0000
# 2 46.1448 143.4979 9.1365 0.0000 0.0000 0.0000
# 3 29.8090 9.1365 61.2130 0.0000 0.0000 0.0000
# 4 0.0000 0.0000 0.0000 30.9187 0.0000 0.0000
# 5 0.0000 0.0000 0.0000 0.0000 21.3527 0.0000
# 6 0.0000 0.0000 0.0000 0.0000 0.0000 36.4542
#
#
#
# Elastic Compliance Matrix: (Units=1/GPa)
#
#
# Indices 1 2 3 4 5 6 
#
# 1 0.011288 -0.003312 -0.005003 0.000000 0.000000 0.000000
# 2 -0.003312 0.008007 0.000418 0.000000 0.000000 0.000000
# 3 -0.005003 0.000418 0.018710 0.000000 0.000000 0.000000
# 4 0.000000 0.000000 0.000000 0.032343 0.000000 0.000000
# 5 0.000000 0.000000 0.000000 0.000000 0.046833 0.000000
# 6 0.000000 0.000000 0.000000 0.000000 0.000000 0.027432
#
#
# Mechanical properties :
#
#
# Convention : Reuss Voigt Hill
#
# Bulk Modulus (GPa) = 45.02060 54.46946 49.74503
# Shear Modulus (GPa) = 29.79545 33.40872 31.60209
#
# Velocity S-wave (km/s) = 3.68460 3.90163 3.79467
# Velocity P-wave (km/s) = 6.21413 6.71684 6.47037
#
# Compressibility (1/GPa) = 0.02221205
#
# Stress axis : x y z
#
# Youngs Moduli (GPa) = 88.58589 124.88997 53.44633
#
# Poissons Ratio (x) = 0.41358 0.26739
# Poissons Ratio (y) = 0.29335 -0.02231
# Poissons Ratio (z) = 0.44319 -0.05214
#
# Static dielectric constant tensor:
#      x y z
#    x 1.970690 0.000000 0.000000 
#    y 0.000000 0.438370 0.000000 
#    z 0.000000 0.000000 1.924690 
# 
# From -- ./inp_files/33796.got.cif
#   From: 2010.05.17/outbox.cif.g08.bks.cpg/sg72_17_cif.got.tgz:33796.got - 2010.06.03 17:03:01.
