data_PCOD9529907
_publ_section_title
;
Structure prediction by ZEFSAII (Michael W. Deem and Ramdas Pophale) SiO2 
 PCOD9529907
Probable space group: I B C A 
;
_chemical_formula_sum "Si O2"
_cell_formula_units_Z 104
_cell_length_a 8.426994
_cell_length_b 23.920457
_cell_length_c 21.880021
_cell_angle_alpha 90.000000
_cell_angle_beta 90.000000
_cell_angle_gamma 90.000000
_cell_volume 4410.520975
_symmetry_space_group_name_H-M "I B C A "
_symmetry_group_IT_number 73
_symmetry_cell_setting 'orthorhombic'
loop_
_space_group_symop_operation_xyz
x,y,z
-x,1/2-y,z
x,-y,1/2-z
1/2-x,y,-z
-x,-y,-z
x,1/2+y,-z
-x,y,1/2+z
1/2+x,-y,z
1/2+x,1/2+y,1/2+z
1/2-x,-y,1/2+z
1/2+x,1/2-y,-z
-x,1/2+y,1/2-z
1/2-x,1/2-y,1/2-z
1/2+x,y,1/2-z
1/2-x,1/2+y,z
x,1/2-y,1/2+z
loop_
_atom_site_type_symbol
_atom_site_label
_atom_site_fract_x
_atom_site_fract_y
_atom_site_fract_z
Si Si1 0.054329 0.686743 0.354234
Si Si2 0.435429 0.686700 0.018853
Si Si3 0.750000 0.492071 0.500000
Si Si4 0.510748 0.476074 0.409541
Si Si5 0.577168 0.913855 0.209123
Si Si6 0.077301 0.187984 0.393599
Si Si7 0.061620 0.917516 0.666037
O O1 0.239765 0.687675 0.372707
O O2 0.000000 0.750000 0.341921
O O3 0.961412 0.662136 0.413926
O O4 0.001078 0.647463 0.298609
O O5 0.500000 0.750000 0.027670
O O6 0.250000 0.685982 0.000000
O O7 0.544031 0.666829 0.962860
O O8 0.653519 0.456268 0.451643
O O9 0.636667 0.528047 0.544189
O O10 0.509069 0.447984 0.344212
O O11 0.535760 0.541233 0.391183
O O12 0.549569 0.934905 0.277331
O O13 0.760092 0.917923 0.190792
O O14 0.000000 0.250000 0.390448
O O15 0.983059 0.144893 0.352183
#
# Coordination Sequence:
#
# PCOD9529907 Si02
#       7
#    16  16   8  16  16  16  16
#     4  11  23  42  67  99 139 184 236 289 348 413
#     4  10  18  34  60  91 131 174 224 280 343 403
#     4  10  24  46  74 110 140 180 220 288 354 418
#     4  11  25  48  76 106 145 175 230 282 356 417
#     4  12  27  46  71 102 141 189 237 286 343 413
#     4  11  23  42  67  99 139 184 236 289 348 413
#     4  12  27  46  71 102 141 189 237 286 343 413
#
# _framework density 23.579979999999999
#
# number of rings (size 3 to 8) (size 9 to 14) (size 15 to 20)
#    0.000    0.923    1.538    7.385    4.308    4.308 
#    2.769    3.077    0.000    0.000    0.000    0.000 
#    0.000    0.000    0.000    0.000    0.000    0.000 
#
# Total GULP energy -290860.985223 kJ/mol
# GULP energy per Si atom -5593.480485 kJ/mol
# Density = 2.352631 g / cm^3
# Si number density = 23.579980 Si / 1000 Ang^3
#
#
#
# Elastic Constant Matrix: (Units=GPa)
#
#
# Indices 1 2 3 4 5 6 
#
# 1 88.0847 5.0180 11.4740 0.0000 0.0000 0.0000
# 2 5.0180 75.8229 21.1897 0.0000 0.0000 0.0000
# 3 11.4740 21.1897 107.4651 0.0000 0.0000 0.0000
# 4 0.0000 0.0000 0.0000 23.6223 0.0000 0.0000
# 5 0.0000 0.0000 0.0000 0.0000 47.1261 0.0000
# 6 0.0000 0.0000 0.0000 0.0000 0.0000 5.9906
#
#
#
# Elastic Compliance Matrix: (Units=1/GPa)
#
#
# Indices 1 2 3 4 5 6 
#
# 1 0.011527 -0.000443 -0.001143 0.000000 0.000000 0.000000
# 2 -0.000443 0.013975 -0.002708 0.000000 0.000000 0.000000
# 3 -0.001143 -0.002708 0.009961 0.000000 0.000000 0.000000
# 4 0.000000 0.000000 0.000000 0.042333 0.000000 0.000000
# 5 0.000000 0.000000 0.000000 0.000000 0.021220 0.000000
# 6 0.000000 0.000000 0.000000 0.000000 0.000000 0.166929
#
#
# Mechanical properties :
#
#
# Convention : Reuss Voigt Hill
#
# Bulk Modulus (GPa) = 37.21146 38.52624 37.86885
# Shear Modulus (GPa) = 17.63716 30.92719 24.28218
#
# Velocity S-wave (km/s) = 2.73787 3.62551 3.21250
# Velocity P-wave (km/s) = 5.08034 5.82235 5.46396
#
# Compressibility (1/GPa) = 0.02687344
#
# Stress axis : x y z
#
# Youngs Moduli (GPa) = 86.75364 71.55740 100.38743
#
# Poissons Ratio (x) = 0.03172 0.11477
# Poissons Ratio (y) = 0.03846 0.27187
# Poissons Ratio (z) = 0.09919 0.19379
#
# Static dielectric constant tensor:
#      x y z
#    x 1.911390 0.000000 0.000000 
#    y 0.000000 1.937660 0.000000 
#    z 0.000000 0.000000 1.889860 
# 
# From -- ./inp_files/24990.got.cif
#   From: 2010.05.17/outbox.cif.g08.bks.cpg/sg73_13_cif.got.tgz:24990.got - 2010.06.03 17:35:07.
