data_PCOD9529671
_publ_section_title
;
Structure prediction by ZEFSAII (Michael W. Deem and Ramdas Pophale) SiO2 
 PCOD9529671
Probable space group: I B C A 
;
_chemical_formula_sum "Si O2"
_cell_formula_units_Z 120
_cell_length_a 23.412666
_cell_length_b 16.056001
_cell_length_c 16.060009
_cell_angle_alpha 90.000000
_cell_angle_beta 90.000000
_cell_angle_gamma 90.000000
_cell_volume 6037.178830
_symmetry_space_group_name_H-M "I B C A "
_symmetry_group_IT_number 73
_symmetry_cell_setting 'orthorhombic'
loop_
_space_group_symop_operation_xyz
x,y,z
-x,1/2-y,z
x,-y,1/2-z
1/2-x,y,-z
-x,-y,-z
x,1/2+y,-z
-x,y,1/2+z
1/2+x,-y,z
1/2+x,1/2+y,1/2+z
1/2-x,-y,1/2+z
1/2+x,1/2-y,-z
-x,1/2+y,1/2-z
1/2-x,1/2-y,1/2-z
1/2+x,y,1/2-z
1/2-x,1/2+y,z
x,1/2-y,1/2+z
loop_
_atom_site_type_symbol
_atom_site_label
_atom_site_fract_x
_atom_site_fract_y
_atom_site_fract_z
Si Si1 0.862102 0.381807 0.592006
Si Si2 0.171492 0.664941 0.143164
Si Si3 0.683004 0.542301 0.501423
Si Si4 0.857089 0.973209 0.662917
Si Si5 0.436933 0.099307 0.250209
Si Si6 0.500000 0.750000 0.834802
Si Si7 0.389276 0.187647 0.579709
Si Si8 0.265669 0.091199 0.280598
O O1 0.851402 0.470996 0.548156
O O2 0.914107 0.382301 0.656761
O O3 0.872984 0.318591 0.516766
O O4 0.805079 0.370923 0.647286
O O5 0.177273 0.624749 0.052538
O O6 0.118354 0.619992 0.191104
O O7 0.158077 0.760991 0.130460
O O8 0.226715 0.647349 0.199203
O O9 0.750000 0.517941 0.500000
O O10 0.659948 0.543220 0.595614
O O11 0.893545 0.905111 0.615312
O O12 0.797175 0.929450 0.688140
O O13 0.883763 0.000000 0.750000
O O14 0.483585 0.167883 0.220136
O O15 0.451252 0.000000 0.250000
O O16 0.447202 0.767509 0.895529
O O17 0.288757 0.000000 0.250000
#
# Coordination Sequence:
#
# PCOD9529671 Si02
#       8
#    16  16  16  16  16   8  16  16
#     4  10  18  35  62  90 113 157 201 239 293 370
#     4  10  19  36  55  87 120 162 196 245 298 364
#     4  11  17  32  57  87 123 155 197 235 282 356
#     4  10  21  36  57  85 122 162 193 244 295 362
#     4  10  19  39  71  87 111 158 214 252 312 374
#     4  10  24  44  60  86 124 156 204 282 314 348
#     4  10  24  39  57  82 124 153 197 265 313 348
#     4  10  16  33  62  85 117 159 203 233 284 371
#
# _framework density 19.876833999999999
#
# number of rings (size 3 to 8) (size 9 to 14) (size 15 to 20)
#    0.000    1.867    4.000    1.600    0.000    1.600 
#    9.600    0.667    0.000    0.000    0.000    0.000 
#    0.000    0.000    0.000    0.000    0.000    0.000 
#
# Total GULP energy -334422.966881 kJ/mol
# GULP energy per Si atom -5573.716115 kJ/mol
# Density = 1.983159 g / cm^3
# Si number density = 19.876834 Si / 1000 Ang^3
#
#
#
# Elastic Constant Matrix: (Units=GPa)
#
#
# Indices 1 2 3 4 5 6 
#
# 1 21.5513 6.2030 4.2031 0.0000 0.0000 0.0000
# 2 6.2030 63.1220 28.3117 0.0000 0.0000 0.0000
# 3 4.2031 28.3117 108.2239 0.0000 0.0000 0.0000
# 4 0.0000 0.0000 0.0000 35.8625 0.0000 0.0000
# 5 0.0000 0.0000 0.0000 0.0000 16.7014 0.0000
# 6 0.0000 0.0000 0.0000 0.0000 0.0000 8.5852
#
#
#
# Elastic Compliance Matrix: (Units=1/GPa)
#
#
# Indices 1 2 3 4 5 6 
#
# 1 0.047800 -0.004378 -0.000711 0.000000 0.000000 0.000000
# 2 -0.004378 0.018349 -0.004630 0.000000 0.000000 0.000000
# 3 -0.000711 -0.004630 0.010479 0.000000 0.000000 0.000000
# 4 0.000000 0.000000 0.000000 0.027884 0.000000 0.000000
# 5 0.000000 0.000000 0.000000 0.000000 0.059875 0.000000
# 6 0.000000 0.000000 0.000000 0.000000 0.000000 0.116479
#
#
# Mechanical properties :
#
#
# Convention : Reuss Voigt Hill
#
# Bulk Modulus (GPa) = 17.48590 30.03696 23.76143
# Shear Modulus (GPa) = 15.65587 22.50845 19.08216
#
# Velocity S-wave (km/s) = 2.80954 3.36876 3.10178
# Velocity P-wave (km/s) = 4.39783 5.50234 4.98080
#
# Compressibility (1/GPa) = 0.05718892
#
# Stress axis : x y z
#
# Youngs Moduli (GPa) = 20.92065 54.49781 95.42896
#
# Poissons Ratio (x) = 0.23861 0.06785
# Poissons Ratio (y) = 0.09160 0.44186
# Poissons Ratio (z) = 0.01487 0.25234
#
# Static dielectric constant tensor:
#      x y z
#    x 1.708720 0.000000 0.000000 
#    y 0.000000 1.713610 0.000000 
#    z 0.000000 0.000000 1.720970 
# 
# From -- ./inp_files/23659.got.cif
#   From: 2010.05.17/outbox.cif.g08.bks.cpg/sg73_12_cif.got.tgz:23659.got - 2010.06.03 17:35:07.
