data_PCOD9529745
_publ_section_title
;
Structure prediction by ZEFSAII (Michael W. Deem and Ramdas Pophale) SiO2 
 PCOD9529745
Probable space group: I B C A 
;
_chemical_formula_sum "Si O2"
_cell_formula_units_Z 64
_cell_length_a 24.616848
_cell_length_b 5.072910
_cell_length_c 20.561517
_cell_angle_alpha 90.000000
_cell_angle_beta 90.000000
_cell_angle_gamma 90.000000
_cell_volume 2567.702800
_symmetry_space_group_name_H-M "I B C A "
_symmetry_group_IT_number 73
_symmetry_cell_setting 'orthorhombic'
loop_
_space_group_symop_operation_xyz
x,y,z
-x,1/2-y,z
x,-y,1/2-z
1/2-x,y,-z
-x,-y,-z
x,1/2+y,-z
-x,y,1/2+z
1/2+x,-y,z
1/2+x,1/2+y,1/2+z
1/2-x,-y,1/2+z
1/2+x,1/2-y,-z
-x,1/2+y,1/2-z
1/2-x,1/2-y,1/2-z
1/2+x,y,1/2-z
1/2-x,1/2+y,z
x,1/2-y,1/2+z
loop_
_atom_site_type_symbol
_atom_site_label
_atom_site_fract_x
_atom_site_fract_y
_atom_site_fract_z
Si Si1 0.899901 0.000000 0.250000
Si Si2 0.279467 0.963046 0.889398
Si Si3 0.611702 0.142531 0.452716
Si Si4 0.000000 0.750000 0.451585
Si Si5 0.500000 0.250000 0.211766
Si Si6 0.822612 0.500000 0.250000
O O1 0.860583 0.754573 0.263568
O O2 0.942628 0.897081 0.193027
O O3 0.233434 0.168272 0.912469
O O4 0.335822 0.089967 0.911027
O O5 0.285212 0.945791 0.812102
O O6 0.612020 0.399700 0.497316
O O7 0.554977 0.180256 0.413586
O O8 0.000000 0.500000 0.500000
O O9 0.475743 0.500000 0.250000
#
# Coordination Sequence:
#
# PCOD9529745 Si02
#       6
#     8  16  16   8   8   8
#     4  10  17  35  58  84 114 164 211 251 314 374
#     4  12  26  43  61  90 128 171 223 270 321 381
#     4  10  21  40  68  96 125 161 204 266 327 385
#     4   8  16  34  61  93 124 152 192 243 313 390
#     4   8  14  30  53  85 118 150 198 259 323 370
#     4  12  23  39  62  84 124 178 223 265 314 382
#
# _framework density 24.925003
#
# number of rings (size 3 to 8) (size 9 to 14) (size 15 to 20)
#    0.750    1.000    1.250    3.750    0.000    3.000 
#    0.000    3.750    0.000    9.000    0.000    1.750 
#    0.000    0.000    0.000    0.000    0.000    0.000 
#
# Total GULP energy -178149.311706 kJ/mol
# GULP energy per Si atom -5567.165991 kJ/mol
# Density = 2.486827 g / cm^3
# Si number density = 24.925003 Si / 1000 Ang^3
#
#
#
# Elastic Constant Matrix: (Units=GPa)
#
#
# Indices 1 2 3 4 5 6 
#
# 1 112.3733 13.8381 6.7919 0.0000 0.0000 0.0000
# 2 13.8381 189.2340 4.6684 0.0000 0.0000 0.0000
# 3 6.7919 4.6684 31.0824 0.0000 0.0000 0.0000
# 4 0.0000 0.0000 0.0000 13.3058 0.0000 0.0000
# 5 0.0000 0.0000 0.0000 0.0000 84.5904 0.0000
# 6 0.0000 0.0000 0.0000 0.0000 0.0000 46.4606
#
#
#
# Elastic Compliance Matrix: (Units=1/GPa)
#
#
# Indices 1 2 3 4 5 6 
#
# 1 0.009089 -0.000618 -0.001893 0.000000 0.000000 0.000000
# 2 -0.000618 0.005346 -0.000668 0.000000 0.000000 0.000000
# 3 -0.001893 -0.000668 0.032687 0.000000 0.000000 0.000000
# 4 0.000000 0.000000 0.000000 0.075155 0.000000 0.000000
# 5 0.000000 0.000000 0.000000 0.000000 0.011822 0.000000
# 6 0.000000 0.000000 0.000000 0.000000 0.000000 0.021524
#
#
# Mechanical properties :
#
#
# Convention : Reuss Voigt Hill
#
# Bulk Modulus (GPa) = 24.53163 42.58739 33.55951
# Shear Modulus (GPa) = 28.47880 49.36412 38.92146
#
# Velocity S-wave (km/s) = 3.38387 4.45512 3.95592
# Velocity P-wave (km/s) = 5.01308 6.60207 5.86167
#
# Compressibility (1/GPa) = 0.04076370
#
# Stress axis : x y z
#
# Youngs Moduli (GPa) = 110.01772 187.05116 30.59358
#
# Poissons Ratio (x) = 0.11559 0.05792
# Poissons Ratio (y) = 0.06799 0.02043
# Poissons Ratio (z) = 0.20830 0.12494
#
# Static dielectric constant tensor:
#      x y z
#    x 2.106860 0.000000 0.000000 
#    y 0.000000 1.965100 0.000000 
#    z 0.000000 0.000000 2.035140 
# 
# From -- ./inp_files/1586.got.cif
#   From: 2010.05.17/outbox.cif.g08.bks.cpg/sg73_1_cif.got.tgz:1586.got - 2010.06.03 17:35:07.
