data_PCOD9529322
_publ_section_title
;
Structure prediction by ZEFSAII (Michael W. Deem and Ramdas Pophale) SiO2 
 PCOD9529322
Probable space group: I B A M
;
_chemical_formula_sum "Si O2"
_cell_formula_units_Z 48
_cell_length_a 8.840586
_cell_length_b 10.209483
_cell_length_c 19.967363
_cell_angle_alpha 90.000000
_cell_angle_beta 90.000000
_cell_angle_gamma 90.000000
_cell_volume 1802.210505
_symmetry_space_group_name_H-M "I B A M"
_symmetry_group_IT_number 72
_symmetry_cell_setting 'orthorhombic'
loop_
_space_group_symop_operation_xyz
x,y,z
-x,-y,z
x,-y,1/2-z
-x,y,1/2-z
-x,-y,-z
x,y,-z
-x,y,1/2+z
x,-y,1/2+z
1/2+x,1/2+y,1/2+z
1/2-x,1/2-y,1/2+z
1/2+x,1/2-y,-z
1/2-x,1/2+y,-z
1/2-x,1/2-y,1/2-z
1/2+x,1/2+y,1/2-z
1/2-x,1/2+y,z
1/2+x,1/2-y,z
loop_
_atom_site_type_symbol
_atom_site_label
_atom_site_fract_x
_atom_site_fract_y
_atom_site_fract_z
Si Si1 0.314359 0.631516 0.205022
Si Si2 0.899871 0.789615 0.618914
Si Si3 0.053262 0.355336 0.500000
Si Si4 0.323661 0.523958 0.500000
O O1 0.294875 0.500000 0.250000
O O2 0.250000 0.750000 0.250000
O O3 0.199413 0.666166 0.144812
O O4 0.515805 0.651130 0.325419
O O5 0.001750 0.720994 0.563785
O O6 0.810161 0.895261 0.571748
O O7 0.231568 0.389136 0.500000
O O8 0.000000 0.500000 0.500000
O O9 0.500000 0.500000 0.500000
#
# Coordination Sequence:
#
# PCOD9529322 Si02
#       4
#    16  16   8   8
#     4  12  30  51  80 114 168 224 278 335 408 506
#     4  11  27  50  76 121 160 215 286 345 430 500
#     4  11  24  45  82 113 155 202 272 366 419 494
#     4  11  24  45  86 117 161 208 270 372 432 497
#
# _framework density 26.633959000000001
#
# number of rings (size 3 to 8) (size 9 to 14) (size 15 to 20)
#    0.000    0.667    0.000    5.000   14.000    8.000 
#    0.000    0.000    0.000    0.000    0.000    0.000 
#    0.000    0.000    0.000    0.000    0.000    0.000 
#
# Total GULP energy -133693.296311 kJ/mol
# GULP energy per Si atom -5570.554013 kJ/mol
# Density = 2.657334 g / cm^3
# Si number density = 26.633959 Si / 1000 Ang^3
#
#
#
# Elastic Constant Matrix: (Units=GPa)
#
#
# Indices 1 2 3 4 5 6 
#
# 1 149.8888 51.4061 44.2674 0.0000 0.0000 0.0000
# 2 51.4061 199.1352 90.0614 0.0000 0.0000 0.0000
# 3 44.2674 90.0614 192.4224 0.0000 0.0000 0.0000
# 4 0.0000 0.0000 0.0000 76.3308 0.0000 0.0000
# 5 0.0000 0.0000 0.0000 0.0000 11.7048 0.0000
# 6 0.0000 0.0000 0.0000 0.0000 0.0000 53.9204
#
#
#
# Elastic Compliance Matrix: (Units=1/GPa)
#
#
# Indices 1 2 3 4 5 6 
#
# 1 0.007479 -0.001462 -0.001036 0.000000 0.000000 0.000000
# 2 -0.001462 0.006656 -0.002779 0.000000 0.000000 0.000000
# 3 -0.001036 -0.002779 0.006736 0.000000 0.000000 0.000000
# 4 0.000000 0.000000 0.000000 0.013101 0.000000 0.000000
# 5 0.000000 0.000000 0.000000 0.000000 0.085435 0.000000
# 6 0.000000 0.000000 0.000000 0.000000 0.000000 0.018546
#
#
# Mechanical properties :
#
#
# Convention : Reuss Voigt Hill
#
# Bulk Modulus (GPa) = 96.93202 101.43513 99.18358
# Shear Modulus (GPa) = 32.90635 52.10528 42.50581
#
# Velocity S-wave (km/s) = 3.51879 4.42786 3.99924
# Velocity P-wave (km/s) = 7.27889 8.01928 7.65804
#
# Compressibility (1/GPa) = 0.01031651
#
# Stress axis : x y z
#
# Youngs Moduli (GPa) = 133.70617 150.24210 148.45736
#
# Poissons Ratio (x) = 0.21966 0.15385
# Poissons Ratio (y) = 0.19548 0.41255
# Poissons Ratio (z) = 0.13856 0.41751
#
# Static dielectric constant tensor:
#      x y z
#    x 1.833960 0.000000 0.000000 
#    y 0.000000 1.978880 0.000000 
#    z 0.000000 0.000000 4.349600 
# 
# From -- ./inp_files/36414.got.cif
#   From: 2010.05.17/outbox.cif.g08.bks.cpg/sg72_19_cif.got.tgz:36414.got - 2010.06.03 17:03:01.
