data_PCOD9529180
_publ_section_title
;
Structure prediction by ZEFSAII (Michael W. Deem and Ramdas Pophale) SiO2 
 PCOD9529180
Probable space group: I B A M
;
_chemical_formula_sum "Si O2"
_cell_formula_units_Z 116
_cell_length_a 17.150793
_cell_length_b 16.633870
_cell_length_c 18.622734
_cell_angle_alpha 90.000000
_cell_angle_beta 90.000000
_cell_angle_gamma 90.000000
_cell_volume 5312.769185
_symmetry_space_group_name_H-M "I B A M"
_symmetry_group_IT_number 72
_symmetry_cell_setting 'orthorhombic'
loop_
_space_group_symop_operation_xyz
x,y,z
-x,-y,z
x,-y,1/2-z
-x,y,1/2-z
-x,-y,-z
x,y,-z
-x,y,1/2+z
x,-y,1/2+z
1/2+x,1/2+y,1/2+z
1/2-x,1/2-y,1/2+z
1/2+x,1/2-y,-z
1/2-x,1/2+y,-z
1/2-x,1/2-y,1/2-z
1/2+x,1/2+y,1/2-z
1/2-x,1/2+y,z
1/2+x,1/2-y,z
loop_
_atom_site_type_symbol
_atom_site_label
_atom_site_fract_x
_atom_site_fract_y
_atom_site_fract_z
Si Si1 0.500000 0.000000 0.250000
Si Si2 0.657989 0.685604 0.180408
Si Si3 0.777849 0.545450 0.172317
Si Si4 0.736213 0.408460 0.080684
Si Si5 0.124702 0.209754 0.152034
Si Si6 0.010741 0.088172 0.336705
Si Si7 0.900683 0.332457 0.919499
Si Si8 0.931023 0.610158 0.130730
O O1 0.451483 0.061912 0.297325
O O2 0.738567 0.634137 0.180356
O O3 0.643894 0.705375 0.263752
O O4 0.596151 0.621016 0.152160
O O5 0.629512 0.764828 0.136692
O O6 0.794033 0.500000 0.250000
O O7 0.720668 0.481481 0.134368
O O8 0.850126 0.562037 0.116817
O O9 0.696529 0.326450 0.108235
O O10 0.828861 0.393849 0.081651
O O11 0.710531 0.425371 0.000000
O O12 0.052998 0.150413 0.135941
O O13 0.097218 0.298675 0.135343
O O14 0.000000 0.085444 0.250000
O O15 0.000000 0.000000 0.366552
O O16 0.983022 0.378708 0.905341
O O17 0.905754 0.297210 0.000000
#
# Coordination Sequence:
#
# PCOD9529180 Si02
#       8
#     4  16  16  16  16  16  16  16
#     4  12  24  40  66 104 150 172 246 314 364 428
#     4  11  22  40  69 100 141 179 239 301 366 429
#     4  12  25  43  70 108 146 187 244 312 375 444
#     4  11  26  47  69 101 143 189 241 301 374 450
#     4  11  22  41  71 106 136 188 242 300 371 432
#     4   9  18  33  60  99 136 174 224 287 353 427
#     4  11  26  47  68  99 146 195 244 298 367 449
#     4  12  25  42  69 103 145 189 243 307 365 437
#
# _framework density 21.834187
#
# number of rings (size 3 to 8) (size 9 to 14) (size 15 to 20)
#    0.000    0.966    3.448    3.310    4.828    2.759 
#    0.000    1.724    0.000    1.655    0.000    0.000 
#    0.000    0.000    0.000    0.000    0.000    0.000 
#
# Total GULP energy -323005.579528 kJ/mol
# GULP energy per Si atom -5569.061716 kJ/mol
# Density = 2.178449 g / cm^3
# Si number density = 21.834187 Si / 1000 Ang^3
#
#
#
# Elastic Constant Matrix: (Units=GPa)
#
#
# Indices 1 2 3 4 5 6 
#
# 1 106.2467 13.9230 5.3624 0.0000 0.0000 0.0000
# 2 13.9230 108.4609 18.8309 0.0000 0.0000 0.0000
# 3 5.3624 18.8309 71.5390 0.0000 0.0000 0.0000
# 4 0.0000 0.0000 0.0000 28.7391 0.0000 0.0000
# 5 0.0000 0.0000 0.0000 0.0000 27.0016 0.0000
# 6 0.0000 0.0000 0.0000 0.0000 0.0000 19.6552
#
#
#
# Elastic Compliance Matrix: (Units=1/GPa)
#
#
# Indices 1 2 3 4 5 6 
#
# 1 0.009585 -0.001159 -0.000413 0.000000 0.000000 0.000000
# 2 -0.001159 0.009801 -0.002493 0.000000 0.000000 0.000000
# 3 -0.000413 -0.002493 0.014666 0.000000 0.000000 0.000000
# 4 0.000000 0.000000 0.000000 0.034796 0.000000 0.000000
# 5 0.000000 0.000000 0.000000 0.000000 0.037035 0.000000
# 6 0.000000 0.000000 0.000000 0.000000 0.000000 0.050877
#
#
# Mechanical properties :
#
#
# Convention : Reuss Voigt Hill
#
# Bulk Modulus (GPa) = 38.57811 40.27546 39.42679
# Shear Modulus (GPa) = 28.81336 31.62121 30.21728
#
# Velocity S-wave (km/s) = 3.63663 3.80971 3.72418
# Velocity P-wave (km/s) = 5.94479 6.15125 6.04890
#
# Compressibility (1/GPa) = 0.02592144
#
# Stress axis : x y z
#
# Youngs Moduli (GPa) = 104.33242 102.02522 68.18651
#
# Poissons Ratio (x) = 0.11821 0.02819
# Poissons Ratio (y) = 0.12088 0.17000
# Poissons Ratio (z) = 0.04314 0.25437
#
# Static dielectric constant tensor:
#      x y z
#    x 1.905000 0.000000 0.000000 
#    y 0.000000 1.775320 0.000000 
#    z 0.000000 0.000000 1.786470 
# 
# From -- ./inp_files/31754.got.cif
#   From: 2010.05.17/outbox.cif.g08.bks.cpg/sg72_16_cif.got.tgz:31754.got - 2010.06.03 17:03:01.
