data_PCOD9529449
_publ_section_title
;
Structure prediction by ZEFSAII (Michael W. Deem and Ramdas Pophale) SiO2 
 PCOD9529449
Probable space group: I B A M
;
_chemical_formula_sum "Si O2"
_cell_formula_units_Z 96
_cell_length_a 15.179775
_cell_length_b 14.328403
_cell_length_c 19.274889
_cell_angle_alpha 90.000000
_cell_angle_beta 90.000000
_cell_angle_gamma 90.000000
_cell_volume 4192.325628
_symmetry_space_group_name_H-M "I B A M"
_symmetry_group_IT_number 72
_symmetry_cell_setting 'orthorhombic'
loop_
_space_group_symop_operation_xyz
x,y,z
-x,-y,z
x,-y,1/2-z
-x,y,1/2-z
-x,-y,-z
x,y,-z
-x,y,1/2+z
x,-y,1/2+z
1/2+x,1/2+y,1/2+z
1/2-x,1/2-y,1/2+z
1/2+x,1/2-y,-z
1/2-x,1/2+y,-z
1/2-x,1/2-y,1/2-z
1/2+x,1/2+y,1/2-z
1/2-x,1/2+y,z
1/2+x,1/2-y,z
loop_
_atom_site_type_symbol
_atom_site_label
_atom_site_fract_x
_atom_site_fract_y
_atom_site_fract_z
Si Si1 0.828108 0.673536 0.245583
Si Si2 0.264159 0.780684 0.000000
Si Si3 0.082542 0.261600 0.888280
Si Si4 0.654800 0.468501 0.500000
Si Si5 0.778597 0.000000 0.750000
Si Si6 0.058767 0.411130 0.371923
Si Si7 0.081957 0.951563 0.363573
Si Si8 0.175313 0.412188 0.500000
O O1 0.750000 0.750000 0.250000
O O2 0.896649 0.713124 0.191031
O O3 0.782092 0.579800 0.217570
O O4 0.881108 0.640255 0.313997
O O5 0.330057 0.775079 0.065638
O O6 0.209474 0.874597 0.000000
O O7 0.192403 0.698329 0.000000
O O8 0.061183 0.152287 0.889620
O O9 0.005209 0.333435 0.906506
O O10 0.601596 0.483808 0.570161
O O11 0.726513 0.550146 0.500000
O O12 0.836883 0.953118 0.810168
O O13 0.123793 0.445293 0.432230
O O14 0.000000 0.500000 0.346925
O O15 0.000000 0.000000 0.327146
#
# Coordination Sequence:
#
# PCOD9529449 Si02
#       8
#    16   8  16   8   8  16  16   8
#     4  12  25  45  72 104 141 188 242 300 359 433
#     4  12  25  46  76 105 140 190 236 298 368 433
#     4  12  25  47  71 105 145 184 237 294 364 432
#     4  12  25  48  72  99 141 181 236 293 354 430
#     4  12  25  46  71 100 138 182 238 288 363 424
#     4  12  27  46  74 107 147 191 242 301 368 436
#     4  12  27  44  69 101 140 186 233 290 353 428
#     4  12  24  46  74 107 141 184 245 298 361 430
#
# _framework density 22.898983999999999
#
# number of rings (size 3 to 8) (size 9 to 14) (size 15 to 20)
#    0.000    0.000    3.333    6.750    4.667    2.000 
#    0.000    0.000    0.000    0.000    0.000    0.000 
#    0.000    0.000    0.000    0.000    0.000    0.000 
#
# Total GULP energy -268762.748402 kJ/mol
# GULP energy per Si atom -5599.223925 kJ/mol
# Density = 2.284686 g / cm^3
# Si number density = 22.898984 Si / 1000 Ang^3
#
#
#
# Elastic Constant Matrix: (Units=GPa)
#
#
# Indices 1 2 3 4 5 6 
#
# 1 82.6684 16.8327 29.0612 0.0000 0.0000 0.0000
# 2 16.8327 123.1961 11.8067 0.0000 0.0000 0.0000
# 3 29.0612 11.8067 102.7008 0.0000 0.0000 0.0000
# 4 0.0000 0.0000 0.0000 8.8679 0.0000 0.0000
# 5 0.0000 0.0000 0.0000 0.0000 32.1743 0.0000
# 6 0.0000 0.0000 0.0000 0.0000 0.0000 46.8923
#
#
#
# Elastic Compliance Matrix: (Units=1/GPa)
#
#
# Indices 1 2 3 4 5 6 
#
# 1 0.013708 -0.001518 -0.003704 0.000000 0.000000 0.000000
# 2 -0.001518 0.008376 -0.000533 0.000000 0.000000 0.000000
# 3 -0.003704 -0.000533 0.010847 0.000000 0.000000 0.000000
# 4 0.000000 0.000000 0.000000 0.112766 0.000000 0.000000
# 5 0.000000 0.000000 0.000000 0.000000 0.031081 0.000000
# 6 0.000000 0.000000 0.000000 0.000000 0.000000 0.021325
#
#
# Mechanical properties :
#
#
# Convention : Reuss Voigt Hill
#
# Bulk Modulus (GPa) = 46.68817 47.10738 46.89777
# Shear Modulus (GPa) = 23.06771 34.31123 28.68947
#
# Velocity S-wave (km/s) = 3.17735 3.87508 3.54343
# Velocity P-wave (km/s) = 5.82183 6.37481 6.10458
#
# Compressibility (1/GPa) = 0.02141870
#
# Stress axis : x y z
#
# Youngs Moduli (GPa) = 72.95092 119.39365 92.19501
#
# Poissons Ratio (x) = 0.18123 0.34153
# Poissons Ratio (y) = 0.11073 0.04917
# Poissons Ratio (z) = 0.27024 0.06368
#
# Static dielectric constant tensor:
#      x y z
#    x 1.854860 0.000000 0.000000 
#    y 0.000000 4.080440 0.000000 
#    z 0.000000 0.000000 1.740020 
# 
# From -- ./inp_files/38091.got.cif
#   From: 2010.05.17/outbox.cif.g08.bks.cpg/sg72_20_cif.got.tgz:38091.got - 2010.06.03 17:03:01.
