data_PCOD9529901
_publ_section_title
;
Structure prediction by ZEFSAII (Michael W. Deem and Ramdas Pophale) SiO2 
 PCOD9529901
Probable space group: I B C A 
;
_chemical_formula_sum "Si O2"
_cell_formula_units_Z 120
_cell_length_a 18.318077
_cell_length_b 14.699966
_cell_length_c 21.425258
_cell_angle_alpha 90.000000
_cell_angle_beta 90.000000
_cell_angle_gamma 90.000000
_cell_volume 5769.288685
_symmetry_space_group_name_H-M "I B C A "
_symmetry_group_IT_number 73
_symmetry_cell_setting 'orthorhombic'
loop_
_space_group_symop_operation_xyz
x,y,z
-x,1/2-y,z
x,-y,1/2-z
1/2-x,y,-z
-x,-y,-z
x,1/2+y,-z
-x,y,1/2+z
1/2+x,-y,z
1/2+x,1/2+y,1/2+z
1/2-x,-y,1/2+z
1/2+x,1/2-y,-z
-x,1/2+y,1/2-z
1/2-x,1/2-y,1/2-z
1/2+x,y,1/2-z
1/2-x,1/2+y,z
x,1/2-y,1/2+z
loop_
_atom_site_type_symbol
_atom_site_label
_atom_site_fract_x
_atom_site_fract_y
_atom_site_fract_z
Si Si1 0.386975 0.104951 0.428634
Si Si2 0.606412 0.516579 0.675933
Si Si3 0.413296 0.271885 0.352319
Si Si4 0.556643 0.451314 0.140939
Si Si5 0.913537 0.779180 0.213021
Si Si6 0.656044 0.847836 0.387855
Si Si7 0.250000 0.369140 0.000000
Si Si8 0.489010 0.354049 0.029440
O O1 0.379117 0.209305 0.406340
O O2 0.319544 0.078204 0.472220
O O3 0.462756 0.094792 0.467480
O O4 0.395412 0.039813 0.370184
O O5 0.618488 0.500000 0.750000
O O6 0.605312 0.620950 0.651941
O O7 0.524116 0.480729 0.662502
O O8 0.661925 0.450333 0.639036
O O9 0.500000 0.250000 0.357470
O O10 0.392590 0.234480 0.284230
O O11 0.588632 0.382045 0.190464
O O12 0.549470 0.397614 0.074271
O O13 0.861594 0.718739 0.169229
O O14 0.000000 0.750000 0.205118
O O15 0.716995 0.820826 0.438336
O O16 0.581775 0.849109 0.427142
O O17 0.500000 0.250000 0.011165
#
# Coordination Sequence:
#
# PCOD9529901 Si02
#       8
#    16  16  16  16  16  16   8  16
#     4  11  24  39  56  82 126 158 203 254 288 349
#     4  11  19  34  63  97 127 151 181 240 318 371
#     4  11  21  35  60 101 129 147 185 247 315 370
#     4  11  20  33  59  93 123 155 186 239 314 363
#     4  11  18  35  63  97 126 149 188 239 317 380
#     4  10  19  39  62  83 120 160 202 245 288 360
#     4  10  26  48  58  76 120 172 214 256 280 332
#     4  10  18  34  58  88 116 149 193 245 304 361
#
# _framework density 20.799790999999999
#
# number of rings (size 3 to 8) (size 9 to 14) (size 15 to 20)
#    0.000    1.333    6.667    1.600    0.000    0.000 
#    0.000    3.333    2.933    0.000    0.000    0.000 
#    0.000    0.000    0.000    0.000    0.000    0.000 
#
# Total GULP energy -334504.692496 kJ/mol
# GULP energy per Si atom -5575.078208 kJ/mol
# Density = 2.075245 g / cm^3
# Si number density = 20.799791 Si / 1000 Ang^3
#
#
#
# Elastic Constant Matrix: (Units=GPa)
#
#
# Indices 1 2 3 4 5 6 
#
# 1 33.0220 2.9244 18.5829 0.0000 0.0000 0.0000
# 2 2.9244 105.3974 21.4132 0.0000 0.0000 0.0000
# 3 18.5829 21.4132 92.5803 0.0000 0.0000 0.0000
# 4 0.0000 0.0000 0.0000 32.5342 0.0000 0.0000
# 5 0.0000 0.0000 0.0000 0.0000 30.3431 0.0000
# 6 0.0000 0.0000 0.0000 0.0000 0.0000 -0.0983
#
#
#
# Elastic Compliance Matrix: (Units=1/GPa)
#
#
# Indices 1 2 3 4 5 6 
#
# 1 0.034161 0.000467 -0.006965 0.000000 0.000000 0.000000
# 2 0.000467 0.009962 -0.002398 0.000000 0.000000 0.000000
# 3 -0.006965 -0.002398 0.012754 0.000000 0.000000 0.000000
# 4 0.000000 0.000000 0.000000 0.030737 0.000000 0.000000
# 5 0.000000 0.000000 0.000000 0.000000 0.032956 0.000000
# 6 0.000000 0.000000 0.000000 0.000000 0.000000-10.176776
#
#
# Mechanical properties :
#
#
# Convention : Reuss Voigt Hill
#
# Bulk Modulus (GPa) = 25.58474 35.20453 30.39464
# Shear Modulus (GPa) = -0.49873 25.09440 12.29783
#
# Velocity S-wave (km/s) = -0.49020 3.47720 2.43420
# Velocity P-wave (km/s) = 3.46508 5.75182 4.74817
#
# Compressibility (1/GPa) = 0.03908579
#
# Stress axis : x y z
#
# Youngs Moduli (GPa) = 29.27318 100.38021 78.40633
#
# Poissons Ratio (x) = -0.04690 0.54609
# Poissons Ratio (y) = -0.01368 0.18801
# Poissons Ratio (z) = 0.20389 0.24071
#
# Static dielectric constant tensor:
#      x y z
#    x 1.787390 0.000000 0.000000 
#    y 0.000000 1.817400 0.000000 
#    z 0.000000 0.000000 1.784660 
# 
# From -- ./inp_files/26998.got.cif
#   From: 2010.05.17/outbox.cif.g08.bks.cpg/sg73_14_cif.got.tgz:26998.got - 2010.06.03 17:35:07.
