data_PCOD9529591
_publ_section_title
;
Structure prediction by ZEFSAII (Michael W. Deem and Ramdas Pophale) SiO2 
 PCOD9529591
Probable space group: I B A M
;
_chemical_formula_sum "Si O2"
_cell_formula_units_Z 56
_cell_length_a 12.000000
_cell_length_b 30.000000
_cell_length_c 15.000000
_cell_angle_alpha 90.000000
_cell_angle_beta 90.000000
_cell_angle_gamma 90.000000
_cell_volume 5400.000000
_symmetry_space_group_name_H-M "I B A M"
_symmetry_group_IT_number 72
_symmetry_cell_setting 'orthorhombic'
loop_
_space_group_symop_operation_xyz
x,y,z
-x,-y,z
x,-y,1/2-z
-x,y,1/2-z
-x,-y,-z
x,y,-z
-x,y,1/2+z
x,-y,1/2+z
1/2+x,1/2+y,1/2+z
1/2-x,1/2-y,1/2+z
1/2+x,1/2-y,-z
1/2-x,1/2+y,-z
1/2-x,1/2-y,1/2-z
1/2+x,1/2+y,1/2-z
1/2-x,1/2+y,z
1/2+x,1/2-y,z
loop_
_atom_site_type_symbol
_atom_site_label
_atom_site_fract_x
_atom_site_fract_y
_atom_site_fract_z
Si Si1 0.240797 0.919443 0.396371
Si Si2 0.372094 0.510424 0.391753
Si Si3 0.865255 0.643896 0.266516
Si Si4 0.209202 0.724406 0.103425
Si Si5 0.018994 0.135326 0.854545
Si Si6 0.962776 0.760847 0.147914
Si Si7 0.722305 0.393623 0.397456
O O1 0.275678 0.918788 0.500000
O O2 0.331778 0.896471 0.333241
O O3 0.122260 0.893450 0.388945
O O4 0.207462 0.969345 0.368741
O O5 0.500000 0.500000 0.361045
O O6 0.379663 0.512826 0.500000
O O7 0.312810 0.556541 0.364709
O O8 0.810560 0.686182 0.320318
O O9 0.801749 0.631832 0.173392
O O10 0.000000 0.648480 0.250000
O O11 0.328678 0.751455 0.126818
O O12 0.081863 0.746177 0.101565
O O13 0.226500 0.708802 0.000000
O O14 0.048051 0.186617 0.865360
O O15 0.000000 0.125298 0.750000
O O16 0.899895 0.128383 0.899491
O O17 0.000000 0.752149 0.250000
O O18 0.766169 0.394772 0.500000
#
# Coordination Sequence:
#
# PCOD9529591 Si02
#       7
#    16  16  16  16  16  16  16
#     4  11  21  39  68  98 135 177 218 272 345 421
#     4   9  18  34  63 104 138 168 214 279 354 419
#     4  12  27  47  66  92 132 185 240 278 333 406
#     4  12  26  47  75 105 139 181 231 292 354 419
#     4  11  20  38  66 101 138 173 215 270 347 418
#     4  11  24  44  70 101 142 184 230 283 349 417
#     4  11  23  41  66 100 138 174 224 288 344 404
#
# _framework density 10.370369999999999
#
# number of rings (size 3 to 8) (size 9 to 14) (size 15 to 20)
#    0.000    1.000    4.286    3.000    0.000    4.571 
#    0.000    2.857    0.000    2.571    0.000    0.000 
#    0.000    0.000    0.000    0.000    0.000    0.000 
#
# Total GULP energy -312267.109742 kJ/mol
# GULP energy per Si atom -5576.198388 kJ/mol
# Density = 1.034677 g / cm^3
# Si number density = 10.370370 Si / 1000 Ang^3
#
#
#
# Elastic Constant Matrix: (Units=GPa)
#
#
# Indices 1 2 3 4 5 6 
#
# 1 160.3830 29.7556 38.8128 0.0000 0.0000 0.0000
# 2 29.7556 64.0251 38.6614 0.0000 0.0005 0.0000
# 3 38.8128 38.6614 122.2187 -0.0003 -0.0004 -0.0001
# 4 0.0000 0.0000 -0.0003 18.2798 0.0000 0.0000
# 5 0.0000 0.0005 -0.0004 0.0000 12.1865 0.0000
# 6 0.0000 0.0000 -0.0001 0.0000 0.0000 37.3275
#
#
#
# Elastic Compliance Matrix: (Units=1/GPa)
#
#
# Indices 1 2 3 4 5 6 
#
# 1 0.007034 -0.002374 -0.001483 0.000000 0.000000 0.000000
# 2 -0.002374 0.020108 -0.005607 0.000000 -0.000001 0.000000
# 3 -0.001483 -0.005607 0.010427 0.000000 0.000001 0.000000
# 4 0.000000 0.000000 0.000000 0.054705 0.000000 0.000000
# 5 0.000000 -0.000001 0.000001 0.000000 0.082058 0.000000
# 6 0.000000 0.000000 0.000000 0.000000 0.000000 0.026790
#
#
# Mechanical properties :
#
#
# Convention : Reuss Voigt Hill
#
# Bulk Modulus (GPa) = 53.64355 62.34294 57.99325
# Shear Modulus (GPa) = 22.09821 29.51856 25.80839
#
# Velocity S-wave (km/s) = 3.26766 3.77665 3.53134
# Velocity P-wave (km/s) = 6.33694 7.01006 6.68198
#
# Compressibility (1/GPa) = 0.01864157
#
# Stress axis : x y z
#
# Youngs Moduli (GPa) = 142.15947 49.73211 95.90826
#
# Poissons Ratio (x) = 0.11805 0.14223
# Poissons Ratio (y) = 0.33744 0.53774
# Poissons Ratio (z) = 0.21083 0.27884
#
# Static dielectric constant tensor:
#      x y z
#    x 1.756470 0.000000 0.000000 
#    y 0.000000 1.815800 0.000000 
#    z 0.000000 0.000000 1.794340 
# 
# From -- ./inp_files/20690.got.cif
#   From: 2010.05.17/outbox.ucp.g08.bks.cvg/sg72_11_cif.got.tgz:20690.got - 2010.06.11 16:33:07.
