data_PCOD9529157
_publ_section_title
;
Structure prediction by ZEFSAII (Michael W. Deem and Ramdas Pophale) SiO2 
 PCOD9529157
Probable space group: I B A M
;
_chemical_formula_sum "Si O2"
_cell_formula_units_Z 88
_cell_length_a 14.853660
_cell_length_b 10.430395
_cell_length_c 26.108910
_cell_angle_alpha 90.000000
_cell_angle_beta 90.000000
_cell_angle_gamma 90.000000
_cell_volume 4045.041442
_symmetry_space_group_name_H-M "I B A M"
_symmetry_group_IT_number 72
_symmetry_cell_setting 'orthorhombic'
loop_
_space_group_symop_operation_xyz
x,y,z
-x,-y,z
x,-y,1/2-z
-x,y,1/2-z
-x,-y,-z
x,y,-z
-x,y,1/2+z
x,-y,1/2+z
1/2+x,1/2+y,1/2+z
1/2-x,1/2-y,1/2+z
1/2+x,1/2-y,-z
1/2-x,1/2+y,-z
1/2-x,1/2-y,1/2-z
1/2+x,1/2+y,1/2-z
1/2-x,1/2+y,z
1/2+x,1/2-y,z
loop_
_atom_site_type_symbol
_atom_site_label
_atom_site_fract_x
_atom_site_fract_y
_atom_site_fract_z
Si Si1 0.203732 0.039190 0.409726
Si Si2 0.086751 0.288979 0.000000
Si Si3 0.417677 0.401291 0.333913
Si Si4 0.412926 0.648053 0.500000
Si Si5 0.500000 0.000000 0.321668
Si Si6 0.727593 0.135985 0.500000
Si Si7 0.117165 0.650526 0.606381
Si Si8 0.500000 0.234912 0.250000
O O1 0.123455 0.082695 0.447842
O O2 0.274888 0.149898 0.396146
O O3 0.167107 0.978747 0.357032
O O4 0.258970 0.945945 0.448241
O O5 0.188338 0.234660 0.000000
O O6 0.076590 0.369576 0.050745
O O7 0.018726 0.169955 0.000000
O O8 0.500000 0.500000 0.335533
O O9 0.421944 0.285064 0.374226
O O10 0.428114 0.327415 0.278980
O O11 0.364271 0.786378 0.500000
O O12 0.583748 0.956597 0.355283
O O13 0.468706 0.871691 0.291399
#
# Coordination Sequence:
#
# PCOD9529157 Si02
#       8
#    16   8  16   8   8   8  16   8
#     4  11  22  38  62  93 141 180 221 282 324 398
#     4  12  21  38  59  92 141 184 229 266 312 409
#     4  11  22  42  73  95 125 176 228 279 341 411
#     4  11  23  36  59  90 142 193 219 267 325 383
#     4   9  22  43  72  90 128 179 210 299 354 408
#     4  11  22  40  56  94 144 188 226 273 320 394
#     4  11  23  42  62 104 138 176 231 271 337 411
#     4   9  21  46  70  94 123 159 232 288 354 413
#
# _framework density 21.755032
#
# number of rings (size 3 to 8) (size 9 to 14) (size 15 to 20)
#    0.000    1.273    3.636    1.909    2.545    1.091 
#    6.545    0.909   12.000    0.000    0.000    0.000 
#    0.000    0.000    0.000    0.000    0.000    0.000 
#
# Total GULP energy -245319.336265 kJ/mol
# GULP energy per Si atom -5575.439461 kJ/mol
# Density = 2.170552 g / cm^3
# Si number density = 21.755032 Si / 1000 Ang^3
#
#
#
# Elastic Constant Matrix: (Units=GPa)
#
#
# Indices 1 2 3 4 5 6 
#
# 1 50.9526 27.6474 36.0388 0.0000 0.0000 0.0000
# 2 27.6474 92.4237 44.3834 0.0000 0.0000 0.0000
# 3 36.0388 44.3834 116.3875 0.0000 0.0000 0.0000
# 4 0.0000 0.0000 0.0000 3.2352 0.0000 0.0000
# 5 0.0000 0.0000 0.0000 0.0000 -9.7993 0.0000
# 6 0.0000 0.0000 0.0000 0.0000 0.0000 45.0052
#
#
#
# Elastic Compliance Matrix: (Units=1/GPa)
#
#
# Indices 1 2 3 4 5 6 
#
# 1 0.026858 -0.004946 -0.006430 0.000000 0.000000 0.000000
# 2 -0.004946 0.014156 -0.003867 0.000000 0.000000 0.000000
# 3 -0.006430 -0.003867 0.012058 0.000000 0.000000 0.000000
# 4 0.000000 0.000000 0.000000 0.309096 0.000000 0.000000
# 5 0.000000 0.000000 0.000000 0.000000 -0.102048 0.000000
# 6 0.000000 0.000000 0.000000 0.000000 0.000000 0.022220
#
#
# Mechanical properties :
#
#
# Convention : Reuss Voigt Hill
#
# Bulk Modulus (GPa) = 44.27657 52.87812 48.57735
# Shear Modulus (GPa) = 15.60773 17.80118 16.70446
#
# Velocity S-wave (km/s) = 2.68140 2.86362 2.77400
# Velocity P-wave (km/s) = 5.47568 5.94076 5.71296
#
# Compressibility (1/GPa) = 0.02258531
#
# Stress axis : x y z
#
# Youngs Moduli (GPa) = 37.23268 70.64013 82.93512
#
# Poissons Ratio (x) = 0.34941 0.53329
# Poissons Ratio (y) = 0.18417 0.32069
# Poissons Ratio (z) = 0.23941 0.27315
#
# Static dielectric constant tensor:
#      x y z
#    x 1.786020 0.000000 0.000000 
#    y 0.000000 1.855480 0.000000 
#    z 0.000000 0.000000 1.849470 
# 
# From -- ./inp_files/48636.got.cif
#   From: 2010.05.17/outbox.cif.g08.bks.cpg/sg72_25_cif.got.tgz:48636.got - 2010.06.03 17:03:01.
