data_PCOD9529996
_publ_section_title
;
Structure prediction by ZEFSAII (Michael W. Deem and Ramdas Pophale) SiO2 
 PCOD9529996
Probable space group: I B C A 
;
_chemical_formula_sum "Si O2"
_cell_formula_units_Z 64
_cell_length_a 9.708988
_cell_length_b 21.924950
_cell_length_c 13.582604
_cell_angle_alpha 90.000000
_cell_angle_beta 90.000000
_cell_angle_gamma 90.000000
_cell_volume 2891.316369
_symmetry_space_group_name_H-M "I B C A "
_symmetry_group_IT_number 73
_symmetry_cell_setting 'orthorhombic'
loop_
_space_group_symop_operation_xyz
x,y,z
-x,1/2-y,z
x,-y,1/2-z
1/2-x,y,-z
-x,-y,-z
x,1/2+y,-z
-x,y,1/2+z
1/2+x,-y,z
1/2+x,1/2+y,1/2+z
1/2-x,-y,1/2+z
1/2+x,1/2-y,-z
-x,1/2+y,1/2-z
1/2-x,1/2-y,1/2-z
1/2+x,y,1/2-z
1/2-x,1/2+y,z
x,1/2-y,1/2+z
loop_
_atom_site_type_symbol
_atom_site_label
_atom_site_fract_x
_atom_site_fract_y
_atom_site_fract_z
Si Si1 0.631739 0.856930 0.178429
Si Si2 0.250000 0.106254 0.500000
Si Si3 0.645968 0.432958 0.293887
Si Si4 0.500000 0.250000 0.703855
Si Si5 0.029370 0.316113 0.483317
O O1 0.500303 0.900085 0.199747
O O2 0.758563 0.891578 0.225203
O O3 0.599631 0.792725 0.232964
O O4 0.626790 0.848775 0.060877
O O5 0.287754 0.068024 0.403182
O O6 0.115565 0.147831 0.476555
O O7 0.634769 0.500000 0.250000
O O8 0.423979 0.295428 0.625675
O O9 0.000000 0.250000 0.530901
#
# Coordination Sequence:
#
# PCOD9529996 Si02
#       5
#    16   8  16   8  16
#     4  11  22  40  64  92 123 160 203 252 305 363
#     4  10  20  40  62  82 124 162 200 250 308 356
#     4  11  24  44  63  88 122 166 209 251 297 359
#     4  10  18  38  60  94 126 156 194 254 312 364
#     4   9  19  34  57  89 120 155 193 241 309 364
#
# _framework density 22.135245000000001
#
# number of rings (size 3 to 8) (size 9 to 14) (size 15 to 20)
#    0.750    1.000    3.750    0.750    0.000    3.000 
#    4.500    3.750    0.000    0.000    0.000    0.000 
#    0.000    0.000    0.000    0.000    0.000    0.000 
#
# Total GULP energy -178749.340813 kJ/mol
# GULP energy per Si atom -5585.916900 kJ/mol
# Density = 2.208486 g / cm^3
# Si number density = 22.135245 Si / 1000 Ang^3
#
#
#
# Elastic Constant Matrix: (Units=GPa)
#
#
# Indices 1 2 3 4 5 6 
#
# 1 90.7707 59.5073 57.7988 0.0000 0.0000 0.0000
# 2 59.5073 125.7013 75.3728 -0.0003 0.0000 0.0000
# 3 57.7988 75.3728 131.4047 -0.0004 0.0001 0.0000
# 4 0.0000 -0.0003 -0.0004 603.1013 0.0001 0.0002
# 5 0.0000 0.0000 0.0001 0.0001 67.3856 0.0000
# 6 0.0000 0.0000 0.0000 0.0002 0.0000 -15.4102
#
#
#
# Elastic Compliance Matrix: (Units=1/GPa)
#
#
# Indices 1 2 3 4 5 6 
#
# 1 0.017567 -0.005614 -0.004507 0.000000 0.000000 0.000000
# 2 -0.005614 0.013920 -0.005515 0.000000 0.000000 0.000000
# 3 -0.004507 -0.005515 0.012756 0.000000 0.000000 0.000000
# 4 0.000000 0.000000 0.000000 0.001658 0.000000 0.000000
# 5 0.000000 0.000000 0.000000 0.000000 0.014840 0.000000
# 6 0.000000 0.000000 0.000000 0.000000 0.000000 -0.064892
#
#
# Mechanical properties :
#
#
# Convention : Reuss Voigt Hill
#
# Bulk Modulus (GPa) = 77.09423 81.47050 79.28237
# Shear Modulus (GPa) = 159.01418 141.36185 150.18801
#
# Velocity S-wave (km/s) = 8.48490 8.00009 8.24606
# Velocity P-wave (km/s) = 11.44096 11.05536 11.24981
#
# Compressibility (1/GPa) = 0.01297114
#
# Stress axis : x y z
#
# Youngs Moduli (GPa) = 56.92568 71.83954 78.39558
#
# Poissons Ratio (x) = 0.40329 0.35331
# Poissons Ratio (y) = 0.31957 0.43236
# Poissons Ratio (z) = 0.25655 0.39620
#
# Static dielectric constant tensor:
#      x y z
#    x 1.807520 0.000000 0.000000 
#    y 0.000000 2.047020 0.000000 
#    z 0.000000 0.000000 1.830530 
# 
# From -- ./inp_files/4665.got.cif
#   From: 2010.05.17/outbox.cif.g08.bks.cpg/sg73_3_cif.got.tgz:4665.got - 2010.06.03 17:35:07.
