data_PCOD9529880
_publ_section_title
;
Structure prediction by ZEFSAII (Michael W. Deem and Ramdas Pophale) SiO2 
 PCOD9529880
Probable space group: I B C A 
;
_chemical_formula_sum "Si O2"
_cell_formula_units_Z 104
_cell_length_a 14.015833
_cell_length_b 18.721235
_cell_length_c 18.266630
_cell_angle_alpha 90.000000
_cell_angle_beta 90.000000
_cell_angle_gamma 90.000000
_cell_volume 4793.048693
_symmetry_space_group_name_H-M "I B C A "
_symmetry_group_IT_number 73
_symmetry_cell_setting 'orthorhombic'
loop_
_space_group_symop_operation_xyz
x,y,z
-x,1/2-y,z
x,-y,1/2-z
1/2-x,y,-z
-x,-y,-z
x,1/2+y,-z
-x,y,1/2+z
1/2+x,-y,z
1/2+x,1/2+y,1/2+z
1/2-x,-y,1/2+z
1/2+x,1/2-y,-z
-x,1/2+y,1/2-z
1/2-x,1/2-y,1/2-z
1/2+x,y,1/2-z
1/2-x,1/2+y,z
x,1/2-y,1/2+z
loop_
_atom_site_type_symbol
_atom_site_label
_atom_site_fract_x
_atom_site_fract_y
_atom_site_fract_z
Si Si1 0.705601 0.240637 0.830897
Si Si2 0.354760 0.666923 0.917343
Si Si3 0.464592 0.148883 0.859981
Si Si4 0.285444 0.558643 0.136774
Si Si5 0.218748 0.900773 0.190983
Si Si6 0.491059 0.336152 0.202034
Si Si7 0.500000 0.250000 0.977695
O O1 0.750000 0.250000 0.750000
O O2 0.780005 0.276252 0.885621
O O3 0.609758 0.286396 0.838525
O O4 0.706988 0.156248 0.839646
O O5 0.286681 0.596755 0.919920
O O6 0.433826 0.642517 0.858896
O O7 0.414345 0.713058 0.976758
O O8 0.393088 0.085067 0.881351
O O9 0.513589 0.133671 0.782617
O O10 0.524930 0.182434 0.925544
O O11 0.267410 0.586625 0.221201
O O12 0.278002 0.474370 0.147008
O O13 0.114001 0.864709 0.183546
O O14 0.500000 0.250000 0.203245
#
# Coordination Sequence:
#
# PCOD9529880 Si02
#       7
#    16  16  16  16  16  16   8
#     4  11  17  34  62  88 113 158 205 267 314 384
#     4  11  21  36  61  90 122 157 215 271 326 379
#     4  10  22  35  58  86 126 158 209 268 332 387
#     4   9  21  36  53  83 128 167 196 258 325 400
#     4  10  18  33  58  90 119 152 206 256 330 387
#     4  11  17  33  63  91 116 151 204 284 332 361
#     4  12  24  34  58  94 120 164 218 268 320 392
#
# _framework density 21.698089
#
# number of rings (size 3 to 8) (size 9 to 14) (size 15 to 20)
#    0.000    1.538    7.692    0.000    0.000    2.462 
#    0.000    7.692    0.000   12.000    0.000    0.000 
#    0.000    0.000    0.000    0.000    0.000    0.000 
#
# Total GULP energy -289923.905748 kJ/mol
# GULP energy per Si atom -5575.459726 kJ/mol
# Density = 2.164870 g / cm^3
# Si number density = 21.698089 Si / 1000 Ang^3
#
#
#
# Elastic Constant Matrix: (Units=GPa)
#
#
# Indices 1 2 3 4 5 6 
#
# 1 86.3688 29.3140 35.7848 0.0000 0.0000 0.0000
# 2 29.3140 145.7238 18.8617 0.0000 0.0000 0.0000
# 3 35.7848 18.8617 72.8782 0.0000 0.0000 0.0000
# 4 0.0000 0.0000 0.0000 16.7817 0.0000 0.0000
# 5 0.0000 0.0000 0.0000 0.0000 24.2472 0.0000
# 6 0.0000 0.0000 0.0000 0.0000 0.0000 30.1373
#
#
#
# Elastic Compliance Matrix: (Units=1/GPa)
#
#
# Indices 1 2 3 4 5 6 
#
# 1 0.015165 -0.002159 -0.006887 0.000000 0.000000 0.000000
# 2 -0.002159 0.007408 -0.000857 0.000000 0.000000 0.000000
# 3 -0.006887 -0.000857 0.017325 0.000000 0.000000 0.000000
# 4 0.000000 0.000000 0.000000 0.059589 0.000000 0.000000
# 5 0.000000 0.000000 0.000000 0.000000 0.041242 0.000000
# 6 0.000000 0.000000 0.000000 0.000000 0.000000 0.033181
#
#
# Mechanical properties :
#
#
# Convention : Reuss Voigt Hill
#
# Bulk Modulus (GPa) = 49.77484 52.54351 51.15917
# Shear Modulus (GPa) = 24.94846 28.96727 26.95787
#
# Velocity S-wave (km/s) = 3.39455 3.65775 3.52860
# Velocity P-wave (km/s) = 6.19302 6.48900 6.34274
#
# Compressibility (1/GPa) = 0.02009047
#
# Stress axis : x y z
#
# Youngs Moduli (GPa) = 65.94268 134.99752 57.71941
#
# Poissons Ratio (x) = 0.29147 0.39754
# Poissons Ratio (y) = 0.14238 0.04947
# Poissons Ratio (z) = 0.45417 0.11569
#
# Static dielectric constant tensor:
#      x y z
#    x 1.905180 0.000000 0.000000 
#    y 0.000000 1.818650 0.000000 
#    z 0.000000 0.000000 1.885490 
# 
# From -- ./inp_files/26123.got.cif
#   From: 2010.05.17/outbox.cif.g08.bks.cpg/sg73_14_cif.got.tgz:26123.got - 2010.06.03 17:35:07.
