data_PCOD9529719
_publ_section_title
;
Structure prediction by ZEFSAII (Michael W. Deem and Ramdas Pophale) SiO2 
 PCOD9529719
Probable space group: I B C A 
;
_chemical_formula_sum "Si O2"
_cell_formula_units_Z 120
_cell_length_a 15.709586
_cell_length_b 12.724509
_cell_length_c 23.339917
_cell_angle_alpha 90.000000
_cell_angle_beta 90.000000
_cell_angle_gamma 90.000000
_cell_volume 4665.573984
_symmetry_space_group_name_H-M "I B C A "
_symmetry_group_IT_number 73
_symmetry_cell_setting 'orthorhombic'
loop_
_space_group_symop_operation_xyz
x,y,z
-x,1/2-y,z
x,-y,1/2-z
1/2-x,y,-z
-x,-y,-z
x,1/2+y,-z
-x,y,1/2+z
1/2+x,-y,z
1/2+x,1/2+y,1/2+z
1/2-x,-y,1/2+z
1/2+x,1/2-y,-z
-x,1/2+y,1/2-z
1/2-x,1/2-y,1/2-z
1/2+x,y,1/2-z
1/2-x,1/2+y,z
x,1/2-y,1/2+z
loop_
_atom_site_type_symbol
_atom_site_label
_atom_site_fract_x
_atom_site_fract_y
_atom_site_fract_z
Si Si1 0.653611 0.035837 0.985557
Si Si2 0.668938 0.708575 0.458214
Si Si3 0.000000 0.250000 0.021981
Si Si4 0.190093 0.659089 0.168497
Si Si5 0.618316 0.554141 0.133772
Si Si6 0.057854 0.956301 0.407940
Si Si7 0.949573 0.371438 0.742315
Si Si8 0.361331 0.898446 0.709871
O O1 0.648737 0.915335 0.963533
O O2 0.639341 0.101261 0.927824
O O3 0.750000 0.055218 0.000000
O O4 0.596588 0.027515 0.042260
O O5 0.750000 0.724391 0.500000
O O6 0.583714 0.764075 0.481715
O O7 0.688863 0.723935 0.390891
O O8 0.970801 0.347666 0.061567
O O9 0.184571 0.533683 0.153305
O O10 0.105128 0.674685 0.205867
O O11 0.275959 0.669286 0.204938
O O12 0.526936 0.498288 0.121203
O O13 0.600011 0.639213 0.182113
O O14 0.120230 0.933132 0.355775
O O15 0.947615 0.500000 0.750000
O O16 0.049306 0.348310 0.732155
O O17 0.346260 0.000000 0.750000
#
# Coordination Sequence:
#
# PCOD9529719 Si02
#       8
#    16  16   8  16  16  16  16  16
#     4   9  16  27  46  73 103 136 178 232 299 363
#     4   9  18  33  56  82 107 145 198 243 288 350
#     4  10  20  36  56  78 112 160 204 240 280 342
#     4  10  17  30  53  81 112 144 181 238 304 362
#     4   9  16  27  44  71 106 136 171 227 293 351
#     4  10  19  31  49  76 108 147 193 239 287 354
#     4   8  16  27  43  74 108 137 169 212 278 360
#     4  10  18  30  53  84 111 141 187 244 306 369
#
# _framework density 25.720306999999998
#
# number of rings (size 3 to 8) (size 9 to 14) (size 15 to 20)
#    0.000    2.667    0.000    5.600    0.000    0.000 
#    0.000    0.667    0.000   16.000    0.000   13.067 
#    0.000    0.000    0.000    0.000    0.000    0.000 
#
# Total GULP energy -335382.243297 kJ/mol
# GULP energy per Si atom -5589.704055 kJ/mol
# Density = 2.566177 g / cm^3
# Si number density = 25.720307 Si / 1000 Ang^3
#
#
#
# Elastic Constant Matrix: (Units=GPa)
#
#
# Indices 1 2 3 4 5 6 
#
# 1 172.6067 33.6485 101.5574 0.0000 0.0000 0.0000
# 2 33.6485 80.5379 52.9494 0.0000 0.0000 0.0000
# 3 101.5574 52.9494 215.9828 0.0000 0.0000 0.0000
# 4 0.0000 0.0000 0.0000 28.3498 0.0000 0.0000
# 5 0.0000 0.0000 0.0000 0.0000 42.6661 0.0000
# 6 0.0000 0.0000 0.0000 0.0000 0.0000 -59.7743
#
#
#
# Elastic Compliance Matrix: (Units=1/GPa)
#
#
# Indices 1 2 3 4 5 6 
#
# 1 0.008083 -0.001047 -0.003544 0.000000 0.000000 0.000000
# 2 -0.001047 0.014938 -0.003170 0.000000 0.000000 0.000000
# 3 -0.003544 -0.003170 0.007073 0.000000 0.000000 0.000000
# 4 0.000000 0.000000 0.000000 0.035274 0.000000 0.000000
# 5 0.000000 0.000000 0.000000 0.000000 0.023438 0.000000
# 6 0.000000 0.000000 0.000000 0.000000 0.000000 -0.016730
#
#
# Mechanical properties :
#
#
# Convention : Reuss Voigt Hill
#
# Bulk Modulus (GPa) = 68.62141 93.93754 81.27948
# Shear Modulus (GPa) = 54.08027 20.97978 37.53002
#
# Velocity S-wave (km/s) = 4.59042 2.85913 3.82404
# Velocity P-wave (km/s) = 7.40498 6.89213 7.15315
#
# Compressibility (1/GPa) = 0.01457271
#
# Stress axis : x y z
#
# Youngs Moduli (GPa) = 123.71969 66.94369 141.37297
#
# Poissons Ratio (x) = 0.07009 0.50102
# Poissons Ratio (y) = 0.12954 0.44812
# Poissons Ratio (z) = 0.43845 0.21220
#
# Static dielectric constant tensor:
#      x y z
#    x 2.048580 0.000000 0.000000 
#    y 0.000000 2.092030 0.000000 
#    z 0.000000 0.000000 2.129950 
# 
# From -- ./inp_files/18281.got.cif
#   From: 2010.05.17/outbox.cif.g08.bks.cpg/sg73_10_cif.got.tgz:18281.got - 2010.06.03 17:35:07.
