data_PCOD9529436
_publ_section_title
;
Structure prediction by ZEFSAII (Michael W. Deem and Ramdas Pophale) SiO2 
 PCOD9529436
Probable space group: I B A M
;
_chemical_formula_sum "Si O2"
_cell_formula_units_Z 52
_cell_length_a 22.329775
_cell_length_b 7.184974
_cell_length_c 15.674176
_cell_angle_alpha 90.000000
_cell_angle_beta 90.000000
_cell_angle_gamma 90.000000
_cell_volume 2514.746816
_symmetry_space_group_name_H-M "I B A M"
_symmetry_group_IT_number 72
_symmetry_cell_setting 'orthorhombic'
loop_
_space_group_symop_operation_xyz
x,y,z
-x,-y,z
x,-y,1/2-z
-x,y,1/2-z
-x,-y,-z
x,y,-z
-x,y,1/2+z
x,-y,1/2+z
1/2+x,1/2+y,1/2+z
1/2-x,1/2-y,1/2+z
1/2+x,1/2-y,-z
1/2-x,1/2+y,-z
1/2-x,1/2-y,1/2-z
1/2+x,1/2+y,1/2-z
1/2-x,1/2+y,z
1/2+x,1/2-y,z
loop_
_atom_site_type_symbol
_atom_site_label
_atom_site_fract_x
_atom_site_fract_y
_atom_site_fract_z
Si Si1 0.000000 0.000000 0.000000
Si Si2 0.674493 0.100197 0.158802
Si Si3 0.405217 0.452544 0.655894
Si Si4 0.800953 0.215013 0.096479
O O1 0.051681 0.010733 0.923750
O O2 0.619619 0.241715 0.152359
O O3 0.736101 0.209493 0.140456
O O4 0.676053 0.000000 0.250000
O O5 0.673983 0.924119 0.096186
O O6 0.430256 0.500000 0.750000
O O7 0.347367 0.585513 0.645638
O O8 0.794463 0.144705 0.000000
#
# Coordination Sequence:
#
# PCOD9529436 Si02
#       4
#     4  16  16  16
#     4  12  30  52  78  94 132 206 250 302 350 406
#     4  12  24  41  72 113 148 185 227 290 377 438
#     4  12  26  50  74 102 144 188 245 299 359 432
#     4  12  24  39  70 114 150 185 229 288 366 446
#
# _framework density 20.678025000000002
#
# number of rings (size 3 to 8) (size 9 to 14) (size 15 to 20)
#    0.000    0.000    7.692    3.231    4.308    0.000 
#    0.000    3.077    0.000    0.000    0.000    0.000 
#    0.000    0.000    0.000    0.000    0.000    0.000 
#
# Total GULP energy -144867.086817 kJ/mol
# GULP energy per Si atom -5571.811031 kJ/mol
# Density = 2.063096 g / cm^3
# Si number density = 20.678025 Si / 1000 Ang^3
#
#
#
# Elastic Constant Matrix: (Units=GPa)
#
#
# Indices 1 2 3 4 5 6 
#
# 1 90.7789 13.7543 48.3581 0.0000 0.0000 0.0000
# 2 13.7543 92.7370 6.4111 0.0000 0.0000 0.0000
# 3 48.3581 6.4111 178.2488 0.0000 0.0000 0.0000
# 4 0.0000 0.0000 0.0000 21.8622 0.0000 0.0000
# 5 0.0000 0.0000 0.0000 0.0000 10.6193 0.0000
# 6 0.0000 0.0000 0.0000 0.0000 0.0000 -7.6064
#
#
#
# Elastic Compliance Matrix: (Units=1/GPa)
#
#
# Indices 1 2 3 4 5 6 
#
# 1 0.013141 -0.001707 -0.003504 0.000000 0.000000 0.000000
# 2 -0.001707 0.011032 0.000066 0.000000 0.000000 0.000000
# 3 -0.003504 0.000066 0.006558 0.000000 0.000000 0.000000
# 4 0.000000 0.000000 0.000000 0.045741 0.000000 0.000000
# 5 0.000000 0.000000 0.000000 0.000000 0.094168 0.000000
# 6 0.000000 0.000000 0.000000 0.000000 0.000000 -0.131468
#
#
# Mechanical properties :
#
#
# Convention : Reuss Voigt Hill
#
# Bulk Modulus (GPa) = 48.91773 55.42352 52.17062
# Shear Modulus (GPa) = 88.85075 24.52443 56.68759
#
# Velocity S-wave (km/s) = 6.56216 3.44759 5.24156
# Velocity P-wave (km/s) = 9.00690 6.53522 7.86871
#
# Compressibility (1/GPa) = 0.02044249
#
# Stress axis : x y z
#
# Youngs Moduli (GPa) = 76.09904 90.64750 152.47909
#
# Poissons Ratio (x) = 0.15471 0.53423
# Poissons Ratio (y) = 0.12988 -0.01010
# Poissons Ratio (z) = 0.26662 -0.00601
#
# Static dielectric constant tensor:
#      x y z
#    x 1.686650 0.000000 0.000000 
#    y 0.000000 1.763490 0.000000 
#    z 0.000000 0.000000 1.773900 
# 
# From -- ./inp_files/18306.got.cif
#   From: 2010.05.17/outbox.cif.g08.bks.cpg/sg72_10_cif.got.tgz:18306.got - 2010.06.03 17:03:01.
