data_PCOD9529878
_publ_section_title
;
Structure prediction by ZEFSAII (Michael W. Deem and Ramdas Pophale) SiO2 
 PCOD9529878
Probable space group: I B C A 
;
_chemical_formula_sum "Si O2"
_cell_formula_units_Z 128
_cell_length_a 16.815419
_cell_length_b 17.645881
_cell_length_c 17.899184
_cell_angle_alpha 90.000000
_cell_angle_beta 90.000000
_cell_angle_gamma 90.000000
_cell_volume 5311.097473
_symmetry_space_group_name_H-M "I B C A "
_symmetry_group_IT_number 73
_symmetry_cell_setting 'orthorhombic'
loop_
_space_group_symop_operation_xyz
x,y,z
-x,1/2-y,z
x,-y,1/2-z
1/2-x,y,-z
-x,-y,-z
x,1/2+y,-z
-x,y,1/2+z
1/2+x,-y,z
1/2+x,1/2+y,1/2+z
1/2-x,-y,1/2+z
1/2+x,1/2-y,-z
-x,1/2+y,1/2-z
1/2-x,1/2-y,1/2-z
1/2+x,y,1/2-z
1/2-x,1/2+y,z
x,1/2-y,1/2+z
loop_
_atom_site_type_symbol
_atom_site_label
_atom_site_fract_x
_atom_site_fract_y
_atom_site_fract_z
Si Si1 0.571512 0.518373 0.095691
Si Si2 0.117496 0.727435 0.732067
Si Si3 0.816740 0.677833 0.450827
Si Si4 0.779910 0.805882 0.337119
Si Si5 0.411172 0.548077 0.420876
Si Si6 0.259460 0.036179 0.410878
Si Si7 0.973251 0.163879 0.636326
Si Si8 0.086085 0.772585 0.066593
O O1 0.580948 0.517327 0.005528
O O2 0.459940 0.398215 0.880652
O O3 0.495953 0.467371 0.117448
O O4 0.660919 0.495902 0.120493
O O5 0.142902 0.796390 0.785557
O O6 0.201726 0.687472 0.713884
O O7 0.058425 0.673665 0.778387
O O8 0.089910 0.755387 0.651872
O O9 0.750000 0.633908 0.500000
O O10 0.779247 0.727896 0.384375
O O11 0.895662 0.641661 0.414070
O O12 0.851133 0.736104 0.511588
O O13 0.779227 0.876778 0.391119
O O14 0.329800 0.518247 0.382842
O O15 0.402056 0.638005 0.429205
O O16 0.250000 0.031690 0.500000
O O17 0.000000 0.250000 0.617981
O O18 0.000000 0.750000 0.038356
#
# Coordination Sequence:
#
# PCOD9529878 Si02
#       8
#    16  16  16  16  16  16  16  16
#     4  10  21  37  60  87 118 158 202 252 305 372
#     4  10  21  33  54  87 122 156 198 252 305 363
#     4  11  19  33  56  83 115 151 195 247 308 362
#     4  10  18  33  58  85 116 154 208 245 297 372
#     4  10  20  37  58  89 120 150 201 257 306 362
#     4  10  18  34  64  87 115 162 210 247 304 378
#     4  11  22  37  56  86 121 158 198 247 308 374
#     4  12  22  35  57  90 123 155 197 258 316 368
#
# _framework density 24.100480000000001
#
# number of rings (size 3 to 8) (size 9 to 14) (size 15 to 20)
#    0.000    1.500    2.500    5.625    0.000    0.000 
#    0.000    5.000    0.000    0.000    0.000    0.000 
#    0.000    0.000    0.000    0.000    0.000    0.000 
#
# Total GULP energy -357304.655438 kJ/mol
# GULP energy per Si atom -5582.885241 kJ/mol
# Density = 2.404563 g / cm^3
# Si number density = 24.100480 Si / 1000 Ang^3
#
#
#
# Elastic Constant Matrix: (Units=GPa)
#
#
# Indices 1 2 3 4 5 6 
#
# 1 195.8480 20.8350 30.4347 0.0000 0.0000 0.0000
# 2 20.8350 58.9599 12.3932 0.0000 0.0000 0.0000
# 3 30.4347 12.3932 96.0449 0.0000 0.0000 0.0000
# 4 0.0000 0.0000 0.0000 28.9259 0.0000 0.0000
# 5 0.0000 0.0000 0.0000 0.0000 18.5388 0.0000
# 6 0.0000 0.0000 0.0000 0.0000 0.0000 29.9550
#
#
#
# Elastic Compliance Matrix: (Units=1/GPa)
#
#
# Indices 1 2 3 4 5 6 
#
# 1 0.005518 -0.001627 -0.001539 0.000000 0.000000 0.000000
# 2 -0.001627 0.017913 -0.001796 0.000000 0.000000 0.000000
# 3 -0.001539 -0.001796 0.011131 0.000000 0.000000 0.000000
# 4 0.000000 0.000000 0.000000 0.034571 0.000000 0.000000
# 5 0.000000 0.000000 0.000000 0.000000 0.053941 0.000000
# 6 0.000000 0.000000 0.000000 0.000000 0.000000 0.033383
#
#
# Mechanical properties :
#
#
# Convention : Reuss Voigt Hill
#
# Bulk Modulus (GPa) = 40.58478 53.13094 46.85786
# Shear Modulus (GPa) = 28.63797 34.62994 31.63396
#
# Velocity S-wave (km/s) = 3.45087 3.79476 3.62689
# Velocity P-wave (km/s) = 5.72315 6.42602 6.08474
#
# Compressibility (1/GPa) = 0.02463978
#
# Stress axis : x y z
#
# Youngs Moduli (GPa) = 181.22006 55.82541 89.83814
#
# Poissons Ratio (x) = 0.09080 0.13823
# Poissons Ratio (y) = 0.29476 0.16135
# Poissons Ratio (z) = 0.27884 0.10026
#
# Static dielectric constant tensor:
#      x y z
#    x 2.060960 0.000000 0.000000 
#    y 0.000000 1.953500 0.000000 
#    z 0.000000 0.000000 1.906630 
# 
# From -- ./inp_files/23416.got.cif
#   From: 2010.05.17/outbox.cif.g08.bks.cpg/sg73_12_cif.got.tgz:23416.got - 2010.06.03 17:35:07.
