data_PCOD9529789
_publ_section_title
;
Structure prediction by ZEFSAII (Michael W. Deem and Ramdas Pophale) SiO2 
 PCOD9529789
Probable space group: I B C A 
;
_chemical_formula_sum "Si O2"
_cell_formula_units_Z 104
_cell_length_a 31.046048
_cell_length_b 14.787782
_cell_length_c 9.071103
_cell_angle_alpha 90.000000
_cell_angle_beta 90.000000
_cell_angle_gamma 90.000000
_cell_volume 4164.563251
_symmetry_space_group_name_H-M "I B C A "
_symmetry_group_IT_number 73
_symmetry_cell_setting 'orthorhombic'
loop_
_space_group_symop_operation_xyz
x,y,z
-x,1/2-y,z
x,-y,1/2-z
1/2-x,y,-z
-x,-y,-z
x,1/2+y,-z
-x,y,1/2+z
1/2+x,-y,z
1/2+x,1/2+y,1/2+z
1/2-x,-y,1/2+z
1/2+x,1/2-y,-z
-x,1/2+y,1/2-z
1/2-x,1/2-y,1/2-z
1/2+x,y,1/2-z
1/2-x,1/2+y,z
x,1/2-y,1/2+z
loop_
_atom_site_type_symbol
_atom_site_label
_atom_site_fract_x
_atom_site_fract_y
_atom_site_fract_z
Si Si1 0.856132 0.889502 0.009005
Si Si2 0.031184 0.878317 0.125266
Si Si3 0.612627 0.182753 0.973602
Si Si4 0.250000 0.109147 0.500000
Si Si5 0.177544 0.108462 0.306270
Si Si6 0.450529 0.413992 0.456533
Si Si7 0.816462 0.319191 0.738736
O O1 0.869409 0.783444 0.998877
O O2 0.816941 0.888747 0.125046
O O3 0.839091 0.921276 0.851406
O O4 0.903487 0.929480 0.026997
O O5 0.063112 0.826713 0.013283
O O6 0.045341 0.862992 0.296164
O O7 0.036383 0.984702 0.089467
O O8 0.981702 0.865747 0.075424
O O9 0.636895 0.116087 0.085950
O O10 0.634056 0.164465 0.816194
O O11 0.218126 0.063327 0.384585
O O12 0.215925 0.160936 0.605767
O O13 0.190958 0.215186 0.282905
#
# Coordination Sequence:
#
# PCOD9529789 Si02
#       7
#    16  16  16   8  16  16  16
#     4  10  19  34  52  82 113 144 183 228 268 325
#     4  10  21  39  56  80 107 147 184 231 265 322
#     4   9  18  34  52  75 114 146 177 220 275 320
#     4  10  18  30  48  78 112 152 172 220 282 328
#     4   9  17  31  49  75 111 143 181 221 268 324
#     4  10  22  37  58  80 109 141 189 230 268 316
#     4   9  19  29  49  77 109 146 176 222 269 323
#
# _framework density 24.972607
#
# number of rings (size 3 to 8) (size 9 to 14) (size 15 to 20)
#    0.000    2.462    1.538    1.385    2.154    1.231 
#    0.000    1.538    0.000    0.000    0.000   17.231 
#    0.000    4.923    0.000    0.000    0.000    0.000 
#
# Total GULP energy -290038.172958 kJ/mol
# GULP energy per Si atom -5577.657172 kJ/mol
# Density = 2.491577 g / cm^3
# Si number density = 24.972607 Si / 1000 Ang^3
#
#
#
# Elastic Constant Matrix: (Units=GPa)
#
#
# Indices 1 2 3 4 5 6 
#
# 1 128.9163 23.1957 24.8692 0.0000 0.0000 0.0000
# 2 23.1957 38.7037 15.1262 0.0000 0.0000 0.0000
# 3 24.8692 15.1262 82.2535 0.0000 0.0000 0.0000
# 4 0.0000 0.0000 0.0000 20.9824 0.0000 0.0000
# 5 0.0000 0.0000 0.0000 0.0000 35.0305 0.0000
# 6 0.0000 0.0000 0.0000 0.0000 0.0000 25.3490
#
#
#
# Elastic Compliance Matrix: (Units=1/GPa)
#
#
# Indices 1 2 3 4 5 6 
#
# 1 0.008949 -0.004639 -0.001853 0.000000 0.000000 0.000000
# 2 -0.004639 0.030243 -0.004159 0.000000 0.000000 0.000000
# 3 -0.001853 -0.004159 0.013482 0.000000 0.000000 0.000000
# 4 0.000000 0.000000 0.000000 0.047659 0.000000 0.000000
# 5 0.000000 0.000000 0.000000 0.000000 0.028547 0.000000
# 6 0.000000 0.000000 0.000000 0.000000 0.000000 0.039449
#
#
# Mechanical properties :
#
#
# Convention : Reuss Voigt Hill
#
# Bulk Modulus (GPa) = 31.87448 41.80618 36.84033
# Shear Modulus (GPa) = 24.98888 28.71785 26.85337
#
# Velocity S-wave (km/s) = 3.16674 3.39481 3.28275
# Velocity P-wave (km/s) = 5.11493 5.66952 5.39935
#
# Compressibility (1/GPa) = 0.03137306
#
# Stress axis : x y z
#
# Youngs Moduli (GPa) = 111.74314 33.06532 74.17026
#
# Poissons Ratio (x) = 0.15340 0.13741
# Poissons Ratio (y) = 0.51841 0.30847
# Poissons Ratio (z) = 0.20701 0.13752
#
# Static dielectric constant tensor:
#      x y z
#    x 2.040600 0.000000 0.000000 
#    y 0.000000 2.027270 0.000000 
#    z 0.000000 0.000000 2.048820 
# 
# From -- ./inp_files/6697.got.cif
#   From: 2010.05.17/outbox.cif.g08.bks.cpg/sg73_4_cif.got.tgz:6697.got - 2010.06.03 17:35:07.
