data_PCOD9529199
_publ_section_title
;
Structure prediction by ZEFSAII (Michael W. Deem and Ramdas Pophale) SiO2 
 PCOD9529199
Probable space group: I B A M
;
_chemical_formula_sum "Si O2"
_cell_formula_units_Z 68
_cell_length_a 19.250308
_cell_length_b 9.086066
_cell_length_c 18.492350
_cell_angle_alpha 90.000000
_cell_angle_beta 90.000000
_cell_angle_gamma 90.000000
_cell_volume 3234.488968
_symmetry_space_group_name_H-M "I B A M"
_symmetry_group_IT_number 72
_symmetry_cell_setting 'orthorhombic'
loop_
_space_group_symop_operation_xyz
x,y,z
-x,-y,z
x,-y,1/2-z
-x,y,1/2-z
-x,-y,-z
x,y,-z
-x,y,1/2+z
x,-y,1/2+z
1/2+x,1/2+y,1/2+z
1/2-x,1/2-y,1/2+z
1/2+x,1/2-y,-z
1/2-x,1/2+y,-z
1/2-x,1/2-y,1/2-z
1/2+x,1/2+y,1/2-z
1/2-x,1/2+y,z
1/2+x,1/2-y,z
loop_
_atom_site_type_symbol
_atom_site_label
_atom_site_fract_x
_atom_site_fract_y
_atom_site_fract_z
Si Si1 0.630162 0.664283 0.378518
Si Si2 0.500000 0.000000 0.250000
Si Si3 0.615789 0.500000 0.750000
Si Si4 0.831705 0.607116 0.000000
Si Si5 0.969012 0.764362 0.653125
Si Si6 0.176573 0.951394 0.000000
Si Si7 0.905496 0.315156 0.000000
O O1 0.659706 0.607682 0.302068
O O2 0.661273 0.795006 0.427281
O O3 0.550772 0.702184 0.357540
O O4 0.639543 0.526611 0.432092
O O5 0.540779 0.886461 0.198532
O O6 0.569057 0.605675 0.802114
O O7 0.758404 0.524680 0.000000
O O8 0.892670 0.487837 0.000000
O O9 0.942856 0.736231 0.572534
O O10 0.165644 0.777452 0.000000
#
# Coordination Sequence:
#
# PCOD9529199 Si02
#       7
#    16   4   8   8  16   8   8
#     4  11  22  43  69  94 133 173 224 277 339 411
#     4  12  24  36  60 102 154 168 192 276 368 410
#     4  12  23  42  70 103 137 178 218 269 358 423
#     4  11  26  45  63  92 137 181 230 289 335 384
#     4  12  24  40  68 106 137 176 214 285 356 419
#     4  11  24  43  70  88 124 185 236 280 317 385
#     4  12  24  38  66  99 131 171 237 275 347 410
#
# _framework density 21.023413000000001
#
# number of rings (size 3 to 8) (size 9 to 14) (size 15 to 20)
#    0.000    0.471    4.706    5.647    0.000    2.353 
#    0.000    1.176    0.000    0.000    0.000    0.000 
#    0.000    0.000    0.000    0.000    0.000    0.000 
#
# Total GULP energy -189697.444912 kJ/mol
# GULP energy per Si atom -5579.336615 kJ/mol
# Density = 2.097556 g / cm^3
# Si number density = 21.023413 Si / 1000 Ang^3
#
#
#
# Elastic Constant Matrix: (Units=GPa)
#
#
# Indices 1 2 3 4 5 6 
#
# 1 27.8050 12.2073 29.4792 0.0000 0.0000 0.0000
# 2 12.2073 131.2951 52.3999 0.0000 0.0000 0.0000
# 3 29.4792 52.3999 180.5556 0.0000 0.0000 0.0000
# 4 0.0000 0.0000 0.0000 12.3330 0.0000 0.0000
# 5 0.0000 0.0000 0.0000 0.0000 -32.1282 0.0000
# 6 0.0000 0.0000 0.0000 0.0000 0.0000 19.9915
#
#
#
# Elastic Compliance Matrix: (Units=1/GPa)
#
#
# Indices 1 2 3 4 5 6 
#
# 1 0.043712 -0.001375 -0.006738 0.000000 0.000000 0.000000
# 2 -0.001375 0.008657 -0.002288 0.000000 0.000000 0.000000
# 3 -0.006738 -0.002288 0.007303 0.000000 0.000000 0.000000
# 4 0.000000 0.000000 0.000000 0.081083 0.000000 0.000000
# 5 0.000000 0.000000 0.000000 0.000000 -0.031125 0.000000
# 6 0.000000 0.000000 0.000000 0.000000 0.000000 0.050021
#
#
# Mechanical properties :
#
#
# Convention : Reuss Voigt Hill
#
# Bulk Modulus (GPa) = 25.72672 58.64760 42.18716
# Shear Modulus (GPa) = 25.85194 16.41056 21.13125
#
# Velocity S-wave (km/s) = 3.51047 2.79693 3.17382
# Velocity P-wave (km/s) = 5.35677 6.19575 5.79147
#
# Compressibility (1/GPa) = 0.03887010
#
# Stress axis : x y z
#
# Youngs Moduli (GPa) = 22.87712 115.50779 136.93884
#
# Poissons Ratio (x) = 0.15884 0.92265
# Poissons Ratio (y) = 0.03146 0.31332
# Poissons Ratio (z) = 0.15414 0.26428
#
# Static dielectric constant tensor:
#      x y z
#    x 1.712730 0.000000 0.000000 
#    y 0.000000 1.788940 0.000000 
#    z 0.000000 0.000000 1.785140 
# 
# From -- ./inp_files/27875.got.cif
#   From: 2010.05.17/outbox.cif.g08.bks.cpg/sg72_14_cif.got.tgz:27875.got - 2010.06.03 17:03:01.
