data_PCOD9529300
_publ_section_title
;
Structure prediction by ZEFSAII (Michael W. Deem and Ramdas Pophale) SiO2 
 PCOD9529300
Probable space group: I B A M
;
_chemical_formula_sum "Si O2"
_cell_formula_units_Z 120
_cell_length_a 13.990107
_cell_length_b 27.629700
_cell_length_c 16.297836
_cell_angle_alpha 90.000000
_cell_angle_beta 90.000000
_cell_angle_gamma 90.000000
_cell_volume 6299.805610
_symmetry_space_group_name_H-M "I B A M"
_symmetry_group_IT_number 72
_symmetry_cell_setting 'orthorhombic'
loop_
_space_group_symop_operation_xyz
x,y,z
-x,-y,z
x,-y,1/2-z
-x,y,1/2-z
-x,-y,-z
x,y,-z
-x,y,1/2+z
x,-y,1/2+z
1/2+x,1/2+y,1/2+z
1/2-x,1/2-y,1/2+z
1/2+x,1/2-y,-z
1/2-x,1/2+y,-z
1/2-x,1/2-y,1/2-z
1/2+x,1/2+y,1/2-z
1/2-x,1/2+y,z
1/2+x,1/2-y,z
loop_
_atom_site_type_symbol
_atom_site_label
_atom_site_fract_x
_atom_site_fract_y
_atom_site_fract_z
Si Si1 0.113289 0.385131 0.347832
Si Si2 0.105842 0.868156 0.221761
Si Si3 0.058885 0.550319 0.401960
Si Si4 0.230792 0.447011 0.226690
Si Si5 0.856368 0.212476 0.638557
Si Si6 0.923174 0.212961 0.093699
Si Si7 0.610551 0.784284 0.767595
Si Si8 0.279087 0.833891 0.500000
O O1 0.172239 0.427622 0.305195
O O2 0.116913 0.340812 0.283298
O O3 0.162486 0.364345 0.428616
O O4 0.009100 0.406202 0.369691
O O5 0.182236 0.910313 0.213169
O O6 0.136287 0.829131 0.291319
O O7 0.098468 0.837638 0.137933
O O8 0.000000 0.884813 0.250000
O O9 0.075459 0.555050 0.500000
O O10 0.155878 0.550502 0.348853
O O11 0.000000 0.500000 0.389071
O O12 0.266922 0.500000 0.250000
O O13 0.834914 0.261371 0.690336
O O14 0.784293 0.193972 0.571207
O O15 0.961784 0.218463 0.599263
O O16 0.875354 0.254789 0.148288
O O17 0.891992 0.216487 0.000000
O O18 0.500000 0.772755 0.750000
#
# Coordination Sequence:
#
# PCOD9529300 Si02
#       8
#    16  16  16  16  16  16  16   8
#     4  12  24  40  62  92 126 166 217 274 326 398
#     4   9  20  39  60  90 127 160 203 255 324 388
#     4  11  24  43  65  91 122 166 224 283 333 394
#     4  12  24  41  66  90 120 168 217 267 336 394
#     4   9  18  38  60  88 120 166 202 252 312 391
#     4   9  17  33  63  86 118 162 199 240 303 384
#     4   9  20  37  58  85 126 163 200 259 321 379
#     4  12  22  36  63  94 121 164 219 261 322 382
#
# _framework density 19.048207999999999
#
# number of rings (size 3 to 8) (size 9 to 14) (size 15 to 20)
#    0.000    1.733    4.000    2.800    0.933    1.333 
#    0.000    0.000    1.467    0.000    0.000    4.667 
#    0.000    0.000    0.000    0.000    0.000    0.000 
#
# Total GULP energy -334015.320140 kJ/mol
# GULP energy per Si atom -5566.922002 kJ/mol
# Density = 1.900485 g / cm^3
# Si number density = 19.048208 Si / 1000 Ang^3
#
#
#
# Elastic Constant Matrix: (Units=GPa)
#
#
# Indices 1 2 3 4 5 6 
#
# 1 56.5791 21.8171 22.2004 0.0000 0.0000 0.0000
# 2 21.8171 92.2898 34.0235 0.0000 0.0000 0.0000
# 3 22.2004 34.0235 111.5115 0.0000 0.0000 0.0000
# 4 0.0000 0.0000 0.0000 -6.5960 0.0000 0.0000
# 5 0.0000 0.0000 0.0000 0.0000 30.9069 0.0000
# 6 0.0000 0.0000 0.0000 0.0000 0.0000 31.7598
#
#
#
# Elastic Compliance Matrix: (Units=1/GPa)
#
#
# Indices 1 2 3 4 5 6 
#
# 1 0.020244 -0.003718 -0.002896 0.000000 0.000000 0.000000
# 2 -0.003718 0.012892 -0.003193 0.000000 0.000000 0.000000
# 3 -0.002896 -0.003193 0.010518 0.000000 0.000000 0.000000
# 4 0.000000 0.000000 0.000000 -0.151608 0.000000 0.000000
# 5 0.000000 0.000000 0.000000 0.000000 0.032355 0.000000
# 6 0.000000 0.000000 0.000000 0.000000 0.000000 0.031486
#
#
# Mechanical properties :
#
#
# Convention : Reuss Voigt Hill
#
# Bulk Modulus (GPa) = 41.59724 46.27360 43.93542
# Shear Modulus (GPa) = -303.32715 23.37012 -139.97852
#
# Velocity S-wave (km/s) = -12.63280 3.50650 -8.58172
# Velocity P-wave (km/s) = 13.81659 6.38277 8.66482
#
# Compressibility (1/GPa) = 0.02404006
#
# Stress axis : x y z
#
# Youngs Moduli (GPa) = 49.39638 77.57006 95.07073
#
# Poissons Ratio (x) = 0.28842 0.27532
# Poissons Ratio (y) = 0.18366 0.30357
# Poissons Ratio (z) = 0.14305 0.24769
#
# Static dielectric constant tensor:
#      x y z
#    x 1.690050 0.000000 0.000000 
#    y 0.000000 1.671310 0.000000 
#    z 0.000000 0.000000 1.657960 
# 
# From -- ./inp_files/22477.got.cif
#   From: 2010.05.17/outbox.cif.g08.bks.cpg/sg72_12_cif.got.tgz:22477.got - 2010.06.03 17:03:01.
