data_PCOD9529943
_publ_section_title
;
Structure prediction by ZEFSAII (Michael W. Deem and Ramdas Pophale) SiO2 
 PCOD9529943
Probable space group: I B C A 
;
_chemical_formula_sum "Si O2"
_cell_formula_units_Z 88
_cell_length_a 22.783718
_cell_length_b 9.037710
_cell_length_c 20.415749
_cell_angle_alpha 90.000000
_cell_angle_beta 90.000000
_cell_angle_gamma 90.000000
_cell_volume 4203.860693
_symmetry_space_group_name_H-M "I B C A "
_symmetry_group_IT_number 73
_symmetry_cell_setting 'orthorhombic'
loop_
_space_group_symop_operation_xyz
x,y,z
-x,1/2-y,z
x,-y,1/2-z
1/2-x,y,-z
-x,-y,-z
x,1/2+y,-z
-x,y,1/2+z
1/2+x,-y,z
1/2+x,1/2+y,1/2+z
1/2-x,-y,1/2+z
1/2+x,1/2-y,-z
-x,1/2+y,1/2-z
1/2-x,1/2-y,1/2-z
1/2+x,y,1/2-z
1/2-x,1/2+y,z
x,1/2-y,1/2+z
loop_
_atom_site_type_symbol
_atom_site_label
_atom_site_fract_x
_atom_site_fract_y
_atom_site_fract_z
Si Si1 0.193002 0.574483 0.814451
Si Si2 0.621206 0.864885 0.549214
Si Si3 0.195039 0.067645 0.045289
Si Si4 0.500000 0.750000 0.075890
Si Si5 0.634958 0.373678 0.303112
Si Si6 0.559812 0.902289 0.192389
O O1 0.217804 0.500000 0.750000
O O2 0.219598 0.525273 0.883153
O O3 0.187290 0.751421 0.804700
O O4 0.123998 0.525406 0.820719
O O5 0.656881 0.713090 0.556261
O O6 0.553800 0.820622 0.536736
O O7 0.625233 0.932670 0.622765
O O8 0.652853 0.954911 0.492480
O O9 0.250000 0.099719 0.000000
O O10 0.525754 0.875717 0.125115
O O11 0.641423 0.500000 0.250000
O O12 0.579244 0.264961 0.287006
O O13 0.532147 0.000000 0.250000
#
# Coordination Sequence:
#
# PCOD9529943 Si02
#       6
#    16  16  16   8  16  16
#     4   8  17  36  60  87 117 155 198 250 305 358
#     4  10  23  38  59  91 121 163 200 254 306 365
#     4  11  22  42  64  86 121 165 213 250 304 364
#     4  10  18  36  58  88 130 154 200 256 306 368
#     4   8  15  31  55  85 119 150 194 246 291 354
#     4   8  16  32  56  84 122 162 186 242 308 366
#
# _framework density 20.933138
#
# number of rings (size 3 to 8) (size 9 to 14) (size 15 to 20)
#    1.091    1.818    1.818    0.545    0.000    5.091 
#    0.000    0.909    0.000    5.455    0.000    0.000 
#    0.000    0.000    0.000    0.000    0.000    0.000 
#
# Total GULP energy -245038.290666 kJ/mol
# GULP energy per Si atom -5569.052061 kJ/mol
# Density = 2.088549 g / cm^3
# Si number density = 20.933138 Si / 1000 Ang^3
#
#
#
# Elastic Constant Matrix: (Units=GPa)
#
#
# Indices 1 2 3 4 5 6 
#
# 1 76.3916 1.2289 14.0424 0.0000 0.0000 0.0000
# 2 1.2289 52.7229 47.6354 0.0000 0.0000 0.0000
# 3 14.0424 47.6354 136.4243 0.0000 0.0000 0.0000
# 4 0.0000 0.0000 0.0000 12.7566 0.0000 0.0000
# 5 0.0000 0.0000 0.0000 0.0000 21.7625 0.0000
# 6 0.0000 0.0000 0.0000 0.0000 0.0000 2.2661
#
#
#
# Elastic Compliance Matrix: (Units=1/GPa)
#
#
# Indices 1 2 3 4 5 6 
#
# 1 0.013410 0.001365 -0.001857 0.000000 0.000000 0.000000
# 2 0.001365 0.027848 -0.009864 0.000000 0.000000 0.000000
# 3 -0.001857 -0.009864 0.010965 0.000000 0.000000 0.000000
# 4 0.000000 0.000000 0.000000 0.078391 0.000000 0.000000
# 5 0.000000 0.000000 0.000000 0.000000 0.045951 0.000000
# 6 0.000000 0.000000 0.000000 0.000000 0.000000 0.441290
#
#
# Mechanical properties :
#
#
# Convention : Reuss Voigt Hill
#
# Bulk Modulus (GPa) = 31.73479 43.48357 37.60918
# Shear Modulus (GPa) = 7.70333 20.86584 14.28458
#
# Velocity S-wave (km/s) = 1.92041 3.16062 2.61510
# Velocity P-wave (km/s) = 4.48445 5.84269 5.20804
#
# Compressibility (1/GPa) = 0.03151116
#
# Stress axis : x y z
#
# Youngs Moduli (GPa) = 74.57215 35.90986 91.19545
#
# Poissons Ratio (x) = -0.04903 0.16935
# Poissons Ratio (y) = -0.10181 0.89956
# Poissons Ratio (z) = 0.13848 0.35422
#
# Static dielectric constant tensor:
#      x y z
#    x 1.824370 0.000000 0.000000 
#    y 0.000000 1.741740 0.000000 
#    z 0.000000 0.000000 1.827120 
# 
# From -- ./inp_files/27192.got.cif
#   From: 2010.05.17/outbox.cif.g08.bks.cpg/sg73_14_cif.got.tgz:27192.got - 2010.06.03 17:35:07.
