data_PCOD9529620
_publ_section_title
;
Structure prediction by ZEFSAII (Michael W. Deem and Ramdas Pophale) SiO2 
 PCOD9529620
Probable space group: I B C A 
;
_chemical_formula_sum "Si O2"
_cell_formula_units_Z 96
_cell_length_a 9.954702
_cell_length_b 23.231645
_cell_length_c 20.611978
_cell_angle_alpha 90.000000
_cell_angle_beta 90.000000
_cell_angle_gamma 90.000000
_cell_volume 4766.810602
_symmetry_space_group_name_H-M "I B C A "
_symmetry_group_IT_number 73
_symmetry_cell_setting 'orthorhombic'
loop_
_space_group_symop_operation_xyz
x,y,z
-x,1/2-y,z
x,-y,1/2-z
1/2-x,y,-z
-x,-y,-z
x,1/2+y,-z
-x,y,1/2+z
1/2+x,-y,z
1/2+x,1/2+y,1/2+z
1/2-x,-y,1/2+z
1/2+x,1/2-y,-z
-x,1/2+y,1/2-z
1/2-x,1/2-y,1/2-z
1/2+x,y,1/2-z
1/2-x,1/2+y,z
x,1/2-y,1/2+z
loop_
_atom_site_type_symbol
_atom_site_label
_atom_site_fract_x
_atom_site_fract_y
_atom_site_fract_z
Si Si1 0.908743 0.196243 0.846735
Si Si2 0.954050 0.154941 0.988911
Si Si3 0.171554 0.000000 0.750000
Si Si4 0.122688 0.528145 0.535329
Si Si5 0.356587 0.767395 0.107435
Si Si6 0.581133 0.060809 0.180946
Si Si7 0.250000 0.179316 0.000000
O O1 0.927325 0.192434 0.925104
O O2 0.751070 0.210896 0.841036
O O3 0.934381 0.130481 0.823725
O O4 0.000000 0.250000 0.823402
O O5 0.882936 0.095168 0.981361
O O6 0.900031 0.186231 0.052748
O O7 0.113632 0.145108 0.989539
O O8 0.281345 0.045005 0.720083
O O9 0.061359 0.034697 0.793816
O O10 0.250000 0.501519 0.500000
O O11 0.110263 0.528989 0.612469
O O12 0.000000 0.500000 0.500000
O O13 0.500000 0.750000 0.137042
O O14 0.287076 0.717630 0.063417
#
# Coordination Sequence:
#
# PCOD9529620 Si02
#       7
#    16  16   8  16  16  16   8
#     4  11  18  34  55  89 119 151 199 250 322 367
#     4  10  18  29  49  73 120 167 200 225 284 361
#     4  10  22  50  66  90 106 160 244 250 298 358
#     4  11  23  37  57  93 130 156 192 248 321 369
#     4  10  17  28  46  77 119 163 192 224 273 371
#     4  10  23  41  73  86 120 166 205 275 299 358
#     4  10  16  26  46  74 106 168 196 224 258 366
#
# _framework density 20.139253
#
# number of rings (size 3 to 8) (size 9 to 14) (size 15 to 20)
#    0.000    1.667    3.333    3.500    1.167    0.000 
#    0.000    4.167    0.000    0.000    0.000    0.000 
#    0.000    0.000    0.000    0.000    0.000    0.000 
#
# Total GULP energy -267313.666752 kJ/mol
# GULP energy per Si atom -5569.034724 kJ/mol
# Density = 2.009342 g / cm^3
# Si number density = 20.139253 Si / 1000 Ang^3
#
#
#
# Elastic Constant Matrix: (Units=GPa)
#
#
# Indices 1 2 3 4 5 6 
#
# 1 171.0577 19.8608 46.5618 0.0000 0.0000 0.0000
# 2 19.8608 50.2999 32.1768 0.0000 0.0000 0.0000
# 3 46.5618 32.1768 44.0062 0.0000 0.0000 0.0000
# 4 0.0000 0.0000 0.0000 13.3783 0.0000 0.0000
# 5 0.0000 0.0000 0.0000 0.0000 24.2455 0.0000
# 6 0.0000 0.0000 0.0000 0.0000 0.0000 38.0977
#
#
#
# Elastic Compliance Matrix: (Units=1/GPa)
#
#
# Indices 1 2 3 4 5 6 
#
# 1 0.008751 0.004636 -0.012649 0.000000 0.000000 0.000000
# 2 0.004636 0.039808 -0.034013 0.000000 0.000000 0.000000
# 3 -0.012649 -0.034013 0.060977 0.000000 0.000000 0.000000
# 4 0.000000 0.000000 0.000000 0.074748 0.000000 0.000000
# 5 0.000000 0.000000 0.000000 0.000000 0.041245 0.000000
# 6 0.000000 0.000000 0.000000 0.000000 0.000000 0.026248
#
#
# Mechanical properties :
#
#
# Convention : Reuss Voigt Hill
#
# Bulk Modulus (GPa) = 39.23825 51.39587 45.31706
# Shear Modulus (GPa) = 14.52125 26.26192 20.39158
#
# Velocity S-wave (km/s) = 2.68814 3.61503 3.18548
# Velocity P-wave (km/s) = 5.40005 6.55746 6.00670
#
# Compressibility (1/GPa) = 0.02548534
#
# Stress axis : x y z
#
# Youngs Moduli (GPa) = 114.27661 25.12050 16.39955
#
# Poissons Ratio (x) = -0.11647 0.20744
# Poissons Ratio (y) = -0.52982 0.55779
# Poissons Ratio (z) = 1.44547 0.85442
#
# Static dielectric constant tensor:
#      x y z
#    x 1.764060 0.000000 0.000000 
#    y 0.000000 1.693420 0.000000 
#    z 0.000000 0.000000 1.773850 
# 
# From -- ./inp_files/28427.got.cif
#   From: 2010.05.17/outbox.cif.g08.bks.cpg/sg73_15_cif.got.tgz:28427.got - 2010.06.03 17:35:07.
