data_PCOD9529392
_publ_section_title
;
Structure prediction by ZEFSAII (Michael W. Deem and Ramdas Pophale) SiO2 
 PCOD9529392
Probable space group: I B A M
;
_chemical_formula_sum "Si O2"
_cell_formula_units_Z 40
_cell_length_a 10.271296
_cell_length_b 17.832699
_cell_length_c 9.868468
_cell_angle_alpha 90.000000
_cell_angle_beta 90.000000
_cell_angle_gamma 90.000000
_cell_volume 1807.557250
_symmetry_space_group_name_H-M "I B A M"
_symmetry_group_IT_number 72
_symmetry_cell_setting 'orthorhombic'
loop_
_space_group_symop_operation_xyz
x,y,z
-x,-y,z
x,-y,1/2-z
-x,y,1/2-z
-x,-y,-z
x,y,-z
-x,y,1/2+z
x,-y,1/2+z
1/2+x,1/2+y,1/2+z
1/2-x,1/2-y,1/2+z
1/2+x,1/2-y,-z
1/2-x,1/2+y,-z
1/2-x,1/2-y,1/2-z
1/2+x,1/2+y,1/2-z
1/2-x,1/2+y,z
1/2+x,1/2-y,z
loop_
_atom_site_type_symbol
_atom_site_label
_atom_site_fract_x
_atom_site_fract_y
_atom_site_fract_z
Si Si1 0.608565 0.405695 0.000000
Si Si2 0.320557 0.638705 0.500000
Si Si3 0.162534 0.687603 0.000000
Si Si4 0.303853 0.080878 0.772122
O O1 0.676273 0.437847 0.134273
O O2 0.455759 0.406715 0.000000
O O3 0.678144 0.322748 0.000000
O O4 0.363505 0.725564 0.500000
O O5 0.239587 0.619147 0.366291
O O6 0.120599 0.639863 0.868316
O O7 0.365098 0.000000 0.750000
#
# Coordination Sequence:
#
# PCOD9529392 Si02
#       4
#     8   8   8  16
#     4   8  21  29  43  76  96 121 169 179 252 285
#     4  12  16  31  52  64 105 132 152 206 233 289
#     4   8  21  32  42  77  95 125 173 185 245 290
#     4   9  19  32  46  72 102 125 158 199 245 294
#
# _framework density 22.129313
#
# number of rings (size 3 to 8) (size 9 to 14) (size 15 to 20)
#    2.400    0.000    0.000    4.800    0.000    4.800 
#    0.000    0.000    0.000    0.000    0.000    8.400 
#    0.000    0.000    0.000    0.000    0.000    0.000 
#
# Total GULP energy -111353.256181 kJ/mol
# GULP energy per Si atom -5567.662809 kJ/mol
# Density = 2.207895 g / cm^3
# Si number density = 22.129313 Si / 1000 Ang^3
#
#
#
# Elastic Constant Matrix: (Units=GPa)
#
#
# Indices 1 2 3 4 5 6 
#
# 1 62.4267 10.1529 27.5280 0.0000 0.0000 0.0000
# 2 10.1529 157.5944 63.7356 0.0001 0.0000 0.0000
# 3 27.5280 63.7356 197.5982 0.0001 0.0000 0.0000
# 4 0.0000 0.0001 0.0001 22.7501 0.0000 0.0000
# 5 0.0000 0.0000 0.0000 0.0000 -0.0713 0.0000
# 6 0.0000 0.0000 0.0000 0.0000 0.0000 5.6157
#
#
#
# Elastic Compliance Matrix: (Units=1/GPa)
#
#
# Indices 1 2 3 4 5 6 
#
# 1 0.017071 -0.000159 -0.002327 0.000000 0.000000 0.000000
# 2 -0.000159 0.007299 -0.002332 0.000000 0.000000 0.000000
# 3 -0.002327 -0.002332 0.006137 0.000000 -0.000002 0.000000
# 4 0.000000 0.000000 0.000000 0.043956 -0.000008 0.000000
# 5 0.000000 0.000000 -0.000002 -0.000008-14.017989 -0.000005
# 6 0.000000 0.000000 0.000000 0.000000 -0.000005 0.178071
#
#
# Mechanical properties :
#
#
# Convention : Reuss Voigt Hill
#
# Bulk Modulus (GPa) = 47.91308 68.93913 58.42610
# Shear Modulus (GPa) = -0.36367 26.73908 13.18771
#
# Velocity S-wave (km/s) = -0.40582 3.47985 2.44383
# Velocity P-wave (km/s) = 4.63452 6.88232 5.86707
#
# Compressibility (1/GPa) = 0.02087113
#
# Stress axis : x y z
#
# Youngs Moduli (GPa) = 58.57984 137.00866 162.94099
#
# Poissons Ratio (x) = 0.02174 0.37916
# Poissons Ratio (y) = 0.00929 0.38000
# Poissons Ratio (z) = 0.13631 0.31952
#
# Static dielectric constant tensor:
#      x y z
#    x 1.801090 0.000000 0.000000 
#    y 0.000000 1.798130 0.000000 
#    z 0.000000 0.000000 1.786560 
# 
# From -- ./inp_files/1995.got.cif
#   From: 2010.05.17/outbox.cif.g08.bks.cpg/sg72_1_cif.got.tgz:1995.got - 2010.06.03 17:03:01.
