data_PCOD9529290
_publ_section_title
;
Structure prediction by ZEFSAII (Michael W. Deem and Ramdas Pophale) SiO2 
 PCOD9529290
Probable space group: I B A M
;
_chemical_formula_sum "Si O2"
_cell_formula_units_Z 68
_cell_length_a 15.216880
_cell_length_b 20.554398
_cell_length_c 10.456721
_cell_angle_alpha 90.000000
_cell_angle_beta 90.000000
_cell_angle_gamma 90.000000
_cell_volume 3270.588445
_symmetry_space_group_name_H-M "I B A M"
_symmetry_group_IT_number 72
_symmetry_cell_setting 'orthorhombic'
loop_
_space_group_symop_operation_xyz
x,y,z
-x,-y,z
x,-y,1/2-z
-x,y,1/2-z
-x,-y,-z
x,y,-z
-x,y,1/2+z
x,-y,1/2+z
1/2+x,1/2+y,1/2+z
1/2-x,1/2-y,1/2+z
1/2+x,1/2-y,-z
1/2-x,1/2+y,-z
1/2-x,1/2-y,1/2-z
1/2+x,1/2+y,1/2-z
1/2-x,1/2+y,z
1/2+x,1/2-y,z
loop_
_atom_site_type_symbol
_atom_site_label
_atom_site_fract_x
_atom_site_fract_y
_atom_site_fract_z
Si Si1 0.426697 0.755499 0.647688
Si Si2 0.000000 0.000000 0.750000
Si Si3 0.900946 0.410797 0.500000
Si Si4 0.313923 0.136171 0.240408
Si Si5 0.630003 0.391776 0.355221
Si Si6 0.391125 0.938294 0.500000
O O1 0.500000 0.776121 0.750000
O O2 0.446571 0.773419 0.500000
O O3 0.337102 0.791277 0.690946
O O4 0.418512 0.677742 0.651477
O O5 0.064674 0.049007 0.674541
O O6 0.865038 0.376277 0.626975
O O7 0.870345 0.485587 0.500000
O O8 0.005904 0.420278 0.500000
O O9 0.213251 0.116682 0.263106
O O10 0.351805 0.091488 0.128485
O O11 0.663652 0.399386 0.500000
#
# Coordination Sequence:
#
# PCOD9529290 Si02
#       6
#    16   4   8  16  16   8
#     4  11  24  46  71 106 144 190 243 297 363 427
#     4  12  26  52  76 106 142 194 234 312 370 422
#     4  11  24  42  67  96 148 184 235 293 364 428
#     4  12  24  43  71 103 141 189 237 301 355 431
#     4  11  26  48  72 104 141 186 247 298 363 430
#     4  11  24  42  63 106 138 188 237 287 362 440
#
# _framework density 20.791364000000002
#
# number of rings (size 3 to 8) (size 9 to 14) (size 15 to 20)
#    0.000    0.706    3.529    3.882    4.941    1.882 
#    4.235    0.000    0.000    0.000    0.000    0.000 
#    0.000    0.000    0.000    0.000    0.000    0.000 
#
# Total GULP energy -190025.762660 kJ/mol
# GULP energy per Si atom -5588.993019 kJ/mol
# Density = 2.074404 g / cm^3
# Si number density = 20.791364 Si / 1000 Ang^3
#
#
#
# Elastic Constant Matrix: (Units=GPa)
#
#
# Indices 1 2 3 4 5 6 
#
# 1 91.2956 18.3827 47.5631 0.0000 0.0000 0.0000
# 2 18.3827 133.5633 35.5418 0.0000 0.0000 0.0000
# 3 47.5631 35.5418 161.3808 0.0000 0.0000 0.0000
# 4 0.0000 0.0000 0.0000 72.1595 0.0000 0.0000
# 5 0.0000 0.0000 0.0000 0.0000 37.6024 0.0000
# 6 0.0000 0.0000 0.0000 0.0000 0.0000 30.4533
#
#
#
# Elastic Compliance Matrix: (Units=1/GPa)
#
#
# Indices 1 2 3 4 5 6 
#
# 1 0.013024 -0.000819 -0.003658 0.000000 0.000000 0.000000
# 2 -0.000819 0.008005 -0.001522 0.000000 0.000000 0.000000
# 3 -0.003658 -0.001522 0.007610 0.000000 0.000000 0.000000
# 4 0.000000 0.000000 0.000000 0.013858 0.000000 0.000000
# 5 0.000000 0.000000 0.000000 0.000000 0.026594 0.000000
# 6 0.000000 0.000000 0.000000 0.000000 0.000000 0.032837
#
#
# Mechanical properties :
#
#
# Convention : Reuss Voigt Hill
#
# Bulk Modulus (GPa) = 60.09218 65.46831 62.78024
# Shear Modulus (GPa) = 41.85059 47.02651 44.43855
#
# Velocity S-wave (km/s) = 4.49138 4.76103 4.62817
# Velocity P-wave (km/s) = 7.47408 7.86001 7.66947
#
# Compressibility (1/GPa) = 0.01664110
#
# Stress axis : x y z
#
# Youngs Moduli (GPa) = 76.78026 124.92651 131.40998
#
# Poissons Ratio (x) = 0.10233 0.48072
# Poissons Ratio (y) = 0.06289 0.19994
# Poissons Ratio (z) = 0.28087 0.19008
#
# Static dielectric constant tensor:
#      x y z
#    x 1.749140 0.000000 0.000000 
#    y 0.000000 1.759560 0.000000 
#    z 0.000000 0.000000 1.695920 
# 
# From -- ./inp_files/4445.got.cif
#   From: 2010.05.17/outbox.cif.g08.bks.cpg/sg72_3_cif.got.tgz:4445.got - 2010.06.03 17:03:01.
