data_PCOD9529376
_publ_section_title
;
Structure prediction by ZEFSAII (Michael W. Deem and Ramdas Pophale) SiO2 
 PCOD9529376
Probable space group: I B A M
;
_chemical_formula_sum "Si O2"
_cell_formula_units_Z 48
_cell_length_a 8.598839
_cell_length_b 8.764087
_cell_length_c 25.430887
_cell_angle_alpha 90.000000
_cell_angle_beta 90.000000
_cell_angle_gamma 90.000000
_cell_volume 1916.496391
_symmetry_space_group_name_H-M "I B A M"
_symmetry_group_IT_number 72
_symmetry_cell_setting 'orthorhombic'
loop_
_space_group_symop_operation_xyz
x,y,z
-x,-y,z
x,-y,1/2-z
-x,y,1/2-z
-x,-y,-z
x,y,-z
-x,y,1/2+z
x,-y,1/2+z
1/2+x,1/2+y,1/2+z
1/2-x,1/2-y,1/2+z
1/2+x,1/2-y,-z
1/2-x,1/2+y,-z
1/2-x,1/2-y,1/2-z
1/2+x,1/2+y,1/2-z
1/2-x,1/2+y,z
1/2+x,1/2-y,z
loop_
_atom_site_type_symbol
_atom_site_label
_atom_site_fract_x
_atom_site_fract_y
_atom_site_fract_z
Si Si1 0.119137 0.117114 0.209875
Si Si2 0.883569 0.859533 0.559116
Si Si3 0.405357 0.140882 0.371737
O O1 0.174055 0.242424 0.169870
O O2 0.000000 0.200472 0.250000
O O3 0.207783 0.000000 0.250000
O O4 0.000000 0.000000 0.180745
O O5 0.843669 0.805540 0.500000
O O6 0.730955 0.912512 0.590015
O O7 0.972140 0.731879 0.592606
O O8 0.000000 0.000000 0.554829
O O9 0.500000 0.000000 0.347180
#
# Coordination Sequence:
#
# PCOD9529376 Si02
#       3
#    16  16  16
#     4   6  17  40  68  96 145 181 232 294 346 422
#     4  11  26  46  70 102 148 192 237 294 362 438
#     4  12  23  41  74 106 143 188 241 299 362 420
#
# _framework density 25.045701000000001
#
# number of rings (size 3 to 8) (size 9 to 14) (size 15 to 20)
#    2.000    0.333    0.000    4.000    0.000    6.000 
#    0.000    1.667    0.000    0.000    0.000    2.333 
#    0.000    0.000    0.000    0.000    0.000    0.000 
#
# Total GULP energy -133868.812623 kJ/mol
# GULP energy per Si atom -5577.867193 kJ/mol
# Density = 2.498870 g / cm^3
# Si number density = 25.045701 Si / 1000 Ang^3
#
#
#
# Elastic Constant Matrix: (Units=GPa)
#
#
# Indices 1 2 3 4 5 6 
#
# 1 88.8168 34.7975 33.6268 0.0000 0.0000 0.0000
# 2 34.7975 114.0212 59.7283 0.0000 0.0000 0.0000
# 3 33.6268 59.7283 133.3483 0.0000 0.0000 0.0000
# 4 0.0000 0.0000 0.0000 14.5068 0.0000 0.0000
# 5 0.0000 0.0000 0.0000 0.0000 -184.0113 0.0000
# 6 0.0000 0.0000 0.0000 0.0000 0.0000 41.6353
#
#
#
# Elastic Compliance Matrix: (Units=1/GPa)
#
#
# Indices 1 2 3 4 5 6 
#
# 1 0.013180 -0.002981 -0.001989 0.000000 0.000000 0.000000
# 2 -0.002981 0.012133 -0.004683 0.000000 0.000000 0.000000
# 3 -0.001989 -0.004683 0.010098 0.000000 0.000000 0.000000
# 4 0.000000 0.000000 0.000000 0.068933 0.000000 0.000000
# 5 0.000000 0.000000 0.000000 0.000000 -0.005434 0.000000
# 6 0.000000 0.000000 0.000000 0.000000 0.000000 0.024018
#
#
# Mechanical properties :
#
#
# Convention : Reuss Voigt Hill
#
# Bulk Modulus (GPa) = 62.08532 65.83237 63.95885
# Shear Modulus (GPa) = 33.87512 -11.70495 11.08509
#
# Velocity S-wave (km/s) = 3.68167 -2.16416 2.10608
# Velocity P-wave (km/s) = 6.55100 4.48299 5.61305
#
# Compressibility (1/GPa) = 0.01610687
#
# Stress axis : x y z
#
# Youngs Moduli (GPa) = 75.87379 82.41985 99.02822
#
# Poissons Ratio (x) = 0.24566 0.19692
# Poissons Ratio (y) = 0.22615 0.46374
# Poissons Ratio (z) = 0.15088 0.38596
#
# Static dielectric constant tensor:
#      x y z
#    x 1.951320 0.000000 0.000000 
#    y 0.000000 1.975080 0.000000 
#    z 0.000000 0.000000 2.017210 
# 
# From -- ./inp_files/50490.got.cif
#   From: 2010.05.17/outbox.cif.g08.bks.cpg/sg72_26_cif.got.tgz:50490.got - 2010.06.03 17:03:01.
