data_PCOD9529951
_publ_section_title
;
Structure prediction by ZEFSAII (Michael W. Deem and Ramdas Pophale) SiO2 
 PCOD9529951
Probable space group: I B C A 
;
_chemical_formula_sum "Si O2"
_cell_formula_units_Z 120
_cell_length_a 21.552134
_cell_length_b 23.985191
_cell_length_c 10.330932
_cell_angle_alpha 90.000000
_cell_angle_beta 90.000000
_cell_angle_gamma 90.000000
_cell_volume 5340.389862
_symmetry_space_group_name_H-M "I B C A "
_symmetry_group_IT_number 73
_symmetry_cell_setting 'orthorhombic'
loop_
_space_group_symop_operation_xyz
x,y,z
-x,1/2-y,z
x,-y,1/2-z
1/2-x,y,-z
-x,-y,-z
x,1/2+y,-z
-x,y,1/2+z
1/2+x,-y,z
1/2+x,1/2+y,1/2+z
1/2-x,-y,1/2+z
1/2+x,1/2-y,-z
-x,1/2+y,1/2-z
1/2-x,1/2-y,1/2-z
1/2+x,y,1/2-z
1/2-x,1/2+y,z
x,1/2-y,1/2+z
loop_
_atom_site_type_symbol
_atom_site_label
_atom_site_fract_x
_atom_site_fract_y
_atom_site_fract_z
Si Si1 0.388527 0.080176 0.058006
Si Si2 0.988574 0.462791 0.374503
Si Si3 0.854471 0.972295 0.608167
Si Si4 0.685360 0.642541 0.860488
Si Si5 0.500000 0.250000 0.206916
Si Si6 0.371028 0.754834 0.953006
Si Si7 0.081025 0.171370 0.154455
Si Si8 0.214814 0.838345 0.639854
O O1 0.448703 0.070574 0.145933
O O2 0.334227 0.111312 0.132369
O O3 0.417094 0.120849 0.947249
O O4 0.361351 0.023853 0.991632
O O5 0.979645 0.500000 0.250000
O O6 0.000000 0.500000 0.500000
O O7 0.920640 0.439618 0.399172
O O8 0.807903 0.920979 0.592913
O O9 0.844770 0.000000 0.750000
O O10 0.665466 0.687094 0.969319
O O11 0.625704 0.650694 0.766862
O O12 0.741344 0.657472 0.763592
O O13 0.561653 0.248888 0.118138
O O14 0.484873 0.304218 0.296572
O O15 0.324667 0.717950 0.866467
O O16 0.384221 0.723124 0.086178
O O17 0.250000 0.841333 0.500000
#
# Coordination Sequence:
#
# PCOD9529951 Si02
#       8
#    16  16  16  16   8  16  16  16
#     4  10  20  37  63  92 123 170 217 269 329 404
#     4   9  20  37  61  92 130 172 217 275 335 402
#     4  10  18  36  61  95 121 163 224 261 329 403
#     4  11  21  37  67  91 118 176 217 268 325 398
#     4  10  22  36  60  98 126 158 204 278 344 394
#     4  10  22  38  61  94 128 160 218 267 331 404
#     4  10  20  38  59  92 124 162 206 264 340 387
#     4  11  20  40  64  89 124 178 218 260 334 400
#
# _framework density 22.470269999999999
#
# number of rings (size 3 to 8) (size 9 to 14) (size 15 to 20)
#    0.000    1.867    4.000    0.800    0.000    5.333 
#    0.000    2.000    5.867    2.400    0.000    0.000 
#    0.000    0.000    0.000    0.000    0.000    0.000 
#
# Total GULP energy -334532.784840 kJ/mol
# GULP energy per Si atom -5575.546414 kJ/mol
# Density = 2.241913 g / cm^3
# Si number density = 22.470270 Si / 1000 Ang^3
#
#
#
# Elastic Constant Matrix: (Units=GPa)
#
#
# Indices 1 2 3 4 5 6 
#
# 1 93.5204 33.3131 9.0113 0.0000 0.0000 0.0000
# 2 33.3131 118.2767 21.1630 0.0000 0.0000 0.0000
# 3 9.0113 21.1630 40.9687 0.0000 0.0000 0.0000
# 4 0.0000 0.0000 0.0000 23.1156 0.0000 0.0000
# 5 0.0000 0.0000 0.0000 0.0000 10.5397 0.0000
# 6 0.0000 0.0000 0.0000 0.0000 0.0000 33.8240
#
#
#
# Elastic Compliance Matrix: (Units=1/GPa)
#
#
# Indices 1 2 3 4 5 6 
#
# 1 0.011921 -0.003183 -0.000978 0.000000 0.000000 0.000000
# 2 -0.003183 0.010165 -0.004551 0.000000 0.000000 0.000000
# 3 -0.000978 -0.004551 0.026975 0.000000 0.000000 0.000000
# 4 0.000000 0.000000 0.000000 0.043261 0.000000 0.000000
# 5 0.000000 0.000000 0.000000 0.000000 0.094879 0.000000
# 6 0.000000 0.000000 0.000000 0.000000 0.000000 0.029565
#
#
# Mechanical properties :
#
#
# Convention : Reuss Voigt Hill
#
# Bulk Modulus (GPa) = 31.60779 42.19340 36.90060
# Shear Modulus (GPa) = 20.43024 26.11442 23.27233
#
# Velocity S-wave (km/s) = 3.01859 3.41277 3.22171
# Velocity P-wave (km/s) = 5.12310 5.86068 5.50426
#
# Compressibility (1/GPa) = 0.03163777
#
# Stress axis : x y z
#
# Youngs Moduli (GPa) = 83.88732 98.37246 37.07144
#
# Poissons Ratio (x) = 0.31307 0.03626
# Poissons Ratio (y) = 0.26697 0.16872
# Poissons Ratio (z) = 0.08205 0.44770
#
# Static dielectric constant tensor:
#      x y z
#    x 1.877430 0.000000 0.000000 
#    y 0.000000 1.977730 0.000000 
#    z 0.000000 0.000000 1.858350 
# 
# From -- ./inp_files/13124.got.cif
#   From: 2010.05.17/outbox.cif.g08.bks.cpg/sg73_7_cif.got.tgz:13124.got - 2010.06.03 17:35:07.
