data_PCOD9529889
_publ_section_title
;
Structure prediction by ZEFSAII (Michael W. Deem and Ramdas Pophale) SiO2 
 PCOD9529889
Probable space group: I B C A 
;
_chemical_formula_sum "Si O2"
_cell_formula_units_Z 120
_cell_length_a 16.925832
_cell_length_b 30.429922
_cell_length_c 10.487139
_cell_angle_alpha 90.000000
_cell_angle_beta 90.000000
_cell_angle_gamma 90.000000
_cell_volume 5401.419269
_symmetry_space_group_name_H-M "I B C A "
_symmetry_group_IT_number 73
_symmetry_cell_setting 'orthorhombic'
loop_
_space_group_symop_operation_xyz
x,y,z
-x,1/2-y,z
x,-y,1/2-z
1/2-x,y,-z
-x,-y,-z
x,1/2+y,-z
-x,y,1/2+z
1/2+x,-y,z
1/2+x,1/2+y,1/2+z
1/2-x,-y,1/2+z
1/2+x,1/2-y,-z
-x,1/2+y,1/2-z
1/2-x,1/2-y,1/2-z
1/2+x,y,1/2-z
1/2-x,1/2+y,z
x,1/2-y,1/2+z
loop_
_atom_site_type_symbol
_atom_site_label
_atom_site_fract_x
_atom_site_fract_y
_atom_site_fract_z
Si Si1 0.108617 0.909753 0.480440
Si Si2 0.654952 0.903794 0.496976
Si Si3 0.799343 0.332082 0.132489
Si Si4 0.093685 0.503464 0.511036
Si Si5 0.461575 0.797084 0.668212
Si Si6 0.193433 0.500000 0.250000
Si Si7 0.799773 0.403142 0.759197
Si Si8 0.478166 0.848566 0.922983
O O1 0.141092 0.873065 0.388251
O O2 0.166830 0.906879 0.599833
O O3 0.026202 0.892972 0.539472
O O4 0.112955 0.957682 0.420255
O O5 0.750000 0.902182 0.500000
O O6 0.624097 0.949816 0.441196
O O7 0.635010 0.902149 0.648120
O O8 0.612679 0.862839 0.433901
O O9 0.864764 0.295415 0.165865
O O10 0.742440 0.355378 0.236079
O O11 0.750000 0.322915 0.000000
O O12 0.137297 0.498813 0.374190
O O13 0.000000 0.500000 0.500000
O O14 0.500000 0.750000 0.691510
O O15 0.490160 0.828830 0.783236
O O16 0.493102 0.814783 0.531724
O O17 0.236904 0.547365 0.258201
#
# Coordination Sequence:
#
# PCOD9529889 Si02
#       8
#    16  16  16  16  16   8  16  16
#     4   9  18  33  58  84 117 171 213 250 293 366
#     4  11  22  34  55  86 124 164 207 259 310 362
#     4   9  19  37  63  91 124 164 209 252 315 388
#     4  10  18  34  50  79 121 162 210 250 295 353
#     4  11  24  43  69  97 124 161 208 267 323 391
#     4   8  18  28  50  76 118 170 204 256 302 342
#     4   9  17  33  52  82 124 164 206 252 307 356
#     4  11  22  41  65  92 128 166 212 256 320 377
#
# _framework density 22.216383
#
# number of rings (size 3 to 8) (size 9 to 14) (size 15 to 20)
#    0.000    2.133    1.333    2.000    0.000    3.733 
#    0.000    0.667    0.000   12.800    0.000    0.000 
#    0.000    0.000    0.000    0.000    0.000    0.000 
#
# Total GULP energy -334034.121390 kJ/mol
# GULP energy per Si atom -5567.235357 kJ/mol
# Density = 2.216582 g / cm^3
# Si number density = 22.216383 Si / 1000 Ang^3
#
#
#
# Elastic Constant Matrix: (Units=GPa)
#
#
# Indices 1 2 3 4 5 6 
#
# 1 94.7537 35.2195 6.8837 -0.0002 0.0003 0.0002
# 2 35.2195 81.1850 11.2623 0.0005 -0.0003 -0.0001
# 3 6.8837 11.2623 69.3868 0.0028 -0.0016 -0.0018
# 4 -0.0002 0.0005 0.0028 15.2060 -0.0009 -0.0002
# 5 0.0003 -0.0003 -0.0016 -0.0009 19.1795 -0.0001
# 6 0.0002 -0.0001 -0.0018 -0.0002 -0.0001 14.9894
#
#
#
# Elastic Compliance Matrix: (Units=1/GPa)
#
#
# Indices 1 2 3 4 5 6 
#
# 1 0.012592 -0.005411 -0.000371 0.000000 0.000000 0.000000
# 2 -0.005411 0.014927 -0.001886 0.000000 0.000000 0.000000
# 3 -0.000371 -0.001886 0.014755 -0.000003 0.000001 0.000002
# 4 0.000000 0.000000 -0.000003 0.065763 0.000003 0.000001
# 5 0.000000 0.000000 0.000001 0.000003 0.052139 0.000000
# 6 0.000000 0.000000 0.000002 0.000001 0.000000 0.066714
#
#
# Mechanical properties :
#
#
# Convention : Reuss Voigt Hill
#
# Bulk Modulus (GPa) = 37.12311 39.11739 38.12025
# Shear Modulus (GPa) = 19.90409 22.67233 21.28821
#
# Velocity S-wave (km/s) = 2.99644 3.19803 3.09887
# Velocity P-wave (km/s) = 5.35888 5.59305 5.47722
#
# Compressibility (1/GPa) = 0.02693740
#
# Stress axis : x y z
#
# Youngs Moduli (GPa) = 79.41605 66.99438 67.77425
#
# Poissons Ratio (x) = 0.36252 0.02514
# Poissons Ratio (y) = 0.42973 0.12782
# Poissons Ratio (z) = 0.02946 0.12635
#
# Static dielectric constant tensor:
#      x y z
#    x 2.011480 0.000000 0.000000 
#    y 0.000000 1.882930 0.000000 
#    z 0.000000 0.000000 1.886570 
# 
# From -- ./inp_files/12256.got.cif
#   From: 2010.05.17/outbox.cif.g08.bks.cpg/sg73_7_cif.got.tgz:12256.got - 2010.06.03 17:35:07.
