data_PCOD9529799
_publ_section_title
;
Structure prediction by ZEFSAII (Michael W. Deem and Ramdas Pophale) SiO2 
 PCOD9529799
Probable space group: I B C A 
;
_chemical_formula_sum "Si O2"
_cell_formula_units_Z 96
_cell_length_a 21.304237
_cell_length_b 9.150917
_cell_length_c 23.286142
_cell_angle_alpha 90.000000
_cell_angle_beta 90.000000
_cell_angle_gamma 90.000000
_cell_volume 4539.710333
_symmetry_space_group_name_H-M "I B C A "
_symmetry_group_IT_number 73
_symmetry_cell_setting 'orthorhombic'
loop_
_space_group_symop_operation_xyz
x,y,z
-x,1/2-y,z
x,-y,1/2-z
1/2-x,y,-z
-x,-y,-z
x,1/2+y,-z
-x,y,1/2+z
1/2+x,-y,z
1/2+x,1/2+y,1/2+z
1/2-x,-y,1/2+z
1/2+x,1/2-y,-z
-x,1/2+y,1/2-z
1/2-x,1/2-y,1/2-z
1/2+x,y,1/2-z
1/2-x,1/2+y,z
x,1/2-y,1/2+z
loop_
_atom_site_type_symbol
_atom_site_label
_atom_site_fract_x
_atom_site_fract_y
_atom_site_fract_z
Si Si1 0.512222 0.095340 0.164539
Si Si2 0.554852 0.649330 0.579200
Si Si3 0.827990 0.965344 0.978777
Si Si4 0.404839 0.000000 0.250000
Si Si5 0.727929 0.838319 0.571429
Si Si6 0.345020 0.243272 0.326342
Si Si7 0.619401 0.000000 0.250000
O O1 0.500000 0.250000 0.136075
O O2 0.522087 0.970554 0.118672
O O3 0.451602 0.066180 0.203045
O O4 0.571853 0.089204 0.208034
O O5 0.500000 0.750000 0.554630
O O6 0.600297 0.570204 0.534080
O O7 0.600739 0.734453 0.624577
O O8 0.793422 0.814309 0.958966
O O9 0.797207 0.096773 0.940630
O O10 0.813701 0.031461 0.041825
O O11 0.364758 0.878241 0.218589
O O12 0.714607 0.808389 0.637492
O O13 0.341551 0.393680 0.291152
#
# Coordination Sequence:
#
# PCOD9529799 Si02
#       7
#    16  16  16   8  16  16   8
#     4  10  18  30  53  88 121 164 211 245 314 395
#     4  10  20  37  60  93 127 160 209 267 332 381
#     4  10  21  42  69  91 120 164 219 271 320 399
#     4  11  18  32  56  89 120 169 206 254 313 394
#     4  10  21  42  67  91 117 165 219 268 322 384
#     4  10  20  35  59  90 126 163 212 263 315 386
#     4   9  18  30  52  85 122 161 212 254 313 382
#
# _framework density 21.146723000000001
#
# number of rings (size 3 to 8) (size 9 to 14) (size 15 to 20)
#    0.000    2.000    3.333    2.000    0.000    0.000 
#    6.000    3.333    0.000   23.000    0.000    0.000 
#    0.000    0.000    0.000    0.000    0.000    0.000 
#
# Total GULP energy -267586.477089 kJ/mol
# GULP energy per Si atom -5574.718273 kJ/mol
# Density = 2.109859 g / cm^3
# Si number density = 21.146723 Si / 1000 Ang^3
#
#
#
# Elastic Constant Matrix: (Units=GPa)
#
#
# Indices 1 2 3 4 5 6 
#
# 1 58.1030 29.6889 39.7596 0.0000 0.0000 0.0000
# 2 29.6889 101.7962 22.9747 0.0000 0.0000 0.0000
# 3 39.7596 22.9747 54.5235 0.0000 0.0000 0.0000
# 4 0.0000 0.0000 0.0000 16.4097 0.0000 0.0000
# 5 0.0000 0.0000 0.0000 0.0000 42.3528 0.0000
# 6 0.0000 0.0000 0.0000 0.0000 0.0000 14.7778
#
#
#
# Elastic Compliance Matrix: (Units=1/GPa)
#
#
# Indices 1 2 3 4 5 6 
#
# 1 0.036639 -0.005145 -0.024550 0.000000 0.000000 0.000000
# 2 -0.005145 0.011578 -0.001127 0.000000 0.000000 0.000000
# 3 -0.024550 -0.001127 0.036718 0.000000 0.000000 0.000000
# 4 0.000000 0.000000 0.000000 0.060940 0.000000 0.000000
# 5 0.000000 0.000000 0.000000 0.000000 0.023611 0.000000
# 6 0.000000 0.000000 0.000000 0.000000 0.000000 0.067669
#
#
# Mechanical properties :
#
#
# Convention : Reuss Voigt Hill
#
# Bulk Modulus (GPa) = 42.93413 44.36324 43.64869
# Shear Modulus (GPa) = 16.30980 22.84134 19.57557
#
# Velocity S-wave (km/s) = 2.78018 3.29011 3.04584
# Velocity P-wave (km/s) = 5.53651 5.95461 5.74936
#
# Compressibility (1/GPa) = 0.02329149
#
# Stress axis : x y z
#
# Youngs Moduli (GPa) = 27.29303 86.36725 27.23452
#
# Poissons Ratio (x) = 0.44437 0.66861
# Poissons Ratio (y) = 0.14043 0.03069
# Poissons Ratio (z) = 0.67005 0.09733
#
# Static dielectric constant tensor:
#      x y z
#    x 1.799270 0.000000 0.000000 
#    y 0.000000 1.789490 0.000000 
#    z 0.000000 0.000000 1.734700 
# 
# From -- ./inp_files/30464.got.cif
#   From: 2010.05.17/outbox.cif.g08.bks.cpg/sg73_16_cif.got.tgz:30464.got - 2010.06.03 17:35:07.
