data_PCOD9529282
_publ_section_title
;
Structure prediction by ZEFSAII (Michael W. Deem and Ramdas Pophale) SiO2 
 PCOD9529282
Probable space group: I B A M
;
_chemical_formula_sum "Si O2"
_cell_formula_units_Z 64
_cell_length_a 9.478135
_cell_length_b 10.113899
_cell_length_c 29.286867
_cell_angle_alpha 90.000000
_cell_angle_beta 90.000000
_cell_angle_gamma 90.000000
_cell_volume 2807.465432
_symmetry_space_group_name_H-M "I B A M"
_symmetry_group_IT_number 72
_symmetry_cell_setting 'orthorhombic'
loop_
_space_group_symop_operation_xyz
x,y,z
-x,-y,z
x,-y,1/2-z
-x,y,1/2-z
-x,-y,-z
x,y,-z
-x,y,1/2+z
x,-y,1/2+z
1/2+x,1/2+y,1/2+z
1/2-x,1/2-y,1/2+z
1/2+x,1/2-y,-z
1/2-x,1/2+y,-z
1/2-x,1/2-y,1/2-z
1/2+x,1/2+y,1/2-z
1/2-x,1/2+y,z
1/2+x,1/2-y,z
loop_
_atom_site_type_symbol
_atom_site_label
_atom_site_fract_x
_atom_site_fract_y
_atom_site_fract_z
Si Si1 0.154700 0.363672 0.270011
Si Si2 0.143246 0.705737 0.125676
Si Si3 0.573913 0.857726 0.451406
Si Si4 0.837838 0.974035 0.589747
O O1 0.212935 0.500000 0.250000
O O2 0.250000 0.250000 0.250000
O O3 0.136635 0.356522 0.324396
O O4 0.000000 0.348075 0.250000
O O5 0.167969 0.863684 0.130191
O O6 0.259540 0.611958 0.100791
O O7 0.003776 0.697698 0.093596
O O8 0.552158 0.785626 0.500000
O O9 0.738597 0.893046 0.445312
O O10 0.500000 0.000000 0.454899
O O11 0.000000 0.000000 0.577156
#
# Coordination Sequence:
#
# PCOD9529282 Si02
#       4
#    16  16  16  16
#     4  11  27  45  70 104 138 185 232 286 348 416
#     4  11  24  45  70 100 143 183 228 288 345 413
#     4   9  21  41  67  97 136 182 226 277 341 408
#     4  11  24  40  71 101 137 183 228 284 347 408
#
# _framework density 22.796361999999998
#
# number of rings (size 3 to 8) (size 9 to 14) (size 15 to 20)
#    0.000    1.500    0.000    3.000   17.500    2.000 
#    0.000    5.000    0.000    0.000    0.000    0.000 
#    0.000    0.000    0.000    0.000    0.000    0.000 
#
# Total GULP energy -178484.398077 kJ/mol
# GULP energy per Si atom -5577.637440 kJ/mol
# Density = 2.274448 g / cm^3
# Si number density = 22.796362 Si / 1000 Ang^3
#
#
#
# Elastic Constant Matrix: (Units=GPa)
#
#
# Indices 1 2 3 4 5 6 
#
# 1 144.7477 53.0874 49.4489 0.0000 0.0000 0.0000
# 2 53.0874 149.7205 23.8595 0.0000 0.0000 0.0000
# 3 49.4489 23.8595 146.8951 0.0000 0.0000 0.0000
# 4 0.0000 0.0000 0.0000 -1.0035 0.0000 0.0000
# 5 0.0000 0.0000 0.0000 0.0000 10.5738 0.0000
# 6 0.0000 0.0000 0.0000 0.0000 0.0000 31.4474
#
#
#
# Elastic Compliance Matrix: (Units=1/GPa)
#
#
# Indices 1 2 3 4 5 6 
#
# 1 0.008758 -0.002706 -0.002509 0.000000 0.000000 0.000000
# 2 -0.002706 0.007692 -0.000339 0.000000 0.000000 0.000000
# 3 -0.002509 -0.000339 0.007707 0.000000 0.000000 0.000000
# 4 0.000000 0.000000 0.000000 -0.996513 0.000000 0.000000
# 5 0.000000 0.000000 0.000000 0.000000 0.094574 0.000000
# 6 0.000000 0.000000 0.000000 0.000000 0.000000 0.031799
#
#
# Mechanical properties :
#
#
# Convention : Reuss Voigt Hill
#
# Bulk Modulus (GPa) = 76.61942 77.12834 76.87388
# Shear Modulus (GPa) = -6.02028 29.20135 11.59054
#
# Velocity S-wave (km/s) = -1.62685 3.58294 2.25730
# Velocity P-wave (km/s) = 5.49131 7.14309 6.37096
#
# Compressibility (1/GPa) = 0.01305152
#
# Stress axis : x y z
#
# Youngs Moduli (GPa) = 114.18282 129.99819 129.75072
#
# Poissons Ratio (x) = 0.35172 0.32550
# Poissons Ratio (y) = 0.30893 0.04394
# Poissons Ratio (z) = 0.28645 0.04403
#
# Static dielectric constant tensor:
#      x y z
#    x 1.863770 0.000000 0.000000 
#    y 0.000000 1.865710 0.000000 
#    z 0.000000 0.000000 1.932730 
# 
# From -- ./inp_files/50597.got.cif
#   From: 2010.05.17/outbox.cif.g08.bks.cpg/sg72_26_cif.got.tgz:50597.got - 2010.06.03 17:03:01.
