data_PCOD9529139
_publ_section_title
;
Structure prediction by ZEFSAII (Michael W. Deem and Ramdas Pophale) SiO2 
 PCOD9529139
Probable space group: I B A M
;
_chemical_formula_sum "Si O2"
_cell_formula_units_Z 96
_cell_length_a 27.209189
_cell_length_b 21.137127
_cell_length_c 8.471806
_cell_angle_alpha 90.000000
_cell_angle_beta 90.000000
_cell_angle_gamma 90.000000
_cell_volume 4872.339661
_symmetry_space_group_name_H-M "I B A M"
_symmetry_group_IT_number 72
_symmetry_cell_setting 'orthorhombic'
loop_
_space_group_symop_operation_xyz
x,y,z
-x,-y,z
x,-y,1/2-z
-x,y,1/2-z
-x,-y,-z
x,y,-z
-x,y,1/2+z
x,-y,1/2+z
1/2+x,1/2+y,1/2+z
1/2-x,1/2-y,1/2+z
1/2+x,1/2-y,-z
1/2-x,1/2+y,-z
1/2-x,1/2-y,1/2-z
1/2+x,1/2+y,1/2-z
1/2-x,1/2+y,z
1/2+x,1/2-y,z
loop_
_atom_site_type_symbol
_atom_site_label
_atom_site_fract_x
_atom_site_fract_y
_atom_site_fract_z
Si Si1 0.554783 0.809478 0.813329
Si Si2 0.203807 0.714329 0.317011
Si Si3 0.712716 0.084509 0.680778
Si Si4 0.623871 0.303570 0.311325
Si Si5 0.328279 0.430314 0.309636
Si Si6 0.390767 0.065948 0.682975
O O1 0.500000 0.816922 0.750000
O O2 0.574357 0.737543 0.781882
O O3 0.588315 0.867835 0.750698
O O4 0.554883 0.816651 0.000000
O O5 0.208584 0.693616 0.500000
O O6 0.250000 0.750000 0.250000
O O7 0.199951 0.657976 0.193687
O O8 0.160346 0.763173 0.296979
O O9 0.708964 0.061927 0.500000
O O10 0.769686 0.077454 0.734179
O O11 0.668095 0.060835 0.788298
O O12 0.634117 0.298203 0.500000
O O13 0.636688 0.375817 0.263175
O O14 0.342644 0.500000 0.250000
O O15 0.330299 0.426304 0.500000
O O16 0.400893 0.067767 0.500000
O O17 0.412169 0.000000 0.750000
#
# Coordination Sequence:
#
# PCOD9529139 Si02
#       6
#    16  16  16  16  16  16
#     4  11  25  45  69  95 122 154 201 259 317 377
#     4  12  22  33  55  86 121 162 207 252 300 354
#     4  11  22  37  57  87 126 167 213 254 295 354
#     4  11  23  40  64  89 122 160 204 255 309 370
#     4  11  24  39  60  89 128 169 211 253 303 366
#     4  12  25  41  63  90 126 169 212 257 307 363
#
# _framework density 19.703059
#
# number of rings (size 3 to 8) (size 9 to 14) (size 15 to 20)
#    0.000    0.667    3.333    5.500    0.000    5.667 
#    0.000    1.667    0.000    0.500    0.000    3.500 
#    0.000    0.000    0.000    0.000    0.000    0.000 
#
# Total GULP energy -267494.688745 kJ/mol
# GULP energy per Si atom -5572.806016 kJ/mol
# Density = 1.965821 g / cm^3
# Si number density = 19.703059 Si / 1000 Ang^3
#
#
#
# Elastic Constant Matrix: (Units=GPa)
#
#
# Indices 1 2 3 4 5 6 
#
# 1 79.3575 47.3547 35.1150 0.0000 0.0000 0.0000
# 2 47.3547 158.6365 35.5752 0.0000 0.0000 0.0000
# 3 35.1150 35.5752 92.6219 0.0000 0.0000 0.0000
# 4 0.0000 0.0000 0.0000 31.0722 0.0000 0.0000
# 5 0.0000 0.0000 0.0000 0.0000 15.6236 0.0000
# 6 0.0000 0.0000 0.0000 0.0000 0.0000 3.5883
#
#
#
# Elastic Compliance Matrix: (Units=1/GPa)
#
#
# Indices 1 2 3 4 5 6 
#
# 1 0.017202 -0.004019 -0.004978 0.000000 0.000000 0.000000
# 2 -0.004019 0.007837 -0.001486 0.000000 0.000000 0.000000
# 3 -0.004978 -0.001486 0.013255 0.000000 0.000000 0.000000
# 4 0.000000 0.000000 0.000000 0.032183 0.000000 0.000000
# 5 0.000000 0.000000 0.000000 0.000000 0.064006 0.000000
# 6 0.000000 0.000000 0.000000 0.000000 0.000000 0.278684
#
#
# Mechanical properties :
#
#
# Convention : Reuss Voigt Hill
#
# Bulk Modulus (GPa) = 57.71306 62.96731 60.34018
# Shear Modulus (GPa) = 11.36599 24.22822 17.79711
#
# Velocity S-wave (km/s) = 2.40441 3.51047 3.00870
# Velocity P-wave (km/s) = 6.08796 6.96123 6.53919
#
# Compressibility (1/GPa) = 0.01732710
#
# Stress axis : x y z
#
# Youngs Moduli (GPa) = 58.13284 127.60538 75.44422
#
# Poissons Ratio (x) = 0.51280 0.37557
# Poissons Ratio (y) = 0.23361 0.11214
# Poissons Ratio (z) = 0.28939 0.18968
#
# Static dielectric constant tensor:
#      x y z
#    x 1.657970 0.000000 0.000000 
#    y 0.000000 1.757090 0.000000 
#    z 0.000000 0.000000 1.675830 
# 
# From -- ./inp_files/8076.got.cif
#   From: 2010.05.17/outbox.cif.g08.bks.cpg/sg72_5_cif.got.tgz:8076.got - 2010.06.03 17:03:01.
