data_PCOD9529462
_publ_section_title
;
Structure prediction by ZEFSAII (Michael W. Deem and Ramdas Pophale) SiO2 
 PCOD9529462
Probable space group: I B A M
;
_chemical_formula_sum "Si O2"
_cell_formula_units_Z 68
_cell_length_a 4.890775
_cell_length_b 25.477859
_cell_length_c 20.943184
_cell_angle_alpha 90.000000
_cell_angle_beta 90.000000
_cell_angle_gamma 90.000000
_cell_volume 2609.656351
_symmetry_space_group_name_H-M "I B A M"
_symmetry_group_IT_number 72
_symmetry_cell_setting 'orthorhombic'
loop_
_space_group_symop_operation_xyz
x,y,z
-x,-y,z
x,-y,1/2-z
-x,y,1/2-z
-x,-y,-z
x,y,-z
-x,y,1/2+z
x,-y,1/2+z
1/2+x,1/2+y,1/2+z
1/2-x,1/2-y,1/2+z
1/2+x,1/2-y,-z
1/2-x,1/2+y,-z
1/2-x,1/2-y,1/2-z
1/2+x,1/2+y,1/2-z
1/2-x,1/2+y,z
1/2+x,1/2-y,z
loop_
_atom_site_type_symbol
_atom_site_label
_atom_site_fract_x
_atom_site_fract_y
_atom_site_fract_z
Si Si1 0.500000 0.500000 0.750000
Si Si2 0.323272 0.051172 0.354218
Si Si3 0.747151 0.159347 0.793324
Si Si4 0.237288 0.070938 0.500000
Si Si5 0.442894 0.282872 0.088692
Si Si6 0.255966 0.637334 0.000000
O O1 0.578190 0.542174 0.805538
O O2 0.388447 0.111811 0.336215
O O3 0.289348 0.046499 0.430272
O O4 0.500000 0.000000 0.333511
O O5 0.500000 0.179492 0.750000
O O6 0.885837 0.202301 0.838790
O O7 0.000000 0.142295 0.750000
O O8 0.438259 0.122534 0.500000
O O9 0.913973 0.082031 0.500000
O O10 0.637866 0.234447 0.070016
O O11 0.605347 0.331728 0.058738
#
# Coordination Sequence:
#
# PCOD9529462 Si02
#       6
#     4  16  16   8  16   8
#     4  12  26  50  84 110 164 210 270 316 410 490
#     4  12  28  50  77 119 156 219 264 332 400 482
#     4  12  27  47  76 110 158 206 262 327 394 478
#     4  12  29  48  84 114 159 204 265 333 400 468
#     4  12  26  47  78 110 151 203 261 327 401 475
#     4  12  26  51  78 114 151 206 260 328 409 472
#
# _framework density 26.057071000000001
#
# number of rings (size 3 to 8) (size 9 to 14) (size 15 to 20)
#    0.000    0.000    3.529    5.647    6.588    3.294 
#    0.000    0.000    0.000    0.000    0.000    0.000 
#    0.000    0.000    0.000    0.000    0.000    0.000 
#
# Total GULP energy -189284.621351 kJ/mol
# GULP energy per Si atom -5567.194746 kJ/mol
# Density = 2.599776 g / cm^3
# Si number density = 26.057071 Si / 1000 Ang^3
#
#
#
# Elastic Constant Matrix: (Units=GPa)
#
#
# Indices 1 2 3 4 5 6 
#
# 1 112.2318 15.4342 28.2409 0.0000 0.0000 0.0000
# 2 15.4342 55.8764 34.7771 0.0000 0.0000 0.0000
# 3 28.2409 34.7771 168.0903 0.0000 0.0000 0.0000
# 4 0.0000 0.0000 0.0000 44.4765 0.0000 0.0000
# 5 0.0000 0.0000 0.0000 0.0000 11.8711 0.0000
# 6 0.0000 0.0000 0.0000 0.0000 0.0000 371.9157
#
#
#
# Elastic Compliance Matrix: (Units=1/GPa)
#
#
# Indices 1 2 3 4 5 6 
#
# 1 0.009470 -0.001866 -0.001205 0.000000 0.000000 0.000000
# 2 -0.001866 0.020909 -0.004013 0.000000 0.000000 0.000000
# 3 -0.001205 -0.004013 0.006982 0.000000 0.000000 0.000000
# 4 0.000000 0.000000 0.000000 0.022484 0.000000 0.000000
# 5 0.000000 0.000000 0.000000 0.000000 0.084238 0.000000
# 6 0.000000 0.000000 0.000000 0.000000 0.000000 0.002689
#
#
# Mechanical properties :
#
#
# Convention : Reuss Voigt Hill
#
# Bulk Modulus (GPa) = 43.11389 54.78920 48.95155
# Shear Modulus (GPa) = 29.64367 102.83575 66.23971
#
# Velocity S-wave (km/s) = 3.37656 6.28898 5.04740
# Velocity P-wave (km/s) = 5.63768 8.59112 7.26604
#
# Compressibility (1/GPa) = 0.02319438
#
# Stress axis : x y z
#
# Youngs Moduli (GPa) = 105.59736 47.82530 143.22902
#
# Poissons Ratio (x) = 0.08923 0.17259
# Poissons Ratio (y) = 0.19702 0.57472
# Poissons Ratio (z) = 0.12725 0.19190
#
# Static dielectric constant tensor:
#      x y z
#    x 2.068620 0.000000 0.000000 
#    y 0.000000 2.092820 0.000000 
#    z 0.000000 0.000000 1.929190 
# 
# From -- ./inp_files/34950.got.cif
#   From: 2010.05.17/outbox.cif.g08.bks.cpg/sg72_18_cif.got.tgz:34950.got - 2010.06.03 17:03:01.
