data_PCOD9529521
_publ_section_title
;
Structure prediction by ZEFSAII (Michael W. Deem and Ramdas Pophale) SiO2 
 PCOD9529521
Probable space group: I B A M
;
_chemical_formula_sum "Si O2"
_cell_formula_units_Z 56
_cell_length_a 15.000000
_cell_length_b 12.000000
_cell_length_c 30.000000
_cell_angle_alpha 90.000000
_cell_angle_beta 90.000000
_cell_angle_gamma 90.000000
_cell_volume 5400.000000
_symmetry_space_group_name_H-M "I B A M"
_symmetry_group_IT_number 72
_symmetry_cell_setting 'orthorhombic'
loop_
_space_group_symop_operation_xyz
x,y,z
-x,-y,z
x,-y,1/2-z
-x,y,1/2-z
-x,-y,-z
x,y,-z
-x,y,1/2+z
x,-y,1/2+z
1/2+x,1/2+y,1/2+z
1/2-x,1/2-y,1/2+z
1/2+x,1/2-y,-z
1/2-x,1/2+y,-z
1/2-x,1/2-y,1/2-z
1/2+x,1/2+y,1/2-z
1/2-x,1/2+y,z
1/2+x,1/2-y,z
loop_
_atom_site_type_symbol
_atom_site_label
_atom_site_fract_x
_atom_site_fract_y
_atom_site_fract_z
Si Si1 0.722229 0.963098 0.852273
Si Si2 0.396397 0.468168 0.199982
Si Si3 0.064399 0.394952 0.863697
Si Si4 0.222234 0.953635 0.451434
Si Si5 0.436964 0.604273 0.423506
Si Si6 0.901578 0.743831 0.661594
Si Si7 0.593518 0.243675 0.048004
O O1 0.723055 0.964888 0.906214
O O2 0.675139 0.848174 0.838700
O O3 0.821517 0.980112 0.833110
O O4 0.652934 0.061106 0.839323
O O5 0.500000 0.500000 0.190202
O O6 0.374941 0.500000 0.250000
O O7 0.389627 0.335202 0.198772
O O8 0.091643 0.334229 0.909263
O O9 0.000000 0.500000 0.873948
O O10 0.998846 0.313052 0.836953
O O11 0.266670 0.959845 0.500000
O O12 0.172050 0.834621 0.448483
O O13 0.145491 0.048181 0.448542
O O14 0.500000 0.500000 0.409032
O O15 0.401692 0.680438 0.383268
O O16 0.502494 0.684245 0.450688
O O17 0.600980 0.186457 0.000000
#
# Coordination Sequence:
#
# PCOD9529521 Si02
#       7
#    16  16  16  16  16  16  16
#     4  11  24  40  65  96 132 178 214 260 327 383
#     4  11  26  46  70 101 126 157 211 265 324 392
#     4   9  21  39  59  90 127 176 218 256 317 387
#     4  10  20  32  52  89 130 170 224 276 314 369
#     4   9  16  32  56  83 119 169 219 270 322 371
#     4  10  21  40  67  94 128 170 212 262 321 380
#     4   9  18  30  52  85 122 171 225 272 321 368
#
# _framework density 10.370369999999999
#
# number of rings (size 3 to 8) (size 9 to 14) (size 15 to 20)
#    0.000    2.143    1.429    0.857    6.000    3.143 
#    0.000    9.286    0.000    3.000    0.000    0.000 
#    0.000    0.000    0.000    0.000    0.000    0.000 
#
# Total GULP energy -312488.652980 kJ/mol
# GULP energy per Si atom -5580.154517 kJ/mol
# Density = 1.034677 g / cm^3
# Si number density = 10.370370 Si / 1000 Ang^3
#
#
#
# Elastic Constant Matrix: (Units=GPa)
#
#
# Indices 1 2 3 4 5 6 
#
# 1 94.4676 43.2841 25.2455 0.0000 0.0000 0.0000
# 2 43.2841 110.7768 41.0148 0.0000 0.0000 0.0000
# 3 25.2455 41.0148 80.9217 0.0000 0.0000 0.0000
# 4 0.0000 0.0000 0.0000 -5.7088 0.0000 0.0000
# 5 0.0000 0.0000 0.0000 0.0000 -22.1188 0.0000
# 6 0.0000 0.0000 0.0000 0.0000 0.0000 17.6518
#
#
#
# Elastic Compliance Matrix: (Units=1/GPa)
#
#
# Indices 1 2 3 4 5 6 
#
# 1 0.013113 -0.004443 -0.001839 0.000000 0.000000 0.000000
# 2 -0.004443 0.012618 -0.005009 0.000000 0.000000 0.000000
# 3 -0.001839 -0.005009 0.015470 0.000000 0.000000 0.000000
# 4 0.000000 0.000000 0.000000 -0.175167 0.000000 0.000000
# 5 0.000000 0.000000 0.000000 0.000000 -0.045210 0.000000
# 6 0.000000 0.000000 0.000000 0.000000 0.000000 0.056652
#
#
# Mechanical properties :
#
#
# Convention : Reuss Voigt Hill
#
# Bulk Modulus (GPa) = 53.70933 56.13944 54.92439
# Shear Modulus (GPa) = -53.34069 9.73961 -21.80054
#
# Velocity S-wave (km/s) = -5.07678 2.16935 -3.24558
# Velocity P-wave (km/s) = 2.90053 5.77934 3.53466
#
# Compressibility (1/GPa) = 0.01861874
#
# Stress axis : x y z
#
# Youngs Moduli (GPa) = 76.26202 79.25372 64.64003
#
# Poissons Ratio (x) = 0.35210 0.11888
# Poissons Ratio (y) = 0.33880 0.32380
# Poissons Ratio (z) = 0.14025 0.39700
#
# Static dielectric constant tensor:
#      x y z
#    x 1.728660 0.000000 0.000000 
#    y 0.000000 1.748820 0.000000 
#    z 0.000000 0.000000 1.766860 
# 
# From -- ./inp_files/51793.got.cif
#   From: 2010.05.17/outbox.ucp.g08.bks.cvg/sg72_26_cif.got.tgz:51793.got - 2010.06.11 16:33:07.
