data_PCOD9529367
_publ_section_title
;
Structure prediction by ZEFSAII (Michael W. Deem and Ramdas Pophale) SiO2 
 PCOD9529367
Probable space group: I B A M
;
_chemical_formula_sum "Si O2"
_cell_formula_units_Z 64
_cell_length_a 28.574927
_cell_length_b 6.964598
_cell_length_c 14.291234
_cell_angle_alpha 90.000000
_cell_angle_beta 90.000000
_cell_angle_gamma 90.000000
_cell_volume 2844.139629
_symmetry_space_group_name_H-M "I B A M"
_symmetry_group_IT_number 72
_symmetry_cell_setting 'orthorhombic'
loop_
_space_group_symop_operation_xyz
x,y,z
-x,-y,z
x,-y,1/2-z
-x,y,1/2-z
-x,-y,-z
x,y,-z
-x,y,1/2+z
x,-y,1/2+z
1/2+x,1/2+y,1/2+z
1/2-x,1/2-y,1/2+z
1/2+x,1/2-y,-z
1/2-x,1/2+y,-z
1/2-x,1/2-y,1/2-z
1/2+x,1/2+y,1/2-z
1/2-x,1/2+y,z
1/2+x,1/2-y,z
loop_
_atom_site_type_symbol
_atom_site_label
_atom_site_fract_x
_atom_site_fract_y
_atom_site_fract_z
Si Si1 0.170553 0.578786 0.160080
Si Si2 0.421866 0.269791 0.243395
Si Si3 0.993999 0.768969 0.893999
Si Si4 0.817714 0.700035 0.000000
Si Si5 0.707516 0.358451 0.500000
O O1 0.199387 0.500000 0.250000
O O2 0.125403 0.676020 0.207281
O O3 0.160548 0.398436 0.091798
O O4 0.192917 0.738037 0.091969
O O5 0.415795 0.500000 0.250000
O O6 0.445808 0.218751 0.342222
O O7 0.461934 0.211718 0.168827
O O8 0.995526 0.704270 0.000000
O O9 0.000000 0.000000 0.894338
O O10 0.763522 0.629191 0.000000
O O11 0.815848 0.930487 0.000000
#
# Coordination Sequence:
#
# PCOD9529367 Si02
#       5
#    16  16  16   8   8
#     4  11  26  44  71 112 144 188 236 298 356 447
#     4   9  19  36  60 102 146 188 249 289 353 427
#     4   8  15  32  60  94 140 199 238 294 358 416
#     4  11  25  52  73 105 142 180 242 305 365 449
#     4  11  25  52  75 105 144 182 235 302 374 437
#
# _framework density 22.502410000000001
#
# number of rings (size 3 to 8) (size 9 to 14) (size 15 to 20)
#    0.000    2.250    2.500    1.500    7.000    1.000 
#    4.500    2.500    0.000    1.500    0.000    0.000 
#    0.000    0.000    0.000    0.000    0.000    0.000 
#
# Total GULP energy -178725.181893 kJ/mol
# GULP energy per Si atom -5585.161934 kJ/mol
# Density = 2.245119 g / cm^3
# Si number density = 22.502410 Si / 1000 Ang^3
#
#
#
# Elastic Constant Matrix: (Units=GPa)
#
#
# Indices 1 2 3 4 5 6 
#
# 1 100.9042 28.9753 40.2240 0.0000 0.0000 0.0000
# 2 28.9753 188.5277 56.6332 0.0000 0.0000 0.0000
# 3 40.2240 56.6332 187.3274 0.0000 0.0000 0.0000
# 4 0.0000 0.0000 0.0000 21.6166 0.0000 0.0000
# 5 0.0000 0.0000 0.0000 0.0000 38.7163 0.0000
# 6 0.0000 0.0000 0.0000 0.0000 0.0000 -3.2687
#
#
#
# Elastic Compliance Matrix: (Units=1/GPa)
#
#
# Indices 1 2 3 4 5 6 
#
# 1 0.011035 -0.001083 -0.002042 0.000000 0.000000 0.000000
# 2 -0.001083 0.005940 -0.001563 0.000000 0.000000 0.000000
# 3 -0.002042 -0.001563 0.006249 0.000000 0.000000 0.000000
# 4 0.000000 0.000000 0.000000 0.046261 0.000000 0.000000
# 5 0.000000 0.000000 0.000000 0.000000 0.025829 0.000000
# 6 0.000000 0.000000 0.000000 0.000000 0.000000 -0.305932
#
#
# Mechanical properties :
#
#
# Convention : Reuss Voigt Hill
#
# Bulk Modulus (GPa) = 72.20973 80.93603 76.57288
# Shear Modulus (GPa) = -25.42922 34.80798 4.68938
#
# Velocity S-wave (km/s) = -3.36529 3.93728 1.44515
# Velocity P-wave (km/s) = 4.13028 7.53096 6.07349
#
# Compressibility (1/GPa) = 0.01384855
#
# Stress axis : x y z
#
# Youngs Moduli (GPa) = 90.61763 168.34193 160.01441
#
# Poissons Ratio (x) = 0.18224 0.32680
# Poissons Ratio (y) = 0.09810 0.25017
# Poissons Ratio (z) = 0.18507 0.26319
#
# Static dielectric constant tensor:
#      x y z
#    x 1.800000 0.000000 0.000000 
#    y 0.000000 1.910530 0.000000 
#    z 0.000000 0.000000 1.864330 
# 
# From -- ./inp_files/26191.got.cif
#   From: 2010.05.17/outbox.cif.g08.bks.cpg/sg72_14_cif.got.tgz:26191.got - 2010.06.03 17:03:01.
