data_PCOD9529539
_publ_section_title
;
Structure prediction by ZEFSAII (Michael W. Deem and Ramdas Pophale) SiO2 
 PCOD9529539
Probable space group: I B A M
;
_chemical_formula_sum "Si O2"
_cell_formula_units_Z 56
_cell_length_a 12.000000
_cell_length_b 15.000000
_cell_length_c 30.000000
_cell_angle_alpha 90.000000
_cell_angle_beta 90.000000
_cell_angle_gamma 90.000000
_cell_volume 5400.000000
_symmetry_space_group_name_H-M "I B A M"
_symmetry_group_IT_number 72
_symmetry_cell_setting 'orthorhombic'
loop_
_space_group_symop_operation_xyz
x,y,z
-x,-y,z
x,-y,1/2-z
-x,y,1/2-z
-x,-y,-z
x,y,-z
-x,y,1/2+z
x,-y,1/2+z
1/2+x,1/2+y,1/2+z
1/2-x,1/2-y,1/2+z
1/2+x,1/2-y,-z
1/2-x,1/2+y,-z
1/2-x,1/2-y,1/2-z
1/2+x,1/2+y,1/2-z
1/2-x,1/2+y,z
1/2+x,1/2-y,z
loop_
_atom_site_type_symbol
_atom_site_label
_atom_site_fract_x
_atom_site_fract_y
_atom_site_fract_z
Si Si1 0.694517 0.666612 0.309349
Si Si2 0.252456 0.868932 0.789042
Si Si3 0.465417 0.600976 0.650890
Si Si4 0.768686 0.602313 0.595603
Si Si5 0.499530 0.844120 0.949203
Si Si6 0.112346 0.442635 0.868312
Si Si7 0.529314 0.633902 0.448567
O O1 0.711759 0.766649 0.293702
O O2 0.727630 0.611407 0.263836
O O3 0.568534 0.654742 0.327248
O O4 0.763328 0.648697 0.355224
O O5 0.142405 0.879535 0.819569
O O6 0.347050 0.917328 0.818861
O O7 0.500000 0.500000 0.658515
O O8 0.458556 0.610394 0.596670
O O9 0.874984 0.632723 0.566710
O O10 0.790089 0.500812 0.609517
O O11 0.655566 0.613369 0.567721
O O12 0.420862 0.873915 0.907808
O O13 0.485612 0.739158 0.952141
O O14 0.478348 0.880693 0.000000
O O15 0.000000 0.500000 0.863638
O O16 0.508204 0.600036 0.500000
#
# Coordination Sequence:
#
# PCOD9529539 Si02
#       7
#    16  16  16  16  16  16  16
#     4  10  23  39  62  88 115 155 201 240 289 352
#     4  11  22  41  63  86 119 158 198 246 297 350
#     4  11  23  40  62  88 122 160 198 243 298 364
#     4  10  20  37  58  83 115 149 186 240 294 345
#     4  10  21  38  59  82 112 153 195 233 287 357
#     4  10  22  38  59  87 116 149 191 241 294 350
#     4  10  21  37  59  86 114 148 193 243 290 342
#
# _framework density 10.370369999999999
#
# number of rings (size 3 to 8) (size 9 to 14) (size 15 to 20)
#    0.000    1.714    0.000    5.143    0.000    7.429 
#    0.000   10.000    0.000    0.000    0.000    0.000 
#    0.000    0.000    0.000    0.000    0.000    0.000 
#
# Total GULP energy -312013.772710 kJ/mol
# GULP energy per Si atom -5571.674513 kJ/mol
# Density = 1.034677 g / cm^3
# Si number density = 10.370370 Si / 1000 Ang^3
#
#
#
# Elastic Constant Matrix: (Units=GPa)
#
#
# Indices 1 2 3 4 5 6 
#
# 1 28.7762 9.2187 27.2545 0.0000 0.0000 0.0000
# 2 9.2187 63.4594 13.6452 0.0000 0.0000 0.0000
# 3 27.2545 13.6452 172.8041 0.0000 0.0000 0.0000
# 4 0.0000 0.0000 0.0000 35.3016 0.0000 0.0000
# 5 0.0000 0.0000 0.0000 0.0000 -4.1908 0.0000
# 6 0.0000 0.0000 0.0000 0.0000 0.0000 29.7065
#
#
#
# Elastic Compliance Matrix: (Units=1/GPa)
#
#
# Indices 1 2 3 4 5 6 
#
# 1 0.042235 -0.004784 -0.006283 0.000000 0.000000 0.000000
# 2 -0.004784 0.016572 -0.000554 0.000000 0.000000 0.000000
# 3 -0.006283 -0.000554 0.006822 0.000000 0.000000 0.000000
# 4 0.000000 0.000000 0.000000 0.028327 0.000000 0.000000
# 5 0.000000 0.000000 0.000000 0.000000 -0.238617 0.000000
# 6 0.000000 0.000000 0.000000 0.000000 0.000000 0.033663
#
#
# Mechanical properties :
#
#
# Convention : Reuss Voigt Hill
#
# Bulk Modulus (GPa) = 23.59317 40.58627 32.08972
# Shear Modulus (GPa) = -67.91068 26.49156 -20.70956
#
# Velocity S-wave (km/s) = -5.72833 3.57777 -3.16333
# Velocity P-wave (km/s) = 5.68785 6.05625 1.47079
#
# Compressibility (1/GPa) = 0.04238515
#
# Stress axis : x y z
#
# Youngs Moduli (GPa) = 23.67716 60.34189 146.59177
#
# Poissons Ratio (x) = 0.28869 0.92110
# Poissons Ratio (y) = 0.11328 0.08122
# Poissons Ratio (z) = 0.14877 0.03343
#
# Static dielectric constant tensor:
#      x y z
#    x 1.772000 0.000000 0.000000 
#    y 0.000000 1.808960 0.000000 
#    z 0.000000 0.000000 1.793540 
# 
# From -- ./inp_files/51468.got.cif
#   From: 2010.05.17/outbox.ucp.g08.bks.cvg/sg72_26_cif.got.tgz:51468.got - 2010.06.11 16:33:07.
