data_PCOD9529278
_publ_section_title
;
Structure prediction by ZEFSAII (Michael W. Deem and Ramdas Pophale) SiO2 
 PCOD9529278
Probable space group: I B A M
;
_chemical_formula_sum "Si O2"
_cell_formula_units_Z 112
_cell_length_a 14.389874
_cell_length_b 24.920095
_cell_length_c 17.236446
_cell_angle_alpha 90.000000
_cell_angle_beta 90.000000
_cell_angle_gamma 90.000000
_cell_volume 6180.938294
_symmetry_space_group_name_H-M "I B A M"
_symmetry_group_IT_number 72
_symmetry_cell_setting 'orthorhombic'
loop_
_space_group_symop_operation_xyz
x,y,z
-x,-y,z
x,-y,1/2-z
-x,y,1/2-z
-x,-y,-z
x,y,-z
-x,y,1/2+z
x,-y,1/2+z
1/2+x,1/2+y,1/2+z
1/2-x,1/2-y,1/2+z
1/2+x,1/2-y,-z
1/2-x,1/2+y,-z
1/2-x,1/2-y,1/2-z
1/2+x,1/2+y,1/2-z
1/2-x,1/2+y,z
1/2+x,1/2-y,z
loop_
_atom_site_type_symbol
_atom_site_label
_atom_site_fract_x
_atom_site_fract_y
_atom_site_fract_z
Si Si1 0.978066 0.725479 0.660257
Si Si2 0.488892 0.338059 0.913595
Si Si3 0.686938 0.395821 0.362227
Si Si4 0.891301 0.990619 0.091550
Si Si5 0.353060 0.614259 0.180760
Si Si6 0.240525 0.276415 0.664178
Si Si7 0.651439 0.822778 0.591562
O O1 0.998793 0.776037 0.605509
O O2 0.868959 0.714666 0.651171
O O3 0.000000 0.739790 0.750000
O O4 0.052493 0.681372 0.634585
O O5 0.382631 0.355412 0.906280
O O6 0.544336 0.369249 0.847378
O O7 0.523551 0.350988 0.000000
O O8 0.663952 0.454545 0.393587
O O9 0.661703 0.393471 0.271660
O O10 0.788673 0.372527 0.376783
O O11 0.841775 0.942207 0.136953
O O12 0.893943 0.978646 0.000000
O O13 0.000000 0.000000 0.116120
O O14 0.291291 0.666200 0.158337
O O15 0.250000 0.250000 0.750000
O O16 0.290175 0.231740 0.610789
O O17 0.638867 0.827216 0.500000
#
# Coordination Sequence:
#
# PCOD9529278 Si02
#       7
#    16  16  16  16  16  16  16
#     4  12  22  38  60  88 125 164 211 256 317 388
#     4  12  22  33  55  88 125 163 205 260 318 383
#     4  12  23  40  60  85 124 171 213 254 321 392
#     4  11  24  40  60  89 127 167 212 269 329 385
#     4  12  23  38  62  91 122 164 216 260 320 388
#     4  12  22  41  64  93 126 167 204 263 322 376
#     4  12  25  39  60  90 125 167 210 256 323 391
#
# _framework density 18.120227
#
# number of rings (size 3 to 8) (size 9 to 14) (size 15 to 20)
#    0.000    0.143    7.143    3.857    0.000    1.714 
#    0.000    0.000    0.000    0.857    0.000    5.000 
#    0.000    0.000    0.000    0.000    0.000    0.000 
#
# Total GULP energy -312910.873223 kJ/mol
# GULP energy per Si atom -5587.694165 kJ/mol
# Density = 1.807898 g / cm^3
# Si number density = 18.120227 Si / 1000 Ang^3
#
#
#
# Elastic Constant Matrix: (Units=GPa)
#
#
# Indices 1 2 3 4 5 6 
#
# 1 114.0668 35.8323 21.2458 0.0000 0.0000 0.0000
# 2 35.8323 100.7165 19.6571 0.0001 0.0000 0.0000
# 3 21.2458 19.6571 104.8688 0.0002 0.0000 0.0000
# 4 0.0000 0.0001 0.0002 51.0443 0.0000 0.0000
# 5 0.0000 0.0000 0.0000 0.0000 11.0927 0.0000
# 6 0.0000 0.0000 0.0000 0.0000 0.0000 26.8927
#
#
#
# Elastic Compliance Matrix: (Units=1/GPa)
#
#
# Indices 1 2 3 4 5 6 
#
# 1 0.010070 -0.003305 -0.001420 0.000000 0.000000 0.000000
# 2 -0.003305 0.011391 -0.001466 0.000000 0.000000 0.000000
# 3 -0.001420 -0.001466 0.010098 0.000000 0.000000 0.000000
# 4 0.000000 0.000000 0.000000 0.019591 0.000000 0.000000
# 5 0.000000 0.000000 0.000000 0.000000 0.090149 0.000000
# 6 0.000000 0.000000 0.000000 0.000000 0.000000 0.037185
#
#
# Mechanical properties :
#
#
# Convention : Reuss Voigt Hill
#
# Bulk Modulus (GPa) = 52.14823 52.56917 52.35870
# Shear Modulus (GPa) = 25.34746 34.00039 29.67393
#
# Velocity S-wave (km/s) = 3.74418 4.33642 4.05113
# Velocity P-wave (km/s) = 6.89444 7.35846 7.13023
#
# Compressibility (1/GPa) = 0.01917611
#
# Stress axis : x y z
#
# Youngs Moduli (GPa) = 99.30806 87.78991 99.02745
#
# Poissons Ratio (x) = 0.29017 0.14067
# Poissons Ratio (y) = 0.32824 0.14513
# Poissons Ratio (z) = 0.14107 0.12866
#
# Static dielectric constant tensor:
#      x y z
#    x 1.630460 0.000000 0.000000 
#    y 0.000000 1.622740 0.000000 
#    z 0.000000 0.000000 1.631380 
# 
# From -- ./inp_files/22128.got.cif
#   From: 2010.05.17/outbox.cif.g08.bks.cpg/sg72_12_cif.got.tgz:22128.got - 2010.06.03 17:03:01.
