data_PCOD9529985
_publ_section_title
;
Structure prediction by ZEFSAII (Michael W. Deem and Ramdas Pophale) SiO2 
 PCOD9529985
Probable space group: I B C A 
;
_chemical_formula_sum "Si O2"
_cell_formula_units_Z 88
_cell_length_a 15.239428
_cell_length_b 13.974150
_cell_length_c 17.650261
_cell_angle_alpha 90.000000
_cell_angle_beta 90.000000
_cell_angle_gamma 90.000000
_cell_volume 3758.765214
_symmetry_space_group_name_H-M "I B C A "
_symmetry_group_IT_number 73
_symmetry_cell_setting 'orthorhombic'
loop_
_space_group_symop_operation_xyz
x,y,z
-x,1/2-y,z
x,-y,1/2-z
1/2-x,y,-z
-x,-y,-z
x,1/2+y,-z
-x,y,1/2+z
1/2+x,-y,z
1/2+x,1/2+y,1/2+z
1/2-x,-y,1/2+z
1/2+x,1/2-y,-z
-x,1/2+y,1/2-z
1/2-x,1/2-y,1/2-z
1/2+x,y,1/2-z
1/2-x,1/2+y,z
x,1/2-y,1/2+z
loop_
_atom_site_type_symbol
_atom_site_label
_atom_site_fract_x
_atom_site_fract_y
_atom_site_fract_z
Si Si1 0.648852 0.616874 0.351436
Si Si2 0.497237 0.604997 0.736572
Si Si3 0.804258 0.205667 0.576985
Si Si4 0.835800 0.924515 0.446996
Si Si5 0.512964 0.139888 0.441064
Si Si6 0.000000 0.750000 0.147271
O O1 0.601509 0.606624 0.270829
O O2 0.741549 0.668375 0.356813
O O3 0.658826 0.514585 0.391137
O O4 0.574111 0.685263 0.391870
O O5 0.533629 0.500000 0.750000
O O6 0.496689 0.629265 0.649335
O O7 0.546768 0.677895 0.792825
O O8 0.750000 0.205812 0.500000
O O9 0.828096 0.317293 0.588688
O O10 0.882285 0.130951 0.559164
O O11 0.750000 0.935630 0.500000
O O12 0.935072 0.918117 0.482492
O O13 0.500000 0.250000 0.462906
#
# Coordination Sequence:
#
# PCOD9529985 Si02
#       6
#    16  16  16  16  16   8
#     4  10  20  42  65  96 137 170 230 296 338 420
#     4  10  18  37  67  94 132 175 224 286 355 406
#     4  10  23  42  64  97 138 185 235 280 348 415
#     4  10  21  40  66  97 136 183 228 283 344 409
#     4  10  18  39  67  90 134 180 227 283 345 409
#     4   8  20  36  66  94 124 176 216 280 362 398
#
# _framework density 23.411943999999998
#
# number of rings (size 3 to 8) (size 9 to 14) (size 15 to 20)
#    1.091    1.091    2.727    0.545    0.000    0.000 
#   14.727   10.909    0.000    0.000    0.000    0.000 
#    0.000    0.000    0.000    0.000    0.000    0.000 
#
# Total GULP energy -245057.289434 kJ/mol
# GULP energy per Si atom -5569.483851 kJ/mol
# Density = 2.335866 g / cm^3
# Si number density = 23.411944 Si / 1000 Ang^3
#
#
#
# Elastic Constant Matrix: (Units=GPa)
#
#
# Indices 1 2 3 4 5 6 
#
# 1 139.6314 55.5009 30.4277 0.0000 0.0000 0.0000
# 2 55.5009 130.4821 23.4443 0.0000 0.0000 0.0000
# 3 30.4277 23.4443 71.6289 0.0000 0.0000 0.0000
# 4 0.0000 0.0000 0.0000 19.1774 0.0000 0.0000
# 5 0.0000 0.0000 0.0000 0.0000 37.7141 0.0000
# 6 0.0000 0.0000 0.0000 0.0000 0.0000 45.5602
#
#
#
# Elastic Compliance Matrix: (Units=1/GPa)
#
#
# Indices 1 2 3 4 5 6 
#
# 1 0.009106 -0.003377 -0.002763 0.000000 0.000000 0.000000
# 2 -0.003377 0.009395 -0.001641 0.000000 0.000000 0.000000
# 3 -0.002763 -0.001641 0.015671 0.000000 0.000000 0.000000
# 4 0.000000 0.000000 0.000000 0.052145 0.000000 0.000000
# 5 0.000000 0.000000 0.000000 0.000000 0.026515 0.000000
# 6 0.000000 0.000000 0.000000 0.000000 0.000000 0.021949
#
#
# Mechanical properties :
#
#
# Convention : Reuss Voigt Hill
#
# Bulk Modulus (GPa) = 53.72922 62.27647 58.00284
# Shear Modulus (GPa) = 31.93946 35.98165 33.96055
#
# Velocity S-wave (km/s) = 3.69757 3.92458 3.81276
# Velocity P-wave (km/s) = 6.42095 6.86982 6.64918
#
# Compressibility (1/GPa) = 0.01861185
#
# Stress axis : x y z
#
# Youngs Moduli (GPa) = 109.81738 106.43968 63.81013
#
# Poissons Ratio (x) = 0.35943 0.17630
# Poissons Ratio (y) = 0.37084 0.10468
# Poissons Ratio (z) = 0.30342 0.17462
#
# Static dielectric constant tensor:
#      x y z
#    x 1.992970 0.000000 0.000000 
#    y 0.000000 1.991740 0.000000 
#    z 0.000000 0.000000 1.966080 
# 
# From -- ./inp_files/29463.got.cif
#   From: 2010.05.17/outbox.cif.g08.bks.cpg/sg73_15_cif.got.tgz:29463.got - 2010.06.03 17:35:07.
