data_PCOD9529872
_publ_section_title
;
Structure prediction by ZEFSAII (Michael W. Deem and Ramdas Pophale) SiO2 
 PCOD9529872
Probable space group: I B C A 
;
_chemical_formula_sum "Si O2"
_cell_formula_units_Z 120
_cell_length_a 12.229835
_cell_length_b 20.775313
_cell_length_c 24.830018
_cell_angle_alpha 90.000000
_cell_angle_beta 90.000000
_cell_angle_gamma 90.000000
_cell_volume 6308.777454
_symmetry_space_group_name_H-M "I B C A "
_symmetry_group_IT_number 73
_symmetry_cell_setting 'orthorhombic'
loop_
_space_group_symop_operation_xyz
x,y,z
-x,1/2-y,z
x,-y,1/2-z
1/2-x,y,-z
-x,-y,-z
x,1/2+y,-z
-x,y,1/2+z
1/2+x,-y,z
1/2+x,1/2+y,1/2+z
1/2-x,-y,1/2+z
1/2+x,1/2-y,-z
-x,1/2+y,1/2-z
1/2-x,1/2-y,1/2-z
1/2+x,y,1/2-z
1/2-x,1/2+y,z
x,1/2-y,1/2+z
loop_
_atom_site_type_symbol
_atom_site_label
_atom_site_fract_x
_atom_site_fract_y
_atom_site_fract_z
Si Si1 0.593153 0.000000 0.750000
Si Si2 0.537058 0.058031 0.569565
Si Si3 0.907736 0.834304 0.352907
Si Si4 0.852465 0.689422 0.318775
Si Si5 0.413187 0.521972 0.331166
Si Si6 0.747502 0.391063 0.729571
Si Si7 0.003360 0.407293 0.045600
Si Si8 0.780951 0.414032 0.104052
O O1 0.516228 0.010688 0.801730
O O2 0.668623 0.937846 0.761091
O O3 0.462065 0.066291 0.621806
O O4 0.488067 0.096436 0.518707
O O5 0.662613 0.073508 0.580727
O O6 0.535448 0.980900 0.559082
O O7 0.869244 0.761183 0.341085
O O8 0.813209 0.874722 0.324575
O O9 0.933994 0.858757 0.413693
O O10 0.024413 0.839662 0.322014
O O11 0.796431 0.671002 0.261962
O O12 0.779939 0.649750 0.360438
O O13 0.353750 0.564791 0.286830
O O14 0.329886 0.471443 0.358374
O O15 0.874752 0.403482 0.059620
#
# Coordination Sequence:
#
# PCOD9529872 Si02
#       8
#     8  16  16  16  16  16  16  16
#     4  12  22  34  54  82 120 156 186 238 300 358
#     4  10  19  33  55  84 112 140 181 241 295 348
#     4  10  21  38  55  76 110 148 190 238 282 345
#     4  10  21  35  56  80 105 148 197 233 279 343
#     4  11  21  32  52  85 119 150 184 236 308 365
#     4  12  21  34  54  80 113 148 189 234 289 353
#     4   9  19  34  55  80 109 145 184 230 294 350
#     4  10  18  33  54  81 111 143 185 230 286 357
#
# _framework density 19.021118000000001
#
# number of rings (size 3 to 8) (size 9 to 14) (size 15 to 20)
#    0.000    1.600    0.000    8.400    0.000    0.000 
#    0.000    2.000    0.000   11.200    0.000    0.000 
#    0.000    0.000    0.000    0.000    0.000    0.000 
#
# Total GULP energy -334571.750788 kJ/mol
# GULP energy per Si atom -5576.195846 kJ/mol
# Density = 1.897782 g / cm^3
# Si number density = 19.021118 Si / 1000 Ang^3
#
#
#
# Elastic Constant Matrix: (Units=GPa)
#
#
# Indices 1 2 3 4 5 6 
#
# 1 82.9644 34.7444 46.8472 0.0000 0.0000 0.0000
# 2 34.7444 77.1496 31.6814 0.0000 0.0000 0.0000
# 3 46.8472 31.6814 104.7116 0.0000 0.0000 0.0000
# 4 0.0000 0.0000 0.0000 22.6980 0.0000 0.0000
# 5 0.0000 0.0000 0.0000 0.0000 29.6477 0.0000
# 6 0.0000 0.0000 0.0000 0.0000 0.0000 24.9311
#
#
#
# Elastic Compliance Matrix: (Units=1/GPa)
#
#
# Indices 1 2 3 4 5 6 
#
# 1 0.017940 -0.005462 -0.006374 0.000000 0.000000 0.000000
# 2 -0.005462 0.016464 -0.002538 0.000000 0.000000 0.000000
# 3 -0.006374 -0.002538 0.013169 0.000000 0.000000 0.000000
# 4 0.000000 0.000000 0.000000 0.044057 0.000000 0.000000
# 5 0.000000 0.000000 0.000000 0.000000 0.033729 0.000000
# 6 0.000000 0.000000 0.000000 0.000000 0.000000 0.040111
#
#
# Mechanical properties :
#
#
# Convention : Reuss Voigt Hill
#
# Bulk Modulus (GPa) = 53.11647 54.59686 53.85666
# Shear Modulus (GPa) = 24.93880 25.55887 25.24884
#
# Velocity S-wave (km/s) = 3.62486 3.66964 3.64732
# Velocity P-wave (km/s) = 6.74574 6.83525 6.79064
#
# Compressibility (1/GPa) = 0.01882655
#
# Stress axis : x y z
#
# Youngs Moduli (GPa) = 55.74253 60.73986 75.93419
#
# Poissons Ratio (x) = 0.33175 0.48397
# Poissons Ratio (y) = 0.30446 0.19269
# Poissons Ratio (z) = 0.35528 0.15414
#
# Static dielectric constant tensor:
#      x y z
#    x 1.661610 0.000000 0.000000 
#    y 0.000000 1.685790 0.000000 
#    z 0.000000 0.000000 1.715030 
# 
# From -- ./inp_files/31909.got.cif
#   From: 2010.05.17/outbox.cif.g08.bks.cpg/sg73_16_cif.got.tgz:31909.got - 2010.06.03 17:35:07.
