data_PCOD9529664
_publ_section_title
;
Structure prediction by ZEFSAII (Michael W. Deem and Ramdas Pophale) SiO2 
 PCOD9529664
Probable space group: I B C A 
;
_chemical_formula_sum "Si O2"
_cell_formula_units_Z 88
_cell_length_a 22.529383
_cell_length_b 5.310048
_cell_length_c 32.061717
_cell_angle_alpha 90.000000
_cell_angle_beta 90.000000
_cell_angle_gamma 90.000000
_cell_volume 3835.610699
_symmetry_space_group_name_H-M "I B C A "
_symmetry_group_IT_number 73
_symmetry_cell_setting 'orthorhombic'
loop_
_space_group_symop_operation_xyz
x,y,z
-x,1/2-y,z
x,-y,1/2-z
1/2-x,y,-z
-x,-y,-z
x,1/2+y,-z
-x,y,1/2+z
1/2+x,-y,z
1/2+x,1/2+y,1/2+z
1/2-x,-y,1/2+z
1/2+x,1/2-y,-z
-x,1/2+y,1/2-z
1/2-x,1/2-y,1/2-z
1/2+x,y,1/2-z
1/2-x,1/2+y,z
x,1/2-y,1/2+z
loop_
_atom_site_type_symbol
_atom_site_label
_atom_site_fract_x
_atom_site_fract_y
_atom_site_fract_z
Si Si1 0.000000 0.250000 0.972184
Si Si2 0.589486 0.758278 0.723726
Si Si3 0.725651 0.279492 0.297278
Si Si4 0.317322 0.379202 0.517171
Si Si5 0.611504 0.753613 0.409506
Si Si6 0.066910 0.746834 0.369826
O O1 0.058291 0.246367 0.943236
O O2 0.000000 0.500000 0.000000
O O3 0.589324 0.500000 0.750000
O O4 0.656710 0.821049 0.709583
O O5 0.559968 0.714248 0.679421
O O6 0.566909 0.000000 0.750000
O O7 0.750000 0.250000 0.250000
O O8 0.758078 0.514945 0.317998
O O9 0.250000 0.408268 0.500000
O O10 0.344776 0.654936 0.510602
O O11 0.328315 0.291967 0.564317
O O12 0.597663 0.520070 0.379173
O O13 0.605353 0.022309 0.387498
O O14 0.000000 0.750000 0.388444
#
# Coordination Sequence:
#
# PCOD9529664 Si02
#       6
#     8  16  16  16  16  16
#     4  12  22  36  68 106 118 162 226 270 314 388
#     4  12  23  39  67  96 121 173 236 287 337 401
#     4  10  16  32  60  85 117 145 195 279 342 368
#     4  10  21  40  71  98 133 178 216 267 329 392
#     4  12  23  44  67  95 141 175 221 274 341 408
#     4  12  26  45  64  93 140 187 218 289 356 392
#
# _framework density 22.942893000000002
#
# number of rings (size 3 to 8) (size 9 to 14) (size 15 to 20)
#    0.000    0.727    5.455    4.364    0.000    0.727 
#    0.000    0.000   24.000    0.000    0.000    0.000 
#    0.000    0.000    0.000    0.000    0.000    0.000 
#
# Total GULP energy -245899.931617 kJ/mol
# GULP energy per Si atom -5588.634809 kJ/mol
# Density = 2.289067 g / cm^3
# Si number density = 22.942893 Si / 1000 Ang^3
#
#
#
# Elastic Constant Matrix: (Units=GPa)
#
#
# Indices 1 2 3 4 5 6 
#
# 1 61.9070 -32.3065 3.8095 0.0000 0.0000 0.0000
# 2 -32.3065 157.8551 17.9588 0.0000 0.0000 0.0000
# 3 3.8095 17.9588 79.6578 0.0000 0.0000 0.0000
# 4 0.0000 0.0000 0.0000 28.7562 0.0000 0.0000
# 5 0.0000 0.0000 0.0000 0.0000 26.6635 0.0000
# 6 0.0000 0.0000 0.0000 0.0000 0.0000 1.5793
#
#
#
# Elastic Compliance Matrix: (Units=1/GPa)
#
#
# Indices 1 2 3 4 5 6 
#
# 1 0.018324 0.003951 -0.001767 0.000000 0.000000 0.000000
# 2 0.003951 0.007354 -0.001847 0.000000 0.000000 0.000000
# 3 -0.001767 -0.001847 0.013055 0.000000 0.000000 0.000000
# 4 0.000000 0.000000 0.000000 0.034775 0.000000 0.000000
# 5 0.000000 0.000000 0.000000 0.000000 0.037504 0.000000
# 6 0.000000 0.000000 0.000000 0.000000 0.000000 0.633196
#
#
# Mechanical properties :
#
#
# Convention : Reuss Voigt Hill
#
# Bulk Modulus (GPa) = 25.37640 30.92708 28.15174
# Shear Modulus (GPa) = 6.60791 32.06365 19.33578
#
# Velocity S-wave (km/s) = 1.69894 3.74243 2.90621
# Velocity P-wave (km/s) = 3.86435 5.67306 4.85370
#
# Compressibility (1/GPa) = 0.03940669
#
# Stress axis : x y z
#
# Youngs Moduli (GPa) = 54.57337 135.98623 76.60147
#
# Poissons Ratio (x) = -0.53731 0.13536
# Poissons Ratio (y) = -0.21563 0.14147
# Poissons Ratio (z) = 0.09644 0.25115
#
# Static dielectric constant tensor:
#      x y z
#    x 1.156220 0.000000 0.000000 
#    y 0.000000 2.124950 0.000000 
#    z 0.000000 0.000000 1.751110 
# 
# From -- ./inp_files/30627.got.cif
#   From: 2010.05.17/outbox.cif.g08.bks.cpg/sg73_16_cif.got.tgz:30627.got - 2010.06.03 17:35:07.
