data_PCOD9529801
_publ_section_title
;
Structure prediction by ZEFSAII (Michael W. Deem and Ramdas Pophale) SiO2 
 PCOD9529801
Probable space group: I B C A 
;
_chemical_formula_sum "Si O2"
_cell_formula_units_Z 120
_cell_length_a 25.260847
_cell_length_b 8.628890
_cell_length_c 29.083327
_cell_angle_alpha 90.000000
_cell_angle_beta 90.000000
_cell_angle_gamma 90.000000
_cell_volume 6339.382074
_symmetry_space_group_name_H-M "I B C A "
_symmetry_group_IT_number 73
_symmetry_cell_setting 'orthorhombic'
loop_
_space_group_symop_operation_xyz
x,y,z
-x,1/2-y,z
x,-y,1/2-z
1/2-x,y,-z
-x,-y,-z
x,1/2+y,-z
-x,y,1/2+z
1/2+x,-y,z
1/2+x,1/2+y,1/2+z
1/2-x,-y,1/2+z
1/2+x,1/2-y,-z
-x,1/2+y,1/2-z
1/2-x,1/2-y,1/2-z
1/2+x,y,1/2-z
1/2-x,1/2+y,z
x,1/2-y,1/2+z
loop_
_atom_site_type_symbol
_atom_site_label
_atom_site_fract_x
_atom_site_fract_y
_atom_site_fract_z
Si Si1 0.072631 0.618678 0.966082
Si Si2 0.304445 0.500000 0.250000
Si Si3 0.941792 0.686070 0.642655
Si Si4 0.864788 0.949812 0.605676
Si Si5 0.723517 0.203712 0.163200
Si Si6 0.859090 0.545728 0.698292
Si Si7 0.842352 0.288284 0.172039
Si Si8 0.547073 0.032521 0.941246
O O1 0.120538 0.520921 0.943682
O O2 0.072580 0.799769 0.952372
O O3 0.016310 0.552735 0.947469
O O4 0.068318 0.588238 0.020459
O O5 0.275007 0.406740 0.208948
O O6 0.336929 0.629344 0.221854
O O7 0.905901 0.815612 0.618030
O O8 0.912233 0.641886 0.689634
O O9 0.943091 0.540034 0.608316
O O10 0.000000 0.750000 0.649610
O O11 0.807296 0.883407 0.621754
O O12 0.873166 0.094006 0.639977
O O13 0.687437 0.350293 0.176967
O O14 0.782380 0.261037 0.153891
O O15 0.846861 0.500000 0.750000
O O16 0.865757 0.381174 0.673955
#
# Coordination Sequence:
#
# PCOD9529801 Si02
#       8
#    16   8  16  16  16  16  16  16
#     4  10  19  34  58  95 116 147 181 232 297 346
#     4  10  18  30  54  82 112 146 190 248 310 340
#     4  11  22  40  57  79 117 157 196 248 291 347
#     4  10  21  36  55  84 120 155 190 233 294 355
#     4  10  21  33  56  85 116 153 188 248 297 349
#     4  11  22  36  55  81 111 152 201 239 293 351
#     4  11  21  34  54  85 115 148 194 245 300 349
#     4  10  20  33  61  88 121 144 184 239 290 341
#
# _framework density 18.929290000000002
#
# number of rings (size 3 to 8) (size 9 to 14) (size 15 to 20)
#    0.000    1.600    2.667    3.600    3.733    0.000 
#    0.000    1.333    0.000    0.000    0.000   31.733 
#    0.000    0.000    0.000    0.000    0.000    0.000 
#
# Total GULP energy -334690.223661 kJ/mol
# GULP energy per Si atom -5578.170394 kJ/mol
# Density = 1.888621 g / cm^3
# Si number density = 18.929290 Si / 1000 Ang^3
#
#
#
# Elastic Constant Matrix: (Units=GPa)
#
#
# Indices 1 2 3 4 5 6 
#
# 1 52.8254 15.5937 14.7961 0.0000 0.0000 0.0000
# 2 15.5937 99.8722 7.5934 0.0000 0.0000 0.0000
# 3 14.7961 7.5934 33.5168 0.0000 0.0000 0.0000
# 4 0.0000 0.0000 0.0000 35.5682 0.0000 0.0000
# 5 0.0000 0.0000 0.0000 0.0000 7.8252 0.0000
# 6 0.0000 0.0000 0.0000 0.0000 0.0000 23.8302
#
#
#
# Elastic Compliance Matrix: (Units=1/GPa)
#
#
# Indices 1 2 3 4 5 6 
#
# 1 0.022338 -0.002786 -0.009230 0.000000 0.000000 0.000000
# 2 -0.002786 0.010536 -0.001157 0.000000 0.000000 0.000000
# 3 -0.009230 -0.001157 0.034173 0.000000 0.000000 0.000000
# 4 0.000000 0.000000 0.000000 0.028115 0.000000 0.000000
# 5 0.000000 0.000000 0.000000 0.000000 0.127793 0.000000
# 6 0.000000 0.000000 0.000000 0.000000 0.000000 0.041964
#
#
# Mechanical properties :
#
#
# Convention : Reuss Voigt Hill
#
# Bulk Modulus (GPa) = 24.56991 29.13120 26.85055
# Shear Modulus (GPa) = 16.40255 23.32679 19.86467
#
# Velocity S-wave (km/s) = 2.94686 3.51424 3.24298
# Velocity P-wave (km/s) = 4.95849 5.64707 5.31395
#
# Compressibility (1/GPa) = 0.04070020
#
# Stress axis : x y z
#
# Youngs Moduli (GPa) = 44.76678 94.91485 29.26326
#
# Poissons Ratio (x) = 0.26443 0.27010
# Poissons Ratio (y) = 0.12472 0.03386
# Poissons Ratio (z) = 0.41320 0.10982
#
# Static dielectric constant tensor:
#      x y z
#    x 1.644470 0.000000 0.000000 
#    y 0.000000 1.693090 0.000000 
#    z 0.000000 0.000000 1.666320 
# 
# From -- ./inp_files/33002.got.cif
#   From: 2010.05.17/outbox.cif.g08.bks.cpg/sg73_17_cif.got.tgz:33002.got - 2010.06.03 17:35:07.
