data_PCOD9529562
_publ_section_title
;
Structure prediction by ZEFSAII (Michael W. Deem and Ramdas Pophale) SiO2 
 PCOD9529562
Probable space group: I B A M
;
_chemical_formula_sum "Si O2"
_cell_formula_units_Z 48
_cell_length_a 21.000000
_cell_length_b 15.000000
_cell_length_c 15.000000
_cell_angle_alpha 90.000000
_cell_angle_beta 90.000000
_cell_angle_gamma 90.000000
_cell_volume 4725.000000
_symmetry_space_group_name_H-M "I B A M"
_symmetry_group_IT_number 72
_symmetry_cell_setting 'orthorhombic'
loop_
_space_group_symop_operation_xyz
x,y,z
-x,-y,z
x,-y,1/2-z
-x,y,1/2-z
-x,-y,-z
x,y,-z
-x,y,1/2+z
x,-y,1/2+z
1/2+x,1/2+y,1/2+z
1/2-x,1/2-y,1/2+z
1/2+x,1/2-y,-z
1/2-x,1/2+y,-z
1/2-x,1/2-y,1/2-z
1/2+x,1/2+y,1/2-z
1/2-x,1/2+y,z
1/2+x,1/2-y,z
loop_
_atom_site_type_symbol
_atom_site_label
_atom_site_fract_x
_atom_site_fract_y
_atom_site_fract_z
Si Si1 0.251429 0.719225 0.353828
Si Si2 0.434639 0.750657 0.797577
Si Si3 0.762317 0.507100 0.107818
Si Si4 0.998326 0.595782 0.597713
Si Si5 0.359282 0.150536 0.854683
Si Si6 0.153525 0.867380 0.399715
O O1 0.250000 0.750000 0.250000
O O2 0.243767 0.611839 0.363887
O O3 0.315301 0.768326 0.391024
O O4 0.195854 0.776679 0.399217
O O5 0.500000 0.724731 0.750000
O O6 0.458930 0.825539 0.865312
O O7 0.385659 0.806748 0.736792
O O8 0.402615 0.662276 0.835501
O O9 0.817539 0.441140 0.147368
O O10 0.698082 0.450230 0.128447
O O11 0.770694 0.505902 0.000000
O O12 0.024709 0.579134 0.500000
O O13 0.925155 0.627197 0.596782
O O14 0.000000 0.500000 0.646334
O O15 0.131336 0.884912 0.500000
#
# Coordination Sequence:
#
# PCOD9529562 Si02
#       6
#    16  16  16  16  16  16
#     4  11  22  38  61  91 121 160 198 253 313 367
#     4  10  21  38  58  84 121 161 206 261 311 363
#     4  10  23  39  62  92 124 161 202 251 314 377
#     4  10  22  36  56  84 116 162 206 249 312 372
#     4  10  22  39  58  89 125 157 202 252 305 370
#     4  10  21  39  61  90 125 161 206 255 310 375
#
# _framework density 10.15873
#
# number of rings (size 3 to 8) (size 9 to 14) (size 15 to 20)
#    0.000    1.833    1.667    1.500    2.333    9.000 
#    0.000    0.000    0.000    7.000    0.000   10.500 
#    0.000    0.000    0.000    0.000    0.000    0.000 
#
# Total GULP energy -267436.516972 kJ/mol
# GULP energy per Si atom -5571.594104 kJ/mol
# Density = 1.013561 g / cm^3
# Si number density = 10.158730 Si / 1000 Ang^3
#
#
#
# Elastic Constant Matrix: (Units=GPa)
#
#
# Indices 1 2 3 4 5 6 
#
# 1 83.2730 41.9846 24.9454 0.0000 0.0000 0.0000
# 2 41.9846 149.1862 16.5420 0.0000 0.0000 0.0000
# 3 24.9454 16.5420 72.2290 0.0000 0.0000 0.0000
# 4 0.0000 0.0000 0.0000 21.2555 0.0000 0.0000
# 5 0.0000 0.0000 0.0000 0.0000 9.8130 0.0000
# 6 0.0000 0.0000 0.0000 0.0000 0.0000 18.9849
#
#
#
# Elastic Compliance Matrix: (Units=1/GPa)
#
#
# Indices 1 2 3 4 5 6 
#
# 1 0.015242 -0.003802 -0.004393 0.000000 0.000000 0.000000
# 2 -0.003802 0.007826 -0.000479 0.000000 0.000000 0.000000
# 3 -0.004393 -0.000479 0.015472 0.000000 0.000000 0.000000
# 4 0.000000 0.000000 0.000000 0.047047 0.000000 0.000000
# 5 0.000000 0.000000 0.000000 0.000000 0.101905 0.000000
# 6 0.000000 0.000000 0.000000 0.000000 0.000000 0.052673
#
#
# Mechanical properties :
#
#
# Convention : Reuss Voigt Hill
#
# Bulk Modulus (GPa) = 47.19088 52.40357 49.79722
# Shear Modulus (GPa) = 18.89804 24.75845 21.82824
#
# Velocity S-wave (km/s) = 3.05312 3.49460 3.28130
# Velocity P-wave (km/s) = 5.97545 6.49087 6.23848
#
# Compressibility (1/GPa) = 0.02119054
#
# Stress axis : x y z
#
# Youngs Moduli (GPa) = 65.60929 127.77562 64.63351
#
# Poissons Ratio (x) = 0.48584 0.28395
# Poissons Ratio (y) = 0.24946 0.03097
# Poissons Ratio (z) = 0.28823 0.06123
#
# Static dielectric constant tensor:
#      x y z
#    x 1.763630 0.000000 0.000000 
#    y 0.000000 1.733150 0.000000 
#    z 0.000000 0.000000 1.811830 
# 
# From -- ./inp_files/24155.got.cif
#   From: 2010.05.17/outbox.ucp.g08.bks.cvg/sg72_13_cif.got.tgz:24155.got - 2010.06.11 16:33:07.
