data_PCOD9529276
_publ_section_title
;
Structure prediction by ZEFSAII (Michael W. Deem and Ramdas Pophale) SiO2 
 PCOD9529276
Probable space group: I B A M
;
_chemical_formula_sum "Si O2"
_cell_formula_units_Z 80
_cell_length_a 8.081398
_cell_length_b 28.146536
_cell_length_c 18.210055
_cell_angle_alpha 90.000000
_cell_angle_beta 90.000000
_cell_angle_gamma 90.000000
_cell_volume 4142.120291
_symmetry_space_group_name_H-M "I B A M"
_symmetry_group_IT_number 72
_symmetry_cell_setting 'orthorhombic'
loop_
_space_group_symop_operation_xyz
x,y,z
-x,-y,z
x,-y,1/2-z
-x,y,1/2-z
-x,-y,-z
x,y,-z
-x,y,1/2+z
x,-y,1/2+z
1/2+x,1/2+y,1/2+z
1/2-x,1/2-y,1/2+z
1/2+x,1/2-y,-z
1/2-x,1/2+y,-z
1/2-x,1/2-y,1/2-z
1/2+x,1/2+y,1/2-z
1/2-x,1/2+y,z
1/2+x,1/2-y,z
loop_
_atom_site_type_symbol
_atom_site_label
_atom_site_fract_x
_atom_site_fract_y
_atom_site_fract_z
Si Si1 0.192175 0.049275 0.277465
Si Si2 0.411750 0.222201 0.828035
Si Si3 0.270882 0.196969 0.584244
Si Si4 0.089081 0.096866 0.416258
Si Si5 0.343642 0.638543 0.197045
O O1 0.174282 0.057581 0.364212
O O2 0.258687 0.097301 0.239622
O O3 0.000000 0.048630 0.250000
O O4 0.267862 0.000000 0.250000
O O5 0.500000 0.230244 0.750000
O O6 0.546747 0.200493 0.882971
O O7 0.342261 0.269881 0.864552
O O8 0.263764 0.184697 0.817567
O O9 0.265422 0.214226 0.500000
O O10 0.204265 0.143525 0.585199
O O11 0.062857 0.082071 0.500000
O O12 0.921621 0.114900 0.375989
O O13 0.500000 0.649733 0.250000
#
# Coordination Sequence:
#
# PCOD9529276 Si02
#       5
#    16  16  16  16  16
#     4   8  15  31  52  77 106 133 166 221 273 311
#     4  12  23  36  56  80 107 146 190 229 267 325
#     4  11  24  38  53  77 111 147 181 224 276 323
#     4   9  18  34  55  77 104 141 180 217 265 324
#     4   9  19  35  53  78 108 138 176 226 271 312
#
# _framework density 19.313780999999999
#
# number of rings (size 3 to 8) (size 9 to 14) (size 15 to 20)
#    0.000    2.600    0.000    4.800    0.000    7.200 
#    0.000    8.000    0.000    5.400    0.000    2.800 
#    0.000    0.000    0.000    0.000    0.000    0.000 
#
# Total GULP energy -223270.782229 kJ/mol
# GULP energy per Si atom -5581.769556 kJ/mol
# Density = 1.926982 g / cm^3
# Si number density = 19.313781 Si / 1000 Ang^3
#
#
#
# Elastic Constant Matrix: (Units=GPa)
#
#
# Indices 1 2 3 4 5 6 
#
# 1 47.5079 14.1000 32.6511 0.0000 0.0000 0.0000
# 2 14.1000 74.5999 60.8874 0.0000 0.0000 0.0000
# 3 32.6511 60.8874 179.2203 0.0000 0.0000 0.0000
# 4 0.0000 0.0000 0.0000 22.2279 0.0000 0.0000
# 5 0.0000 0.0000 0.0000 0.0000 23.5406 0.0000
# 6 0.0000 0.0000 0.0000 0.0000 0.0000 -2.6146
#
#
#
# Elastic Compliance Matrix: (Units=1/GPa)
#
#
# Indices 1 2 3 4 5 6 
#
# 1 0.024159 -0.001348 -0.003944 0.000000 0.000000 0.000000
# 2 -0.001348 0.018623 -0.006081 0.000000 0.000000 0.000000
# 3 -0.003944 -0.006081 0.008364 0.000000 0.000000 0.000000
# 4 0.000000 0.000000 0.000000 0.044988 0.000000 0.000000
# 5 0.000000 0.000000 0.000000 0.000000 0.042480 0.000000
# 6 0.000000 0.000000 0.000000 0.000000 0.000000 -0.382467
#
#
# Mechanical properties :
#
#
# Convention : Reuss Voigt Hill
#
# Bulk Modulus (GPa) = 35.20933 57.40054 46.30493
# Shear Modulus (GPa) = -23.62509 21.54343 -1.04083
#
# Velocity S-wave (km/s) = -3.50126 3.34345 -0.73490
# Velocity P-wave (km/s) = 1.38732 6.68501 4.82773
#
# Compressibility (1/GPa) = 0.02840156
#
# Stress axis : x y z
#
# Youngs Moduli (GPa) = 41.39163 53.69667 119.55621
#
# Poissons Ratio (x) = 0.07236 0.47149
# Poissons Ratio (y) = 0.05578 0.72707
# Poissons Ratio (z) = 0.16323 0.32655
#
# Static dielectric constant tensor:
#      x y z
#    x 1.677460 0.000000 0.000000 
#    y 0.000000 1.733090 0.000000 
#    z 0.000000 0.000000 1.703750 
# 
# From -- ./inp_files/28140.got.cif
#   From: 2010.05.17/outbox.cif.g08.bks.cpg/sg72_15_cif.got.tgz:28140.got - 2010.06.03 17:03:01.
