data_PCOD9529425
_publ_section_title
;
Structure prediction by ZEFSAII (Michael W. Deem and Ramdas Pophale) SiO2 
 PCOD9529425
Probable space group: I B A M
;
_chemical_formula_sum "Si O2"
_cell_formula_units_Z 64
_cell_length_a 22.302530
_cell_length_b 5.275948
_cell_length_c 22.084482
_cell_angle_alpha 90.000000
_cell_angle_beta 90.000000
_cell_angle_gamma 90.000000
_cell_volume 2598.614491
_symmetry_space_group_name_H-M "I B A M"
_symmetry_group_IT_number 72
_symmetry_cell_setting 'orthorhombic'
loop_
_space_group_symop_operation_xyz
x,y,z
-x,-y,z
x,-y,1/2-z
-x,y,1/2-z
-x,-y,-z
x,y,-z
-x,y,1/2+z
x,-y,1/2+z
1/2+x,1/2+y,1/2+z
1/2-x,1/2-y,1/2+z
1/2+x,1/2-y,-z
1/2-x,1/2+y,-z
1/2-x,1/2-y,1/2-z
1/2+x,1/2+y,1/2-z
1/2-x,1/2+y,z
1/2+x,1/2-y,z
loop_
_atom_site_type_symbol
_atom_site_label
_atom_site_fract_x
_atom_site_fract_y
_atom_site_fract_z
Si Si1 0.821195 0.257160 0.789688
Si Si2 0.231270 0.193946 0.902276
Si Si3 0.559652 0.884957 0.863691
Si Si4 0.404278 0.386356 0.571706
O O1 0.803833 0.500000 0.750000
O O2 0.770583 0.244172 0.842134
O O3 0.884560 0.341683 0.818945
O O4 0.827892 0.000000 0.750000
O O5 0.233813 0.466433 0.933634
O O6 0.162157 0.116683 0.898620
O O7 0.558839 0.617152 0.898747
O O8 0.500000 0.000000 0.832404
O O9 0.571647 0.109156 0.911816
O O10 0.399605 0.422621 0.500000
#
# Coordination Sequence:
#
# PCOD9529425 Si02
#       4
#    16  16  16  16
#     4  12  26  46  75 105 148 194 240 296 373 442
#     4  12  23  45  70 109 149 184 240 299 369 446
#     4  12  27  51  72 105 147 188 256 312 354 434
#     4  12  26  48  75 107 147 194 243 300 379 440
#
# _framework density 24.628511
#
# number of rings (size 3 to 8) (size 9 to 14) (size 15 to 20)
#    0.000    0.000    5.000    4.500    0.000    7.500 
#    0.000    1.250    0.000    0.000    0.000    0.000 
#    0.000    0.000    0.000    0.000    0.000    0.000 
#
# Total GULP energy -178925.849799 kJ/mol
# GULP energy per Si atom -5591.432806 kJ/mol
# Density = 2.457245 g / cm^3
# Si number density = 24.628511 Si / 1000 Ang^3
#
#
#
# Elastic Constant Matrix: (Units=GPa)
#
#
# Indices 1 2 3 4 5 6 
#
# 1 162.6752 50.3977 56.2854 0.0000 0.0000 0.0000
# 2 50.3977 229.7135 48.7121 0.0000 0.0000 0.0000
# 3 56.2854 48.7121 145.2600 0.0000 0.0000 0.0000
# 4 0.0000 0.0000 0.0000 -2.8849 0.0000 0.0000
# 5 0.0000 0.0000 0.0000 0.0000 110.1451 0.0000
# 6 0.0000 0.0000 0.0000 0.0000 0.0000 48.7445
#
#
#
# Elastic Compliance Matrix: (Units=1/GPa)
#
#
# Indices 1 2 3 4 5 6 
#
# 1 0.007342 -0.001085 -0.002481 0.000000 0.000000 0.000000
# 2 -0.001085 0.004847 -0.001205 0.000000 0.000000 0.000000
# 3 -0.002481 -0.001205 0.008250 0.000000 0.000000 0.000000
# 4 0.000000 0.000000 0.000000 -0.346638 0.000000 0.000000
# 5 0.000000 0.000000 0.000000 0.000000 0.009079 0.000000
# 6 0.000000 0.000000 0.000000 0.000000 0.000000 0.020515
#
#
# Mechanical properties :
#
#
# Convention : Reuss Voigt Hill
#
# Bulk Modulus (GPa) = 91.77111 94.27104 93.02107
# Shear Modulus (GPa) = -17.64089 56.68451 19.52181
#
# Velocity S-wave (km/s) = -2.67924 4.80268 2.81846
# Velocity P-wave (km/s) = 5.26991 8.31352 6.96012
#
# Compressibility (1/GPa) = 0.01089668
#
# Stress axis : x y z
#
# Youngs Moduli (GPa) = 136.20880 206.32411 121.21691
#
# Poissons Ratio (x) = 0.22378 0.30074
# Poissons Ratio (y) = 0.14773 0.14607
# Poissons Ratio (z) = 0.33794 0.24863
#
# Static dielectric constant tensor:
#      x y z
#    x 2.041780 0.000000 0.000000 
#    y 0.000000 2.053740 0.000000 
#    z 0.000000 0.000000 2.009840 
# 
# From -- ./inp_files/45577.got.cif
#   From: 2010.05.17/outbox.cif.g08.bks.cpg/sg72_23_cif.got.tgz:45577.got - 2010.06.03 17:03:01.
