data_PCOD9529084
_publ_section_title
;
Structure prediction by ZEFSAII (Michael W. Deem and Ramdas Pophale) SiO2 
 PCOD9529084
Probable space group: I B A M
;
_chemical_formula_sum "Si O2"
_cell_formula_units_Z 80
_cell_length_a 8.738946
_cell_length_b 22.361219
_cell_length_c 20.372905
_cell_angle_alpha 90.000000
_cell_angle_beta 90.000000
_cell_angle_gamma 90.000000
_cell_volume 3981.140372
_symmetry_space_group_name_H-M "I B A M"
_symmetry_group_IT_number 72
_symmetry_cell_setting 'orthorhombic'
loop_
_space_group_symop_operation_xyz
x,y,z
-x,-y,z
x,-y,1/2-z
-x,y,1/2-z
-x,-y,-z
x,y,-z
-x,y,1/2+z
x,-y,1/2+z
1/2+x,1/2+y,1/2+z
1/2-x,1/2-y,1/2+z
1/2+x,1/2-y,-z
1/2-x,1/2+y,-z
1/2-x,1/2-y,1/2-z
1/2+x,1/2+y,1/2-z
1/2-x,1/2+y,z
1/2+x,1/2-y,z
loop_
_atom_site_type_symbol
_atom_site_label
_atom_site_fract_x
_atom_site_fract_y
_atom_site_fract_z
Si Si1 0.735520 0.292831 0.000000
Si Si2 0.815553 0.569040 0.741490
Si Si3 0.745732 0.132021 0.875059
Si Si4 0.113205 0.162634 0.500000
Si Si5 0.400572 0.149134 0.125949
Si Si6 0.617491 0.733432 0.798547
O O1 0.554982 0.307996 0.000000
O O2 0.809774 0.324207 0.064293
O O3 0.772221 0.221260 0.000000
O O4 0.770742 0.500000 0.750000
O O5 0.740615 0.600809 0.804256
O O6 0.801495 0.603611 0.671615
O O7 0.000000 0.571833 0.750000
O O8 0.851245 0.120527 0.937523
O O9 0.567446 0.124408 0.894340
O O10 0.807412 0.197838 0.857188
O O11 0.447097 0.205026 0.172642
O O12 0.500000 0.700846 0.750000
O O13 0.750000 0.750000 0.750000
#
# Coordination Sequence:
#
# PCOD9529084 Si02
#       6
#     8  16  16   8  16  16
#     4  12  26  38  57  84 125 163 198 238 296 359
#     4   9  19  38  65  91 114 147 199 254 295 338
#     4  11  22  37  59  87 122 155 196 242 293 355
#     4  12  26  38  55  86 123 165 196 236 296 361
#     4  11  21  38  58  88 120 155 195 244 294 351
#     4  12  21  32  54  88 119 151 188 237 295 352
#
# _framework density 20.094743999999999
#
# number of rings (size 3 to 8) (size 9 to 14) (size 15 to 20)
#    0.000    1.000    6.000    2.400    2.800    0.000 
#    0.000    1.000    0.000   11.400    0.000    0.000 
#    0.000    0.000    0.000    0.000    0.000    0.000 
#
# Total GULP energy -222753.349421 kJ/mol
# GULP energy per Si atom -5568.833736 kJ/mol
# Density = 2.004901 g / cm^3
# Si number density = 20.094744 Si / 1000 Ang^3
#
#
#
# Elastic Constant Matrix: (Units=GPa)
#
#
# Indices 1 2 3 4 5 6 
#
# 1 77.3841 0.4971 27.1130 0.0000 0.0000 0.0000
# 2 0.4971 69.1985 26.7573 0.0000 0.0000 0.0000
# 3 27.1130 26.7573 127.2672 0.0000 0.0000 0.0000
# 4 0.0000 0.0000 0.0000 12.3716 0.0000 0.0000
# 5 0.0000 0.0000 0.0000 0.0000 29.8160 0.0000
# 6 0.0000 0.0000 0.0000 0.0000 0.0000 12.7852
#
#
#
# Elastic Compliance Matrix: (Units=1/GPa)
#
#
# Indices 1 2 3 4 5 6 
#
# 1 0.014048 0.001150 -0.003235 0.000000 0.000000 0.000000
# 2 0.001150 0.015824 -0.003572 0.000000 0.000000 0.000000
# 3 -0.003235 -0.003572 0.009298 0.000000 0.000000 0.000000
# 4 0.000000 0.000000 0.000000 0.080830 0.000000 0.000000
# 5 0.000000 0.000000 0.000000 0.000000 0.033539 0.000000
# 6 0.000000 0.000000 0.000000 0.000000 0.000000 0.078216
#
#
# Mechanical properties :
#
#
# Convention : Reuss Voigt Hill
#
# Bulk Modulus (GPa) = 35.89798 42.50942 39.20370
# Shear Modulus (GPa) = 19.81344 25.62672 22.72008
#
# Velocity S-wave (km/s) = 3.14347 3.57500 3.36616
# Velocity P-wave (km/s) = 5.57480 6.18395 5.88726
#
# Compressibility (1/GPa) = 0.02785672
#
# Stress axis : x y z
#
# Youngs Moduli (GPa) = 71.18209 63.19479 107.55506
#
# Poissons Ratio (x) = -0.07266 0.34790
# Poissons Ratio (y) = -0.08185 0.38418
# Poissons Ratio (z) = 0.23025 0.22573
#
# Static dielectric constant tensor:
#      x y z
#    x 1.755980 0.000000 0.000000 
#    y 0.000000 1.799910 0.000000 
#    z 0.000000 0.000000 1.444510 
# 
# From -- ./inp_files/35761.got.cif
#   From: 2010.05.17/outbox.cif.g08.bks.cpg/sg72_18_cif.got.tgz:35761.got - 2010.06.03 17:03:01.
