data_PCOD9529725
_publ_section_title
;
Structure prediction by ZEFSAII (Michael W. Deem and Ramdas Pophale) SiO2 
 PCOD9529725
Probable space group: I B C A 
;
_chemical_formula_sum "Si O2"
_cell_formula_units_Z 112
_cell_length_a 17.342451
_cell_length_b 17.755326
_cell_length_c 18.423950
_cell_angle_alpha 90.000000
_cell_angle_beta 90.000000
_cell_angle_gamma 90.000000
_cell_volume 5673.118734
_symmetry_space_group_name_H-M "I B C A "
_symmetry_group_IT_number 73
_symmetry_cell_setting 'orthorhombic'
loop_
_space_group_symop_operation_xyz
x,y,z
-x,1/2-y,z
x,-y,1/2-z
1/2-x,y,-z
-x,-y,-z
x,1/2+y,-z
-x,y,1/2+z
1/2+x,-y,z
1/2+x,1/2+y,1/2+z
1/2-x,-y,1/2+z
1/2+x,1/2-y,-z
-x,1/2+y,1/2-z
1/2-x,1/2-y,1/2-z
1/2+x,y,1/2-z
1/2-x,1/2+y,z
x,1/2-y,1/2+z
loop_
_atom_site_type_symbol
_atom_site_label
_atom_site_fract_x
_atom_site_fract_y
_atom_site_fract_z
Si Si1 0.929927 0.155035 0.289136
Si Si2 0.941443 0.061501 0.426686
Si Si3 0.174097 0.017478 0.040087
Si Si4 0.901051 0.362305 0.479817
Si Si5 0.275387 0.046493 0.678566
Si Si6 0.890528 0.686453 0.172494
Si Si7 0.393469 0.596967 0.630391
O O1 0.905048 0.105750 0.358661
O O2 0.881300 0.232299 0.291357
O O3 0.920824 0.119810 0.210040
O O4 0.021501 0.166305 0.304621
O O5 0.022982 0.095864 0.448849
O O6 0.893605 0.061478 0.500932
O O7 0.940701 0.975665 0.398360
O O8 0.161945 0.928701 0.022480
O O9 0.182206 0.013515 0.125807
O O10 0.250000 0.044408 0.000000
O O11 0.885641 0.303353 0.415598
O O12 0.904889 0.342699 0.564811
O O13 0.331943 0.118389 0.690488
O O14 0.196303 0.073975 0.640729
O O15 0.255547 0.000000 0.750000
#
# Coordination Sequence:
#
# PCOD9529725 Si02
#       7
#    16  16  16  16  16  16  16
#     4  10  21  39  58  80 115 152 190 233 281 338
#     4  10  19  34  59  87 112 149 190 235 277 339
#     4  10  17  31  53  78 113 138 177 227 280 329
#     4   9  19  35  57  82 109 150 191 228 278 342
#     4  11  22  35  57  88 117 146 185 239 292 335
#     4   9  22  40  56  77 114 153 189 228 284 337
#     4  11  20  34  60  87 112 147 189 236 286 336
#
# _framework density 19.742227
#
# number of rings (size 3 to 8) (size 9 to 14) (size 15 to 20)
#    0.000    2.000    2.857    3.000    0.000    5.143 
#    0.000    7.143    3.143    0.000    0.000    0.000 
#    0.000    0.000    0.000    0.000    0.000    0.000 
#
# Total GULP energy -311762.595069 kJ/mol
# GULP energy per Si atom -5567.189198 kJ/mol
# Density = 1.969729 g / cm^3
# Si number density = 19.742227 Si / 1000 Ang^3
#
#
#
# Elastic Constant Matrix: (Units=GPa)
#
#
# Indices 1 2 3 4 5 6 
#
# 1 54.5254 12.6277 30.4541 0.0000 0.0000 0.0000
# 2 12.6277 32.0255 21.8064 0.0000 0.0000 0.0000
# 3 30.4541 21.8064 145.9227 0.0000 0.0000 0.0000
# 4 0.0000 0.0000 0.0000 16.0011 0.0000 0.0000
# 5 0.0000 0.0000 0.0000 0.0000 29.6277 0.0000
# 6 0.0000 0.0000 0.0000 0.0000 0.0000 0.5174
#
#
#
# Elastic Compliance Matrix: (Units=1/GPa)
#
#
# Indices 1 2 3 4 5 6 
#
# 1 0.021786 -0.006117 -0.003633 0.000000 0.000000 0.000000
# 2 -0.006117 0.036480 -0.004175 0.000000 0.000000 0.000000
# 3 -0.003633 -0.004175 0.008235 0.000000 0.000000 0.000000
# 4 0.000000 0.000000 0.000000 0.062496 0.000000 0.000000
# 5 0.000000 0.000000 0.000000 0.000000 0.033752 0.000000
# 6 0.000000 0.000000 0.000000 0.000000 0.000000 1.932655
#
#
# Mechanical properties :
#
#
# Convention : Reuss Voigt Hill
#
# Bulk Modulus (GPa) = 25.87194 40.25000 33.06097
# Shear Modulus (GPa) = 2.34068 20.40161 11.37114
#
# Velocity S-wave (km/s) = 1.09004 3.21814 2.40256
# Velocity P-wave (km/s) = 3.83635 5.85155 4.94764
#
# Compressibility (1/GPa) = 0.03865191
#
# Stress axis : x y z
#
# Youngs Moduli (GPa) = 45.90200 27.41262 121.43355
#
# Poissons Ratio (x) = 0.16767 0.44112
# Poissons Ratio (y) = 0.28076 0.50697
# Poissons Ratio (z) = 0.16674 0.11444
#
# Static dielectric constant tensor:
#      x y z
#    x 1.744250 0.000000 0.000000 
#    y 0.000000 1.718670 0.000000 
#    z 0.000000 0.000000 1.766090 
# 
# From -- ./inp_files/22743.got.cif
#   From: 2010.05.17/outbox.cif.g08.bks.cpg/sg73_12_cif.got.tgz:22743.got - 2010.06.03 17:35:07.
