data_PCOD9529823
_publ_section_title
;
Structure prediction by ZEFSAII (Michael W. Deem and Ramdas Pophale) SiO2 
 PCOD9529823
Probable space group: I B C A 
;
_chemical_formula_sum "Si O2"
_cell_formula_units_Z 112
_cell_length_a 24.482147
_cell_length_b 15.448965
_cell_length_c 14.086743
_cell_angle_alpha 90.000000
_cell_angle_beta 90.000000
_cell_angle_gamma 90.000000
_cell_volume 5327.941920
_symmetry_space_group_name_H-M "I B C A "
_symmetry_group_IT_number 73
_symmetry_cell_setting 'orthorhombic'
loop_
_space_group_symop_operation_xyz
x,y,z
-x,1/2-y,z
x,-y,1/2-z
1/2-x,y,-z
-x,-y,-z
x,1/2+y,-z
-x,y,1/2+z
1/2+x,-y,z
1/2+x,1/2+y,1/2+z
1/2-x,-y,1/2+z
1/2+x,1/2-y,-z
-x,1/2+y,1/2-z
1/2-x,1/2-y,1/2-z
1/2+x,y,1/2-z
1/2-x,1/2+y,z
x,1/2-y,1/2+z
loop_
_atom_site_type_symbol
_atom_site_label
_atom_site_fract_x
_atom_site_fract_y
_atom_site_fract_z
Si Si1 0.186144 0.379459 0.663192
Si Si2 0.589050 0.623100 0.966588
Si Si3 0.927715 0.396795 0.253750
Si Si4 0.725835 0.253613 0.108714
Si Si5 0.983815 0.649699 0.442896
Si Si6 0.124831 0.316035 0.477882
Si Si7 0.294465 0.056604 0.581936
O O1 0.135568 0.375290 0.733961
O O2 0.231479 0.306075 0.671348
O O3 0.158012 0.360995 0.561354
O O4 0.209088 0.475782 0.651906
O O5 0.562905 0.634584 0.861114
O O6 0.612259 0.715275 0.002142
O O7 0.642671 0.563555 0.955737
O O8 0.538416 0.596448 0.032538
O O9 0.933465 0.500000 0.250000
O O10 0.962235 0.362760 0.164351
O O11 0.667424 0.303601 0.108135
O O12 0.719012 0.151263 0.124284
O O13 0.750000 0.257861 0.000000
O O14 0.933914 0.637247 0.517632
O O15 0.000000 0.750000 0.453108
O O16 0.250000 0.041560 0.500000
#
# Coordination Sequence:
#
# PCOD9529823 Si02
#       7
#    16  16  16  16  16  16  16
#     4  10  18  34  57  84 119 156 207 250 306 373
#     4  10  20  37  58  87 122 159 210 257 312 375
#     4  11  22  38  60  89 126 164 206 262 319 381
#     4   8  15  28  51  82 114 146 201 247 296 361
#     4   9  20  37  61  87 118 164 210 257 314 374
#     4   8  16  32  53  82 115 149 203 249 292 366
#     4  10  18  31  57  86 116 160 201 259 306 359
#
# _framework density 21.021249999999998
#
# number of rings (size 3 to 8) (size 9 to 14) (size 15 to 20)
#    0.000    2.571    1.429    2.143    0.000    2.286 
#    0.000    2.857    0.000    1.714    0.000    0.000 
#    0.000    0.000    0.000    0.000    0.000    0.000 
#
# Total GULP energy -312116.512544 kJ/mol
# GULP energy per Si atom -5573.509153 kJ/mol
# Density = 2.097340 g / cm^3
# Si number density = 21.021250 Si / 1000 Ang^3
#
#
#
# Elastic Constant Matrix: (Units=GPa)
#
#
# Indices 1 2 3 4 5 6 
#
# 1 129.1980 45.0459 31.9769 0.0000 0.0000 0.0000
# 2 45.0459 74.0052 32.8149 0.0000 0.0000 0.0000
# 3 31.9769 32.8149 76.6140 0.0000 0.0000 0.0000
# 4 0.0000 0.0000 0.0000 7.5148 0.0000 0.0000
# 5 0.0000 0.0000 0.0000 0.0000 34.7917 0.0000
# 6 0.0000 0.0000 0.0000 0.0000 0.0000 15.1883
#
#
#
# Elastic Compliance Matrix: (Units=1/GPa)
#
#
# Indices 1 2 3 4 5 6 
#
# 1 0.010055 -0.005258 -0.001945 0.000000 0.000000 0.000000
# 2 -0.005258 0.019430 -0.006128 0.000000 0.000000 0.000000
# 3 -0.001945 -0.006128 0.016489 0.000000 0.000000 0.000000
# 4 0.000000 0.000000 0.000000 0.133071 0.000000 0.000000
# 5 0.000000 0.000000 0.000000 0.000000 0.028743 0.000000
# 6 0.000000 0.000000 0.000000 0.000000 0.000000 0.065840
#
#
# Mechanical properties :
#
#
# Convention : Reuss Voigt Hill
#
# Bulk Modulus (GPa) = 51.77825 55.49917 53.63871
# Shear Modulus (GPa) = 16.30128 22.83091 19.56610
#
# Velocity S-wave (km/s) = 2.78774 3.29916 3.05417
# Velocity P-wave (km/s) = 5.92004 6.40089 6.16515
#
# Compressibility (1/GPa) = 0.01931313
#
# Stress axis : x y z
#
# Youngs Moduli (GPa) = 99.45786 51.46678 60.64789
#
# Poissons Ratio (x) = 0.27060 0.11793
# Poissons Ratio (y) = 0.52293 0.37163
# Poissons Ratio (z) = 0.19340 0.31537
#
# Static dielectric constant tensor:
#      x y z
#    x 1.814100 0.000000 0.000000 
#    y 0.000000 1.745820 0.000000 
#    z 0.000000 0.000000 1.772840 
# 
# From -- ./inp_files/19428.got.cif
#   From: 2010.05.17/outbox.cif.g08.bks.cpg/sg73_10_cif.got.tgz:19428.got - 2010.06.03 17:35:07.
