data_PCOD9529528
_publ_section_title
;
Structure prediction by ZEFSAII (Michael W. Deem and Ramdas Pophale) SiO2 
 PCOD9529528
Probable space group: I B A M
;
_chemical_formula_sum "Si O2"
_cell_formula_units_Z 56
_cell_length_a 15.000000
_cell_length_b 24.000000
_cell_length_c 15.000000
_cell_angle_alpha 90.000000
_cell_angle_beta 90.000000
_cell_angle_gamma 90.000000
_cell_volume 5400.000000
_symmetry_space_group_name_H-M "I B A M"
_symmetry_group_IT_number 72
_symmetry_cell_setting 'orthorhombic'
loop_
_space_group_symop_operation_xyz
x,y,z
-x,-y,z
x,-y,1/2-z
-x,y,1/2-z
-x,-y,-z
x,y,-z
-x,y,1/2+z
x,-y,1/2+z
1/2+x,1/2+y,1/2+z
1/2-x,1/2-y,1/2+z
1/2+x,1/2-y,-z
1/2-x,1/2+y,-z
1/2-x,1/2-y,1/2-z
1/2+x,1/2+y,1/2-z
1/2-x,1/2+y,z
1/2+x,1/2-y,z
loop_
_atom_site_type_symbol
_atom_site_label
_atom_site_fract_x
_atom_site_fract_y
_atom_site_fract_z
Si Si1 0.785343 0.040574 0.609503
Si Si2 0.787953 0.231042 0.892216
Si Si3 0.099490 0.482164 0.109301
Si Si4 0.679480 0.663947 0.396637
Si Si5 0.306940 0.124229 0.602201
Si Si6 0.477843 0.676294 0.349277
Si Si7 0.386001 0.564258 0.398150
O O1 0.788440 0.038883 0.500000
O O2 0.685088 0.020493 0.634879
O O3 0.806623 0.102450 0.643885
O O4 0.862218 0.996803 0.638728
O O5 0.746696 0.289313 0.859340
O O6 0.721446 0.182779 0.856745
O O7 0.890903 0.212520 0.877325
O O8 0.779194 0.230784 0.000000
O O9 0.123378 0.419614 0.141534
O O10 0.000000 0.500000 0.136513
O O11 0.100464 0.481545 0.000000
O O12 0.704694 0.657571 0.500000
O O13 0.574953 0.680869 0.395196
O O14 0.336429 0.134910 0.500000
O O15 0.212959 0.091332 0.597539
O O16 0.500000 0.692801 0.250000
O O17 0.447002 0.611402 0.354171
O O18 0.419766 0.558714 0.500000
#
# Coordination Sequence:
#
# PCOD9529528 Si02
#       7
#    16  16  16  16  16  16  16
#     4   8  15  28  47  73 103 136 169 215 276 328
#     4   9  18  35  55  75 104 140 181 228 269 319
#     4   8  12  20  37  66 101 129 157 201 257 317
#     4  10  20  35  54  77 106 138 179 227 277 326
#     4   7  11  22  41  64  91 128 163 195 246 302
#     4  11  22  35  53  78 106 141 183 224 271 328
#     4   8  14  29  52  72 100 134 169 211 263 324
#
# _framework density 10.370369999999999
#
# number of rings (size 3 to 8) (size 9 to 14) (size 15 to 20)
#    0.000    3.286    0.000    3.857    0.000    1.143 
#    2.571    3.571    0.000    0.000    0.000    0.000 
#    0.000    1.429    0.000    0.000    0.000    0.000 
#
# Total GULP energy -311861.748713 kJ/mol
# GULP energy per Si atom -5568.959798 kJ/mol
# Density = 1.034677 g / cm^3
# Si number density = 10.370370 Si / 1000 Ang^3
#
#
#
# Elastic Constant Matrix: (Units=GPa)
#
#
# Indices 1 2 3 4 5 6 
#
# 1 106.2719 52.4501 1.2874 0.0000 0.0000 0.0000
# 2 52.4501 148.6100 10.0249 0.0000 0.0001 0.0000
# 3 1.2874 10.0249 25.9116 0.0001 0.0002 0.0000
# 4 0.0000 0.0000 0.0001 6.2837 0.0001 0.0000
# 5 0.0000 0.0001 0.0002 0.0001 -54.6545 0.0000
# 6 0.0000 0.0000 0.0000 0.0000 0.0000 35.1213
#
#
#
# Elastic Compliance Matrix: (Units=1/GPa)
#
#
# Indices 1 2 3 4 5 6 
#
# 1 0.011421 -0.004100 0.001019 0.000000 0.000000 0.000000
# 2 -0.004100 0.008381 -0.003039 0.000000 0.000000 0.000000
# 3 0.001019 -0.003039 0.039718 0.000000 0.000000 0.000000
# 4 0.000000 0.000000 0.000000 0.159143 0.000000 0.000000
# 5 0.000000 0.000000 0.000000 0.000000 -0.018297 0.000000
# 6 0.000000 0.000000 0.000000 0.000000 0.000000 0.028473
#
#
# Mechanical properties :
#
#
# Convention : Reuss Voigt Hill
#
# Bulk Modulus (GPa) = 21.15055 45.36870 33.25962
# Shear Modulus (GPa) = 19.46752 11.81883 15.64318
#
# Velocity S-wave (km/s) = 3.06700 2.38971 2.74929
# Velocity P-wave (km/s) = 4.77093 5.43470 5.11360
#
# Compressibility (1/GPa) = 0.04728010
#
# Stress axis : x y z
#
# Youngs Moduli (GPa) = 87.55950 119.31899 25.17761
#
# Poissons Ratio (x) = 0.48915 -0.02565
# Poissons Ratio (y) = 0.35895 0.07651
# Poissons Ratio (z) = -0.08919 0.36258
#
# Static dielectric constant tensor:
#      x y z
#    x 1.709490 0.000000 0.000000 
#    y 0.000000 1.822880 0.000000 
#    z 0.000000 0.000000 1.822270 
# 
# From -- ./inp_files/22079.got.cif
#   From: 2010.05.17/outbox.ucp.g08.bks.cvg/sg72_12_cif.got.tgz:22079.got - 2010.06.11 16:33:07.
