data_PCOD9529576
_publ_section_title
;
Structure prediction by ZEFSAII (Michael W. Deem and Ramdas Pophale) SiO2 
 PCOD9529576
Probable space group: I B A M
;
_chemical_formula_sum "Si O2"
_cell_formula_units_Z 58
_cell_length_a 27.000000
_cell_length_b 24.000000
_cell_length_c 9.000000
_cell_angle_alpha 90.000000
_cell_angle_beta 90.000000
_cell_angle_gamma 90.000000
_cell_volume 5832.000000
_symmetry_space_group_name_H-M "I B A M"
_symmetry_group_IT_number 72
_symmetry_cell_setting 'orthorhombic'
loop_
_space_group_symop_operation_xyz
x,y,z
-x,-y,z
x,-y,1/2-z
-x,y,1/2-z
-x,-y,-z
x,y,-z
-x,y,1/2+z
x,-y,1/2+z
1/2+x,1/2+y,1/2+z
1/2-x,1/2-y,1/2+z
1/2+x,1/2-y,-z
1/2-x,1/2+y,-z
1/2-x,1/2-y,1/2-z
1/2+x,1/2+y,1/2-z
1/2-x,1/2+y,z
1/2+x,1/2-y,z
loop_
_atom_site_type_symbol
_atom_site_label
_atom_site_fract_x
_atom_site_fract_y
_atom_site_fract_z
Si Si1 0.000000 0.000000 0.250000
Si Si2 0.156319 0.262903 0.173574
Si Si3 0.074315 0.101279 0.176368
Si Si4 0.264771 0.058191 0.176237
Si Si5 0.180561 0.860490 0.318572
Si Si6 0.138683 0.624929 0.175215
Si Si7 0.044910 0.221390 0.171403
Si Si8 0.553742 0.940576 0.321447
O O1 0.959301 0.953410 0.196059
O O2 0.179284 0.204256 0.227681
O O3 0.163420 0.317407 0.271451
O O4 0.097438 0.250790 0.179728
O O5 0.169735 0.272159 0.000000
O O6 0.131449 0.104650 0.228393
O O7 0.051814 0.159046 0.238363
O O8 0.077029 0.109281 0.000000
O O9 0.228317 0.106373 0.232024
O O10 0.320775 0.077039 0.200482
O O11 0.253356 0.000000 0.250000
O O12 0.257097 0.053381 0.000000
O O13 0.179991 0.858097 0.500000
O O14 0.091270 0.607515 0.270810
O O15 0.126906 0.627901 0.000000
O O16 0.000000 0.251684 0.250000
O O17 0.031412 0.215716 0.000000
O O18 0.500000 0.929894 0.250000
O O19 0.551054 0.945050 0.500000
O O20 0.570095 0.000000 0.250000
#
# Coordination Sequence:
#
# PCOD9529576 Si02
#       8
#     4  16  16  16  16  16  16  16
#     4  12  18  24  48  78 104 144 190 232 278 332
#     4   9  19  36  58  79 106 149 194 237 293 353
#     4   9  18  30  45  71 106 142 182 227 278 336
#     4  10  22  39  61  86 114 150 190 236 290 348
#     4   8  17  37  58  76 107 150 192 237 294 353
#     4  11  23  38  57  87 122 152 191 242 290 345
#     4   9  17  32  50  71 101 140 182 224 275 331
#     4  11  22  39  63  91 124 161 197 236 287 345
#
# _framework density 9.9451300000000007
#
# number of rings (size 3 to 8) (size 9 to 14) (size 15 to 20)
#    0.000    2.345    0.690    4.345    0.966    3.862 
#    0.000    2.069    0.000    0.828    0.000    0.000 
#    0.000    0.000    0.000    0.000    0.000    0.000 
#
# Total GULP energy -322961.965110 kJ/mol
# GULP energy per Si atom -5568.309743 kJ/mol
# Density = 0.992249 g / cm^3
# Si number density = 9.945130 Si / 1000 Ang^3
#
#
#
# Elastic Constant Matrix: (Units=GPa)
#
#
# Indices 1 2 3 4 5 6 
#
# 1 54.5061 29.9811 35.5013 0.0000 0.0000 0.0000
# 2 29.9811 91.0299 21.7595 0.0000 0.0000 0.0000
# 3 35.5013 21.7595 35.4159 0.0000 0.0000 0.0000
# 4 0.0000 0.0000 0.0000 18.6598 0.0000 0.0000
# 5 0.0000 0.0000 0.0000 0.0000 14.5428 0.0000
# 6 0.0000 0.0000 0.0000 0.0000 0.0000 -2.4778
#
#
#
# Elastic Compliance Matrix: (Units=1/GPa)
#
#
# Indices 1 2 3 4 5 6 
#
# 1 0.055371 -0.005824 -0.051926 0.000000 0.000000 0.000000
# 2 -0.005824 0.013489 -0.002449 0.000000 0.000000 0.000000
# 3 -0.051926 -0.002449 0.081792 0.000000 0.000000 0.000000
# 4 0.000000 0.000000 0.000000 0.053591 0.000000 0.000000
# 5 0.000000 0.000000 0.000000 0.000000 0.068762 0.000000
# 6 0.000000 0.000000 0.000000 0.000000 0.000000 -0.403581
#
#
# Mechanical properties :
#
#
# Convention : Reuss Voigt Hill
#
# Bulk Modulus (GPa) = 33.05485 39.49285 36.27385
# Shear Modulus (GPa) = -55257.99329 12.39228 -27622.80050
#
# Velocity S-wave (km/s) = -166.85845 2.49877 -117.97351
# Velocity P-wave (km/s) = 192.62832 5.31259 136.15698
#
# Compressibility (1/GPa) = 0.03025275
#
# Stress axis : x y z
#
# Youngs Moduli (GPa) = 18.05992 74.13351 12.22612
#
# Poissons Ratio (x) = 0.43179 0.63486
# Poissons Ratio (y) = 0.10519 0.02994
# Poissons Ratio (z) = 0.93778 0.18157
#
# Static dielectric constant tensor:
#      x y z
#    x 1.752090 0.000000 0.000000 
#    y 0.000000 1.716940 0.000000 
#    z 0.000000 0.000000 1.682130 
# 
# From -- ./inp_files/8443.got.cif
#   From: 2010.05.17/outbox.ucp.g08.bks.cvg/sg72_5_cif.got.tgz:8443.got - 2010.06.11 16:33:07.
