data_PCOD9529762
_publ_section_title
;
Structure prediction by ZEFSAII (Michael W. Deem and Ramdas Pophale) SiO2 
 PCOD9529762
Probable space group: I B C A 
;
_chemical_formula_sum "Si O2"
_cell_formula_units_Z 96
_cell_length_a 18.702593
_cell_length_b 23.814457
_cell_length_c 10.384364
_cell_angle_alpha 90.000000
_cell_angle_beta 90.000000
_cell_angle_gamma 90.000000
_cell_volume 4625.113656
_symmetry_space_group_name_H-M "I B C A "
_symmetry_group_IT_number 73
_symmetry_cell_setting 'orthorhombic'
loop_
_space_group_symop_operation_xyz
x,y,z
-x,1/2-y,z
x,-y,1/2-z
1/2-x,y,-z
-x,-y,-z
x,1/2+y,-z
-x,y,1/2+z
1/2+x,-y,z
1/2+x,1/2+y,1/2+z
1/2-x,-y,1/2+z
1/2+x,1/2-y,-z
-x,1/2+y,1/2-z
1/2-x,1/2-y,1/2-z
1/2+x,y,1/2-z
1/2-x,1/2+y,z
x,1/2-y,1/2+z
loop_
_atom_site_type_symbol
_atom_site_label
_atom_site_fract_x
_atom_site_fract_y
_atom_site_fract_z
Si Si1 0.040649 0.937521 0.209748
Si Si2 0.456153 0.621294 0.562342
Si Si3 0.937304 0.218222 0.882386
Si Si4 0.169837 0.782678 0.454867
Si Si5 0.301194 0.836715 0.126405
Si Si6 0.836575 0.630341 0.266389
O O1 0.125246 0.927937 0.239334
O O2 0.998852 0.896554 0.309982
O O3 0.019324 0.000000 0.250000
O O4 0.030161 0.920806 0.059395
O O5 0.472219 0.682569 0.500185
O O6 0.371883 0.626741 0.600401
O O7 0.885773 0.173247 0.816602
O O8 0.000000 0.250000 0.807363
O O9 0.884015 0.264016 0.937024
O O10 0.250000 0.786404 0.500000
O O11 0.173254 0.728344 0.357273
O O12 0.150431 0.843846 0.405268
O O13 0.246278 0.860208 0.232195
O O14 0.250000 0.836985 0.000000
#
# Coordination Sequence:
#
# PCOD9529762 Si02
#       6
#    16  16  16  16  16  16
#     4  11  23  42  64  86 115 155 204 258 306 349
#     4  10  22  40  65  87 118 157 200 250 298 366
#     4  10  20  33  53  88 121 154 193 231 295 365
#     4  10  19  33  54  84 120 153 191 235 291 357
#     4  10  17  38  61  84 115 165 194 227 303 373
#     4  11  21  37  58  82 121 161 198 243 299 358
#
# _framework density 20.756246999999998
#
# number of rings (size 3 to 8) (size 9 to 14) (size 15 to 20)
#    0.000    1.667    6.667    2.000    0.000    6.000 
#    3.000    0.833    3.667    0.000    0.000    0.000 
#    0.000    0.000    0.000    0.000    0.000    0.000 
#
# Total GULP energy -267397.314969 kJ/mol
# GULP energy per Si atom -5570.777395 kJ/mol
# Density = 2.070901 g / cm^3
# Si number density = 20.756247 Si / 1000 Ang^3
#
#
#
# Elastic Constant Matrix: (Units=GPa)
#
#
# Indices 1 2 3 4 5 6 
#
# 1 101.3406 14.4198 21.0378 0.0000 0.0000 0.0000
# 2 14.4198 23.3863 15.2439 0.0000 0.0000 0.0000
# 3 21.0378 15.2439 62.7514 0.0000 0.0000 0.0000
# 4 0.0000 0.0000 0.0000 42.6811 0.0000 0.0000
# 5 0.0000 0.0000 0.0000 0.0000 17.8366 0.0000
# 6 0.0000 0.0000 0.0000 0.0000 0.0000 18.2141
#
#
#
# Elastic Compliance Matrix: (Units=1/GPa)
#
#
# Indices 1 2 3 4 5 6 
#
# 1 0.011125 -0.005262 -0.002452 0.000000 0.000000 0.000000
# 2 -0.005262 0.053293 -0.011182 0.000000 0.000000 0.000000
# 3 -0.002452 -0.011182 0.019474 0.000000 0.000000 0.000000
# 4 0.000000 0.000000 0.000000 0.023430 0.000000 0.000000
# 5 0.000000 0.000000 0.000000 0.000000 0.056064 0.000000
# 6 0.000000 0.000000 0.000000 0.000000 0.000000 0.054902
#
#
# Mechanical properties :
#
#
# Convention : Reuss Voigt Hill
#
# Bulk Modulus (GPa) = 21.69115 32.09790 26.89452
# Shear Modulus (GPa) = 18.41972 24.86482 21.64227
#
# Velocity S-wave (km/s) = 2.98221 3.46489 3.23257
# Velocity P-wave (km/s) = 4.72559 5.61294 5.18827
#
# Compressibility (1/GPa) = 0.04610176
#
# Stress axis : x y z
#
# Youngs Moduli (GPa) = 89.88472 18.76402 51.34974
#
# Poissons Ratio (x) = 0.09873 0.12589
# Poissons Ratio (y) = 0.47295 0.57421
# Poissons Ratio (z) = 0.22036 0.20982
#
# Static dielectric constant tensor:
#      x y z
#    x 1.771120 0.000000 0.000000 
#    y 0.000000 1.769920 0.000000 
#    z 0.000000 0.000000 1.869450 
# 
# From -- ./inp_files/12005.got.cif
#   From: 2010.05.17/outbox.cif.g08.bks.cpg/sg73_7_cif.got.tgz:12005.got - 2010.06.03 17:35:07.
