data_PCOD9529782
_publ_section_title
;
Structure prediction by ZEFSAII (Michael W. Deem and Ramdas Pophale) SiO2 
 PCOD9529782
Probable space group: I B C A 
;
_chemical_formula_sum "Si O2"
_cell_formula_units_Z 88
_cell_length_a 26.938420
_cell_length_b 16.962712
_cell_length_c 9.516742
_cell_angle_alpha 90.000000
_cell_angle_beta 90.000000
_cell_angle_gamma 90.000000
_cell_volume 4348.662506
_symmetry_space_group_name_H-M "I B C A "
_symmetry_group_IT_number 73
_symmetry_cell_setting 'orthorhombic'
loop_
_space_group_symop_operation_xyz
x,y,z
-x,1/2-y,z
x,-y,1/2-z
1/2-x,y,-z
-x,-y,-z
x,1/2+y,-z
-x,y,1/2+z
1/2+x,-y,z
1/2+x,1/2+y,1/2+z
1/2-x,-y,1/2+z
1/2+x,1/2-y,-z
-x,1/2+y,1/2-z
1/2-x,1/2-y,1/2-z
1/2+x,y,1/2-z
1/2-x,1/2+y,z
x,1/2-y,1/2+z
loop_
_atom_site_type_symbol
_atom_site_label
_atom_site_fract_x
_atom_site_fract_y
_atom_site_fract_z
Si Si1 0.488183 0.654294 0.829443
Si Si2 0.101965 0.293314 0.180542
Si Si3 0.064680 0.879848 0.388219
Si Si4 0.328436 0.418474 0.316090
Si Si5 0.663256 0.716259 0.911732
Si Si6 0.250000 0.177363 0.000000
O O1 0.500000 0.750000 0.849144
O O2 0.443826 0.650545 0.714155
O O3 0.534307 0.610287 0.757015
O O4 0.469183 0.615564 0.973333
O O5 0.079211 0.212402 0.121920
O O6 0.125681 0.275013 0.331833
O O7 0.143765 0.310246 0.064586
O O8 0.117156 0.925225 0.388633
O O9 0.311725 0.500000 0.250000
O O10 0.335179 0.358404 0.187937
O O11 0.287944 0.377612 0.415088
O O12 0.714662 0.763071 0.915143
#
# Coordination Sequence:
#
# PCOD9529782 Si02
#       6
#    16  16  16  16  16   8
#     4  10  18  29  57  95 126 166 217 270 316 372
#     4  10  18  33  57  93 127 159 208 275 316 365
#     4  10  20  34  57  86 130 165 213 263 318 378
#     4  11  26  44  63  93 138 173 207 276 341 394
#     4  11  21  38  67  94 124 165 218 271 322 382
#     4  12  22  44  70  96 120 166 228 272 324 396
#
# _framework density 20.236107000000001
#
# number of rings (size 3 to 8) (size 9 to 14) (size 15 to 20)
#    0.000    1.455    5.455    2.182    5.091    0.727 
#    0.000    0.909    0.000    0.000    0.000    0.000 
#    0.000    0.000    0.000    0.000    0.000    0.000 
#
# Total GULP energy -245357.827708 kJ/mol
# GULP energy per Si atom -5576.314266 kJ/mol
# Density = 2.019005 g / cm^3
# Si number density = 20.236107 Si / 1000 Ang^3
#
#
#
# Elastic Constant Matrix: (Units=GPa)
#
#
# Indices 1 2 3 4 5 6 
#
# 1 106.0057 11.4384 43.5159 0.0000 0.0000 0.0000
# 2 11.4384 22.7980 1.6606 0.0000 0.0000 0.0000
# 3 43.5159 1.6606 104.3434 0.0000 0.0000 0.0000
# 4 0.0000 0.0000 0.0000 3.0100 0.0000 0.0000
# 5 0.0000 0.0000 0.0000 0.0000 21.2994 0.0000
# 6 0.0000 0.0000 0.0000 0.0000 0.0000 7.6477
#
#
#
# Elastic Compliance Matrix: (Units=1/GPa)
#
#
# Indices 1 2 3 4 5 6 
#
# 1 0.012079 -0.005700 -0.004947 0.000000 0.000000 0.000000
# 2 -0.005700 0.046604 0.001636 0.000000 0.000000 0.000000
# 3 -0.004947 0.001636 0.011621 0.000000 0.000000 0.000000
# 4 0.000000 0.000000 0.000000 0.332225 0.000000 0.000000
# 5 0.000000 0.000000 0.000000 0.000000 0.046950 0.000000
# 6 0.000000 0.000000 0.000000 0.000000 0.000000 0.130758
#
#
# Mechanical properties :
#
#
# Convention : Reuss Voigt Hill
#
# Bulk Modulus (GPa) = 19.12727 38.48632 28.80679
# Shear Modulus (GPa) = 8.12100 18.16024 13.14062
#
# Velocity S-wave (km/s) = 2.00545 2.99894 2.55103
# Velocity P-wave (km/s) = 3.85163 5.57238 4.78991
#
# Compressibility (1/GPa) = 0.05228138
#
# Stress axis : x y z
#
# Youngs Moduli (GPa) = 82.78659 21.45721 86.05267
#
# Poissons Ratio (x) = 0.12231 0.42569
# Poissons Ratio (y) = 0.47190 -0.14074
# Poissons Ratio (z) = 0.40954 -0.03509
#
# Static dielectric constant tensor:
#      x y z
#    x 1.821370 0.000000 0.000000 
#    y 0.000000 1.697590 0.000000 
#    z 0.000000 0.000000 1.750300 
# 
# From -- ./inp_files/8384.got.cif
#   From: 2010.05.17/outbox.cif.g08.bks.cpg/sg73_5_cif.got.tgz:8384.got - 2010.06.03 17:35:07.
