data_PCOD9529867
_publ_section_title
;
Structure prediction by ZEFSAII (Michael W. Deem and Ramdas Pophale) SiO2 
 PCOD9529867
Probable space group: I B C A 
;
_chemical_formula_sum "Si O2"
_cell_formula_units_Z 88
_cell_length_a 15.912851
_cell_length_b 18.071909
_cell_length_c 14.166868
_cell_angle_alpha 90.000000
_cell_angle_beta 90.000000
_cell_angle_gamma 90.000000
_cell_volume 4074.045497
_symmetry_space_group_name_H-M "I B C A "
_symmetry_group_IT_number 73
_symmetry_cell_setting 'orthorhombic'
loop_
_space_group_symop_operation_xyz
x,y,z
-x,1/2-y,z
x,-y,1/2-z
1/2-x,y,-z
-x,-y,-z
x,1/2+y,-z
-x,y,1/2+z
1/2+x,-y,z
1/2+x,1/2+y,1/2+z
1/2-x,-y,1/2+z
1/2+x,1/2-y,-z
-x,1/2+y,1/2-z
1/2-x,1/2-y,1/2-z
1/2+x,y,1/2-z
1/2-x,1/2+y,z
x,1/2-y,1/2+z
loop_
_atom_site_type_symbol
_atom_site_label
_atom_site_fract_x
_atom_site_fract_y
_atom_site_fract_z
Si Si1 0.113064 0.627335 0.204305
Si Si2 0.903014 0.725285 0.518550
Si Si3 0.182307 0.978409 0.574991
Si Si4 0.975287 0.500000 0.250000
Si Si5 0.061333 0.917599 0.430859
Si Si6 0.869865 0.137786 0.086904
O O1 0.107994 0.687301 0.120559
O O2 0.183746 0.569488 0.169246
O O3 0.127884 0.664942 0.304900
O O4 0.033752 0.570403 0.219010
O O5 0.891189 0.661025 0.440260
O O6 0.852470 0.797954 0.487858
O O7 0.000000 0.750000 0.514663
O O8 0.250000 0.952883 0.500000
O O9 0.093483 0.960028 0.523533
O O10 0.188241 0.065675 0.587850
O O11 0.924902 0.531634 0.339446
O O12 0.963717 0.894270 0.432854
#
# Coordination Sequence:
#
# PCOD9529867 Si02
#       6
#    16  16  16   8  16  16
#     4  10  19  36  61  82 115 155 187 236 294 343
#     4   9  20  31  56  90 118 147 186 239 291 346
#     4  11  21  36  59  85 114 156 199 241 286 340
#     4  10  18  32  62  88 110 150 196 242 294 336
#     4   9  19  35  56  86 114 146 194 241 283 342
#     4  10  19  38  59  84 117 153 190 234 296 352
#
# _framework density 21.600152000000001
#
# number of rings (size 3 to 8) (size 9 to 14) (size 15 to 20)
#    0.000    2.182    3.636    0.545    5.091    3.636 
#    3.273    3.636    0.000    5.455    0.000    0.000 
#    0.000    0.000    0.000    0.000    0.000    0.000 
#
# Total GULP energy -245079.860047 kJ/mol
# GULP energy per Si atom -5569.996819 kJ/mol
# Density = 2.155099 g / cm^3
# Si number density = 21.600152 Si / 1000 Ang^3
#
#
#
# Elastic Constant Matrix: (Units=GPa)
#
#
# Indices 1 2 3 4 5 6 
#
# 1 21.0934 -1.8267 10.2890 0.0000 0.0000 0.0000
# 2 -1.8267 126.4906 46.0756 0.0000 0.0000 0.0000
# 3 10.2890 46.0756 108.6999 0.0000 0.0000 0.0000
# 4 0.0000 0.0000 0.0000 50.7421 0.0000 0.0000
# 5 0.0000 0.0000 0.0000 0.0000 17.0924 0.0000
# 6 0.0000 0.0000 0.0000 0.0000 0.0000 2.3504
#
#
#
# Elastic Compliance Matrix: (Units=1/GPa)
#
#
# Indices 1 2 3 4 5 6 
#
# 1 0.050604 0.002928 -0.006031 0.000000 0.000000 0.000000
# 2 0.002928 0.009519 -0.004312 0.000000 0.000000 0.000000
# 3 -0.006031 -0.004312 0.011598 0.000000 0.000000 0.000000
# 4 0.000000 0.000000 0.000000 0.019707 0.000000 0.000000
# 5 0.000000 0.000000 0.000000 0.000000 0.058506 0.000000
# 6 0.000000 0.000000 0.000000 0.000000 0.000000 0.425465
#
#
# Mechanical properties :
#
#
# Convention : Reuss Voigt Hill
#
# Bulk Modulus (GPa) = 17.57773 40.59553 29.08663
# Shear Modulus (GPa) = 8.20759 27.48671 17.84715
#
# Velocity S-wave (km/s) = 1.95142 3.57112 2.87758
# Velocity P-wave (km/s) = 3.63769 5.98654 4.95336
#
# Compressibility (1/GPa) = 0.05689017
#
# Stress axis : x y z
#
# Youngs Moduli (GPa) = 19.76145 105.05694 86.22028
#
# Poissons Ratio (x) = -0.30756 0.51998
# Poissons Ratio (y) = -0.05785 0.37177
# Poissons Ratio (z) = 0.11918 0.45299
#
# Static dielectric constant tensor:
#      x y z
#    x 1.826430 0.000000 0.000000 
#    y 0.000000 1.846570 0.000000 
#    z 0.000000 0.000000 1.812570 
# 
# From -- ./inp_files/17950.got.cif
#   From: 2010.05.17/outbox.cif.g08.bks.cpg/sg73_9_cif.got.tgz:17950.got - 2010.06.03 17:35:07.
