data_PCOD9529940
_publ_section_title
;
Structure prediction by ZEFSAII (Michael W. Deem and Ramdas Pophale) SiO2 
 PCOD9529940
Probable space group: I B C A 
;
_chemical_formula_sum "Si O2"
_cell_formula_units_Z 128
_cell_length_a 22.888181
_cell_length_b 24.435805
_cell_length_c 11.351545
_cell_angle_alpha 90.000000
_cell_angle_beta 90.000000
_cell_angle_gamma 90.000000
_cell_volume 6348.818404
_symmetry_space_group_name_H-M "I B C A "
_symmetry_group_IT_number 73
_symmetry_cell_setting 'orthorhombic'
loop_
_space_group_symop_operation_xyz
x,y,z
-x,1/2-y,z
x,-y,1/2-z
1/2-x,y,-z
-x,-y,-z
x,1/2+y,-z
-x,y,1/2+z
1/2+x,-y,z
1/2+x,1/2+y,1/2+z
1/2-x,-y,1/2+z
1/2+x,1/2-y,-z
-x,1/2+y,1/2-z
1/2-x,1/2-y,1/2-z
1/2+x,y,1/2-z
1/2-x,1/2+y,z
x,1/2-y,1/2+z
loop_
_atom_site_type_symbol
_atom_site_label
_atom_site_fract_x
_atom_site_fract_y
_atom_site_fract_z
Si Si1 0.109626 0.632432 0.315978
Si Si2 0.697231 0.057122 0.678490
Si Si3 0.105562 0.405801 0.923229
Si Si4 0.476603 0.391776 0.628048
Si Si5 0.428579 0.247582 0.745135
Si Si6 0.826678 0.564321 0.284056
Si Si7 0.438529 0.719326 0.001806
Si Si8 0.899458 0.466275 0.015714
O O1 0.163785 0.603584 0.252175
O O2 0.114006 0.623447 0.453562
O O3 0.052691 0.604209 0.256256
O O4 0.099270 0.695208 0.286772
O O5 0.763865 0.075523 0.659039
O O6 0.657054 0.044001 0.566840
O O7 0.698094 0.000000 0.750000
O O8 0.159226 0.402243 0.833412
O O9 0.045439 0.385507 0.866328
O O10 0.096881 0.470195 0.952817
O O11 0.449986 0.339416 0.558897
O O12 0.455215 0.443633 0.552835
O O13 0.500000 0.250000 0.734827
O O14 0.409357 0.244754 0.606003
O O15 0.414834 0.212138 0.863795
O O16 0.824324 0.500000 0.250000
O O17 0.882505 0.567781 0.368641
O O18 0.500000 0.750000 0.021698
#
# Coordination Sequence:
#
# PCOD9529940 Si02
#       8
#    16  16  16  16  16  16  16  16
#     4  10  21  34  54  83 109 150 188 227 294 341
#     4  10  18  36  57  75 107 148 193 240 281 328
#     4  11  20  34  50  79 116 149 185 230 279 344
#     4  10  22  33  52  76 118 147 182 227 283 356
#     4   9  17  32  52  77 110 137 186 233 282 343
#     4   9  21  34  52  76 106 148 196 239 273 323
#     4   9  17  33  50  74 105 141 180 229 278 334
#     4  10  20  36  50  78 107 153 192 222 282 334
#
# _framework density 20.161231000000001
#
# number of rings (size 3 to 8) (size 9 to 14) (size 15 to 20)
#    0.000    2.250    1.250    2.250    1.750    0.500 
#    4.500    0.000    0.000    0.000    0.000    0.875 
#   18.750    0.125    0.000    0.000    0.000    0.000 
#
# Total GULP energy -356491.979544 kJ/mol
# GULP energy per Si atom -5570.187180 kJ/mol
# Density = 2.011534 g / cm^3
# Si number density = 20.161231 Si / 1000 Ang^3
#
#
#
# Elastic Constant Matrix: (Units=GPa)
#
#
# Indices 1 2 3 4 5 6 
#
# 1 49.3807 -1.1057 0.3943 0.0000 0.0000 0.0000
# 2 -1.1057 39.8625 -5.0824 0.0000 0.0000 0.0000
# 3 0.3943 -5.0824 87.0562 0.0000 0.0000 0.0000
# 4 0.0000 0.0000 0.0000 28.5307 0.0000 0.0000
# 5 0.0000 0.0000 0.0000 0.0000 11.3924 0.0000
# 6 0.0000 0.0000 0.0000 0.0000 0.0000 -5.9449
#
#
#
# Elastic Compliance Matrix: (Units=1/GPa)
#
#
# Indices 1 2 3 4 5 6 
#
# 1 0.020264 0.000554 -0.000059 0.000000 0.000000 0.000000
# 2 0.000554 0.025290 0.001474 0.000000 0.000000 0.000000
# 3 -0.000059 0.001474 0.011573 0.000000 0.000000 0.000000
# 4 0.000000 0.000000 0.000000 0.035050 0.000000 0.000000
# 5 0.000000 0.000000 0.000000 0.000000 0.087778 0.000000
# 6 0.000000 0.000000 0.000000 0.000000 0.000000 -0.168212
#
#
# Mechanical properties :
#
#
# Convention : Reuss Voigt Hill
#
# Bulk Modulus (GPa) = 16.37616 18.30132 17.33874
# Shear Modulus (GPa) = 177.56573 18.93519 98.25046
#
# Velocity S-wave (km/s) = 9.39490 3.06794 6.98843
# Velocity P-wave (km/s) = 11.21720 4.65262 8.58698
#
# Compressibility (1/GPa) = 0.06106437
#
# Stress axis : x y z
#
# Youngs Moduli (GPa) = 49.34931 39.54201 86.40686
#
# Poissons Ratio (x) = -0.02192 0.00513
# Poissons Ratio (y) = -0.02736 -0.12736
# Poissons Ratio (z) = 0.00293 -0.05828
#
# Static dielectric constant tensor:
#      x y z
#    x 1.687140 0.000000 0.000000 
#    y 0.000000 1.815270 0.000000 
#    z 0.000000 0.000000 1.809990 
# 
# From -- ./inp_files/13919.got.cif
#   From: 2010.05.17/outbox.cif.g08.bks.cpg/sg73_7_cif.got.tgz:13919.got - 2010.06.03 17:35:07.
