data_PCOD9529743
_publ_section_title
;
Structure prediction by ZEFSAII (Michael W. Deem and Ramdas Pophale) SiO2 
 PCOD9529743
Probable space group: I B C A 
;
_chemical_formula_sum "Si O2"
_cell_formula_units_Z 120
_cell_length_a 19.965050
_cell_length_b 23.444905
_cell_length_c 14.002562
_cell_angle_alpha 90.000000
_cell_angle_beta 90.000000
_cell_angle_gamma 90.000000
_cell_volume 6554.301026
_symmetry_space_group_name_H-M "I B C A "
_symmetry_group_IT_number 73
_symmetry_cell_setting 'orthorhombic'
loop_
_space_group_symop_operation_xyz
x,y,z
-x,1/2-y,z
x,-y,1/2-z
1/2-x,y,-z
-x,-y,-z
x,1/2+y,-z
-x,y,1/2+z
1/2+x,-y,z
1/2+x,1/2+y,1/2+z
1/2-x,-y,1/2+z
1/2+x,1/2-y,-z
-x,1/2+y,1/2-z
1/2-x,1/2-y,1/2-z
1/2+x,y,1/2-z
1/2-x,1/2+y,z
x,1/2-y,1/2+z
loop_
_atom_site_type_symbol
_atom_site_label
_atom_site_fract_x
_atom_site_fract_y
_atom_site_fract_z
Si Si1 0.476615 0.064799 0.718115
Si Si2 0.500000 0.750000 0.192184
Si Si3 0.452793 0.444440 0.999527
Si Si4 0.923612 0.334333 0.826642
Si Si5 0.178119 0.499670 0.013461
Si Si6 0.715944 0.619193 0.397031
Si Si7 0.354655 0.087501 0.858867
Si Si8 0.956278 0.658448 0.459622
O O1 0.447830 0.068093 0.611281
O O2 0.539343 0.108488 0.713993
O O3 0.414067 0.083118 0.783558
O O4 0.495104 0.000000 0.750000
O O5 0.445734 0.783292 0.256938
O O6 0.533778 0.794938 0.120738
O O7 0.500000 0.500000 0.000000
O O8 0.382193 0.460479 0.954399
O O9 0.488583 0.391358 0.950729
O O10 0.844911 0.346148 0.848995
O O11 0.955453 0.321479 0.931189
O O12 0.189170 0.554959 0.080321
O O13 0.250000 0.471041 0.000000
O O14 0.157088 0.527159 0.911363
O O15 0.750000 0.637866 0.500000
O O16 0.782101 0.611442 0.330797
O O17 0.386057 0.127619 0.940629
#
# Coordination Sequence:
#
# PCOD9529743 Si02
#       8
#    16   8  16  16  16  16  16  16
#     4  11  20  32  60  90 125 153 202 254 304 369
#     4  12  26  40  60  90 128 156 210 268 306 350
#     4  11  19  32  59  88 117 160 202 244 310 371
#     4  11  22  40  63  94 114 166 214 251 310 375
#     4   9  16  30  55  89 121 163 192 237 310 382
#     4   9  18  35  63  85 125 160 204 243 309 385
#     4  10  17  35  57  87 123 155 188 251 308 361
#     4  11  21  39  61  86 123 158 202 260 305 355
#
# _framework density 18.308588
#
# number of rings (size 3 to 8) (size 9 to 14) (size 15 to 20)
#    0.000    1.867    6.667    1.200    0.000    0.000 
#    0.000    2.667    0.000    0.000    3.467    0.000 
#    0.000    0.000    0.000    0.000    0.000    0.000 
#
# Total GULP energy -334163.852703 kJ/mol
# GULP energy per Si atom -5569.397545 kJ/mol
# Density = 1.826692 g / cm^3
# Si number density = 18.308588 Si / 1000 Ang^3
#
#
#
# Elastic Constant Matrix: (Units=GPa)
#
#
# Indices 1 2 3 4 5 6 
#
# 1 156.3264 58.1842 41.9325 0.0000 0.0000 0.0000
# 2 58.1842 84.0516 36.2418 0.0000 0.0000 0.0000
# 3 41.9325 36.2418 85.7328 0.0000 0.0000 0.0000
# 4 0.0000 0.0000 0.0000 29.0333 0.0000 0.0000
# 5 0.0000 0.0000 0.0000 0.0000 24.1093 0.0000
# 6 0.0000 0.0000 0.0000 0.0000 0.0000 15.7007
#
#
#
# Elastic Compliance Matrix: (Units=1/GPa)
#
#
# Indices 1 2 3 4 5 6 
#
# 1 0.008928 -0.005256 -0.002145 0.000000 0.000000 0.000000
# 2 -0.005256 0.017643 -0.004888 0.000000 0.000000 0.000000
# 3 -0.002145 -0.004888 0.014780 0.000000 0.000000 0.000000
# 4 0.000000 0.000000 0.000000 0.034443 0.000000 0.000000
# 5 0.000000 0.000000 0.000000 0.000000 0.041478 0.000000
# 6 0.000000 0.000000 0.000000 0.000000 0.000000 0.063691
#
#
# Mechanical properties :
#
#
# Convention : Reuss Voigt Hill
#
# Bulk Modulus (GPa) = 59.61620 66.53642 63.07631
# Shear Modulus (GPa) = 23.68185 26.41881 25.05033
#
# Velocity S-wave (km/s) = 3.60040 3.80277 3.70297
# Velocity P-wave (km/s) = 7.06516 7.46337 7.26699
#
# Compressibility (1/GPa) = 0.01677396
#
# Stress axis : x y z
#
# Youngs Moduli (GPa) = 112.00162 56.67913 67.66098
#
# Poissons Ratio (x) = 0.29789 0.14515
# Poissons Ratio (y) = 0.58864 0.33071
# Poissons Ratio (z) = 0.24027 0.27703
#
# Static dielectric constant tensor:
#      x y z
#    x 1.654040 0.000000 0.000000 
#    y 0.000000 1.652880 0.000000 
#    z 0.000000 0.000000 1.693590 
# 
# From -- ./inp_files/18999.got.cif
#   From: 2010.05.17/outbox.cif.g08.bks.cpg/sg73_10_cif.got.tgz:18999.got - 2010.06.03 17:35:07.
