data_PCOD9529427
_publ_section_title
;
Structure prediction by ZEFSAII (Michael W. Deem and Ramdas Pophale) SiO2 
 PCOD9529427
Probable space group: I B A M
;
_chemical_formula_sum "Si O2"
_cell_formula_units_Z 72
_cell_length_a 7.858083
_cell_length_b 16.521587
_cell_length_c 26.415239
_cell_angle_alpha 90.000000
_cell_angle_beta 90.000000
_cell_angle_gamma 90.000000
_cell_volume 3429.437700
_symmetry_space_group_name_H-M "I B A M"
_symmetry_group_IT_number 72
_symmetry_cell_setting 'orthorhombic'
loop_
_space_group_symop_operation_xyz
x,y,z
-x,-y,z
x,-y,1/2-z
-x,y,1/2-z
-x,-y,-z
x,y,-z
-x,y,1/2+z
x,-y,1/2+z
1/2+x,1/2+y,1/2+z
1/2-x,1/2-y,1/2+z
1/2+x,1/2-y,-z
1/2-x,1/2+y,-z
1/2-x,1/2-y,1/2-z
1/2+x,1/2+y,1/2-z
1/2-x,1/2+y,z
1/2+x,1/2-y,z
loop_
_atom_site_type_symbol
_atom_site_label
_atom_site_fract_x
_atom_site_fract_y
_atom_site_fract_z
Si Si1 0.055551 0.709916 0.616717
Si Si2 0.500000 0.500000 0.600775
Si Si3 0.346159 0.315391 0.716313
Si Si4 0.126800 0.161511 0.442988
Si Si5 0.842956 0.561671 0.344315
O O1 0.085303 0.767781 0.665945
O O2 0.230556 0.669359 0.600195
O O3 0.000313 0.766358 0.570488
O O4 0.918903 0.638492 0.624322
O O5 0.535076 0.422730 0.566389
O O6 0.327155 0.479289 0.632257
O O7 0.500000 0.346374 0.750000
O O8 0.250000 0.250000 0.750000
O O9 0.223690 0.390106 0.704419
O O10 0.192342 0.166717 0.500000
O O11 0.000000 0.500000 0.337678
#
# Coordination Sequence:
#
# PCOD9529427 Si02
#       5
#    16   8  16  16  16
#     4  12  23  46  73 104 149 197 249 315 373 444
#     4  12  25  46  73 108 152 198 243 318 385 444
#     4  12  24  45  77 107 141 199 256 306 375 451
#     4  12  24  43  74 109 147 199 254 309 380 458
#     4  12  26  47  76 106 155 200 243 313 388 439
#
# _framework density 20.994695
#
# number of rings (size 3 to 8) (size 9 to 14) (size 15 to 20)
#    0.000    0.000    8.889    1.000    0.000    0.000 
#    0.000   11.667    0.000    0.000    0.000    0.000 
#    0.000    0.000    0.000    0.000    0.000    0.000 
#
# Total GULP energy -201108.363285 kJ/mol
# GULP energy per Si atom -5586.343425 kJ/mol
# Density = 2.094691 g / cm^3
# Si number density = 20.994695 Si / 1000 Ang^3
#
#
#
# Elastic Constant Matrix: (Units=GPa)
#
#
# Indices 1 2 3 4 5 6 
#
# 1 109.2499 51.8173 36.5115 0.0000 0.0000 0.0000
# 2 51.8173 141.3948 35.6078 0.0000 0.0000 0.0000
# 3 36.5115 35.6078 90.4303 0.0000 0.0000 0.0000
# 4 0.0000 0.0000 0.0000 3.7600 0.0000 0.0000
# 5 0.0000 0.0000 0.0000 0.0000 33.7594 0.0000
# 6 0.0000 0.0000 0.0000 0.0000 0.0000 46.0760
#
#
#
# Elastic Compliance Matrix: (Units=1/GPa)
#
#
# Indices 1 2 3 4 5 6 
#
# 1 0.011976 -0.003520 -0.003449 0.000000 0.000000 0.000000
# 2 -0.003520 0.008886 -0.002078 0.000000 0.000000 0.000000
# 3 -0.003449 -0.002078 0.013269 0.000000 0.000000 0.000000
# 4 0.000000 0.000000 0.000000 0.265958 0.000000 0.000000
# 5 0.000000 0.000000 0.000000 0.000000 0.029621 0.000000
# 6 0.000000 0.000000 0.000000 0.000000 0.000000 0.021703
#
#
# Mechanical properties :
#
#
# Convention : Reuss Voigt Hill
#
# Bulk Modulus (GPa) = 62.35750 65.43870 63.89810
# Shear Modulus (GPa) = 13.33861 31.19496 22.26678
#
# Velocity S-wave (km/s) = 2.52331 3.85885 3.26020
# Velocity P-wave (km/s) = 6.18510 7.14781 6.68381
#
# Compressibility (1/GPa) = 0.01603656
#
# Stress axis : x y z
#
# Youngs Moduli (GPa) = 83.50289 112.54133 75.36425
#
# Poissons Ratio (x) = 0.39616 0.25994
# Poissons Ratio (y) = 0.29394 0.15657
# Poissons Ratio (z) = 0.28801 0.23381
#
# Static dielectric constant tensor:
#      x y z
#    x 1.858720 0.000000 0.000000 
#    y 0.000000 1.756260 0.000000 
#    z 0.000000 0.000000 1.738550 
# 
# From -- ./inp_files/47016.got.cif
#   From: 2010.05.17/outbox.cif.g08.bks.cpg/sg72_24_cif.got.tgz:47016.got - 2010.06.03 17:03:01.
