data_PCOD9529811
_publ_section_title
;
Structure prediction by ZEFSAII (Michael W. Deem and Ramdas Pophale) SiO2 
 PCOD9529811
Probable space group: I B C A 
;
_chemical_formula_sum "Si O2"
_cell_formula_units_Z 96
_cell_length_a 9.191866
_cell_length_b 23.218151
_cell_length_c 23.240737
_cell_angle_alpha 90.000000
_cell_angle_beta 90.000000
_cell_angle_gamma 90.000000
_cell_volume 4959.994695
_symmetry_space_group_name_H-M "I B C A "
_symmetry_group_IT_number 73
_symmetry_cell_setting 'orthorhombic'
loop_
_space_group_symop_operation_xyz
x,y,z
-x,1/2-y,z
x,-y,1/2-z
1/2-x,y,-z
-x,-y,-z
x,1/2+y,-z
-x,y,1/2+z
1/2+x,-y,z
1/2+x,1/2+y,1/2+z
1/2-x,-y,1/2+z
1/2+x,1/2-y,-z
-x,1/2+y,1/2-z
1/2-x,1/2-y,1/2-z
1/2+x,y,1/2-z
1/2-x,1/2+y,z
x,1/2-y,1/2+z
loop_
_atom_site_type_symbol
_atom_site_label
_atom_site_fract_x
_atom_site_fract_y
_atom_site_fract_z
Si Si1 0.388707 0.141602 0.621765
Si Si2 0.136559 0.967601 0.053384
Si Si3 0.401698 0.587632 0.024108
Si Si4 0.075368 0.310197 0.999845
Si Si5 0.400898 0.194811 0.203087
Si Si6 0.650125 0.271687 0.332988
O O1 0.335150 0.078069 0.603672
O O2 0.462789 0.169301 0.565068
O O3 0.508590 0.144208 0.672742
O O4 0.252450 0.183111 0.634970
O O5 0.129504 0.035248 0.067966
O O6 0.250000 0.960241 0.000000
O O7 0.982237 0.946911 0.027489
O O8 0.250000 0.611093 0.000000
O O9 0.508432 0.639467 0.039627
O O10 0.000000 0.250000 0.010726
O O11 0.250000 0.307624 0.000000
O O12 0.500000 0.250000 0.188168
O O13 0.386928 0.197304 0.271934
O O14 0.244284 0.213719 0.179188
O O15 0.500000 0.250000 0.359625
#
# Coordination Sequence:
#
# PCOD9529811 Si02
#       6
#    16  16  16  16  16  16
#     4  10  18  31  48  70 106 147 183 218 267 318
#     4   9  18  33  52  74 103 139 183 229 266 314
#     4   9  17  32  53  73 101 134 176 221 259 307
#     4  11  22  35  52  79 117 150 174 212 267 327
#     4   8  15  28  45  66  95 136 180 222 272 324
#     4   9  16  27  45  67  96 137 182 226 269 322
#
# _framework density 19.354861
#
# number of rings (size 3 to 8) (size 9 to 14) (size 15 to 20)
#    0.000    2.667    0.000    5.000    0.000    1.333 
#    0.000    8.333    0.000    0.000    0.000    0.000 
#    0.000  144.000    0.000    2.500    0.000    0.333 
#
# Total GULP energy -267269.298103 kJ/mol
# GULP energy per Si atom -5568.110377 kJ/mol
# Density = 1.931081 g / cm^3
# Si number density = 19.354861 Si / 1000 Ang^3
#
#
#
# Elastic Constant Matrix: (Units=GPa)
#
#
# Indices 1 2 3 4 5 6 
#
# 1 122.3973 44.9279 21.8200 0.0000 0.0000 0.0000
# 2 44.9279 149.2681 32.4703 0.0000 0.0000 0.0000
# 3 21.8200 32.4703 61.0876 0.0000 0.0000 0.0000
# 4 0.0000 0.0000 0.0000 9.4604 0.0000 0.0000
# 5 0.0000 0.0000 0.0000 0.0000 20.7748 0.0000
# 6 0.0000 0.0000 0.0000 0.0000 0.0000 24.8300
#
#
#
# Elastic Compliance Matrix: (Units=1/GPa)
#
#
# Indices 1 2 3 4 5 6 
#
# 1 0.009417 -0.002378 -0.002100 0.000000 0.000000 0.000000
# 2 -0.002378 0.008176 -0.003496 0.000000 0.000000 0.000000
# 3 -0.002100 -0.003496 0.018978 0.000000 0.000000 0.000000
# 4 0.000000 0.000000 0.000000 0.105704 0.000000 0.000000
# 5 0.000000 0.000000 0.000000 0.000000 0.048135 0.000000
# 6 0.000000 0.000000 0.000000 0.000000 0.000000 0.040274
#
#
# Mechanical properties :
#
#
# Convention : Reuss Voigt Hill
#
# Bulk Modulus (GPa) = 48.48870 59.02107 53.75488
# Shear Modulus (GPa) = 19.72337 26.58203 23.15270
#
# Velocity S-wave (km/s) = 3.19570 3.70997 3.46240
# Velocity P-wave (km/s) = 6.22282 6.99372 6.61951
#
# Compressibility (1/GPa) = 0.02062336
#
# Stress axis : x y z
#
# Youngs Moduli (GPa) = 106.18816 122.31571 52.69131
#
# Poissons Ratio (x) = 0.29083 0.11065
# Poissons Ratio (y) = 0.25248 0.18423
# Poissons Ratio (z) = 0.22299 0.42766
#
# Static dielectric constant tensor:
#      x y z
#    x 1.738720 0.000000 0.000000 
#    y 0.000000 1.743700 0.000000 
#    z 0.000000 0.000000 1.734560 
# 
# From -- ./inp_files/28394.got.cif
#   From: 2010.05.17/outbox.cif.g08.bks.cpg/sg73_15_cif.got.tgz:28394.got - 2010.06.03 17:35:07.
