data_PCOD9529473
_publ_section_title
;
Structure prediction by ZEFSAII (Michael W. Deem and Ramdas Pophale) SiO2 
 PCOD9529473
Probable space group: I B A M
;
_chemical_formula_sum "Si O2"
_cell_formula_units_Z 68
_cell_length_a 8.114756
_cell_length_b 26.379795
_cell_length_c 13.536033
_cell_angle_alpha 90.000000
_cell_angle_beta 90.000000
_cell_angle_gamma 90.000000
_cell_volume 2897.599022
_symmetry_space_group_name_H-M "I B A M"
_symmetry_group_IT_number 72
_symmetry_cell_setting 'orthorhombic'
loop_
_space_group_symop_operation_xyz
x,y,z
-x,-y,z
x,-y,1/2-z
-x,y,1/2-z
-x,-y,-z
x,y,-z
-x,y,1/2+z
x,-y,1/2+z
1/2+x,1/2+y,1/2+z
1/2-x,1/2-y,1/2+z
1/2+x,1/2-y,-z
1/2-x,1/2+y,-z
1/2-x,1/2-y,1/2-z
1/2+x,1/2+y,1/2-z
1/2-x,1/2+y,z
1/2+x,1/2-y,z
loop_
_atom_site_type_symbol
_atom_site_label
_atom_site_fract_x
_atom_site_fract_y
_atom_site_fract_z
Si Si1 0.000000 0.000000 0.250000
Si Si2 0.598451 0.647014 0.111495
Si Si3 0.707570 0.406832 0.809997
Si Si4 0.882195 0.238935 0.381376
Si Si5 0.923169 0.330302 0.118501
O O1 0.129266 0.037159 0.194023
O O2 0.418046 0.620562 0.114421
O O3 0.685065 0.616783 0.199852
O O4 0.546362 0.704703 0.136361
O O5 0.666717 0.643815 0.000000
O O6 0.885789 0.386861 0.843880
O O7 0.865311 0.240551 0.500000
O O8 0.918057 0.296926 0.351698
O O9 0.728837 0.205686 0.347129
O O10 0.923406 0.332137 0.000000
#
# Coordination Sequence:
#
# PCOD9529473 Si02
#       5
#     4  16  16  16  16
#     4   8  16  28  38  56  80 108 140 176 214 244
#     4   8  14  25  38  55  78 106 135 165 199 241
#     4   9  16  26  40  56  81 109 139 174 210 243
#     4   8  14  24  39  58  85 114 137 162 200 244
#     4   9  16  27  42  63  89 115 138 167 203 246
#
# _framework density 23.467704999999999
#
# number of rings (size 3 to 8) (size 9 to 14) (size 15 to 20)
#    0.000    3.765    0.000    2.118    0.000    0.941 
#    0.000   14.706    0.000    0.000    0.000    0.000 
#    0.000   33.882    0.000  135.529    0.000    0.000 
#
# Total GULP energy -189405.433167 kJ/mol
# GULP energy per Si atom -5570.748034 kJ/mol
# Density = 2.341429 g / cm^3
# Si number density = 23.467705 Si / 1000 Ang^3
#
#
#
# Elastic Constant Matrix: (Units=GPa)
#
#
# Indices 1 2 3 4 5 6 
#
# 1 71.1758 27.4972 29.1102 0.0000 0.0000 0.0000
# 2 27.4972 148.9829 17.8050 0.0000 0.0000 0.0000
# 3 29.1102 17.8050 147.7936 0.0000 0.0000 0.0000
# 4 0.0000 0.0000 0.0000 22.4472 0.0000 -0.0001
# 5 0.0000 0.0000 0.0000 0.0000 29.2069 0.0000
# 6 0.0000 0.0000 0.0000 -0.0001 0.0000 213.7264
#
#
#
# Elastic Compliance Matrix: (Units=1/GPa)
#
#
# Indices 1 2 3 4 5 6 
#
# 1 0.016254 -0.002656 -0.002882 0.000000 0.000000 0.000000
# 2 -0.002656 0.007244 -0.000350 0.000000 0.000000 0.000000
# 3 -0.002882 -0.000350 0.007376 0.000000 0.000000 0.000000
# 4 0.000000 0.000000 0.000000 0.044549 0.000000 0.000000
# 5 0.000000 0.000000 0.000000 0.000000 0.034239 0.000000
# 6 0.000000 0.000000 0.000000 0.000000 0.000000 0.004679
#
#
# Mechanical properties :
#
#
# Convention : Reuss Voigt Hill
#
# Bulk Modulus (GPa) = 52.35461 57.41967 54.88714
# Shear Modulus (GPa) = 37.74126 72.64542 55.19334
#
# Velocity S-wave (km/s) = 4.01461 5.56980 4.85488
# Velocity P-wave (km/s) = 6.62172 8.11691 7.40714
#
# Compressibility (1/GPa) = 0.01910052
#
# Stress axis : x y z
#
# Youngs Moduli (GPa) = 61.52257 138.04335 135.57690
#
# Poissons Ratio (x) = 0.36659 0.39068
# Poissons Ratio (y) = 0.16338 0.04740
# Poissons Ratio (z) = 0.17728 0.04827
#
# Static dielectric constant tensor:
#      x y z
#    x 2.083960 0.000000 0.000000 
#    y 0.000000 1.924000 0.000000 
#    z 0.000000 0.000000 1.911280 
# 
# From -- ./inp_files/20381.got.cif
#   From: 2010.05.17/outbox.cif.g08.bks.cpg/sg72_11_cif.got.tgz:20381.got - 2010.06.03 17:03:01.
