data_PCOD9529287
_publ_section_title
;
Structure prediction by ZEFSAII (Michael W. Deem and Ramdas Pophale) SiO2 
 PCOD9529287
Probable space group: I B A M
;
_chemical_formula_sum "Si O2"
_cell_formula_units_Z 52
_cell_length_a 6.083581
_cell_length_b 30.912149
_cell_length_c 13.578954
_cell_angle_alpha 90.000000
_cell_angle_beta 90.000000
_cell_angle_gamma 90.000000
_cell_volume 2553.611409
_symmetry_space_group_name_H-M "I B A M"
_symmetry_group_IT_number 72
_symmetry_cell_setting 'orthorhombic'
loop_
_space_group_symop_operation_xyz
x,y,z
-x,-y,z
x,-y,1/2-z
-x,y,1/2-z
-x,-y,-z
x,y,-z
-x,y,1/2+z
x,-y,1/2+z
1/2+x,1/2+y,1/2+z
1/2-x,1/2-y,1/2+z
1/2+x,1/2-y,-z
1/2-x,1/2+y,-z
1/2-x,1/2-y,1/2-z
1/2+x,1/2+y,1/2-z
1/2-x,1/2+y,z
1/2+x,1/2-y,z
loop_
_atom_site_type_symbol
_atom_site_label
_atom_site_fract_x
_atom_site_fract_y
_atom_site_fract_z
Si Si1 0.870286 0.656836 0.613343
Si Si2 0.500000 0.374216 0.750000
Si Si3 0.188419 0.426122 0.885372
Si Si4 0.500000 0.000000 0.750000
Si Si5 0.500000 0.771791 0.250000
O O1 0.804585 0.662238 0.500000
O O2 0.673085 0.653744 0.690307
O O3 0.007951 0.697218 0.653318
O O4 0.000517 0.611171 0.621512
O O5 0.393956 0.404120 0.833303
O O6 0.131251 0.468141 0.822202
O O7 0.222435 0.436006 0.000000
O O8 0.750000 0.750000 0.250000
#
# Coordination Sequence:
#
# PCOD9529287 Si02
#       5
#    16   8  16   4   8
#     4  11  24  45  69  98 139 187 236 286 355 436
#     4  12  19  45  68 100 128 184 242 292 348 430
#     4  11  24  41  68  96 131 183 231 284 355 430
#     4  12  20  46  60  96 146 168 228 306 362 420
#     4  12  26  46  72 108 146 179 231 296 361 425
#
# _framework density 20.363316999999999
#
# number of rings (size 3 to 8) (size 9 to 14) (size 15 to 20)
#    0.000    0.615    6.154    2.308    0.000    1.846 
#    0.000    1.538    0.000    0.000    0.000    0.000 
#    0.000    0.000    0.000    0.000    0.000    0.000 
#
# Total GULP energy -145038.451362 kJ/mol
# GULP energy per Si atom -5578.401975 kJ/mol
# Density = 2.031697 g / cm^3
# Si number density = 20.363317 Si / 1000 Ang^3
#
#
#
# Elastic Constant Matrix: (Units=GPa)
#
#
# Indices 1 2 3 4 5 6 
#
# 1 93.5104 47.5120 53.1196 0.0000 0.0000 0.0000
# 2 47.5120 115.0196 60.1248 0.0000 0.0000 0.0000
# 3 53.1196 60.1248 190.1898 0.0000 0.0000 0.0000
# 4 0.0000 0.0000 0.0000 7.1767 0.0000 0.0000
# 5 0.0000 0.0000 0.0000 0.0000 12.9836 0.0000
# 6 0.0000 0.0000 0.0000 0.0000 0.0000 38.2971
#
#
#
# Elastic Compliance Matrix: (Units=1/GPa)
#
#
# Indices 1 2 3 4 5 6 
#
# 1 0.014525 -0.004647 -0.002588 0.000000 0.000000 0.000000
# 2 -0.004647 0.011902 -0.002465 0.000000 0.000000 0.000000
# 3 -0.002588 -0.002465 0.006760 0.000000 0.000000 0.000000
# 4 0.000000 0.000000 0.000000 0.139340 0.000000 0.000000
# 5 0.000000 0.000000 0.000000 0.000000 0.077020 0.000000
# 6 0.000000 0.000000 0.000000 0.000000 0.000000 0.026112
#
#
# Mechanical properties :
#
#
# Convention : Reuss Voigt Hill
#
# Bulk Modulus (GPa) = 72.52764 80.02585 76.27674
# Shear Modulus (GPa) = 16.68586 27.55571 22.12078
#
# Velocity S-wave (km/s) = 2.86564 3.68258 3.29949
# Velocity P-wave (km/s) = 6.82959 7.58065 7.21490
#
# Compressibility (1/GPa) = 0.01378785
#
# Stress axis : x y z
#
# Youngs Moduli (GPa) = 68.84548 84.01765 147.93345
#
# Poissons Ratio (x) = 0.39046 0.38281
# Poissons Ratio (y) = 0.31995 0.36461
# Poissons Ratio (z) = 0.17815 0.20707
#
# Static dielectric constant tensor:
#      x y z
#    x 1.828130 0.000000 0.000000 
#    y 0.000000 1.763890 0.000000 
#    z 0.000000 0.000000 1.686450 
# 
# From -- ./inp_files/17620.got.cif
#   From: 2010.05.17/outbox.cif.g08.bks.cpg/sg72_9_cif.got.tgz:17620.got - 2010.06.03 17:03:01.
