data_PCOD9529346
_publ_section_title
;
Structure prediction by ZEFSAII (Michael W. Deem and Ramdas Pophale) SiO2 
 PCOD9529346
Probable space group: I B A M
;
_chemical_formula_sum "Si O2"
_cell_formula_units_Z 48
_cell_length_a 8.881884
_cell_length_b 10.193946
_cell_length_c 21.129915
_cell_angle_alpha 90.000000
_cell_angle_beta 90.000000
_cell_angle_gamma 90.000000
_cell_volume 1913.133055
_symmetry_space_group_name_H-M "I B A M"
_symmetry_group_IT_number 72
_symmetry_cell_setting 'orthorhombic'
loop_
_space_group_symop_operation_xyz
x,y,z
-x,-y,z
x,-y,1/2-z
-x,y,1/2-z
-x,-y,-z
x,y,-z
-x,y,1/2+z
x,-y,1/2+z
1/2+x,1/2+y,1/2+z
1/2-x,1/2-y,1/2+z
1/2+x,1/2-y,-z
1/2-x,1/2+y,-z
1/2-x,1/2-y,1/2-z
1/2+x,1/2+y,1/2-z
1/2-x,1/2+y,z
1/2+x,1/2-y,z
loop_
_atom_site_type_symbol
_atom_site_label
_atom_site_fract_x
_atom_site_fract_y
_atom_site_fract_z
Si Si1 0.417017 0.139558 0.931375
Si Si2 0.829842 0.046316 0.651945
Si Si3 0.894900 0.313930 0.691397
O O1 0.247192 0.106218 0.910859
O O2 0.497834 0.203164 0.870939
O O3 0.500000 0.000000 0.936614
O O4 0.424501 0.206486 0.000000
O O5 0.827535 0.168676 0.700443
O O6 0.723509 0.926729 0.673596
O O7 0.000000 0.000000 0.645014
O O8 0.000000 0.349331 0.750000
#
# Coordination Sequence:
#
# PCOD9529346 Si02
#       3
#    16  16  16
#     4   9  21  43  69 101 145 191 233 286 353 420
#     4  11  25  45  74 107 140 185 242 299 357 424
#     4  11  26  48  74 106 146 190 238 296 361 429
#
# _framework density 25.089735999999998
#
# number of rings (size 3 to 8) (size 9 to 14) (size 15 to 20)
#    0.000    1.667    0.000    2.000    0.000   16.667 
#    0.000   11.667    0.000    0.000    0.000    0.000 
#    0.000    0.000    0.000    0.000    0.000    0.000 
#
# Total GULP energy -134440.043879 kJ/mol
# GULP energy per Si atom -5601.668495 kJ/mol
# Density = 2.503263 g / cm^3
# Si number density = 25.089736 Si / 1000 Ang^3
#
#
#
# Elastic Constant Matrix: (Units=GPa)
#
#
# Indices 1 2 3 4 5 6 
#
# 1 207.9766 66.0819 72.4889 0.0000 0.0000 0.0000
# 2 66.0819 132.4690 26.0564 0.0000 0.0000 0.0000
# 3 72.4889 26.0564 179.8455 0.0000 0.0000 0.0000
# 4 0.0000 0.0000 0.0000 9.2538 0.0000 0.0000
# 5 0.0000 0.0000 0.0000 0.0000 14.3208 0.0000
# 6 0.0000 0.0000 0.0000 0.0000 0.0000 45.6968
#
#
#
# Elastic Compliance Matrix: (Units=1/GPa)
#
#
# Indices 1 2 3 4 5 6 
#
# 1 0.006462 -0.002791 -0.002200 0.000000 0.000000 0.000000
# 2 -0.002791 0.008976 -0.000176 0.000000 0.000000 0.000000
# 3 -0.002200 -0.000176 0.006473 0.000000 0.000000 0.000000
# 4 0.000000 0.000000 0.000000 0.108064 0.000000 0.000000
# 5 0.000000 0.000000 0.000000 0.000000 0.069829 0.000000
# 6 0.000000 0.000000 0.000000 0.000000 0.000000 0.021883
#
#
# Mechanical properties :
#
#
# Convention : Reuss Voigt Hill
#
# Bulk Modulus (GPa) = 86.37763 94.39392 90.38578
# Shear Modulus (GPa) = 21.19746 37.56522 29.38134
#
# Velocity S-wave (km/s) = 2.90981 3.87361 3.42577
# Velocity P-wave (km/s) = 6.76695 7.59675 7.19382
#
# Compressibility (1/GPa) = 0.01157707
#
# Stress axis : x y z
#
# Youngs Moduli (GPa) = 154.75575 111.41318 154.49792
#
# Poissons Ratio (x) = 0.31092 0.33992
# Poissons Ratio (y) = 0.43187 0.02713
# Poissons Ratio (z) = 0.34049 0.01956
#
# Static dielectric constant tensor:
#      x y z
#    x 2.015320 0.000000 0.000000 
#    y 0.000000 1.980600 0.000000 
#    z 0.000000 0.000000 2.065430 
# 
# From -- ./inp_files/41737.got.cif
#   From: 2010.05.17/outbox.cif.g08.bks.cpg/sg72_21_cif.got.tgz:41737.got - 2010.06.03 17:03:01.
