data_PCOD9529875
_publ_section_title
;
Structure prediction by ZEFSAII (Michael W. Deem and Ramdas Pophale) SiO2 
 PCOD9529875
Probable space group: I B C A 
;
_chemical_formula_sum "Si O2"
_cell_formula_units_Z 96
_cell_length_a 11.838954
_cell_length_b 18.863480
_cell_length_c 19.422895
_cell_angle_alpha 90.000000
_cell_angle_beta 90.000000
_cell_angle_gamma 90.000000
_cell_volume 4337.596117
_symmetry_space_group_name_H-M "I B C A "
_symmetry_group_IT_number 73
_symmetry_cell_setting 'orthorhombic'
loop_
_space_group_symop_operation_xyz
x,y,z
-x,1/2-y,z
x,-y,1/2-z
1/2-x,y,-z
-x,-y,-z
x,1/2+y,-z
-x,y,1/2+z
1/2+x,-y,z
1/2+x,1/2+y,1/2+z
1/2-x,-y,1/2+z
1/2+x,1/2-y,-z
-x,1/2+y,1/2-z
1/2-x,1/2-y,1/2-z
1/2+x,y,1/2-z
1/2-x,1/2+y,z
x,1/2-y,1/2+z
loop_
_atom_site_type_symbol
_atom_site_label
_atom_site_fract_x
_atom_site_fract_y
_atom_site_fract_z
Si Si1 0.949214 0.143385 0.422957
Si Si2 0.577585 0.820105 0.546830
Si Si3 0.435758 0.823770 0.784111
Si Si4 0.869139 0.522822 0.484424
Si Si5 0.897434 0.383133 0.141911
Si Si6 0.772327 0.249684 0.382655
O O1 0.866514 0.088423 0.460702
O O2 0.879507 0.216346 0.420886
O O3 0.056209 0.144589 0.473523
O O4 0.992437 0.138529 0.344966
O O5 0.500000 0.750000 0.546821
O O6 0.517024 0.865030 0.606377
O O7 0.700357 0.800515 0.570124
O O8 0.500000 0.750000 0.761249
O O9 0.415927 0.879319 0.723344
O O10 0.321138 0.792667 0.817880
O O11 0.750000 0.482681 0.500000
O O12 0.862756 0.549880 0.405010
O O13 0.000000 0.500000 0.500000
O O14 0.808012 0.318088 0.132451
#
# Coordination Sequence:
#
# PCOD9529875 Si02
#       6
#    16  16  16  16  16  16
#     4  10  21  36  58  88 126 167 213 265 325 391
#     4   9  18  29  49  84 124 167 203 247 302 389
#     4  10  20  33  57 100 138 170 201 242 316 422
#     4  11  24  48  73  90 118 168 232 295 336 368
#     4  10  20  36  60  88 129 166 210 259 329 391
#     4  10  18  33  56  87 136 173 207 242 318 407
#
# _framework density 22.132073999999999
#
# number of rings (size 3 to 8) (size 9 to 14) (size 15 to 20)
#    0.000    2.000    1.667    3.500    0.000    6.000 
#    6.000    0.833    0.000    2.000    0.000    0.000 
#    0.000    0.000    0.000    0.000    0.000    0.000 
#
# Total GULP energy -267362.867769 kJ/mol
# GULP energy per Si atom -5570.059745 kJ/mol
# Density = 2.208170 g / cm^3
# Si number density = 22.132074 Si / 1000 Ang^3
#
#
#
# Elastic Constant Matrix: (Units=GPa)
#
#
# Indices 1 2 3 4 5 6 
#
# 1 141.2088 9.8727 59.1268 0.0000 0.0000 0.0000
# 2 9.8727 21.3920 22.0817 0.0000 0.0000 0.0000
# 3 59.1268 22.0817 120.0148 0.0000 0.0000 0.0000
# 4 0.0000 0.0000 0.0000 20.1360 0.0000 0.0000
# 5 0.0000 0.0000 0.0000 0.0000 25.2783 0.0000
# 6 0.0000 0.0000 0.0000 0.0000 0.0000 35.5647
#
#
#
# Elastic Compliance Matrix: (Units=1/GPa)
#
#
# Indices 1 2 3 4 5 6 
#
# 1 0.008927 0.000518 -0.004493 0.000000 0.000000 0.000000
# 2 0.000518 0.057736 -0.010878 0.000000 0.000000 0.000000
# 3 -0.004493 -0.010878 0.012548 0.000000 0.000000 0.000000
# 4 0.000000 0.000000 0.000000 0.049662 0.000000 0.000000
# 5 0.000000 0.000000 0.000000 0.000000 0.039560 0.000000
# 6 0.000000 0.000000 0.000000 0.000000 0.000000 0.028118
#
#
# Mechanical properties :
#
#
# Convention : Reuss Voigt Hill
#
# Bulk Modulus (GPa) = 20.20042 51.64200 35.92121
# Shear Modulus (GPa) = 20.59663 28.96478 24.78070
#
# Velocity S-wave (km/s) = 3.05392 3.62155 3.34978
# Velocity P-wave (km/s) = 4.64567 6.39310 5.58811
#
# Compressibility (1/GPa) = 0.04950392
#
# Stress axis : x y z
#
# Youngs Moduli (GPa) = 112.02082 17.32016 79.69707
#
# Poissons Ratio (x) = -0.00898 0.35810
# Poissons Ratio (y) = -0.05806 0.86697
# Poissons Ratio (z) = 0.50334 0.18841
#
# Static dielectric constant tensor:
#      x y z
#    x 1.866950 0.000000 0.000000 
#    y 0.000000 1.931300 0.000000 
#    z 0.000000 0.000000 1.843530 
# 
# From -- ./inp_files/25470.got.cif
#   From: 2010.05.17/outbox.cif.g08.bks.cpg/sg73_13_cif.got.tgz:25470.got - 2010.06.03 17:35:07.
