data_PCOD9529902
_publ_section_title
;
Structure prediction by ZEFSAII (Michael W. Deem and Ramdas Pophale) SiO2 
 PCOD9529902
Probable space group: I B C A 
;
_chemical_formula_sum "Si O2"
_cell_formula_units_Z 104
_cell_length_a 15.043227
_cell_length_b 14.860117
_cell_length_c 20.521118
_cell_angle_alpha 90.000000
_cell_angle_beta 90.000000
_cell_angle_gamma 90.000000
_cell_volume 4587.375127
_symmetry_space_group_name_H-M "I B C A "
_symmetry_group_IT_number 73
_symmetry_cell_setting 'orthorhombic'
loop_
_space_group_symop_operation_xyz
x,y,z
-x,1/2-y,z
x,-y,1/2-z
1/2-x,y,-z
-x,-y,-z
x,1/2+y,-z
-x,y,1/2+z
1/2+x,-y,z
1/2+x,1/2+y,1/2+z
1/2-x,-y,1/2+z
1/2+x,1/2-y,-z
-x,1/2+y,1/2-z
1/2-x,1/2-y,1/2-z
1/2+x,y,1/2-z
1/2-x,1/2+y,z
x,1/2-y,1/2+z
loop_
_atom_site_type_symbol
_atom_site_label
_atom_site_fract_x
_atom_site_fract_y
_atom_site_fract_z
Si Si1 0.560585 0.400907 0.761238
Si Si2 0.321892 0.825192 0.330563
Si Si3 0.500000 0.750000 0.338877
Si Si4 0.195306 0.349020 0.561566
Si Si5 0.748210 0.370073 0.293885
Si Si6 0.994460 0.356975 0.091569
Si Si7 0.691622 0.127578 0.936513
O O1 0.524629 0.500000 0.750000
O O2 0.531216 0.330054 0.707378
O O3 0.666562 0.404063 0.746365
O O4 0.527615 0.369832 0.831864
O O5 0.410692 0.793052 0.369155
O O6 0.253873 0.876432 0.376450
O O7 0.272475 0.732760 0.311733
O O8 0.331706 0.871441 0.259329
O O9 0.250000 0.377283 0.500000
O O10 0.096827 0.388169 0.558995
O O11 0.191910 0.238520 0.563097
O O12 0.729083 0.406465 0.366337
O O13 0.000000 0.250000 0.080592
O O14 0.086821 0.397328 0.066003
O O15 0.750000 0.101460 0.000000
#
# Coordination Sequence:
#
# PCOD9529902 Si02
#       7
#    16  16   8  16  16  16  16
#     4  11  21  35  59  90 123 161 210 260 316 383
#     4   9  16  30  52  78 115 153 192 249 309 355
#     4  10  20  34  56  90 122 154 196 260 320 362
#     4   9  17  31  50  84 122 157 204 249 299 380
#     4   9  17  31  52  78 114 152 201 254 300 364
#     4  10  18  34  59  82 124 170 203 253 328 377
#     4   9  18  32  54  84 117 162 209 250 310 379
#
# _framework density 22.670918
#
# number of rings (size 3 to 8) (size 9 to 14) (size 15 to 20)
#    0.000    2.462    2.308    0.923    4.308    0.000 
#   12.462    3.077    0.000    1.846    0.000    0.000 
#    0.000    0.000    0.000    0.000    0.000    0.000 
#
# Total GULP energy -289559.464661 kJ/mol
# GULP energy per Si atom -5568.451243 kJ/mol
# Density = 2.261932 g / cm^3
# Si number density = 22.670918 Si / 1000 Ang^3
#
#
#
# Elastic Constant Matrix: (Units=GPa)
#
#
# Indices 1 2 3 4 5 6 
#
# 1 176.9159 -5.2876 77.9152 0.0000 0.0000 0.0000
# 2 -5.2876 42.1203 -7.1908 0.0000 0.0000 0.0000
# 3 77.9152 -7.1908 120.1040 0.0000 0.0000 0.0000
# 4 0.0000 0.0000 0.0000 203.1987 0.0000 0.0000
# 5 0.0000 0.0000 0.0000 0.0000 29.5081 0.0000
# 6 0.0000 0.0000 0.0000 0.0000 0.0000 -1.5148
#
#
#
# Elastic Compliance Matrix: (Units=1/GPa)
#
#
# Indices 1 2 3 4 5 6 
#
# 1 0.007914 0.000118 -0.005127 0.000000 0.000000 0.000000
# 2 0.000118 0.023988 0.001360 0.000000 0.000000 0.000000
# 3 -0.005127 0.001360 0.011733 0.000000 0.000000 0.000000
# 4 0.000000 0.000000 0.000000 0.004921 0.000000 0.000000
# 5 0.000000 0.000000 0.000000 0.000000 0.033889 0.000000
# 6 0.000000 0.000000 0.000000 0.000000 0.000000 -0.660175
#
#
# Mechanical properties :
#
#
# Convention : Reuss Voigt Hill
#
# Bulk Modulus (GPa) = 27.51974 52.22374 39.87174
# Shear Modulus (GPa) = -8.95547 64.48531 27.76492
#
# Velocity S-wave (km/s) = -1.98967 5.33908 3.50336
# Velocity P-wave (km/s) = 2.62427 7.81622 5.83010
#
# Compressibility (1/GPa) = 0.03633755
#
# Stress axis : x y z
#
# Youngs Moduli (GPa) = 126.36065 41.68668 85.22618
#
# Poissons Ratio (x) = -0.00493 0.43694
# Poissons Ratio (y) = -0.01494 -0.11587
# Poissons Ratio (z) = 0.64784 -0.05668
#
# Static dielectric constant tensor:
#      x y z
#    x 2.019640 0.000000 0.000000 
#    y 0.000000 1.838710 0.000000 
#    z 0.000000 0.000000 1.859170 
# 
# From -- ./inp_files/26140.got.cif
#   From: 2010.05.17/outbox.cif.g08.bks.cpg/sg73_14_cif.got.tgz:26140.got - 2010.06.03 17:35:07.
