data_PCOD9529644
_publ_section_title
;
Structure prediction by ZEFSAII (Michael W. Deem and Ramdas Pophale) SiO2 
 PCOD9529644
Probable space group: I B C A 
;
_chemical_formula_sum "Si O2"
_cell_formula_units_Z 88
_cell_length_a 5.317139
_cell_length_b 34.244886
_cell_length_c 31.614320
_cell_angle_alpha 90.000000
_cell_angle_beta 90.000000
_cell_angle_gamma 90.000000
_cell_volume 5756.487732
_symmetry_space_group_name_H-M "I B C A "
_symmetry_group_IT_number 73
_symmetry_cell_setting 'orthorhombic'
loop_
_space_group_symop_operation_xyz
x,y,z
-x,1/2-y,z
x,-y,1/2-z
1/2-x,y,-z
-x,-y,-z
x,1/2+y,-z
-x,y,1/2+z
1/2+x,-y,z
1/2+x,1/2+y,1/2+z
1/2-x,-y,1/2+z
1/2+x,1/2-y,-z
-x,1/2+y,1/2-z
1/2-x,1/2-y,1/2-z
1/2+x,y,1/2-z
1/2-x,1/2+y,z
x,1/2-y,1/2+z
loop_
_atom_site_type_symbol
_atom_site_label
_atom_site_fract_x
_atom_site_fract_y
_atom_site_fract_z
Si Si1 0.013102 0.482946 0.951890
Si Si2 0.035600 0.821423 0.591004
Si Si3 0.500000 0.750000 0.472778
Si Si4 0.302586 0.205538 0.266469
Si Si5 0.003082 0.892313 0.028100
Si Si6 0.471375 0.204500 0.363585
O O1 0.255341 0.502715 0.931447
O O2 0.034249 0.436632 0.955625
O O3 0.000000 0.500000 0.000000
O O4 0.061679 0.787186 0.556220
O O5 0.028324 0.862032 0.566155
O O6 0.271074 0.816574 0.622766
O O7 0.770040 0.813716 0.613606
O O8 0.250000 0.741517 0.500000
O O9 0.250000 0.250000 0.250000
O O10 0.524479 0.187673 0.237833
O O11 0.408352 0.204629 0.313770
O O12 0.750000 0.890911 0.000000
O O13 0.250000 0.882612 0.000000
O O14 0.500000 0.250000 0.376291
#
# Coordination Sequence:
#
# PCOD9529644 Si02
#       6
#    16  16   8  16  16  16
#     4  10  16  30  51  76  89 112 148 213 258 291
#     4  12  25  35  48  66  92 136 162 204 261 284
#     4  12  22  36  46  56  80 118 182 216 234 258
#     4  10  19  30  53  78  88 109 155 210 241 278
#     4  12  21  35  52  69  96 122 173 218 244 294
#     4  12  21  37  51  67  97 124 162 209 240 303
#
# _framework density 15.287099
#
# number of rings (size 3 to 8) (size 9 to 14) (size 15 to 20)
#    0.000    0.727    7.273    4.364    2.545    0.000 
#    0.000    0.000    0.000    0.000    0.000    0.000 
#    0.000    0.000    0.000    0.000    0.000   63.636 
#
# Total GULP energy -245438.800404 kJ/mol
# GULP energy per Si atom -5578.154555 kJ/mol
# Density = 1.525231 g / cm^3
# Si number density = 15.287099 Si / 1000 Ang^3
#
#
#
# Elastic Constant Matrix: (Units=GPa)
#
#
# Indices 1 2 3 4 5 6 
#
# 1 151.9202 17.4151 33.4319 0.0000 0.0000 0.0000
# 2 17.4151 87.2165 32.6338 0.0000 0.0000 0.0000
# 3 33.4319 32.6338 63.4353 0.0000 0.0000 0.0000
# 4 0.0000 0.0000 0.0000 -29.4590 0.0000 0.0000
# 5 0.0000 0.0000 0.0000 0.0000 25.4024 0.0000
# 6 0.0000 0.0000 0.0000 0.0000 0.0000 14.3362
#
#
#
# Elastic Compliance Matrix: (Units=1/GPa)
#
#
# Indices 1 2 3 4 5 6 
#
# 1 0.007446 -0.000023 -0.003912 0.000000 0.000000 0.000000
# 2 -0.000023 0.014199 -0.007292 0.000000 0.000000 0.000000
# 3 -0.003912 -0.007292 0.021578 0.000000 0.000000 0.000000
# 4 0.000000 0.000000 0.000000 -0.033945 0.000000 0.000000
# 5 0.000000 0.000000 0.000000 0.000000 0.039366 0.000000
# 6 0.000000 0.000000 0.000000 0.000000 0.000000 0.069753
#
#
# Mechanical properties :
#
#
# Convention : Reuss Voigt Hill
#
# Bulk Modulus (GPa) = 48.15349 52.17042 50.16196
# Shear Modulus (GPa) = 33.83525 16.66198 25.24862
#
# Velocity S-wave (km/s) = 4.70970 3.30500 4.06843
# Velocity P-wave (km/s) = 7.81939 6.98321 7.41310
#
# Compressibility (1/GPa) = 0.02076693
#
# Stress axis : x y z
#
# Youngs Moduli (GPa) = 134.30013 70.42795 46.34437
#
# Poissons Ratio (x) = 0.00161 0.18132
# Poissons Ratio (y) = 0.00307 0.33796
# Poissons Ratio (z) = 0.52544 0.51359
#
# Static dielectric constant tensor:
#      x y z
#    x 1.728280 0.000000 0.000000 
#    y 0.000000 1.495770 0.000000 
#    z 0.000000 0.000000 1.497900 
# 
# From -- ./inp_files/2743.got.cif
#   From: 2010.05.17/outbox.cif.g08.bks.cpg/sg73_2_cif.got.tgz:2743.got - 2010.06.03 17:35:07.
