data_PCOD9529704
_publ_section_title
;
Structure prediction by ZEFSAII (Michael W. Deem and Ramdas Pophale) SiO2 
 PCOD9529704
Probable space group: I B C A 
;
_chemical_formula_sum "Si O2"
_cell_formula_units_Z 80
_cell_length_a 26.099787
_cell_length_b 14.216874
_cell_length_c 9.023570
_cell_angle_alpha 90.000000
_cell_angle_beta 90.000000
_cell_angle_gamma 90.000000
_cell_volume 3348.262271
_symmetry_space_group_name_H-M "I B C A "
_symmetry_group_IT_number 73
_symmetry_cell_setting 'orthorhombic'
loop_
_space_group_symop_operation_xyz
x,y,z
-x,1/2-y,z
x,-y,1/2-z
1/2-x,y,-z
-x,-y,-z
x,1/2+y,-z
-x,y,1/2+z
1/2+x,-y,z
1/2+x,1/2+y,1/2+z
1/2-x,-y,1/2+z
1/2+x,1/2-y,-z
-x,1/2+y,1/2-z
1/2-x,1/2-y,1/2-z
1/2+x,y,1/2-z
1/2-x,1/2+y,z
x,1/2-y,1/2+z
loop_
_atom_site_type_symbol
_atom_site_label
_atom_site_fract_x
_atom_site_fract_y
_atom_site_fract_z
Si Si1 0.749162 0.895336 0.322748
Si Si2 0.537048 0.587829 0.640976
Si Si3 0.148438 0.602520 0.175380
Si Si4 0.539207 0.167735 0.656663
Si Si5 0.350681 0.898008 0.672036
O O1 0.750000 0.897321 0.500000
O O2 0.802927 0.857529 0.262686
O O3 0.696786 0.851931 0.258070
O O4 0.749503 0.000000 0.250000
O O5 0.538845 0.500000 0.750000
O O6 0.535809 0.583067 0.464387
O O7 0.591108 0.641006 0.674138
O O8 0.486290 0.640380 0.689862
O O9 0.135473 0.500000 0.250000
O O10 0.099915 0.672026 0.177599
O O11 0.162303 0.588780 0.001838
O O12 0.500000 0.250000 0.603746
O O13 0.355512 0.000000 0.750000
#
# Coordination Sequence:
#
# PCOD9529704 Si02
#       5
#    16  16  16  16  16
#     4  10  17  27  48  81 118 150 188 239 291 341
#     4  10  21  37  59  83 112 153 199 244 293 353
#     4  10  19  32  53  80 115 155 198 240 286 349
#     4  11  23  38  56  83 117 154 197 248 303 351
#     4   9  17  30  49  79 113 147 187 237 291 338
#
# _framework density 23.892990999999999
#
# number of rings (size 3 to 8) (size 9 to 14) (size 15 to 20)
#    0.000    2.000    0.000    7.200    0.000    4.800 
#    0.000    0.000    0.000    1.200    0.000    2.800 
#    0.000    0.000    0.000    0.000    0.000    1.600 
#
# Total GULP energy -222882.218699 kJ/mol
# GULP energy per Si atom -5572.055467 kJ/mol
# Density = 2.383861 g / cm^3
# Si number density = 23.892991 Si / 1000 Ang^3
#
#
#
# Elastic Constant Matrix: (Units=GPa)
#
#
# Indices 1 2 3 4 5 6 
#
# 1 207.8420 -3.4211 58.1675 0.0000 0.0000 0.0000
# 2 -3.4211 53.3656 1.1559 0.0000 0.0000 0.0000
# 3 58.1675 1.1559 179.5406 0.0000 0.0000 0.0000
# 4 0.0000 0.0000 0.0000 0.9295 0.0000 0.0000
# 5 0.0000 0.0000 0.0000 0.0000 35.9096 0.0000
# 6 0.0000 0.0000 0.0000 0.0000 0.0000 1.1687
#
#
#
# Elastic Compliance Matrix: (Units=1/GPa)
#
#
# Indices 1 2 3 4 5 6 
#
# 1 0.005299 0.000377 -0.001719 0.000000 0.000000 0.000000
# 2 0.000377 0.018768 -0.000243 0.000000 0.000000 0.000000
# 3 -0.001719 -0.000243 0.006128 0.000000 0.000000 0.000000
# 4 0.000000 0.000000 0.000000 1.075815 0.000000 0.000000
# 5 0.000000 0.000000 0.000000 0.000000 0.027848 0.000000
# 6 0.000000 0.000000 0.000000 0.000000 0.000000 0.855678
#
#
# Mechanical properties :
#
#
# Convention : Reuss Voigt Hill
#
# Bulk Modulus (GPa) = 37.00304 61.39476 49.19890
# Shear Modulus (GPa) = 2.49786 33.25795 17.87790
#
# Velocity S-wave (km/s) = 1.02357 3.73494 2.73838
# Velocity P-wave (km/s) = 4.11309 6.65967 5.53483
#
# Compressibility (1/GPa) = 0.02702481
#
# Stress axis : x y z
#
# Youngs Moduli (GPa) = 188.72686 53.28193 163.17776
#
# Poissons Ratio (x) = -0.02008 0.28052
# Poissons Ratio (y) = -0.07113 0.03964
# Poissons Ratio (z) = 0.32444 0.01294
#
# Static dielectric constant tensor:
#      x y z
#    x 1.992980 0.000000 0.000000 
#    y 0.000000 2.055920 0.000000 
#    z 0.000000 0.000000 1.801420 
# 
# From -- ./inp_files/7726.got.cif
#   From: 2010.05.17/outbox.cif.g08.bks.cpg/sg73_4_cif.got.tgz:7726.got - 2010.06.03 17:35:07.
