data_PCOD9529236
_publ_section_title
;
Structure prediction by ZEFSAII (Michael W. Deem and Ramdas Pophale) SiO2 
 PCOD9529236
Probable space group: I B A M
;
_chemical_formula_sum "Si O2"
_cell_formula_units_Z 96
_cell_length_a 10.879425
_cell_length_b 21.793834
_cell_length_c 20.461934
_cell_angle_alpha 90.000000
_cell_angle_beta 90.000000
_cell_angle_gamma 90.000000
_cell_volume 4851.614225
_symmetry_space_group_name_H-M "I B A M"
_symmetry_group_IT_number 72
_symmetry_cell_setting 'orthorhombic'
loop_
_space_group_symop_operation_xyz
x,y,z
-x,-y,z
x,-y,1/2-z
-x,y,1/2-z
-x,-y,-z
x,y,-z
-x,y,1/2+z
x,-y,1/2+z
1/2+x,1/2+y,1/2+z
1/2-x,1/2-y,1/2+z
1/2+x,1/2-y,-z
1/2-x,1/2+y,-z
1/2-x,1/2-y,1/2-z
1/2+x,1/2+y,1/2-z
1/2-x,1/2+y,z
1/2+x,1/2-y,z
loop_
_atom_site_type_symbol
_atom_site_label
_atom_site_fract_x
_atom_site_fract_y
_atom_site_fract_z
Si Si1 0.844416 0.707131 0.425754
Si Si2 0.899823 0.390337 0.296124
Si Si3 0.500000 0.000000 0.384672
Si Si4 0.895661 0.265489 0.359055
Si Si5 0.263482 0.933412 0.572849
Si Si6 0.000000 0.827240 0.750000
Si Si7 0.323246 0.436442 0.281532
O O1 0.831773 0.728513 0.500000
O O2 0.728194 0.735006 0.387199
O O3 0.822621 0.634168 0.422895
O O4 0.983292 0.721784 0.403293
O O5 0.959379 0.441483 0.341985
O O6 0.849462 0.332276 0.334918
O O7 0.812438 0.426031 0.246536
O O8 0.000000 0.359155 0.250000
O O9 0.622714 0.019615 0.422697
O O10 0.954206 0.218631 0.306446
O O11 0.204704 0.938893 0.500000
O O12 0.181648 0.939804 0.639186
O O13 0.109174 0.877587 0.749287
O O14 0.367399 0.500000 0.250000
#
# Coordination Sequence:
#
# PCOD9529236 Si02
#       7
#    16  16   8  16  16   8  16
#     4  11  24  44  67  94 136 181 220 268 338 409
#     4  12  21  35  67  96 126 164 214 277 335 386
#     4  12  20  40  62 100 128 166 218 276 338 396
#     4  12  24  42  66 100 134 171 231 275 334 396
#     4  11  23  40  66  96 130 171 214 273 342 400
#     4  12  27  40  66  95 130 174 222 276 326 393
#     4  12  23  43  66  94 132 172 221 272 333 397
#
# _framework density 19.787227999999999
#
# number of rings (size 3 to 8) (size 9 to 14) (size 15 to 20)
#    0.000    0.333    7.500    2.250    0.000    1.333 
#    0.000    0.000    0.000    3.000    0.000    0.000 
#    0.000    0.000    0.000    0.000    0.000    0.000 
#
# Total GULP energy -267392.559062 kJ/mol
# GULP energy per Si atom -5570.678314 kJ/mol
# Density = 1.974219 g / cm^3
# Si number density = 19.787228 Si / 1000 Ang^3
#
#
#
# Elastic Constant Matrix: (Units=GPa)
#
#
# Indices 1 2 3 4 5 6 
#
# 1 66.8573 12.8151 29.2195 0.0000 0.0000 0.0000
# 2 12.8151 120.4999 37.9002 0.0000 0.0000 0.0000
# 3 29.2195 37.9002 90.6474 0.0000 0.0000 0.0000
# 4 0.0000 0.0000 0.0000 13.9113 0.0000 0.0000
# 5 0.0000 0.0000 0.0000 0.0000 0.8192 0.0000
# 6 0.0000 0.0000 0.0000 0.0000 0.0000 28.4212
#
#
#
# Elastic Compliance Matrix: (Units=1/GPa)
#
#
# Indices 1 2 3 4 5 6 
#
# 1 0.017411 -0.000100 -0.005571 0.000000 0.000000 0.000000
# 2 -0.000100 0.009556 -0.003963 0.000000 0.000000 0.000000
# 3 -0.005571 -0.003963 0.014485 0.000000 0.000000 0.000000
# 4 0.000000 0.000000 0.000000 0.071884 0.000000 0.000000
# 5 0.000000 0.000000 0.000000 0.000000 1.220763 0.000000
# 6 0.000000 0.000000 0.000000 0.000000 0.000000 0.035185
#
#
# Mechanical properties :
#
#
# Convention : Reuss Voigt Hill
#
# Bulk Modulus (GPa) = 45.07685 48.65270 46.86477
# Shear Modulus (GPa) = 3.58180 21.83499 12.70840
#
# Velocity S-wave (km/s) = 1.34688 3.32548 2.53702
# Velocity P-wave (km/s) = 5.02484 6.27586 5.68487
#
# Compressibility (1/GPa) = 0.02218434
#
# Stress axis : x y z
#
# Youngs Moduli (GPa) = 57.43513 104.64738 69.03929
#
# Poissons Ratio (x) = 0.01042 0.38460
# Poissons Ratio (y) = 0.00572 0.27362
# Poissons Ratio (z) = 0.31995 0.41475
#
# Static dielectric constant tensor:
#      x y z
#    x 1.805200 0.000000 0.000000 
#    y 0.000000 1.665780 0.000000 
#    z 0.000000 0.000000 1.751910 
# 
# From -- ./inp_files/37147.got.cif
#   From: 2010.05.17/outbox.cif.g08.bks.cpg/sg72_19_cif.got.tgz:37147.got - 2010.06.03 17:03:01.
