data_PCOD9529305
_publ_section_title
;
Structure prediction by ZEFSAII (Michael W. Deem and Ramdas Pophale) SiO2 
 PCOD9529305
Probable space group: I B A M
;
_chemical_formula_sum "Si O2"
_cell_formula_units_Z 64
_cell_length_a 17.505841
_cell_length_b 18.400284
_cell_length_c 9.318703
_cell_angle_alpha 90.000000
_cell_angle_beta 90.000000
_cell_angle_gamma 90.000000
_cell_volume 3001.670217
_symmetry_space_group_name_H-M "I B A M"
_symmetry_group_IT_number 72
_symmetry_cell_setting 'orthorhombic'
loop_
_space_group_symop_operation_xyz
x,y,z
-x,-y,z
x,-y,1/2-z
-x,y,1/2-z
-x,-y,-z
x,y,-z
-x,y,1/2+z
x,-y,1/2+z
1/2+x,1/2+y,1/2+z
1/2-x,1/2-y,1/2+z
1/2+x,1/2-y,-z
1/2-x,1/2+y,-z
1/2-x,1/2-y,1/2-z
1/2+x,1/2+y,1/2-z
1/2-x,1/2+y,z
1/2+x,1/2-y,z
loop_
_atom_site_type_symbol
_atom_site_label
_atom_site_fract_x
_atom_site_fract_y
_atom_site_fract_z
Si Si1 0.159845 0.341921 0.250396
Si Si2 0.438495 0.893903 0.000000
Si Si3 0.114763 0.440897 0.500000
Si Si4 0.170134 0.820448 0.844679
Si Si5 0.918652 0.070132 0.329466
O O1 0.156429 0.408637 0.361001
O O2 0.155564 0.265343 0.332339
O O3 0.240077 0.337252 0.167648
O O4 0.090876 0.352122 0.139664
O O5 0.528602 0.908117 0.000000
O O6 0.396546 0.972765 0.000000
O O7 0.130371 0.860253 0.712624
O O8 0.141200 0.846834 0.000000
O O9 0.925967 0.060232 0.500000
O O10 0.000000 0.078905 0.250000
O O11 0.882753 0.000000 0.250000
#
# Coordination Sequence:
#
# PCOD9529305 Si02
#       5
#    16   8   8  16  16
#     4  11  24  43  68  94 134 173 218 277 336 392
#     4  11  24  43  66  98 136 177 222 275 334 404
#     4  11  24  43  66  98 136 177 222 275 334 404
#     4  11  24  44  67  96 134 175 224 276 331 397
#     4  11  24  43  68  97 135 171 216 272 331 395
#
# _framework density 21.321463000000001
#
# number of rings (size 3 to 8) (size 9 to 14) (size 15 to 20)
#    0.000    1.000    2.500    4.500    3.500    6.000 
#    0.000    0.000    0.000    0.000    0.000    0.000 
#    0.000    0.000    0.000    0.000    0.000    0.000 
#
# Total GULP energy -178906.726295 kJ/mol
# GULP energy per Si atom -5590.835197 kJ/mol
# Density = 2.127293 g / cm^3
# Si number density = 21.321463 Si / 1000 Ang^3
#
#
#
# Elastic Constant Matrix: (Units=GPa)
#
#
# Indices 1 2 3 4 5 6 
#
# 1 39.2780 31.2614 16.8948 0.0000 0.0000 0.0000
# 2 31.2614 69.8783 23.0724 0.0000 0.0000 0.0000
# 3 16.8948 23.0724 164.1122 0.0000 0.0000 0.0000
# 4 0.0000 0.0000 0.0000 53.8037 0.0000 0.0000
# 5 0.0000 0.0000 0.0000 0.0000 -631.1986 0.0000
# 6 0.0000 0.0000 0.0000 0.0000 0.0000 36.1991
#
#
#
# Elastic Compliance Matrix: (Units=1/GPa)
#
#
# Indices 1 2 3 4 5 6 
#
# 1 0.039974 -0.017329 -0.001679 0.000000 0.000000 0.000000
# 2 -0.017329 0.022519 -0.001382 0.000000 0.000000 0.000000
# 3 -0.001679 -0.001382 0.006461 0.000000 0.000000 0.000000
# 4 0.000000 0.000000 0.000000 0.018586 0.000000 0.000000
# 5 0.000000 0.000000 0.000000 0.000000 -0.001584 0.000000
# 6 0.000000 0.000000 0.000000 0.000000 0.000000 0.027625
#
#
# Mechanical properties :
#
#
# Convention : Reuss Voigt Hill
#
# Bulk Modulus (GPa) = 35.49352 46.19177 40.84264
# Shear Modulus (GPa) = 30.53422 -94.76984 -32.11781
#
# Velocity S-wave (km/s) = 3.78840 -6.67417 -3.88540
# Velocity P-wave (km/s) = 5.98489 6.13851 0.96498
#
# Compressibility (1/GPa) = 0.02817416
#
# Stress axis : x y z
#
# Youngs Moduli (GPa) = 25.01651 44.40650 154.78603
#
# Poissons Ratio (x) = 0.76950 0.25988
# Poissons Ratio (y) = 0.43350 0.21392
# Poissons Ratio (z) = 0.04200 0.06137
#
# Static dielectric constant tensor:
#      x y z
#    x 1.749060 0.000000 0.000000 
#    y 0.000000 1.774140 0.000000 
#    z 0.000000 0.000000 1.782720 
# 
# From -- ./inp_files/4353.got.cif
#   From: 2010.05.17/outbox.cif.g08.bks.cpg/sg72_3_cif.got.tgz:4353.got - 2010.06.03 17:03:01.
