data_PCOD9529912
_publ_section_title
;
Structure prediction by ZEFSAII (Michael W. Deem and Ramdas Pophale) SiO2 
 PCOD9529912
Probable space group: I B C A 
;
_chemical_formula_sum "Si O2"
_cell_formula_units_Z 120
_cell_length_a 19.984134
_cell_length_b 21.425818
_cell_length_c 14.080787
_cell_angle_alpha 90.000000
_cell_angle_beta 90.000000
_cell_angle_gamma 90.000000
_cell_volume 6029.060940
_symmetry_space_group_name_H-M "I B C A "
_symmetry_group_IT_number 73
_symmetry_cell_setting 'orthorhombic'
loop_
_space_group_symop_operation_xyz
x,y,z
-x,1/2-y,z
x,-y,1/2-z
1/2-x,y,-z
-x,-y,-z
x,1/2+y,-z
-x,y,1/2+z
1/2+x,-y,z
1/2+x,1/2+y,1/2+z
1/2-x,-y,1/2+z
1/2+x,1/2-y,-z
-x,1/2+y,1/2-z
1/2-x,1/2-y,1/2-z
1/2+x,y,1/2-z
1/2-x,1/2+y,z
x,1/2-y,1/2+z
loop_
_atom_site_type_symbol
_atom_site_label
_atom_site_fract_x
_atom_site_fract_y
_atom_site_fract_z
Si Si1 0.000000 0.750000 0.732941
Si Si2 0.061540 0.122925 0.809334
Si Si3 0.213677 0.249160 0.595710
Si Si4 0.592143 0.325585 0.874837
Si Si5 0.208406 0.155092 0.765634
Si Si6 0.052329 0.550939 0.589585
Si Si7 0.990808 0.080772 0.103280
Si Si8 0.837112 0.925360 0.737969
O O1 0.966556 0.692957 0.678087
O O2 0.942296 0.780110 0.798418
O O3 0.141474 0.125275 0.809304
O O4 0.040129 0.098510 0.704226
O O5 0.019018 0.079911 0.879258
O O6 0.250000 0.227716 0.500000
O O7 0.147027 0.287347 0.568548
O O8 0.194186 0.195503 0.670698
O O9 0.259608 0.297329 0.656864
O O10 0.532204 0.358606 0.929664
O O11 0.628302 0.382123 0.818505
O O12 0.263563 0.104426 0.734214
O O13 0.060877 0.561891 0.478027
O O14 0.112450 0.580727 0.648769
O O15 0.040832 0.478108 0.611682
O O16 0.832224 0.000000 0.750000
#
# Coordination Sequence:
#
# PCOD9529912 Si02
#       8
#     8  16  16  16  16  16  16  16
#     4  10  18  34  62  84 118 152 192 248 300 354
#     4  11  21  39  61  88 125 153 194 258 303 351
#     4  10  22  40  62  83 123 166 198 244 306 360
#     4  10  19  37  60  84 121 156 198 249 294 364
#     4  10  24  39  60  92 121 158 208 248 298 374
#     4  11  21  38  63  89 117 159 207 249 306 363
#     4  10  22  36  62  91 118 153 205 254 300 359
#     4  11  20  39  62  84 119 168 203 241 312 367
#
# _framework density 19.903597999999999
#
# number of rings (size 3 to 8) (size 9 to 14) (size 15 to 20)
#    0.000    1.600    5.333    0.400    1.867    2.133 
#    0.000    2.667    0.000    0.800    0.000    0.000 
#    0.000    0.000    0.000    0.000    0.000    0.000 
#
# Total GULP energy -334608.940254 kJ/mol
# GULP energy per Si atom -5576.815671 kJ/mol
# Density = 1.985830 g / cm^3
# Si number density = 19.903598 Si / 1000 Ang^3
#
#
#
# Elastic Constant Matrix: (Units=GPa)
#
#
# Indices 1 2 3 4 5 6 
#
# 1 42.0518 -5.3635 2.6135 0.0000 0.0000 0.0000
# 2 -5.3635 71.0881 1.9441 0.0000 0.0000 0.0000
# 3 2.6135 1.9441 35.5428 0.0000 0.0000 0.0000
# 4 0.0000 0.0000 0.0000 14.2845 0.0000 0.0000
# 5 0.0000 0.0000 0.0000 0.0000 3.6054 0.0000
# 6 0.0000 0.0000 0.0000 0.0000 0.0000 30.8650
#
#
#
# Elastic Compliance Matrix: (Units=1/GPa)
#
#
# Indices 1 2 3 4 5 6 
#
# 1 0.024136 0.001872 -0.001877 0.000000 0.000000 0.000000
# 2 0.001872 0.014233 -0.000916 0.000000 0.000000 0.000000
# 3 -0.001877 -0.000916 0.028323 0.000000 0.000000 0.000000
# 4 0.000000 0.000000 0.000000 0.070006 0.000000 0.000000
# 5 0.000000 0.000000 0.000000 0.000000 0.277360 0.000000
# 6 0.000000 0.000000 0.000000 0.000000 0.000000 0.032399
#
#
# Mechanical properties :
#
#
# Convention : Reuss Voigt Hill
#
# Bulk Modulus (GPa) = 15.42017 16.34124 15.88070
# Shear Modulus (GPa) = 10.64019 19.71689 15.17854
#
# Velocity S-wave (km/s) = 2.31462 3.15082 2.76452
# Velocity P-wave (km/s) = 3.86103 4.63303 4.26453
#
# Compressibility (1/GPa) = 0.06485014
#
# Stress axis : x y z
#
# Youngs Moduli (GPa) = 41.43249 70.25740 35.30672
#
# Poissons Ratio (x) = -0.13154 0.06628
# Poissons Ratio (y) = -0.07758 0.03235
# Poissons Ratio (z) = 0.07778 0.06437
#
# Static dielectric constant tensor:
#      x y z
#    x 1.732740 0.000000 0.000000 
#    y 0.000000 1.729360 0.000000 
#    z 0.000000 0.000000 1.707780 
# 
# From -- ./inp_files/18951.got.cif
#   From: 2010.05.17/outbox.cif.g08.bks.cpg/sg73_10_cif.got.tgz:18951.got - 2010.06.03 17:35:07.
