data_PCOD9529915
_publ_section_title
;
Structure prediction by ZEFSAII (Michael W. Deem and Ramdas Pophale) SiO2 
 PCOD9529915
Probable space group: I B C A 
;
_chemical_formula_sum "Si O2"
_cell_formula_units_Z 112
_cell_length_a 16.901961
_cell_length_b 16.840316
_cell_length_c 15.381771
_cell_angle_alpha 90.000000
_cell_angle_beta 90.000000
_cell_angle_gamma 90.000000
_cell_volume 4378.180610
_symmetry_space_group_name_H-M "I B C A "
_symmetry_group_IT_number 73
_symmetry_cell_setting 'orthorhombic'
loop_
_space_group_symop_operation_xyz
x,y,z
-x,1/2-y,z
x,-y,1/2-z
1/2-x,y,-z
-x,-y,-z
x,1/2+y,-z
-x,y,1/2+z
1/2+x,-y,z
1/2+x,1/2+y,1/2+z
1/2-x,-y,1/2+z
1/2+x,1/2-y,-z
-x,1/2+y,1/2-z
1/2-x,1/2-y,1/2-z
1/2+x,y,1/2-z
1/2-x,1/2+y,z
x,1/2-y,1/2+z
loop_
_atom_site_type_symbol
_atom_site_label
_atom_site_fract_x
_atom_site_fract_y
_atom_site_fract_z
Si Si1 0.176056 0.320175 0.303498
Si Si2 0.405312 0.750579 0.459189
Si Si3 0.464909 0.327290 0.820375
Si Si4 0.865983 0.910407 0.443108
Si Si5 0.404108 0.920676 0.444109
Si Si6 0.955458 0.071990 0.817402
Si Si7 0.725793 0.580561 0.804941
O O1 0.153570 0.256660 0.376157
O O2 0.118275 0.305662 0.223123
O O3 0.145230 0.399111 0.356120
O O4 0.258375 0.345648 0.261447
O O5 0.500000 0.750000 0.436978
O O6 0.624683 0.826642 0.508577
O O7 0.395275 0.839885 0.499706
O O8 0.500000 0.250000 0.866425
O O9 0.443435 0.401244 0.880606
O O10 0.519388 0.352350 0.740436
O O11 0.787025 0.912726 0.384530
O O12 0.873725 0.997887 0.483783
O O13 0.492006 0.928263 0.404293
O O14 0.863480 0.076147 0.835999
O O15 0.969778 0.000000 0.750000
O O16 0.740406 0.500000 0.750000
#
# Coordination Sequence:
#
# PCOD9529915 Si02
#       7
#    16  16  16  16  16  16  16
#     4   8  18  33  57  87 129 175 208 275 332 398
#     4  10  21  36  61  91 133 175 234 281 325 401
#     4  10  19  33  60  91 130 163 220 294 333 393
#     4  11  20  36  63  98 132 176 225 288 342 403
#     4   9  19  35  59  89 133 173 225 281 329 402
#     4  10  19  33  64 101 132 168 217 277 363 411
#     4  10  18  34  63 100 134 168 217 281 357 419
#
# _framework density 25.581401
#
# number of rings (size 3 to 8) (size 9 to 14) (size 15 to 20)
#    0.857    1.429    2.857    0.857    0.000    0.571 
#    0.000    2.857    3.143    0.857    0.000    3.000 
#    0.000    0.000    0.286    0.000    0.000    0.000 
#
# Total GULP energy -312723.867758 kJ/mol
# GULP energy per Si atom -5584.354781 kJ/mol
# Density = 2.552318 g / cm^3
# Si number density = 25.581401 Si / 1000 Ang^3
#
#
#
# Elastic Constant Matrix: (Units=GPa)
#
#
# Indices 1 2 3 4 5 6 
#
# 1 95.8297 52.0568 45.4089 0.0000 0.0000 0.0000
# 2 52.0568 179.8829 59.1880 0.0000 0.0000 0.0000
# 3 45.4089 59.1880 77.1856 0.0000 0.0000 0.0000
# 4 0.0000 0.0000 0.0000 57.2488 0.0000 0.0000
# 5 0.0000 0.0000 0.0000 0.0000 20.4352 0.0000
# 6 0.0000 0.0000 0.0000 0.0000 0.0000 23.4326
#
#
#
# Elastic Compliance Matrix: (Units=1/GPa)
#
#
# Indices 1 2 3 4 5 6 
#
# 1 0.014946 -0.001915 -0.007324 0.000000 0.000000 0.000000
# 2 -0.001915 0.007681 -0.004763 0.000000 0.000000 0.000000
# 3 -0.007324 -0.004763 0.020917 0.000000 0.000000 0.000000
# 4 0.000000 0.000000 0.000000 0.017468 0.000000 0.000000
# 5 0.000000 0.000000 0.000000 0.000000 0.048935 0.000000
# 6 0.000000 0.000000 0.000000 0.000000 0.000000 0.042676
#
#
# Mechanical properties :
#
#
# Convention : Reuss Voigt Hill
#
# Bulk Modulus (GPa) = 64.35471 74.02286 69.18878
# Shear Modulus (GPa) = 26.90967 33.30629 30.10798
#
# Velocity S-wave (km/s) = 3.24686 3.61220 3.43439
# Velocity P-wave (km/s) = 6.26638 6.81149 6.54461
#
# Compressibility (1/GPa) = 0.01553888
#
# Stress axis : x y z
#
# Youngs Moduli (GPa) = 66.90638 130.19760 47.80801
#
# Poissons Ratio (x) = 0.24938 0.35016
# Poissons Ratio (y) = 0.12815 0.22770
# Poissons Ratio (z) = 0.49004 0.62011
#
# Static dielectric constant tensor:
#      x y z
#    x 1.989210 0.000000 0.000000 
#    y 0.000000 2.089030 0.000000 
#    z 0.000000 0.000000 2.065200 
# 
# From -- ./inp_files/22738.got.cif
#   From: 2010.05.17/outbox.cif.g08.bks.cpg/sg73_12_cif.got.tgz:22738.got - 2010.06.03 17:35:07.
