data_PCOD9529948
_publ_section_title
;
Structure prediction by ZEFSAII (Michael W. Deem and Ramdas Pophale) SiO2 
 PCOD9529948
Probable space group: I B C A 
;
_chemical_formula_sum "Si O2"
_cell_formula_units_Z 104
_cell_length_a 28.292204
_cell_length_b 20.064137
_cell_length_c 8.744771
_cell_angle_alpha 90.000000
_cell_angle_beta 90.000000
_cell_angle_gamma 90.000000
_cell_volume 4964.044962
_symmetry_space_group_name_H-M "I B C A "
_symmetry_group_IT_number 73
_symmetry_cell_setting 'orthorhombic'
loop_
_space_group_symop_operation_xyz
x,y,z
-x,1/2-y,z
x,-y,1/2-z
1/2-x,y,-z
-x,-y,-z
x,1/2+y,-z
-x,y,1/2+z
1/2+x,-y,z
1/2+x,1/2+y,1/2+z
1/2-x,-y,1/2+z
1/2+x,1/2-y,-z
-x,1/2+y,1/2-z
1/2-x,1/2-y,1/2-z
1/2+x,y,1/2-z
1/2-x,1/2+y,z
x,1/2-y,1/2+z
loop_
_atom_site_type_symbol
_atom_site_label
_atom_site_fract_x
_atom_site_fract_y
_atom_site_fract_z
Si Si1 0.983635 0.950765 0.629740
Si Si2 0.500000 0.750000 0.304881
Si Si3 0.431648 0.136352 0.111735
Si Si4 0.674452 0.333250 0.174945
Si Si5 0.424799 0.851787 0.730326
Si Si6 0.320057 0.310391 0.309851
Si Si7 0.248456 0.574380 0.684170
O O1 0.944140 0.893450 0.623958
O O2 0.032200 0.916001 0.687715
O O3 0.961407 0.000000 0.750000
O O4 0.000000 0.000000 0.500000
O O5 0.462719 0.796606 0.391034
O O6 0.534291 0.797616 0.212061
O O7 0.381562 0.151188 0.188907
O O8 0.422988 0.113438 0.936570
O O9 0.690639 0.265858 0.262516
O O10 0.703632 0.395534 0.241196
O O11 0.682880 0.320177 0.993548
O O12 0.373536 0.821291 0.749415
O O13 0.289277 0.369044 0.234561
O O14 0.238885 0.500000 0.750000
O O15 0.250000 0.571155 0.500000
#
# Coordination Sequence:
#
# PCOD9529948 Si02
#       7
#    16   8  16  16  16  16  16
#     4  11  22  41  58  88 133 181 228 273 335 397
#     4  10  18  36  60  96 130 170 218 264 324 366
#     4  10  21  37  62  93 130 174 222 273 323 393
#     4  11  23  44  70 103 138 177 231 282 348 411
#     4  10  21  37  62  92 130 175 219 276 325 389
#     4  11  23  44  70 103 135 181 227 286 347 414
#     4  12  27  50  73 103 135 176 221 283 351 422
#
# _framework density 20.950655999999999
#
# number of rings (size 3 to 8) (size 9 to 14) (size 15 to 20)
#    0.000    1.231    3.077    3.231    0.000    1.231 
#    8.308    0.000    0.000    0.000    0.000    0.000 
#    0.000    0.000    0.000    0.000    0.000    0.000 
#
# Total GULP energy -289652.494869 kJ/mol
# GULP energy per Si atom -5570.240286 kJ/mol
# Density = 2.090297 g / cm^3
# Si number density = 20.950656 Si / 1000 Ang^3
#
#
#
# Elastic Constant Matrix: (Units=GPa)
#
#
# Indices 1 2 3 4 5 6 
#
# 1 105.1070 29.1628 11.7204 0.0000 0.0000 0.0000
# 2 29.1628 98.1939 21.8551 0.0000 0.0000 0.0000
# 3 11.7204 21.8551 78.0253 0.0000 0.0000 0.0000
# 4 0.0000 0.0000 0.0000 23.4558 0.0000 0.0000
# 5 0.0000 0.0000 0.0000 0.0000 -3.2232 0.0000
# 6 0.0000 0.0000 0.0000 0.0000 0.0000 28.6672
#
#
#
# Elastic Compliance Matrix: (Units=1/GPa)
#
#
# Indices 1 2 3 4 5 6 
#
# 1 0.010409 -0.002926 -0.000744 0.000000 0.000000 0.000000
# 2 -0.002926 0.011683 -0.002833 0.000000 0.000000 0.000000
# 3 -0.000744 -0.002833 0.013722 0.000000 0.000000 0.000000
# 4 0.000000 0.000000 0.000000 0.042633 0.000000 0.000000
# 5 0.000000 0.000000 0.000000 0.000000 -0.310249 0.000000
# 6 0.000000 0.000000 0.000000 0.000000 0.000000 0.034883
#
#
# Mechanical properties :
#
#
# Convention : Reuss Voigt Hill
#
# Bulk Modulus (GPa) = 43.84384 45.20033 44.52209
# Shear Modulus (GPa) = -28.35915 24.35247 -2.00334
#
# Velocity S-wave (km/s) = -3.68314 3.41306 -0.97893
# Velocity P-wave (km/s) = 1.69859 6.09536 4.47430
#
# Compressibility (1/GPa) = 0.02280822
#
# Stress axis : x y z
#
# Youngs Moduli (GPa) = 96.07204 85.59143 72.87746
#
# Poissons Ratio (x) = 0.25042 0.05422
# Poissons Ratio (y) = 0.28108 0.20647
# Poissons Ratio (z) = 0.07148 0.24249
#
# Static dielectric constant tensor:
#      x y z
#    x 1.753620 0.000000 0.000000 
#    y 0.000000 1.837810 0.000000 
#    z 0.000000 0.000000 1.834750 
# 
# From -- ./inp_files/7896.got.cif
#   From: 2010.05.17/outbox.cif.g08.bks.cpg/sg73_4_cif.got.tgz:7896.got - 2010.06.03 17:35:07.
