data_PCOD9529588
_publ_section_title
;
Structure prediction by ZEFSAII (Michael W. Deem and Ramdas Pophale) SiO2 
 PCOD9529588
Probable space group: I B A M
;
_chemical_formula_sum "Si O2"
_cell_formula_units_Z 52
_cell_length_a 9.000000
_cell_length_b 27.000000
_cell_length_c 24.000000
_cell_angle_alpha 90.000000
_cell_angle_beta 90.000000
_cell_angle_gamma 90.000000
_cell_volume 5832.000000
_symmetry_space_group_name_H-M "I B A M"
_symmetry_group_IT_number 72
_symmetry_cell_setting 'orthorhombic'
loop_
_space_group_symop_operation_xyz
x,y,z
-x,-y,z
x,-y,1/2-z
-x,y,1/2-z
-x,-y,-z
x,y,-z
-x,y,1/2+z
x,-y,1/2+z
1/2+x,1/2+y,1/2+z
1/2-x,1/2-y,1/2+z
1/2+x,1/2-y,-z
1/2-x,1/2+y,-z
1/2-x,1/2-y,1/2-z
1/2+x,1/2+y,1/2-z
1/2-x,1/2+y,z
1/2+x,1/2-y,z
loop_
_atom_site_type_symbol
_atom_site_label
_atom_site_fract_x
_atom_site_fract_y
_atom_site_fract_z
Si Si1 0.742768 0.500000 0.750000
Si Si2 0.124027 0.109258 0.870029
Si Si3 0.500000 0.261789 0.750000
Si Si4 0.167115 0.161220 0.323034
Si Si5 0.268337 0.193397 0.933309
Si Si6 0.580063 0.220911 0.127996
Si Si7 0.661852 0.104058 0.734407
Si Si8 0.500000 0.500000 0.156733
O O1 0.841805 0.454733 0.768650
O O2 0.634107 0.513938 0.801319
O O3 0.201813 0.138251 0.921239
O O4 0.247969 0.117286 0.821309
O O5 0.981076 0.141218 0.851617
O O6 0.064506 0.051275 0.872666
O O7 0.373931 0.297112 0.776761
O O8 0.547633 0.233297 0.806441
O O9 0.286721 0.181189 0.367118
O O10 0.237512 0.118505 0.286345
O O11 0.428788 0.203028 0.902732
O O12 0.152896 0.232294 0.904388
O O13 0.280696 0.201632 0.000000
O O14 0.500000 0.124699 0.750000
#
# Coordination Sequence:
#
# PCOD9529588 Si02
#       8
#     8  16   8  16  16  16  16   8
#     4   9  17  30  50  84 122 166 190 244 308 382
#     4  11  21  39  58  86 118 164 209 257 309 366
#     4  12  22  36  58  89 126 153 198 240 310 374
#     4  12  21  35  58  88 125 160 197 246 303 373
#     4  12  25  44  63  86 121 168 217 259 308 374
#     4  12  25  39  61  93 125 164 202 259 319 374
#     4  11  20  31  52  85 128 158 197 241 309 379
#     4   9  18  34  59  82 120 158 207 251 312 370
#
# _framework density 8.9163239999999995
#
# number of rings (size 3 to 8) (size 9 to 14) (size 15 to 20)
#    0.000    0.769    6.154    2.077    3.231    0.000 
#    0.000    1.154    0.000    0.000    0.000    1.077 
#    0.000    0.000    0.000    0.000    0.000    0.000 
#
# Total GULP energy -289665.634160 kJ/mol
# GULP energy per Si atom -5570.492965 kJ/mol
# Density = 0.889603 g / cm^3
# Si number density = 8.916324 Si / 1000 Ang^3
#
#
#
# Elastic Constant Matrix: (Units=GPa)
#
#
# Indices 1 2 3 4 5 6 
#
# 1 120.0134 35.6156 47.0579 0.0000 0.0000 0.0000
# 2 35.6156 87.7058 37.3309 0.0000 0.0000 0.0000
# 3 47.0579 37.3309 95.5558 0.0000 0.0000 0.0000
# 4 0.0000 0.0000 0.0000 15.3109 0.0000 0.0000
# 5 0.0000 0.0000 0.0000 0.0000 24.1621 0.0000
# 6 0.0000 0.0000 0.0000 0.0000 0.0000 26.3757
#
#
#
# Elastic Compliance Matrix: (Units=1/GPa)
#
#
# Indices 1 2 3 4 5 6 
#
# 1 0.010778 -0.002540 -0.004316 0.000000 0.000000 0.000000
# 2 -0.002540 0.014274 -0.004326 0.000000 0.000000 0.000000
# 3 -0.004316 -0.004326 0.014280 0.000000 0.000000 0.000000
# 4 0.000000 0.000000 0.000000 0.065313 0.000000 0.000000
# 5 0.000000 0.000000 0.000000 0.000000 0.041387 0.000000
# 6 0.000000 0.000000 0.000000 0.000000 0.000000 0.037914
#
#
# Mechanical properties :
#
#
# Convention : Reuss Voigt Hill
#
# Bulk Modulus (GPa) = 58.92640 60.36488 59.64564
# Shear Modulus (GPa) = 23.58862 25.38777 24.48820
#
# Velocity S-wave (km/s) = 3.64095 3.77725 3.70972
# Velocity P-wave (km/s) = 7.12679 7.27652 7.20204
#
# Compressibility (1/GPa) = 0.01697032
#
# Stress axis : x y z
#
# Youngs Moduli (GPa) = 92.77839 70.05552 70.02627
#
# Poissons Ratio (x) = 0.17794 0.30221
# Poissons Ratio (y) = 0.23565 0.30292
# Poissons Ratio (z) = 0.40040 0.30304
#
# Static dielectric constant tensor:
#      x y z
#    x 1.652590 0.000000 0.000000 
#    y 0.000000 1.689120 0.000000 
#    z 0.000000 0.000000 1.583900 
# 
# From -- ./inp_files/42668.got.cif
#   From: 2010.05.17/outbox.ucp.g08.bks.cvg/sg72_22_cif.got.tgz:42668.got - 2010.06.11 16:33:07.
