data_PCOD9529934
_publ_section_title
;
Structure prediction by ZEFSAII (Michael W. Deem and Ramdas Pophale) SiO2 
 PCOD9529934
Probable space group: I B C A 
;
_chemical_formula_sum "Si O2"
_cell_formula_units_Z 96
_cell_length_a 22.251816
_cell_length_b 18.803332
_cell_length_c 10.900550
_cell_angle_alpha 90.000000
_cell_angle_beta 90.000000
_cell_angle_gamma 90.000000
_cell_volume 4560.880419
_symmetry_space_group_name_H-M "I B C A "
_symmetry_group_IT_number 73
_symmetry_cell_setting 'orthorhombic'
loop_
_space_group_symop_operation_xyz
x,y,z
-x,1/2-y,z
x,-y,1/2-z
1/2-x,y,-z
-x,-y,-z
x,1/2+y,-z
-x,y,1/2+z
1/2+x,-y,z
1/2+x,1/2+y,1/2+z
1/2-x,-y,1/2+z
1/2+x,1/2-y,-z
-x,1/2+y,1/2-z
1/2-x,1/2-y,1/2-z
1/2+x,y,1/2-z
1/2-x,1/2+y,z
x,1/2-y,1/2+z
loop_
_atom_site_type_symbol
_atom_site_label
_atom_site_fract_x
_atom_site_fract_y
_atom_site_fract_z
Si Si1 0.193643 0.762557 0.159239
Si Si2 0.815371 0.608802 0.535336
Si Si3 0.898997 0.812806 0.862710
Si Si4 0.885294 0.663989 0.984537
Si Si5 0.511563 0.166776 0.168502
Si Si6 0.401687 0.577106 0.763707
O O1 0.250000 0.750000 0.250000
O O2 0.192489 0.688418 0.088512
O O3 0.138744 0.778480 0.250605
O O4 0.178625 0.822506 0.054995
O O5 0.750000 0.581160 0.500000
O O6 0.860181 0.624023 0.422279
O O7 0.845877 0.566297 0.644920
O O8 0.905756 0.744303 0.948778
O O9 0.961032 0.839402 0.805855
O O10 0.883173 0.615664 0.863118
O O11 0.937799 0.637850 0.075858
O O12 0.500000 0.250000 0.148839
O O13 0.448546 0.127403 0.165906
O O14 0.430608 0.500000 0.750000
#
# Coordination Sequence:
#
# PCOD9529934 Si02
#       6
#    16  16  16  16  16  16
#     4  10  18  35  63 101 129 159 211 286 337 388
#     4  11  22  39  64  89 130 170 212 273 337 406
#     4  10  19  36  64 100 127 161 214 271 348 393
#     4  10  22  37  60  96 132 166 212 273 342 395
#     4  11  22  39  67  94 131 170 218 284 340 408
#     4  12  27  45  63  91 133 182 229 273 340 419
#
# _framework density 21.048566999999998
#
# number of rings (size 3 to 8) (size 9 to 14) (size 15 to 20)
#    0.000    1.333    5.000    2.000    4.667    0.667 
#    0.000    1.667    0.000    0.000    0.000    0.000 
#    0.000    0.000    0.000    0.000    0.000    0.000 
#
# Total GULP energy -267705.118687 kJ/mol
# GULP energy per Si atom -5577.189973 kJ/mol
# Density = 2.100066 g / cm^3
# Si number density = 21.048567 Si / 1000 Ang^3
#
#
#
# Elastic Constant Matrix: (Units=GPa)
#
#
# Indices 1 2 3 4 5 6 
#
# 1 82.5008 -1.1854 34.1329 0.0000 0.0000 0.0000
# 2 -1.1854 44.2817 2.0501 0.0000 0.0000 0.0000
# 3 34.1329 2.0501 77.2285 0.0000 0.0000 0.0000
# 4 0.0000 0.0000 0.0000 4.9849 0.0000 0.0000
# 5 0.0000 0.0000 0.0000 0.0000 46.7369 0.0000
# 6 0.0000 0.0000 0.0000 0.0000 0.0000 3.6180
#
#
#
# Elastic Compliance Matrix: (Units=1/GPa)
#
#
# Indices 1 2 3 4 5 6 
#
# 1 0.014855 0.000702 -0.006584 0.000000 0.000000 0.000000
# 2 0.000702 0.022644 -0.000912 0.000000 0.000000 0.000000
# 3 -0.006584 -0.000912 0.015883 0.000000 0.000000 0.000000
# 4 0.000000 0.000000 0.000000 0.200606 0.000000 0.000000
# 5 0.000000 0.000000 0.000000 0.000000 0.021396 0.000000
# 6 0.000000 0.000000 0.000000 0.000000 0.000000 0.276393
#
#
# Mechanical properties :
#
#
# Convention : Reuss Voigt Hill
#
# Bulk Modulus (GPa) = 25.12871 30.44514 27.78693
# Shear Modulus (GPa) = 8.64113 22.33554 15.48833
#
# Velocity S-wave (km/s) = 2.02836 3.26105 2.71558
# Velocity P-wave (km/s) = 4.17732 5.35490 4.80234
#
# Compressibility (1/GPa) = 0.03979512
#
# Stress axis : x y z
#
# Youngs Moduli (GPa) = 67.31608 44.16238 62.96097
#
# Poissons Ratio (x) = -0.03102 0.41455
# Poissons Ratio (y) = -0.04729 0.05739
# Poissons Ratio (z) = 0.44323 0.04026
#
# Static dielectric constant tensor:
#      x y z
#    x 1.779570 0.000000 0.000000 
#    y 0.000000 1.708330 0.000000 
#    z 0.000000 0.000000 1.778910 
# 
# From -- ./inp_files/12893.got.cif
#   From: 2010.05.17/outbox.cif.g08.bks.cpg/sg73_7_cif.got.tgz:12893.got - 2010.06.03 17:35:07.
