data_PCOD9529151
_publ_section_title
;
Structure prediction by ZEFSAII (Michael W. Deem and Ramdas Pophale) SiO2 
 PCOD9529151
Probable space group: I B A M
;
_chemical_formula_sum "Si O2"
_cell_formula_units_Z 96
_cell_length_a 22.462045
_cell_length_b 14.365864
_cell_length_c 14.163943
_cell_angle_alpha 90.000000
_cell_angle_beta 90.000000
_cell_angle_gamma 90.000000
_cell_volume 4570.515794
_symmetry_space_group_name_H-M "I B A M"
_symmetry_group_IT_number 72
_symmetry_cell_setting 'orthorhombic'
loop_
_space_group_symop_operation_xyz
x,y,z
-x,-y,z
x,-y,1/2-z
-x,y,1/2-z
-x,-y,-z
x,y,-z
-x,y,1/2+z
x,-y,1/2+z
1/2+x,1/2+y,1/2+z
1/2-x,1/2-y,1/2+z
1/2+x,1/2-y,-z
1/2-x,1/2+y,-z
1/2-x,1/2-y,1/2-z
1/2+x,1/2+y,1/2-z
1/2-x,1/2+y,z
1/2+x,1/2-y,z
loop_
_atom_site_type_symbol
_atom_site_label
_atom_site_fract_x
_atom_site_fract_y
_atom_site_fract_z
Si Si1 0.648410 0.397484 0.285086
Si Si2 0.014231 0.395185 0.141218
Si Si3 0.922155 0.666263 0.500000
Si Si4 0.340863 0.344670 0.000000
Si Si5 0.869326 0.280626 0.318022
Si Si6 0.781109 0.597359 0.295412
Si Si7 0.797622 0.315107 0.500000
Si Si8 0.810705 0.460773 0.000000
O O1 0.631606 0.500000 0.250000
O O2 0.647966 0.394524 0.399149
O O3 0.612128 0.316533 0.230432
O O4 0.717197 0.381357 0.250742
O O5 0.079088 0.347790 0.139887
O O6 0.000000 0.500000 0.105421
O O7 0.000000 0.398073 0.250000
O O8 0.965999 0.333703 0.088354
O O9 0.881433 0.754849 0.500000
O O10 0.878113 0.577647 0.500000
O O11 0.273004 0.310612 0.000000
O O12 0.831202 0.330349 0.235582
O O13 0.825148 0.269529 0.406698
O O14 0.801455 0.500000 0.250000
O O15 0.779292 0.578910 0.406539
O O16 0.810220 0.427107 0.500000
#
# Coordination Sequence:
#
# PCOD9529151 Si02
#       8
#    16  16   8   8  16  16   8   8
#     4  11  25  44  67 100 138 179 230 286 344 410
#     4  11  24  42  65  96 135 179 226 274 334 411
#     4  12  26  43  66  96 136 181 220 271 346 409
#     4  12  24  46  66  95 136 178 224 289 344 412
#     4  12  24  41  66  98 138 182 231 285 336 408
#     4  11  22  37  64  98 142 181 220 270 347 417
#     4  12  23  37  62  98 136 175 229 277 343 409
#     4  12  22  38  63  95 138 186 215 270 339 420
#
# _framework density 21.004194999999999
#
# number of rings (size 3 to 8) (size 9 to 14) (size 15 to 20)
#    0.000    0.500    3.333    6.250    4.667    0.667 
#    0.000    0.000    0.000    5.500    0.000    0.000 
#    0.000    0.000    0.000    0.000    0.000    0.000 
#
# Total GULP energy -268386.670194 kJ/mol
# GULP energy per Si atom -5591.388962 kJ/mol
# Density = 2.095639 g / cm^3
# Si number density = 21.004195 Si / 1000 Ang^3
#
#
#
# Elastic Constant Matrix: (Units=GPa)
#
#
# Indices 1 2 3 4 5 6 
#
# 1 48.3226 36.3762 31.0793 0.0000 0.0000 0.0000
# 2 36.3762 120.9741 56.0738 0.0000 0.0000 0.0000
# 3 31.0793 56.0738 191.8823 0.0000 0.0000 0.0000
# 4 0.0000 0.0000 0.0000 28.1078 0.0000 0.0000
# 5 0.0000 0.0000 0.0000 0.0000 -21.7592 0.0000
# 6 0.0000 0.0000 0.0000 0.0000 0.0000 29.9485
#
#
#
# Elastic Compliance Matrix: (Units=1/GPa)
#
#
# Indices 1 2 3 4 5 6 
#
# 1 0.027650 -0.007216 -0.002370 0.000000 0.000000 0.000000
# 2 -0.007216 0.011444 -0.002176 0.000000 0.000000 0.000000
# 3 -0.002370 -0.002176 0.006231 0.000000 0.000000 0.000000
# 4 0.000000 0.000000 0.000000 0.035577 0.000000 0.000000
# 5 0.000000 0.000000 0.000000 0.000000 -0.045958 0.000000
# 6 0.000000 0.000000 0.000000 0.000000 0.000000 0.033391
#
#
# Mechanical properties :
#
#
# Convention : Reuss Voigt Hill
#
# Bulk Modulus (GPa) = 45.86462 67.58196 56.72329
# Shear Modulus (GPa) = 50.44038 23.10273 36.77156
#
# Velocity S-wave (km/s) = 4.90577 3.32009 4.18865
# Velocity P-wave (km/s) = 7.34657 6.85147 7.10333
#
# Compressibility (1/GPa) = 0.02180330
#
# Stress axis : x y z
#
# Youngs Moduli (GPa) = 36.16584 87.37865 160.48349
#
# Poissons Ratio (x) = 0.63051 0.38033
# Poissons Ratio (y) = 0.26097 0.34916
# Poissons Ratio (z) = 0.08571 0.19011
#
# Static dielectric constant tensor:
#      x y z
#    x 3.115290 0.000000 0.000000 
#    y 0.000000 1.806760 0.000000 
#    z 0.000000 0.000000 1.750350 
# 
# From -- ./inp_files/25157.got.cif
#   From: 2010.05.17/outbox.cif.g08.bks.cpg/sg72_13_cif.got.tgz:25157.got - 2010.06.03 17:03:01.
