data_PCOD9529232
_publ_section_title
;
Structure prediction by ZEFSAII (Michael W. Deem and Ramdas Pophale) SiO2 
 PCOD9529232
Probable space group: I B A M
;
_chemical_formula_sum "Si O2"
_cell_formula_units_Z 52
_cell_length_a 7.248736
_cell_length_b 19.211006
_cell_length_c 17.517925
_cell_angle_alpha 90.000000
_cell_angle_beta 90.000000
_cell_angle_gamma 90.000000
_cell_volume 2439.467594
_symmetry_space_group_name_H-M "I B A M"
_symmetry_group_IT_number 72
_symmetry_cell_setting 'orthorhombic'
loop_
_space_group_symop_operation_xyz
x,y,z
-x,-y,z
x,-y,1/2-z
-x,y,1/2-z
-x,-y,-z
x,y,-z
-x,y,1/2+z
x,-y,1/2+z
1/2+x,1/2+y,1/2+z
1/2-x,1/2-y,1/2+z
1/2+x,1/2-y,-z
1/2-x,1/2+y,-z
1/2-x,1/2-y,1/2-z
1/2+x,1/2+y,1/2-z
1/2-x,1/2+y,z
1/2+x,1/2-y,z
loop_
_atom_site_type_symbol
_atom_site_label
_atom_site_fract_x
_atom_site_fract_y
_atom_site_fract_z
Si Si1 0.503328 0.202138 0.412427
Si Si2 0.000000 0.500000 0.250000
Si Si3 0.138097 0.839882 0.838461
Si Si4 0.269953 0.391458 0.325844
O O1 0.507108 0.224553 0.500000
O O2 0.313695 0.162898 0.393132
O O3 0.529601 0.268806 0.357879
O O4 0.669521 0.150963 0.391955
O O5 0.137812 0.454465 0.302018
O O6 0.985341 0.900688 0.846740
O O7 0.215702 0.846417 0.752813
#
# Coordination Sequence:
#
# PCOD9529232 Si02
#       4
#    16   4  16  16
#     4  12  23  39  66 105 143 167 203 271 350 412
#     4  12  24  50  66  92 122 184 238 288 300 368
#     4  11  23  39  68 103 132 172 209 275 334 406
#     4  11  25  41  69  93 134 173 234 270 323 383
#
# _framework density 21.316127000000002
#
# number of rings (size 3 to 8) (size 9 to 14) (size 15 to 20)
#    0.000    0.615    6.154    1.846    4.308    3.692 
#    0.000    0.769    0.000    1.846    0.000    0.000 
#    0.000    0.000    0.000    0.000    0.000    0.000 
#
# Total GULP energy -145171.196907 kJ/mol
# GULP energy per Si atom -5583.507573 kJ/mol
# Density = 2.126761 g / cm^3
# Si number density = 21.316127 Si / 1000 Ang^3
#
#
#
# Elastic Constant Matrix: (Units=GPa)
#
#
# Indices 1 2 3 4 5 6 
#
# 1 143.9957 22.9547 28.7178 0.0000 0.0000 0.0000
# 2 22.9547 43.7783 28.8342 0.0000 0.0000 0.0000
# 3 28.7178 28.8342 79.0510 0.0000 0.0000 0.0000
# 4 0.0000 0.0000 0.0000 5.8391 0.0000 0.0000
# 5 0.0000 0.0000 0.0000 0.0000 11.4005 0.0000
# 6 0.0000 0.0000 0.0000 0.0000 0.0000 34.4733
#
#
#
# Elastic Compliance Matrix: (Units=1/GPa)
#
#
# Indices 1 2 3 4 5 6 
#
# 1 0.007759 -0.002911 -0.001757 0.000000 0.000000 0.000000
# 2 -0.002911 0.031158 -0.010307 0.000000 0.000000 0.000000
# 3 -0.001757 -0.010307 0.017048 0.000000 0.000000 0.000000
# 4 0.000000 0.000000 0.000000 0.171258 0.000000 0.000000
# 5 0.000000 0.000000 0.000000 0.000000 0.087715 0.000000
# 6 0.000000 0.000000 0.000000 0.000000 0.000000 0.029008
#
#
# Mechanical properties :
#
#
# Convention : Reuss Voigt Hill
#
# Bulk Modulus (GPa) = 38.44098 47.53759 42.98928
# Shear Modulus (GPa) = 13.06958 22.76381 17.91669
#
# Velocity S-wave (km/s) = 2.47883 3.27144 2.90232
# Velocity P-wave (km/s) = 5.12501 6.05140 5.60737
#
# Compressibility (1/GPa) = 0.02601391
#
# Stress axis : x y z
#
# Youngs Moduli (GPa) = 128.88052 32.09481 58.65824
#
# Poissons Ratio (x) = 0.09344 0.10305
# Poissons Ratio (y) = 0.37521 0.60461
# Poissons Ratio (z) = 0.22642 0.33081
#
# Static dielectric constant tensor:
#      x y z
#    x 1.842570 0.000000 0.000000 
#    y 0.000000 1.792820 0.000000 
#    z 0.000000 0.000000 1.729040 
# 
# From -- ./inp_files/19556.got.cif
#   From: 2010.05.17/outbox.cif.g08.bks.cpg/sg72_10_cif.got.tgz:19556.got - 2010.06.03 17:03:01.
