data_PCOD9529137
_publ_section_title
;
Structure prediction by ZEFSAII (Michael W. Deem and Ramdas Pophale) SiO2 
 PCOD9529137
Probable space group: I B A M
;
_chemical_formula_sum "Si O2"
_cell_formula_units_Z 112
_cell_length_a 23.857069
_cell_length_b 14.687688
_cell_length_c 14.605087
_cell_angle_alpha 90.000000
_cell_angle_beta 90.000000
_cell_angle_gamma 90.000000
_cell_volume 5117.698228
_symmetry_space_group_name_H-M "I B A M"
_symmetry_group_IT_number 72
_symmetry_cell_setting 'orthorhombic'
loop_
_space_group_symop_operation_xyz
x,y,z
-x,-y,z
x,-y,1/2-z
-x,y,1/2-z
-x,-y,-z
x,y,-z
-x,y,1/2+z
x,-y,1/2+z
1/2+x,1/2+y,1/2+z
1/2-x,1/2-y,1/2+z
1/2+x,1/2-y,-z
1/2-x,1/2+y,-z
1/2-x,1/2-y,1/2-z
1/2+x,1/2+y,1/2-z
1/2-x,1/2+y,z
1/2+x,1/2-y,z
loop_
_atom_site_type_symbol
_atom_site_label
_atom_site_fract_x
_atom_site_fract_y
_atom_site_fract_z
Si Si1 0.551395 0.719750 0.605193
Si Si2 0.076720 0.831137 0.898494
Si Si3 0.108388 0.024650 0.857462
Si Si4 0.230972 0.026265 0.356576
Si Si5 0.232168 0.273500 0.104665
Si Si6 0.821938 0.610043 0.399958
Si Si7 0.369447 0.213864 0.253868
O O1 0.561140 0.745388 0.500000
O O2 0.485293 0.706655 0.618940
O O3 0.581418 0.621857 0.622814
O O4 0.578957 0.788643 0.676425
O O5 0.074420 0.940152 0.898063
O O6 0.116702 0.793856 0.818948
O O7 0.096046 0.803381 0.000000
O O8 0.172580 0.016167 0.891306
O O9 0.108964 0.000000 0.750000
O O10 0.234633 0.133042 0.375846
O O11 0.232888 0.000000 0.250000
O O12 0.286665 0.981949 0.396905
O O13 0.274766 0.189328 0.109271
O O14 0.184234 0.266384 0.181839
O O15 0.209809 0.276027 0.000000
O O16 0.849246 0.617467 0.500000
O O17 0.859844 0.627173 0.311312
#
# Coordination Sequence:
#
# PCOD9529137 Si02
#       7
#    16  16  16  16  16  16  16
#     4  11  24  40  60  89 123 164 214 264 319 382
#     4  11  24  40  60  89 123 164 214 264 319 382
#     4  11  22  36  61  87 125 170 213 254 311 379
#     4  11  23  40  62  94 132 173 212 257 309 378
#     4  11  24  40  62  91 126 168 214 262 313 375
#     4  11  24  40  62  91 126 168 214 262 313 375
#     4  12  22  38  59  82 118 158 204 255 308 361
#
# _framework density 21.884838999999999
#
# number of rings (size 3 to 8) (size 9 to 14) (size 15 to 20)
#    0.000    0.857    2.857    4.714    4.000    6.286 
#    0.000    0.000    0.000    0.000    0.000    8.000 
#    0.000   18.286    0.000    0.000    0.000    0.000 
#
# Total GULP energy -313338.471208 kJ/mol
# GULP energy per Si atom -5595.329843 kJ/mol
# Density = 2.183503 g / cm^3
# Si number density = 21.884839 Si / 1000 Ang^3
#
#
#
# Elastic Constant Matrix: (Units=GPa)
#
#
# Indices 1 2 3 4 5 6 
#
# 1 60.5971 14.6140 58.5237 0.0000 0.0000 0.0000
# 2 14.6140 34.4961 1.3030 0.0000 0.0000 0.0000
# 3 58.5237 1.3030 173.4240 0.0000 0.0000 0.0000
# 4 0.0000 0.0000 0.0000 11.1510 0.0000 0.0000
# 5 0.0000 0.0000 0.0000 0.0000 -9.9697 0.0000
# 6 0.0000 0.0000 0.0000 0.0000 0.0000 33.4695
#
#
#
# Elastic Compliance Matrix: (Units=1/GPa)
#
#
# Indices 1 2 3 4 5 6 
#
# 1 0.028554 -0.011736 -0.009548 0.000000 0.000000 0.000000
# 2 -0.011736 0.033821 0.003706 0.000000 0.000000 0.000000
# 3 -0.009548 0.003706 0.008960 0.000000 0.000000 0.000000
# 4 0.000000 0.000000 0.000000 0.089678 0.000000 0.000000
# 5 0.000000 0.000000 0.000000 0.000000 -0.100304 0.000000
# 6 0.000000 0.000000 0.000000 0.000000 0.000000 0.029878
#
#
# Mechanical properties :
#
#
# Convention : Reuss Voigt Hill
#
# Bulk Modulus (GPa) = 27.63938 46.37762 37.00850
# Shear Modulus (GPa) = 36.28419 19.86859 28.07639
#
# Velocity S-wave (km/s) = 4.07622 3.01636 3.58567
# Velocity P-wave (km/s) = 5.90009 5.77658 5.83866
#
# Compressibility (1/GPa) = 0.03618026
#
# Stress axis : x y z
#
# Youngs Moduli (GPa) = 35.02182 29.56772 111.60359
#
# Poissons Ratio (x) = 0.34700 1.06554
# Poissons Ratio (y) = 0.41101 -0.41364
# Poissons Ratio (z) = 0.33437 -0.10959
#
# Static dielectric constant tensor:
#      x y z
#    x 1.809390 0.000000 0.000000 
#    y 0.000000 1.778230 0.000000 
#    z 0.000000 0.000000 1.866560 
# 
# From -- ./inp_files/22172.got.cif
#   From: 2010.05.17/outbox.cif.g08.bks.cpg/sg72_12_cif.got.tgz:22172.got - 2010.06.03 17:03:01.
