data_PCOD9529783
_publ_section_title
;
Structure prediction by ZEFSAII (Michael W. Deem and Ramdas Pophale) SiO2 
 PCOD9529783
Probable space group: I B C A 
;
_chemical_formula_sum "Si O2"
_cell_formula_units_Z 112
_cell_length_a 25.011979
_cell_length_b 10.626973
_cell_length_c 26.475413
_cell_angle_alpha 90.000000
_cell_angle_beta 90.000000
_cell_angle_gamma 90.000000
_cell_volume 7037.207811
_symmetry_space_group_name_H-M "I B C A "
_symmetry_group_IT_number 73
_symmetry_cell_setting 'orthorhombic'
loop_
_space_group_symop_operation_xyz
x,y,z
-x,1/2-y,z
x,-y,1/2-z
1/2-x,y,-z
-x,-y,-z
x,1/2+y,-z
-x,y,1/2+z
1/2+x,-y,z
1/2+x,1/2+y,1/2+z
1/2-x,-y,1/2+z
1/2+x,1/2-y,-z
-x,1/2+y,1/2-z
1/2-x,1/2-y,1/2-z
1/2+x,y,1/2-z
1/2-x,1/2+y,z
x,1/2-y,1/2+z
loop_
_atom_site_type_symbol
_atom_site_label
_atom_site_fract_x
_atom_site_fract_y
_atom_site_fract_z
Si Si1 0.179805 0.869584 0.723923
Si Si2 0.718224 0.928175 0.950311
Si Si3 0.353706 0.767665 0.378794
Si Si4 0.381414 0.012314 0.507222
Si Si5 0.178883 0.007970 0.111132
Si Si6 0.191445 0.878829 0.284758
Si Si7 0.063177 0.267652 0.462031
O O1 0.150591 0.851025 0.670780
O O2 0.243769 0.872711 0.713871
O O3 0.170628 0.748772 0.759428
O O4 0.164966 0.000000 0.750000
O O5 0.687375 0.818741 0.921106
O O6 0.671337 0.017932 0.971628
O O7 0.761529 0.987001 0.912465
O O8 0.750000 0.882482 0.000000
O O9 0.333946 0.628344 0.366050
O O10 0.410795 0.766932 0.406075
O O11 0.360135 0.976656 0.563222
O O12 0.418407 0.899038 0.487224
O O13 0.410013 0.146878 0.510555
O O14 0.173413 0.103423 0.157433
O O15 0.177640 0.000000 0.250000
O O16 0.000000 0.250000 0.461682
#
# Coordination Sequence:
#
# PCOD9529783 Si02
#       7
#    16  16  16  16  16  16  16
#     4  10  20  31  45  72 101 131 170 204 238 290
#     4   9  18  29  44  72 108 140 158 199 235 301
#     4  10  19  32  49  73 100 133 174 198 253 303
#     4   9  20  34  51  77 102 131 171 199 254 302
#     4  10  18  30  49  72 105 140 166 197 240 304
#     4  10  18  30  47  68 101 139 166 196 237 286
#     4  10  20  37  56  75  98 130 170 220 256 294
#
# _framework density 15.915403
#
# number of rings (size 3 to 8) (size 9 to 14) (size 15 to 20)
#    0.000    2.286    2.857    0.429    0.000    5.143 
#    5.143    0.000    0.000    0.000    7.429    0.000 
#    0.000    0.000    0.000    0.000    0.000    0.000 
#
# Total GULP energy -312077.750440 kJ/mol
# GULP energy per Si atom -5572.816972 kJ/mol
# Density = 1.587918 g / cm^3
# Si number density = 15.915403 Si / 1000 Ang^3
#
#
#
# Elastic Constant Matrix: (Units=GPa)
#
#
# Indices 1 2 3 4 5 6 
#
# 1 67.2435 20.5965 21.9770 0.0000 0.0000 0.0000
# 2 20.5965 86.8573 37.5511 0.0000 0.0000 0.0000
# 3 21.9770 37.5511 79.9952 0.0000 0.0000 0.0000
# 4 0.0000 0.0000 0.0000 30.7899 0.0000 0.0000
# 5 0.0000 0.0000 0.0000 0.0000 9.1716 0.0000
# 6 0.0000 0.0000 0.0000 0.0000 0.0000 13.2269
#
#
#
# Elastic Compliance Matrix: (Units=1/GPa)
#
#
# Indices 1 2 3 4 5 6 
#
# 1 0.016756 -0.002488 -0.003435 0.000000 0.000000 0.000000
# 2 -0.002488 0.014814 -0.006270 0.000000 0.000000 0.000000
# 3 -0.003435 -0.006270 0.016388 0.000000 0.000000 0.000000
# 4 0.000000 0.000000 0.000000 0.032478 0.000000 0.000000
# 5 0.000000 0.000000 0.000000 0.000000 0.109032 0.000000
# 6 0.000000 0.000000 0.000000 0.000000 0.000000 0.075603
#
#
# Mechanical properties :
#
#
# Convention : Reuss Voigt Hill
#
# Bulk Modulus (GPa) = 42.42631 43.81614 43.12122
# Shear Modulus (GPa) = 16.81707 20.90245 18.85976
#
# Velocity S-wave (km/s) = 3.25415 3.62794 3.44612
# Velocity P-wave (km/s) = 6.39019 6.71861 6.55646
#
# Compressibility (1/GPa) = 0.02357028
#
# Stress axis : x y z
#
# Youngs Moduli (GPa) = 59.67931 67.50345 61.02029
#
# Poissons Ratio (x) = 0.16796 0.20963
# Poissons Ratio (y) = 0.14849 0.38262
# Poissons Ratio (z) = 0.20502 0.42327
#
# Static dielectric constant tensor:
#      x y z
#    x 1.511850 0.000000 0.000000 
#    y 0.000000 1.541320 0.000000 
#    z 0.000000 0.000000 1.540810 
# 
# From -- ./inp_files/29106.got.cif
#   From: 2010.05.17/outbox.cif.g08.bks.cpg/sg73_15_cif.got.tgz:29106.got - 2010.06.03 17:35:07.
