data_PCOD9529484
_publ_section_title
;
Structure prediction by ZEFSAII (Michael W. Deem and Ramdas Pophale) SiO2 
 PCOD9529484
Probable space group: I B A M
;
_chemical_formula_sum "Si O2"
_cell_formula_units_Z 80
_cell_length_a 24.547079
_cell_length_b 7.474996
_cell_length_c 18.537416
_cell_angle_alpha 90.000000
_cell_angle_beta 90.000000
_cell_angle_gamma 90.000000
_cell_volume 3401.417807
_symmetry_space_group_name_H-M "I B A M"
_symmetry_group_IT_number 72
_symmetry_cell_setting 'orthorhombic'
loop_
_space_group_symop_operation_xyz
x,y,z
-x,-y,z
x,-y,1/2-z
-x,y,1/2-z
-x,-y,-z
x,y,-z
-x,y,1/2+z
x,-y,1/2+z
1/2+x,1/2+y,1/2+z
1/2-x,1/2-y,1/2+z
1/2+x,1/2-y,-z
1/2-x,1/2+y,-z
1/2-x,1/2-y,1/2-z
1/2+x,1/2+y,1/2-z
1/2-x,1/2+y,z
1/2+x,1/2-y,z
loop_
_atom_site_type_symbol
_atom_site_label
_atom_site_fract_x
_atom_site_fract_y
_atom_site_fract_z
Si Si1 0.735315 0.684887 0.583579
Si Si2 0.551993 0.124906 0.914686
Si Si3 0.156972 0.164706 0.582310
Si Si4 0.653632 0.117998 0.820529
Si Si5 0.920707 0.052507 0.675203
O O1 0.733130 0.749197 0.500000
O O2 0.799564 0.681544 0.602195
O O3 0.697094 0.510278 0.584008
O O4 0.707340 0.821691 0.637949
O O5 0.605834 0.049303 0.874728
O O6 0.544961 0.320898 0.878610
O O7 0.500000 0.000000 0.902705
O O8 0.562089 0.142194 0.000000
O O9 0.138327 0.192554 0.500000
O O10 0.106790 0.109874 0.631964
O O11 0.627187 0.310659 0.799303
O O12 0.661045 0.000000 0.750000
O O13 0.946587 0.000000 0.750000
#
# Coordination Sequence:
#
# PCOD9529484 Si02
#       5
#    16  16  16  16  16
#     4   9  17  30  48  73 108 159 205 239 280 336
#     4   9  18  35  63  88 109 151 204 249 299 358
#     4   9  17  30  49  74 111 162 206 240 283 340
#     4   9  19  32  52  81 117 149 195 242 293 350
#     4   9  19  33  53  84 121 150 187 245 308 353
#
# _framework density 23.519604000000001
#
# number of rings (size 3 to 8) (size 9 to 14) (size 15 to 20)
#    1.200    1.800    0.000    1.200    0.000    2.800 
#    0.000    4.000    0.000    6.000    0.000    2.800 
#    0.000    3.200    0.000    0.000    0.000    0.000 
#
# Total GULP energy -223197.800092 kJ/mol
# GULP energy per Si atom -5579.945002 kJ/mol
# Density = 2.346607 g / cm^3
# Si number density = 23.519604 Si / 1000 Ang^3
#
#
#
# Elastic Constant Matrix: (Units=GPa)
#
#
# Indices 1 2 3 4 5 6 
#
# 1 108.1828 3.1364 65.9996 0.0000 0.0000 0.0000
# 2 3.1364 56.7559 20.1062 0.0000 0.0000 0.0000
# 3 65.9996 20.1062 124.5749 0.0000 0.0000 0.0000
# 4 0.0000 0.0000 0.0000 27.4133 0.0000 0.0000
# 5 0.0000 0.0000 0.0000 0.0000 -18.1355 0.0000
# 6 0.0000 0.0000 0.0000 0.0000 0.0000 7.9137
#
#
#
# Elastic Compliance Matrix: (Units=1/GPa)
#
#
# Indices 1 2 3 4 5 6 
#
# 1 0.013858 0.001946 -0.007656 0.000000 0.000000 0.000000
# 2 0.001946 0.018961 -0.004091 0.000000 0.000000 0.000000
# 3 -0.007656 -0.004091 0.012744 0.000000 0.000000 0.000000
# 4 0.000000 0.000000 0.000000 0.036479 0.000000 0.000000
# 5 0.000000 0.000000 0.000000 0.000000 -0.055140 0.000000
# 6 0.000000 0.000000 0.000000 0.000000 0.000000 0.126363
#
#
# Mechanical properties :
#
#
# Convention : Reuss Voigt Hill
#
# Bulk Modulus (GPa) = 38.51987 51.99978 45.25982
# Shear Modulus (GPa) = 27.54518 16.78974 22.16746
#
# Velocity S-wave (km/s) = 3.42593 2.67472 3.07336
# Velocity P-wave (km/s) = 5.66239 5.62991 5.64618
#
# Compressibility (1/GPa) = 0.02596063
#
# Stress axis : x y z
#
# Youngs Moduli (GPa) = 72.16073 52.73933 78.46935
#
# Poissons Ratio (x) = -0.10265 0.60077
# Poissons Ratio (y) = -0.14045 0.32106
# Poissons Ratio (z) = 0.55247 0.21578
#
# Static dielectric constant tensor:
#      x y z
#    x 1.877700 0.000000 0.000000 
#    y 0.000000 2.031460 0.000000 
#    z 0.000000 0.000000 1.846920 
# 
# From -- ./inp_files/34184.got.cif
#   From: 2010.05.17/outbox.cif.g08.bks.cpg/sg72_18_cif.got.tgz:34184.got - 2010.06.03 17:03:01.
