data_PCOD9529500
_publ_section_title
;
Structure prediction by ZEFSAII (Michael W. Deem and Ramdas Pophale) SiO2 
 PCOD9529500
Probable space group: I B A M
;
_chemical_formula_sum "Si O2"
_cell_formula_units_Z 52
_cell_length_a 21.000000
_cell_length_b 9.000000
_cell_length_c 30.000000
_cell_angle_alpha 90.000000
_cell_angle_beta 90.000000
_cell_angle_gamma 90.000000
_cell_volume 5670.000000
_symmetry_space_group_name_H-M "I B A M"
_symmetry_group_IT_number 72
_symmetry_cell_setting 'orthorhombic'
loop_
_space_group_symop_operation_xyz
x,y,z
-x,-y,z
x,-y,1/2-z
-x,y,1/2-z
-x,-y,-z
x,y,-z
-x,y,1/2+z
x,-y,1/2+z
1/2+x,1/2+y,1/2+z
1/2-x,1/2-y,1/2+z
1/2+x,1/2-y,-z
1/2-x,1/2+y,-z
1/2-x,1/2-y,1/2-z
1/2+x,1/2+y,1/2-z
1/2-x,1/2+y,z
1/2+x,1/2-y,z
loop_
_atom_site_type_symbol
_atom_site_label
_atom_site_fract_x
_atom_site_fract_y
_atom_site_fract_z
Si Si1 0.618544 0.043226 0.679489
Si Si2 0.231611 0.284518 0.000000
Si Si3 0.813122 0.248722 0.599370
Si Si4 0.162518 0.000000 0.250000
Si Si5 0.155477 0.587960 0.000000
Si Si6 0.426013 0.770357 0.762337
Si Si7 0.076570 0.493252 0.086279
Si Si8 0.763990 0.017628 0.158198
O O1 0.601748 0.156276 0.717872
O O2 0.694312 0.041822 0.672978
O O3 0.588429 0.887833 0.698042
O O4 0.587823 0.081197 0.632174
O O5 0.205045 0.222685 0.047427
O O6 0.305987 0.241776 0.000000
O O7 0.209011 0.456465 0.000000
O O8 0.881085 0.340338 0.596715
O O9 0.806335 0.099863 0.629545
O O10 0.759655 0.353855 0.623670
O O11 0.116004 0.874352 0.269473
O O12 0.203044 0.053136 0.293710
O O13 0.112672 0.562651 0.956191
O O14 0.500000 0.745197 0.750000
O O15 0.000000 0.500000 0.078198
#
# Coordination Sequence:
#
# PCOD9529500 Si02
#       8
#    16   8  16   8   8  16  16  16
#     4  10  20  35  58  75 101 138 180 230 266 316
#     4  10  18  36  56  82 110 138 172 226 284 312
#     4  10  21  35  57  84 112 140 181 229 273 332
#     4  12  23  34  52  74 115 146 170 230 276 316
#     4  10  21  32  56  84 109 138 176 220 268 328
#     4  11  22  36  52  76 103 144 188 219 265 327
#     4  10  19  34  54  81 109 141 178 221 266 318
#     4  11  22  36  54  86 110 139 185 225 280 325
#
# _framework density 9.1710759999999993
#
# number of rings (size 3 to 8) (size 9 to 14) (size 15 to 20)
#    0.000    1.538    0.000    8.769    0.000    1.846 
#    0.000    0.000    0.000    0.000    0.000   26.923 
#    0.000    0.000    0.000    0.000    0.000    0.000 
#
# Total GULP energy -289648.622526 kJ/mol
# GULP energy per Si atom -5570.165818 kJ/mol
# Density = 0.915020 g / cm^3
# Si number density = 9.171076 Si / 1000 Ang^3
#
#
#
# Elastic Constant Matrix: (Units=GPa)
#
#
# Indices 1 2 3 4 5 6 
#
# 1 126.3229 16.1419 29.7153 0.0000 0.0000 0.0000
# 2 16.1419 37.3736 8.1435 0.0000 0.0000 0.0000
# 3 29.7153 8.1435 144.3745 0.0000 0.0000 0.0000
# 4 0.0000 0.0000 0.0000 19.9981 0.0000 0.0000
# 5 0.0000 0.0000 0.0000 0.0000 31.4774 0.0000
# 6 0.0000 0.0000 0.0000 0.0000 0.0000 13.4740
#
#
#
# Elastic Compliance Matrix: (Units=1/GPa)
#
#
# Indices 1 2 3 4 5 6 
#
# 1 0.008731 -0.003421 -0.001604 0.000000 0.000000 0.000000
# 2 -0.003421 0.028431 -0.000899 0.000000 0.000000 0.000000
# 3 -0.001604 -0.000899 0.007307 0.000000 0.000000 0.000000
# 4 0.000000 0.000000 0.000000 0.050005 0.000000 0.000000
# 5 0.000000 0.000000 0.000000 0.000000 0.031769 0.000000
# 6 0.000000 0.000000 0.000000 0.000000 0.000000 0.074217
#
#
# Mechanical properties :
#
#
# Convention : Reuss Voigt Hill
#
# Bulk Modulus (GPa) = 30.65699 46.23026 38.44362
# Shear Modulus (GPa) = 22.40328 29.92793 26.16560
#
# Velocity S-wave (km/s) = 3.49866 4.04375 3.78104
# Velocity P-wave (km/s) = 5.75074 6.86015 6.32980
#
# Compressibility (1/GPa) = 0.03261899
#
# Stress axis : x y z
#
# Youngs Moduli (GPa) = 114.53807 35.17343 136.84947
#
# Poissons Ratio (x) = 0.12034 0.21950
# Poissons Ratio (y) = 0.39188 0.12309
# Poissons Ratio (z) = 0.18372 0.03164
#
# Static dielectric constant tensor:
#      x y z
#    x 1.627930 0.000000 0.000000 
#    y 0.000000 1.696660 0.000000 
#    z 0.000000 0.000000 1.659090 
# 
# From -- ./inp_files/52268.got.cif
#   From: 2010.05.17/outbox.ucp.g08.bks.cvg/sg72_27_cif.got.tgz:52268.got - 2010.06.11 16:33:07.
