data_PCOD9529670
_publ_section_title
;
Structure prediction by ZEFSAII (Michael W. Deem and Ramdas Pophale) SiO2 
 PCOD9529670
Probable space group: I B C A 
;
_chemical_formula_sum "Si O2"
_cell_formula_units_Z 96
_cell_length_a 18.891101
_cell_length_b 17.853252
_cell_length_c 15.364335
_cell_angle_alpha 90.000000
_cell_angle_beta 90.000000
_cell_angle_gamma 90.000000
_cell_volume 5181.892187
_symmetry_space_group_name_H-M "I B C A "
_symmetry_group_IT_number 73
_symmetry_cell_setting 'orthorhombic'
loop_
_space_group_symop_operation_xyz
x,y,z
-x,1/2-y,z
x,-y,1/2-z
1/2-x,y,-z
-x,-y,-z
x,1/2+y,-z
-x,y,1/2+z
1/2+x,-y,z
1/2+x,1/2+y,1/2+z
1/2-x,-y,1/2+z
1/2+x,1/2-y,-z
-x,1/2+y,1/2-z
1/2-x,1/2-y,1/2-z
1/2+x,y,1/2-z
1/2-x,1/2+y,z
x,1/2-y,1/2+z
loop_
_atom_site_type_symbol
_atom_site_label
_atom_site_fract_x
_atom_site_fract_y
_atom_site_fract_z
Si Si1 0.841673 0.056219 0.829545
Si Si2 0.245796 0.797895 0.840967
Si Si3 0.841881 0.585919 0.423118
Si Si4 0.809624 0.845382 0.103846
Si Si5 0.445130 0.855386 0.724017
Si Si6 0.397701 0.815432 0.226843
O O1 0.787352 0.124584 0.835661
O O2 0.916662 0.091837 0.801208
O O3 0.822275 0.000000 0.750000
O O4 0.844704 0.003668 0.913820
O O5 0.250000 0.750000 0.750000
O O6 0.284855 0.741207 0.906111
O O7 0.162072 0.813195 0.848417
O O8 0.765042 0.611597 0.386940
O O9 0.845759 0.619996 0.519015
O O10 0.902113 0.618965 0.360999
O O11 0.859377 0.849172 0.188033
O O12 0.528734 0.856635 0.709145
O O13 0.419832 0.770819 0.744372
#
# Coordination Sequence:
#
# PCOD9529670 Si02
#       6
#    16  16  16  16  16  16
#     4  10  18  33  57  84 116 156 198 242 301 360
#     4  10  16  33  61  90 108 149 208 251 284 355
#     4  10  21  36  57  84 123 160 188 248 320 355
#     4  10  19  37  59  84 116 156 199 252 300 349
#     4  10  18  33  56  88 115 152 198 242 292 366
#     4  10  18  32  60  89 111 148 208 244 285 355
#
# _framework density 18.526050999999999
#
# number of rings (size 3 to 8) (size 9 to 14) (size 15 to 20)
#    0.000    2.000    5.000    3.000    0.000    0.000 
#    0.000   15.000    0.000    0.000    0.000    0.000 
#    0.000    0.000    0.000    0.000    0.000    0.000 
#
# Total GULP energy -267442.014841 kJ/mol
# GULP energy per Si atom -5571.708643 kJ/mol
# Density = 1.848388 g / cm^3
# Si number density = 18.526051 Si / 1000 Ang^3
#
#
#
# Elastic Constant Matrix: (Units=GPa)
#
#
# Indices 1 2 3 4 5 6 
#
# 1 129.1295 31.6033 22.3194 0.0000 0.0000 0.0000
# 2 31.6033 111.1082 26.6173 0.0000 0.0000 0.0000
# 3 22.3194 26.6173 61.5845 0.0000 0.0000 0.0000
# 4 0.0000 0.0000 0.0000 28.9302 0.0000 0.0000
# 5 0.0000 0.0000 0.0000 0.0000 20.6649 0.0000
# 6 0.0000 0.0000 0.0000 0.0000 0.0000 25.3504
#
#
#
# Elastic Compliance Matrix: (Units=1/GPa)
#
#
# Indices 1 2 3 4 5 6 
#
# 1 0.008606 -0.001897 -0.002299 0.000000 0.000000 0.000000
# 2 -0.001897 0.010458 -0.003832 0.000000 0.000000 0.000000
# 3 -0.002299 -0.003832 0.018727 0.000000 0.000000 0.000000
# 4 0.000000 0.000000 0.000000 0.034566 0.000000 0.000000
# 5 0.000000 0.000000 0.000000 0.000000 0.048391 0.000000
# 6 0.000000 0.000000 0.000000 0.000000 0.000000 0.039447
#
#
# Mechanical properties :
#
#
# Convention : Reuss Voigt Hill
#
# Bulk Modulus (GPa) = 46.01044 51.43356 48.72200
# Shear Modulus (GPa) = 27.24835 29.74124 28.49479
#
# Velocity S-wave (km/s) = 3.83928 4.01106 3.92611
# Velocity P-wave (km/s) = 6.67404 7.01958 6.84899
#
# Compressibility (1/GPa) = 0.02173420
#
# Stress axis : x y z
#
# Youngs Moduli (GPa) = 116.20040 95.62103 53.39748
#
# Poissons Ratio (x) = 0.18140 0.12276
# Poissons Ratio (y) = 0.22044 0.20464
# Poissons Ratio (z) = 0.26714 0.36647
#
# Static dielectric constant tensor:
#      x y z
#    x 1.655950 0.000000 0.000000 
#    y 0.000000 1.673100 0.000000 
#    z 0.000000 0.000000 1.693780 
# 
# From -- ./inp_files/22531.got.cif
#   From: 2010.05.17/outbox.cif.g08.bks.cpg/sg73_12_cif.got.tgz:22531.got - 2010.06.03 17:35:07.
