data_PCOD9529712
_publ_section_title
;
Structure prediction by ZEFSAII (Michael W. Deem and Ramdas Pophale) SiO2 
 PCOD9529712
Probable space group: I B C A 
;
_chemical_formula_sum "Si O2"
_cell_formula_units_Z 128
_cell_length_a 26.184815
_cell_length_b 21.981756
_cell_length_c 11.982619
_cell_angle_alpha 90.000000
_cell_angle_beta 90.000000
_cell_angle_gamma 90.000000
_cell_volume 6897.054272
_symmetry_space_group_name_H-M "I B C A "
_symmetry_group_IT_number 73
_symmetry_cell_setting 'orthorhombic'
loop_
_space_group_symop_operation_xyz
x,y,z
-x,1/2-y,z
x,-y,1/2-z
1/2-x,y,-z
-x,-y,-z
x,1/2+y,-z
-x,y,1/2+z
1/2+x,-y,z
1/2+x,1/2+y,1/2+z
1/2-x,-y,1/2+z
1/2+x,1/2-y,-z
-x,1/2+y,1/2-z
1/2-x,1/2-y,1/2-z
1/2+x,y,1/2-z
1/2-x,1/2+y,z
x,1/2-y,1/2+z
loop_
_atom_site_type_symbol
_atom_site_label
_atom_site_fract_x
_atom_site_fract_y
_atom_site_fract_z
Si Si1 0.621019 0.562457 0.785566
Si Si2 0.136407 0.321474 0.499987
Si Si3 0.812593 0.687781 0.738280
Si Si4 0.896658 0.308508 0.600324
Si Si5 0.452155 0.890183 0.594736
Si Si6 0.459566 0.900278 0.948905
Si Si7 0.695273 0.167395 0.275595
Si Si8 0.988739 0.684434 0.733120
O O1 0.647937 0.500000 0.750000
O O2 0.581059 0.575357 0.685794
O O3 0.583329 0.558258 0.891635
O O4 0.659779 0.619518 0.791026
O O5 0.161490 0.325101 0.379911
O O6 0.116156 0.255162 0.539729
O O7 0.087944 0.365623 0.505570
O O8 0.176816 0.339548 0.596391
O O9 0.844119 0.666803 0.846730
O O10 0.755705 0.660941 0.739235
O O11 0.813671 0.761839 0.744768
O O12 0.925931 0.349785 0.512139
O O13 0.933399 0.308160 0.710076
O O14 0.499848 0.924450 0.539420
O O15 0.475236 0.831730 0.660794
O O16 0.494681 0.867104 0.854851
O O17 0.000000 0.750000 0.681215
#
# Coordination Sequence:
#
# PCOD9529712 Si02
#       8
#    16  16  16  16  16  16  16  16
#     4  10  21  39  58  73 101 143 187 233 264 313
#     4  10  17  29  50  75 107 142 166 207 269 327
#     4  10  19  32  53  75 108 138 165 223 277 332
#     4  10  20  29  46  77 109 145 176 207 263 328
#     4   9  19  32  47  79 107 133 180 214 253 325
#     4  10  21  31  50  77 108 144 178 218 263 319
#     4   9  20  35  50  78 102 133 183 217 270 332
#     4  10  18  28  45  74 115 148 170 202 258 327
#
# _framework density 18.558647000000001
#
# number of rings (size 3 to 8) (size 9 to 14) (size 15 to 20)
#    0.000    2.250    1.250    1.875    5.250    0.500 
#    0.000    1.875    0.000    6.000    0.000    3.500 
#    0.000    0.000    0.000    0.000    0.000    0.000 
#
# Total GULP energy -356332.811953 kJ/mol
# GULP energy per Si atom -5567.700187 kJ/mol
# Density = 1.851641 g / cm^3
# Si number density = 18.558647 Si / 1000 Ang^3
#
#
#
# Elastic Constant Matrix: (Units=GPa)
#
#
# Indices 1 2 3 4 5 6 
#
# 1 96.7804 16.0146 26.0648 0.0000 0.0000 0.0000
# 2 16.0146 22.9516 -13.1489 0.0000 0.0000 0.0000
# 3 26.0648 -13.1489 40.9921 0.0000 0.0000 0.0000
# 4 0.0000 0.0000 0.0000 4.6035 0.0000 0.0000
# 5 0.0000 0.0000 0.0000 0.0000 26.8727 0.0000
# 6 0.0000 0.0000 0.0000 0.0000 0.0000 9.6736
#
#
#
# Elastic Compliance Matrix: (Units=1/GPa)
#
#
# Indices 1 2 3 4 5 6 
#
# 1 0.020622 -0.026832 -0.021720 0.000000 0.000000 0.000000
# 2 -0.026832 0.088292 0.045382 0.000000 0.000000 0.000000
# 3 -0.021720 0.045382 0.052762 0.000000 0.000000 0.000000
# 4 0.000000 0.000000 0.000000 0.217224 0.000000 0.000000
# 5 0.000000 0.000000 0.000000 0.000000 0.037213 0.000000
# 6 0.000000 0.000000 0.000000 0.000000 0.000000 0.103374
#
#
# Mechanical properties :
#
#
# Convention : Reuss Voigt Hill
#
# Bulk Modulus (GPa) = 6.43761 24.28724 15.36242
# Shear Modulus (GPa) = 8.65644 17.01620 12.83632
#
# Velocity S-wave (km/s) = 2.16206 3.03130 2.63280
# Velocity P-wave (km/s) = 3.11592 5.03655 4.18783
#
# Compressibility (1/GPa) = 0.15533717
#
# Stress axis : x y z
#
# Youngs Moduli (GPa) = 48.49143 11.32611 18.95287
#
# Poissons Ratio (x) = 0.30391 0.41165
# Poissons Ratio (y) = 1.30114 -0.86012
# Poissons Ratio (z) = 1.05321 -0.51401
#
# Static dielectric constant tensor:
#      x y z
#    x 1.664830 0.000000 0.000000 
#    y 0.000000 1.661320 0.000000 
#    z 0.000000 0.000000 1.662770 
# 
# From -- ./inp_files/13920.got.cif
#   From: 2010.05.17/outbox.cif.g08.bks.cpg/sg73_7_cif.got.tgz:13920.got - 2010.06.03 17:35:07.
