data_PCOD9529835
_publ_section_title
;
Structure prediction by ZEFSAII (Michael W. Deem and Ramdas Pophale) SiO2 
 PCOD9529835
Probable space group: I B C A 
;
_chemical_formula_sum "Si O2"
_cell_formula_units_Z 120
_cell_length_a 16.855063
_cell_length_b 14.516687
_cell_length_c 20.423753
_cell_angle_alpha 90.000000
_cell_angle_beta 90.000000
_cell_angle_gamma 90.000000
_cell_volume 4997.277225
_symmetry_space_group_name_H-M "I B C A "
_symmetry_group_IT_number 73
_symmetry_cell_setting 'orthorhombic'
loop_
_space_group_symop_operation_xyz
x,y,z
-x,1/2-y,z
x,-y,1/2-z
1/2-x,y,-z
-x,-y,-z
x,1/2+y,-z
-x,y,1/2+z
1/2+x,-y,z
1/2+x,1/2+y,1/2+z
1/2-x,-y,1/2+z
1/2+x,1/2-y,-z
-x,1/2+y,1/2-z
1/2-x,1/2-y,1/2-z
1/2+x,y,1/2-z
1/2-x,1/2+y,z
x,1/2-y,1/2+z
loop_
_atom_site_type_symbol
_atom_site_label
_atom_site_fract_x
_atom_site_fract_y
_atom_site_fract_z
Si Si1 0.783211 0.854177 0.876496
Si Si2 0.250000 0.567806 0.500000
Si Si3 0.558002 0.680703 0.571977
Si Si4 0.044814 0.879577 0.802827
Si Si5 0.165264 0.926801 0.123608
Si Si6 0.779893 0.889693 0.262890
Si Si7 0.487346 0.909701 0.337792
Si Si8 0.638446 0.092603 0.548736
O O1 0.857902 0.792403 0.895867
O O2 0.744935 0.842721 0.805167
O O3 0.715714 0.848357 0.931464
O O4 0.816067 0.961870 0.875578
O O5 0.296278 0.615153 0.441496
O O6 0.318622 0.506091 0.536242
O O7 0.500000 0.750000 0.534639
O O8 0.502849 0.655118 0.633942
O O9 0.588201 0.610777 0.516476
O O10 0.137318 0.857309 0.793314
O O11 0.008361 0.856622 0.731468
O O12 0.035893 0.987928 0.815614
O O13 0.208783 0.884423 0.185961
O O14 0.072450 0.911130 0.128586
O O15 0.790680 0.000000 0.250000
O O16 0.419548 0.889417 0.390370
#
# Coordination Sequence:
#
# PCOD9529835 Si02
#       8
#    16   8  16  16  16  16  16  16
#     4  10  18  39  60  84 112 160 208 235 295 371
#     4  10  18  32  52  84 120 170 196 228 286 374
#     4  12  25  40  61  84 113 161 217 258 289 354
#     4  11  20  36  56  96 126 150 195 246 313 360
#     4  10  19  29  53  91 127 158 184 233 302 369
#     4  10  18  32  60  89 124 156 186 238 305 378
#     4  11  20  33  61  96 125 153 184 252 313 367
#     4  11  20  38  63  86 115 160 206 240 305 373
#
# _framework density 24.013076000000002
#
# number of rings (size 3 to 8) (size 9 to 14) (size 15 to 20)
#    0.000    1.333    6.667    2.400    3.733    3.200 
#    0.000    1.333    5.867    0.000    0.000    0.000 
#    0.000    0.000    0.000    0.000    0.000    0.000 
#
# Total GULP energy -334928.705247 kJ/mol
# GULP energy per Si atom -5582.145087 kJ/mol
# Density = 2.395842 g / cm^3
# Si number density = 24.013076 Si / 1000 Ang^3
#
#
#
# Elastic Constant Matrix: (Units=GPa)
#
#
# Indices 1 2 3 4 5 6 
#
# 1 189.4144 10.4225 56.5015 0.0000 0.0000 0.0000
# 2 10.4225 30.9192 -4.6375 0.0000 0.0000 0.0000
# 3 56.5015 -4.6375 115.2010 0.0000 0.0000 0.0000
# 4 0.0000 0.0000 0.0000 2.2462 0.0000 0.0000
# 5 0.0000 0.0000 0.0000 0.0000 59.8342 0.0000
# 6 0.0000 0.0000 0.0000 0.0000 0.0000 22.6956
#
#
#
# Elastic Compliance Matrix: (Units=1/GPa)
#
#
# Indices 1 2 3 4 5 6 
#
# 1 0.006392 -0.002641 -0.003241 0.000000 0.000000 0.000000
# 2 -0.002641 0.033630 0.002649 0.000000 0.000000 0.000000
# 3 -0.003241 0.002649 0.010377 0.000000 0.000000 0.000000
# 4 0.000000 0.000000 0.000000 0.445200 0.000000 0.000000
# 5 0.000000 0.000000 0.000000 0.000000 0.016713 0.000000
# 6 0.000000 0.000000 0.000000 0.000000 0.000000 0.044061
#
#
# Mechanical properties :
#
#
# Convention : Reuss Voigt Hill
#
# Bulk Modulus (GPa) = 22.76222 51.12308 36.94265
# Shear Modulus (GPa) = 8.65828 35.17174 21.91501
#
# Velocity S-wave (km/s) = 1.90092 3.83128 3.02425
# Velocity P-wave (km/s) = 3.78387 6.39590 5.25477
#
# Compressibility (1/GPa) = 0.04393246
#
# Stress axis : x y z
#
# Youngs Moduli (GPa) = 156.45695 29.73551 96.36934
#
# Poissons Ratio (x) = 0.07852 0.31234
# Poissons Ratio (y) = 0.41315 -0.25527
# Poissons Ratio (z) = 0.50709 -0.07877
#
# Static dielectric constant tensor:
#      x y z
#    x 1.857730 0.000000 0.000000 
#    y 0.000000 2.022020 0.000000 
#    z 0.000000 0.000000 1.965730 
# 
# From -- ./inp_files/26236.got.cif
#   From: 2010.05.17/outbox.cif.g08.bks.cpg/sg73_14_cif.got.tgz:26236.got - 2010.06.03 17:35:07.
