data_PCOD9529155
_publ_section_title
;
Structure prediction by ZEFSAII (Michael W. Deem and Ramdas Pophale) SiO2 
 PCOD9529155
Probable space group: I B A M
;
_chemical_formula_sum "Si O2"
_cell_formula_units_Z 52
_cell_length_a 11.878982
_cell_length_b 22.752192
_cell_length_c 8.275128
_cell_angle_alpha 90.000000
_cell_angle_beta 90.000000
_cell_angle_gamma 90.000000
_cell_volume 2236.542671
_symmetry_space_group_name_H-M "I B A M"
_symmetry_group_IT_number 72
_symmetry_cell_setting 'orthorhombic'
loop_
_space_group_symop_operation_xyz
x,y,z
-x,-y,z
x,-y,1/2-z
-x,y,1/2-z
-x,-y,-z
x,y,-z
-x,y,1/2+z
x,-y,1/2+z
1/2+x,1/2+y,1/2+z
1/2-x,1/2-y,1/2+z
1/2+x,1/2-y,-z
1/2-x,1/2+y,-z
1/2-x,1/2-y,1/2-z
1/2+x,1/2+y,1/2-z
1/2-x,1/2+y,z
1/2+x,1/2-y,z
loop_
_atom_site_type_symbol
_atom_site_label
_atom_site_fract_x
_atom_site_fract_y
_atom_site_fract_z
Si Si1 0.348452 0.112461 0.190297
Si Si2 0.622144 0.761428 0.315836
Si Si3 0.377461 0.567624 0.693391
Si Si4 0.500000 0.000000 0.750000
O O1 0.386267 0.168168 0.292377
O O2 0.216230 0.105410 0.218349
O O3 0.404186 0.052128 0.251214
O O4 0.374226 0.119611 0.000000
O O5 0.500000 0.738577 0.250000
O O6 0.625956 0.743282 0.500000
O O7 0.750000 0.750000 0.250000
O O8 0.364960 0.500000 0.750000
O O9 0.500000 0.586773 0.750000
O O10 0.365422 0.570893 0.500000
#
# Coordination Sequence:
#
# PCOD9529155 Si02
#       4
#    16  16  16   4
#     4  12  25  43  70 106 146 189 240 297 364 437
#     4  12  27  50  78 110 148 194 252 313 376 445
#     4  11  22  38  60  90 131 178 229 284 350 427
#     4  12  26  40  74 106 154 188 242 288 370 428
#
# _framework density 23.250169
#
# number of rings (size 3 to 8) (size 9 to 14) (size 15 to 20)
#    0.000    0.308    3.077    7.846    0.000    3.692 
#    0.000    6.154    0.000    0.000    0.000    0.000 
#    0.000    0.000    0.000    0.000    0.000    0.000 
#
# Total GULP energy -144842.350252 kJ/mol
# GULP energy per Si atom -5570.859625 kJ/mol
# Density = 2.319725 g / cm^3
# Si number density = 23.250169 Si / 1000 Ang^3
#
#
#
# Elastic Constant Matrix: (Units=GPa)
#
#
# Indices 1 2 3 4 5 6 
#
# 1 221.5444 14.2251 36.7975 0.0003 0.0000 0.0005
# 2 14.2251 74.1762 -23.2170 -0.0001 -0.0001 0.0008
# 3 36.7975 -23.2170 153.3529 -0.0001 0.0014 -0.0029
# 4 0.0003 -0.0001 -0.0001 14.9630 0.0001 -0.0006
# 5 0.0000 -0.0001 0.0014 0.0001 24.5369 0.0009
# 6 0.0005 0.0008 -0.0029 -0.0006 0.0009 -89.9075
#
#
#
# Elastic Compliance Matrix: (Units=1/GPa)
#
#
# Indices 1 2 3 4 5 6 
#
# 1 0.004827 -0.001352 -0.001363 0.000000 0.000000 0.000000
# 2 -0.001352 0.014531 0.002524 0.000000 0.000000 0.000000
# 3 -0.001363 0.002524 0.007230 0.000000 0.000000 0.000000
# 4 0.000000 0.000000 0.000000 0.066832 0.000000 0.000000
# 5 0.000000 0.000000 0.000000 0.000000 0.040755 0.000000
# 6 0.000000 0.000000 0.000000 0.000000 0.000000 -0.011123
#
#
# Mechanical properties :
#
#
# Convention : Reuss Voigt Hill
#
# Bulk Modulus (GPa) = 38.15887 56.07611 47.11749
# Shear Modulus (GPa) = 37.83029 18.00300 27.91665
#
# Velocity S-wave (km/s) = 4.03811 2.78567 3.46888
# Velocity P-wave (km/s) = 6.17978 5.87517 6.02940
#
# Compressibility (1/GPa) = 0.02620623
#
# Stress axis : x y z
#
# Youngs Moduli (GPa) = 207.16872 68.81898 138.30989
#
# Poissons Ratio (x) = 0.09306 0.18851
# Poissons Ratio (y) = 0.28016 -0.34915
# Poissons Ratio (z) = 0.28237 -0.17373
#
# Static dielectric constant tensor:
#      x y z
#    x 2.165980 0.000000 -0.000020 
#    y 0.000000 1.866270 0.000000 
#    z -0.000020 0.000000 1.754470 
# 
# From -- ./inp_files/2320.got.cif
#   From: 2010.05.17/outbox.cif.g08.bks.cpg/sg72_2_cif.got.tgz:2320.got - 2010.06.03 17:03:01.
