data_PCOD9529370
_publ_section_title
;
Structure prediction by ZEFSAII (Michael W. Deem and Ramdas Pophale) SiO2 
 PCOD9529370
Probable space group: I B A M
;
_chemical_formula_sum "Si O2"
_cell_formula_units_Z 96
_cell_length_a 21.806489
_cell_length_b 21.159012
_cell_length_c 10.556866
_cell_angle_alpha 90.000000
_cell_angle_beta 90.000000
_cell_angle_gamma 90.000000
_cell_volume 4870.977692
_symmetry_space_group_name_H-M "I B A M"
_symmetry_group_IT_number 72
_symmetry_cell_setting 'orthorhombic'
loop_
_space_group_symop_operation_xyz
x,y,z
-x,-y,z
x,-y,1/2-z
-x,y,1/2-z
-x,-y,-z
x,y,-z
-x,y,1/2+z
x,-y,1/2+z
1/2+x,1/2+y,1/2+z
1/2-x,1/2-y,1/2+z
1/2+x,1/2-y,-z
1/2-x,1/2+y,-z
1/2-x,1/2-y,1/2-z
1/2+x,1/2+y,1/2-z
1/2-x,1/2+y,z
1/2+x,1/2-y,z
loop_
_atom_site_type_symbol
_atom_site_label
_atom_site_fract_x
_atom_site_fract_y
_atom_site_fract_z
Si Si1 0.171421 0.252723 0.356308
Si Si2 0.227816 0.384638 0.348353
Si Si3 0.402965 0.950138 0.355535
Si Si4 0.433047 0.417598 0.500000
Si Si5 0.961654 0.314951 0.134262
Si Si6 0.076727 0.069798 0.500000
Si Si7 0.644071 0.381231 0.752966
O O1 0.191891 0.234806 0.500000
O O2 0.211941 0.311982 0.309708
O O3 0.103964 0.282436 0.368714
O O4 0.160856 0.191880 0.271105
O O5 0.238496 0.382834 0.500000
O O6 0.166253 0.425171 0.328478
O O7 0.288783 0.410410 0.282058
O O8 0.404423 0.975065 0.500000
O O9 0.446435 0.888986 0.351677
O O10 0.420350 0.000000 0.250000
O O11 0.506313 0.405430 0.500000
O O12 0.425475 0.493721 0.500000
O O13 0.399718 0.391632 0.626082
O O14 0.000000 0.290444 0.250000
O O15 0.993674 0.304333 0.000000
O O16 0.111604 0.092890 0.373576
#
# Coordination Sequence:
#
# PCOD9529370 Si02
#       7
#    16  16  16   8  16   8  16
#     4   9  19  38  60  88 122 151 188 243 297 344
#     4   9  19  38  60  88 122 151 188 243 297 344
#     4   9  19  36  56  80 115 154 191 237 287 334
#     4  11  26  44  61  86 122 158 199 254 302 345
#     4   9  19  36  56  80 115 154 191 237 287 334
#     4  11  26  44  61  86 122 158 199 254 302 345
#     4  12  21  41  66  90 112 158 200 231 293 366
#
# _framework density 19.708568
#
# number of rings (size 3 to 8) (size 9 to 14) (size 15 to 20)
#    0.000    2.167    1.667    3.500    0.000    5.000 
#    3.000    1.667    0.000    0.000    0.000    0.000 
#    0.000    0.000    0.000    0.000    0.000    0.000 
#
# Total GULP energy -267782.998167 kJ/mol
# GULP energy per Si atom -5578.812462 kJ/mol
# Density = 1.966371 g / cm^3
# Si number density = 19.708568 Si / 1000 Ang^3
#
#
#
# Elastic Constant Matrix: (Units=GPa)
#
#
# Indices 1 2 3 4 5 6 
#
# 1 91.5157 -3.7821 51.8172 0.0000 0.0000 0.0000
# 2 -3.7821 37.5031 23.9614 0.0000 0.0000 0.0000
# 3 51.8172 23.9614 115.7707 0.0000 0.0000 0.0000
# 4 0.0000 0.0000 0.0000 -30.1641 0.0000 0.0000
# 5 0.0000 0.0000 0.0000 0.0000 19.1329 0.0000
# 6 0.0000 0.0000 0.0000 0.0000 0.0000 4.3499
#
#
#
# Elastic Compliance Matrix: (Units=1/GPa)
#
#
# Indices 1 2 3 4 5 6 
#
# 1 0.016166 0.007206 -0.008727 0.000000 0.000000 0.000000
# 2 0.007206 0.033940 -0.010250 0.000000 0.000000 0.000000
# 3 -0.008727 -0.010250 0.014666 0.000000 0.000000 0.000000
# 4 0.000000 0.000000 0.000000 -0.033152 0.000000 0.000000
# 5 0.000000 0.000000 0.000000 0.000000 0.052266 0.000000
# 6 0.000000 0.000000 0.000000 0.000000 0.000000 0.229889
#
#
# Mechanical properties :
#
#
# Convention : Reuss Voigt Hill
#
# Bulk Modulus (GPa) = 24.25424 43.19807 33.72616
# Shear Modulus (GPa) = 14.24255 10.18327 12.21291
#
# Velocity S-wave (km/s) = 2.69115 2.27555 2.49203
# Velocity P-wave (km/s) = 4.68930 5.37310 5.04280
#
# Compressibility (1/GPa) = 0.04122990
#
# Stress axis : x y z
#
# Youngs Moduli (GPa) = 61.85642 29.46356 68.18714
#
# Poissons Ratio (x) = -0.21233 0.59510
# Poissons Ratio (y) = -0.44576 0.69893
# Poissons Ratio (z) = 0.53985 0.30201
#
# Static dielectric constant tensor:
#      x y z
#    x 1.690540 0.000000 0.000000 
#    y 0.000000 1.698150 0.000000 
#    z 0.000000 0.000000 1.726130 
# 
# From -- ./inp_files/7004.got.cif
#   From: 2010.05.17/outbox.cif.g08.bks.cpg/sg72_4_cif.got.tgz:7004.got - 2010.06.03 17:03:01.
