data_PCOD9529092
_publ_section_title
;
Structure prediction by ZEFSAII (Michael W. Deem and Ramdas Pophale) SiO2 
 PCOD9529092
Probable space group: I B A M
;
_chemical_formula_sum "Si O2"
_cell_formula_units_Z 104
_cell_length_a 16.019195
_cell_length_b 19.590803
_cell_length_c 15.487985
_cell_angle_alpha 90.000000
_cell_angle_beta 90.000000
_cell_angle_gamma 90.000000
_cell_volume 4860.577195
_symmetry_space_group_name_H-M "I B A M"
_symmetry_group_IT_number 72
_symmetry_cell_setting 'orthorhombic'
loop_
_space_group_symop_operation_xyz
x,y,z
-x,-y,z
x,-y,1/2-z
-x,y,1/2-z
-x,-y,-z
x,y,-z
-x,y,1/2+z
x,-y,1/2+z
1/2+x,1/2+y,1/2+z
1/2-x,1/2-y,1/2+z
1/2+x,1/2-y,-z
1/2-x,1/2+y,-z
1/2-x,1/2-y,1/2-z
1/2+x,1/2+y,1/2-z
1/2-x,1/2+y,z
1/2+x,1/2-y,z
loop_
_atom_site_type_symbol
_atom_site_label
_atom_site_fract_x
_atom_site_fract_y
_atom_site_fract_z
Si Si1 0.696834 0.980903 0.598499
Si Si2 0.307755 0.870340 0.341991
Si Si3 0.061566 0.751179 0.601544
Si Si4 0.822975 0.104498 0.789864
Si Si5 0.261282 0.271143 0.095622
Si Si6 0.500000 0.355393 0.250000
Si Si7 0.932079 0.385737 0.687747
O O1 0.720789 0.969373 0.500000
O O2 0.771846 0.954811 0.660654
O O3 0.617634 0.935223 0.624988
O O4 0.670548 0.059236 0.611887
O O5 0.215681 0.885818 0.304749
O O6 0.305861 0.801575 0.395400
O O7 0.364049 0.859642 0.257311
O O8 0.041471 0.763738 0.500000
O O9 0.162457 0.742411 0.607712
O O10 0.029635 0.677413 0.635118
O O11 0.029192 0.807091 0.669800
O O12 0.799278 0.174941 0.838595
O O13 0.921729 0.100292 0.782142
O O14 0.272276 0.299675 0.000000
O O15 0.000000 0.419278 0.750000
#
# Coordination Sequence:
#
# PCOD9529092 Si02
#       7
#    16  16  16  16  16   8  16
#     4  11  24  44  67  93 126 170 224 275 326 399
#     4  11  22  40  64  91 124 169 219 259 327 392
#     4  11  22  38  63  97 133 171 215 272 330 389
#     4  11  22  40  66  91 124 174 217 259 332 397
#     4  11  21  38  65  94 124 161 214 271 319 383
#     4  12  24  40  63 100 139 170 214 282 338 392
#     4  11  22  39  64  92 129 176 216 260 327 395
#
# _framework density 21.396636999999998
#
# number of rings (size 3 to 8) (size 9 to 14) (size 15 to 20)
#    0.000    0.923    5.385    4.615    0.000    2.462 
#    0.000    4.615    0.000    0.923    0.000    0.000 
#    0.000    0.000    0.000    0.000    0.000    0.000 
#
# Total GULP energy -290612.164929 kJ/mol
# GULP energy per Si atom -5588.695479 kJ/mol
# Density = 2.134794 g / cm^3
# Si number density = 21.396637 Si / 1000 Ang^3
#
#
#
# Elastic Constant Matrix: (Units=GPa)
#
#
# Indices 1 2 3 4 5 6 
#
# 1 54.5546 -17.1825 7.4345 0.0000 0.0000 0.0000
# 2 -17.1825 76.3692 12.4511 0.0000 0.0000 0.0000
# 3 7.4345 12.4511 90.3663 0.0000 0.0000 0.0000
# 4 0.0000 0.0000 0.0000 5.8876 0.0000 0.0000
# 5 0.0000 0.0000 0.0000 0.0000 21.4382 0.0000
# 6 0.0000 0.0000 0.0000 0.0000 0.0000 3.8910
#
#
#
# Elastic Compliance Matrix: (Units=1/GPa)
#
#
# Indices 1 2 3 4 5 6 
#
# 1 0.020201 0.004927 -0.002341 0.000000 0.000000 0.000000
# 2 0.004927 0.014597 -0.002417 0.000000 0.000000 0.000000
# 3 -0.002341 -0.002417 0.011592 0.000000 0.000000 0.000000
# 4 0.000000 0.000000 0.000000 0.169850 0.000000 0.000000
# 5 0.000000 0.000000 0.000000 0.000000 0.046646 0.000000
# 6 0.000000 0.000000 0.000000 0.000000 0.000000 0.257004
#
#
# Mechanical properties :
#
#
# Convention : Reuss Voigt Hill
#
# Bulk Modulus (GPa) = 21.40038 25.18847 23.29443
# Shear Modulus (GPa) = 9.34359 20.81581 15.07970
#
# Velocity S-wave (km/s) = 2.09197 3.12245 2.65763
# Velocity P-wave (km/s) = 3.98228 4.97969 4.50865
#
# Compressibility (1/GPa) = 0.04672813
#
# Stress axis : x y z
#
# Youngs Moduli (GPa) = 49.50257 68.50845 86.26926
#
# Poissons Ratio (x) = -0.33752 0.20194
# Poissons Ratio (y) = -0.24388 0.20847
# Poissons Ratio (z) = 0.11587 0.16555
#
# Static dielectric constant tensor:
#      x y z
#    x 1.839770 0.000000 0.000000 
#    y 0.000000 1.767440 0.000000 
#    z 0.000000 0.000000 1.759750 
# 
# From -- ./inp_files/23381.got.cif
#   From: 2010.05.17/outbox.cif.g08.bks.cpg/sg72_12_cif.got.tgz:23381.got - 2010.06.03 17:03:01.
