data_PCOD9529961
_publ_section_title
;
Structure prediction by ZEFSAII (Michael W. Deem and Ramdas Pophale) SiO2 
 PCOD9529961
Probable space group: I B C A 
;
_chemical_formula_sum "Si O2"
_cell_formula_units_Z 64
_cell_length_a 22.849617
_cell_length_b 22.195370
_cell_length_c 5.604281
_cell_angle_alpha 90.000000
_cell_angle_beta 90.000000
_cell_angle_gamma 90.000000
_cell_volume 2842.243074
_symmetry_space_group_name_H-M "I B C A "
_symmetry_group_IT_number 73
_symmetry_cell_setting 'orthorhombic'
loop_
_space_group_symop_operation_xyz
x,y,z
-x,1/2-y,z
x,-y,1/2-z
1/2-x,y,-z
-x,-y,-z
x,1/2+y,-z
-x,y,1/2+z
1/2+x,-y,z
1/2+x,1/2+y,1/2+z
1/2-x,-y,1/2+z
1/2+x,1/2-y,-z
-x,1/2+y,1/2-z
1/2-x,1/2-y,1/2-z
1/2+x,y,1/2-z
1/2-x,1/2+y,z
x,1/2-y,1/2+z
loop_
_atom_site_type_symbol
_atom_site_label
_atom_site_fract_x
_atom_site_fract_y
_atom_site_fract_z
Si Si1 0.131868 0.896341 0.713306
Si Si2 0.586274 0.228817 0.624937
Si Si3 0.963021 0.000000 0.250000
Si Si4 0.692757 0.813301 0.391433
Si Si5 0.750000 0.601384 0.500000
O O1 0.100910 0.840917 0.569562
O O2 0.080662 0.943037 0.760746
O O3 0.190297 0.928138 0.602429
O O4 0.157981 0.859792 0.937859
O O5 0.559411 0.261882 0.391817
O O6 0.647520 0.262616 0.678952
O O7 0.000000 0.000000 0.500000
O O8 0.750000 0.782495 0.500000
O O9 0.721435 0.855657 0.195486
#
# Coordination Sequence:
#
# PCOD9529961 Si02
#       5
#    16  16   8  16   8
#     4  10  23  42  67 102 137 181 234 283 348 408
#     4  10  19  32  60  97 145 175 210 259 333 435
#     4  12  32  56  80  88 124 196 260 302 328 396
#     4   9  19  32  60 104 152 184 205 256 351 444
#     4  10  18  36  66 106 154 174 208 276 356 438
#
# _framework density 22.517426
#
# number of rings (size 3 to 8) (size 9 to 14) (size 15 to 20)
#    0.000    2.000    2.500    0.000    5.250    3.000 
#    6.750    0.000    0.000   18.000    0.000    0.000 
#    0.000    0.000    0.000    0.000    0.000    0.000 
#
# Total GULP energy -178238.667818 kJ/mol
# GULP energy per Si atom -5569.958369 kJ/mol
# Density = 2.246618 g / cm^3
# Si number density = 22.517426 Si / 1000 Ang^3
#
#
#
# Elastic Constant Matrix: (Units=GPa)
#
#
# Indices 1 2 3 4 5 6 
#
# 1 175.0792 62.6256 40.8944 0.0000 0.0000 0.0000
# 2 62.6256 99.0320 16.7995 0.0000 0.0000 0.0000
# 3 40.8944 16.7995 107.3965 0.0000 0.0000 0.0000
# 4 0.0000 0.0000 0.0000 19.9406 0.0000 0.0000
# 5 0.0000 0.0000 0.0000 0.0000 -26.7178 0.0000
# 6 0.0000 0.0000 0.0000 0.0000 0.0000 123.2801
#
#
#
# Elastic Compliance Matrix: (Units=1/GPa)
#
#
# Indices 1 2 3 4 5 6 
#
# 1 0.007892 -0.004603 -0.002285 0.000000 0.000000 0.000000
# 2 -0.004603 0.013058 -0.000290 0.000000 0.000000 0.000000
# 3 -0.002285 -0.000290 0.010227 0.000000 0.000000 0.000000
# 4 0.000000 0.000000 0.000000 0.050149 0.000000 0.000000
# 5 0.000000 0.000000 0.000000 0.000000 -0.037428 0.000000
# 6 0.000000 0.000000 0.000000 0.000000 0.000000 0.008112
#
#
# Mechanical properties :
#
#
# Convention : Reuss Voigt Hill
#
# Bulk Modulus (GPa) = 59.45095 69.12742 64.28919
# Shear Modulus (GPa) = 69.47201 40.71313 55.09257
#
# Velocity S-wave (km/s) = 5.56053 4.25676 4.95174
# Velocity P-wave (km/s) = 8.22712 7.41122 7.82980
#
# Compressibility (1/GPa) = 0.01682059
#
# Stress axis : x y z
#
# Youngs Moduli (GPa) = 126.71154 76.58277 97.78301
#
# Poissons Ratio (x) = 0.35251 0.22344
# Poissons Ratio (y) = 0.58326 0.02834
# Poissons Ratio (z) = 0.28954 0.02219
#
# Static dielectric constant tensor:
#      x y z
#    x 1.855670 0.000000 0.000000 
#    y 0.000000 1.802970 0.000000 
#    z 0.000000 0.000000 2.045390 
# 
# From -- ./inp_files/1552.got.cif
#   From: 2010.05.17/outbox.cif.g08.bks.cpg/sg73_1_cif.got.tgz:1552.got - 2010.06.03 17:35:07.
