data_PCOD9529074
_publ_section_title
;
Structure prediction by ZEFSAII (Michael W. Deem and Ramdas Pophale) SiO2 
 PCOD9529074
Probable space group: I B A M
;
_chemical_formula_sum "Si O2"
_cell_formula_units_Z 96
_cell_length_a 22.491710
_cell_length_b 9.744977
_cell_length_c 22.439885
_cell_angle_alpha 90.000000
_cell_angle_beta 90.000000
_cell_angle_gamma 90.000000
_cell_volume 4918.400847
_symmetry_space_group_name_H-M "I B A M"
_symmetry_group_IT_number 72
_symmetry_cell_setting 'orthorhombic'
loop_
_space_group_symop_operation_xyz
x,y,z
-x,-y,z
x,-y,1/2-z
-x,y,1/2-z
-x,-y,-z
x,y,-z
-x,y,1/2+z
x,-y,1/2+z
1/2+x,1/2+y,1/2+z
1/2-x,1/2-y,1/2+z
1/2+x,1/2-y,-z
1/2-x,1/2+y,-z
1/2-x,1/2-y,1/2-z
1/2+x,1/2+y,1/2-z
1/2-x,1/2+y,z
1/2+x,1/2-y,z
loop_
_atom_site_type_symbol
_atom_site_label
_atom_site_fract_x
_atom_site_fract_y
_atom_site_fract_z
Si Si1 0.568691 0.163432 0.740505
Si Si2 0.662941 0.529324 0.931259
Si Si3 0.861436 0.321988 0.119610
Si Si4 0.854105 0.813432 0.842856
Si Si5 0.740611 0.880746 0.789642
Si Si6 0.304825 0.920392 0.069045
O O1 0.500000 0.200557 0.750000
O O2 0.589539 0.185819 0.672105
O O3 0.606459 0.244637 0.791184
O O4 0.574971 0.000000 0.750000
O O5 0.641274 0.682505 0.916826
O O6 0.624859 0.419697 0.893086
O O7 0.735795 0.531354 0.922049
O O8 0.655005 0.496239 0.000000
O O9 0.801450 0.337310 0.157863
O O10 0.853205 0.457546 0.078947
O O11 0.806247 0.913293 0.811156
O O12 0.821148 0.693657 0.881180
O O13 0.750000 0.750000 0.750000
O O14 0.713577 0.000000 0.750000
O O15 0.307962 0.871506 0.000000
#
# Coordination Sequence:
#
# PCOD9529074 Si02
#       6
#    16  16  16  16  16  16
#     4  11  25  43  65  89 114 152 204 263 306 346
#     4  11  23  37  57  93 134 163 191 237 297 364
#     4  12  21  37  60  88 125 161 196 243 303 357
#     4  12  22  37  61  88 125 162 197 243 301 362
#     4  12  21  31  53  89 125 155 188 236 300 367
#     4  11  21  36  59  91 127 165 202 236 286 359
#
# _framework density 19.518539000000001
#
# number of rings (size 3 to 8) (size 9 to 14) (size 15 to 20)
#    0.000    0.500    6.667    3.500    0.000    2.667 
#    0.000    1.667    0.000    6.000    0.000    0.000 
#    0.000    0.000    0.000    0.000    0.000    0.000 
#
# Total GULP energy -267551.496363 kJ/mol
# GULP energy per Si atom -5573.989508 kJ/mol
# Density = 1.947411 g / cm^3
# Si number density = 19.518539 Si / 1000 Ang^3
#
#
#
# Elastic Constant Matrix: (Units=GPa)
#
#
# Indices 1 2 3 4 5 6 
#
# 1 72.8479 -8.3853 18.7122 0.0000 0.0000 0.0000
# 2 -8.3853 53.4947 3.7897 0.0000 0.0000 0.0000
# 3 18.7122 3.7897 71.1722 0.0000 0.0000 0.0000
# 4 0.0000 0.0000 0.0000 34.2111 0.0000 0.0000
# 5 0.0000 0.0000 0.0000 0.0000 3.8518 0.0000
# 6 0.0000 0.0000 0.0000 0.0000 0.0000 26.2008
#
#
#
# Elastic Compliance Matrix: (Units=1/GPa)
#
#
# Indices 1 2 3 4 5 6 
#
# 1 0.015088 0.002656 -0.004108 0.000000 0.000000 0.000000
# 2 0.002656 0.019232 -0.001722 0.000000 0.000000 0.000000
# 3 -0.004108 -0.001722 0.015222 0.000000 0.000000 0.000000
# 4 0.000000 0.000000 0.000000 0.029230 0.000000 0.000000
# 5 0.000000 0.000000 0.000000 0.000000 0.259617 0.000000
# 6 0.000000 0.000000 0.000000 0.000000 0.000000 0.038167
#
#
# Mechanical properties :
#
#
# Convention : Reuss Voigt Hill
#
# Bulk Modulus (GPa) = 23.15179 25.08310 24.11744
# Shear Modulus (GPa) = 12.58485 25.07929 18.83207
#
# Velocity S-wave (km/s) = 2.54197 3.58843 3.10954
# Velocity P-wave (km/s) = 4.52799 5.48160 5.02746
#
# Compressibility (1/GPa) = 0.04319321
#
# Stress axis : x y z
#
# Youngs Moduli (GPa) = 66.27659 51.99721 65.69316
#
# Poissons Ratio (x) = -0.13811 0.26989
# Poissons Ratio (y) = -0.17604 0.11315
# Poissons Ratio (z) = 0.27229 0.08956
#
# Static dielectric constant tensor:
#      x y z
#    x 1.712560 0.000000 0.000000 
#    y 0.000000 1.712360 0.000000 
#    z 0.000000 0.000000 1.900690 
# 
# From -- ./inp_files/45638.got.cif
#   From: 2010.05.17/outbox.cif.g08.bks.cpg/sg72_23_cif.got.tgz:45638.got - 2010.06.03 17:03:01.
