data_PCOD9529440
_publ_section_title
;
Structure prediction by ZEFSAII (Michael W. Deem and Ramdas Pophale) SiO2 
 PCOD9529440
Probable space group: I B A M
;
_chemical_formula_sum "Si O2"
_cell_formula_units_Z 68
_cell_length_a 29.914558
_cell_length_b 8.957048
_cell_length_c 13.977083
_cell_angle_alpha 90.000000
_cell_angle_beta 90.000000
_cell_angle_gamma 90.000000
_cell_volume 3745.105325
_symmetry_space_group_name_H-M "I B A M"
_symmetry_group_IT_number 72
_symmetry_cell_setting 'orthorhombic'
loop_
_space_group_symop_operation_xyz
x,y,z
-x,-y,z
x,-y,1/2-z
-x,y,1/2-z
-x,-y,-z
x,y,-z
-x,y,1/2+z
x,-y,1/2+z
1/2+x,1/2+y,1/2+z
1/2-x,1/2-y,1/2+z
1/2+x,1/2-y,-z
1/2-x,1/2+y,-z
1/2-x,1/2-y,1/2-z
1/2+x,1/2+y,1/2-z
1/2-x,1/2+y,z
1/2+x,1/2-y,z
loop_
_atom_site_type_symbol
_atom_site_label
_atom_site_fract_x
_atom_site_fract_y
_atom_site_fract_z
Si Si1 0.628184 0.851840 0.309812
Si Si2 0.457571 0.646992 0.188612
Si Si3 0.205905 0.832928 0.789252
Si Si4 0.000000 0.000000 0.500000
Si Si5 0.774721 0.256322 0.000000
Si Si6 0.684671 0.910276 0.500000
O O1 0.582821 0.760587 0.322554
O O2 0.662884 0.750643 0.250930
O O3 0.653653 0.895785 0.407189
O O4 0.619049 0.000000 0.250000
O O5 0.443061 0.500000 0.250000
O O6 0.500000 0.707534 0.250000
O O7 0.474208 0.594304 0.085322
O O8 0.250000 0.750000 0.750000
O O9 0.207094 0.000000 0.750000
O O10 0.206893 0.819464 0.903706
O O11 0.721689 0.221546 0.000000
O O12 0.788790 0.430994 0.000000
#
# Coordination Sequence:
#
# PCOD9529440 Si02
#       6
#    16  16  16   4   8   8
#     4  12  24  41  62  96 135 175 222 270 336 399
#     4   9  20  41  68  97 127 168 214 272 332 399
#     4  12  24  41  63  91 130 176 224 283 332 390
#     4   8  16  40  72  96 122 152 212 270 326 392
#     4  12  24  42  63  93 125 179 222 278 325 390
#     4  12  25  40  65  91 133 176 225 276 327 395
#
# _framework density 18.157033999999999
#
# number of rings (size 3 to 8) (size 9 to 14) (size 15 to 20)
#    0.000    1.176    4.706    3.529    0.000    0.471 
#    0.000   14.118    0.000    7.059    0.000    0.000 
#    0.000    0.000    0.000    0.000    0.000    0.000 
#
# Total GULP energy -189439.324311 kJ/mol
# GULP energy per Si atom -5571.744833 kJ/mol
# Density = 1.811571 g / cm^3
# Si number density = 18.157034 Si / 1000 Ang^3
#
#
#
# Elastic Constant Matrix: (Units=GPa)
#
#
# Indices 1 2 3 4 5 6 
#
# 1 153.1982 96.3222 76.1111 0.0000 0.0000 0.0000
# 2 96.3222 136.4726 71.9883 0.0000 0.0000 0.0000
# 3 76.1111 71.9883 214.7310 0.0000 0.0000 0.0000
# 4 0.0000 0.0000 0.0000 18.8575 0.0000 0.0000
# 5 0.0000 0.0000 0.0000 0.0000 12.9201 0.0000
# 6 0.0000 0.0000 0.0000 0.0000 0.0000 43.7537
#
#
#
# Elastic Compliance Matrix: (Units=1/GPa)
#
#
# Indices 1 2 3 4 5 6 
#
# 1 0.012256 -0.007725 -0.001754 0.000000 0.000000 0.000000
# 2 -0.007725 0.013771 -0.001878 0.000000 0.000000 0.000000
# 3 -0.001754 -0.001878 0.005909 0.000000 0.000000 0.000000
# 4 0.000000 0.000000 0.000000 0.053029 0.000000 0.000000
# 5 0.000000 0.000000 0.000000 0.000000 0.077399 0.000000
# 6 0.000000 0.000000 0.000000 0.000000 0.000000 0.022855
#
#
# Mechanical properties :
#
#
# Convention : Reuss Voigt Hill
#
# Bulk Modulus (GPa) = 108.46337 110.36056 109.41197
# Shear Modulus (GPa) = 23.69589 32.43828 28.06709
#
# Velocity S-wave (km/s) = 3.61647 4.23133 3.93593
# Velocity P-wave (km/s) = 8.79229 9.20790 9.00249
#
# Compressibility (1/GPa) = 0.00921970
#
# Stress axis : x y z
#
# Youngs Moduli (GPa) = 81.59234 72.61857 169.24510
#
# Poissons Ratio (x) = 0.56097 0.29692
# Poissons Ratio (y) = 0.63029 0.31793
# Poissons Ratio (z) = 0.14314 0.13641
#
# Static dielectric constant tensor:
#      x y z
#    x 1.609830 0.000000 0.000000 
#    y 0.000000 1.601790 0.000000 
#    z 0.000000 0.000000 1.617660 
# 
# From -- ./inp_files/25673.got.cif
#   From: 2010.05.17/outbox.cif.g08.bks.cpg/sg72_13_cif.got.tgz:25673.got - 2010.06.03 17:03:01.
