data_PCOD9529334
_publ_section_title
;
Structure prediction by ZEFSAII (Michael W. Deem and Ramdas Pophale) SiO2 
 PCOD9529334
Probable space group: I B A M
;
_chemical_formula_sum "Si O2"
_cell_formula_units_Z 64
_cell_length_a 12.915090
_cell_length_b 14.867404
_cell_length_c 15.329970
_cell_angle_alpha 90.000000
_cell_angle_beta 90.000000
_cell_angle_gamma 90.000000
_cell_volume 2943.566725
_symmetry_space_group_name_H-M "I B A M"
_symmetry_group_IT_number 72
_symmetry_cell_setting 'orthorhombic'
loop_
_space_group_symop_operation_xyz
x,y,z
-x,-y,z
x,-y,1/2-z
-x,y,1/2-z
-x,-y,-z
x,y,-z
-x,y,1/2+z
x,-y,1/2+z
1/2+x,1/2+y,1/2+z
1/2-x,1/2-y,1/2+z
1/2+x,1/2-y,-z
1/2-x,1/2+y,-z
1/2-x,1/2-y,1/2-z
1/2+x,1/2+y,1/2-z
1/2-x,1/2+y,z
1/2+x,1/2-y,z
loop_
_atom_site_type_symbol
_atom_site_label
_atom_site_fract_x
_atom_site_fract_y
_atom_site_fract_z
Si Si1 0.600340 0.066530 0.899694
Si Si2 0.527995 0.402961 0.148901
Si Si3 0.264609 0.092220 0.106397
Si Si4 0.954329 0.288034 0.896664
O O1 0.553911 0.157401 0.858949
O O2 0.500000 0.000000 0.901376
O O3 0.691835 0.005101 0.862340
O O4 0.631204 0.085945 0.000000
O O5 0.500000 0.500000 0.109189
O O6 0.500000 0.406220 0.250000
O O7 0.649842 0.388641 0.136941
O O8 0.466536 0.317483 0.113183
O O9 0.348040 0.167185 0.135257
O O10 0.263670 0.090684 0.000000
O O11 0.956503 0.308172 0.000000
#
# Coordination Sequence:
#
# PCOD9529334 Si02
#       4
#    16  16  16  16
#     4   7  12  27  54  87 114 131 161 217 275 325
#     4  11  25  40  51  73 113 156 192 226 272 330
#     4   9  18  35  61  88 112 142 180 228 285 334
#     4   9  18  35  61  90 113 138 183 235 277 327
#
# _framework density 21.742329000000002
#
# number of rings (size 3 to 8) (size 9 to 14) (size 15 to 20)
#    0.000    3.000    0.000    3.750    0.000    5.000 
#    0.000    7.500    0.000    5.250    0.000    0.000 
#    0.000    0.000    0.000    0.000    0.000    0.750 
#
# Total GULP energy -178413.943965 kJ/mol
# GULP energy per Si atom -5575.435749 kJ/mol
# Density = 2.169284 g / cm^3
# Si number density = 21.742329 Si / 1000 Ang^3
#
#
#
# Elastic Constant Matrix: (Units=GPa)
#
#
# Indices 1 2 3 4 5 6 
#
# 1 126.7274 63.9253 20.8263 0.0000 0.0000 0.0000
# 2 63.9253 160.2311 6.1282 0.0000 0.0000 0.0000
# 3 20.8263 6.1282 35.6456 0.0000 0.0000 0.0000
# 4 0.0000 0.0000 0.0000 22.1519 0.0000 0.0000
# 5 0.0000 0.0000 0.0000 0.0000 38.3510 0.0000
# 6 0.0000 0.0000 0.0000 0.0000 0.0000 25.4030
#
#
#
# Elastic Compliance Matrix: (Units=1/GPa)
#
#
# Indices 1 2 3 4 5 6 
#
# 1 0.010907 -0.004135 -0.005662 0.000000 0.000000 0.000000
# 2 -0.004135 0.007850 0.001066 0.000000 0.000000 0.000000
# 3 -0.005662 0.001066 0.031179 0.000000 0.000000 0.000000
# 4 0.000000 0.000000 0.000000 0.045143 0.000000 0.000000
# 5 0.000000 0.000000 0.000000 0.000000 0.026075 0.000000
# 6 0.000000 0.000000 0.000000 0.000000 0.000000 0.039365
#
#
# Mechanical properties :
#
#
# Convention : Reuss Voigt Hill
#
# Bulk Modulus (GPa) = 30.79305 56.04041 43.41673
# Shear Modulus (GPa) = 26.48240 32.62946 29.55593
#
# Velocity S-wave (km/s) = 3.49379 3.87813 3.69097
# Velocity P-wave (km/s) = 5.51986 6.77377 6.17871
#
# Compressibility (1/GPa) = 0.03247486
#
# Stress axis : x y z
#
# Youngs Moduli (GPa) = 91.68245 127.39053 32.07334
#
# Poissons Ratio (x) = 0.52676 0.18159
# Poissons Ratio (y) = 0.37910 -0.03420
# Poissons Ratio (z) = 0.51908 -0.13584
#
# Static dielectric constant tensor:
#      x y z
#    x 1.783370 0.000000 0.000000 
#    y 0.000000 1.859050 0.000000 
#    z 0.000000 0.000000 1.843460 
# 
# From -- ./inp_files/28766.got.cif
#   From: 2010.05.17/outbox.cif.g08.bks.cpg/sg72_15_cif.got.tgz:28766.got - 2010.06.03 17:03:01.
