data_PCOD9529259
_publ_section_title
;
Structure prediction by ZEFSAII (Michael W. Deem and Ramdas Pophale) SiO2 
 PCOD9529259
Probable space group: I B A M
;
_chemical_formula_sum "Si O2"
_cell_formula_units_Z 64
_cell_length_a 8.119843
_cell_length_b 13.469061
_cell_length_c 23.492583
_cell_angle_alpha 90.000000
_cell_angle_beta 90.000000
_cell_angle_gamma 90.000000
_cell_volume 2569.305353
_symmetry_space_group_name_H-M "I B A M"
_symmetry_group_IT_number 72
_symmetry_cell_setting 'orthorhombic'
loop_
_space_group_symop_operation_xyz
x,y,z
-x,-y,z
x,-y,1/2-z
-x,y,1/2-z
-x,-y,-z
x,y,-z
-x,y,1/2+z
x,-y,1/2+z
1/2+x,1/2+y,1/2+z
1/2-x,1/2-y,1/2+z
1/2+x,1/2-y,-z
1/2-x,1/2+y,-z
1/2-x,1/2-y,1/2-z
1/2+x,1/2+y,1/2-z
1/2-x,1/2+y,z
1/2+x,1/2-y,z
loop_
_atom_site_type_symbol
_atom_site_label
_atom_site_fract_x
_atom_site_fract_y
_atom_site_fract_z
Si Si1 0.550562 0.390063 0.823660
Si Si2 0.584324 0.169483 0.309552
Si Si3 0.065893 0.137695 0.561501
Si Si4 0.458325 0.135290 0.565928
O O1 0.500000 0.500000 0.804682
O O2 0.438082 0.290694 0.815250
O O3 0.726374 0.357445 0.802137
O O4 0.556340 0.402024 0.891473
O O5 0.500000 0.140206 0.250000
O O6 0.523871 0.115600 0.368602
O O7 0.024829 0.099538 0.500000
O O8 0.260729 0.125076 0.571876
O O9 0.025966 0.253847 0.561057
O O10 0.497008 0.098064 0.500000
#
# Coordination Sequence:
#
# PCOD9529259 Si02
#       4
#    16  16  16  16
#     4  11  24  42  69 103 141 186 236 289 352 419
#     4  11  23  43  70 103 143 184 234 292 350 416
#     4   9  17  32  57  93 135 179 232 289 345 412
#     4   9  17  33  61  94 133 183 230 283 353 414
#
# _framework density 24.909457
#
# number of rings (size 3 to 8) (size 9 to 14) (size 15 to 20)
#    0.000    2.000    0.000    6.750    0.000    4.000 
#    0.000    5.000    0.000   15.000    0.000    0.000 
#    0.000    0.000    0.000    0.000    0.000    0.000 
#
# Total GULP energy -178162.226248 kJ/mol
# GULP energy per Si atom -5567.569570 kJ/mol
# Density = 2.485276 g / cm^3
# Si number density = 24.909457 Si / 1000 Ang^3
#
#
#
# Elastic Constant Matrix: (Units=GPa)
#
#
# Indices 1 2 3 4 5 6 
#
# 1 81.4685 76.2697 61.3324 0.0000 0.0000 0.0000
# 2 76.2697 159.5869 32.3740 0.0000 0.0000 0.0000
# 3 61.3324 32.3740 231.9577 0.0000 0.0000 0.0000
# 4 0.0000 0.0000 0.0000 -66.3633 0.0000 0.0000
# 5 0.0000 0.0000 0.0000 0.0000 47.8217 0.0000
# 6 0.0000 0.0000 0.0000 0.0000 0.0000 41.7474
#
#
#
# Elastic Compliance Matrix: (Units=1/GPa)
#
#
# Indices 1 2 3 4 5 6 
#
# 1 0.028022 -0.012236 -0.005702 0.000000 0.000000 0.000000
# 2 -0.012236 0.011791 0.001590 0.000000 0.000000 0.000000
# 3 -0.005702 0.001590 0.005597 0.000000 0.000000 0.000000
# 4 0.000000 0.000000 0.000000 -0.015069 0.000000 0.000000
# 5 0.000000 0.000000 0.000000 0.000000 0.020911 0.000000
# 6 0.000000 0.000000 0.000000 0.000000 0.000000 0.023954
#
#
# Mechanical properties :
#
#
# Convention : Reuss Voigt Hill
#
# Bulk Modulus (GPa) = 78.64881 90.32949 84.48915
# Shear Modulus (GPa) = 44.58734 24.84363 34.71548
#
# Velocity S-wave (km/s) = 4.23540 3.16152 3.73723
# Velocity P-wave (km/s) = 7.45390 7.04761 7.25360
#
# Compressibility (1/GPa) = 0.01271475
#
# Stress axis : x y z
#
# Youngs Moduli (GPa) = 35.68652 84.80808 178.67183
#
# Poissons Ratio (x) = 1.03767 1.01871
# Poissons Ratio (y) = 0.43664 -0.28400
# Poissons Ratio (z) = 0.20347 -0.13480
#
# Static dielectric constant tensor:
#      x y z
#    x 1.887980 0.000000 0.000000 
#    y 0.000000 1.817690 0.000000 
#    z 0.000000 0.000000 2.084970 
# 
# From -- ./inp_files/41935.got.cif
#   From: 2010.05.17/outbox.cif.g08.bks.cpg/sg72_21_cif.got.tgz:41935.got - 2010.06.03 17:03:01.
