data_PCOD9529502
_publ_section_title
;
Structure prediction by ZEFSAII (Michael W. Deem and Ramdas Pophale) SiO2 
 PCOD9529502
Probable space group: I B A M
;
_chemical_formula_sum "Si O2"
_cell_formula_units_Z 48
_cell_length_a 12.000000
_cell_length_b 21.000000
_cell_length_c 21.000000
_cell_angle_alpha 90.000000
_cell_angle_beta 90.000000
_cell_angle_gamma 90.000000
_cell_volume 5292.000000
_symmetry_space_group_name_H-M "I B A M"
_symmetry_group_IT_number 72
_symmetry_cell_setting 'orthorhombic'
loop_
_space_group_symop_operation_xyz
x,y,z
-x,-y,z
x,-y,1/2-z
-x,y,1/2-z
-x,-y,-z
x,y,-z
-x,y,1/2+z
x,-y,1/2+z
1/2+x,1/2+y,1/2+z
1/2-x,1/2-y,1/2+z
1/2+x,1/2-y,-z
1/2-x,1/2+y,-z
1/2-x,1/2-y,1/2-z
1/2+x,1/2+y,1/2-z
1/2-x,1/2+y,z
1/2+x,1/2-y,z
loop_
_atom_site_type_symbol
_atom_site_label
_atom_site_fract_x
_atom_site_fract_y
_atom_site_fract_z
Si Si1 0.872774 0.935786 0.500000
Si Si2 0.180614 0.738034 0.114567
Si Si3 0.130543 0.984694 0.141063
Si Si4 0.285989 0.813364 0.000000
Si Si5 0.987307 0.723020 0.500000
Si Si6 0.677691 0.377398 0.133821
Si Si7 0.436837 0.352908 0.816896
Si Si8 0.895243 0.135931 0.500000
O O1 0.850459 0.971692 0.433888
O O2 0.798307 0.872037 0.500000
O O3 0.001751 0.913541 0.500000
O O4 0.263079 0.773411 0.064563
O O5 0.241219 0.680558 0.152375
O O6 0.130652 0.791063 0.161829
O O7 0.084663 0.717431 0.064361
O O8 0.139727 0.916363 0.176348
O O9 0.191878 0.050669 0.160062
O O10 0.000000 0.000000 0.150635
O O11 0.415387 0.828692 0.000000
O O12 0.046408 0.793763 0.500000
O O13 0.545927 0.360443 0.138954
O O14 0.686253 0.376473 0.058387
O O15 0.500000 0.348606 0.750000
#
# Coordination Sequence:
#
# PCOD9529502 Si02
#       8
#     8  16  16   8   8  16  16   8
#     4  12  16  28  51  78 106 138 168 215 278 336
#     4  11  19  34  52  78 109 141 182 218 269 327
#     4  10  19  31  51  78 108 136 168 223 278 328
#     4  11  17  28  54  77 108 145 175 211 270 329
#     4  11  18  30  52  79 110 141 173 218 264 322
#     4  11  21  32  54  79 107 140 175 221 276 328
#     4  11  22  36  53  77 109 140 180 225 273 318
#     4  12  14  29  48  82 105 138 166 214 275 332
#
# _framework density 9.0702949999999998
#
# number of rings (size 3 to 8) (size 9 to 14) (size 15 to 20)
#    0.000    1.000   10.000    1.250    0.000    3.667 
#    0.000    0.000    0.000    2.000    0.000    0.000 
#    0.000    0.000    0.000    0.000    0.000    0.000 
#
# Total GULP energy -267296.263033 kJ/mol
# GULP energy per Si atom -5568.672147 kJ/mol
# Density = 0.904965 g / cm^3
# Si number density = 9.070295 Si / 1000 Ang^3
#
#
#
# Elastic Constant Matrix: (Units=GPa)
#
#
# Indices 1 2 3 4 5 6 
#
# 1 47.5565 46.1618 -6.1559 0.0000 0.0000 0.0000
# 2 46.1618 154.6468 25.0133 0.0000 0.0000 0.0000
# 3 -6.1559 25.0133 44.8296 0.0000 0.0000 0.0000
# 4 0.0000 0.0000 0.0000 12.6073 0.0000 0.0000
# 5 0.0000 0.0000 0.0000 0.0000 4.5683 0.0000
# 6 0.0000 0.0000 0.0000 0.0000 0.0000 37.1279
#
#
#
# Elastic Compliance Matrix: (Units=1/GPa)
#
#
# Indices 1 2 3 4 5 6 
#
# 1 0.034215 -0.012061 0.011428 0.000000 0.000000 0.000000
# 2 -0.012061 0.011360 -0.007995 0.000000 0.000000 0.000000
# 3 0.011428 -0.007995 0.028337 0.000000 0.000000 0.000000
# 4 0.000000 0.000000 0.000000 0.079319 0.000000 0.000000
# 5 0.000000 0.000000 0.000000 0.000000 0.218900 0.000000
# 6 0.000000 0.000000 0.000000 0.000000 0.000000 0.026934
#
#
# Mechanical properties :
#
#
# Convention : Reuss Voigt Hill
#
# Bulk Modulus (GPa) = 17.65057 41.89680 29.77369
# Shear Modulus (GPa) = 11.48884 22.99496 17.24190
#
# Velocity S-wave (km/s) = 2.51932 3.56420 3.08630
# Velocity P-wave (km/s) = 4.26774 6.33117 5.39895
#
# Compressibility (1/GPa) = 0.05665540
#
# Stress axis : x y z
#
# Youngs Moduli (GPa) = 29.22716 88.02996 35.28991
#
# Poissons Ratio (x) = 1.06177 -0.40330
# Poissons Ratio (y) = 0.35252 0.28213
# Poissons Ratio (z) = -0.33401 0.70376
#
# Static dielectric constant tensor:
#      x y z
#    x 1.656200 0.000000 0.000000 
#    y 0.000000 1.713880 0.000000 
#    z 0.000000 0.000000 2.103300 
# 
# From -- ./inp_files/37176.got.cif
#   From: 2010.05.17/outbox.ucp.g08.bks.cvg/sg72_19_cif.got.tgz:37176.got - 2010.06.11 16:33:07.
