data_PCOD9529029
_publ_section_title
;
Structure prediction by ZEFSAII (Michael W. Deem and Ramdas Pophale) SiO2 
 PCOD9529029
Probable space group: I B A M
;
_chemical_formula_sum "Si O2"
_cell_formula_units_Z 80
_cell_length_a 13.001459
_cell_length_b 13.404183
_cell_length_c 22.197181
_cell_angle_alpha 90.000000
_cell_angle_beta 90.000000
_cell_angle_gamma 90.000000
_cell_volume 3868.390094
_symmetry_space_group_name_H-M "I B A M"
_symmetry_group_IT_number 72
_symmetry_cell_setting 'orthorhombic'
loop_
_space_group_symop_operation_xyz
x,y,z
-x,-y,z
x,-y,1/2-z
-x,y,1/2-z
-x,-y,-z
x,y,-z
-x,y,1/2+z
x,-y,1/2+z
1/2+x,1/2+y,1/2+z
1/2-x,1/2-y,1/2+z
1/2+x,1/2-y,-z
1/2-x,1/2+y,-z
1/2-x,1/2-y,1/2-z
1/2+x,1/2+y,1/2-z
1/2-x,1/2+y,z
1/2+x,1/2-y,z
loop_
_atom_site_type_symbol
_atom_site_label
_atom_site_fract_x
_atom_site_fract_y
_atom_site_fract_z
Si Si1 0.781592 0.878160 0.798803
Si Si2 0.877232 0.721837 0.117196
Si Si3 0.960925 0.385999 0.186561
Si Si4 0.985977 0.120217 0.065815
Si Si5 0.310252 0.596935 0.656210
O O1 0.840409 0.785876 0.825955
O O2 0.660646 0.876693 0.812934
O O3 0.797005 0.876360 0.726889
O O4 0.818327 0.977474 0.834330
O O5 0.785815 0.638741 0.116253
O O6 0.981524 0.663938 0.131424
O O7 0.912544 0.809668 0.071613
O O8 0.000000 0.500000 0.186521
O O9 0.000000 0.342320 0.250000
O O10 0.910720 0.137762 0.122581
O O11 0.938898 0.143951 0.000000
O O12 0.000000 0.000000 0.066220
#
# Coordination Sequence:
#
# PCOD9529029 Si02
#       5
#    16  16  16  16  16
#     4  11  22  37  59 103 132 163 208 249 336 397
#     4  12  23  38  68  91 128 173 204 258 323 387
#     4  11  20  37  59  93 140 170 194 250 328 402
#     4  11  26  47  64  87 124 173 222 268 316 367
#     4  11  22  40  64  93 132 159 210 271 313 391
#
# _framework density 20.680437999999999
#
# number of rings (size 3 to 8) (size 9 to 14) (size 15 to 20)
#    0.000    0.800    6.000    3.000    2.800    0.800 
#    0.000    0.000    0.000    0.600    0.000    0.000 
#    0.000    0.000    0.000    0.000    0.000    0.000 
#
# Total GULP energy -222785.824062 kJ/mol
# GULP energy per Si atom -5569.645602 kJ/mol
# Density = 2.063337 g / cm^3
# Si number density = 20.680438 Si / 1000 Ang^3
#
#
#
# Elastic Constant Matrix: (Units=GPa)
#
#
# Indices 1 2 3 4 5 6 
#
# 1 64.4553 7.0541 27.9960 0.0000 0.0000 0.0000
# 2 7.0541 79.7756 21.6748 0.0000 0.0000 0.0000
# 3 27.9960 21.6748 51.4720 0.0000 0.0000 0.0000
# 4 0.0000 0.0000 0.0000 4.7119 0.0000 0.0000
# 5 0.0000 0.0000 0.0000 0.0000 13.0912 0.0000
# 6 0.0000 0.0000 0.0000 0.0000 0.0000 33.7323
#
#
#
# Elastic Compliance Matrix: (Units=1/GPa)
#
#
# Indices 1 2 3 4 5 6 
#
# 1 0.020445 0.001370 -0.011697 0.000000 0.000000 0.000000
# 2 0.001370 0.014246 -0.006744 0.000000 0.000000 0.000000
# 3 -0.011697 -0.006744 0.028630 0.000000 0.000000 0.000000
# 4 0.000000 0.000000 0.000000 0.212228 0.000000 0.000000
# 5 0.000000 0.000000 0.000000 0.000000 0.076387 0.000000
# 6 0.000000 0.000000 0.000000 0.000000 0.000000 0.029645
#
#
# Mechanical properties :
#
#
# Convention : Reuss Voigt Hill
#
# Bulk Modulus (GPa) = 34.27114 34.35030 34.31072
# Shear Modulus (GPa) = 11.75218 19.57227 15.66222
#
# Velocity S-wave (km/s) = 2.38644 3.07972 2.75498
# Velocity P-wave (km/s) = 4.91947 5.41224 5.17173
#
# Compressibility (1/GPa) = 0.02917907
#
# Stress axis : x y z
#
# Youngs Moduli (GPa) = 48.91066 70.19291 34.92780
#
# Poissons Ratio (x) = -0.09618 0.40857
# Poissons Ratio (y) = -0.06702 0.23557
# Poissons Ratio (z) = 0.57213 0.47341
#
# Static dielectric constant tensor:
#      x y z
#    x 1.714230 0.000000 0.000000 
#    y 0.000000 1.813490 0.000000 
#    z 0.000000 0.000000 1.739800 
# 
# From -- ./inp_files/43118.got.cif
#   From: 2010.05.17/outbox.cif.g08.bks.cpg/sg72_22_cif.got.tgz:43118.got - 2010.06.03 17:03:01.
