data_PCOD9529454
_publ_section_title
;
Structure prediction by ZEFSAII (Michael W. Deem and Ramdas Pophale) SiO2 
 PCOD9529454
Probable space group: I B A M
;
_chemical_formula_sum "Si O2"
_cell_formula_units_Z 64
_cell_length_a 7.883797
_cell_length_b 14.750657
_cell_length_c 22.047764
_cell_angle_alpha 90.000000
_cell_angle_beta 90.000000
_cell_angle_gamma 90.000000
_cell_volume 2563.960611
_symmetry_space_group_name_H-M "I B A M"
_symmetry_group_IT_number 72
_symmetry_cell_setting 'orthorhombic'
loop_
_space_group_symop_operation_xyz
x,y,z
-x,-y,z
x,-y,1/2-z
-x,y,1/2-z
-x,-y,-z
x,y,-z
-x,y,1/2+z
x,-y,1/2+z
1/2+x,1/2+y,1/2+z
1/2-x,1/2-y,1/2+z
1/2+x,1/2-y,-z
1/2-x,1/2+y,-z
1/2-x,1/2-y,1/2-z
1/2+x,1/2+y,1/2-z
1/2-x,1/2+y,z
1/2+x,1/2-y,z
loop_
_atom_site_type_symbol
_atom_site_label
_atom_site_fract_x
_atom_site_fract_y
_atom_site_fract_z
Si Si1 0.807254 0.619957 0.616833
Si Si2 0.796911 0.643859 0.248271
Si Si3 0.634727 0.792183 0.431271
Si Si4 0.827394 0.942687 0.377002
O O1 0.741009 0.610965 0.685738
O O2 0.685362 0.689543 0.582645
O O3 0.806019 0.516505 0.596785
O O4 0.990086 0.667731 0.612630
O O5 0.750000 0.750000 0.250000
O O6 0.714188 0.593351 0.191122
O O7 0.000000 0.630969 0.250000
O O8 0.576599 0.802940 0.500000
O O9 0.800337 0.853475 0.417669
O O10 0.000000 0.000000 0.381188
#
# Coordination Sequence:
#
# PCOD9529454 Si02
#       4
#    16  16  16  16
#     4  12  25  47  74 108 154 197 254 321 383 453
#     4  12  25  46  78 111 151 198 243 313 390 469
#     4  12  27  49  77 109 153 211 264 315 375 446
#     4  12  28  46  77 114 155 197 254 315 387 461
#
# _framework density 24.961382
#
# number of rings (size 3 to 8) (size 9 to 14) (size 15 to 20)
#    0.000    0.000    5.000    3.750    3.500    5.500 
#    0.000    0.000    0.000    0.000    0.000    0.000 
#    0.000    0.000    0.000    0.000    0.000    0.000 
#
# Total GULP energy -179127.350429 kJ/mol
# GULP energy per Si atom -5597.729701 kJ/mol
# Density = 2.490457 g / cm^3
# Si number density = 24.961382 Si / 1000 Ang^3
#
#
#
# Elastic Constant Matrix: (Units=GPa)
#
#
# Indices 1 2 3 4 5 6 
#
# 1 96.1157 12.0415 -18.1293 0.0000 0.0000 0.0000
# 2 12.0415 168.3671 13.9087 0.0000 0.0000 0.0000
# 3 -18.1293 13.9087 99.1165 0.0000 0.0000 0.0000
# 4 0.0000 0.0000 0.0000 -14.6163 0.0000 0.0000
# 5 0.0000 0.0000 0.0000 0.0000 18.8355 0.0000
# 6 0.0000 0.0000 0.0000 0.0000 0.0000 44.6644
#
#
#
# Elastic Compliance Matrix: (Units=1/GPa)
#
#
# Indices 1 2 3 4 5 6 
#
# 1 0.010926 -0.000958 0.002133 0.000000 0.000000 0.000000
# 2 -0.000958 0.006093 -0.001030 0.000000 0.000000 0.000000
# 3 0.002133 -0.001030 0.010624 0.000000 0.000000 0.000000
# 4 0.000000 0.000000 0.000000 -0.068417 0.000000 0.000000
# 5 0.000000 0.000000 0.000000 0.000000 0.053091 0.000000
# 6 0.000000 0.000000 0.000000 0.000000 0.000000 0.022389
#
#
# Mechanical properties :
#
#
# Convention : Reuss Voigt Hill
#
# Bulk Modulus (GPa) = 35.79941 42.13792 38.96866
# Shear Modulus (GPa) = 114.34314 33.49527 73.91921
#
# Velocity S-wave (km/s) = 6.77550 3.66715 5.44773
# Velocity P-wave (km/s) = 8.69385 5.90326 7.43073
#
# Compressibility (1/GPa) = 0.02793342
#
# Stress axis : x y z
#
# Youngs Moduli (GPa) = 91.52138 164.12286 94.12803
#
# Poissons Ratio (x) = 0.15717 -0.20077
# Poissons Ratio (y) = 0.08765 0.09697
# Poissons Ratio (z) = -0.19521 0.16908
#
# Static dielectric constant tensor:
#      x y z
#    x 2.092080 0.000000 0.000000 
#    y 0.000000 2.678320 0.000000 
#    z 0.000000 0.000000 1.950870 
# 
# From -- ./inp_files/41925.got.cif
#   From: 2010.05.17/outbox.cif.g08.bks.cpg/sg72_21_cif.got.tgz:41925.got - 2010.06.03 17:03:01.
