data_PCOD9529861
_publ_section_title
;
Structure prediction by ZEFSAII (Michael W. Deem and Ramdas Pophale) SiO2 
 PCOD9529861
Probable space group: I B C A 
;
_chemical_formula_sum "Si O2"
_cell_formula_units_Z 96
_cell_length_a 11.648598
_cell_length_b 23.025896
_cell_length_c 18.620008
_cell_angle_alpha 90.000000
_cell_angle_beta 90.000000
_cell_angle_gamma 90.000000
_cell_volume 4994.247487
_symmetry_space_group_name_H-M "I B C A "
_symmetry_group_IT_number 73
_symmetry_cell_setting 'orthorhombic'
loop_
_space_group_symop_operation_xyz
x,y,z
-x,1/2-y,z
x,-y,1/2-z
1/2-x,y,-z
-x,-y,-z
x,1/2+y,-z
-x,y,1/2+z
1/2+x,-y,z
1/2+x,1/2+y,1/2+z
1/2-x,-y,1/2+z
1/2+x,1/2-y,-z
-x,1/2+y,1/2-z
1/2-x,1/2-y,1/2-z
1/2+x,y,1/2-z
1/2-x,1/2+y,z
x,1/2-y,1/2+z
loop_
_atom_site_type_symbol
_atom_site_label
_atom_site_fract_x
_atom_site_fract_y
_atom_site_fract_z
Si Si1 0.243089 0.674538 0.328584
Si Si2 0.303986 0.598437 0.922706
Si Si3 0.678044 0.303346 0.835448
Si Si4 0.980152 0.385045 0.697573
Si Si5 0.158260 0.513997 0.832242
Si Si6 0.544430 0.894417 0.364354
O O1 0.272167 0.684063 0.244329
O O2 0.193516 0.736118 0.353531
O O3 0.148579 0.623588 0.329422
O O4 0.359334 0.655456 0.368016
O O5 0.247923 0.656421 0.889790
O O6 0.262255 0.545514 0.872158
O O7 0.440619 0.605679 0.919969
O O8 0.250000 0.588152 0.000000
O O9 0.549865 0.328292 0.828987
O O10 0.987918 0.388352 0.784377
O O11 0.052504 0.440081 0.670277
O O12 0.190309 0.500000 0.750000
O O13 0.112006 0.455112 0.866603
#
# Coordination Sequence:
#
# PCOD9529861 Si02
#       6
#    16  16  16  16  16  16
#     4  10  18  32  61  89 115 142 199 260 300 348
#     4  11  23  40  59  80 125 167 200 240 312 385
#     4   9  19  34  56  88 116 151 194 246 306 355
#     4   9  17  33  56  90 119 147 187 258 311 343
#     4   9  21  36  61  87 116 151 201 261 303 356
#     4  10  21  33  56  89 115 154 198 246 303 363
#
# _framework density 19.222114999999999
#
# number of rings (size 3 to 8) (size 9 to 14) (size 15 to 20)
#    0.000    2.333    1.667    1.500    2.333    2.000 
#    0.000    0.000   14.667    0.000    0.000    0.000 
#    0.000    0.000    0.000    0.000    0.000    0.000 
#
# Total GULP energy -267860.626764 kJ/mol
# GULP energy per Si atom -5580.429724 kJ/mol
# Density = 1.917836 g / cm^3
# Si number density = 19.222115 Si / 1000 Ang^3
#
#
#
# Elastic Constant Matrix: (Units=GPa)
#
#
# Indices 1 2 3 4 5 6 
#
# 1 98.5211 37.7071 23.3285 0.0000 0.0000 0.0000
# 2 37.7071 94.1514 31.7243 0.0000 0.0000 0.0000
# 3 23.3285 31.7243 31.1474 0.0000 0.0000 0.0000
# 4 0.0000 0.0000 0.0000 9.1379 0.0000 0.0000
# 5 0.0000 0.0000 0.0000 0.0000 12.8867 0.0000
# 6 0.0000 0.0000 0.0000 0.0000 0.0000 10.9258
#
#
#
# Elastic Compliance Matrix: (Units=1/GPa)
#
#
# Indices 1 2 3 4 5 6 
#
# 1 0.012836 -0.002895 -0.006666 0.000000 0.000000 0.000000
# 2 -0.002895 0.016824 -0.014967 0.000000 0.000000 0.000000
# 3 -0.006666 -0.014967 0.052342 0.000000 0.000000 0.000000
# 4 0.000000 0.000000 0.000000 0.109434 0.000000 0.000000
# 5 0.000000 0.000000 0.000000 0.000000 0.077599 0.000000
# 6 0.000000 0.000000 0.000000 0.000000 0.000000 0.091526
#
#
# Mechanical properties :
#
#
# Convention : Reuss Voigt Hill
#
# Bulk Modulus (GPa) = 30.35179 45.48217 37.91698
# Shear Modulus (GPa) = 11.88780 15.32743 13.60762
#
# Velocity S-wave (km/s) = 2.48955 2.82686 2.66355
# Velocity P-wave (km/s) = 4.90797 5.86239 5.40628
#
# Compressibility (1/GPa) = 0.03294698
#
# Stress axis : x y z
#
# Youngs Moduli (GPa) = 77.90340 59.43967 19.10512
#
# Poissons Ratio (x) = 0.17208 0.12735
# Poissons Ratio (y) = 0.22553 0.28595
# Poissons Ratio (z) = 0.51927 0.88964
#
# Static dielectric constant tensor:
#      x y z
#    x 1.689300 0.000000 0.000000 
#    y 0.000000 1.677940 0.000000 
#    z 0.000000 0.000000 1.650860 
# 
# From -- ./inp_files/13616.got.cif
#   From: 2010.05.17/outbox.cif.g08.bks.cpg/sg73_7_cif.got.tgz:13616.got - 2010.06.03 17:35:07.
