data_PCOD9529401
_publ_section_title
;
Structure prediction by ZEFSAII (Michael W. Deem and Ramdas Pophale) SiO2 
 PCOD9529401
Probable space group: I B A M
;
_chemical_formula_sum "Si O2"
_cell_formula_units_Z 64
_cell_length_a 12.896054
_cell_length_b 11.743491
_cell_length_c 18.671788
_cell_angle_alpha 90.000000
_cell_angle_beta 90.000000
_cell_angle_gamma 90.000000
_cell_volume 2827.743222
_symmetry_space_group_name_H-M "I B A M"
_symmetry_group_IT_number 72
_symmetry_cell_setting 'orthorhombic'
loop_
_space_group_symop_operation_xyz
x,y,z
-x,-y,z
x,-y,1/2-z
-x,y,1/2-z
-x,-y,-z
x,y,-z
-x,y,1/2+z
x,-y,1/2+z
1/2+x,1/2+y,1/2+z
1/2-x,1/2-y,1/2+z
1/2+x,1/2-y,-z
1/2-x,1/2+y,-z
1/2-x,1/2-y,1/2-z
1/2+x,1/2+y,1/2-z
1/2-x,1/2+y,z
1/2+x,1/2-y,z
loop_
_atom_site_type_symbol
_atom_site_label
_atom_site_fract_x
_atom_site_fract_y
_atom_site_fract_z
Si Si1 0.145931 0.045595 0.917348
Si Si2 0.323466 0.881992 0.084689
Si Si3 0.025956 0.221583 0.167394
Si Si4 0.868232 0.636921 0.420633
O O1 0.058531 0.102957 0.869550
O O2 0.243549 0.134987 0.915311
O O3 0.206080 0.927425 0.898888
O O4 0.113950 0.037314 0.000000
O O5 0.379299 0.805164 0.143643
O O6 0.386233 0.001907 0.086299
O O7 0.327533 0.845596 0.000000
O O8 0.000000 0.206881 0.250000
O O9 0.927626 0.285383 0.133826
O O10 0.899749 0.674214 0.500000
#
# Coordination Sequence:
#
# PCOD9529401 Si02
#       4
#    16  16  16  16
#     4   8  18  35  53  78 112 152 194 241 287 342
#     4   8  17  34  54  79 110 148 198 244 278 336
#     4  12  21  29  55  88 119 146 182 245 314 357
#     4   8  17  33  53  77 108 147 196 241 279 336
#
# _framework density 22.63289
#
# number of rings (size 3 to 8) (size 9 to 14) (size 15 to 20)
#    1.500    1.500    0.000    3.000    0.000    5.000 
#    0.000    0.000    0.000    1.500    0.000   10.500 
#    0.000    0.000    0.000    0.000    0.000    0.000 
#
# Total GULP energy -178265.214654 kJ/mol
# GULP energy per Si atom -5570.787958 kJ/mol
# Density = 2.258138 g / cm^3
# Si number density = 22.632890 Si / 1000 Ang^3
#
#
#
# Elastic Constant Matrix: (Units=GPa)
#
#
# Indices 1 2 3 4 5 6 
#
# 1 12.2881 67.4839 -0.3330 0.0000 0.0000 0.0000
# 2 67.4839 94.1908 75.2421 0.0000 0.0000 0.0000
# 3 -0.3330 75.2421 111.7071 0.0000 0.0000 0.0000
# 4 0.0000 0.0000 0.0000 27.8140 0.0000 0.0000
# 5 0.0000 0.0000 0.0000 0.0000 33.4442 0.0000
# 6 0.0000 0.0000 0.0000 0.0000 0.0000 49.7046
#
#
#
# Elastic Compliance Matrix: (Units=1/GPa)
#
#
# Indices 1 2 3 4 5 6 
#
# 1 -0.010744 0.016719 -0.011293 0.000000 0.000000 0.000000
# 2 0.016719 -0.003034 0.002093 0.000000 0.000000 0.000000
# 3 -0.011293 0.002093 0.007508 0.000000 0.000000 0.000000
# 4 0.000000 0.000000 0.000000 0.035953 0.000000 0.000000
# 5 0.000000 0.000000 0.000000 0.000000 0.029901 0.000000
# 6 0.000000 0.000000 0.000000 0.000000 0.000000 0.020119
#
#
# Mechanical properties :
#
#
# Convention : Reuss Voigt Hill
#
# Bulk Modulus (GPa) = 114.04462 55.88576 84.96519
# Shear Modulus (GPa) = 73.97797 27.24542 50.61169
#
# Velocity S-wave (km/s) = 5.72337 3.47334 4.73398
# Velocity P-wave (km/s) = 9.70434 6.38994 8.21601
#
# Compressibility (1/GPa) = 0.00876850
#
# Stress axis : x y z
#
# Youngs Moduli (GPa) = -93.07656 -329.59655 133.18702
#
# Poissons Ratio (x) = 5.51051 1.50413
# Poissons Ratio (y) = 1.55614 -0.27882
# Poissons Ratio (z) = -1.05115 0.68999
#
# Static dielectric constant tensor:
#      x y z
#    x 1.933510 0.000000 0.000000 
#    y 0.000000 1.940710 0.000000 
#    z 0.000000 0.000000 1.733520 
# 
# From -- ./inp_files/19718.got.cif
#   From: 2010.05.17/outbox.cif.g08.bks.cpg/sg72_10_cif.got.tgz:19718.got - 2010.06.03 17:03:01.
