data_PCOD9529509
_publ_section_title
;
Structure prediction by ZEFSAII (Michael W. Deem and Ramdas Pophale) SiO2 
 PCOD9529509
Probable space group: I B A M
;
_chemical_formula_sum "Si O2"
_cell_formula_units_Z 58
_cell_length_a 27.000000
_cell_length_b 24.000000
_cell_length_c 9.000000
_cell_angle_alpha 90.000000
_cell_angle_beta 90.000000
_cell_angle_gamma 90.000000
_cell_volume 5832.000000
_symmetry_space_group_name_H-M "I B A M"
_symmetry_group_IT_number 72
_symmetry_cell_setting 'orthorhombic'
loop_
_space_group_symop_operation_xyz
x,y,z
-x,-y,z
x,-y,1/2-z
-x,y,1/2-z
-x,-y,-z
x,y,-z
-x,y,1/2+z
x,-y,1/2+z
1/2+x,1/2+y,1/2+z
1/2-x,1/2-y,1/2+z
1/2+x,1/2-y,-z
1/2-x,1/2+y,-z
1/2-x,1/2-y,1/2-z
1/2+x,1/2+y,1/2-z
1/2-x,1/2+y,z
1/2+x,1/2-y,z
loop_
_atom_site_type_symbol
_atom_site_label
_atom_site_fract_x
_atom_site_fract_y
_atom_site_fract_z
Si Si1 0.000000 0.000000 0.250000
Si Si2 0.149787 0.254512 0.821702
Si Si3 0.077833 0.095410 0.335419
Si Si4 0.255858 0.057560 0.323390
Si Si5 0.174495 0.868653 0.323139
Si Si6 0.150769 0.623202 0.319645
Si Si7 0.950770 0.223517 0.171027
Si Si8 0.447600 0.939150 0.179959
O O1 0.961057 0.044627 0.178917
O O2 0.174445 0.196399 0.776075
O O3 0.166611 0.315158 0.767769
O O4 0.094439 0.246952 0.763836
O O5 0.150821 0.254870 0.000000
O O6 0.100755 0.091499 0.500000
O O7 0.122265 0.101284 0.217688
O O8 0.051391 0.155732 0.326255
O O9 0.255768 0.052673 0.500000
O O10 0.216908 0.102289 0.268596
O O11 0.309833 0.077462 0.270742
O O12 0.241902 0.000000 0.250000
O O13 0.181871 0.872292 0.500000
O O14 0.152202 0.624332 0.500000
O O15 0.095792 0.603899 0.279487
O O16 0.000000 0.242608 0.250000
O O17 0.947746 0.240441 0.000000
O O18 0.500000 0.922084 0.250000
O O19 0.436201 0.000000 0.250000
O O20 0.450816 0.943566 0.000000
#
# Coordination Sequence:
#
# PCOD9529509 Si02
#       8
#     4  16  16  16  16  16  16  16
#     4  12  22  36  56  86 114 152 200 246 294 340
#     4   9  19  38  60  83 113 150 191 236 290 350
#     4  10  22  37  55  80 113 151 194 243 292 345
#     4  11  23  41  64  88 117 153 193 239 292 346
#     4  10  22  40  62  86 116 153 194 242 294 349
#     4   9  20  38  61  88 118 152 191 238 289 344
#     4  10  19  34  53  77 109 149 192 237 290 341
#     4  10  19  34  56  84 119 156 193 234 285 343
#
# _framework density 9.9451300000000007
#
# number of rings (size 3 to 8) (size 9 to 14) (size 15 to 20)
#    0.000    2.069    0.690    2.690    0.966    3.310 
#    0.000    6.207    0.000    0.000    0.000    0.000 
#    0.000    0.000    0.000    0.000    0.000    0.000 
#
# Total GULP energy -323293.047920 kJ/mol
# GULP energy per Si atom -5574.018068 kJ/mol
# Density = 0.992249 g / cm^3
# Si number density = 9.945130 Si / 1000 Ang^3
#
#
#
# Elastic Constant Matrix: (Units=GPa)
#
#
# Indices 1 2 3 4 5 6 
#
# 1 51.2677 12.8853 20.7510 0.0000 0.0000 0.0000
# 2 12.8853 30.9415 23.2870 0.0000 0.0000 0.0000
# 3 20.7510 23.2870 21.7286 0.0000 0.0000 0.0000
# 4 0.0000 0.0000 0.0000 56.6385 0.0000 0.0000
# 5 0.0000 0.0000 0.0000 0.0000 22.2932 0.0000
# 6 0.0000 0.0000 0.0000 0.0000 0.0000 10.3737
#
#
#
# Elastic Compliance Matrix: (Units=1/GPa)
#
#
# Indices 1 2 3 4 5 6 
#
# 1 0.059421 0.092880 -0.156289 0.000000 0.000000 0.000000
# 2 0.092880 0.312284 -0.423383 0.000000 0.000000 0.000000
# 3 -0.156289 -0.423383 0.649027 0.000000 0.000000 0.000000
# 4 0.000000 0.000000 0.000000 0.017656 0.000000 0.000000
# 5 0.000000 0.000000 0.000000 0.000000 0.044857 0.000000
# 6 0.000000 0.000000 0.000000 0.000000 0.000000 0.096397
#
#
# Mechanical properties :
#
#
# Convention : Reuss Voigt Hill
#
# Bulk Modulus (GPa) = 21.20918 24.19827 22.70372
# Shear Modulus (GPa) = 2.30527 20.99539 11.65033
#
# Velocity S-wave (km/s) = 1.07773 3.25246 2.42281
# Velocity P-wave (km/s) = 3.49785 5.12806 4.38930
#
# Compressibility (1/GPa) = 0.04714940
#
# Stress axis : x y z
#
# Youngs Moduli (GPa) = 16.82914 3.20221 1.54077
#
# Poissons Ratio (x) = -0.29742 0.24080
# Poissons Ratio (y) = -1.56309 0.65233
# Poissons Ratio (z) = 2.63021 1.35576
#
# Static dielectric constant tensor:
#      x y z
#    x 1.691590 0.000000 0.000000 
#    y 0.000000 1.721720 0.000000 
#    z 0.000000 0.000000 1.668790 
# 
# From -- ./inp_files/8444.got.cif
#   From: 2010.05.17/outbox.ucp.g08.bks.cvg/sg72_5_cif.got.tgz:8444.got - 2010.06.11 16:33:07.
