data_PCOD9529168
_publ_section_title
;
Structure prediction by ZEFSAII (Michael W. Deem and Ramdas Pophale) SiO2 
 PCOD9529168
Probable space group: I B A M
;
_chemical_formula_sum "Si O2"
_cell_formula_units_Z 96
_cell_length_a 16.771389
_cell_length_b 16.910449
_cell_length_c 14.817972
_cell_angle_alpha 90.000000
_cell_angle_beta 90.000000
_cell_angle_gamma 90.000000
_cell_volume 4202.550501
_symmetry_space_group_name_H-M "I B A M"
_symmetry_group_IT_number 72
_symmetry_cell_setting 'orthorhombic'
loop_
_space_group_symop_operation_xyz
x,y,z
-x,-y,z
x,-y,1/2-z
-x,y,1/2-z
-x,-y,-z
x,y,-z
-x,y,1/2+z
x,-y,1/2+z
1/2+x,1/2+y,1/2+z
1/2-x,1/2-y,1/2+z
1/2+x,1/2-y,-z
1/2-x,1/2+y,-z
1/2-x,1/2-y,1/2-z
1/2+x,1/2+y,1/2-z
1/2-x,1/2+y,z
1/2+x,1/2-y,z
loop_
_atom_site_type_symbol
_atom_site_label
_atom_site_fract_x
_atom_site_fract_y
_atom_site_fract_z
Si Si1 0.918536 0.847725 0.234356
Si Si2 0.854981 0.582083 0.859218
Si Si3 0.879362 0.406749 0.144511
Si Si4 0.203735 0.828301 0.893840
Si Si5 0.286075 0.664490 0.101345
Si Si6 0.977477 0.288506 0.401346
O O1 0.872462 0.829902 0.327994
O O2 0.848078 0.876134 0.168616
O O3 0.000000 0.895947 0.250000
O O4 0.952503 0.773650 0.175163
O O5 0.891550 0.497293 0.883933
O O6 0.867662 0.592474 0.752221
O O7 0.761864 0.596277 0.880416
O O8 0.904619 0.650584 0.905441
O O9 0.796440 0.381413 0.101654
O O10 0.947060 0.343674 0.121638
O O11 0.258398 0.752287 0.867503
O O12 0.183813 0.820122 0.000000
O O13 0.318423 0.670600 0.000000
O O14 0.990387 0.251676 0.500000
#
# Coordination Sequence:
#
# PCOD9529168 Si02
#       6
#    16  16  16  16  16  16
#     4  12  24  40  64  90 128 171 216 278 333 388
#     4  11  22  41  64  94 134 183 224 268 334 399
#     4  11  24  40  65  96 135 179 223 271 330 408
#     4  11  23  41  67  94 128 175 229 279 332 398
#     4  11  22  39  62  91 126 170 219 270 328 393
#     4  12  24  38  60  98 141 180 218 262 325 404
#
# _framework density 22.84327
#
# number of rings (size 3 to 8) (size 9 to 14) (size 15 to 20)
#    0.000    0.667    3.333    6.000    0.000    7.333 
#    0.000    0.000    0.000    2.000    0.000    2.333 
#    0.000    0.000    0.000    0.000    0.000    0.000 
#
# Total GULP energy -268403.162968 kJ/mol
# GULP energy per Si atom -5591.732562 kJ/mol
# Density = 2.279128 g / cm^3
# Si number density = 22.843270 Si / 1000 Ang^3
#
#
#
# Elastic Constant Matrix: (Units=GPa)
#
#
# Indices 1 2 3 4 5 6 
#
# 1 155.4500 2.3940 42.5583 0.0000 0.0000 0.0000
# 2 2.3940 30.8195 0.6866 0.0000 0.0000 0.0000
# 3 42.5583 0.6866 138.6284 0.0000 0.0000 0.0000
# 4 0.0000 0.0000 0.0000 3.6650 0.0000 0.0000
# 5 0.0000 0.0000 0.0000 0.0000 -11.7727 0.0000
# 6 0.0000 0.0000 0.0000 0.0000 0.0000 14.2402
#
#
#
# Elastic Compliance Matrix: (Units=1/GPa)
#
#
# Indices 1 2 3 4 5 6 
#
# 1 0.007031 -0.000498 -0.002156 0.000000 0.000000 0.000000
# 2 -0.000498 0.032486 -0.000008 0.000000 0.000000 0.000000
# 3 -0.002156 -0.000008 0.007875 0.000000 0.000000 0.000000
# 4 0.000000 0.000000 0.000000 0.272848 0.000000 0.000000
# 5 0.000000 0.000000 0.000000 0.000000 -0.084942 0.000000
# 6 0.000000 0.000000 0.000000 0.000000 0.000000 0.070224
#
#
# Mechanical properties :
#
#
# Convention : Reuss Voigt Hill
#
# Bulk Modulus (GPa) = 23.77100 46.24173 35.00637
# Shear Modulus (GPa) = 15.39082 19.84376 17.61729
#
# Velocity S-wave (km/s) = 2.59850 2.95056 2.78011
# Velocity P-wave (km/s) = 4.40813 5.64754 5.06588
#
# Compressibility (1/GPa) = 0.04206807
#
# Stress axis : x y z
#
# Youngs Moduli (GPa) = 142.23017 30.78259 126.97701
#
# Poissons Ratio (x) = 0.01533 0.27376
# Poissons Ratio (y) = 0.07085 0.00101
# Poissons Ratio (z) = 0.30664 0.00025
#
# Static dielectric constant tensor:
#      x y z
#    x 1.873960 0.000000 0.000000 
#    y 0.000000 1.877210 0.000000 
#    z 0.000000 0.000000 1.888400 
# 
# From -- ./inp_files/21767.got.cif
#   From: 2010.05.17/outbox.cif.g08.bks.cpg/sg72_11_cif.got.tgz:21767.got - 2010.06.03 17:03:01.
