data_PCOD9529339
_publ_section_title
;
Structure prediction by ZEFSAII (Michael W. Deem and Ramdas Pophale) SiO2 
 PCOD9529339
Probable space group: I B A M
;
_chemical_formula_sum "Si O2"
_cell_formula_units_Z 68
_cell_length_a 19.112303
_cell_length_b 11.852282
_cell_length_c 14.892272
_cell_angle_alpha 90.000000
_cell_angle_beta 90.000000
_cell_angle_gamma 90.000000
_cell_volume 3373.463051
_symmetry_space_group_name_H-M "I B A M"
_symmetry_group_IT_number 72
_symmetry_cell_setting 'orthorhombic'
loop_
_space_group_symop_operation_xyz
x,y,z
-x,-y,z
x,-y,1/2-z
-x,y,1/2-z
-x,-y,-z
x,y,-z
-x,y,1/2+z
x,-y,1/2+z
1/2+x,1/2+y,1/2+z
1/2-x,1/2-y,1/2+z
1/2+x,1/2-y,-z
1/2-x,1/2+y,-z
1/2-x,1/2-y,1/2-z
1/2+x,1/2+y,1/2-z
1/2-x,1/2+y,z
1/2+x,1/2-y,z
loop_
_atom_site_type_symbol
_atom_site_label
_atom_site_fract_x
_atom_site_fract_y
_atom_site_fract_z
Si Si1 0.162051 0.274707 0.103091
Si Si2 0.105401 0.479858 0.352604
Si Si3 0.000000 0.500000 0.000000
Si Si4 0.417820 0.634748 0.746689
Si Si5 0.322814 0.241496 0.107257
O O1 0.129973 0.399936 0.108983
O O2 0.120739 0.193779 0.169853
O O3 0.243752 0.279115 0.128213
O O4 0.156630 0.235614 0.000000
O O5 0.084282 0.500000 0.250000
O O6 0.165621 0.386057 0.357759
O O7 0.045709 0.438027 0.420059
O O8 0.411087 0.500000 0.750000
O O9 0.500000 0.664148 0.750000
O O10 0.379383 0.683170 0.658856
O O11 0.331221 0.245553 0.000000
#
# Coordination Sequence:
#
# PCOD9529339 Si02
#       5
#    16  16   4  16  16
#     4  11  25  44  70  99 135 176 222 279 334 401
#     4  12  25  41  71 106 131 178 221 275 348 390
#     4  12  26  44  64 106 146 164 224 292 316 432
#     4  11  27  45  67  99 132 178 228 270 331 404
#     4  11  25  44  70  99 135 176 222 279 334 401
#
# _framework density 20.157326999999999
#
# number of rings (size 3 to 8) (size 9 to 14) (size 15 to 20)
#    0.000    0.706    4.706    1.059    6.588    1.882 
#    0.000    2.353    0.000    0.000    0.000    0.000 
#    0.000    0.000    0.000    0.000    0.000    0.000 
#
# Total GULP energy -189602.687218 kJ/mol
# GULP energy per Si atom -5576.549624 kJ/mol
# Density = 2.011145 g / cm^3
# Si number density = 20.157327 Si / 1000 Ang^3
#
#
#
# Elastic Constant Matrix: (Units=GPa)
#
#
# Indices 1 2 3 4 5 6 
#
# 1 111.5603 37.0423 58.2786 0.0000 0.0000 0.0000
# 2 37.0423 74.5798 26.8621 0.0000 0.0000 0.0000
# 3 58.2786 26.8621 162.7823 0.0000 0.0000 0.0000
# 4 0.0000 0.0000 0.0000 4.5948 0.0000 0.0000
# 5 0.0000 0.0000 0.0000 0.0000 32.9530 0.0000
# 6 0.0000 0.0000 0.0000 0.0000 0.0000 16.2404
#
#
#
# Elastic Compliance Matrix: (Units=1/GPa)
#
#
# Indices 1 2 3 4 5 6 
#
# 1 0.012504 -0.004889 -0.003670 0.000000 0.000000 0.000000
# 2 -0.004889 0.016167 -0.000918 0.000000 0.000000 0.000000
# 3 -0.003670 -0.000918 0.007609 0.000000 0.000000 0.000000
# 4 0.000000 0.000000 0.000000 0.217637 0.000000 0.000000
# 5 0.000000 0.000000 0.000000 0.000000 0.030346 0.000000
# 6 0.000000 0.000000 0.000000 0.000000 0.000000 0.061575
#
#
# Mechanical properties :
#
#
# Convention : Reuss Voigt Hill
#
# Bulk Modulus (GPa) = 57.71291 65.92092 61.81692
# Shear Modulus (GPa) = 13.49287 25.87358 19.68322
#
# Velocity S-wave (km/s) = 2.59004 3.58660 3.12826
# Velocity P-wave (km/s) = 6.13497 7.06582 6.61678
#
# Compressibility (1/GPa) = 0.01732715
#
# Stress axis : x y z
#
# Youngs Moduli (GPa) = 79.97324 61.85397 131.43187
#
# Poissons Ratio (x) = 0.30239 0.48235
# Poissons Ratio (y) = 0.39097 0.12061
# Poissons Ratio (z) = 0.29350 0.05676
#
# Static dielectric constant tensor:
#      x y z
#    x 1.772790 0.000000 0.000000 
#    y 0.000000 1.710480 0.000000 
#    z 0.000000 0.000000 1.710460 
# 
# From -- ./inp_files/19939.got.cif
#   From: 2010.05.17/outbox.cif.g08.bks.cpg/sg72_10_cif.got.tgz:19939.got - 2010.06.03 17:03:01.
