data_PCOD9529503
_publ_section_title
;
Structure prediction by ZEFSAII (Michael W. Deem and Ramdas Pophale) SiO2 
 PCOD9529503
Probable space group: I B A M
;
_chemical_formula_sum "Si O2"
_cell_formula_units_Z 64
_cell_length_a 21.000000
_cell_length_b 21.000000
_cell_length_c 18.000000
_cell_angle_alpha 90.000000
_cell_angle_beta 90.000000
_cell_angle_gamma 90.000000
_cell_volume 7938.000000
_symmetry_space_group_name_H-M "I B A M"
_symmetry_group_IT_number 72
_symmetry_cell_setting 'orthorhombic'
loop_
_space_group_symop_operation_xyz
x,y,z
-x,-y,z
x,-y,1/2-z
-x,y,1/2-z
-x,-y,-z
x,y,-z
-x,y,1/2+z
x,-y,1/2+z
1/2+x,1/2+y,1/2+z
1/2-x,1/2-y,1/2+z
1/2+x,1/2-y,-z
1/2-x,1/2+y,-z
1/2-x,1/2-y,1/2-z
1/2+x,1/2+y,1/2-z
1/2-x,1/2+y,z
1/2+x,1/2-y,z
loop_
_atom_site_type_symbol
_atom_site_label
_atom_site_fract_x
_atom_site_fract_y
_atom_site_fract_z
Si Si1 0.345289 0.781309 0.415756
Si Si2 0.552352 0.831495 0.306770
Si Si3 0.951724 0.384893 0.085474
Si Si4 0.346544 0.773364 0.086529
Si Si5 0.271580 0.301829 0.812783
Si Si6 0.716740 0.637869 0.417911
Si Si7 0.121916 0.563145 0.210280
Si Si8 0.773955 0.068637 0.275770
O O1 0.337464 0.756602 0.500000
O O2 0.411324 0.818815 0.411366
O O3 0.332275 0.728216 0.354542
O O4 0.287426 0.832061 0.404976
O O5 0.500000 0.802477 0.250000
O O6 0.513462 0.876085 0.363988
O O7 0.594535 0.786951 0.359180
O O8 0.597049 0.875221 0.254983
O O9 0.905716 0.433897 0.127496
O O10 0.964439 0.399922 0.000000
O O11 0.285081 0.805410 0.126211
O O12 0.329011 0.698911 0.085402
O O13 0.355494 0.793364 0.000000
O O14 0.250000 0.250000 0.750000
O O15 0.283896 0.370430 0.777308
O O16 0.716312 0.610235 0.500000
O O17 0.699496 0.588468 0.355323
O O18 0.097323 0.500000 0.250000
O O19 0.197701 0.563019 0.213533
O O20 0.797633 0.000000 0.250000
#
# Coordination Sequence:
#
# PCOD9529503 Si02
#       8
#    16  16  16  16  16  16  16  16
#     4   9  17  29  48  72  90 116 158 197 240 290
#     4  10  21  31  47  68  94 124 159 205 253 281
#     4  10  19  32  49  66  90 120 156 205 245 282
#     4  10  19  32  49  72  96 124 163 204 247 297
#     4  11  17  29  53  71  93 124 165 199 242 298
#     4   9  17  31  51  69  92 126 160 195 241 302
#     4  10  20  34  46  59  87 128 170 203 236 280
#     4  11  20  30  48  74  99 126 163 204 245 283
#
# _framework density 8.0624839999999995
#
# number of rings (size 3 to 8) (size 9 to 14) (size 15 to 20)
#    0.000    2.000    5.000    1.500    1.750    2.250 
#    0.000    3.125    0.000    0.000    0.000    0.000 
#    0.000    4.500    0.000   14.000    0.000    0.000 
#
# Total GULP energy -356528.687260 kJ/mol
# GULP energy per Si atom -5570.760738 kJ/mol
# Density = 0.804413 g / cm^3
# Si number density = 8.062484 Si / 1000 Ang^3
#
#
#
# Elastic Constant Matrix: (Units=GPa)
#
#
# Indices 1 2 3 4 5 6 
#
# 1 10.3293 -10.1480 -2.0795 0.0000 0.0000 0.0000
# 2 -10.1480 68.7966 39.1412 0.0000 0.0000 0.0000
# 3 -2.0795 39.1412 117.0009 0.0000 0.0000 0.0000
# 4 0.0000 0.0000 0.0000 19.4106 0.0000 0.0000
# 5 0.0000 0.0000 0.0000 0.0000 19.4226 0.0000
# 6 0.0000 0.0000 0.0000 0.0000 0.0000 7.1506
#
#
#
# Elastic Compliance Matrix: (Units=1/GPa)
#
#
# Indices 1 2 3 4 5 6 
#
# 1 0.115096 0.019531 -0.004488 0.000000 0.000000 0.000000
# 2 0.019531 0.021267 -0.006767 0.000000 0.000000 0.000000
# 3 -0.004488 -0.006767 0.010731 0.000000 0.000000 0.000000
# 4 0.000000 0.000000 0.000000 0.051518 0.000000 0.000000
# 5 0.000000 0.000000 0.000000 0.000000 0.051486 0.000000
# 6 0.000000 0.000000 0.000000 0.000000 0.000000 0.139848
#
#
# Mechanical properties :
#
#
# Convention : Reuss Voigt Hill
#
# Bulk Modulus (GPa) = 6.11078 27.77269 16.94173
# Shear Modulus (GPa) = 11.68375 20.47764 16.08070
#
# Velocity S-wave (km/s) = 2.69471 3.56748 3.16136
# Velocity P-wave (km/s) = 3.67149 5.85064 4.88415
#
# Compressibility (1/GPa) = 0.16364530
#
# Stress axis : x y z
#
# Youngs Moduli (GPa) = 8.68837 47.02151 93.18685
#
# Poissons Ratio (x) = -0.91839 0.41825
# Poissons Ratio (y) = -0.16969 0.63064
# Poissons Ratio (z) = 0.03900 0.31821
#
# Static dielectric constant tensor:
#      x y z
#    x 1.554530 0.000000 0.000000 
#    y 0.000000 1.542710 0.000000 
#    z 0.000000 0.000000 1.586720 
# 
# From -- ./inp_files/32925.got.cif
#   From: 2010.05.17/outbox.ucp.g08.bks.cvg/sg72_17_cif.got.tgz:32925.got - 2010.06.11 16:33:07.
