data_PCOD9529446
_publ_section_title
;
Structure prediction by ZEFSAII (Michael W. Deem and Ramdas Pophale) SiO2 
 PCOD9529446
Probable space group: I B A M
;
_chemical_formula_sum "Si O2"
_cell_formula_units_Z 68
_cell_length_a 13.162620
_cell_length_b 11.274244
_cell_length_c 17.285169
_cell_angle_alpha 90.000000
_cell_angle_beta 90.000000
_cell_angle_gamma 90.000000
_cell_volume 2565.094700
_symmetry_space_group_name_H-M "I B A M"
_symmetry_group_IT_number 72
_symmetry_cell_setting 'orthorhombic'
loop_
_space_group_symop_operation_xyz
x,y,z
-x,-y,z
x,-y,1/2-z
-x,y,1/2-z
-x,-y,-z
x,y,-z
-x,y,1/2+z
x,-y,1/2+z
1/2+x,1/2+y,1/2+z
1/2-x,1/2-y,1/2+z
1/2+x,1/2-y,-z
1/2-x,1/2+y,-z
1/2-x,1/2-y,1/2-z
1/2+x,1/2+y,1/2-z
1/2-x,1/2+y,z
1/2+x,1/2-y,z
loop_
_atom_site_type_symbol
_atom_site_label
_atom_site_fract_x
_atom_site_fract_y
_atom_site_fract_z
Si Si1 0.823538 0.847994 0.716894
Si Si2 0.500000 0.000000 0.250000
Si Si3 0.969952 0.325389 0.126073
Si Si4 0.712019 0.998268 0.416317
Si Si5 0.917868 0.106909 0.616165
O O1 0.750000 0.750000 0.750000
O O2 0.901561 0.776006 0.664945
O O3 0.887972 0.892429 0.791639
O O4 0.750942 0.926995 0.660597
O O5 0.464719 0.098549 0.312230
O O6 0.888887 0.419149 0.092025
O O7 0.046229 0.235392 0.086068
O O8 0.703378 0.934336 0.500000
O O9 0.810181 0.081452 0.421561
O O10 0.000000 0.000000 0.602630
#
# Coordination Sequence:
#
# PCOD9529446 Si02
#       5
#    16   4  16  16  16
#     4  12  24  47  79 111 145 206 269 329 380 463
#     4  12  24  44  76 128 146 200 270 342 404 452
#     4  12  26  44  78 111 158 199 262 335 394 466
#     4  12  30  49  73 115 165 208 254 323 412 485
#     4  12  26  48  80 114 148 205 282 331 378 464
#
# _framework density 26.509741000000002
#
# number of rings (size 3 to 8) (size 9 to 14) (size 15 to 20)
#    0.000    0.000    7.059    2.118    3.294    2.353 
#    0.000    0.588    0.000    0.000    0.000    0.000 
#    0.000    0.000    0.000    0.000    0.000    0.000 
#
# Total GULP energy -189288.926570 kJ/mol
# GULP energy per Si atom -5567.321370 kJ/mol
# Density = 2.644940 g / cm^3
# Si number density = 26.509741 Si / 1000 Ang^3
#
#
#
# Elastic Constant Matrix: (Units=GPa)
#
#
# Indices 1 2 3 4 5 6 
#
# 1 163.0312 56.7185 45.3905 0.0000 0.0000 0.0000
# 2 56.7185 146.3339 62.4173 0.0000 0.0000 0.0000
# 3 45.3905 62.4173 163.4313 0.0000 0.0000 0.0000
# 4 0.0000 0.0000 0.0000 11.1040 0.0000 0.0000
# 5 0.0000 0.0000 0.0000 0.0000 12.6401 0.0000
# 6 0.0000 0.0000 0.0000 0.0000 0.0000 66.0328
#
#
#
# Elastic Compliance Matrix: (Units=1/GPa)
#
#
# Indices 1 2 3 4 5 6 
#
# 1 0.007259 -0.002334 -0.001125 0.000000 0.000000 0.000000
# 2 -0.002334 0.008914 -0.002756 0.000000 0.000000 0.000000
# 3 -0.001125 -0.002756 0.007484 0.000000 0.000000 0.000000
# 4 0.000000 0.000000 0.000000 0.090058 0.000000 0.000000
# 5 0.000000 0.000000 0.000000 0.000000 0.079113 0.000000
# 6 0.000000 0.000000 0.000000 0.000000 0.000000 0.015144
#
#
# Mechanical properties :
#
#
# Convention : Reuss Voigt Hill
#
# Bulk Modulus (GPa) = 89.06985 89.09431 89.08208
# Shear Modulus (GPa) = 22.30719 38.50673 30.40696
#
# Velocity S-wave (km/s) = 2.90396 3.81537 3.39043
# Velocity P-wave (km/s) = 6.70193 7.28632 7.00023
#
# Compressibility (1/GPa) = 0.01122714
#
# Stress axis : x y z
#
# Youngs Moduli (GPa) = 137.76283 112.18464 133.62211
#
# Poissons Ratio (x) = 0.26181 0.15029
# Poissons Ratio (y) = 0.32151 0.36829
# Poissons Ratio (z) = 0.15495 0.30920
#
# Static dielectric constant tensor:
#      x y z
#    x 4.682240 0.000000 0.000000 
#    y 0.000000 2.113610 0.000000 
#    z 0.000000 0.000000 2.326500 
# 
# From -- ./inp_files/37772.got.cif
#   From: 2010.05.17/outbox.cif.g08.bks.cpg/sg72_19_cif.got.tgz:37772.got - 2010.06.03 17:03:01.
