data_PCOD9529354
_publ_section_title
;
Structure prediction by ZEFSAII (Michael W. Deem and Ramdas Pophale) SiO2 
 PCOD9529354
Probable space group: I B A M
;
_chemical_formula_sum "Si O2"
_cell_formula_units_Z 68
_cell_length_a 8.923559
_cell_length_b 14.585633
_cell_length_c 21.448309
_cell_angle_alpha 90.000000
_cell_angle_beta 90.000000
_cell_angle_gamma 90.000000
_cell_volume 2791.620886
_symmetry_space_group_name_H-M "I B A M"
_symmetry_group_IT_number 72
_symmetry_cell_setting 'orthorhombic'
loop_
_space_group_symop_operation_xyz
x,y,z
-x,-y,z
x,-y,1/2-z
-x,y,1/2-z
-x,-y,-z
x,y,-z
-x,y,1/2+z
x,-y,1/2+z
1/2+x,1/2+y,1/2+z
1/2-x,1/2-y,1/2+z
1/2+x,1/2-y,-z
1/2-x,1/2+y,-z
1/2-x,1/2-y,1/2-z
1/2+x,1/2+y,1/2-z
1/2-x,1/2+y,z
1/2+x,1/2-y,z
loop_
_atom_site_type_symbol
_atom_site_label
_atom_site_fract_x
_atom_site_fract_y
_atom_site_fract_z
Si Si1 0.500000 0.345519 0.250000
Si Si2 0.289926 0.051305 0.114648
Si Si3 0.000000 0.500000 0.000000
Si Si4 0.245875 0.500000 0.750000
Si Si5 0.420829 0.274570 0.379470
Si Si6 0.202785 0.867664 0.928904
O O1 0.642310 0.412683 0.259275
O O2 0.482853 0.282468 0.310025
O O3 0.402553 0.050175 0.056758
O O4 0.337508 0.025798 0.185576
O O5 0.204673 0.146952 0.115500
O O6 0.175773 0.967821 0.098524
O O7 0.340419 0.180149 0.394097
O O8 0.557037 0.304782 0.423639
O O9 0.253659 0.879965 0.000000
#
# Coordination Sequence:
#
# PCOD9529354 Si02
#       6
#     8  16   4   8  16  16
#     4   9  18  42  72 102 139 178 248 287 366 430
#     4  11  25  46  72  99 148 189 244 300 369 437
#     4  12  28  42  70 108 144 192 238 308 360 430
#     4   9  18  43  74 102 132 195 237 292 356 457
#     4  11  26  44  73 105 145 191 242 307 362 441
#     4  12  26  43  70 105 143 193 245 296 367 439
#
# _framework density 24.358609999999999
#
# number of rings (size 3 to 8) (size 9 to 14) (size 15 to 20)
#    0.000    1.176    3.529    1.412    6.588    2.353 
#    0.000    0.000    0.000    0.000    0.000    0.000 
#    0.000    0.000    0.000    0.000    0.000    0.000 
#
# Total GULP energy -189806.473457 kJ/mol
# GULP energy per Si atom -5582.543337 kJ/mol
# Density = 2.430317 g / cm^3
# Si number density = 24.358610 Si / 1000 Ang^3
#
#
#
# Elastic Constant Matrix: (Units=GPa)
#
#
# Indices 1 2 3 4 5 6 
#
# 1 59.3253 17.9215 28.5570 0.0000 0.0000 0.0000
# 2 17.9215 68.9920 31.3856 0.0000 0.0000 0.0000
# 3 28.5570 31.3856 217.7868 0.0000 0.0000 0.0000
# 4 0.0000 0.0000 0.0000 19.1968 0.0000 0.0000
# 5 0.0000 0.0000 0.0000 0.0000 259.2107 0.0000
# 6 0.0000 0.0000 0.0000 0.0000 0.0000 6.2705
#
#
#
# Elastic Compliance Matrix: (Units=1/GPa)
#
#
# Indices 1 2 3 4 5 6 
#
# 1 0.019003 -0.004069 -0.001905 0.000000 0.000000 0.000000
# 2 -0.004069 0.016383 -0.001827 0.000000 0.000000 0.000000
# 3 -0.001905 -0.001827 0.005105 0.000000 0.000000 0.000000
# 4 0.000000 0.000000 0.000000 0.052092 0.000000 0.000000
# 5 0.000000 0.000000 0.000000 0.000000 0.003858 0.000000
# 6 0.000000 0.000000 0.000000 0.000000 0.000000 0.159477
#
#
# Mechanical properties :
#
#
# Convention : Reuss Voigt Hill
#
# Bulk Modulus (GPa) = 40.18289 55.75915 47.97102
# Shear Modulus (GPa) = 17.86884 74.81827 46.34356
#
# Velocity S-wave (km/s) = 2.71140 5.54815 4.36656
# Velocity P-wave (km/s) = 5.13171 7.99896 6.72003
#
# Compressibility (1/GPa) = 0.02488621
#
# Stress axis : x y z
#
# Youngs Moduli (GPa) = 52.62424 61.03954 195.89361
#
# Poissons Ratio (x) = 0.24840 0.37323
# Poissons Ratio (y) = 0.21415 0.35797
# Poissons Ratio (z) = 0.10026 0.11154
#
# Static dielectric constant tensor:
#      x y z
#    x 2.128330 0.000000 0.000000 
#    y 0.000000 1.933380 0.000000 
#    z 0.000000 0.000000 1.918170 
# 
# From -- ./inp_files/35520.got.cif
#   From: 2010.05.17/outbox.cif.g08.bks.cpg/sg72_18_cif.got.tgz:35520.got - 2010.06.03 17:03:01.
