data_PCOD9529581
_publ_section_title
;
Structure prediction by ZEFSAII (Michael W. Deem and Ramdas Pophale) SiO2 
 PCOD9529581
Probable space group: I B A M
;
_chemical_formula_sum "Si O2"
_cell_formula_units_Z 58
_cell_length_a 24.000000
_cell_length_b 27.000000
_cell_length_c 9.000000
_cell_angle_alpha 90.000000
_cell_angle_beta 90.000000
_cell_angle_gamma 90.000000
_cell_volume 5832.000000
_symmetry_space_group_name_H-M "I B A M"
_symmetry_group_IT_number 72
_symmetry_cell_setting 'orthorhombic'
loop_
_space_group_symop_operation_xyz
x,y,z
-x,-y,z
x,-y,1/2-z
-x,y,1/2-z
-x,-y,-z
x,y,-z
-x,y,1/2+z
x,-y,1/2+z
1/2+x,1/2+y,1/2+z
1/2-x,1/2-y,1/2+z
1/2+x,1/2-y,-z
1/2-x,1/2+y,-z
1/2-x,1/2-y,1/2-z
1/2+x,1/2+y,1/2-z
1/2-x,1/2+y,z
1/2+x,1/2-y,z
loop_
_atom_site_type_symbol
_atom_site_label
_atom_site_fract_x
_atom_site_fract_y
_atom_site_fract_z
Si Si1 0.551071 0.671008 0.829291
Si Si2 0.337130 0.054662 0.179780
Si Si3 0.287712 0.290905 0.672085
Si Si4 0.000000 0.000000 0.750000
Si Si5 0.093817 0.734553 0.329226
Si Si6 0.438277 0.131507 0.178491
Si Si7 0.723544 0.399882 0.319037
Si Si8 0.104141 0.930452 0.825340
O O1 0.500000 0.645423 0.750000
O O2 0.559156 0.722288 0.747363
O O3 0.597782 0.629209 0.818503
O O4 0.540153 0.680684 0.000000
O O5 0.391834 0.088990 0.210590
O O6 0.281060 0.078674 0.251097
O O7 0.344319 0.000000 0.250000
O O8 0.330908 0.051740 0.000000
O O9 0.271804 0.299551 0.500000
O O10 0.250000 0.250000 0.750000
O O11 0.346554 0.262038 0.672394
O O12 0.284384 0.343796 0.755595
O O13 0.948056 0.042280 0.745132
O O14 0.077635 0.725789 0.500000
O O15 0.086484 0.683309 0.241817
O O16 0.500000 0.123383 0.250000
O O17 0.444382 0.134837 0.000000
O O18 0.726129 0.398245 0.500000
O O19 0.669288 0.434546 0.278828
O O20 0.098114 0.945129 0.000000
#
# Coordination Sequence:
#
# PCOD9529581 Si02
#       8
#    16  16  16   4  16  16  16  16
#     4  11  21  38  59  86 124 166 214 268 329 395
#     4  11  26  48  73 104 137 178 225 280 344 412
#     4  11  23  38  61  94 131 176 224 276 337 407
#     4  12  22  44  64  94 132 176 240 300 344 396
#     4  11  23  39  61  94 131 174 221 268 332 402
#     4  11  25  45  71 102 139 178 223 274 337 413
#     4  11  23  43  67  97 136 180 230 286 344 410
#     4  10  23  40  61  90 126 173 225 281 345 397
#
# _framework density 9.9451300000000007
#
# number of rings (size 3 to 8) (size 9 to 14) (size 15 to 20)
#    0.000    1.103    2.069    3.931    0.966    6.345 
#    0.000    3.448    0.000    0.000    0.000    0.000 
#    0.000    0.000    0.000    0.000    0.000    0.000 
#
# Total GULP energy -322921.675210 kJ/mol
# GULP energy per Si atom -5567.615090 kJ/mol
# Density = 0.992249 g / cm^3
# Si number density = 9.945130 Si / 1000 Ang^3
#
#
#
# Elastic Constant Matrix: (Units=GPa)
#
#
# Indices 1 2 3 4 5 6 
#
# 1 120.7477 68.5692 60.8642 0.0000 0.0000 0.0000
# 2 68.5692 153.1106 53.3570 0.0000 0.0000 0.0000
# 3 60.8642 53.3570 95.9773 0.0000 0.0000 0.0000
# 4 0.0000 0.0000 0.0000 25.4186 0.0000 0.0000
# 5 0.0000 0.0000 0.0000 0.0000 29.0732 0.0000
# 6 0.0000 0.0000 0.0000 0.0000 0.0000 31.8814
#
#
#
# Elastic Compliance Matrix: (Units=1/GPa)
#
#
# Indices 1 2 3 4 5 6 
#
# 1 0.013816 -0.003887 -0.006601 0.000000 0.000000 0.000000
# 2 -0.003887 0.009194 -0.002646 0.000000 0.000000 0.000000
# 3 -0.006601 -0.002646 0.016076 0.000000 0.000000 0.000000
# 4 0.000000 0.000000 0.000000 0.039341 0.000000 0.000000
# 5 0.000000 0.000000 0.000000 0.000000 0.034396 0.000000
# 6 0.000000 0.000000 0.000000 0.000000 0.000000 0.031366
#
#
# Mechanical properties :
#
#
# Convention : Reuss Voigt Hill
#
# Bulk Modulus (GPa) = 78.01300 81.71293 79.86296
# Shear Modulus (GPa) = 28.61538 29.74431 29.17984
#
# Velocity S-wave (km/s) = 3.79709 3.87126 3.83435
# Velocity P-wave (km/s) = 7.65053 7.82006 7.73576
#
# Compressibility (1/GPa) = 0.01281838
#
# Stress axis : x y z
#
# Youngs Moduli (GPa) = 72.37828 108.76283 62.20434
#
# Poissons Ratio (x) = 0.42279 0.41058
# Poissons Ratio (y) = 0.28136 0.16461
# Poissons Ratio (z) = 0.47774 0.28782
#
# Static dielectric constant tensor:
#      x y z
#    x 1.182560 0.000000 0.000000 
#    y 0.000000 1.672630 0.000000 
#    z 0.000000 0.000000 1.695140 
# 
# From -- ./inp_files/7301.got.cif
#   From: 2010.05.17/outbox.ucp.g08.bks.cvg/sg72_4_cif.got.tgz:7301.got - 2010.06.11 16:33:07.
