data_PCOD9529118
_publ_section_title
;
Structure prediction by ZEFSAII (Michael W. Deem and Ramdas Pophale) SiO2 
 PCOD9529118
Probable space group: I B A M
;
_chemical_formula_sum "Si O2"
_cell_formula_units_Z 52
_cell_length_a 13.563533
_cell_length_b 11.864803
_cell_length_c 14.952799
_cell_angle_alpha 90.000000
_cell_angle_beta 90.000000
_cell_angle_gamma 90.000000
_cell_volume 2406.333712
_symmetry_space_group_name_H-M "I B A M"
_symmetry_group_IT_number 72
_symmetry_cell_setting 'orthorhombic'
loop_
_space_group_symop_operation_xyz
x,y,z
-x,-y,z
x,-y,1/2-z
-x,y,1/2-z
-x,-y,-z
x,y,-z
-x,y,1/2+z
x,-y,1/2+z
1/2+x,1/2+y,1/2+z
1/2-x,1/2-y,1/2+z
1/2+x,1/2-y,-z
1/2-x,1/2+y,-z
1/2-x,1/2-y,1/2-z
1/2+x,1/2+y,1/2-z
1/2-x,1/2+y,z
1/2+x,1/2-y,z
loop_
_atom_site_type_symbol
_atom_site_label
_atom_site_fract_x
_atom_site_fract_y
_atom_site_fract_z
Si Si1 0.461802 0.616697 0.146800
Si Si2 0.535259 0.147008 0.398642
Si Si3 0.742993 0.125281 0.700806
Si Si4 0.000000 0.500000 0.250000
O O1 0.500000 0.500000 0.109111
O O2 0.500000 0.621869 0.250000
O O3 0.509184 0.723089 0.101237
O O4 0.344338 0.621326 0.145921
O O5 0.530652 0.107513 0.500000
O O6 0.643050 0.129052 0.356392
O O7 0.461700 0.088473 0.325766
O O8 0.750000 0.250000 0.750000
O O9 0.741687 0.000000 0.750000
#
# Coordination Sequence:
#
# PCOD9529118 Si02
#       4
#    16  16  16   4
#     4  11  21  43  73 101 140 190 233 288 366 431
#     4  12  26  43  71 107 139 184 244 297 359 438
#     4  12  22  42  72 100 141 193 237 292 364 430
#     4  12  22  48  66  94 146 184 226 298 372 402
#
# _framework density 21.609636999999999
#
# number of rings (size 3 to 8) (size 9 to 14) (size 15 to 20)
#    0.000    0.308    9.231    0.462    0.000    1.846 
#    0.000    4.615    0.000    0.000    0.000    0.000 
#    0.000    0.000    0.000    0.000    0.000    0.000 
#
# Total GULP energy -144790.747528 kJ/mol
# GULP energy per Si atom -5568.874905 kJ/mol
# Density = 2.156045 g / cm^3
# Si number density = 21.609637 Si / 1000 Ang^3
#
#
#
# Elastic Constant Matrix: (Units=GPa)
#
#
# Indices 1 2 3 4 5 6 
#
# 1 153.4969 66.1955 19.9799 0.0000 0.0000 0.0000
# 2 66.1955 226.0676 60.5123 0.0000 0.0000 0.0000
# 3 19.9799 60.5123 148.3004 0.0000 0.0000 0.0000
# 4 0.0000 0.0000 0.0000 -7.4299 0.0000 0.0000
# 5 0.0000 0.0000 0.0000 0.0000 -5.8284 0.0000
# 6 0.0000 0.0000 0.0000 0.0000 0.0000 46.2459
#
#
#
# Elastic Compliance Matrix: (Units=1/GPa)
#
#
# Indices 1 2 3 4 5 6 
#
# 1 0.007458 -0.002150 -0.000128 0.000000 0.000000 0.000000
# 2 -0.002150 0.005585 -0.001989 0.000000 0.000000 0.000000
# 3 -0.000128 -0.001989 0.007572 0.000000 0.000000 0.000000
# 4 0.000000 0.000000 0.000000 -0.134591 0.000000 0.000000
# 5 0.000000 0.000000 0.000000 0.000000 -0.171573 0.000000
# 6 0.000000 0.000000 0.000000 0.000000 0.000000 0.021624
#
#
# Mechanical properties :
#
#
# Convention : Reuss Voigt Hill
#
# Bulk Modulus (GPa) = 82.76624 91.24893 87.00758
# Shear Modulus (GPa) = -19.89148 32.00933 6.05892
#
# Velocity S-wave (km/s) = -3.03725 3.85288 1.67627
# Velocity P-wave (km/s) = 5.10724 7.88103 6.64058
#
# Compressibility (1/GPa) = 0.01208222
#
# Stress axis : x y z
#
# Youngs Moduli (GPa) = 134.07534 179.03627 132.06471
#
# Poissons Ratio (x) = 0.38489 0.01686
# Poissons Ratio (y) = 0.28823 0.26274
# Poissons Ratio (z) = 0.01712 0.35618
#
# Static dielectric constant tensor:
#      x y z
#    x 1.853960 0.000000 0.000000 
#    y 0.000000 1.940670 0.000000 
#    z 0.000000 0.000000 1.821610 
# 
# From -- ./inp_files/19393.got.cif
#   From: 2010.05.17/outbox.cif.g08.bks.cpg/sg72_10_cif.got.tgz:19393.got - 2010.06.03 17:03:01.
