data_PCOD9529773
_publ_section_title
;
Structure prediction by ZEFSAII (Michael W. Deem and Ramdas Pophale) SiO2 
 PCOD9529773
Probable space group: I B C A 
;
_chemical_formula_sum "Si O2"
_cell_formula_units_Z 120
_cell_length_a 20.993865
_cell_length_b 23.972764
_cell_length_c 12.852030
_cell_angle_alpha 90.000000
_cell_angle_beta 90.000000
_cell_angle_gamma 90.000000
_cell_volume 6468.182139
_symmetry_space_group_name_H-M "I B C A "
_symmetry_group_IT_number 73
_symmetry_cell_setting 'orthorhombic'
loop_
_space_group_symop_operation_xyz
x,y,z
-x,1/2-y,z
x,-y,1/2-z
1/2-x,y,-z
-x,-y,-z
x,1/2+y,-z
-x,y,1/2+z
1/2+x,-y,z
1/2+x,1/2+y,1/2+z
1/2-x,-y,1/2+z
1/2+x,1/2-y,-z
-x,1/2+y,1/2-z
1/2-x,1/2-y,1/2-z
1/2+x,y,1/2-z
1/2-x,1/2+y,z
x,1/2-y,1/2+z
loop_
_atom_site_type_symbol
_atom_site_label
_atom_site_fract_x
_atom_site_fract_y
_atom_site_fract_z
Si Si1 0.668036 0.295382 0.469502
Si Si2 0.042065 0.641372 0.403730
Si Si3 0.000000 0.250000 0.718187
Si Si4 0.694621 0.830208 0.090036
Si Si5 0.121356 0.733097 0.155845
Si Si6 0.886004 0.934138 0.238759
Si Si7 0.580615 0.126824 0.528870
Si Si8 0.282948 0.348022 0.779675
O O1 0.604057 0.331626 0.457216
O O2 0.671467 0.234018 0.414886
O O3 0.664448 0.274518 0.588681
O O4 0.718313 0.331016 0.400817
O O5 0.066174 0.596947 0.318781
O O6 0.011405 0.694784 0.347670
O O7 0.988530 0.617996 0.480404
O O8 0.063712 0.260786 0.783789
O O9 0.723115 0.842950 0.203264
O O10 0.750000 0.835007 0.000000
O O11 0.636903 0.870251 0.056504
O O12 0.086393 0.688443 0.080369
O O13 0.165979 0.695458 0.228804
O O14 0.903525 0.915271 0.121912
O O15 0.816934 0.907638 0.265306
O O16 0.387599 0.000000 0.250000
#
# Coordination Sequence:
#
# PCOD9529773 Si02
#       8
#    16  16   8  16  16  16  16  16
#     4  10  19  31  50  76 116 151 176 223 285 349
#     4  11  22  34  52  85 113 148 193 230 296 357
#     4  12  16  30  50  76 118 150 184 234 290 360
#     4  11  18  33  55  80 115 146 186 227 283 358
#     4  10  18  28  47  74 111 147 179 220 274 351
#     4  10  21  39  58  79 107 147 202 251 290 347
#     4  10  20  36  55  83 110 149 192 243 285 350
#     4  10  19  36  51  83 108 147 196 229 284 354
#
# _framework density 18.552354999999999
#
# number of rings (size 3 to 8) (size 9 to 14) (size 15 to 20)
#    0.000    1.600    8.000    2.800    0.000    0.533 
#    0.000    0.000    0.000    0.800   13.867    0.000 
#    0.000    0.000    0.000    0.000    0.000    0.000 
#
# Total GULP energy -334582.934521 kJ/mol
# GULP energy per Si atom -5576.382242 kJ/mol
# Density = 1.851013 g / cm^3
# Si number density = 18.552355 Si / 1000 Ang^3
#
#
#
# Elastic Constant Matrix: (Units=GPa)
#
#
# Indices 1 2 3 4 5 6 
#
# 1 66.5384 19.6801 13.3952 0.0000 0.0000 0.0000
# 2 19.6801 104.0585 28.4032 0.0000 0.0000 0.0000
# 3 13.3952 28.4032 69.4036 0.0000 0.0000 0.0000
# 4 0.0000 0.0000 0.0000 4.8675 0.0000 0.0000
# 5 0.0000 0.0000 0.0000 0.0000 31.7070 0.0000
# 6 0.0000 0.0000 0.0000 0.0000 0.0000 10.2551
#
#
#
# Elastic Compliance Matrix: (Units=1/GPa)
#
#
# Indices 1 2 3 4 5 6 
#
# 1 0.016189 -0.002487 -0.002107 0.000000 0.000000 0.000000
# 2 -0.002487 0.011200 -0.004104 0.000000 0.000000 0.000000
# 3 -0.002107 -0.004104 0.016495 0.000000 0.000000 0.000000
# 4 0.000000 0.000000 0.000000 0.205444 0.000000 0.000000
# 5 0.000000 0.000000 0.000000 0.000000 0.031539 0.000000
# 6 0.000000 0.000000 0.000000 0.000000 0.000000 0.097512
#
#
# Mechanical properties :
#
#
# Convention : Reuss Voigt Hill
#
# Bulk Modulus (GPa) = 37.75147 40.32862 39.04004
# Shear Modulus (GPa) = 12.35779 21.26739 16.81259
#
# Velocity S-wave (km/s) = 2.58370 3.38944 3.01362
# Velocity P-wave (km/s) = 5.41234 6.09120 5.76178
#
# Compressibility (1/GPa) = 0.02648904
#
# Stress axis : x y z
#
# Youngs Moduli (GPa) = 61.77220 89.28249 60.62596
#
# Poissons Ratio (x) = 0.22201 0.12773
# Poissons Ratio (y) = 0.15360 0.24880
# Poissons Ratio (z) = 0.13014 0.36640
#
# Static dielectric constant tensor:
#      x y z
#    x 1.750350 0.000000 0.000000 
#    y 0.000000 1.599760 0.000000 
#    z 0.000000 0.000000 1.714260 
# 
# From -- ./inp_files/18948.got.cif
#   From: 2010.05.17/outbox.cif.g08.bks.cpg/sg73_10_cif.got.tgz:18948.got - 2010.06.03 17:35:07.
