data_PCOD9529107
_publ_section_title
;
Structure prediction by ZEFSAII (Michael W. Deem and Ramdas Pophale) SiO2 
 PCOD9529107
Probable space group: I B A M
;
_chemical_formula_sum "Si O2"
_cell_formula_units_Z 112
_cell_length_a 15.443176
_cell_length_b 11.212649
_cell_length_c 29.330853
_cell_angle_alpha 90.000000
_cell_angle_beta 90.000000
_cell_angle_gamma 90.000000
_cell_volume 5078.898592
_symmetry_space_group_name_H-M "I B A M"
_symmetry_group_IT_number 72
_symmetry_cell_setting 'orthorhombic'
loop_
_space_group_symop_operation_xyz
x,y,z
-x,-y,z
x,-y,1/2-z
-x,y,1/2-z
-x,-y,-z
x,y,-z
-x,y,1/2+z
x,-y,1/2+z
1/2+x,1/2+y,1/2+z
1/2-x,1/2-y,1/2+z
1/2+x,1/2-y,-z
1/2-x,1/2+y,-z
1/2-x,1/2-y,1/2-z
1/2+x,1/2+y,1/2-z
1/2-x,1/2+y,z
1/2+x,1/2-y,z
loop_
_atom_site_type_symbol
_atom_site_label
_atom_site_fract_x
_atom_site_fract_y
_atom_site_fract_z
Si Si1 0.676745 0.050612 0.791604
Si Si2 0.849135 0.016370 0.553284
Si Si3 0.716804 0.314914 0.812645
Si Si4 0.088648 0.569174 0.610716
Si Si5 0.164495 0.609121 0.050619
Si Si6 0.638696 0.303905 0.379013
Si Si7 0.553718 0.659845 0.377086
O O1 0.692125 0.193683 0.784431
O O2 0.641495 0.045755 0.842938
O O3 0.618715 0.000000 0.750000
O O4 0.748123 0.941106 0.792331
O O5 0.862367 0.982488 0.500000
O O6 0.768239 0.107670 0.554154
O O7 0.928142 0.080353 0.578590
O O8 0.826444 0.908400 0.587974
O O9 0.792306 0.253634 0.844211
O O10 0.630626 0.356329 0.840200
O O11 0.135834 0.521313 0.566084
O O12 0.070277 0.706519 0.607413
O O13 0.000000 0.500000 0.615940
O O14 0.122039 0.697443 0.085981
O O15 0.137607 0.638004 0.000000
O O16 0.545656 0.347407 0.359607
#
# Coordination Sequence:
#
# PCOD9529107 Si02
#       7
#    16  16  16  16  16  16  16
#     4  11  23  40  67  97 128 171 219 271 335 399
#     4  11  24  39  57  87 126 169 221 273 318 382
#     4  11  22  42  67  94 132 168 217 271 329 397
#     4  11  21  41  60  90 125 164 216 269 329 381
#     4  11  23  39  60  87 124 169 215 261 318 375
#     4  12  22  41  64  88 124 171 215 260 328 381
#     4  11  22  38  64  88 121 168 214 262 323 390
#
# _framework density 22.052026000000001
#
# number of rings (size 3 to 8) (size 9 to 14) (size 15 to 20)
#    0.000    0.857    4.286    3.857    0.000    2.857 
#    0.000    0.000    0.000    3.429    0.000    0.000 
#    0.000    0.000    0.000    0.000    0.000    0.000 
#
# Total GULP energy -312056.204593 kJ/mol
# GULP energy per Si atom -5572.432225 kJ/mol
# Density = 2.200183 g / cm^3
# Si number density = 22.052026 Si / 1000 Ang^3
#
#
#
# Elastic Constant Matrix: (Units=GPa)
#
#
# Indices 1 2 3 4 5 6 
#
# 1 74.1436 8.6159 18.7634 0.0000 0.0000 0.0000
# 2 8.6159 94.4128 20.6682 0.0000 0.0000 0.0000
# 3 18.7634 20.6682 53.2993 0.0000 0.0000 0.0000
# 4 0.0000 0.0000 0.0000 27.8846 0.0000 0.0000
# 5 0.0000 0.0000 0.0000 0.0000 -2.5314 0.0000
# 6 0.0000 0.0000 0.0000 0.0000 0.0000 31.5111
#
#
#
# Elastic Compliance Matrix: (Units=1/GPa)
#
#
# Indices 1 2 3 4 5 6 
#
# 1 0.014811 -0.000230 -0.005125 0.000000 0.000000 0.000000
# 2 -0.000230 0.011578 -0.004409 0.000000 0.000000 0.000000
# 3 -0.005125 -0.004409 0.022276 0.000000 0.000000 0.000000
# 4 0.000000 0.000000 0.000000 0.035862 0.000000 0.000000
# 5 0.000000 0.000000 0.000000 0.000000 -0.395043 0.000000
# 6 0.000000 0.000000 0.000000 0.000000 0.000000 0.031735
#
#
# Mechanical properties :
#
#
# Convention : Reuss Voigt Hill
#
# Bulk Modulus (GPa) = 34.31969 35.32785 34.82377
# Shear Modulus (GPa) = -20.03668 22.96008 1.46170
#
# Velocity S-wave (km/s) = -3.01759 3.23023 0.81503
# Velocity P-wave (km/s) = 1.85896 5.47426 4.08799
#
# Compressibility (1/GPa) = 0.02913779
#
# Stress axis : x y z
#
# Youngs Moduli (GPa) = 67.51732 86.37162 44.89185
#
# Poissons Ratio (x) = 0.01984 0.23007
# Poissons Ratio (y) = 0.01551 0.19792
# Poissons Ratio (z) = 0.34602 0.38079
#
# Static dielectric constant tensor:
#      x y z
#    x 1.868020 0.000000 0.000000 
#    y 0.000000 1.874190 0.000000 
#    z 0.000000 0.000000 1.841990 
# 
# From -- ./inp_files/51778.got.cif
#   From: 2010.05.17/outbox.cif.g08.bks.cpg/sg72_26_cif.got.tgz:51778.got - 2010.06.03 17:03:01.
