data_PCOD9529178
_publ_section_title
;
Structure prediction by ZEFSAII (Michael W. Deem and Ramdas Pophale) SiO2 
 PCOD9529178
Probable space group: I B A M
;
_chemical_formula_sum "Si O2"
_cell_formula_units_Z 52
_cell_length_a 8.327747
_cell_length_b 14.125419
_cell_length_c 19.016811
_cell_angle_alpha 90.000000
_cell_angle_beta 90.000000
_cell_angle_gamma 90.000000
_cell_volume 2237.002925
_symmetry_space_group_name_H-M "I B A M"
_symmetry_group_IT_number 72
_symmetry_cell_setting 'orthorhombic'
loop_
_space_group_symop_operation_xyz
x,y,z
-x,-y,z
x,-y,1/2-z
-x,y,1/2-z
-x,-y,-z
x,y,-z
-x,y,1/2+z
x,-y,1/2+z
1/2+x,1/2+y,1/2+z
1/2-x,1/2-y,1/2+z
1/2+x,1/2-y,-z
1/2-x,1/2+y,-z
1/2-x,1/2-y,1/2-z
1/2+x,1/2+y,1/2-z
1/2-x,1/2+y,z
1/2+x,1/2-y,z
loop_
_atom_site_type_symbol
_atom_site_label
_atom_site_fract_x
_atom_site_fract_y
_atom_site_fract_z
Si Si1 0.000000 0.000000 0.750000
Si Si2 0.331744 0.388173 0.632309
Si Si3 0.165849 0.439862 0.076240
Si Si4 0.494670 0.208621 0.334890
O O1 0.885697 0.065263 0.704611
O O2 0.302180 0.480173 0.584593
O O3 0.460470 0.305137 0.622261
O O4 0.163220 0.335139 0.641858
O O5 0.142250 0.366226 0.139864
O O6 0.000000 0.500000 0.076022
O O7 0.180534 0.391892 0.000000
O O8 0.500000 0.221105 0.250000
#
# Coordination Sequence:
#
# PCOD9529178 Si02
#       4
#     4  16  16  16
#     4  12  24  40  64  96 142 180 230 298 352 416
#     4  11  24  38  65  93 133 171 224 285 348 409
#     4   9  21  42  65  92 132 178 224 279 348 425
#     4  11  22  40  65  98 128 175 227 285 349 411
#
# _framework density 23.245387999999998
#
# number of rings (size 3 to 8) (size 9 to 14) (size 15 to 20)
#    0.000    1.538    1.538    2.769    4.308    5.538 
#    0.000    0.769    0.000    0.000    0.000    0.000 
#    0.000    0.000    0.000    0.000    0.000    0.000 
#
# Total GULP energy -145109.540847 kJ/mol
# GULP energy per Si atom -5581.136186 kJ/mol
# Density = 2.319248 g / cm^3
# Si number density = 23.245388 Si / 1000 Ang^3
#
#
#
# Elastic Constant Matrix: (Units=GPa)
#
#
# Indices 1 2 3 4 5 6 
#
# 1 88.8849 35.8794 7.8381 0.0000 0.0000 0.0000
# 2 35.8794 125.0906 29.8339 0.0000 0.0000 0.0000
# 3 7.8381 29.8339 83.0717 0.0000 0.0000 0.0000
# 4 0.0000 0.0000 0.0000 203.2917 0.0000 0.0000
# 5 0.0000 0.0000 0.0000 0.0000 95.5260 0.0000
# 6 0.0000 0.0000 0.0000 0.0000 0.0000 52.6440
#
#
#
# Elastic Compliance Matrix: (Units=1/GPa)
#
#
# Indices 1 2 3 4 5 6 
#
# 1 0.012725 -0.003679 0.000120 0.000000 0.000000 0.000000
# 2 -0.003679 0.009806 -0.003175 0.000000 0.000000 0.000000
# 3 0.000120 -0.003175 0.013167 0.000000 0.000000 0.000000
# 4 0.000000 0.000000 0.000000 0.004919 0.000000 0.000000
# 5 0.000000 0.000000 0.000000 0.000000 0.010468 0.000000
# 6 0.000000 0.000000 0.000000 0.000000 0.000000 0.018996
#
#
# Mechanical properties :
#
#
# Convention : Reuss Voigt Hill
#
# Bulk Modulus (GPa) = 44.97984 49.34999 47.16492
# Shear Modulus (GPa) = 54.97091 85.19205 70.08148
#
# Velocity S-wave (km/s) = 4.86821 6.06041 5.49673
# Velocity P-wave (km/s) = 7.14082 8.38138 7.78585
#
# Compressibility (1/GPa) = 0.02223218
#
# Stress axis : x y z
#
# Youngs Moduli (GPa) = 78.58688 101.97323 75.94972
#
# Poissons Ratio (x) = 0.37511 -0.00915
# Poissons Ratio (y) = 0.28909 0.24112
# Poissons Ratio (z) = -0.00947 0.32374
#
# Static dielectric constant tensor:
#      x y z
#    x 1.920720 0.000000 0.000000 
#    y 0.000000 1.918590 0.000000 
#    z 0.000000 0.000000 1.925270 
# 
# From -- ./inp_files/35162.got.cif
#   From: 2010.05.17/outbox.cif.g08.bks.cpg/sg72_18_cif.got.tgz:35162.got - 2010.06.03 17:03:01.
