data_PCOD9529012
_publ_section_title
;
Structure prediction by ZEFSAII (Michael W. Deem and Ramdas Pophale) SiO2 
 PCOD9529012
Probable space group: I B A M
;
_chemical_formula_sum "Si O2"
_cell_formula_units_Z 96
_cell_length_a 12.518213
_cell_length_b 22.625459
_cell_length_c 18.085656
_cell_angle_alpha 90.000000
_cell_angle_beta 90.000000
_cell_angle_gamma 90.000000
_cell_volume 5122.406046
_symmetry_space_group_name_H-M "I B A M"
_symmetry_group_IT_number 72
_symmetry_cell_setting 'orthorhombic'
loop_
_space_group_symop_operation_xyz
x,y,z
-x,-y,z
x,-y,1/2-z
-x,y,1/2-z
-x,-y,-z
x,y,-z
-x,y,1/2+z
x,-y,1/2+z
1/2+x,1/2+y,1/2+z
1/2-x,1/2-y,1/2+z
1/2+x,1/2-y,-z
1/2-x,1/2+y,-z
1/2-x,1/2-y,1/2-z
1/2+x,1/2+y,1/2-z
1/2-x,1/2+y,z
1/2+x,1/2-y,z
loop_
_atom_site_type_symbol
_atom_site_label
_atom_site_fract_x
_atom_site_fract_y
_atom_site_fract_z
Si Si1 0.242772 0.152460 0.083643
Si Si2 0.079361 0.273397 0.191654
Si Si3 0.604742 0.074234 0.500000
Si Si4 0.643934 0.934703 0.500000
Si Si5 0.250861 0.365119 0.132356
Si Si6 0.621817 0.356219 0.229233
Si Si7 0.893087 0.760590 0.585326
O O1 0.336664 0.105132 0.069337
O O2 0.160646 0.131897 0.145881
O O3 0.303142 0.212334 0.108133
O O4 0.196659 0.161802 0.000000
O O5 0.158727 0.319420 0.156242
O O6 0.129163 0.216153 0.233278
O O7 0.000000 0.303834 0.250000
O O8 0.002174 0.246656 0.129261
O O9 0.479186 0.087267 0.500000
O O10 0.631617 0.005272 0.500000
O O11 0.704399 0.910671 0.572901
O O12 0.301904 0.385860 0.209910
O O13 0.343151 0.325040 0.095472
O O14 0.500000 0.370672 0.250000
O O15 0.913565 0.747760 0.500000
#
# Coordination Sequence:
#
# PCOD9529012 Si02
#       7
#    16  16   8   8  16  16  16
#     4   9  20  38  64  82 119 163 203 248 298 364
#     4  11  21  32  52  81 129 163 187 237 295 368
#     4   9  22  47  65  85 115 157 213 252 316 343
#     4  11  24  41  65  91 117 157 201 272 298 357
#     4  12  22  34  56  90 129 155 199 242 308 358
#     4  11  21  37  56  92 127 167 192 244 299 369
#     4  11  20  32  52  88 121 158 201 233 298 374
#
# _framework density 18.741192999999999
#
# number of rings (size 3 to 8) (size 9 to 14) (size 15 to 20)
#    0.500    0.833    5.833    2.500    1.167    0.667 
#    1.500    0.833    0.000    5.000    0.000    0.000 
#    0.000    0.000    0.000    0.000    0.000    0.000 
#
# Total GULP energy -267674.357087 kJ/mol
# GULP energy per Si atom -5576.549106 kJ/mol
# Density = 1.869854 g / cm^3
# Si number density = 18.741193 Si / 1000 Ang^3
#
#
#
# Elastic Constant Matrix: (Units=GPa)
#
#
# Indices 1 2 3 4 5 6 
#
# 1 82.2077 17.0789 56.4207 0.0000 0.0000 0.0000
# 2 17.0789 34.6906 15.3435 0.0000 0.0000 0.0000
# 3 56.4207 15.3435 108.5188 0.0001 0.0000 0.0000
# 4 0.0000 0.0000 0.0001 7.3738 0.0000 0.0000
# 5 0.0000 0.0000 0.0000 0.0000 41.6848 0.0000
# 6 0.0000 0.0000 0.0000 0.0000 0.0000 23.3480
#
#
#
# Elastic Compliance Matrix: (Units=1/GPa)
#
#
# Indices 1 2 3 4 5 6 
#
# 1 0.019870 -0.005561 -0.009545 0.000000 0.000000 0.000000
# 2 -0.005561 0.032306 -0.001676 0.000000 0.000000 0.000000
# 3 -0.009545 -0.001676 0.014414 0.000000 0.000000 0.000000
# 4 0.000000 0.000000 0.000000 0.135614 0.000000 0.000000
# 5 0.000000 0.000000 0.000000 0.000000 0.023990 0.000000
# 6 0.000000 0.000000 0.000000 0.000000 0.000000 0.042830
#
#
# Mechanical properties :
#
#
# Convention : Reuss Voigt Hill
#
# Bulk Modulus (GPa) = 30.27906 44.78927 37.53416
# Shear Modulus (GPa) = 15.94401 23.58626 19.76513
#
# Velocity S-wave (km/s) = 2.91992 3.55142 3.25104
# Velocity P-wave (km/s) = 5.24971 6.38494 5.84495
#
# Compressibility (1/GPa) = 0.03302613
#
# Stress axis : x y z
#
# Youngs Moduli (GPa) = 50.32641 30.95443 69.37489
#
# Poissons Ratio (x) = 0.17214 0.66216
# Poissons Ratio (y) = 0.27987 0.11630
# Poissons Ratio (z) = 0.48035 0.05189
#
# Static dielectric constant tensor:
#      x y z
#    x 1.687400 0.000000 0.000000 
#    y 0.000000 1.635040 0.000000 
#    z 0.000000 0.000000 1.704970 
# 
# From -- ./inp_files/29508.got.cif
#   From: 2010.05.17/outbox.cif.g08.bks.cpg/sg72_15_cif.got.tgz:29508.got - 2010.06.03 17:03:01.
