data_PCOD9529023
_publ_section_title
;
Structure prediction by ZEFSAII (Michael W. Deem and Ramdas Pophale) SiO2 
 PCOD9529023
Probable space group: I B A M
;
_chemical_formula_sum "Si O2"
_cell_formula_units_Z 64
_cell_length_a 19.800969
_cell_length_b 9.386355
_cell_length_c 17.616162
_cell_angle_alpha 90.000000
_cell_angle_beta 90.000000
_cell_angle_gamma 90.000000
_cell_volume 3274.120921
_symmetry_space_group_name_H-M "I B A M"
_symmetry_group_IT_number 72
_symmetry_cell_setting 'orthorhombic'
loop_
_space_group_symop_operation_xyz
x,y,z
-x,-y,z
x,-y,1/2-z
-x,y,1/2-z
-x,-y,-z
x,y,-z
-x,y,1/2+z
x,-y,1/2+z
1/2+x,1/2+y,1/2+z
1/2-x,1/2-y,1/2+z
1/2+x,1/2-y,-z
1/2-x,1/2+y,-z
1/2-x,1/2-y,1/2-z
1/2+x,1/2+y,1/2-z
1/2-x,1/2+y,z
1/2+x,1/2-y,z
loop_
_atom_site_type_symbol
_atom_site_label
_atom_site_fract_x
_atom_site_fract_y
_atom_site_fract_z
Si Si1 0.219016 0.060805 0.584089
Si Si2 0.289901 0.169459 0.182808
Si Si3 0.573985 0.746204 0.752591
Si Si4 0.925966 0.018089 0.627926
O O1 0.249411 0.047285 0.500000
O O2 0.257443 0.974204 0.650573
O O3 0.142110 0.005116 0.582280
O O4 0.213983 0.223133 0.611545
O O5 0.250000 0.250000 0.250000
O O6 0.365531 0.159155 0.215651
O O7 0.500000 0.813957 0.750000
O O8 0.572190 0.609988 0.809817
O O9 0.583745 0.668433 0.671590
O O10 0.000000 0.000000 0.591034
#
# Coordination Sequence:
#
# PCOD9529023 Si02
#       4
#    16  16  16  16
#     4  11  22  34  51  82 116 145 178 225 278 328
#     4  11  20  35  57  80 106 144 188 226 268 325
#     4   8  14  27  50  79 101 131 179 232 264 306
#     4   8  14  27  48  76 107 136 173 224 273 314
#
# _framework density 19.547232000000001
#
# number of rings (size 3 to 8) (size 9 to 14) (size 15 to 20)
#    0.000    2.500    2.500    3.000    0.000    0.500 
#    0.000    0.000    0.000    3.000    0.000    1.750 
#    0.000    0.000    0.000    0.000    0.000    0.000 
#
# Total GULP energy -178250.526922 kJ/mol
# GULP energy per Si atom -5570.328966 kJ/mol
# Density = 1.950274 g / cm^3
# Si number density = 19.547232 Si / 1000 Ang^3
#
#
#
# Elastic Constant Matrix: (Units=GPa)
#
#
# Indices 1 2 3 4 5 6 
#
# 1 120.5922 21.8514 17.9939 0.0000 0.0000 0.0000
# 2 21.8514 62.1725 10.9825 0.0000 0.0000 0.0000
# 3 17.9939 10.9825 77.1056 0.0000 0.0000 0.0000
# 4 0.0000 0.0000 0.0000 10.5468 0.0000 0.0000
# 5 0.0000 0.0000 0.0000 0.0000 12.9391 0.0000
# 6 0.0000 0.0000 0.0000 0.0000 0.0000 18.7613
#
#
#
# Elastic Compliance Matrix: (Units=1/GPa)
#
#
# Indices 1 2 3 4 5 6 
#
# 1 0.009070 -0.002886 -0.001705 0.000000 0.000000 0.000000
# 2 -0.002886 0.017418 -0.001807 0.000000 0.000000 0.000000
# 3 -0.001705 -0.001807 0.013625 0.000000 0.000000 0.000000
# 4 0.000000 0.000000 0.000000 0.094815 0.000000 0.000000
# 5 0.000000 0.000000 0.000000 0.000000 0.077285 0.000000
# 6 0.000000 0.000000 0.000000 0.000000 0.000000 0.053301
#
#
# Mechanical properties :
#
#
# Convention : Reuss Voigt Hill
#
# Bulk Modulus (GPa) = 36.61124 40.16956 38.39040
# Shear Modulus (GPa) = 17.39632 22.38562 19.89097
#
# Velocity S-wave (km/s) = 2.98646 3.38776 3.19342
# Velocity P-wave (km/s) = 5.53735 5.99143 5.76886
#
# Compressibility (1/GPa) = 0.02731402
#
# Stress axis : x y z
#
# Youngs Moduli (GPa) = 110.25451 57.41180 73.39632
#
# Poissons Ratio (x) = 0.16572 0.12518
# Poissons Ratio (y) = 0.31825 0.13265
# Poissons Ratio (z) = 0.18804 0.10376
#
# Static dielectric constant tensor:
#      x y z
#    x 1.738810 0.000000 0.000000 
#    y 0.000000 1.665400 0.000000 
#    z 0.000000 0.000000 1.722450 
# 
# From -- ./inp_files/31196.got.cif
#   From: 2010.05.17/outbox.cif.g08.bks.cpg/sg72_16_cif.got.tgz:31196.got - 2010.06.03 17:03:01.
