data_PCOD9529355
_publ_section_title
;
Structure prediction by ZEFSAII (Michael W. Deem and Ramdas Pophale) SiO2 
 PCOD9529355
Probable space group: I B A M
;
_chemical_formula_sum "Si O2"
_cell_formula_units_Z 32
_cell_length_a 9.239084
_cell_length_b 9.830987
_cell_length_c 14.745346
_cell_angle_alpha 90.000000
_cell_angle_beta 90.000000
_cell_angle_gamma 90.000000
_cell_volume 1339.309672
_symmetry_space_group_name_H-M "I B A M"
_symmetry_group_IT_number 72
_symmetry_cell_setting 'orthorhombic'
loop_
_space_group_symop_operation_xyz
x,y,z
-x,-y,z
x,-y,1/2-z
-x,y,1/2-z
-x,-y,-z
x,y,-z
-x,y,1/2+z
x,-y,1/2+z
1/2+x,1/2+y,1/2+z
1/2-x,1/2-y,1/2+z
1/2+x,1/2-y,-z
1/2-x,1/2+y,-z
1/2-x,1/2-y,1/2-z
1/2+x,1/2+y,1/2-z
1/2-x,1/2+y,z
1/2+x,1/2-y,z
loop_
_atom_site_type_symbol
_atom_site_label
_atom_site_fract_x
_atom_site_fract_y
_atom_site_fract_z
Si Si1 0.613037 0.404047 0.340235
Si Si2 0.939932 0.353228 0.606979
O O1 0.500000 0.500000 0.394413
O O2 0.639931 0.500000 0.250000
O O3 0.768419 0.362228 0.377338
O O4 0.523685 0.263862 0.339871
O O5 0.968237 0.331857 0.500000
O O6 0.000000 0.500000 0.633111
#
# Coordination Sequence:
#
# PCOD9529355 Si02
#       2
#    16  16
#     4  11  26  45  71 106 145 188 240 302 367 432
#     4  11  25  46  73 105 145 194 246 300 364 440
#
# _framework density 23.892904999999999
#
# number of rings (size 3 to 8) (size 9 to 14) (size 15 to 20)
#    0.000    1.000    0.000    4.500    0.000   27.000 
#    0.000    2.500    0.000    0.000    0.000    0.000 
#    0.000    0.000    0.000    0.000    0.000    0.000 
#
# Total GULP energy -89285.702221 kJ/mol
# GULP energy per Si atom -5580.356389 kJ/mol
# Density = 2.383852 g / cm^3
# Si number density = 23.892905 Si / 1000 Ang^3
#
#
#
# Elastic Constant Matrix: (Units=GPa)
#
#
# Indices 1 2 3 4 5 6 
#
# 1 204.1839 98.1362 18.8882 0.0000 0.0000 0.0000
# 2 98.1362 251.6282 72.5811 0.0000 0.0000 0.0000
# 3 18.8882 72.5811 113.5576 0.0000 0.0000 0.0000
# 4 0.0000 0.0000 0.0000 -8.5792 0.0000 0.0000
# 5 0.0000 0.0000 0.0000 0.0000 -9.1808 0.0000
# 6 0.0000 0.0000 0.0000 0.0000 0.0000 53.9463
#
#
#
# Elastic Compliance Matrix: (Units=1/GPa)
#
#
# Indices 1 2 3 4 5 6 
#
# 1 0.006062 -0.002542 0.000616 0.000000 0.000000 0.000000
# 2 -0.002542 0.005938 -0.003373 0.000000 0.000000 0.000000
# 3 0.000616 -0.003373 0.010859 0.000000 0.000000 0.000000
# 4 0.000000 0.000000 0.000000 -0.116562 0.000000 0.000000
# 5 0.000000 0.000000 0.000000 0.000000 -0.108923 0.000000
# 6 0.000000 0.000000 0.000000 0.000000 0.000000 0.018537
#
#
# Mechanical properties :
#
#
# Convention : Reuss Voigt Hill
#
# Bulk Modulus (GPa) = 81.54480 105.39787 93.47134
# Shear Modulus (GPa) = -29.51550 32.55486 1.51968
#
# Velocity S-wave (km/s) = -3.51853 3.69525 0.79839
# Velocity P-wave (km/s) = 4.20674 7.90031 6.32896
#
# Compressibility (1/GPa) = 0.01226320
#
# Stress axis : x y z
#
# Youngs Moduli (GPa) = 164.95253 168.39466 92.08714
#
# Poissons Ratio (x) = 0.42809 -0.05677
# Poissons Ratio (y) = 0.41934 0.31059
# Poissons Ratio (z) = -0.10169 0.56795
#
# Static dielectric constant tensor:
#      x y z
#    x 1.884260 0.000000 0.000000 
#    y 0.000000 0.803210 0.000000 
#    z 0.000000 0.000000 1.990960 
# 
# From -- ./inp_files/17704.got.cif
#   From: 2010.05.17/outbox.cif.g08.bks.cpg/sg72_9_cif.got.tgz:17704.got - 2010.06.03 17:03:01.
