data_PCOD9529004
_publ_section_title
;
Structure prediction by ZEFSAII (Michael W. Deem and Ramdas Pophale) SiO2 
 PCOD9529004
Probable space group: I B A M
;
_chemical_formula_sum "Si O2"
_cell_formula_units_Z 64
_cell_length_a 19.057731
_cell_length_b 9.824849
_cell_length_c 17.975765
_cell_angle_alpha 90.000000
_cell_angle_beta 90.000000
_cell_angle_gamma 90.000000
_cell_volume 3365.770183
_symmetry_space_group_name_H-M "I B A M"
_symmetry_group_IT_number 72
_symmetry_cell_setting 'orthorhombic'
loop_
_space_group_symop_operation_xyz
x,y,z
-x,-y,z
x,-y,1/2-z
-x,y,1/2-z
-x,-y,-z
x,y,-z
-x,y,1/2+z
x,-y,1/2+z
1/2+x,1/2+y,1/2+z
1/2-x,1/2-y,1/2+z
1/2+x,1/2-y,-z
1/2-x,1/2+y,-z
1/2-x,1/2-y,1/2-z
1/2+x,1/2+y,1/2-z
1/2-x,1/2+y,z
1/2+x,1/2-y,z
loop_
_atom_site_type_symbol
_atom_site_label
_atom_site_fract_x
_atom_site_fract_y
_atom_site_fract_z
Si Si1 0.714861 0.982395 0.086152
Si Si2 0.078748 0.561144 0.331591
Si Si3 0.083164 0.159836 0.755656
Si Si4 0.287728 0.282565 0.171463
O O1 0.634229 0.013591 0.107535
O O2 0.761378 0.075768 0.139776
O O3 0.730369 0.829200 0.110524
O O4 0.728713 0.006859 0.000000
O O5 0.097819 0.500000 0.250000
O O6 0.089863 0.725453 0.321133
O O7 0.000000 0.500000 0.345113
O O8 0.129546 0.219555 0.688744
O O9 0.000000 0.157172 0.750000
O O10 0.105402 0.000000 0.750000
O O11 0.250000 0.250000 0.250000
#
# Coordination Sequence:
#
# PCOD9529004 Si02
#       4
#    16  16  16  16
#     4  12  25  39  59  93 131 166 207 266 332 381
#     4  11  19  39  63  91 122 164 220 268 305 378
#     4  11  21  35  62  96 121 152 212 273 310 359
#     4  12  22  41  64  90 119 166 217 261 309 379
#
# _framework density 19.014963999999999
#
# number of rings (size 3 to 8) (size 9 to 14) (size 15 to 20)
#    0.000    0.500    7.500    3.000    0.000    0.500 
#    0.000    0.000    0.000    0.000    0.000    8.750 
#    0.000    0.000    0.000    0.000    0.000    0.000 
#
# Total GULP energy -178195.823526 kJ/mol
# GULP energy per Si atom -5568.619485 kJ/mol
# Density = 1.897169 g / cm^3
# Si number density = 19.014964 Si / 1000 Ang^3
#
#
#
# Elastic Constant Matrix: (Units=GPa)
#
#
# Indices 1 2 3 4 5 6 
#
# 1 76.8747 14.1056 31.3616 0.0000 0.0000 0.0000
# 2 14.1056 80.2646 -17.8952 0.0000 0.0000 0.0000
# 3 31.3616 -17.8952 65.9078 0.0000 0.0000 0.0000
# 4 0.0000 0.0000 0.0000 24.1484 0.0000 0.0000
# 5 0.0000 0.0000 0.0000 0.0000 20.4544 0.0000
# 6 0.0000 0.0000 0.0000 0.0000 0.0000 27.8800
#
#
#
# Elastic Compliance Matrix: (Units=1/GPa)
#
#
# Indices 1 2 3 4 5 6 
#
# 1 0.018127 -0.005438 -0.010102 0.000000 0.000000 0.000000
# 2 -0.005438 0.014893 0.006631 0.000000 0.000000 0.000000
# 3 -0.010102 0.006631 0.021780 0.000000 0.000000 0.000000
# 4 0.000000 0.000000 0.000000 0.041411 0.000000 0.000000
# 5 0.000000 0.000000 0.000000 0.000000 0.048889 0.000000
# 6 0.000000 0.000000 0.000000 0.000000 0.000000 0.035868
#
#
# Mechanical properties :
#
#
# Convention : Reuss Voigt Hill
#
# Bulk Modulus (GPa) = 27.03961 30.91011 28.97486
# Shear Modulus (GPa) = 23.68391 27.52821 25.60606
#
# Velocity S-wave (km/s) = 3.53305 3.80901 3.67362
# Velocity P-wave (km/s) = 5.55826 5.96957 5.76758
#
# Compressibility (1/GPa) = 0.03698278
#
# Stress axis : x y z
#
# Youngs Moduli (GPa) = 55.16557 67.14591 45.91308
#
# Poissons Ratio (x) = 0.36514 0.46382
# Poissons Ratio (y) = 0.29999 -0.30446
# Poissons Ratio (z) = 0.55729 -0.44527
#
# Static dielectric constant tensor:
#      x y z
#    x 1.700600 0.000000 0.000000 
#    y 0.000000 1.771290 0.000000 
#    z 0.000000 0.000000 1.605480 
# 
# From -- ./inp_files/27647.got.cif
#   From: 2010.05.17/outbox.cif.g08.bks.cpg/sg72_14_cif.got.tgz:27647.got - 2010.06.03 17:03:01.
