data_PCOD9529959
_publ_section_title
;
Structure prediction by ZEFSAII (Michael W. Deem and Ramdas Pophale) SiO2 
 PCOD9529959
Probable space group: I B C A 
;
_chemical_formula_sum "Si O2"
_cell_formula_units_Z 96
_cell_length_a 24.928089
_cell_length_b 9.165395
_cell_length_c 19.708681
_cell_angle_alpha 90.000000
_cell_angle_beta 90.000000
_cell_angle_gamma 90.000000
_cell_volume 4502.956309
_symmetry_space_group_name_H-M "I B C A "
_symmetry_group_IT_number 73
_symmetry_cell_setting 'orthorhombic'
loop_
_space_group_symop_operation_xyz
x,y,z
-x,1/2-y,z
x,-y,1/2-z
1/2-x,y,-z
-x,-y,-z
x,1/2+y,-z
-x,y,1/2+z
1/2+x,-y,z
1/2+x,1/2+y,1/2+z
1/2-x,-y,1/2+z
1/2+x,1/2-y,-z
-x,1/2+y,1/2-z
1/2-x,1/2-y,1/2-z
1/2+x,y,1/2-z
1/2-x,1/2+y,z
x,1/2-y,1/2+z
loop_
_atom_site_type_symbol
_atom_site_label
_atom_site_fract_x
_atom_site_fract_y
_atom_site_fract_z
Si Si1 0.587321 0.500000 0.250000
Si Si2 0.155872 0.052891 0.931220
Si Si3 0.372824 0.967077 0.825282
Si Si4 0.153323 0.217453 0.656796
Si Si5 0.225988 0.217534 0.359193
Si Si6 0.250000 0.554607 0.500000
Si Si7 0.941384 0.698871 0.622810
O O1 0.623093 0.627584 0.215744
O O2 0.557492 0.585196 0.312395
O O3 0.191176 0.136807 0.873210
O O4 0.098172 0.126872 0.932832
O O5 0.147916 0.887953 0.907424
O O6 0.196917 0.044559 0.992940
O O7 0.370389 0.124943 0.858905
O O8 0.391851 0.000000 0.750000
O O9 0.313549 0.896221 0.823638
O O10 0.410437 0.846238 0.857131
O O11 0.216233 0.237707 0.674272
O O12 0.239472 0.150152 0.433438
O O13 0.000000 0.750000 0.601748
#
# Coordination Sequence:
#
# PCOD9529959 Si02
#       7
#     8  16  16  16  16   8  16
#     4  10  20  32  52  76 110 158 202 240 292 358
#     4   9  20  37  56  89 116 154 199 253 311 362
#     4  11  22  36  53  85 120 160 201 245 294 374
#     4  10  19  33  50  79 119 150 192 235 300 363
#     4  10  21  34  55  84 117 156 192 245 305 370
#     4  10  18  36  64  86 118 154 202 250 306 376
#     4  10  22  39  58  83 119 160 210 259 301 358
#
# _framework density 21.319327000000001
#
# number of rings (size 3 to 8) (size 9 to 14) (size 15 to 20)
#    0.000    2.000    1.667    2.500    2.333    2.000 
#    0.000    2.500    0.000    4.000    0.000    1.167 
#    0.000    0.000    0.000    0.000    0.000    0.000 
#
# Total GULP energy -267897.196732 kJ/mol
# GULP energy per Si atom -5581.191599 kJ/mol
# Density = 2.127080 g / cm^3
# Si number density = 21.319327 Si / 1000 Ang^3
#
#
#
# Elastic Constant Matrix: (Units=GPa)
#
#
# Indices 1 2 3 4 5 6 
#
# 1 127.3669 42.7522 17.1969 0.0000 0.0000 0.0000
# 2 42.7522 150.3415 10.6047 0.0000 0.0000 0.0000
# 3 17.1969 10.6047 27.0218 0.0000 0.0000 0.0000
# 4 0.0000 0.0000 0.0000 -14.6528 0.0000 0.0000
# 5 0.0000 0.0000 0.0000 0.0000 16.5068 0.0000
# 6 0.0000 0.0000 0.0000 0.0000 0.0000 -5.4837
#
#
#
# Elastic Compliance Matrix: (Units=1/GPa)
#
#
# Indices 1 2 3 4 5 6 
#
# 1 0.009298 -0.002290 -0.005018 0.000000 0.000000 0.000000
# 2 -0.002290 0.007405 -0.001449 0.000000 0.000000 0.000000
# 3 -0.005018 -0.001449 0.040769 0.000000 0.000000 0.000000
# 4 0.000000 0.000000 0.000000 -0.068246 0.000000 0.000000
# 5 0.000000 0.000000 0.000000 0.000000 0.060581 0.000000
# 6 0.000000 0.000000 0.000000 0.000000 0.000000 -0.182360
#
#
# Mechanical properties :
#
#
# Convention : Reuss Voigt Hill
#
# Bulk Modulus (GPa) = 25.02640 49.53755 37.28197
# Shear Modulus (GPa) = -49.15469 14.88582 -17.13443
#
# Velocity S-wave (km/s) = -4.80692 2.64527 -2.83804
# Velocity P-wave (km/s) = 4.36398 5.71108 2.60500
#
# Compressibility (1/GPa) = 0.03995781
#
# Stress axis : x y z
#
# Youngs Moduli (GPa) = 107.55528 135.04582 24.52821
#
# Poissons Ratio (x) = 0.30925 0.12309
# Poissons Ratio (y) = 0.24629 0.03553
# Poissons Ratio (z) = 0.53975 0.19564
#
# Static dielectric constant tensor:
#      x y z
#    x 1.787100 0.000000 0.000000 
#    y 0.000000 1.817710 0.000000 
#    z 0.000000 0.000000 1.855060 
# 
# From -- ./inp_files/7224.got.cif
#   From: 2010.05.17/outbox.cif.g08.bks.cpg/sg73_4_cif.got.tgz:7224.got - 2010.06.03 17:35:07.
