data_PCOD9529458
_publ_section_title
;
Structure prediction by ZEFSAII (Michael W. Deem and Ramdas Pophale) SiO2 
 PCOD9529458
Probable space group: I B A M
;
_chemical_formula_sum "Si O2"
_cell_formula_units_Z 60
_cell_length_a 26.434158
_cell_length_b 5.359074
_cell_length_c 18.499498
_cell_angle_alpha 90.000000
_cell_angle_beta 90.000000
_cell_angle_gamma 90.000000
_cell_volume 2620.687149
_symmetry_space_group_name_H-M "I B A M"
_symmetry_group_IT_number 72
_symmetry_cell_setting 'orthorhombic'
loop_
_space_group_symop_operation_xyz
x,y,z
-x,-y,z
x,-y,1/2-z
-x,y,1/2-z
-x,-y,-z
x,y,-z
-x,y,1/2+z
x,-y,1/2+z
1/2+x,1/2+y,1/2+z
1/2-x,1/2-y,1/2+z
1/2+x,1/2-y,-z
1/2-x,1/2+y,-z
1/2-x,1/2-y,1/2-z
1/2+x,1/2+y,1/2-z
1/2-x,1/2+y,z
1/2+x,1/2-y,z
loop_
_atom_site_type_symbol
_atom_site_label
_atom_site_fract_x
_atom_site_fract_y
_atom_site_fract_z
Si Si1 0.000000 0.500000 0.250000
Si Si2 0.394553 0.839724 0.500000
Si Si3 0.948063 0.149004 0.860137
Si Si4 0.831993 0.165919 0.500000
Si Si5 0.363611 0.500000 0.250000
Si Si6 0.782357 0.746890 0.157274
O O1 0.965012 0.340267 0.199963
O O2 0.427768 0.783768 0.430223
O O3 0.351293 0.621819 0.500000
O O4 0.375943 0.123901 0.500000
O O5 0.900840 0.021785 0.819445
O O6 0.000000 0.000000 0.876086
O O7 0.803027 0.220521 0.424998
O O8 0.325310 0.290958 0.281706
O O9 0.756641 0.477873 0.164493
#
# Coordination Sequence:
#
# PCOD9529458 Si02
#       6
#     4   8  16   8   8  16
#     4  12  26  42  82 106 152 208 254 312 386 450
#     4  12  29  48  82 112 154 206 258 309 383 466
#     4  12  27  51  74 117 155 208 254 323 386 465
#     4  12  26  51  78 110 148 208 251 319 387 457
#     4  12  25  48  77 110 158 193 265 314 396 462
#     4  12  27  49  77 111 151 199 256 320 388 462
#
# _framework density 22.894760000000002
#
# number of rings (size 3 to 8) (size 9 to 14) (size 15 to 20)
#    0.000    0.000    5.333    3.600    7.467    0.533 
#    0.000    0.000    0.000    0.000    0.000    0.000 
#    0.000    0.000    0.000    0.000    0.000    0.000 
#
# Total GULP energy -167752.467048 kJ/mol
# GULP energy per Si atom -5591.748902 kJ/mol
# Density = 2.284265 g / cm^3
# Si number density = 22.894760 Si / 1000 Ang^3
#
#
#
# Elastic Constant Matrix: (Units=GPa)
#
#
# Indices 1 2 3 4 5 6 
#
# 1 106.3221 24.0085 38.7812 0.0000 0.0000 0.0000
# 2 24.0085 59.6632 -8.1868 0.0000 0.0000 0.0000
# 3 38.7812 -8.1868 127.5980 0.0000 0.0000 0.0000
# 4 0.0000 0.0000 0.0000 37.5629 0.0000 0.0000
# 5 0.0000 0.0000 0.0000 0.0000 69.7446 0.0000
# 6 0.0000 0.0000 0.0000 0.0000 0.0000 35.2216
#
#
#
# Elastic Compliance Matrix: (Units=1/GPa)
#
#
# Indices 1 2 3 4 5 6 
#
# 1 0.012097 -0.005420 -0.004025 0.000000 0.000000 0.000000
# 2 -0.005420 0.019338 0.002888 0.000000 0.000000 0.000000
# 3 -0.004025 0.002888 0.009246 0.000000 0.000000 0.000000
# 4 0.000000 0.000000 0.000000 0.026622 0.000000 0.000000
# 5 0.000000 0.000000 0.000000 0.000000 0.014338 0.000000
# 6 0.000000 0.000000 0.000000 0.000000 0.000000 0.028392
#
#
# Mechanical properties :
#
#
# Convention : Reuss Voigt Hill
#
# Bulk Modulus (GPa) = 36.27414 44.75435 40.51425
# Shear Modulus (GPa) = 37.78288 44.43786 41.11037
#
# Velocity S-wave (km/s) = 4.06678 4.41041 4.24208
# Velocity P-wave (km/s) = 6.15872 6.74729 6.45971
#
# Compressibility (1/GPa) = 0.02756785
#
# Stress axis : x y z
#
# Youngs Moduli (GPa) = 82.66338 51.71131 108.15952
#
# Poissons Ratio (x) = 0.28028 0.43529
# Poissons Ratio (y) = 0.44805 -0.31238
# Poissons Ratio (z) = 0.33268 -0.14935
#
# Static dielectric constant tensor:
#      x y z
#    x 1.957860 0.000000 0.000000 
#    y 0.000000 1.819900 0.000000 
#    z 0.000000 0.000000 1.822330 
# 
# From -- ./inp_files/33679.got.cif
#   From: 2010.05.17/outbox.cif.g08.bks.cpg/sg72_17_cif.got.tgz:33679.got - 2010.06.03 17:03:01.
