data_PCOD9529622
_publ_section_title
;
Structure prediction by ZEFSAII (Michael W. Deem and Ramdas Pophale) SiO2 
 PCOD9529622
Probable space group: I B C A 
;
_chemical_formula_sum "Si O2"
_cell_formula_units_Z 72
_cell_length_a 22.369116
_cell_length_b 5.286605
_cell_length_c 30.075103
_cell_angle_alpha 90.000000
_cell_angle_beta 90.000000
_cell_angle_gamma 90.000000
_cell_volume 3556.581846
_symmetry_space_group_name_H-M "I B C A "
_symmetry_group_IT_number 73
_symmetry_cell_setting 'orthorhombic'
loop_
_space_group_symop_operation_xyz
x,y,z
-x,1/2-y,z
x,-y,1/2-z
1/2-x,y,-z
-x,-y,-z
x,1/2+y,-z
-x,y,1/2+z
1/2+x,-y,z
1/2+x,1/2+y,1/2+z
1/2-x,-y,1/2+z
1/2+x,1/2-y,-z
-x,1/2+y,1/2-z
1/2-x,1/2-y,1/2-z
1/2+x,y,1/2-z
1/2-x,1/2+y,z
x,1/2-y,1/2+z
loop_
_atom_site_type_symbol
_atom_site_label
_atom_site_fract_x
_atom_site_fract_y
_atom_site_fract_z
Si Si1 0.040823 0.000000 0.750000
Si Si2 0.585272 0.994898 0.472073
Si Si3 0.435400 0.185256 0.878644
Si Si4 0.071312 0.315272 0.343418
Si Si5 0.775538 0.054465 0.550271
O O1 0.077586 0.927807 0.705890
O O2 0.000000 0.750000 0.757856
O O3 0.573982 0.219029 0.507593
O O4 0.552002 0.067997 0.426987
O O5 0.654496 0.011862 0.456621
O O6 0.500000 0.250000 0.857871
O O7 0.407276 0.465607 0.877318
O O8 0.401937 0.962463 0.852329
O O9 0.000000 0.250000 0.349144
O O10 0.750000 0.079942 0.500000
O O11 0.757639 0.318330 0.572052
#
# Coordination Sequence:
#
# PCOD9529622 Si02
#       5
#     8  16  16  16  16
#     4  10  16  26  50  74  84 110 156 190 222 284
#     4  12  21  31  48  65  84 123 167 187 226 274
#     4  10  21  33  43  61  95 128 153 191 223 253
#     4   9  17  31  46  64  90 118 149 187 231 262
#     4  10  16  30  47  65  83 102 142 193 252 274
#
# _framework density 20.244157000000001
#
# number of rings (size 3 to 8) (size 9 to 14) (size 15 to 20)
#    0.000    1.778    4.444    4.667    0.000    0.889 
#    0.000    0.000    0.000    0.000    0.000    0.000 
#    0.000    0.000    0.000   20.000    0.000    1.889 
#
# Total GULP energy -200546.920355 kJ/mol
# GULP energy per Si atom -5570.747788 kJ/mol
# Density = 2.019808 g / cm^3
# Si number density = 20.244157 Si / 1000 Ang^3
#
#
#
# Elastic Constant Matrix: (Units=GPa)
#
#
# Indices 1 2 3 4 5 6 
#
# 1 22.5869 -19.6384 -14.8124 0.0000 0.0000 0.0000
# 2 -19.6384 144.8672 13.4269 0.0000 0.0000 0.0000
# 3 -14.8124 13.4269 68.5602 0.0000 0.0000 0.0000
# 4 0.0000 0.0000 0.0000 22.2861 0.0000 0.0000
# 5 0.0000 0.0000 0.0000 0.0000 -2.4647 0.0000
# 6 0.0000 0.0000 0.0000 0.0000 0.0000 4.7319
#
#
#
# Elastic Compliance Matrix: (Units=1/GPa)
#
#
# Indices 1 2 3 4 5 6 
#
# 1 0.057415 0.006756 0.011081 0.000000 0.000000 0.000000
# 2 0.006756 0.007826 -0.000073 0.000000 0.000000 0.000000
# 3 0.011081 -0.000073 0.016994 0.000000 0.000000 0.000000
# 4 0.000000 0.000000 0.000000 0.044871 0.000000 0.000000
# 5 0.000000 0.000000 0.000000 0.000000 -0.405730 0.000000
# 6 0.000000 0.000000 0.000000 0.000000 0.000000 0.211334
#
#
# Mechanical properties :
#
#
# Convention : Reuss Voigt Hill
#
# Bulk Modulus (GPa) = 8.49159 21.55183 15.02171
# Shear Modulus (GPa) = -78.65865 22.04653 -28.30606
#
# Velocity S-wave (km/s) = -6.24014 3.30363 -3.74335
# Velocity P-wave (km/s) = 6.90764 5.02205 3.35369
#
# Compressibility (1/GPa) = 0.11776351
#
# Stress axis : x y z
#
# Youngs Moduli (GPa) = 17.41713 127.78735 58.84390
#
# Poissons Ratio (x) = -0.86335 -0.65207
# Poissons Ratio (y) = -0.11767 0.00429
# Poissons Ratio (z) = -0.19300 0.00931
#
# Static dielectric constant tensor:
#      x y z
#    x 1.748580 0.000000 0.000000 
#    y 0.000000 1.929060 0.000000 
#    z 0.000000 0.000000 1.732430 
# 
# From -- ./inp_files/3144.got.cif
#   From: 2010.05.17/outbox.cif.g08.bks.cpg/sg73_2_cif.got.tgz:3144.got - 2010.06.03 17:35:07.
