data_PCOD9529313
_publ_section_title
;
Structure prediction by ZEFSAII (Michael W. Deem and Ramdas Pophale) SiO2 
 PCOD9529313
Probable space group: I B A M
;
_chemical_formula_sum "Si O2"
_cell_formula_units_Z 96
_cell_length_a 9.933526
_cell_length_b 22.364456
_cell_length_c 22.491567
_cell_angle_alpha 90.000000
_cell_angle_beta 90.000000
_cell_angle_gamma 90.000000
_cell_volume 4996.679408
_symmetry_space_group_name_H-M "I B A M"
_symmetry_group_IT_number 72
_symmetry_cell_setting 'orthorhombic'
loop_
_space_group_symop_operation_xyz
x,y,z
-x,-y,z
x,-y,1/2-z
-x,y,1/2-z
-x,-y,-z
x,y,-z
-x,y,1/2+z
x,-y,1/2+z
1/2+x,1/2+y,1/2+z
1/2-x,1/2-y,1/2+z
1/2+x,1/2-y,-z
1/2-x,1/2+y,-z
1/2-x,1/2-y,1/2-z
1/2+x,1/2+y,1/2-z
1/2-x,1/2+y,z
1/2+x,1/2-y,z
loop_
_atom_site_type_symbol
_atom_site_label
_atom_site_fract_x
_atom_site_fract_y
_atom_site_fract_z
Si Si1 0.838151 0.502894 0.680252
Si Si2 0.509995 0.333907 0.066897
Si Si3 0.234383 0.877215 0.141582
Si Si4 0.265026 0.870527 0.623022
Si Si5 0.660514 0.308647 0.241467
Si Si6 0.031617 0.691998 0.571626
O O1 0.796132 0.500000 0.750000
O O2 0.781132 0.445352 0.646140
O O3 0.794319 0.563723 0.648049
O O4 0.000000 0.500000 0.679472
O O5 0.406765 0.366876 0.109533
O O6 0.653659 0.365735 0.072003
O O7 0.525151 0.263430 0.082011
O O8 0.456825 0.336233 0.000000
O O9 0.213845 0.853777 0.208352
O O10 0.342383 0.837212 0.105714
O O11 0.196814 0.834598 0.677328
O O12 0.399587 0.838697 0.599567
O O13 0.500000 0.298647 0.250000
O O14 0.750000 0.250000 0.250000
O O15 0.039166 0.682672 0.500000
#
# Coordination Sequence:
#
# PCOD9529313 Si02
#       6
#    16  16  16  16  16  16
#     4  11  24  45  66  93 133 181 219 270 336 405
#     4  11  24  44  67  98 138 176 216 275 346 395
#     4  12  24  43  68 100 133 175 229 272 332 402
#     4  12  24  43  68 100 133 175 229 272 332 402
#     4  12  26  41  66 105 141 172 218 282 343 403
#     4  11  24  44  71 100 136 180 222 275 334 403
#
# _framework density 19.212758000000001
#
# number of rings (size 3 to 8) (size 9 to 14) (size 15 to 20)
#    0.000    0.500    5.000    4.000    2.333    3.333 
#    0.000    6.667    0.000    0.000    0.000    0.000 
#    0.000    0.000    0.000    0.000    0.000    0.000 
#
# Total GULP energy -268391.992801 kJ/mol
# GULP energy per Si atom -5591.499850 kJ/mol
# Density = 1.916903 g / cm^3
# Si number density = 19.212758 Si / 1000 Ang^3
#
#
#
# Elastic Constant Matrix: (Units=GPa)
#
#
# Indices 1 2 3 4 5 6 
#
# 1 104.5304 29.5678 20.5346 0.0000 0.0000 0.0000
# 2 29.5678 124.4946 38.7591 0.0000 0.0000 0.0000
# 3 20.5346 38.7591 94.7348 0.0000 0.0000 0.0000
# 4 0.0000 0.0000 0.0000 2.4633 0.0000 0.0000
# 5 0.0000 0.0000 0.0000 0.0000 26.7654 0.0000
# 6 0.0000 0.0000 0.0000 0.0000 0.0000 23.3524
#
#
#
# Elastic Compliance Matrix: (Units=1/GPa)
#
#
# Indices 1 2 3 4 5 6 
#
# 1 0.010422 -0.002030 -0.001428 0.000000 0.000000 0.000000
# 2 -0.002030 0.009601 -0.003488 0.000000 0.000000 0.000000
# 3 -0.001428 -0.003488 0.012292 0.000000 0.000000 0.000000
# 4 0.000000 0.000000 0.000000 0.405962 0.000000 0.000000
# 5 0.000000 0.000000 0.000000 0.000000 0.037362 0.000000
# 6 0.000000 0.000000 0.000000 0.000000 0.000000 0.042822
#
#
# Mechanical properties :
#
#
# Convention : Reuss Voigt Hill
#
# Bulk Modulus (GPa) = 54.28457 55.72032 55.00244
# Shear Modulus (GPa) = 9.28516 26.17610 17.73063
#
# Velocity S-wave (km/s) = 2.20075 3.69512 3.04115
# Velocity P-wave (km/s) = 5.89691 6.87531 6.40482
#
# Compressibility (1/GPa) = 0.01842144
#
# Stress axis : x y z
#
# Youngs Moduli (GPa) = 95.95532 104.16037 81.35152
#
# Poissons Ratio (x) = 0.21150 0.11619
# Poissons Ratio (y) = 0.19484 0.28374
# Poissons Ratio (z) = 0.13705 0.36329
#
# Static dielectric constant tensor:
#      x y z
#    x 1.676200 0.000000 0.000000 
#    y 0.000000 1.634310 0.000000 
#    z 0.000000 0.000000 1.677920 
# 
# From -- ./inp_files/37127.got.cif
#   From: 2010.05.17/outbox.cif.g08.bks.cpg/sg72_19_cif.got.tgz:37127.got - 2010.06.03 17:03:01.
