data_PCOD9529713
_publ_section_title
;
Structure prediction by ZEFSAII (Michael W. Deem and Ramdas Pophale) SiO2 
 PCOD9529713
Probable space group: I B C A 
;
_chemical_formula_sum "Si O2"
_cell_formula_units_Z 120
_cell_length_a 26.514554
_cell_length_b 9.483597
_cell_length_c 27.767216
_cell_angle_alpha 90.000000
_cell_angle_beta 90.000000
_cell_angle_gamma 90.000000
_cell_volume 6982.159338
_symmetry_space_group_name_H-M "I B C A "
_symmetry_group_IT_number 73
_symmetry_cell_setting 'orthorhombic'
loop_
_space_group_symop_operation_xyz
x,y,z
-x,1/2-y,z
x,-y,1/2-z
1/2-x,y,-z
-x,-y,-z
x,1/2+y,-z
-x,y,1/2+z
1/2+x,-y,z
1/2+x,1/2+y,1/2+z
1/2-x,-y,1/2+z
1/2+x,1/2-y,-z
-x,1/2+y,1/2-z
1/2-x,1/2-y,1/2-z
1/2+x,y,1/2-z
1/2-x,1/2+y,z
x,1/2-y,1/2+z
loop_
_atom_site_type_symbol
_atom_site_label
_atom_site_fract_x
_atom_site_fract_y
_atom_site_fract_z
Si Si1 0.497401 0.092370 0.356465
Si Si2 0.406039 0.599071 0.866683
Si Si3 0.689794 0.504105 0.191341
Si Si4 0.939172 0.749895 0.042436
Si Si5 0.718950 0.810638 0.203462
Si Si6 0.866118 0.500000 0.250000
Si Si7 0.457043 0.948203 0.538167
Si Si8 0.953492 0.335465 0.299571
O O1 0.500000 0.250000 0.337780
O O2 0.521267 0.087973 0.409854
O O3 0.440653 0.038279 0.361567
O O4 0.525199 0.978887 0.322878
O O5 0.354940 0.565141 0.839004
O O6 0.408117 0.650643 0.921749
O O7 0.434638 0.727572 0.840160
O O8 0.679806 0.500000 0.250000
O O9 0.699509 0.667952 0.178726
O O10 0.739553 0.412506 0.180331
O O11 0.923238 0.587308 0.044415
O O12 0.000000 0.750000 0.056518
O O13 0.935204 0.813173 0.988966
O O14 0.750000 0.750000 0.250000
O O15 0.672061 0.911188 0.216562
O O16 0.904161 0.382838 0.270964
O O17 0.500000 0.000000 0.500000
O O18 0.000000 0.250000 0.275260
#
# Coordination Sequence:
#
# PCOD9529713 Si02
#       8
#    16  16  16  16  16   8  16  16
#     4  11  21  34  47  76 114 152 187 232 264 338
#     4  11  20  36  54  75 116 148 182 231 293 331
#     4  10  21  36  58  82 105 138 183 243 289 337
#     4  10  17  31  51  79 107 157 182 228 276 335
#     4  10  19  38  59  85 101 133 191 251 296 330
#     4  12  22  38  64  76 112 158 198 240 290 342
#     4  10  17  29  52  72 105 151 190 222 275 325
#     4  10  23  39  51  73 115 157 193 225 276 344
#
# _framework density 17.18666
#
# number of rings (size 3 to 8) (size 9 to 14) (size 15 to 20)
#    0.000    1.600    6.000    3.200    1.867    0.533 
#    7.200    0.000    0.000    0.000    0.000    0.000 
#    0.000    8.533    0.000    0.000    0.000    0.000 
#
# Total GULP energy -334243.762698 kJ/mol
# GULP energy per Si atom -5570.729378 kJ/mol
# Density = 1.714754 g / cm^3
# Si number density = 17.186660 Si / 1000 Ang^3
#
#
#
# Elastic Constant Matrix: (Units=GPa)
#
#
# Indices 1 2 3 4 5 6 
#
# 1 102.9410 50.4598 38.4390 0.0000 0.0000 0.0000
# 2 50.4598 138.2577 21.6262 0.0000 0.0000 0.0000
# 3 38.4390 21.6262 50.2563 0.0000 0.0000 0.0000
# 4 0.0000 0.0000 0.0000 18.6779 0.0000 0.0000
# 5 0.0000 0.0000 0.0000 0.0000 -0.6066 0.0000
# 6 0.0000 0.0000 0.0000 0.0000 0.0000 27.3909
#
#
#
# Elastic Compliance Matrix: (Units=1/GPa)
#
#
# Indices 1 2 3 4 5 6 
#
# 1 0.015475 -0.004071 -0.010085 0.000000 0.000000 0.000000
# 2 -0.004071 0.008826 -0.000684 0.000000 0.000000 0.000000
# 3 -0.010085 -0.000684 0.027906 0.000000 0.000000 0.000000
# 4 0.000000 0.000000 0.000000 0.053539 0.000000 0.000000
# 5 0.000000 0.000000 0.000000 0.000000 -1.648514 0.000000
# 6 0.000000 0.000000 0.000000 0.000000 0.000000 0.036508
#
#
# Mechanical properties :
#
#
# Convention : Reuss Voigt Hill
#
# Bulk Modulus (GPa) = 44.39052 56.94500 50.66776
# Shear Modulus (GPa) = -3.40351 21.15445 8.87547
#
# Velocity S-wave (km/s) = -1.40877 3.51217 2.27494
# Velocity P-wave (km/s) = 4.82062 7.04644 6.03700
#
# Compressibility (1/GPa) = 0.02252733
#
# Stress axis : x y z
#
# Youngs Moduli (GPa) = 64.61872 113.30732 35.83454
#
# Poissons Ratio (x) = 0.46123 0.36139
# Poissons Ratio (y) = 0.26303 0.02452
# Poissons Ratio (z) = 0.65167 0.07755
#
# Static dielectric constant tensor:
#      x y z
#    x 1.603650 0.000000 0.000000 
#    y 0.000000 1.671650 0.000000 
#    z 0.000000 0.000000 1.601180 
# 
# From -- ./inp_files/34805.got.cif
#   From: 2010.05.17/outbox.cif.g08.bks.cpg/sg73_18_cif.got.tgz:34805.got - 2010.06.03 17:35:07.
