data_PCOD9529735
_publ_section_title
;
Structure prediction by ZEFSAII (Michael W. Deem and Ramdas Pophale) SiO2 
 PCOD9529735
Probable space group: I B C A 
;
_chemical_formula_sum "Si O2"
_cell_formula_units_Z 80
_cell_length_a 11.536979
_cell_length_b 13.694281
_cell_length_c 21.052279
_cell_angle_alpha 90.000000
_cell_angle_beta 90.000000
_cell_angle_gamma 90.000000
_cell_volume 3326.062871
_symmetry_space_group_name_H-M "I B C A "
_symmetry_group_IT_number 73
_symmetry_cell_setting 'orthorhombic'
loop_
_space_group_symop_operation_xyz
x,y,z
-x,1/2-y,z
x,-y,1/2-z
1/2-x,y,-z
-x,-y,-z
x,1/2+y,-z
-x,y,1/2+z
1/2+x,-y,z
1/2+x,1/2+y,1/2+z
1/2-x,-y,1/2+z
1/2+x,1/2-y,-z
-x,1/2+y,1/2-z
1/2-x,1/2-y,1/2-z
1/2+x,y,1/2-z
1/2-x,1/2+y,z
x,1/2-y,1/2+z
loop_
_atom_site_type_symbol
_atom_site_label
_atom_site_fract_x
_atom_site_fract_y
_atom_site_fract_z
Si Si1 0.516075 0.633437 0.059922
Si Si2 0.316256 0.454921 0.362785
Si Si3 0.000000 0.750000 0.673235
Si Si4 0.750000 0.328492 0.500000
Si Si5 0.346985 0.898592 0.767361
Si Si6 0.127192 0.149412 0.934638
O O1 0.500000 0.750000 0.075697
O O2 0.446313 0.570596 0.112440
O O3 0.650313 0.618674 0.040846
O O4 0.448235 0.616385 0.993911
O O5 0.282829 0.391086 0.299746
O O6 0.294707 0.562389 0.333676
O O7 0.232077 0.420700 0.417750
O O8 0.091884 0.700065 0.718200
O O9 0.049266 0.832896 0.626859
O O10 0.819572 0.254676 0.453638
O O11 0.418900 0.000000 0.750000
#
# Coordination Sequence:
#
# PCOD9529735 Si02
#       6
#    16  16   8   8  16  16
#     4  10  17  32  65  96 136 176 224 279 349 415
#     4   9  19  41  63  94 137 173 230 286 335 420
#     4  12  22  42  66  94 142 178 230 300 336 416
#     4  10  18  32  56 110 128 170 232 262 350 432
#     4   8  24  43  62  97 130 184 244 272 352 408
#     4  11  19  34  70  94 133 176 215 286 351 414
#
# _framework density 24.052461000000001
#
# number of rings (size 3 to 8) (size 9 to 14) (size 15 to 20)
#    1.200    0.800    7.000    0.000    1.400    0.800 
#    3.600    3.000    4.400    0.000    0.000    5.600 
#    0.000    0.000    0.000    0.000    0.000    0.000 
#
# Total GULP energy -222877.448947 kJ/mol
# GULP energy per Si atom -5571.936224 kJ/mol
# Density = 2.399772 g / cm^3
# Si number density = 24.052461 Si / 1000 Ang^3
#
#
#
# Elastic Constant Matrix: (Units=GPa)
#
#
# Indices 1 2 3 4 5 6 
#
# 1 94.0148 11.5704 36.7670 0.0000 0.0000 0.0000
# 2 11.5704 53.3598 32.7821 0.0000 0.0000 0.0000
# 3 36.7670 32.7821 98.6887 0.0000 0.0000 0.0000
# 4 0.0000 0.0000 0.0000 40.8486 0.0000 0.0000
# 5 0.0000 0.0000 0.0000 0.0000 -14.1009 0.0000
# 6 0.0000 0.0000 0.0000 0.0000 0.0000 -12.4104
#
#
#
# Elastic Compliance Matrix: (Units=1/GPa)
#
#
# Indices 1 2 3 4 5 6 
#
# 1 0.012452 0.000188 -0.004702 0.000000 0.000000 0.000000
# 2 0.000188 0.023549 -0.007893 0.000000 0.000000 0.000000
# 3 -0.004702 -0.007893 0.014506 0.000000 0.000000 0.000000
# 4 0.000000 0.000000 0.000000 0.024481 0.000000 0.000000
# 5 0.000000 0.000000 0.000000 0.000000 -0.070917 0.000000
# 6 0.000000 0.000000 0.000000 0.000000 0.000000 -0.080577
#
#
# Mechanical properties :
#
#
# Convention : Reuss Voigt Hill
#
# Bulk Modulus (GPa) = 38.91735 45.36693 42.14214
# Shear Modulus (GPa) = -115.92799 13.86370 -51.03214
#
# Velocity S-wave (km/s) = -6.95001 2.40343 -4.61119
# Velocity P-wave (km/s) = 6.94177 5.15796 3.28509
#
# Compressibility (1/GPa) = 0.02569548
#
# Stress axis : x y z
#
# Youngs Moduli (GPa) = 80.30731 42.46522 68.93589
#
# Poissons Ratio (x) = -0.00800 0.32412
# Poissons Ratio (y) = -0.01513 0.54408
# Poissons Ratio (z) = 0.37758 0.33516
#
# Static dielectric constant tensor:
#      x y z
#    x 2.008620 0.000000 0.000000 
#    y 0.000000 1.956630 0.000000 
#    z 0.000000 0.000000 1.953710 
# 
# From -- ./inp_files/25334.got.cif
#   From: 2010.05.17/outbox.cif.g08.bks.cpg/sg73_13_cif.got.tgz:25334.got - 2010.06.03 17:35:07.
