data_PCOD9529299
_publ_section_title
;
Structure prediction by ZEFSAII (Michael W. Deem and Ramdas Pophale) SiO2 
 PCOD9529299
Probable space group: I B A M
;
_chemical_formula_sum "Si O2"
_cell_formula_units_Z 56
_cell_length_a 8.243991
_cell_length_b 12.852014
_cell_length_c 21.330573
_cell_angle_alpha 90.000000
_cell_angle_beta 90.000000
_cell_angle_gamma 90.000000
_cell_volume 2260.014476
_symmetry_space_group_name_H-M "I B A M"
_symmetry_group_IT_number 72
_symmetry_cell_setting 'orthorhombic'
loop_
_space_group_symop_operation_xyz
x,y,z
-x,-y,z
x,-y,1/2-z
-x,y,1/2-z
-x,-y,-z
x,y,-z
-x,y,1/2+z
x,-y,1/2+z
1/2+x,1/2+y,1/2+z
1/2-x,1/2-y,1/2+z
1/2+x,1/2-y,-z
1/2-x,1/2+y,-z
1/2-x,1/2-y,1/2-z
1/2+x,1/2+y,1/2-z
1/2-x,1/2+y,z
1/2+x,1/2-y,z
loop_
_atom_site_type_symbol
_atom_site_label
_atom_site_fract_x
_atom_site_fract_y
_atom_site_fract_z
Si Si1 0.000000 0.000000 0.103533
Si Si2 0.688568 0.594716 0.000000
Si Si3 0.058340 0.618797 0.860927
Si Si4 0.106113 0.812498 0.687148
Si Si5 0.454500 0.185907 0.000000
O O1 0.848020 0.024566 0.059541
O O2 0.023863 0.101788 0.143590
O O3 0.862178 0.645625 0.000000
O O4 0.561500 0.689931 0.000000
O O5 0.206654 0.650185 0.814386
O O6 0.110302 0.646132 0.932714
O O7 0.000000 0.500000 0.855205
O O8 0.913886 0.698642 0.843226
O O9 0.000000 0.815473 0.750000
#
# Coordination Sequence:
#
# PCOD9529299 Si02
#       5
#     8   8  16  16   8
#     4  11  25  46  76 108 155 211 270 320 410 459
#     4  11  24  42  77 111 158 206 255 332 404 474
#     4  12  28  49  82 120 162 210 269 328 408 472
#     4  12  28  52  78 111 163 212 275 330 391 478
#     4  12  23  46  73 116 166 194 265 331 398 474
#
# _framework density 24.778603
#
# number of rings (size 3 to 8) (size 9 to 14) (size 15 to 20)
#    0.000    0.286    2.857    5.143    4.000    1.714 
#    5.143    0.000    0.000    0.000    0.000    0.000 
#    0.000    0.000    0.000    0.000    0.000    0.000 
#
# Total GULP energy -156923.315110 kJ/mol
# GULP energy per Si atom -5604.404111 kJ/mol
# Density = 2.472221 g / cm^3
# Si number density = 24.778603 Si / 1000 Ang^3
#
#
#
# Elastic Constant Matrix: (Units=GPa)
#
#
# Indices 1 2 3 4 5 6 
#
# 1 85.9580 35.9348 49.5756 0.0000 0.0000 0.0000
# 2 35.9348 223.0778 85.6963 0.0000 0.0000 0.0000
# 3 49.5756 85.6963 134.5646 0.0000 0.0000 0.0000
# 4 0.0000 0.0000 0.0000 196.1503 0.0000 0.0000
# 5 0.0000 0.0000 0.0000 0.0000 -121.8342 0.0000
# 6 0.0000 0.0000 0.0000 0.0000 0.0000 52.5330
#
#
#
# Elastic Compliance Matrix: (Units=1/GPa)
#
#
# Indices 1 2 3 4 5 6 
#
# 1 0.014797 -0.000383 -0.005207 0.000000 0.000000 0.000000
# 2 -0.000383 0.005945 -0.003645 0.000000 0.000000 0.000000
# 3 -0.005207 -0.003645 0.011671 0.000000 0.000000 0.000000
# 4 0.000000 0.000000 0.000000 0.005098 0.000000 0.000000
# 5 0.000000 0.000000 0.000000 0.000000 -0.008208 0.000000
# 6 0.000000 0.000000 0.000000 0.000000 0.000000 0.019036
#
#
# Mechanical properties :
#
#
# Convention : Reuss Voigt Hill
#
# Bulk Modulus (GPa) = 71.72480 87.33488 79.52984
# Shear Modulus (GPa) = 69.97288 43.52941 56.75114
#
# Velocity S-wave (km/s) = 5.31982 4.19589 4.79093
# Velocity P-wave (km/s) = 8.16965 7.66789 7.92274
#
# Compressibility (1/GPa) = 0.01394218
#
# Stress axis : x y z
#
# Youngs Moduli (GPa) = 67.58066 168.22168 85.68318
#
# Poissons Ratio (x) = 0.06445 0.44619
# Poissons Ratio (y) = 0.02589 0.31228
# Poissons Ratio (z) = 0.35193 0.61310
#
# Static dielectric constant tensor:
#      x y z
#    x 2.019060 0.000000 0.000000 
#    y 0.000000 1.806440 0.000000 
#    z 0.000000 0.000000 1.992820 
# 
# From -- ./inp_files/35269.got.cif
#   From: 2010.05.17/outbox.cif.g08.bks.cpg/sg72_18_cif.got.tgz:35269.got - 2010.06.03 17:03:01.
