data_PCOD9529699
_publ_section_title
;
Structure prediction by ZEFSAII (Michael W. Deem and Ramdas Pophale) SiO2 
 PCOD9529699
Probable space group: I B C A 
;
_chemical_formula_sum "Si O2"
_cell_formula_units_Z 64
_cell_length_a 34.239305
_cell_length_b 14.310685
_cell_length_c 5.402400
_cell_angle_alpha 90.000000
_cell_angle_beta 90.000000
_cell_angle_gamma 90.000000
_cell_volume 2647.110677
_symmetry_space_group_name_H-M "I B C A "
_symmetry_group_IT_number 73
_symmetry_cell_setting 'orthorhombic'
loop_
_space_group_symop_operation_xyz
x,y,z
-x,1/2-y,z
x,-y,1/2-z
1/2-x,y,-z
-x,-y,-z
x,1/2+y,-z
-x,y,1/2+z
1/2+x,-y,z
1/2+x,1/2+y,1/2+z
1/2-x,-y,1/2+z
1/2+x,1/2-y,-z
-x,1/2+y,1/2-z
1/2-x,1/2-y,1/2-z
1/2+x,y,1/2-z
1/2-x,1/2+y,z
x,1/2-y,1/2+z
loop_
_atom_site_type_symbol
_atom_site_label
_atom_site_fract_x
_atom_site_fract_y
_atom_site_fract_z
Si Si1 0.101305 0.611213 0.755890
Si Si2 0.486263 0.108492 0.950451
Si Si3 0.733370 0.855174 0.747749
Si Si4 0.857740 0.386230 0.747281
O O1 0.108231 0.500000 0.750000
O O2 0.055866 0.619727 0.825077
O O3 0.116051 0.643799 0.487872
O O4 0.125371 0.647134 0.990686
O O5 0.514099 0.146882 0.731336
O O6 0.500000 0.000000 0.000000
O O7 0.750000 0.900122 0.500000
O O8 0.750000 0.750000 0.750000
O O9 0.686880 0.854932 0.730079
O O10 0.750000 0.897501 0.000000
O O11 0.858015 0.500000 0.750000
#
# Coordination Sequence:
#
# PCOD9529699 Si02
#       4
#    16  16  16  16
#     4  10  18  29  43  68 107 143 183 213 257 310
#     4  10  17  24  41  63  95 147 197 203 240 304
#     4  10  21  38  58  76  97 133 177 229 270 327
#     4  10  21  32  49  75 106 140 175 219 276 317
#
# _framework density 24.177305
#
# number of rings (size 3 to 8) (size 9 to 14) (size 15 to 20)
#    0.000    2.000    2.500    3.000    7.000    1.000 
#    0.000    0.000    0.000    0.000    0.000    0.000 
#    0.000    0.000    0.000  315.000    0.000    0.000 
#
# Total GULP energy -178750.021582 kJ/mol
# GULP energy per Si atom -5585.938174 kJ/mol
# Density = 2.412228 g / cm^3
# Si number density = 24.177305 Si / 1000 Ang^3
#
#
#
# Elastic Constant Matrix: (Units=GPa)
#
#
# Indices 1 2 3 4 5 6 
#
# 1 188.2643 5.3523 98.7968 -0.0008 0.0002 -0.0012
# 2 5.3523 112.8008 2.8728 -0.0003 0.0000 -0.0002
# 3 98.7968 2.8728 272.5980 -0.0017 0.0008 -0.0010
# 4 -0.0008 -0.0003 -0.0017 -36.7018 -0.0002 0.0016
# 5 0.0002 0.0000 0.0008 -0.0002 55.2849 0.0000
# 6 -0.0012 -0.0002 -0.0010 0.0016 0.0000 56.2868
#
#
#
# Elastic Compliance Matrix: (Units=1/GPa)
#
#
# Indices 1 2 3 4 5 6 
#
# 1 0.006566 -0.000251 -0.002377 0.000000 0.000000 0.000000
# 2 -0.000251 0.008877 -0.000003 0.000000 0.000000 0.000000
# 3 -0.002377 -0.000003 0.004530 0.000000 0.000000 0.000000
# 4 0.000000 0.000000 0.000000 -0.027247 0.000000 0.000001
# 5 0.000000 0.000000 0.000000 0.000000 0.018088 0.000000
# 6 0.000000 0.000000 0.000000 0.000001 0.000000 0.017766
#
#
# Mechanical properties :
#
#
# Convention : Reuss Voigt Hill
#
# Bulk Modulus (GPa) = 67.97208 87.52298 77.74753
# Shear Modulus (GPa) = 129.04373 46.08341 87.56357
#
# Velocity S-wave (km/s) = 7.31367 4.37058 6.02461
# Velocity P-wave (km/s) = 9.97471 7.85801 8.97895
#
# Compressibility (1/GPa) = 0.01471192
#
# Stress axis : x y z
#
# Youngs Moduli (GPa) = 152.29290 112.64866 220.75175
#
# Poissons Ratio (x) = 0.02828 0.52476
# Poissons Ratio (y) = 0.03823 0.00057
# Poissons Ratio (z) = 0.36202 0.00029
#
# Static dielectric constant tensor:
#      x y z
#    x 1.913590 0.000000 0.000000 
#    y 0.000000 2.018270 0.000000 
#    z 0.000000 0.000000 1.940040 
# 
# From -- ./inp_files/2073.got.cif
#   From: 2010.05.17/outbox.cif.g08.bks.cpg/sg73_2_cif.got.tgz:2073.got - 2010.06.03 17:35:07.
