data_PCOD9529323
_publ_section_title
;
Structure prediction by ZEFSAII (Michael W. Deem and Ramdas Pophale) SiO2 
 PCOD9529323
Probable space group: I B A M
;
_chemical_formula_sum "Si O2"
_cell_formula_units_Z 72
_cell_length_a 14.434513
_cell_length_b 9.705309
_cell_length_c 22.933452
_cell_angle_alpha 90.000000
_cell_angle_beta 90.000000
_cell_angle_gamma 90.000000
_cell_volume 3212.779602
_symmetry_space_group_name_H-M "I B A M"
_symmetry_group_IT_number 72
_symmetry_cell_setting 'orthorhombic'
loop_
_space_group_symop_operation_xyz
x,y,z
-x,-y,z
x,-y,1/2-z
-x,y,1/2-z
-x,-y,-z
x,y,-z
-x,y,1/2+z
x,-y,1/2+z
1/2+x,1/2+y,1/2+z
1/2-x,1/2-y,1/2+z
1/2+x,1/2-y,-z
1/2-x,1/2+y,-z
1/2-x,1/2-y,1/2-z
1/2+x,1/2+y,1/2-z
1/2-x,1/2+y,z
1/2+x,1/2-y,z
loop_
_atom_site_type_symbol
_atom_site_label
_atom_site_fract_x
_atom_site_fract_y
_atom_site_fract_z
Si Si1 0.868427 0.554729 0.370757
Si Si2 0.797440 0.134638 0.288608
Si Si3 0.000000 0.000000 0.908240
Si Si4 0.841861 0.354803 0.000000
Si Si5 0.465938 0.777041 0.842136
Si Si6 0.343195 0.470723 0.000000
O O1 0.767239 0.594922 0.345003
O O2 0.886409 0.605618 0.437298
O O3 0.895180 0.392633 0.369199
O O4 0.943098 0.632275 0.329213
O O5 0.750000 0.250000 0.250000
O O6 0.898893 0.195268 0.299382
O O7 0.803698 0.000000 0.250000
O O8 0.092893 0.008404 0.945747
O O9 0.005342 0.853165 0.877370
O O10 0.824813 0.191976 0.000000
O O11 0.748557 0.442193 0.000000
#
# Coordination Sequence:
#
# PCOD9529323 Si02
#       6
#    16  16   8   8  16   8
#     4  11  27  49  74 117 156 204 258 318 400 469
#     4  12  27  51  79 110 151 203 266 325 391 461
#     4  11  24  46  67 108 152 194 263 313 372 464
#     4  12  26  46  77 110 158 206 249 313 392 470
#     4  11  26  48  77 107 153 198 255 325 390 460
#     4  11  26  41  70 106 155 207 254 304 376 462
#
# _framework density 22.410501
#
# number of rings (size 3 to 8) (size 9 to 14) (size 15 to 20)
#    0.000    0.667    4.444    1.333    9.333    3.556 
#    0.000    0.000    0.000    0.000    0.000    0.000 
#    0.000    0.000    0.000    0.000    0.000    0.000 
#
# Total GULP energy -200868.498972 kJ/mol
# GULP energy per Si atom -5579.680527 kJ/mol
# Density = 2.235949 g / cm^3
# Si number density = 22.410501 Si / 1000 Ang^3
#
#
#
# Elastic Constant Matrix: (Units=GPa)
#
#
# Indices 1 2 3 4 5 6 
#
# 1 78.2131 12.8159 19.8263 0.0000 0.0000 0.0000
# 2 12.8159 137.3787 0.4288 0.0000 0.0000 0.0000
# 3 19.8263 0.4288 50.0149 0.0000 0.0000 0.0000
# 4 0.0000 0.0000 0.0000 25.6065 0.0000 0.0000
# 5 0.0000 0.0000 0.0000 0.0000 77.2969 0.0000
# 6 0.0000 0.0000 0.0000 0.0000 0.0000 45.5340
#
#
#
# Elastic Compliance Matrix: (Units=1/GPa)
#
#
# Indices 1 2 3 4 5 6 
#
# 1 0.014453 -0.001330 -0.005718 0.000000 0.000000 0.000000
# 2 -0.001330 0.007402 0.000464 0.000000 0.000000 0.000000
# 3 -0.005718 0.000464 0.022257 0.000000 0.000000 0.000000
# 4 0.000000 0.000000 0.000000 0.039053 0.000000 0.000000
# 5 0.000000 0.000000 0.000000 0.000000 0.012937 0.000000
# 6 0.000000 0.000000 0.000000 0.000000 0.000000 0.021962
#
#
# Mechanical properties :
#
#
# Convention : Reuss Voigt Hill
#
# Bulk Modulus (GPa) = 32.31779 36.86098 34.58938
# Shear Modulus (GPa) = 35.32423 45.18985 40.25704
#
# Velocity S-wave (km/s) = 3.97449 4.49537 4.24293
# Velocity P-wave (km/s) = 5.95938 6.59001 6.28261
#
# Compressibility (1/GPa) = 0.03094271
#
# Stress axis : x y z
#
# Youngs Moduli (GPa) = 69.18972 135.10195 44.93037
#
# Poissons Ratio (x) = 0.17975 0.25691
# Poissons Ratio (y) = 0.09205 -0.02085
# Poissons Ratio (z) = 0.39562 -0.06268
#
# Static dielectric constant tensor:
#      x y z
#    x 1.745620 0.000000 0.000000 
#    y 0.000000 3.810960 0.000000 
#    z 0.000000 0.000000 2.135950 
# 
# From -- ./inp_files/48493.got.cif
#   From: 2010.05.17/outbox.cif.g08.bks.cpg/sg72_25_cif.got.tgz:48493.got - 2010.06.03 17:03:01.
