data_PCOD9529820
_publ_section_title
;
Structure prediction by ZEFSAII (Michael W. Deem and Ramdas Pophale) SiO2 
 PCOD9529820
Probable space group: I B C A 
;
_chemical_formula_sum "Si O2"
_cell_formula_units_Z 96
_cell_length_a 8.963572
_cell_length_b 20.392359
_cell_length_c 24.974909
_cell_angle_alpha 90.000000
_cell_angle_beta 90.000000
_cell_angle_gamma 90.000000
_cell_volume 4565.123110
_symmetry_space_group_name_H-M "I B C A "
_symmetry_group_IT_number 73
_symmetry_cell_setting 'orthorhombic'
loop_
_space_group_symop_operation_xyz
x,y,z
-x,1/2-y,z
x,-y,1/2-z
1/2-x,y,-z
-x,-y,-z
x,1/2+y,-z
-x,y,1/2+z
1/2+x,-y,z
1/2+x,1/2+y,1/2+z
1/2-x,-y,1/2+z
1/2+x,1/2-y,-z
-x,1/2+y,1/2-z
1/2-x,1/2-y,1/2-z
1/2+x,y,1/2-z
1/2-x,1/2+y,z
x,1/2-y,1/2+z
loop_
_atom_site_type_symbol
_atom_site_label
_atom_site_fract_x
_atom_site_fract_y
_atom_site_fract_z
Si Si1 0.843978 0.490272 0.815810
Si Si2 0.375060 0.702773 0.272679
Si Si3 0.890294 0.066313 0.567638
Si Si4 0.534205 0.078303 0.546040
Si Si5 0.435420 0.594233 0.191616
Si Si6 0.375006 0.593098 0.358096
O O1 0.715477 0.444280 0.792887
O O2 0.749936 0.535996 0.858105
O O3 0.932664 0.548530 0.786939
O O4 0.974793 0.443338 0.836940
O O5 0.500000 0.750000 0.296835
O O6 0.250000 0.750000 0.250000
O O7 0.437912 0.662417 0.221757
O O8 0.329199 0.649252 0.316705
O O9 0.709889 0.071967 0.561874
O O10 0.962660 0.100826 0.515526
O O11 0.934761 0.092611 0.626551
O O12 0.954313 0.992739 0.556396
O O13 0.431605 0.121104 0.585471
#
# Coordination Sequence:
#
# PCOD9529820 Si02
#       6
#    16  16  16  16  16  16
#     4  10  20  33  59  92 112 152 180 245 324 353
#     4  12  28  43  58  79 112 171 217 254 292 341
#     4  10  18  31  54  89 124 149 177 229 307 376
#     4  10  18  31  54  89 124 149 178 229 307 377
#     4  11  20  38  57  86 122 150 195 246 300 372
#     4  11  20  38  57  86 124 149 199 244 300 373
#
# _framework density 21.029005999999999
#
# number of rings (size 3 to 8) (size 9 to 14) (size 15 to 20)
#    0.000    1.333    5.000    2.000    0.000    4.000 
#    0.000    0.000    0.000    1.000    0.000    0.000 
#    0.000    0.000    0.000    0.000    0.000    0.000 
#
# Total GULP energy -267594.002396 kJ/mol
# GULP energy per Si atom -5574.875050 kJ/mol
# Density = 2.098114 g / cm^3
# Si number density = 21.029006 Si / 1000 Ang^3
#
#
#
# Elastic Constant Matrix: (Units=GPa)
#
#
# Indices 1 2 3 4 5 6 
#
# 1 81.5272 9.1029 -0.3539 0.0000 0.0000 0.0000
# 2 9.1029 72.2999 27.5250 0.0000 0.0000 0.0000
# 3 -0.3539 27.5250 140.1757 0.0000 0.0000 0.0000
# 4 0.0000 0.0000 0.0000 14.5757 0.0000 0.0000
# 5 0.0000 0.0000 0.0000 0.0000 30.0242 0.0000
# 6 0.0000 0.0000 0.0000 0.0000 0.0000 33.2158
#
#
#
# Elastic Compliance Matrix: (Units=1/GPa)
#
#
# Indices 1 2 3 4 5 6 
#
# 1 0.012458 -0.001708 0.000367 0.000000 0.000000 0.000000
# 2 -0.001708 0.015183 -0.002986 0.000000 0.000000 0.000000
# 3 0.000367 -0.002986 0.007721 0.000000 0.000000 0.000000
# 4 0.000000 0.000000 0.000000 0.068607 0.000000 0.000000
# 5 0.000000 0.000000 0.000000 0.000000 0.033306 0.000000
# 6 0.000000 0.000000 0.000000 0.000000 0.000000 0.030106
#
#
# Mechanical properties :
#
#
# Convention : Reuss Voigt Hill
#
# Bulk Modulus (GPa) = 37.44159 40.72789 39.08474
# Shear Modulus (GPa) = 27.03593 32.74506 29.89049
#
# Velocity S-wave (km/s) = 3.58949 3.95034 3.77423
# Velocity P-wave (km/s) = 5.91799 6.34164 6.13347
#
# Compressibility (1/GPa) = 0.02670827
#
# Stress axis : x y z
#
# Youngs Moduli (GPa) = 80.26856 65.86310 129.51525
#
# Poissons Ratio (x) = 0.11251 -0.04752
# Poissons Ratio (y) = 0.13712 0.38669
# Poissons Ratio (z) = -0.02945 0.19665
#
# Static dielectric constant tensor:
#      x y z
#    x 1.797170 0.000000 0.000000 
#    y 0.000000 1.713160 0.000000 
#    z 0.000000 0.000000 2.033800 
# 
# From -- ./inp_files/31185.got.cif
#   From: 2010.05.17/outbox.cif.g08.bks.cpg/sg73_16_cif.got.tgz:31185.got - 2010.06.03 17:35:07.
