data_PCOD9529289
_publ_section_title
;
Structure prediction by ZEFSAII (Michael W. Deem and Ramdas Pophale) SiO2 
 PCOD9529289
Probable space group: I B A M
;
_chemical_formula_sum "Si O2"
_cell_formula_units_Z 96
_cell_length_a 26.030343
_cell_length_b 20.923026
_cell_length_c 9.808171
_cell_angle_alpha 90.000000
_cell_angle_beta 90.000000
_cell_angle_gamma 90.000000
_cell_volume 5341.858926
_symmetry_space_group_name_H-M "I B A M"
_symmetry_group_IT_number 72
_symmetry_cell_setting 'orthorhombic'
loop_
_space_group_symop_operation_xyz
x,y,z
-x,-y,z
x,-y,1/2-z
-x,y,1/2-z
-x,-y,-z
x,y,-z
-x,y,1/2+z
x,-y,1/2+z
1/2+x,1/2+y,1/2+z
1/2-x,1/2-y,1/2+z
1/2+x,1/2-y,-z
1/2-x,1/2+y,-z
1/2-x,1/2-y,1/2-z
1/2+x,1/2+y,1/2-z
1/2-x,1/2+y,z
1/2+x,1/2-y,z
loop_
_atom_site_type_symbol
_atom_site_label
_atom_site_fract_x
_atom_site_fract_y
_atom_site_fract_z
Si Si1 0.378334 0.591797 0.500000
Si Si2 0.612258 0.243179 0.162261
Si Si3 0.252376 0.059507 0.150426
Si Si4 0.932058 0.955978 0.000000
Si Si5 0.642016 0.391242 0.200184
Si Si6 0.484118 0.641621 0.500000
Si Si7 0.789865 0.703327 0.667039
Si Si8 0.500000 0.731577 0.750000
O O1 0.410315 0.526702 0.500000
O O2 0.349206 0.600054 0.360550
O O3 0.423130 0.643421 0.500000
O O4 0.630463 0.317775 0.165912
O O5 0.654959 0.211884 0.260501
O O6 0.555108 0.233782 0.227858
O O7 0.612556 0.224755 0.000000
O O8 0.191789 0.075159 0.140026
O O9 0.274489 0.129198 0.188388
O O10 0.261063 0.000000 0.250000
O O11 0.271885 0.042426 0.000000
O O12 0.906997 0.926760 0.137390
O O13 0.989411 0.927938 0.000000
O O14 0.500972 0.682917 0.625831
O O15 0.789181 0.715528 0.500000
O O16 0.750000 0.750000 0.750000
#
# Coordination Sequence:
#
# PCOD9529289 Si02
#       8
#     8  16  16   8  16   8  16   8
#     4  12  25  32  50  76 105 155 214 252 303 353
#     4  12  23  41  62  83 122 161 200 257 310 360
#     4  11  24  42  62  89 121 157 199 246 299 364
#     4  12  21  38  48  70 109 155 202 256 301 349
#     4  12  22  36  54  78 111 153 200 249 301 350
#     4  12  21  36  52  74 104 152 205 260 304 356
#     4  11  25  41  65  95 126 160 206 256 309 369
#     4  12  22  38  59  82 113 154 204 256 312 360
#
# _framework density 17.971271999999999
#
# number of rings (size 3 to 8) (size 9 to 14) (size 15 to 20)
#    0.000    0.333    7.500    2.250    3.500    1.333 
#    0.000    2.500    0.000    0.000    0.000    0.583 
#    0.000    4.000    0.000    0.000    0.000    0.000 
#
# Total GULP energy -267462.080006 kJ/mol
# GULP energy per Si atom -5572.126667 kJ/mol
# Density = 1.793037 g / cm^3
# Si number density = 17.971272 Si / 1000 Ang^3
#
#
#
# Elastic Constant Matrix: (Units=GPa)
#
#
# Indices 1 2 3 4 5 6 
#
# 1 88.4609 31.8248 44.5761 0.0000 0.0000 0.0000
# 2 31.8248 78.5544 46.6234 0.0000 0.0000 0.0000
# 3 44.5761 46.6234 146.3970 0.0000 0.0000 0.0000
# 4 0.0000 0.0000 0.0000 25.9364 0.0000 0.0000
# 5 0.0000 0.0000 0.0000 0.0000 25.2093 0.0000
# 6 0.0000 0.0000 0.0000 0.0000 0.0000 14.4225
#
#
#
# Elastic Compliance Matrix: (Units=1/GPa)
#
#
# Indices 1 2 3 4 5 6 
#
# 1 0.014284 -0.003953 -0.003090 0.000000 0.000000 0.000000
# 2 -0.003953 0.016791 -0.004144 0.000000 0.000000 0.000000
# 3 -0.003090 -0.004144 0.009091 0.000000 0.000000 0.000000
# 4 0.000000 0.000000 0.000000 0.038556 0.000000 0.000000
# 5 0.000000 0.000000 0.000000 0.000000 0.039668 0.000000
# 6 0.000000 0.000000 0.000000 0.000000 0.000000 0.069336
#
#
# Mechanical properties :
#
#
# Convention : Reuss Voigt Hill
#
# Bulk Modulus (GPa) = 56.20439 62.16231 59.18335
# Shear Modulus (GPa) = 23.14490 25.80617 24.47554
#
# Velocity S-wave (km/s) = 3.59260 3.79353 3.69443
# Velocity P-wave (km/s) = 6.96789 7.33844 7.15557
#
# Compressibility (1/GPa) = 0.01779220
#
# Stress axis : x y z
#
# Youngs Moduli (GPa) = 70.00994 59.55636 109.99332
#
# Poissons Ratio (x) = 0.23540 0.33993
# Poissons Ratio (y) = 0.27672 0.45580
# Poissons Ratio (z) = 0.21636 0.24680
#
# Static dielectric constant tensor:
#      x y z
#    x 1.658200 0.000000 0.000000 
#    y 0.000000 1.613960 0.000000 
#    z 0.000000 0.000000 1.591090 
# 
# From -- ./inp_files/7032.got.cif
#   From: 2010.05.17/outbox.cif.g08.bks.cpg/sg72_4_cif.got.tgz:7032.got - 2010.06.03 17:03:01.
