data_PCOD9529533
_publ_section_title
;
Structure prediction by ZEFSAII (Michael W. Deem and Ramdas Pophale) SiO2 
 PCOD9529533
Probable space group: I B A M
;
_chemical_formula_sum "Si O2"
_cell_formula_units_Z 48
_cell_length_a 24.000000
_cell_length_b 12.000000
_cell_length_c 18.000000
_cell_angle_alpha 90.000000
_cell_angle_beta 90.000000
_cell_angle_gamma 90.000000
_cell_volume 5184.000000
_symmetry_space_group_name_H-M "I B A M"
_symmetry_group_IT_number 72
_symmetry_cell_setting 'orthorhombic'
loop_
_space_group_symop_operation_xyz
x,y,z
-x,-y,z
x,-y,1/2-z
-x,y,1/2-z
-x,-y,-z
x,y,-z
-x,y,1/2+z
x,-y,1/2+z
1/2+x,1/2+y,1/2+z
1/2-x,1/2-y,1/2+z
1/2+x,1/2-y,-z
1/2-x,1/2+y,-z
1/2-x,1/2-y,1/2-z
1/2+x,1/2+y,1/2-z
1/2-x,1/2+y,z
1/2+x,1/2-y,z
loop_
_atom_site_type_symbol
_atom_site_label
_atom_site_fract_x
_atom_site_fract_y
_atom_site_fract_z
Si Si1 0.556664 0.939169 0.409893
Si Si2 0.254323 0.624512 0.208248
Si Si3 0.594786 0.664994 0.913266
Si Si4 0.966817 0.816313 0.910094
Si Si5 0.873312 0.960704 0.168744
Si Si6 0.155853 0.400189 0.588320
O O1 0.556210 0.947351 0.500000
O O2 0.550822 0.809843 0.390578
O O3 0.500000 0.000000 0.383583
O O4 0.614261 0.999321 0.387539
O O5 0.247726 0.500000 0.250000
O O6 0.250000 0.750000 0.250000
O O7 0.317425 0.612302 0.176999
O O8 0.208406 0.617606 0.142441
O O9 0.530666 0.661137 0.886194
O O10 0.635071 0.577046 0.874164
O O11 0.618058 0.789316 0.906301
O O12 0.593100 0.636674 0.000000
O O13 0.922489 0.897495 0.873258
O O14 0.965158 0.826698 0.000000
O O15 0.891464 0.000000 0.250000
O O16 0.170726 0.414276 0.500000
#
# Coordination Sequence:
#
# PCOD9529533 Si02
#       6
#    16  16  16  16  16  16
#     4   9  16  32  58  91 124 152 187 246 310 363
#     4  11  26  47  65  84 125 173 212 259 321 369
#     4  10  20  38  62  91 126 158 190 246 314 372
#     4  10  20  35  61  93 124 154 192 243 310 374
#     4  11  24  40  59  82 117 164 208 247 300 362
#     4  10  20  37  66  94 119 157 208 256 302 362
#
# _framework density 9.2592590000000001
#
# number of rings (size 3 to 8) (size 9 to 14) (size 15 to 20)
#    0.000    1.833    1.667    3.000    2.333    4.000 
#    0.000    0.833    0.000    0.500    0.000    0.000 
#    0.000    0.000    0.000    0.000    0.000    0.000 
#
# Total GULP energy -267513.623870 kJ/mol
# GULP energy per Si atom -5573.200497 kJ/mol
# Density = 0.923818 g / cm^3
# Si number density = 9.259259 Si / 1000 Ang^3
#
#
#
# Elastic Constant Matrix: (Units=GPa)
#
#
# Indices 1 2 3 4 5 6 
#
# 1 91.6835 29.1499 42.1830 0.0000 0.0000 0.0000
# 2 29.1499 96.1706 27.3707 0.0000 0.0000 0.0000
# 3 42.1830 27.3707 44.5562 0.0000 0.0000 0.0000
# 4 0.0000 0.0000 0.0000 30.3613 0.0000 0.0000
# 5 0.0000 0.0000 0.0000 0.0000 62.6460 0.0000
# 6 0.0000 0.0000 0.0000 0.0000 0.0000 38.1696
#
#
#
# Elastic Compliance Matrix: (Units=1/GPa)
#
#
# Indices 1 2 3 4 5 6 
#
# 1 0.019374 -0.000790 -0.017857 0.000000 0.000000 0.000000
# 2 -0.000790 0.012634 -0.007013 0.000000 0.000000 0.000000
# 3 -0.017857 -0.007013 0.043657 0.000000 0.000000 0.000000
# 4 0.000000 0.000000 0.000000 0.032937 0.000000 0.000000
# 5 0.000000 0.000000 0.000000 0.000000 0.015963 0.000000
# 6 0.000000 0.000000 0.000000 0.000000 0.000000 0.026199
#
#
# Mechanical properties :
#
#
# Convention : Reuss Voigt Hill
#
# Bulk Modulus (GPa) = 41.07535 47.75751 44.41643
# Shear Modulus (GPa) = 23.78718 35.14917 29.46818
#
# Velocity S-wave (km/s) = 3.58789 4.36139 3.99341
# Velocity P-wave (km/s) = 6.27637 7.15593 6.73053
#
# Compressibility (1/GPa) = 0.02434550
#
# Stress axis : x y z
#
# Youngs Moduli (GPa) = 51.61521 79.15438 22.90584
#
# Poissons Ratio (x) = 0.06255 0.40902
# Poissons Ratio (y) = 0.04079 0.16063
# Poissons Ratio (z) = 0.92168 0.55507
#
# Static dielectric constant tensor:
#      x y z
#    x 1.623330 0.000000 0.000000 
#    y 0.000000 1.677610 0.000000 
#    z 0.000000 0.000000 1.662100 
# 
# From -- ./inp_files/33272.got.cif
#   From: 2010.05.17/outbox.ucp.g08.bks.cvg/sg72_17_cif.got.tgz:33272.got - 2010.06.11 16:33:07.
