data_PCOD9529887
_publ_section_title
;
Structure prediction by ZEFSAII (Michael W. Deem and Ramdas Pophale) SiO2 
 PCOD9529887
Probable space group: I B C A 
;
_chemical_formula_sum "Si O2"
_cell_formula_units_Z 104
_cell_length_a 16.570290
_cell_length_b 31.731828
_cell_length_c 7.928071
_cell_angle_alpha 90.000000
_cell_angle_beta 90.000000
_cell_angle_gamma 90.000000
_cell_volume 4168.624067
_symmetry_space_group_name_H-M "I B C A "
_symmetry_group_IT_number 73
_symmetry_cell_setting 'orthorhombic'
loop_
_space_group_symop_operation_xyz
x,y,z
-x,1/2-y,z
x,-y,1/2-z
1/2-x,y,-z
-x,-y,-z
x,1/2+y,-z
-x,y,1/2+z
1/2+x,-y,z
1/2+x,1/2+y,1/2+z
1/2-x,-y,1/2+z
1/2+x,1/2-y,-z
-x,1/2+y,1/2-z
1/2-x,1/2-y,1/2-z
1/2+x,y,1/2-z
1/2-x,1/2+y,z
x,1/2-y,1/2+z
loop_
_atom_site_type_symbol
_atom_site_label
_atom_site_fract_x
_atom_site_fract_y
_atom_site_fract_z
Si Si1 0.402936 0.791188 0.622333
Si Si2 0.051654 0.063544 0.313709
Si Si3 0.547385 0.377076 0.981124
Si Si4 0.325086 0.124463 0.282133
Si Si5 0.344650 0.707367 0.501813
Si Si6 0.250000 0.166368 0.000000
Si Si7 0.382426 0.462955 0.863007
O O1 0.464312 0.829541 0.584909
O O2 0.404991 0.741198 0.590172
O O3 0.328470 0.804902 0.502108
O O4 0.376166 0.796040 0.813474
O O5 0.084644 0.090438 0.156071
O O6 0.096341 0.030368 0.437630
O O7 0.031947 0.100139 0.451061
O O8 0.967328 0.045498 0.239317
O O9 0.603565 0.375755 0.144242
O O10 0.339976 0.162289 0.409544
O O11 0.249519 0.138153 0.167070
O O12 0.325014 0.077884 0.354713
O O13 0.250000 0.721650 0.500000
O O14 0.344931 0.500000 0.750000
#
# Coordination Sequence:
#
# PCOD9529887 Si02
#       7
#    16  16  16  16  16   8  16
#     4  11  20  32  54  82 113 141 183 228 269 322
#     4   9  18  35  57  83 109 141 185 228 283 327
#     4   9  19  34  56  81 111 146 179 230 278 331
#     4  10  21  34  54  79 110 144 180 227 283 323
#     4  12  21  34  55  83 112 146 187 231 273 322
#     4  10  18  34  50  74 108 142 178 220 270 322
#     4  10  19  34  58  84 108 139 181 232 279 337
#
# _framework density 24.94828
#
# number of rings (size 3 to 8) (size 9 to 14) (size 15 to 20)
#    0.000    1.846    2.308    3.692    0.000    0.000 
#    0.000    0.000    1.692   31.385    0.000    0.000 
#    0.000    0.000    0.000    0.000    0.000    0.000 
#
# Total GULP energy -290231.497312 kJ/mol
# GULP energy per Si atom -5581.374948 kJ/mol
# Density = 2.489150 g / cm^3
# Si number density = 24.948280 Si / 1000 Ang^3
#
#
#
# Elastic Constant Matrix: (Units=GPa)
#
#
# Indices 1 2 3 4 5 6 
#
# 1 11.5978 15.3842 -3.9454 0.0047 -0.0001 0.0025
# 2 15.3842 123.0817 25.3573 0.1355 -0.0085 -0.0083
# 3 -3.9454 25.3573 123.6368 -0.0471 -0.0016 0.0821
# 4 0.0047 0.1355 -0.0471 -232.6547 -0.0410 1.0456
# 5 -0.0001 -0.0085 -0.0016 -0.0410 19.0651 -0.0070
# 6 0.0025 -0.0083 0.0821 1.0456 -0.0070 7.4155
#
#
#
# Elastic Compliance Matrix: (Units=1/GPa)
#
#
# Indices 1 2 3 4 5 6 
#
# 1 0.108138 -0.014855 0.006498 -0.000008 -0.000005 -0.000124
# 2 -0.014855 0.010524 -0.002632 0.000007 0.000004 0.000045
# 3 0.006498 -0.002632 0.008836 -0.000004 0.000000 -0.000102
# 4 -0.000008 0.000007 -0.000004 -0.004295 -0.000009 0.000606
# 5 -0.000005 0.000004 0.000000 -0.000009 0.052452 0.000050
# 6 -0.000124 0.000045 -0.000102 0.000606 0.000050 0.134768
#
#
# Mechanical properties :
#
#
# Convention : Reuss Voigt Hill
#
# Bulk Modulus (GPa) = 9.47709 36.87871 23.17790
# Shear Modulus (GPa) = 13.60272 -26.46678 -6.43203
#
# Velocity S-wave (km/s) = 2.33756 -3.26063 -1.60740
# Velocity P-wave (km/s) = 3.33055 0.79910 2.42189
#
# Compressibility (1/GPa) = 0.10551759
#
# Stress axis : x y z
#
# Youngs Moduli (GPa) = 9.24744 95.02303 113.17952
#
# Poissons Ratio (x) = 1.41156 -0.73539
# Poissons Ratio (y) = 0.13737 0.29794
# Poissons Ratio (z) = -0.06009 0.25014
#
# Static dielectric constant tensor:
#      x y z
#    x 2.052440 -0.000010 0.000130 
#    y -0.000010 2.136740 0.000000 
#    z 0.000130 0.000000 2.186700 
# 
# From -- ./inp_files/7310.got.cif
#   From: 2010.05.17/outbox.cif.g08.bks.cpg/sg73_4_cif.got.tgz:7310.got - 2010.06.03 17:35:07.
