data_PCOD9529846
_publ_section_title
;
Structure prediction by ZEFSAII (Michael W. Deem and Ramdas Pophale) SiO2 
 PCOD9529846
Probable space group: I B C A 
;
_chemical_formula_sum "Si O2"
_cell_formula_units_Z 104
_cell_length_a 17.877433
_cell_length_b 19.573823
_cell_length_c 14.489561
_cell_angle_alpha 90.000000
_cell_angle_beta 90.000000
_cell_angle_gamma 90.000000
_cell_volume 5070.327868
_symmetry_space_group_name_H-M "I B C A "
_symmetry_group_IT_number 73
_symmetry_cell_setting 'orthorhombic'
loop_
_space_group_symop_operation_xyz
x,y,z
-x,1/2-y,z
x,-y,1/2-z
1/2-x,y,-z
-x,-y,-z
x,1/2+y,-z
-x,y,1/2+z
1/2+x,-y,z
1/2+x,1/2+y,1/2+z
1/2-x,-y,1/2+z
1/2+x,1/2-y,-z
-x,1/2+y,1/2-z
1/2-x,1/2-y,1/2-z
1/2+x,y,1/2-z
1/2-x,1/2+y,z
x,1/2-y,1/2+z
loop_
_atom_site_type_symbol
_atom_site_label
_atom_site_fract_x
_atom_site_fract_y
_atom_site_fract_z
Si Si1 0.250000 0.631422 0.000000
Si Si2 0.895553 0.727665 0.777189
Si Si3 0.707820 0.600999 0.175458
Si Si4 0.616048 0.279571 0.968839
Si Si5 0.141217 0.834035 0.119015
Si Si6 0.657941 0.039618 0.633924
Si Si7 0.972849 0.362890 0.872883
O O1 0.307253 0.680061 0.054060
O O2 0.304519 0.582284 0.945877
O O3 0.835724 0.671678 0.812141
O O4 0.859939 0.781649 0.705921
O O5 0.954472 0.685111 0.715397
O O6 0.920559 0.763332 0.871247
O O7 0.788300 0.616986 0.132702
O O8 0.704393 0.567456 0.277509
O O9 0.665335 0.541021 0.120164
O O10 0.640745 0.213171 0.027763
O O11 0.562278 0.322456 0.038547
O O12 0.060992 0.871231 0.118465
O O13 0.573705 0.067747 0.642268
#
# Coordination Sequence:
#
# PCOD9529846 Si02
#       7
#     8  16  16  16  16  16  16
#     4  10  18  32  56  78 104 142 188 226 264 320
#     4  10  19  34  57  84 112 143 179 225 276 325
#     4  10  20  36  56  79 110 143 187 229 266 321
#     4  10  19  32  54  83 110 138 177 227 277 319
#     4  11  21  34  56  85 112 140 179 232 283 325
#     4   9  20  38  55  75 106 151 186 219 267 327
#     4   9  21  37  54  78 113 146 177 221 277 334
#
# _framework density 20.511493999999999
#
# number of rings (size 3 to 8) (size 9 to 14) (size 15 to 20)
#    0.000    2.154    0.000    5.077    0.000    3.692 
#    0.000    6.154    0.000    4.615    0.000    0.000 
#    0.000    0.000    0.000    0.000    0.000    0.000 
#
# Total GULP energy -290115.887955 kJ/mol
# GULP energy per Si atom -5579.151691 kJ/mol
# Density = 2.046481 g / cm^3
# Si number density = 20.511494 Si / 1000 Ang^3
#
#
#
# Elastic Constant Matrix: (Units=GPa)
#
#
# Indices 1 2 3 4 5 6 
#
# 1 71.8022 40.6951 -16.6065 0.0000 0.0000 0.0000
# 2 40.6951 91.2050 9.7677 0.0000 0.0000 0.0000
# 3 -16.6065 9.7677 83.5457 0.0000 0.0000 0.0000
# 4 0.0000 0.0000 0.0000 8.2064 0.0000 0.0000
# 5 0.0000 0.0000 0.0000 0.0000 7.3303 0.0000
# 6 0.0000 0.0000 0.0000 0.0000 0.0000 22.1506
#
#
#
# Elastic Compliance Matrix: (Units=1/GPa)
#
#
# Indices 1 2 3 4 5 6 
#
# 1 0.020697 -0.009798 0.005259 0.000000 0.000000 0.000000
# 2 -0.009798 0.015742 -0.003788 0.000000 0.000000 0.000000
# 3 0.005259 -0.003788 0.013458 0.000000 0.000000 0.000000
# 4 0.000000 0.000000 0.000000 0.121855 0.000000 0.000000
# 5 0.000000 0.000000 0.000000 0.000000 0.136420 0.000000
# 6 0.000000 0.000000 0.000000 0.000000 0.000000 0.045145
#
#
# Mechanical properties :
#
#
# Convention : Reuss Voigt Hill
#
# Bulk Modulus (GPa) = 30.08132 34.91837 32.49985
# Shear Modulus (GPa) = 13.12159 21.71725 17.41942
#
# Velocity S-wave (km/s) = 2.53201 3.25743 2.91735
# Velocity P-wave (km/s) = 4.82136 5.58646 5.21795
#
# Compressibility (1/GPa) = 0.03324322
#
# Stress axis : x y z
#
# Youngs Moduli (GPa) = 48.31666 63.52502 74.30634
#
# Poissons Ratio (x) = 0.62242 -0.39081
# Poissons Ratio (y) = 0.47341 0.28147
# Poissons Ratio (z) = -0.25412 0.24063
#
# Static dielectric constant tensor:
#      x y z
#    x 1.834190 0.000000 0.000000 
#    y 0.000000 1.784660 0.000000 
#    z 0.000000 0.000000 1.768190 
# 
# From -- ./inp_files/18119.got.cif
#   From: 2010.05.17/outbox.cif.g08.bks.cpg/sg73_10_cif.got.tgz:18119.got - 2010.06.03 17:35:07.
