data_PCOD9529498
_publ_section_title
;
Structure prediction by ZEFSAII (Michael W. Deem and Ramdas Pophale) SiO2 
 PCOD9529498
Probable space group: I B A M
;
_chemical_formula_sum "Si O2"
_cell_formula_units_Z 58
_cell_length_a 9.000000
_cell_length_b 27.000000
_cell_length_c 24.000000
_cell_angle_alpha 90.000000
_cell_angle_beta 90.000000
_cell_angle_gamma 90.000000
_cell_volume 5832.000000
_symmetry_space_group_name_H-M "I B A M"
_symmetry_group_IT_number 72
_symmetry_cell_setting 'orthorhombic'
loop_
_space_group_symop_operation_xyz
x,y,z
-x,-y,z
x,-y,1/2-z
-x,y,1/2-z
-x,-y,-z
x,y,-z
-x,y,1/2+z
x,-y,1/2+z
1/2+x,1/2+y,1/2+z
1/2-x,1/2-y,1/2+z
1/2+x,1/2-y,-z
1/2-x,1/2+y,-z
1/2-x,1/2-y,1/2-z
1/2+x,1/2+y,1/2-z
1/2-x,1/2+y,z
1/2+x,1/2-y,z
loop_
_atom_site_type_symbol
_atom_site_label
_atom_site_fract_x
_atom_site_fract_y
_atom_site_fract_z
Si Si1 0.611690 0.136373 0.793870
Si Si2 0.673659 0.481632 0.061837
Si Si3 0.648749 0.317269 0.787333
Si Si4 0.123541 0.722602 0.366416
Si Si5 0.311745 0.554532 0.344141
Si Si6 0.582782 0.289830 0.436365
Si Si7 0.419353 0.382363 0.392544
Si Si8 0.500000 0.500000 0.250000
O O1 0.500000 0.114434 0.750000
O O2 0.725963 0.168614 0.756739
O O3 0.546381 0.176550 0.836177
O O4 0.687266 0.092134 0.825800
O O5 0.500000 0.500000 0.060694
O O6 0.740149 0.512553 0.112891
O O7 0.678171 0.423484 0.076525
O O8 0.733822 0.491334 0.000000
O O9 0.500000 0.317077 0.750000
O O10 0.657835 0.265680 0.821062
O O11 0.644460 0.358718 0.835891
O O12 0.276183 0.705421 0.395430
O O13 0.015115 0.745107 0.412522
O O14 0.435112 0.587580 0.374461
O O15 0.394640 0.531431 0.290717
O O16 0.629147 0.282807 0.500000
O O17 0.476658 0.337525 0.430379
#
# Coordination Sequence:
#
# PCOD9529498 Si02
#       8
#    16  16  16  16  16  16  16   4
#     4  12  23  37  55  86 123 156 190 243 305 369
#     4   9  18  32  54  86 117 144 186 245 298 348
#     4  11  20  35  60  83 112 154 199 241 293 353
#     4  11  22  38  55  83 116 156 201 243 293 364
#     4  11  20  34  57  88 116 155 191 241 303 359
#     4  11  22  37  58  84 118 156 201 253 300 349
#     4  10  18  35  57  87 113 146 198 246 295 353
#     4  12  20  36  64  84 128 148 198 254 304 352
#
# _framework density 9.9451300000000007
#
# number of rings (size 3 to 8) (size 9 to 14) (size 15 to 20)
#    0.000    1.241    4.828    4.138    0.000    0.552 
#    0.000    0.345    0.000    0.000    0.000    0.966 
#    0.000    0.000    0.000    0.000    0.000    0.000 
#
# Total GULP energy -323758.932916 kJ/mol
# GULP energy per Si atom -5582.050568 kJ/mol
# Density = 0.992249 g / cm^3
# Si number density = 9.945130 Si / 1000 Ang^3
#
#
#
# Elastic Constant Matrix: (Units=GPa)
#
#
# Indices 1 2 3 4 5 6 
#
# 1 -0.0132 0.2905 6.8583 0.0000 0.0000 0.0000
# 2 0.2905 87.8514 48.5692 0.0000 0.0000 0.0000
# 3 6.8583 48.5692 121.9093 0.0000 0.0000 0.0000
# 4 0.0000 0.0000 0.0000 7.3177 0.0000 0.0000
# 5 0.0000 0.0000 0.0000 0.0000 16.5440 0.0000
# 6 0.0000 0.0000 0.0000 0.0000 0.0000 4.3693
#
#
#
# Elastic Compliance Matrix: (Units=1/GPa)
#
#
# Indices 1 2 3 4 5 6 
#
# 1 -2.057145 -0.073331 0.144944 0.000000 0.000000 0.000000
# 2 -0.073331 0.011984 -0.000649 0.000000 0.000000 0.000000
# 3 0.144944 -0.000649 0.000307 0.000000 0.000000 0.000000
# 4 0.000000 0.000000 0.000000 0.136655 0.000000 0.000000
# 5 0.000000 0.000000 0.000000 0.000000 0.060445 0.000000
# 6 0.000000 0.000000 0.000000 0.000000 0.000000 0.228871
#
#
# Mechanical properties :
#
#
# Convention : Reuss Voigt Hill
#
# Bulk Modulus (GPa) = -0.52551 35.68705 17.58077
# Shear Modulus (GPa) = -2.08758 15.91482 6.91362
#
# Velocity S-wave (km/s) = -1.02559 2.83173 1.86639
# Velocity P-wave (km/s) = 1.29121 5.35467 3.67459
#
# Compressibility (1/GPa) = -1.90292522
#
# Stress axis : x y z
#
# Youngs Moduli (GPa) = -0.48611 83.44298 3254.23142
#
# Poissons Ratio (x) = 6.11899 -471.68295
# Poissons Ratio (y) = -0.03565 2.11252
# Poissons Ratio (z) = 0.07046 0.05417
#
# Static dielectric constant tensor:
#      x y z
#    x 1.709900 0.000000 0.000000 
#    y 0.000000 1.722610 0.000000 
#    z 0.000000 0.000000 1.727150 
# 
# From -- ./inp_files/42684.got.cif
#   From: 2010.05.17/outbox.ucp.g08.bks.cvg/sg72_22_cif.got.tgz:42684.got - 2010.06.11 16:33:07.
