data_PCOD9529188
_publ_section_title
;
Structure prediction by ZEFSAII (Michael W. Deem and Ramdas Pophale) SiO2 
 PCOD9529188
Probable space group: I B A M
;
_chemical_formula_sum "Si O2"
_cell_formula_units_Z 68
_cell_length_a 8.234920
_cell_length_b 21.211695
_cell_length_c 18.121610
_cell_angle_alpha 90.000000
_cell_angle_beta 90.000000
_cell_angle_gamma 90.000000
_cell_volume 3165.421428
_symmetry_space_group_name_H-M "I B A M"
_symmetry_group_IT_number 72
_symmetry_cell_setting 'orthorhombic'
loop_
_space_group_symop_operation_xyz
x,y,z
-x,-y,z
x,-y,1/2-z
-x,y,1/2-z
-x,-y,-z
x,y,-z
-x,y,1/2+z
x,-y,1/2+z
1/2+x,1/2+y,1/2+z
1/2-x,1/2-y,1/2+z
1/2+x,1/2-y,-z
1/2-x,1/2+y,-z
1/2-x,1/2-y,1/2-z
1/2+x,1/2+y,1/2-z
1/2-x,1/2+y,z
1/2+x,1/2-y,z
loop_
_atom_site_type_symbol
_atom_site_label
_atom_site_fract_x
_atom_site_fract_y
_atom_site_fract_z
Si Si1 0.772222 0.718221 0.585353
Si Si2 0.000000 0.500000 0.000000
Si Si3 0.562040 0.097731 0.369924
Si Si4 0.242930 0.929029 0.773182
Si Si5 0.043923 0.818880 0.169368
O O1 0.760602 0.735088 0.500000
O O2 0.917852 0.667571 0.596656
O O3 0.811094 0.778568 0.634909
O O4 0.604683 0.687848 0.613443
O O5 0.076993 0.546928 0.934988
O O6 0.695768 0.098634 0.304684
O O7 0.396494 0.078683 0.327887
O O8 0.103383 0.889440 0.813161
O O9 0.203440 0.000000 0.750000
O O10 0.000000 0.791501 0.250000
#
# Coordination Sequence:
#
# PCOD9529188 Si02
#       5
#    16   4  16  16  16
#     4  12  26  46  68 107 146 189 237 309 367 428
#     4  12  20  42  68 110 140 186 228 288 354 444
#     4  11  22  41  73 101 142 184 241 288 355 431
#     4  11  23  44  68 104 137 188 241 292 347 427
#     4  12  26  45  71 100 141 186 249 296 360 429
#
# _framework density 21.482133000000001
#
# number of rings (size 3 to 8) (size 9 to 14) (size 15 to 20)
#    0.000    0.471    5.882    3.529    3.294    0.471 
#    4.235    0.000    0.000    2.824    0.000    0.000 
#    0.000    0.000    0.000    0.000    0.000    0.000 
#
# Total GULP energy -189394.998870 kJ/mol
# GULP energy per Si atom -5570.441143 kJ/mol
# Density = 2.143324 g / cm^3
# Si number density = 21.482133 Si / 1000 Ang^3
#
#
#
# Elastic Constant Matrix: (Units=GPa)
#
#
# Indices 1 2 3 4 5 6 
#
# 1 79.5394 24.5128 16.1144 0.0000 0.0000 0.0000
# 2 24.5128 92.1981 2.6854 0.0000 0.0000 0.0000
# 3 16.1144 2.6854 133.2186 0.0000 0.0000 0.0000
# 4 0.0000 0.0000 0.0000 21.0960 0.0000 0.0000
# 5 0.0000 0.0000 0.0000 0.0000 22.3468 0.0000
# 6 0.0000 0.0000 0.0000 0.0000 0.0000 23.3672
#
#
#
# Elastic Compliance Matrix: (Units=1/GPa)
#
#
# Indices 1 2 3 4 5 6 
#
# 1 0.014037 -0.003685 -0.001624 0.000000 0.000000 0.000000
# 2 -0.003685 0.011820 0.000207 0.000000 0.000000 0.000000
# 3 -0.001624 0.000207 0.007699 0.000000 0.000000 0.000000
# 4 0.000000 0.000000 0.000000 0.047402 0.000000 0.000000
# 5 0.000000 0.000000 0.000000 0.000000 0.044749 0.000000
# 6 0.000000 0.000000 0.000000 0.000000 0.000000 0.042795
#
#
# Mechanical properties :
#
#
# Convention : Reuss Voigt Hill
#
# Bulk Modulus (GPa) = 42.82003 43.50904 43.16453
# Shear Modulus (GPa) = 26.81133 30.80489 28.80811
#
# Velocity S-wave (km/s) = 3.53664 3.79090 3.66598
# Velocity P-wave (km/s) = 6.05419 6.28162 6.16896
#
# Compressibility (1/GPa) = 0.02335356
#
# Stress axis : x y z
#
# Youngs Moduli (GPa) = 71.24079 84.60361 129.89238
#
# Poissons Ratio (x) = 0.31174 0.21090
# Poissons Ratio (y) = 0.26250 -0.02695
# Poissons Ratio (z) = 0.11567 -0.01755
#
# Static dielectric constant tensor:
#      x y z
#    x 1.848800 0.000000 0.000000 
#    y 0.000000 1.835130 0.000000 
#    z 0.000000 0.000000 1.730560 
# 
# From -- ./inp_files/27775.got.cif
#   From: 2010.05.17/outbox.cif.g08.bks.cpg/sg72_14_cif.got.tgz:27775.got - 2010.06.03 17:03:01.
