data_PCOD9529525
_publ_section_title
;
Structure prediction by ZEFSAII (Michael W. Deem and Ramdas Pophale) SiO2 
 PCOD9529525
Probable space group: I B A M
;
_chemical_formula_sum "Si O2"
_cell_formula_units_Z 32
_cell_length_a 21.000000
_cell_length_b 9.000000
_cell_length_c 18.000000
_cell_angle_alpha 90.000000
_cell_angle_beta 90.000000
_cell_angle_gamma 90.000000
_cell_volume 3402.000000
_symmetry_space_group_name_H-M "I B A M"
_symmetry_group_IT_number 72
_symmetry_cell_setting 'orthorhombic'
loop_
_space_group_symop_operation_xyz
x,y,z
-x,-y,z
x,-y,1/2-z
-x,y,1/2-z
-x,-y,-z
x,y,-z
-x,y,1/2+z
x,-y,1/2+z
1/2+x,1/2+y,1/2+z
1/2-x,1/2-y,1/2+z
1/2+x,1/2-y,-z
1/2-x,1/2+y,-z
1/2-x,1/2-y,1/2-z
1/2+x,1/2+y,1/2-z
1/2-x,1/2+y,z
1/2+x,1/2-y,z
loop_
_atom_site_type_symbol
_atom_site_label
_atom_site_fract_x
_atom_site_fract_y
_atom_site_fract_z
Si Si1 0.069050 0.166451 0.780130
Si Si2 0.844627 0.146421 0.587593
Si Si3 0.688579 0.163263 0.718658
Si Si4 0.275617 0.335452 0.087596
O O1 0.090024 0.158172 0.866514
O O2 0.123261 0.269467 0.747205
O O3 0.000000 0.214212 0.750000
O O4 0.077514 0.000000 0.750000
O O5 0.855975 0.133162 0.500000
O O6 0.798853 0.290738 0.599149
O O7 0.804093 0.996866 0.611208
O O8 0.750000 0.250000 0.750000
O O9 0.689323 0.203838 0.631728
O O10 0.694756 0.000000 0.750000
O O11 0.286201 0.324635 0.000000
#
# Coordination Sequence:
#
# PCOD9529525 Si02
#       4
#    16  16  16  16
#     4  11  23  40  58  83 122 159 205 251 292 354
#     4  10  20  36  59  91 123 156 197 250 311 362
#     4  12  22  36  62  89 117 156 202 250 306 358
#     4  10  20  34  56  91 123 150 193 248 306 361
#
# _framework density 9.4062319999999993
#
# number of rings (size 3 to 8) (size 9 to 14) (size 15 to 20)
#    0.000    1.250    5.000    2.250    0.000    0.500 
#    0.000    3.750    0.000    0.000    0.000    3.500 
#    0.000    0.000    0.000    0.000    0.000    0.000 
#
# Total GULP energy -178253.676663 kJ/mol
# GULP energy per Si atom -5570.427396 kJ/mol
# Density = 0.938482 g / cm^3
# Si number density = 9.406232 Si / 1000 Ang^3
#
#
#
# Elastic Constant Matrix: (Units=GPa)
#
#
# Indices 1 2 3 4 5 6 
#
# 1 150.5770 71.0036 61.0765 0.0000 0.0000 0.0000
# 2 71.0036 73.7167 2.3558 0.0000 0.0000 0.0000
# 3 61.0765 2.3558 79.7350 0.0000 0.0000 0.0000
# 4 0.0000 0.0000 0.0000 22.9943 0.0000 0.0000
# 5 0.0000 0.0000 0.0000 0.0000 28.9457 0.0000
# 6 0.0000 0.0000 0.0000 0.0000 0.0000 29.9355
#
#
#
# Elastic Compliance Matrix: (Units=1/GPa)
#
#
# Indices 1 2 3 4 5 6 
#
# 1 0.025791 -0.024233 -0.019040 0.000000 0.000000 0.000000
# 2 -0.024233 0.036348 0.017489 0.000000 0.000000 0.000000
# 3 -0.019040 0.017489 0.026609 0.000000 0.000000 0.000000
# 4 0.000000 0.000000 0.000000 0.043489 0.000000 0.000000
# 5 0.000000 0.000000 0.000000 0.000000 0.034548 0.000000
# 6 0.000000 0.000000 0.000000 0.000000 0.000000 0.033405
#
#
# Mechanical properties :
#
#
# Convention : Reuss Voigt Hill
#
# Bulk Modulus (GPa) = 26.89670 63.65559 45.27614
# Shear Modulus (GPa) = 18.92852 27.68129 23.30491
#
# Velocity S-wave (km/s) = 3.17546 3.84009 3.52348
# Velocity P-wave (km/s) = 5.27001 7.31930 6.37750
#
# Compressibility (1/GPa) = 0.03717928
#
# Stress axis : x y z
#
# Youngs Moduli (GPa) = 38.77318 27.51187 37.58101
#
# Poissons Ratio (x) = 0.66670 0.71553
# Poissons Ratio (y) = 0.93960 -0.65724
# Poissons Ratio (z) = 0.73823 -0.48115
#
# Static dielectric constant tensor:
#      x y z
#    x 1.634150 0.000000 0.000000 
#    y 0.000000 1.678870 0.000000 
#    z 0.000000 0.000000 1.741240 
# 
# From -- ./inp_files/27630.got.cif
#   From: 2010.05.17/outbox.ucp.g08.bks.cvg/sg72_14_cif.got.tgz:27630.got - 2010.06.11 16:33:07.
