data_PCOD9529983
_publ_section_title
;
Structure prediction by ZEFSAII (Michael W. Deem and Ramdas Pophale) SiO2 
 PCOD9529983
Probable space group: I B C A 
;
_chemical_formula_sum "Si O2"
_cell_formula_units_Z 120
_cell_length_a 16.021683
_cell_length_b 12.253623
_cell_length_c 29.742946
_cell_angle_alpha 90.000000
_cell_angle_beta 90.000000
_cell_angle_gamma 90.000000
_cell_volume 5839.244116
_symmetry_space_group_name_H-M "I B C A "
_symmetry_group_IT_number 73
_symmetry_cell_setting 'orthorhombic'
loop_
_space_group_symop_operation_xyz
x,y,z
-x,1/2-y,z
x,-y,1/2-z
1/2-x,y,-z
-x,-y,-z
x,1/2+y,-z
-x,y,1/2+z
1/2+x,-y,z
1/2+x,1/2+y,1/2+z
1/2-x,-y,1/2+z
1/2+x,1/2-y,-z
-x,1/2+y,1/2-z
1/2-x,1/2-y,1/2-z
1/2+x,y,1/2-z
1/2-x,1/2+y,z
x,1/2-y,1/2+z
loop_
_atom_site_type_symbol
_atom_site_label
_atom_site_fract_x
_atom_site_fract_y
_atom_site_fract_z
Si Si1 0.895967 0.083074 0.211980
Si Si2 0.348994 0.024263 0.914004
Si Si3 0.019700 0.369609 0.953991
Si Si4 0.489857 0.368323 0.870747
Si Si5 0.794658 0.521056 0.184815
Si Si6 0.837838 0.311811 0.245030
Si Si7 0.906930 0.575128 0.953956
Si Si8 0.750000 0.512629 0.500000
O O1 0.956691 0.061431 0.170048
O O2 0.800992 0.048724 0.198291
O O3 0.894910 0.209023 0.229956
O O4 0.922802 0.000000 0.250000
O O5 0.426288 0.096410 0.896040
O O6 0.396670 0.917333 0.932309
O O7 0.299142 0.993554 0.868954
O O8 0.300007 0.069989 0.958258
O O9 0.000000 0.250000 0.938014
O O10 0.945139 0.454448 0.945361
O O11 0.035882 0.372474 0.007452
O O12 0.500000 0.250000 0.851365
O O13 0.417360 0.362585 0.908000
O O14 0.826056 0.407641 0.207729
O O15 0.848405 0.619094 0.208354
O O16 0.750000 0.250000 0.250000
O O17 0.815837 0.560564 0.973212
#
# Coordination Sequence:
#
# PCOD9529983 Si02
#       8
#    16  16  16  16  16  16  16   8
#     4  11  21  39  60  90 123 163 209 261 318 376
#     4  10  22  39  59  91 121 164 204 257 318 367
#     4   9  18  37  58  82 122 156 197 247 309 374
#     4  11  23  41  60  85 124 165 208 247 314 388
#     4  10  18  37  65  88 125 161 215 264 314 375
#     4   9  17  35  60  88 119 163 205 262 314 361
#     4   9  19  36  61  84 114 158 197 251 309 362
#     4  10  20  40  62  90 124 150 206 260 306 374
#
# _framework density 20.550605000000001
#
# number of rings (size 3 to 8) (size 9 to 14) (size 15 to 20)
#    0.000    2.133    2.667    2.800    0.000    0.000 
#    9.600    8.667    0.000    0.000    0.000    0.000 
#    0.000    0.000    0.000    0.000    0.000    0.000 
#
# Total GULP energy -334175.370661 kJ/mol
# GULP energy per Si atom -5569.589511 kJ/mol
# Density = 2.050383 g / cm^3
# Si number density = 20.550605 Si / 1000 Ang^3
#
#
#
# Elastic Constant Matrix: (Units=GPa)
#
#
# Indices 1 2 3 4 5 6 
#
# 1 58.7747 10.1370 30.7071 0.0000 0.0000 0.0000
# 2 10.1370 89.6747 24.3722 0.0000 0.0000 0.0000
# 3 30.7071 24.3722 150.8939 0.0000 0.0000 0.0000
# 4 0.0000 0.0000 0.0000 4.4260 0.0000 0.0000
# 5 0.0000 0.0000 0.0000 0.0000 69.3719 0.0000
# 6 0.0000 0.0000 0.0000 0.0000 0.0000 5.2351
#
#
#
# Elastic Compliance Matrix: (Units=1/GPa)
#
#
# Indices 1 2 3 4 5 6 
#
# 1 0.019152 -0.001156 -0.003711 0.000000 0.000000 0.000000
# 2 -0.001156 0.011733 -0.001660 0.000000 0.000000 0.000000
# 3 -0.003711 -0.001660 0.007650 0.000000 0.000000 0.000000
# 4 0.000000 0.000000 0.000000 0.225936 0.000000 0.000000
# 5 0.000000 0.000000 0.000000 0.000000 0.014415 0.000000
# 6 0.000000 0.000000 0.000000 0.000000 0.000000 0.191020
#
#
# Mechanical properties :
#
#
# Convention : Reuss Voigt Hill
#
# Bulk Modulus (GPa) = 39.24352 47.75287 43.49820
# Shear Modulus (GPa) = 10.17388 31.41507 20.79448
#
# Velocity S-wave (km/s) = 2.22742 3.91406 3.18444
# Velocity P-wave (km/s) = 5.07471 6.61163 5.89349
#
# Compressibility (1/GPa) = 0.02548191
#
# Stress axis : x y z
#
# Youngs Moduli (GPa) = 52.21319 85.22787 130.71221
#
# Poissons Ratio (x) = 0.09857 0.48504
# Poissons Ratio (y) = 0.06038 0.21695
# Poissons Ratio (z) = 0.19375 0.14146
#
# Static dielectric constant tensor:
#      x y z
#    x 1.778000 0.000000 0.000000 
#    y 0.000000 1.741030 0.000000 
#    z 0.000000 0.000000 1.858180 
# 
# From -- ./inp_files/34593.got.cif
#   From: 2010.05.17/outbox.cif.g08.bks.cpg/sg73_18_cif.got.tgz:34593.got - 2010.06.03 17:35:07.
