data_PCOD9529947
_publ_section_title
;
Structure prediction by ZEFSAII (Michael W. Deem and Ramdas Pophale) SiO2 
 PCOD9529947
Probable space group: I B C A 
;
_chemical_formula_sum "Si O2"
_cell_formula_units_Z 88
_cell_length_a 11.187103
_cell_length_b 18.034895
_cell_length_c 19.289005
_cell_angle_alpha 90.000000
_cell_angle_beta 90.000000
_cell_angle_gamma 90.000000
_cell_volume 3891.715468
_symmetry_space_group_name_H-M "I B C A "
_symmetry_group_IT_number 73
_symmetry_cell_setting 'orthorhombic'
loop_
_space_group_symop_operation_xyz
x,y,z
-x,1/2-y,z
x,-y,1/2-z
1/2-x,y,-z
-x,-y,-z
x,1/2+y,-z
-x,y,1/2+z
1/2+x,-y,z
1/2+x,1/2+y,1/2+z
1/2-x,-y,1/2+z
1/2+x,1/2-y,-z
-x,1/2+y,1/2-z
1/2-x,1/2-y,1/2-z
1/2+x,y,1/2-z
1/2-x,1/2+y,z
x,1/2-y,1/2+z
loop_
_atom_site_type_symbol
_atom_site_label
_atom_site_fract_x
_atom_site_fract_y
_atom_site_fract_z
Si Si1 0.594993 0.066407 0.148643
Si Si2 0.397636 0.308420 0.792246
Si Si3 0.384507 0.106260 0.490983
Si Si4 0.629005 0.466869 0.344443
Si Si5 0.837687 0.234094 0.848696
Si Si6 0.500000 0.250000 0.524534
O O1 0.725334 0.029277 0.168826
O O2 0.602236 0.153794 0.169317
O O3 0.470142 0.029364 0.170918
O O4 0.590679 0.067914 0.064659
O O5 0.500000 0.250000 0.802803
O O6 0.418105 0.394021 0.804939
O O7 0.299290 0.286934 0.849455
O O8 0.352073 0.291116 0.714400
O O9 0.250000 0.136516 0.500000
O O10 0.382758 0.052255 0.426019
O O11 0.473483 0.175470 0.483260
O O12 0.891767 0.261361 0.920407
#
# Coordination Sequence:
#
# PCOD9529947 Si02
#       6
#    16  16  16  16  16   8
#     4   9  19  38  61  85 123 158 200 241 306 364
#     4  10  20  37  62  87 119 155 203 256 293 358
#     4   9  19  35  57  85 124 157 194 248 301 356
#     4  10  20  37  60  92 119 158 196 252 300 359
#     4   9  19  38  62  85 118 163 197 249 311 349
#     4  10  18  36  60  86 116 158 202 240 300 366
#
# _framework density 22.612137000000001
#
# number of rings (size 3 to 8) (size 9 to 14) (size 15 to 20)
#    0.000    2.545    0.909    1.636    1.273    0.000 
#    6.545    0.909    0.000    4.364    0.000    0.000 
#    0.000    0.000    0.000    0.000    0.000    0.000 
#
# Total GULP energy -245490.143588 kJ/mol
# GULP energy per Si atom -5579.321445 kJ/mol
# Density = 2.256067 g / cm^3
# Si number density = 22.612137 Si / 1000 Ang^3
#
#
#
# Elastic Constant Matrix: (Units=GPa)
#
#
# Indices 1 2 3 4 5 6 
#
# 1 70.0358 36.9618 -8.4777 0.0000 0.0000 0.0000
# 2 36.9618 56.9831 10.2599 0.0000 0.0000 0.0000
# 3 -8.4777 10.2599 77.7696 0.0000 0.0000 0.0000
# 4 0.0000 0.0000 0.0000 31.1819 0.0000 0.0000
# 5 0.0000 0.0000 0.0000 0.0000 103.7374 0.0000
# 6 0.0000 0.0000 0.0000 0.0000 0.0000 44.5118
#
#
#
# Elastic Compliance Matrix: (Units=1/GPa)
#
#
# Indices 1 2 3 4 5 6 
#
# 1 0.023232 -0.015903 0.004631 0.000000 0.000000 0.000000
# 2 -0.015903 0.028862 -0.005541 0.000000 0.000000 0.000000
# 3 0.004631 -0.005541 0.014094 0.000000 0.000000 0.000000
# 4 0.000000 0.000000 0.000000 0.032070 0.000000 0.000000
# 5 0.000000 0.000000 0.000000 0.000000 0.009640 0.000000
# 6 0.000000 0.000000 0.000000 0.000000 0.000000 0.022466
#
#
# Mechanical properties :
#
#
# Convention : Reuss Voigt Hill
#
# Bulk Modulus (GPa) = 30.71167 31.36405 31.03786
# Shear Modulus (GPa) = 28.59684 46.95587 37.77636
#
# Velocity S-wave (km/s) = 3.56007 4.56189 4.09176
# Velocity P-wave (km/s) = 5.52361 6.45356 6.00661
#
# Compressibility (1/GPa) = 0.03256091
#
# Stress axis : x y z
#
# Youngs Moduli (GPa) = 43.04454 34.64757 70.95057
#
# Poissons Ratio (x) = 0.55100 -0.32854
# Poissons Ratio (y) = 0.68453 0.39316
# Poissons Ratio (z) = -0.19932 0.19199
#
# Static dielectric constant tensor:
#      x y z
#    x 2.013620 0.000000 0.000000 
#    y 0.000000 1.841160 0.000000 
#    z 0.000000 0.000000 1.893470 
# 
# From -- ./inp_files/23080.got.cif
#   From: 2010.05.17/outbox.cif.g08.bks.cpg/sg73_12_cif.got.tgz:23080.got - 2010.06.03 17:35:07.
