data_PCOD9529859
_publ_section_title
;
Structure prediction by ZEFSAII (Michael W. Deem and Ramdas Pophale) SiO2 
 PCOD9529859
Probable space group: I B C A 
;
_chemical_formula_sum "Si O2"
_cell_formula_units_Z 120
_cell_length_a 18.759801
_cell_length_b 20.985147
_cell_length_c 14.937945
_cell_angle_alpha 90.000000
_cell_angle_beta 90.000000
_cell_angle_gamma 90.000000
_cell_volume 5880.728088
_symmetry_space_group_name_H-M "I B C A "
_symmetry_group_IT_number 73
_symmetry_cell_setting 'orthorhombic'
loop_
_space_group_symop_operation_xyz
x,y,z
-x,1/2-y,z
x,-y,1/2-z
1/2-x,y,-z
-x,-y,-z
x,1/2+y,-z
-x,y,1/2+z
1/2+x,-y,z
1/2+x,1/2+y,1/2+z
1/2-x,-y,1/2+z
1/2+x,1/2-y,-z
-x,1/2+y,1/2-z
1/2-x,1/2-y,1/2-z
1/2+x,y,1/2-z
1/2-x,1/2+y,z
x,1/2-y,1/2+z
loop_
_atom_site_type_symbol
_atom_site_label
_atom_site_fract_x
_atom_site_fract_y
_atom_site_fract_z
Si Si1 0.613887 0.469315 0.463248
Si Si2 0.975131 0.131963 0.673797
Si Si3 0.839159 0.097279 0.878085
Si Si4 0.200388 0.935356 0.789809
Si Si5 0.574882 0.000000 0.250000
Si Si6 0.963498 0.096650 0.484500
Si Si7 0.921725 0.784046 0.670528
Si Si8 0.097465 0.850094 0.694663
O O1 0.670633 0.437825 0.528469
O O2 0.641773 0.456423 0.363787
O O3 0.539624 0.435413 0.492958
O O4 0.597255 0.542601 0.483805
O O5 0.966893 0.055672 0.695271
O O6 0.956807 0.142443 0.570244
O O7 0.926723 0.176916 0.736359
O O8 0.052336 0.150762 0.712720
O O9 0.763253 0.106625 0.831496
O O10 0.882102 0.044817 0.818572
O O11 0.885275 0.161886 0.890084
O O12 0.160451 0.898650 0.711184
O O13 0.232689 0.000000 0.750000
O O14 0.954629 0.126134 0.385619
O O15 0.875273 0.720459 0.674861
O O16 0.000000 0.750000 0.653017
#
# Coordination Sequence:
#
# PCOD9529859 Si02
#       8
#    16  16  16  16   8  16  16  16
#     4  11  22  37  59  97 125 161 212 268 334 385
#     4  10  20  36  61  91 120 157 205 272 329 382
#     4  11  22  40  61  88 127 171 215 256 322 395
#     4  12  24  39  61  92 133 172 211 268 326 395
#     4  10  18  32  60  86 118 150 204 268 320 372
#     4  11  21  35  66  95 125 160 206 280 339 371
#     4   9  21  42  63  90 122 163 215 267 322 382
#     4  11  23  41  59  92 133 165 216 269 326 397
#
# _framework density 20.405636999999999
#
# number of rings (size 3 to 8) (size 9 to 14) (size 15 to 20)
#    0.000    1.333    4.667    2.800    2.800    0.533 
#    2.400    3.333    0.000    0.000    0.000    0.000 
#    0.000    0.000    0.000    0.000    0.000    0.000 
#
# Total GULP energy -334155.214351 kJ/mol
# GULP energy per Si atom -5569.253573 kJ/mol
# Density = 2.035919 g / cm^3
# Si number density = 20.405637 Si / 1000 Ang^3
#
#
#
# Elastic Constant Matrix: (Units=GPa)
#
#
# Indices 1 2 3 4 5 6 
#
# 1 59.0215 24.9952 16.8990 0.0000 0.0000 0.0000
# 2 24.9952 114.3421 19.2049 0.0000 0.0000 0.0000
# 3 16.8990 19.2049 73.7192 0.0000 0.0000 0.0000
# 4 0.0000 0.0000 0.0000 19.8519 0.0000 0.0000
# 5 0.0000 0.0000 0.0000 0.0000 24.6470 0.0000
# 6 0.0000 0.0000 0.0000 0.0000 0.0000 15.3657
#
#
#
# Elastic Compliance Matrix: (Units=1/GPa)
#
#
# Indices 1 2 3 4 5 6 
#
# 1 0.019505 -0.003674 -0.003514 0.000000 0.000000 0.000000
# 2 -0.003674 0.009838 -0.001721 0.000000 0.000000 0.000000
# 3 -0.003514 -0.001721 0.014819 0.000000 0.000000 0.000000
# 4 0.000000 0.000000 0.000000 0.050373 0.000000 0.000000
# 5 0.000000 0.000000 0.000000 0.000000 0.040573 0.000000
# 6 0.000000 0.000000 0.000000 0.000000 0.000000 0.065080
#
#
# Mechanical properties :
#
#
# Convention : Reuss Voigt Hill
#
# Bulk Modulus (GPa) = 37.95859 41.03121 39.49490
# Shear Modulus (GPa) = 22.04726 24.37186 23.20956
#
# Velocity S-wave (km/s) = 3.29059 3.45971 3.37621
# Velocity P-wave (km/s) = 5.75149 6.00924 5.88178
#
# Compressibility (1/GPa) = 0.02634450
#
# Stress axis : x y z
#
# Youngs Moduli (GPa) = 51.26927 101.64939 67.48168
#
# Poissons Ratio (x) = 0.37341 0.23714
# Poissons Ratio (y) = 0.18834 0.11612
# Poissons Ratio (z) = 0.18017 0.17492
#
# Static dielectric constant tensor:
#      x y z
#    x 1.769780 0.000000 0.000000 
#    y 0.000000 1.744770 0.000000 
#    z 0.000000 0.000000 1.795350 
# 
# From -- ./inp_files/18964.got.cif
#   From: 2010.05.17/outbox.cif.g08.bks.cpg/sg73_10_cif.got.tgz:18964.got - 2010.06.03 17:35:07.
