data_PCOD9529663
_publ_section_title
;
Structure prediction by ZEFSAII (Michael W. Deem and Ramdas Pophale) SiO2 
 PCOD9529663
Probable space group: I B C A 
;
_chemical_formula_sum "Si O2"
_cell_formula_units_Z 64
_cell_length_a 5.321277
_cell_length_b 14.729713
_cell_length_c 37.437057
_cell_angle_alpha 90.000000
_cell_angle_beta 90.000000
_cell_angle_gamma 90.000000
_cell_volume 2934.349585
_symmetry_space_group_name_H-M "I B C A "
_symmetry_group_IT_number 73
_symmetry_cell_setting 'orthorhombic'
loop_
_space_group_symop_operation_xyz
x,y,z
-x,1/2-y,z
x,-y,1/2-z
1/2-x,y,-z
-x,-y,-z
x,1/2+y,-z
-x,y,1/2+z
1/2+x,-y,z
1/2+x,1/2+y,1/2+z
1/2-x,-y,1/2+z
1/2+x,1/2-y,-z
-x,1/2+y,1/2-z
1/2-x,1/2-y,1/2-z
1/2+x,y,1/2-z
1/2-x,1/2+y,z
x,1/2-y,1/2+z
loop_
_atom_site_type_symbol
_atom_site_label
_atom_site_fract_x
_atom_site_fract_y
_atom_site_fract_z
Si Si1 0.996439 0.103247 0.515653
Si Si2 0.250403 0.694422 0.156868
Si Si3 0.773703 0.645322 0.735237
Si Si4 0.460955 0.942922 0.598351
O O1 0.750000 0.148389 0.500000
O O2 0.965757 0.094783 0.557970
O O3 0.250000 0.144201 0.500000
O O4 0.000000 0.000000 0.500000
O O5 0.500000 0.750000 0.168385
O O6 0.168122 0.644730 0.193304
O O7 0.362643 0.632150 0.125771
O O8 0.000000 0.750000 0.145359
O O9 0.750000 0.750000 0.750000
O O10 0.503721 0.603962 0.743163
O O11 0.745976 0.979383 0.602987
#
# Coordination Sequence:
#
# PCOD9529663 Si02
#       4
#    16  16  16  16
#     4  10  16  32  59  84 107 148 213 231 258 349
#     4  12  23  38  60  93 123 159 200 258 311 363
#     4  10  16  32  59  83 102 151 221 242 265 358
#     4  12  23  38  60  93 124 156 197 261 306 359
#
# _framework density 21.810624000000001
#
# number of rings (size 3 to 8) (size 9 to 14) (size 15 to 20)
#    0.000    1.000   10.000    1.500    0.000    0.000 
#    0.000    0.000    0.000    7.500    0.000    0.000 
#    0.000    0.000    0.000    0.000    0.000    0.000 
#
# Total GULP energy -178470.447809 kJ/mol
# GULP energy per Si atom -5577.201494 kJ/mol
# Density = 2.176098 g / cm^3
# Si number density = 21.810624 Si / 1000 Ang^3
#
#
#
# Elastic Constant Matrix: (Units=GPa)
#
#
# Indices 1 2 3 4 5 6 
#
# 1 176.6181 10.7942 4.4130 0.0000 0.0000 0.0000
# 2 10.7942 42.6514 23.2028 0.0000 0.0000 0.0000
# 3 4.4130 23.2028 148.3721 0.0000 0.0000 0.0000
# 4 0.0000 0.0000 0.0000 13.3335 0.0000 0.0000
# 5 0.0000 0.0000 0.0000 0.0000 41.7262 0.0000
# 6 0.0000 0.0000 0.0000 0.0000 0.0000 0.4293
#
#
#
# Elastic Compliance Matrix: (Units=1/GPa)
#
#
# Indices 1 2 3 4 5 6 
#
# 1 0.005751 -0.001489 0.000062 0.000000 0.000000 0.000000
# 2 -0.001489 0.026012 -0.004023 0.000000 0.000000 0.000000
# 3 0.000062 -0.004023 0.007367 0.000000 0.000000 0.000000
# 4 0.000000 0.000000 0.000000 0.074999 0.000000 0.000000
# 5 0.000000 0.000000 0.000000 0.000000 0.023966 0.000000
# 6 0.000000 0.000000 0.000000 0.000000 0.000000 2.329104
#
#
# Mechanical properties :
#
#
# Convention : Reuss Voigt Hill
#
# Bulk Modulus (GPa) = 35.42520 49.38461 42.40491
# Shear Modulus (GPa) = 2.01004 33.04658 17.52831
#
# Velocity S-wave (km/s) = 0.96104 3.89673 2.83796
# Velocity P-wave (km/s) = 4.18436 6.55268 5.49757
#
# Compressibility (1/GPa) = 0.02822850
#
# Stress axis : x y z
#
# Youngs Moduli (GPa) = 173.87067 38.44441 135.73732
#
# Poissons Ratio (x) = 0.05725 -0.00839
# Poissons Ratio (y) = 0.25893 0.54613
# Poissons Ratio (z) = -0.01075 0.15468
#
# Static dielectric constant tensor:
#      x y z
#    x 1.761890 0.000000 0.000000 
#    y 0.000000 1.793650 0.000000 
#    z 0.000000 0.000000 1.732280 
# 
# From -- ./inp_files/20386.got.cif
#   From: 2010.05.17/outbox.cif.g08.bks.cpg/sg73_11_cif.got.tgz:20386.got - 2010.06.03 17:35:07.
