data_PCOD9529295
_publ_section_title
;
Structure prediction by ZEFSAII (Michael W. Deem and Ramdas Pophale) SiO2 
 PCOD9529295
Probable space group: I B A M
;
_chemical_formula_sum "Si O2"
_cell_formula_units_Z 52
_cell_length_a 14.763031
_cell_length_b 9.053777
_cell_length_c 16.569582
_cell_angle_alpha 90.000000
_cell_angle_beta 90.000000
_cell_angle_gamma 90.000000
_cell_volume 2214.710057
_symmetry_space_group_name_H-M "I B A M"
_symmetry_group_IT_number 72
_symmetry_cell_setting 'orthorhombic'
loop_
_space_group_symop_operation_xyz
x,y,z
-x,-y,z
x,-y,1/2-z
-x,y,1/2-z
-x,-y,-z
x,y,-z
-x,y,1/2+z
x,-y,1/2+z
1/2+x,1/2+y,1/2+z
1/2-x,1/2-y,1/2+z
1/2+x,1/2-y,-z
1/2-x,1/2+y,-z
1/2-x,1/2-y,1/2-z
1/2+x,1/2+y,1/2-z
1/2-x,1/2+y,z
1/2+x,1/2-y,z
loop_
_atom_site_type_symbol
_atom_site_label
_atom_site_fract_x
_atom_site_fract_y
_atom_site_fract_z
Si Si1 0.940641 0.780524 0.409819
Si Si2 0.500000 0.000000 0.500000
Si Si3 0.360265 0.286527 0.406590
Si Si4 0.274613 0.563453 0.660788
O O1 0.924882 0.849823 0.500000
O O2 0.953822 0.608510 0.430529
O O3 0.858499 0.825230 0.353782
O O4 0.039356 0.830154 0.378749
O O5 0.371937 0.237166 0.500000
O O6 0.294755 0.426079 0.398183
O O7 0.315153 0.153056 0.359473
O O8 0.274526 0.500000 0.750000
#
# Coordination Sequence:
#
# PCOD9529295 Si02
#       4
#    16   4  16  16
#     4   9  21  41  70  99 135 184 247 302 372 435
#     4   8  20  40  70 110 128 178 264 312 352 436
#     4  11  24  42  69  99 135 191 248 299 359 444
#     4  12  26  43  67 103 150 186 239 306 387 448
#
# _framework density 23.479371
#
# number of rings (size 3 to 8) (size 9 to 14) (size 15 to 20)
#    0.923    0.615    0.000    4.615    4.308    4.923 
#    0.000    0.000    0.000    0.000    0.000    0.000 
#    0.000    0.000    0.000    0.000    0.000    0.000 
#
# Total GULP energy -144921.874295 kJ/mol
# GULP energy per Si atom -5573.918242 kJ/mol
# Density = 2.342593 g / cm^3
# Si number density = 23.479371 Si / 1000 Ang^3
#
#
#
# Elastic Constant Matrix: (Units=GPa)
#
#
# Indices 1 2 3 4 5 6 
#
# 1 115.6179 39.5977 63.2418 0.0000 0.0000 0.0000
# 2 39.5977 89.6281 30.3693 0.0000 0.0000 0.0000
# 3 63.2418 30.3693 93.8238 0.0000 0.0000 0.0000
# 4 0.0000 0.0000 0.0000 46.1238 0.0000 0.0000
# 5 0.0000 0.0000 0.0000 0.0000 61.1529 0.0000
# 6 0.0000 0.0000 0.0000 0.0000 0.0000 39.6015
#
#
#
# Elastic Compliance Matrix: (Units=1/GPa)
#
#
# Indices 1 2 3 4 5 6 
#
# 1 0.014619 -0.003504 -0.008720 0.000000 0.000000 0.000000
# 2 -0.003504 0.013372 -0.001966 0.000000 0.000000 0.000000
# 3 -0.008720 -0.001966 0.017172 0.000000 0.000000 0.000000
# 4 0.000000 0.000000 0.000000 0.021681 0.000000 0.000000
# 5 0.000000 0.000000 0.000000 0.000000 0.016352 0.000000
# 6 0.000000 0.000000 0.000000 0.000000 0.000000 0.025252
#
#
# Mechanical properties :
#
#
# Convention : Reuss Voigt Hill
#
# Bulk Modulus (GPa) = 59.58517 62.83196 61.20857
# Shear Modulus (GPa) = 35.10709 40.43304 37.77007
#
# Velocity S-wave (km/s) = 3.87102 4.15428 4.01515
# Velocity P-wave (km/s) = 6.73888 7.05899 6.90079
#
# Compressibility (1/GPa) = 0.01678270
#
# Stress axis : x y z
#
# Youngs Moduli (GPa) = 68.40500 74.78565 58.23380
#
# Poissons Ratio (x) = 0.26205 0.50777
# Poissons Ratio (y) = 0.23970 0.11450
# Poissons Ratio (z) = 0.59646 0.14705
#
# Static dielectric constant tensor:
#      x y z
#    x 1.910530 0.000000 0.000000 
#    y 0.000000 2.056210 0.000000 
#    z 0.000000 0.000000 1.848130 
# 
# From -- ./inp_files/37584.got.cif
#   From: 2010.05.17/outbox.cif.g08.bks.cpg/sg72_19_cif.got.tgz:37584.got - 2010.06.03 17:03:01.
