data_PCOD9529333
_publ_section_title
;
Structure prediction by ZEFSAII (Michael W. Deem and Ramdas Pophale) SiO2 
 PCOD9529333
Probable space group: I B A M
;
_chemical_formula_sum "Si O2"
_cell_formula_units_Z 48
_cell_length_a 16.969658
_cell_length_b 6.819032
_cell_length_c 15.179328
_cell_angle_alpha 90.000000
_cell_angle_beta 90.000000
_cell_angle_gamma 90.000000
_cell_volume 1756.500848
_symmetry_space_group_name_H-M "I B A M"
_symmetry_group_IT_number 72
_symmetry_cell_setting 'orthorhombic'
loop_
_space_group_symop_operation_xyz
x,y,z
-x,-y,z
x,-y,1/2-z
-x,y,1/2-z
-x,-y,-z
x,y,-z
-x,y,1/2+z
x,-y,1/2+z
1/2+x,1/2+y,1/2+z
1/2-x,1/2-y,1/2+z
1/2+x,1/2-y,-z
1/2-x,1/2+y,-z
1/2-x,1/2-y,1/2-z
1/2+x,1/2+y,1/2-z
1/2-x,1/2+y,z
1/2+x,1/2-y,z
loop_
_atom_site_type_symbol
_atom_site_label
_atom_site_fract_x
_atom_site_fract_y
_atom_site_fract_z
Si Si1 0.768045 0.761272 0.500000
Si Si2 0.608018 0.626516 0.500000
Si Si3 0.181887 0.668665 0.814664
Si Si4 0.988154 0.268212 0.852237
O O1 0.673495 0.798393 0.500000
O O2 0.776232 0.638625 0.591834
O O3 0.835908 0.931525 0.500000
O O4 0.549696 0.661315 0.416662
O O5 0.149129 0.500000 0.750000
O O6 0.250000 0.750000 0.750000
O O7 0.104898 0.777693 0.850660
O O8 0.000000 0.500000 0.873192
O O9 0.000000 0.230370 0.750000
#
# Coordination Sequence:
#
# PCOD9529333 Si02
#       4
#     8   8  16  16
#     4  12  29  49  85 129 166 220 293 352 430 510
#     4  12  28  51  84 122 174 222 283 358 423 525
#     4  12  26  50  80 116 167 219 281 352 427 510
#     4  11  24  48  79 117 165 226 276 340 437 508
#
# _framework density 27.327059999999999
#
# number of rings (size 3 to 8) (size 9 to 14) (size 15 to 20)
#    0.000    0.333    3.333    5.500    4.667    2.667 
#    0.000    1.667    0.000    0.000    0.000    0.000 
#    0.000    0.000    0.000    0.000    0.000    0.000 
#
# Total GULP energy -133718.108323 kJ/mol
# GULP energy per Si atom -5571.587847 kJ/mol
# Density = 2.726486 g / cm^3
# Si number density = 27.327060 Si / 1000 Ang^3
#
#
#
# Elastic Constant Matrix: (Units=GPa)
#
#
# Indices 1 2 3 4 5 6 
#
# 1 266.1757 62.5776 134.4899 0.0000 0.0000 0.0000
# 2 62.5776 137.1267 72.1985 0.0000 0.0000 0.0000
# 3 134.4899 72.1985 290.2034 0.0000 0.0000 0.0000
# 4 0.0000 0.0000 0.0000 33.3775 0.0000 0.0000
# 5 0.0000 0.0000 0.0000 0.0000 66.5205 0.0000
# 6 0.0000 0.0000 0.0000 0.0000 0.0000 43.1659
#
#
#
# Elastic Compliance Matrix: (Units=1/GPa)
#
#
# Indices 1 2 3 4 5 6 
#
# 1 0.005083 -0.001242 -0.002047 0.000000 0.000000 0.000000
# 2 -0.001242 0.008695 -0.001588 0.000000 0.000000 0.000000
# 3 -0.002047 -0.001588 0.004789 0.000000 0.000000 0.000000
# 4 0.000000 0.000000 0.000000 0.029960 0.000000 0.000000
# 5 0.000000 0.000000 0.000000 0.000000 0.015033 0.000000
# 6 0.000000 0.000000 0.000000 0.000000 0.000000 0.023166
#
#
# Mechanical properties :
#
#
# Convention : Reuss Voigt Hill
#
# Bulk Modulus (GPa) = 113.44406 136.89308 125.16857
# Shear Modulus (GPa) = 50.29258 56.89543 53.59401
#
# Velocity S-wave (km/s) = 4.29464 4.56786 4.43336
# Velocity P-wave (km/s) = 8.13606 8.83310 8.49173
#
# Compressibility (1/GPa) = 0.00881492
#
# Stress axis : x y z
#
# Youngs Moduli (GPa) = 196.73340 115.00535 208.79785
#
# Poissons Ratio (x) = 0.14284 0.42733
# Poissons Ratio (y) = 0.24435 0.33150
# Poissons Ratio (z) = 0.40264 0.18259
#
# Static dielectric constant tensor:
#      x y z
#    x -2.952530 0.000000 0.000000 
#    y 0.000000 2.550520 0.000000 
#    z 0.000000 0.000000 2.223950 
# 
# From -- ./inp_files/22643.got.cif
#   From: 2010.05.17/outbox.cif.g08.bks.cpg/sg72_12_cif.got.tgz:22643.got - 2010.06.03 17:03:01.
