data_PCOD9529967
_publ_section_title
;
Structure prediction by ZEFSAII (Michael W. Deem and Ramdas Pophale) SiO2 
 PCOD9529967
Probable space group: I B C A 
;
_chemical_formula_sum "Si O2"
_cell_formula_units_Z 72
_cell_length_a 13.698032
_cell_length_b 21.720064
_cell_length_c 9.917008
_cell_angle_alpha 90.000000
_cell_angle_beta 90.000000
_cell_angle_gamma 90.000000
_cell_volume 2950.529360
_symmetry_space_group_name_H-M "I B C A "
_symmetry_group_IT_number 73
_symmetry_cell_setting 'orthorhombic'
loop_
_space_group_symop_operation_xyz
x,y,z
-x,1/2-y,z
x,-y,1/2-z
1/2-x,y,-z
-x,-y,-z
x,1/2+y,-z
-x,y,1/2+z
1/2+x,-y,z
1/2+x,1/2+y,1/2+z
1/2-x,-y,1/2+z
1/2+x,1/2-y,-z
-x,1/2+y,1/2-z
1/2-x,1/2-y,1/2-z
1/2+x,y,1/2-z
1/2-x,1/2+y,z
x,1/2-y,1/2+z
loop_
_atom_site_type_symbol
_atom_site_label
_atom_site_fract_x
_atom_site_fract_y
_atom_site_fract_z
Si Si1 0.442240 0.310021 0.299040
Si Si2 0.390567 0.978634 0.608646
Si Si3 0.748839 0.132113 0.710479
Si Si4 0.250000 0.081419 0.500000
Si Si5 0.042007 0.874027 0.569279
O O1 0.500000 0.250000 0.253965
O O2 0.325233 0.311968 0.305921
O O3 0.468554 0.362503 0.190464
O O4 0.480068 0.328388 0.446229
O O5 0.305915 0.928810 0.654419
O O6 0.452976 0.940299 0.501400
O O7 0.437723 0.000000 0.750000
O O8 0.337472 0.035704 0.539020
O O9 0.726540 0.120731 0.867550
O O10 0.649464 0.139188 0.629000
#
# Coordination Sequence:
#
# PCOD9529967 Si02
#       5
#    16  16  16   8  16
#     4  11  25  45  69  98 136 184 235 296 352 407
#     4   9  17  36  66  97 133 188 225 271 344 413
#     4  10  22  40  70  98 139 184 227 284 348 417
#     4  10  18  36  72 100 136 188 228 268 346 424
#     4  11  23  44  69  99 142 177 235 294 343 418
#
# _framework density 24.402401000000001
#
# number of rings (size 3 to 8) (size 9 to 14) (size 15 to 20)
#    0.000    1.778    2.222    2.667    3.111    0.889 
#    0.000   12.222    9.778    0.000    0.000    0.000 
#    0.000    0.000    0.000    0.000    0.000    0.000 
#
# Total GULP energy -201657.027933 kJ/mol
# GULP energy per Si atom -5601.584109 kJ/mol
# Density = 2.434686 g / cm^3
# Si number density = 24.402401 Si / 1000 Ang^3
#
#
#
# Elastic Constant Matrix: (Units=GPa)
#
#
# Indices 1 2 3 4 5 6 
#
# 1 95.4255 22.2885 31.5453 0.0000 0.0000 0.0000
# 2 22.2885 79.7134 21.9077 -0.0002 0.0000 0.0001
# 3 31.5453 21.9077 173.4440 -0.0004 0.0001 0.0001
# 4 0.0000 -0.0002 -0.0004 33.9356 0.0001 0.0001
# 5 0.0000 0.0000 0.0001 0.0001 28.1202 0.0000
# 6 0.0000 0.0001 0.0001 0.0001 0.0000 33.3305
#
#
#
# Elastic Compliance Matrix: (Units=1/GPa)
#
#
# Indices 1 2 3 4 5 6 
#
# 1 0.011719 -0.002788 -0.001779 0.000000 0.000000 0.000000
# 2 -0.002788 0.013659 -0.001218 0.000000 0.000000 0.000000
# 3 -0.001779 -0.001218 0.006243 0.000000 0.000000 0.000000
# 4 0.000000 0.000000 0.000000 0.029468 0.000000 0.000000
# 5 0.000000 0.000000 0.000000 0.000000 0.035562 0.000000
# 6 0.000000 0.000000 0.000000 0.000000 0.000000 0.030003
#
#
# Mechanical properties :
#
#
# Convention : Reuss Voigt Hill
#
# Bulk Modulus (GPa) = 49.87388 55.56287 52.71837
# Shear Modulus (GPa) = 34.50501 37.26669 35.88585
#
# Velocity S-wave (km/s) = 3.76440 3.91215 3.83898
# Velocity P-wave (km/s) = 6.27509 6.57460 6.42659
#
# Compressibility (1/GPa) = 0.02005058
#
# Stress axis : x y z
#
# Youngs Moduli (GPa) = 85.33399 73.21069 160.17857
#
# Poissons Ratio (x) = 0.20408 0.28500
# Poissons Ratio (y) = 0.23788 0.19514
# Poissons Ratio (z) = 0.15183 0.08919
#
# Static dielectric constant tensor:
#      x y z
#    x 1.930470 0.000000 0.000000 
#    y 0.000000 2.013080 0.000000 
#    z 0.000000 0.000000 1.900250 
# 
# From -- ./inp_files/5477.got.cif
#   From: 2010.05.17/outbox.cif.g08.bks.cpg/sg73_3_cif.got.tgz:5477.got - 2010.06.03 17:35:07.
