data_PCOD9529501
_publ_section_title
;
Structure prediction by ZEFSAII (Michael W. Deem and Ramdas Pophale) SiO2 
 PCOD9529501
Probable space group: I B A M
;
_chemical_formula_sum "Si O2"
_cell_formula_units_Z 40
_cell_length_a 21.000000
_cell_length_b 30.000000
_cell_length_c 9.000000
_cell_angle_alpha 90.000000
_cell_angle_beta 90.000000
_cell_angle_gamma 90.000000
_cell_volume 5670.000000
_symmetry_space_group_name_H-M "I B A M"
_symmetry_group_IT_number 72
_symmetry_cell_setting 'orthorhombic'
loop_
_space_group_symop_operation_xyz
x,y,z
-x,-y,z
x,-y,1/2-z
-x,y,1/2-z
-x,-y,-z
x,y,-z
-x,y,1/2+z
x,-y,1/2+z
1/2+x,1/2+y,1/2+z
1/2-x,1/2-y,1/2+z
1/2+x,1/2-y,-z
1/2-x,1/2+y,-z
1/2-x,1/2-y,1/2-z
1/2+x,1/2+y,1/2-z
1/2-x,1/2+y,z
1/2+x,1/2-y,z
loop_
_atom_site_type_symbol
_atom_site_label
_atom_site_fract_x
_atom_site_fract_y
_atom_site_fract_z
Si Si1 0.435444 0.548803 0.321776
Si Si2 0.432374 0.302054 0.825434
Si Si3 0.155735 0.258837 0.165233
Si Si4 0.261345 0.820518 0.666986
Si Si5 0.851782 0.880966 0.177397
O O1 0.431507 0.500000 0.250000
O O2 0.500000 0.569523 0.250000
O O3 0.440730 0.547348 0.500000
O O4 0.374905 0.576174 0.265890
O O5 0.500000 0.298104 0.750000
O O6 0.393004 0.257586 0.788953
O O7 0.395707 0.341634 0.741603
O O8 0.435766 0.311067 0.000000
O O9 0.210194 0.220347 0.161709
O O10 0.188050 0.304808 0.212958
O O11 0.127547 0.260135 0.000000
O O12 0.287781 0.824212 0.500000
O O13 0.220121 0.864134 0.702083
O O14 0.861288 0.885767 0.000000
#
# Coordination Sequence:
#
# PCOD9529501 Si02
#       5
#    16  16  16  16  16
#     4  11  21  33  46  59  76  99 127 159 198 238
#     4  11  20  29  40  55  76 101 130 161 195 230
#     4   9  16  26  39  55  75  97 123 154 188 225
#     4   8  15  26  40  56  74  96 121 152 188 225
#     4  10  19  31  44  59  77  97 126 161 196 232
#
# _framework density 7.0546740000000003
#
# number of rings (size 3 to 8) (size 9 to 14) (size 15 to 20)
#    0.000    2.200    0.000    7.200    0.000    5.600 
#    0.000    0.000    0.000    0.000    0.000    0.000 
#    0.000    0.000    0.000    0.000    0.000    1.000 
#
# Total GULP energy -222736.710255 kJ/mol
# GULP energy per Si atom -5568.417756 kJ/mol
# Density = 0.703862 g / cm^3
# Si number density = 7.054674 Si / 1000 Ang^3
#
#
#
# Elastic Constant Matrix: (Units=GPa)
#
#
# Indices 1 2 3 4 5 6 
#
# 1 12.4702 14.6824 11.1456 0.0000 0.0000 0.0000
# 2 14.6824 42.8104 20.2949 0.0000 0.0000 0.0000
# 3 11.1456 20.2949 82.0008 0.0000 0.0000 0.0000
# 4 0.0000 0.0000 0.0000 18.5143 0.0000 0.0000
# 5 0.0000 0.0000 0.0000 0.0000 18.0043 0.0000
# 6 0.0000 0.0000 0.0000 0.0000 0.0000 18.3164
#
#
#
# Elastic Compliance Matrix: (Units=1/GPa)
#
#
# Indices 1 2 3 4 5 6 
#
# 1 0.139030 -0.043871 -0.008039 0.000000 0.000000 0.000000
# 2 -0.043871 0.040307 -0.004013 0.000000 0.000000 0.000000
# 3 -0.008039 -0.004013 0.014281 0.000000 0.000000 0.000000
# 4 0.000000 0.000000 0.000000 0.054012 0.000000 0.000000
# 5 0.000000 0.000000 0.000000 0.000000 0.055542 0.000000
# 6 0.000000 0.000000 0.000000 0.000000 0.000000 0.054596
#
#
# Mechanical properties :
#
#
# Convention : Reuss Voigt Hill
#
# Bulk Modulus (GPa) = 12.22913 25.50302 18.86608
# Shear Modulus (GPa) = 10.06296 17.04424 13.55360
#
# Velocity S-wave (km/s) = 2.67350 3.47942 3.10274
# Velocity P-wave (km/s) = 4.26806 5.85289 5.12214
#
# Compressibility (1/GPa) = 0.08177197
#
# Stress axis : x y z
#
# Youngs Moduli (GPa) = 7.19270 24.80939 70.02377
#
# Poissons Ratio (x) = 1.08841 0.56293
# Poissons Ratio (y) = 0.31555 0.28100
# Poissons Ratio (z) = 0.05782 0.09956
#
# Static dielectric constant tensor:
#      x y z
#    x 1.477410 0.000000 0.000000 
#    y 0.000000 1.497190 0.000000 
#    z 0.000000 0.000000 1.506760 
# 
# From -- ./inp_files/6242.got.cif
#   From: 2010.05.17/outbox.ucp.g08.bks.cvg/sg72_4_cif.got.tgz:6242.got - 2010.06.11 16:33:07.
