data_PCOD9529175
_publ_section_title
;
Structure prediction by ZEFSAII (Michael W. Deem and Ramdas Pophale) SiO2 
 PCOD9529175
Probable space group: I B A M
;
_chemical_formula_sum "Si O2"
_cell_formula_units_Z 72
_cell_length_a 10.581200
_cell_length_b 16.214123
_cell_length_c 19.459607
_cell_angle_alpha 90.000000
_cell_angle_beta 90.000000
_cell_angle_gamma 90.000000
_cell_volume 3338.585106
_symmetry_space_group_name_H-M "I B A M"
_symmetry_group_IT_number 72
_symmetry_cell_setting 'orthorhombic'
loop_
_space_group_symop_operation_xyz
x,y,z
-x,-y,z
x,-y,1/2-z
-x,y,1/2-z
-x,-y,-z
x,y,-z
-x,y,1/2+z
x,-y,1/2+z
1/2+x,1/2+y,1/2+z
1/2-x,1/2-y,1/2+z
1/2+x,1/2-y,-z
1/2-x,1/2+y,-z
1/2-x,1/2-y,1/2-z
1/2+x,1/2+y,1/2-z
1/2-x,1/2+y,z
1/2+x,1/2-y,z
loop_
_atom_site_type_symbol
_atom_site_label
_atom_site_fract_x
_atom_site_fract_y
_atom_site_fract_z
Si Si1 0.501674 0.402411 0.000000
Si Si2 0.174811 0.256908 0.000000
Si Si3 0.305246 0.907122 0.775662
Si Si4 0.964046 0.404504 0.000000
Si Si5 0.445388 0.146042 0.146822
Si Si6 0.862998 0.814426 0.381628
O O1 0.500000 0.500000 0.000000
O O2 0.615359 0.334687 0.000000
O O3 0.426597 0.379225 0.931481
O O4 0.258684 0.271621 0.068374
O O5 0.072745 0.332646 0.000000
O O6 0.429956 0.900794 0.825135
O O7 0.342036 0.860834 0.706000
O O8 0.197525 0.860401 0.817295
O O9 0.280180 0.000000 0.750000
O O10 0.901375 0.390124 0.074006
O O11 0.000000 0.500000 0.000000
O O12 0.463252 0.243653 0.137529
#
# Coordination Sequence:
#
# PCOD9529175 Si02
#       6
#     8   8  16   8  16  16
#     4  11  24  44  64  97 134 176 218 275 324 384
#     4  11  22  43  65  98 133 165 224 274 324 396
#     4  11  23  40  63  96 131 167 218 273 320 396
#     4  12  20  37  66  93 127 168 210 273 339 372
#     4  11  22  40  63  93 132 166 210 273 337 379
#     4  11  22  42  67  91 131 177 218 268 332 402
#
# _framework density 21.566022
#
# number of rings (size 3 to 8) (size 9 to 14) (size 15 to 20)
#    0.000    0.889    4.444    4.000    0.000    1.778 
#    4.000    4.444    0.000    0.000    0.000    0.000 
#    0.000    0.000    0.000    0.000    0.000    0.000 
#
# Total GULP energy -200978.617073 kJ/mol
# GULP energy per Si atom -5582.739363 kJ/mol
# Density = 2.151694 g / cm^3
# Si number density = 21.566022 Si / 1000 Ang^3
#
#
#
# Elastic Constant Matrix: (Units=GPa)
#
#
# Indices 1 2 3 4 5 6 
#
# 1 35.2002 31.5272 16.0761 0.0000 0.0000 0.0000
# 2 31.5272 189.3754 48.1879 0.0000 0.0000 0.0000
# 3 16.0761 48.1879 154.0202 0.0000 0.0000 0.0000
# 4 0.0000 0.0000 0.0000 12.1077 0.0000 0.0000
# 5 0.0000 0.0000 0.0000 0.0000 -1.1750 0.0000
# 6 0.0000 0.0000 0.0000 0.0000 0.0000 22.7170
#
#
#
# Elastic Compliance Matrix: (Units=1/GPa)
#
#
# Indices 1 2 3 4 5 6 
#
# 1 0.033905 -0.005154 -0.001926 0.000000 0.000000 0.000000
# 2 -0.005154 0.006521 -0.001502 0.000000 0.000000 0.000000
# 3 -0.001926 -0.001502 0.007164 0.000000 0.000000 0.000000
# 4 0.000000 0.000000 0.000000 0.082592 0.000000 0.000000
# 5 0.000000 0.000000 0.000000 0.000000 -0.851029 0.000000
# 6 0.000000 0.000000 0.000000 0.000000 0.000000 0.044020
#
#
# Mechanical properties :
#
#
# Convention : Reuss Voigt Hill
#
# Bulk Modulus (GPa) = 32.86868 63.35314 48.11091
# Shear Modulus (GPa) = -7.69799 25.58357 8.94279
#
# Velocity S-wave (km/s) = -1.89136 3.44799 2.03855
# Velocity P-wave (km/s) = 3.24105 6.72991 5.28186
#
# Compressibility (1/GPa) = 0.03042410
#
# Stress axis : x y z
#
# Youngs Moduli (GPa) = 29.49402 153.35417 139.59285
#
# Poissons Ratio (x) = 0.79044 0.26889
# Poissons Ratio (y) = 0.15202 0.20969
# Poissons Ratio (z) = 0.05681 0.23036
#
# Static dielectric constant tensor:
#      x y z
#    x 1.832410 0.000000 0.000000 
#    y 0.000000 1.908020 0.000000 
#    z 0.000000 0.000000 1.793280 
# 
# From -- ./inp_files/30338.got.cif
#   From: 2010.05.17/outbox.cif.g08.bks.cpg/sg72_16_cif.got.tgz:30338.got - 2010.06.03 17:03:01.
