data_PCOD9529091
_publ_section_title
;
Structure prediction by ZEFSAII (Michael W. Deem and Ramdas Pophale) SiO2 
 PCOD9529091
Probable space group: I B A M
;
_chemical_formula_sum "Si O2"
_cell_formula_units_Z 116
_cell_length_a 21.181724
_cell_length_b 18.591650
_cell_length_c 15.079985
_cell_angle_alpha 90.000000
_cell_angle_beta 90.000000
_cell_angle_gamma 90.000000
_cell_volume 5938.546334
_symmetry_space_group_name_H-M "I B A M"
_symmetry_group_IT_number 72
_symmetry_cell_setting 'orthorhombic'
loop_
_space_group_symop_operation_xyz
x,y,z
-x,-y,z
x,-y,1/2-z
-x,y,1/2-z
-x,-y,-z
x,y,-z
-x,y,1/2+z
x,-y,1/2+z
1/2+x,1/2+y,1/2+z
1/2-x,1/2-y,1/2+z
1/2+x,1/2-y,-z
1/2-x,1/2+y,-z
1/2-x,1/2-y,1/2-z
1/2+x,1/2+y,1/2-z
1/2-x,1/2+y,z
1/2+x,1/2-y,z
loop_
_atom_site_type_symbol
_atom_site_label
_atom_site_fract_x
_atom_site_fract_y
_atom_site_fract_z
Si Si1 0.637285 0.719526 0.601750
Si Si2 0.107982 0.816308 0.104945
Si Si3 0.093960 0.979788 0.849665
Si Si4 0.070764 0.698826 0.758471
Si Si5 0.294298 0.427078 0.394672
Si Si6 0.179882 0.581520 0.239718
Si Si7 0.754261 0.338445 0.601446
Si Si8 0.500000 0.500000 0.500000
O O1 0.613852 0.718871 0.500000
O O2 0.590031 0.755735 0.670853
O O3 0.659445 0.639857 0.627806
O O4 0.700285 0.768953 0.603652
O O5 0.084918 0.895530 0.131574
O O6 0.075257 0.754629 0.160742
O O7 0.183135 0.815617 0.124068
O O8 0.098748 0.807707 0.000000
O O9 0.077921 0.000000 0.750000
O O10 0.166629 0.002199 0.867300
O O11 0.051837 0.019248 0.922339
O O12 0.122634 0.636896 0.772004
O O13 0.000000 0.670349 0.750000
O O14 0.283084 0.426233 0.500000
O O15 0.230379 0.417389 0.340004
O O16 0.157121 0.500000 0.250000
O O17 0.217228 0.606653 0.327921
O O18 0.754167 0.366574 0.500000
#
# Coordination Sequence:
#
# PCOD9529091 Si02
#       8
#    16  16  16  16  16  16  16   4
#     4   9  19  36  60  89 119 159 201 259 316 379
#     4  11  22  40  61  90 123 164 210 268 319 371
#     4  12  24  41  63  90 132 182 224 264 312 383
#     4  11  25  42  60  87 121 167 218 261 324 399
#     4  11  21  38  64  97 130 161 210 267 326 383
#     4  11  23  39  63  94 122 157 207 268 336 400
#     4   9  18  35  61  89 121 150 196 258 326 386
#     4  12  26  44  52  90 132 180 226 264 312 382
#
# _framework density 19.5334
#
# number of rings (size 3 to 8) (size 9 to 14) (size 15 to 20)
#    0.000    1.379    1.379    4.759    0.000    8.552 
#    0.000    0.000    0.000    0.000    0.000    5.793 
#    0.000    0.000    0.000    0.000    0.000    0.000 
#
# Total GULP energy -323867.853027 kJ/mol
# GULP energy per Si atom -5583.928500 kJ/mol
# Density = 1.948894 g / cm^3
# Si number density = 19.533400 Si / 1000 Ang^3
#
#
#
# Elastic Constant Matrix: (Units=GPa)
#
#
# Indices 1 2 3 4 5 6 
#
# 1 103.5354 24.3337 44.2413 0.0000 0.0000 0.0000
# 2 24.3337 87.9189 26.6061 0.0000 0.0000 0.0000
# 3 44.2413 26.6061 101.2492 0.0000 0.0000 0.0000
# 4 0.0000 0.0000 0.0000 -4.0740 0.0000 0.0000
# 5 0.0000 0.0000 0.0000 0.0000 13.9319 0.0000
# 6 0.0000 0.0000 0.0000 0.0000 0.0000 5.6188
#
#
#
# Elastic Compliance Matrix: (Units=1/GPa)
#
#
# Indices 1 2 3 4 5 6 
#
# 1 0.012164 -0.001910 -0.004813 0.000000 0.000000 0.000000
# 2 -0.001910 0.012657 -0.002491 0.000000 0.000000 0.000000
# 3 -0.004813 -0.002491 0.012634 0.000000 0.000000 0.000000
# 4 0.000000 0.000000 0.000000 -0.245456 0.000000 0.000000
# 5 0.000000 0.000000 0.000000 0.000000 0.071778 0.000000
# 6 0.000000 0.000000 0.000000 0.000000 0.000000 0.177975
#
#
# Mechanical properties :
#
#
# Convention : Reuss Voigt Hill
#
# Bulk Modulus (GPa) = 52.55962 53.67399 53.11681
# Shear Modulus (GPa) = 75.16195 16.26348 45.71272
#
# Velocity S-wave (km/s) = 6.20985 2.88861 4.84284
# Velocity P-wave (km/s) = 8.85338 6.21797 7.65001
#
# Compressibility (1/GPa) = 0.01902601
#
# Stress axis : x y z
#
# Youngs Moduli (GPa) = 82.20847 79.00951 79.14874
#
# Poissons Ratio (x) = 0.15092 0.38096
# Poissons Ratio (y) = 0.15703 0.19718
# Poissons Ratio (z) = 0.39569 0.19683
#
# Static dielectric constant tensor:
#      x y z
#    x 1.694400 0.000000 0.000000 
#    y 0.000000 1.706560 0.000000 
#    z 0.000000 0.000000 1.674700 
# 
# From -- ./inp_files/25411.got.cif
#   From: 2010.05.17/outbox.cif.g08.bks.cpg/sg72_13_cif.got.tgz:25411.got - 2010.06.03 17:03:01.
