data_PCOD9529918
_publ_section_title
;
Structure prediction by ZEFSAII (Michael W. Deem and Ramdas Pophale) SiO2 
 PCOD9529918
Probable space group: I B C A 
;
_chemical_formula_sum "Si O2"
_cell_formula_units_Z 104
_cell_length_a 16.338653
_cell_length_b 19.818999
_cell_length_c 16.047863
_cell_angle_alpha 90.000000
_cell_angle_beta 90.000000
_cell_angle_gamma 90.000000
_cell_volume 5196.550753
_symmetry_space_group_name_H-M "I B C A "
_symmetry_group_IT_number 73
_symmetry_cell_setting 'orthorhombic'
loop_
_space_group_symop_operation_xyz
x,y,z
-x,1/2-y,z
x,-y,1/2-z
1/2-x,y,-z
-x,-y,-z
x,1/2+y,-z
-x,y,1/2+z
1/2+x,-y,z
1/2+x,1/2+y,1/2+z
1/2-x,-y,1/2+z
1/2+x,1/2-y,-z
-x,1/2+y,1/2-z
1/2-x,1/2-y,1/2-z
1/2+x,y,1/2-z
1/2-x,1/2+y,z
x,1/2-y,1/2+z
loop_
_atom_site_type_symbol
_atom_site_label
_atom_site_fract_x
_atom_site_fract_y
_atom_site_fract_z
Si Si1 0.556582 0.388205 0.719453
Si Si2 0.951822 0.073039 0.432157
Si Si3 0.025464 0.065186 0.612252
Si Si4 0.500000 0.250000 0.276870
Si Si5 0.906334 0.224194 0.436961
Si Si6 0.367955 0.800025 0.101340
Si Si7 0.795310 0.802551 0.689677
O O1 0.531712 0.416412 0.628489
O O2 0.524316 0.428917 0.800665
O O3 0.504267 0.319033 0.727250
O O4 0.651330 0.365199 0.724075
O O5 0.903601 0.143448 0.429100
O O6 0.968871 0.061983 0.529974
O O7 0.919842 0.002727 0.393396
O O8 0.076572 0.133178 0.596990
O O9 0.419004 0.246354 0.333734
O O10 0.864182 0.255294 0.518851
O O11 0.861009 0.258899 0.360830
O O12 0.000000 0.250000 0.444335
O O13 0.279109 0.823423 0.130328
O O14 0.750000 0.750000 0.750000
#
# Coordination Sequence:
#
# PCOD9529918 Si02
#       7
#    16  16  16   8  16  16  16
#     4  11  20  38  61  91 128 170 211 267 331 391
#     4  11  22  39  68  97 119 170 226 269 326 397
#     4  10  23  40  67  93 128 167 222 274 322 404
#     4  10  18  34  66  86 122 160 214 276 298 382
#     4  12  21  40  68  94 125 168 221 276 331 392
#     4  11  21  40  64  96 127 168 221 271 338 387
#     4  12  25  35  61  98 134 165 214 279 332 386
#
# _framework density 20.013276000000001
#
# number of rings (size 3 to 8) (size 9 to 14) (size 15 to 20)
#    0.000    0.923    5.385    2.769    2.154    0.000 
#    0.000    0.000    6.769    3.692    0.000    0.000 
#    0.000    0.000    0.000    0.000    0.000    0.000 
#
# Total GULP energy -289856.756365 kJ/mol
# GULP energy per Si atom -5574.168392 kJ/mol
# Density = 1.996772 g / cm^3
# Si number density = 20.013276 Si / 1000 Ang^3
#
#
#
# Elastic Constant Matrix: (Units=GPa)
#
#
# Indices 1 2 3 4 5 6 
#
# 1 66.6801 4.5910 26.2443 0.0000 0.0000 0.0000
# 2 4.5910 103.0515 27.0099 0.0000 0.0000 0.0000
# 3 26.2443 27.0099 114.0062 0.0000 0.0000 0.0000
# 4 0.0000 0.0000 0.0000 29.1805 0.0000 0.0000
# 5 0.0000 0.0000 0.0000 0.0000 27.9102 0.0000
# 6 0.0000 0.0000 0.0000 0.0000 0.0000 18.0666
#
#
#
# Elastic Compliance Matrix: (Units=1/GPa)
#
#
# Indices 1 2 3 4 5 6 
#
# 1 0.016499 0.000278 -0.003864 0.000000 0.000000 0.000000
# 2 0.000278 0.010351 -0.002516 0.000000 0.000000 0.000000
# 3 -0.003864 -0.002516 0.010257 0.000000 0.000000 0.000000
# 4 0.000000 0.000000 0.000000 0.034269 0.000000 0.000000
# 5 0.000000 0.000000 0.000000 0.000000 0.035829 0.000000
# 6 0.000000 0.000000 0.000000 0.000000 0.000000 0.055351
#
#
# Mechanical properties :
#
#
# Convention : Reuss Voigt Hill
#
# Bulk Modulus (GPa) = 40.15749 44.38092 42.26920
# Shear Modulus (GPa) = 27.31324 30.09097 28.70210
#
# Velocity S-wave (km/s) = 3.69827 3.88177 3.79113
# Velocity P-wave (km/s) = 6.19235 6.50498 6.35059
#
# Compressibility (1/GPa) = 0.02490195
#
# Stress axis : x y z
#
# Youngs Moduli (GPa) = 60.61132 96.60879 97.49410
#
# Poissons Ratio (x) = -0.02683 0.37669
# Poissons Ratio (y) = -0.01683 0.24532
# Poissons Ratio (z) = 0.23419 0.24309
#
# Static dielectric constant tensor:
#      x y z
#    x 1.703850 0.000000 0.000000 
#    y 0.000000 1.762720 0.000000 
#    z 0.000000 0.000000 1.796320 
# 
# From -- ./inp_files/22070.got.cif
#   From: 2010.05.17/outbox.cif.g08.bks.cpg/sg73_12_cif.got.tgz:22070.got - 2010.06.03 17:35:07.
