data_PCOD9529130
_publ_section_title
;
Structure prediction by ZEFSAII (Michael W. Deem and Ramdas Pophale) SiO2 
 PCOD9529130
Probable space group: I B A M
;
_chemical_formula_sum "Si O2"
_cell_formula_units_Z 80
_cell_length_a 17.851746
_cell_length_b 26.674563
_cell_length_c 9.089169
_cell_angle_alpha 90.000000
_cell_angle_beta 90.000000
_cell_angle_gamma 90.000000
_cell_volume 4328.148875
_symmetry_space_group_name_H-M "I B A M"
_symmetry_group_IT_number 72
_symmetry_cell_setting 'orthorhombic'
loop_
_space_group_symop_operation_xyz
x,y,z
-x,-y,z
x,-y,1/2-z
-x,y,1/2-z
-x,-y,-z
x,y,-z
-x,y,1/2+z
x,-y,1/2+z
1/2+x,1/2+y,1/2+z
1/2-x,1/2-y,1/2+z
1/2+x,1/2-y,-z
1/2-x,1/2+y,-z
1/2-x,1/2-y,1/2-z
1/2+x,1/2+y,1/2-z
1/2-x,1/2+y,z
1/2+x,1/2-y,z
loop_
_atom_site_type_symbol
_atom_site_label
_atom_site_fract_x
_atom_site_fract_y
_atom_site_fract_z
Si Si1 0.798924 0.450117 0.669679
Si Si2 0.876865 0.161579 0.821186
Si Si3 0.883827 0.050351 0.830651
Si Si4 0.074747 0.263117 0.822971
Si Si5 0.701681 0.840838 0.321551
O O1 0.824712 0.500000 0.750000
O O2 0.821445 0.453017 0.500000
O O3 0.707589 0.449608 0.672876
O O4 0.822559 0.396105 0.732198
O O5 0.904104 0.105961 0.774460
O O6 0.915934 0.207414 0.741195
O O7 0.788509 0.166600 0.782646
O O8 0.883864 0.164697 0.000000
O O9 0.909086 0.000000 0.750000
O O10 0.907103 0.047221 0.000000
O O11 0.146303 0.296608 0.777753
O O12 0.000000 0.284999 0.750000
O O13 0.069481 0.262150 0.000000
O O14 0.700342 0.843227 0.500000
#
# Coordination Sequence:
#
# PCOD9529130 Si02
#       5
#    16  16  16  16  16
#     4   8  13  24  42  67  96 123 150 186 230 277
#     4   9  17  32  52  74  98 125 157 197 239 281
#     4   8  14  24  42  68  98 125 149 182 229 278
#     4  11  22  35  50  69  94 128 164 200 241 286
#     4   8  16  31  51  72  97 127 159 195 238 282
#
# _framework density 18.483651999999999
#
# number of rings (size 3 to 8) (size 9 to 14) (size 15 to 20)
#    0.000    3.200    0.000    3.600    0.000    0.800 
#    0.000    6.000    0.000    1.200    0.000    8.400 
#    0.000    0.000    0.000    0.000    0.000    0.000 
#
# Total GULP energy -222801.008238 kJ/mol
# GULP energy per Si atom -5570.025206 kJ/mol
# Density = 1.844158 g / cm^3
# Si number density = 18.483652 Si / 1000 Ang^3
#
#
#
# Elastic Constant Matrix: (Units=GPa)
#
#
# Indices 1 2 3 4 5 6 
#
# 1 57.0973 37.3126 15.5861 0.0000 0.0000 0.0000
# 2 37.3126 134.4745 35.4618 0.0000 0.0000 0.0000
# 3 15.5861 35.4618 30.7629 0.0000 0.0000 0.0000
# 4 0.0000 0.0000 0.0000 28.8982 0.0000 0.0000
# 5 0.0000 0.0000 0.0000 0.0000 14.9533 0.0000
# 6 0.0000 0.0000 0.0000 0.0000 0.0000 -11.8653
#
#
#
# Elastic Compliance Matrix: (Units=1/GPa)
#
#
# Indices 1 2 3 4 5 6 
#
# 1 0.022123 -0.004573 -0.005937 0.000000 0.000000 0.000000
# 2 -0.004573 0.011629 -0.011089 0.000000 0.000000 0.000000
# 3 -0.005937 -0.011089 0.048298 0.000000 0.000000 0.000000
# 4 0.000000 0.000000 0.000000 0.034604 0.000000 0.000000
# 5 0.000000 0.000000 0.000000 0.000000 0.066875 0.000000
# 6 0.000000 0.000000 0.000000 0.000000 0.000000 -0.084280
#
#
# Mechanical properties :
#
#
# Convention : Reuss Voigt Hill
#
# Bulk Modulus (GPa) = 25.73890 44.33955 35.03922
# Shear Modulus (GPa) = 32.17542 15.32885 23.75214
#
# Velocity S-wave (km/s) = 4.17676 2.88292 3.58863
# Velocity P-wave (km/s) = 6.10048 5.92640 6.01407
#
# Compressibility (1/GPa) = 0.03885170
#
# Stress axis : x y z
#
# Youngs Moduli (GPa) = 45.20191 85.98919 20.70497
#
# Poissons Ratio (x) = 0.39320 0.12293
# Poissons Ratio (y) = 0.20670 0.22960
# Poissons Ratio (z) = 0.26838 0.95353
#
# Static dielectric constant tensor:
#      x y z
#    x 1.641440 0.000000 0.000000 
#    y 0.000000 1.669100 0.000000 
#    z 0.000000 0.000000 1.639530 
# 
# From -- ./inp_files/4784.got.cif
#   From: 2010.05.17/outbox.cif.g08.bks.cpg/sg72_3_cif.got.tgz:4784.got - 2010.06.03 17:03:01.
