data_PCOD9529404
_publ_section_title
;
Structure prediction by ZEFSAII (Michael W. Deem and Ramdas Pophale) SiO2 
 PCOD9529404
Probable space group: I B A M
;
_chemical_formula_sum "Si O2"
_cell_formula_units_Z 88
_cell_length_a 8.404415
_cell_length_b 20.550636
_cell_length_c 22.836772
_cell_angle_alpha 90.000000
_cell_angle_beta 90.000000
_cell_angle_gamma 90.000000
_cell_volume 3944.277590
_symmetry_space_group_name_H-M "I B A M"
_symmetry_group_IT_number 72
_symmetry_cell_setting 'orthorhombic'
loop_
_space_group_symop_operation_xyz
x,y,z
-x,-y,z
x,-y,1/2-z
-x,y,1/2-z
-x,-y,-z
x,y,-z
-x,y,1/2+z
x,-y,1/2+z
1/2+x,1/2+y,1/2+z
1/2-x,1/2-y,1/2+z
1/2+x,1/2-y,-z
1/2-x,1/2+y,-z
1/2-x,1/2-y,1/2-z
1/2+x,1/2+y,1/2-z
1/2-x,1/2+y,z
1/2+x,1/2-y,z
loop_
_atom_site_type_symbol
_atom_site_label
_atom_site_fract_x
_atom_site_fract_y
_atom_site_fract_z
Si Si1 0.785787 0.959800 0.191427
Si Si2 0.502645 0.113543 0.063811
Si Si3 0.314465 0.191540 0.658870
Si Si4 0.249402 0.493696 0.565905
Si Si5 0.038684 0.176124 0.183372
Si Si6 0.000000 0.607187 0.750000
O O1 0.816240 0.000121 0.131864
O O2 0.886564 0.894623 0.185227
O O3 0.602334 0.936237 0.204302
O O4 0.824348 0.000000 0.250000
O O5 0.566069 0.163195 0.110832
O O6 0.334929 0.077101 0.071178
O O7 0.623918 0.052504 0.063548
O O8 0.504489 0.144833 0.000000
O O9 0.341311 0.268503 0.661978
O O10 0.373157 0.152888 0.716879
O O11 0.129090 0.176976 0.649513
O O12 0.324764 0.494485 0.500000
O O13 0.000000 0.195528 0.250000
#
# Coordination Sequence:
#
# PCOD9529404 Si02
#       6
#    16  16  16  16  16   8
#     4  12  25  40  64 102 137 171 221 276 329 395
#     4   9  19  38  65  96 129 170 218 268 322 393
#     4  12  23  43  66  91 130 173 221 271 337 393
#     4   9  19  38  65  97 134 174 215 266 334 397
#     4  12  26  43  62  95 132 175 214 278 338 392
#     4  12  21  38  66  94 131 166 220 266 332 398
#
# _framework density 22.310801000000001
#
# number of rings (size 3 to 8) (size 9 to 14) (size 15 to 20)
#    0.000    1.091    4.545    4.091    2.545    0.364 
#    0.000    2.727    0.000    2.182    0.000    0.000 
#    0.000    0.000    0.000    0.000    0.000    0.000 
#
# Total GULP energy -245728.768623 kJ/mol
# GULP energy per Si atom -5584.744741 kJ/mol
# Density = 2.226002 g / cm^3
# Si number density = 22.310801 Si / 1000 Ang^3
#
#
#
# Elastic Constant Matrix: (Units=GPa)
#
#
# Indices 1 2 3 4 5 6 
#
# 1 86.1285 16.7795 -3.9581 0.0000 0.0000 0.0000
# 2 16.7795 92.5453 14.4924 0.0000 0.0000 0.0000
# 3 -3.9581 14.4924 136.6533 0.0000 0.0000 0.0000
# 4 0.0000 0.0000 0.0000 14.6378 0.0000 0.0000
# 5 0.0000 0.0000 0.0000 0.0000 -27.2608 0.0000
# 6 0.0000 0.0000 0.0000 0.0000 0.0000 15.2472
#
#
#
# Elastic Compliance Matrix: (Units=1/GPa)
#
#
# Indices 1 2 3 4 5 6 
#
# 1 0.012083 -0.002283 0.000592 0.000000 0.000000 0.000000
# 2 -0.002283 0.011420 -0.001277 0.000000 0.000000 0.000000
# 3 0.000592 -0.001277 0.007470 0.000000 0.000000 0.000000
# 4 0.000000 0.000000 0.000000 0.068316 0.000000 0.000000
# 5 0.000000 0.000000 0.000000 0.000000 -0.036683 0.000000
# 6 0.000000 0.000000 0.000000 0.000000 0.000000 0.065586
#
#
# Mechanical properties :
#
#
# Convention : Reuss Voigt Hill
#
# Bulk Modulus (GPa) = 39.94322 41.10606 40.52464
# Shear Modulus (GPa) = 35.09414 19.72575 27.40994
#
# Velocity S-wave (km/s) = 3.97037 2.97667 3.50887
# Velocity P-wave (km/s) = 6.24182 5.50258 5.88382
#
# Compressibility (1/GPa) = 0.02503554
#
# Stress axis : x y z
#
# Youngs Moduli (GPa) = 82.76343 87.56923 133.86182
#
# Poissons Ratio (x) = 0.19996 -0.07926
# Poissons Ratio (y) = 0.18899 0.17097
# Poissons Ratio (z) = -0.04901 0.11184
#
# Static dielectric constant tensor:
#      x y z
#    x 1.882040 0.000000 0.000000 
#    y 0.000000 1.788320 0.000000 
#    z 0.000000 0.000000 1.894260 
# 
# From -- ./inp_files/42289.got.cif
#   From: 2010.05.17/outbox.cif.g08.bks.cpg/sg72_22_cif.got.tgz:42289.got - 2010.06.03 17:03:01.
