data_PCOD9529678
_publ_section_title
;
Structure prediction by ZEFSAII (Michael W. Deem and Ramdas Pophale) SiO2 
 PCOD9529678
Probable space group: I B C A 
;
_chemical_formula_sum "Si O2"
_cell_formula_units_Z 112
_cell_length_a 30.842066
_cell_length_b 27.534763
_cell_length_c 5.345196
_cell_angle_alpha 90.000000
_cell_angle_beta 90.000000
_cell_angle_gamma 90.000000
_cell_volume 4539.295335
_symmetry_space_group_name_H-M "I B C A "
_symmetry_group_IT_number 73
_symmetry_cell_setting 'orthorhombic'
loop_
_space_group_symop_operation_xyz
x,y,z
-x,1/2-y,z
x,-y,1/2-z
1/2-x,y,-z
-x,-y,-z
x,1/2+y,-z
-x,y,1/2+z
1/2+x,-y,z
1/2+x,1/2+y,1/2+z
1/2-x,-y,1/2+z
1/2+x,1/2-y,-z
-x,1/2+y,1/2-z
1/2-x,1/2-y,1/2-z
1/2+x,y,1/2-z
1/2-x,1/2+y,z
x,1/2-y,1/2+z
loop_
_atom_site_type_symbol
_atom_site_label
_atom_site_fract_x
_atom_site_fract_y
_atom_site_fract_z
Si Si1 0.389941 0.087847 0.517386
Si Si2 0.018388 0.194142 0.969830
Si Si3 0.311072 0.063467 0.874895
Si Si4 0.350761 0.000000 0.250000
Si Si5 0.670353 0.351072 0.234987
Si Si6 0.524408 0.557863 0.735781
Si Si7 0.116711 0.219628 0.057156
Si Si8 0.750000 0.119250 0.000000
O O1 0.354271 0.075045 0.722949
O O2 0.382831 0.044235 0.318694
O O3 0.373409 0.136919 0.388200
O O4 0.435082 0.087045 0.655832
O O5 0.069249 0.195856 0.024095
O O6 0.000000 0.250000 0.949231
O O7 0.006739 0.171545 0.703638
O O8 0.271931 0.082612 0.703594
O O9 0.318967 0.012214 0.015535
O O10 0.313633 0.099581 0.108601
O O11 0.656428 0.314896 0.017904
O O12 0.711301 0.344268 0.414035
O O13 0.535045 0.500000 0.750000
O O14 0.512595 0.566543 0.446598
O O15 0.118796 0.259837 0.836349
#
# Coordination Sequence:
#
# PCOD9529678 Si02
#       8
#    16  16  16   8  16  16  16   8
#     4  10  22  40  65  92 134 176 223 272 334 398
#     4  10  16  34  59  93 133 173 207 266 335 384
#     4  10  21  41  72  93 132 172 221 267 347 405
#     4  10  20  36  70 102 124 170 220 274 320 404
#     4  10  25  43  71  93 129 179 212 282 349 414
#     4  10  22  35  58  92 132 181 230 277 322 377
#     4  12  24  41  70 104 133 172 236 276 331 413
#     4  10  22  46  70  92 134 178 210 272 356 414
#
# _framework density 24.673432999999999
#
# number of rings (size 3 to 8) (size 9 to 14) (size 15 to 20)
#    0.000    1.714    2.857    1.714   11.000    0.000 
#    0.000    2.143  113.143    0.000    0.000    0.000 
#    0.000    0.000    0.000    0.000    0.000    0.000 
#
# Total GULP energy -313001.723289 kJ/mol
# GULP energy per Si atom -5589.316487 kJ/mol
# Density = 2.461728 g / cm^3
# Si number density = 24.673433 Si / 1000 Ang^3
#
#
#
# Elastic Constant Matrix: (Units=GPa)
#
#
# Indices 1 2 3 4 5 6 
#
# 1 99.4997 18.8081 -6.5326 0.0000 0.0000 0.0000
# 2 18.8081 36.8374 7.5631 0.0000 0.0000 0.0000
# 3 -6.5326 7.5631 86.1059 0.0000 0.0000 0.0000
# 4 0.0000 0.0000 0.0000 34.3777 0.0000 0.0000
# 5 0.0000 0.0000 0.0000 0.0000 27.0354 0.0000
# 6 0.0000 0.0000 0.0000 0.0000 0.0000 12.2453
#
#
#
# Elastic Compliance Matrix: (Units=1/GPa)
#
#
# Indices 1 2 3 4 5 6 
#
# 1 0.011284 -0.006046 0.001387 0.000000 0.000000 0.000000
# 2 -0.006046 0.030884 -0.003171 0.000000 0.000000 0.000000
# 3 0.001387 -0.003171 0.011997 0.000000 0.000000 0.000000
# 4 0.000000 0.000000 0.000000 0.029089 0.000000 0.000000
# 5 0.000000 0.000000 0.000000 0.000000 0.036989 0.000000
# 6 0.000000 0.000000 0.000000 0.000000 0.000000 0.081664
#
#
# Mechanical properties :
#
#
# Convention : Reuss Voigt Hill
#
# Bulk Modulus (GPa) = 25.97053 29.12446 27.54750
# Shear Modulus (GPa) = 21.70107 28.23863 24.96985
#
# Velocity S-wave (km/s) = 2.96891 3.38671 3.18467
# Velocity P-wave (km/s) = 4.72240 5.20794 4.97111
#
# Compressibility (1/GPa) = 0.03850518
#
# Stress axis : x y z
#
# Youngs Moduli (GPa) = 88.61914 32.37878 83.35134
#
# Poissons Ratio (x) = 0.19577 -0.11562
# Poissons Ratio (y) = 0.53581 0.26434
# Poissons Ratio (z) = -0.12293 0.10269
#
# Static dielectric constant tensor:
#      x y z
#    x 1.936110 0.000000 0.000000 
#    y 0.000000 2.095550 0.000000 
#    z 0.000000 0.000000 2.030290 
# 
# From -- ./inp_files/3279.got.cif
#   From: 2010.05.17/outbox.cif.g08.bks.cpg/sg73_2_cif.got.tgz:3279.got - 2010.06.03 17:35:07.
