data_PCOD9529837
_publ_section_title
;
Structure prediction by ZEFSAII (Michael W. Deem and Ramdas Pophale) SiO2 
 PCOD9529837
Probable space group: I B C A 
;
_chemical_formula_sum "Si O2"
_cell_formula_units_Z 96
_cell_length_a 10.399893
_cell_length_b 23.985973
_cell_length_c 19.854048
_cell_angle_alpha 90.000000
_cell_angle_beta 90.000000
_cell_angle_gamma 90.000000
_cell_volume 4952.623101
_symmetry_space_group_name_H-M "I B C A "
_symmetry_group_IT_number 73
_symmetry_cell_setting 'orthorhombic'
loop_
_space_group_symop_operation_xyz
x,y,z
-x,1/2-y,z
x,-y,1/2-z
1/2-x,y,-z
-x,-y,-z
x,1/2+y,-z
-x,y,1/2+z
1/2+x,-y,z
1/2+x,1/2+y,1/2+z
1/2-x,-y,1/2+z
1/2+x,1/2-y,-z
-x,1/2+y,1/2-z
1/2-x,1/2-y,1/2-z
1/2+x,y,1/2-z
1/2-x,1/2+y,z
x,1/2-y,1/2+z
loop_
_atom_site_type_symbol
_atom_site_label
_atom_site_fract_x
_atom_site_fract_y
_atom_site_fract_z
Si Si1 0.492198 0.838991 0.388052
Si Si2 0.489725 0.878145 0.744512
Si Si3 0.140433 0.225576 0.201138
Si Si4 0.083578 0.454852 0.859382
Si Si5 0.295488 0.749290 0.925859
Si Si6 0.140230 0.467579 0.178398
O O1 0.454869 0.844335 0.308921
O O2 0.536199 0.902123 0.403966
O O3 0.612341 0.797556 0.396520
O O4 0.377762 0.808179 0.426379
O O5 0.383483 0.840212 0.709728
O O6 0.422636 0.929651 0.782912
O O7 0.597644 0.904501 0.697036
O O8 0.250000 0.250000 0.250000
O O9 0.180405 0.241111 0.125970
O O10 0.000000 0.250000 0.216193
O O11 0.231445 0.470917 0.865964
O O12 0.979406 0.503456 0.859306
O O13 0.250000 0.763784 0.000000
O O14 0.159838 0.500000 0.250000
#
# Coordination Sequence:
#
# PCOD9529837 Si02
#       6
#    16  16  16  16  16  16
#     4   9  21  39  60  83 121 168 203 267 312 377
#     4   9  20  31  56  86 130 156 201 251 324 366
#     4  12  24  37  59  92 124 164 209 266 323 386
#     4   9  20  33  57  85 130 158 199 250 324 365
#     4  11  24  41  61  85 126 171 218 254 316 392
#     4  10  18  32  52  92 131 159 197 259 316 385
#
# _framework density 19.383666999999999
#
# number of rings (size 3 to 8) (size 9 to 14) (size 15 to 20)
#    1.000    1.000    1.667    2.500    9.333    1.333 
#    0.000    0.000    0.000    0.000    0.000   10.500 
#    0.000    0.000    0.000    0.000    0.000    0.000 
#
# Total GULP energy -267375.005599 kJ/mol
# GULP energy per Si atom -5570.312617 kJ/mol
# Density = 1.933955 g / cm^3
# Si number density = 19.383667 Si / 1000 Ang^3
#
#
#
# Elastic Constant Matrix: (Units=GPa)
#
#
# Indices 1 2 3 4 5 6 
#
# 1 125.9067 40.8900 13.5533 0.0000 0.0000 0.0000
# 2 40.8900 68.5129 18.2348 0.0000 0.0000 0.0000
# 3 13.5533 18.2348 29.1550 0.0000 0.0000 0.0000
# 4 0.0000 0.0000 0.0000 4.6851 0.0000 0.0000
# 5 0.0000 0.0000 0.0000 0.0000 6.0125 0.0000
# 6 0.0000 0.0000 0.0000 0.0000 0.0000 31.2743
#
#
#
# Elastic Compliance Matrix: (Units=1/GPa)
#
#
# Indices 1 2 3 4 5 6 
#
# 1 0.009881 -0.005608 -0.001086 0.000000 0.000000 0.000000
# 2 -0.005608 0.020694 -0.010336 0.000000 0.000000 0.000000
# 3 -0.001086 -0.010336 0.041269 0.000000 0.000000 0.000000
# 4 0.000000 0.000000 0.000000 0.213442 0.000000 0.000000
# 5 0.000000 0.000000 0.000000 0.000000 0.166319 0.000000
# 6 0.000000 0.000000 0.000000 0.000000 0.000000 0.031975
#
#
# Mechanical properties :
#
#
# Convention : Reuss Voigt Hill
#
# Bulk Modulus (GPa) = 26.46623 40.99229 33.72926
# Shear Modulus (GPa) = 9.42983 18.45415 13.94199
#
# Velocity S-wave (km/s) = 2.20803 3.08887 2.68482
# Velocity P-wave (km/s) = 4.49267 5.82368 5.20093
#
# Compressibility (1/GPa) = 0.03778399
#
# Stress axis : x y z
#
# Youngs Moduli (GPa) = 101.20927 48.32411 24.23149
#
# Poissons Ratio (x) = 0.27100 0.02631
# Poissons Ratio (y) = 0.56758 0.25045
# Poissons Ratio (z) = 0.10988 0.49946
#
# Static dielectric constant tensor:
#      x y z
#    x 1.716040 0.000000 0.000000 
#    y 0.000000 1.757580 0.000000 
#    z 0.000000 0.000000 1.648940 
# 
# From -- ./inp_files/24861.got.cif
#   From: 2010.05.17/outbox.cif.g08.bks.cpg/sg73_13_cif.got.tgz:24861.got - 2010.06.03 17:35:07.
