data_PCOD9529304
_publ_section_title
;
Structure prediction by ZEFSAII (Michael W. Deem and Ramdas Pophale) SiO2 
 PCOD9529304
Probable space group: I B A M
;
_chemical_formula_sum "Si O2"
_cell_formula_units_Z 64
_cell_length_a 21.174325
_cell_length_b 8.658930
_cell_length_c 16.089308
_cell_angle_alpha 90.000000
_cell_angle_beta 90.000000
_cell_angle_gamma 90.000000
_cell_volume 2949.926321
_symmetry_space_group_name_H-M "I B A M"
_symmetry_group_IT_number 72
_symmetry_cell_setting 'orthorhombic'
loop_
_space_group_symop_operation_xyz
x,y,z
-x,-y,z
x,-y,1/2-z
-x,y,1/2-z
-x,-y,-z
x,y,-z
-x,y,1/2+z
x,-y,1/2+z
1/2+x,1/2+y,1/2+z
1/2-x,1/2-y,1/2+z
1/2+x,1/2-y,-z
1/2-x,1/2+y,-z
1/2-x,1/2-y,1/2-z
1/2+x,1/2+y,1/2-z
1/2-x,1/2+y,z
1/2+x,1/2-y,z
loop_
_atom_site_type_symbol
_atom_site_label
_atom_site_fract_x
_atom_site_fract_y
_atom_site_fract_z
Si Si1 0.066952 0.437180 0.656023
Si Si2 0.937483 0.903760 0.597750
Si Si3 0.310173 0.100744 0.594217
Si Si4 0.812775 0.932138 0.842258
O O1 0.072527 0.500000 0.750000
O O2 0.066596 0.252642 0.650537
O O3 0.126573 0.502589 0.606712
O O4 0.000000 0.500000 0.622782
O O5 0.941186 0.862151 0.500000
O O6 0.875782 0.006513 0.613340
O O7 0.000000 0.000000 0.619492
O O8 0.306969 0.160226 0.500000
O O9 0.311399 0.247410 0.654964
O O10 0.249493 0.996875 0.613033
O O11 0.813014 0.000000 0.750000
#
# Coordination Sequence:
#
# PCOD9529304 Si02
#       4
#    16  16  16  16
#     4  11  24  43  66  96 132 172 217 267 325 389
#     4  11  24  43  68  98 133 173 219 271 328 390
#     4  12  24  41  66  95 130 170 217 270 326 388
#     4  12  25  43  66  94 129 170 217 269 329 392
#
# _framework density 21.695457999999999
#
# number of rings (size 3 to 8) (size 9 to 14) (size 15 to 20)
#    0.000    0.500    0.000    9.000    0.000    6.500 
#    0.000    0.000    0.000    0.000    0.000    0.000 
#    0.000    0.000    0.000    0.000    0.000    0.000 
#
# Total GULP energy -179334.836325 kJ/mol
# GULP energy per Si atom -5604.213635 kJ/mol
# Density = 2.164608 g / cm^3
# Si number density = 21.695458 Si / 1000 Ang^3
#
#
#
# Elastic Constant Matrix: (Units=GPa)
#
#
# Indices 1 2 3 4 5 6 
#
# 1 194.2682 55.4235 11.3320 0.0000 0.0000 0.0000
# 2 55.4235 126.4349 7.7246 0.0000 0.0000 0.0000
# 3 11.3320 7.7246 79.4186 0.0000 0.0000 0.0000
# 4 0.0000 0.0000 0.0000 33.4407 0.0000 0.0000
# 5 0.0000 0.0000 0.0000 0.0000 15.7002 0.0000
# 6 0.0000 0.0000 0.0000 0.0000 0.0000 39.5976
#
#
#
# Elastic Compliance Matrix: (Units=1/GPa)
#
#
# Indices 1 2 3 4 5 6 
#
# 1 0.005911 -0.002555 -0.000595 0.000000 0.000000 0.000000
# 2 -0.002555 0.009061 -0.000517 0.000000 0.000000 0.000000
# 3 -0.000595 -0.000517 0.012727 0.000000 0.000000 0.000000
# 4 0.000000 0.000000 0.000000 0.029904 0.000000 0.000000
# 5 0.000000 0.000000 0.000000 0.000000 0.063693 0.000000
# 6 0.000000 0.000000 0.000000 0.000000 0.000000 0.025254
#
#
# Mechanical properties :
#
#
# Convention : Reuss Voigt Hill
#
# Bulk Modulus (GPa) = 49.10279 61.00911 55.05595
# Shear Modulus (GPa) = 31.11949 39.45715 35.28832
#
# Velocity S-wave (km/s) = 3.79143 4.26923 4.03740
# Velocity P-wave (km/s) = 6.46904 7.24455 6.86775
#
# Compressibility (1/GPa) = 0.02036544
#
# Stress axis : x y z
#
# Youngs Moduli (GPa) = 169.17321 110.36680 78.57523
#
# Poissons Ratio (x) = 0.28197 0.04675
# Poissons Ratio (y) = 0.43221 0.04060
# Poissons Ratio (z) = 0.10065 0.05703
#
# Static dielectric constant tensor:
#      x y z
#    x 1.757980 0.000000 0.000000 
#    y 0.000000 1.747780 0.000000 
#    z 0.000000 0.000000 1.795290 
# 
# From -- ./inp_files/24737.got.cif
#   From: 2010.05.17/outbox.cif.g08.bks.cpg/sg72_13_cif.got.tgz:24737.got - 2010.06.03 17:03:01.
