data_PCOD9529007
_publ_section_title
;
Structure prediction by ZEFSAII (Michael W. Deem and Ramdas Pophale) SiO2 
 PCOD9529007
Probable space group: I B A M
;
_chemical_formula_sum "Si O2"
_cell_formula_units_Z 80
_cell_length_a 20.063201
_cell_length_b 28.412682
_cell_length_c 8.578746
_cell_angle_alpha 90.000000
_cell_angle_beta 90.000000
_cell_angle_gamma 90.000000
_cell_volume 4890.308580
_symmetry_space_group_name_H-M "I B A M"
_symmetry_group_IT_number 72
_symmetry_cell_setting 'orthorhombic'
loop_
_space_group_symop_operation_xyz
x,y,z
-x,-y,z
x,-y,1/2-z
-x,y,1/2-z
-x,-y,-z
x,y,-z
-x,y,1/2+z
x,-y,1/2+z
1/2+x,1/2+y,1/2+z
1/2-x,1/2-y,1/2+z
1/2+x,1/2-y,-z
1/2-x,1/2+y,-z
1/2-x,1/2-y,1/2-z
1/2+x,1/2+y,1/2-z
1/2-x,1/2+y,z
1/2+x,1/2-y,z
loop_
_atom_site_type_symbol
_atom_site_label
_atom_site_fract_x
_atom_site_fract_y
_atom_site_fract_z
Si Si1 0.074380 0.053081 0.688713
Si Si2 0.162477 0.864441 0.683733
Si Si3 0.938054 0.203455 0.820618
Si Si4 0.570473 0.195317 0.819327
Si Si5 0.715764 0.798692 0.817733
O O1 0.074613 0.055168 0.500000
O O2 0.133012 0.085942 0.758710
O O3 0.000000 0.066564 0.750000
O O4 0.084725 0.000000 0.750000
O O5 0.144630 0.858812 0.500000
O O6 0.125334 0.827694 0.794812
O O7 0.237533 0.844937 0.697686
O O8 0.933560 0.248642 0.710910
O O9 0.000000 0.175224 0.750000
O O10 0.946443 0.216797 0.000000
O O11 0.500000 0.176497 0.750000
O O12 0.643334 0.186644 0.747517
O O13 0.571601 0.184000 0.000000
O O14 0.750000 0.750000 0.750000
O O15 0.707503 0.788041 0.000000
#
# Coordination Sequence:
#
# PCOD9529007 Si02
#       5
#    16  16  16  16  16
#     4  11  22  38  58  79 106 139 178 223 270 320
#     4  11  22  35  51  73 101 134 173 216 264 315
#     4  11  20  30  45  65  93 127 170 213 255 302
#     4  11  21  34  50  68  95 131 173 214 257 306
#     4  11  22  35  52  73 103 137 175 219 266 314
#
# _framework density 16.358885999999998
#
# number of rings (size 3 to 8) (size 9 to 14) (size 15 to 20)
#    0.000    1.000    2.000    9.000    0.000    2.400 
#    0.000    0.000    0.000    0.000    0.000    0.000 
#    0.000    0.800    0.000    8.400    0.000    3.600 
#
# Total GULP energy -222710.643038 kJ/mol
# GULP energy per Si atom -5567.766076 kJ/mol
# Density = 1.632165 g / cm^3
# Si number density = 16.358886 Si / 1000 Ang^3
#
#
#
# Elastic Constant Matrix: (Units=GPa)
#
#
# Indices 1 2 3 4 5 6 
#
# 1 127.9508 32.8099 67.2889 0.0000 0.0000 0.0000
# 2 32.8099 57.0774 17.9231 0.0000 0.0000 0.0000
# 3 67.2889 17.9231 129.8875 0.0000 0.0000 0.0000
# 4 0.0000 0.0000 0.0000 17.3281 0.0000 0.0000
# 5 0.0000 0.0000 0.0000 0.0000 30.2530 0.0000
# 6 0.0000 0.0000 0.0000 0.0000 0.0000 25.2429
#
#
#
# Elastic Compliance Matrix: (Units=1/GPa)
#
#
# Indices 1 2 3 4 5 6 
#
# 1 0.012055 -0.005193 -0.005528 0.000000 0.000000 0.000000
# 2 -0.005193 0.020551 -0.000145 0.000000 0.000000 0.000000
# 3 -0.005528 -0.000145 0.010583 0.000000 0.000000 0.000000
# 4 0.000000 0.000000 0.000000 0.057710 0.000000 0.000000
# 5 0.000000 0.000000 0.000000 0.000000 0.033055 0.000000
# 6 0.000000 0.000000 0.000000 0.000000 0.000000 0.039615
#
#
# Mechanical properties :
#
#
# Convention : Reuss Voigt Hill
#
# Bulk Modulus (GPa) = 46.61028 61.21773 53.91400
# Shear Modulus (GPa) = 24.69703 27.69106 26.19404
#
# Velocity S-wave (km/s) = 3.88970 4.11873 4.00586
# Velocity P-wave (km/s) = 6.98049 7.75381 7.37729
#
# Compressibility (1/GPa) = 0.02145450
#
# Stress axis : x y z
#
# Youngs Moduli (GPa) = 82.95650 48.65935 94.49139
#
# Poissons Ratio (x) = 0.25271 0.52237
# Poissons Ratio (y) = 0.43082 0.01374
# Poissons Ratio (z) = 0.45861 0.00707
#
# Static dielectric constant tensor:
#      x y z
#    x 1.708320 0.000000 0.000000 
#    y 0.000000 1.560220 0.000000 
#    z 0.000000 0.000000 1.575660 
# 
# From -- ./inp_files/5027.got.cif
#   From: 2010.05.17/outbox.cif.g08.bks.cpg/sg72_3_cif.got.tgz:5027.got - 2010.06.03 17:03:01.
