data_PCOD9529006
_publ_section_title
;
Structure prediction by ZEFSAII (Michael W. Deem and Ramdas Pophale) SiO2 
 PCOD9529006
Probable space group: I B A M
;
_chemical_formula_sum "Si O2"
_cell_formula_units_Z 80
_cell_length_a 16.743009
_cell_length_b 15.147433
_cell_length_c 14.005321
_cell_angle_alpha 90.000000
_cell_angle_beta 90.000000
_cell_angle_gamma 90.000000
_cell_volume 3551.939977
_symmetry_space_group_name_H-M "I B A M"
_symmetry_group_IT_number 72
_symmetry_cell_setting 'orthorhombic'
loop_
_space_group_symop_operation_xyz
x,y,z
-x,-y,z
x,-y,1/2-z
-x,y,1/2-z
-x,-y,-z
x,y,-z
-x,y,1/2+z
x,-y,1/2+z
1/2+x,1/2+y,1/2+z
1/2-x,1/2-y,1/2+z
1/2+x,1/2-y,-z
1/2-x,1/2+y,-z
1/2-x,1/2-y,1/2-z
1/2+x,1/2+y,1/2-z
1/2-x,1/2+y,z
1/2+x,1/2-y,z
loop_
_atom_site_type_symbol
_atom_site_label
_atom_site_fract_x
_atom_site_fract_y
_atom_site_fract_z
Si Si1 0.698630 0.274609 0.111921
Si Si2 0.628509 0.595271 0.232595
Si Si3 0.290183 0.922064 0.885472
Si Si4 0.609375 0.247636 0.386618
Si Si5 0.074693 0.442630 0.615948
O O1 0.658393 0.349387 0.175645
O O2 0.670332 0.174177 0.133560
O O3 0.794747 0.267938 0.128024
O O4 0.686253 0.292598 0.000000
O O5 0.591122 0.500000 0.250000
O O6 0.707721 0.574004 0.170141
O O7 0.581368 0.666276 0.169135
O O8 0.345806 0.003830 0.859166
O O9 0.275743 0.923983 0.000000
O O10 0.597539 0.258997 0.500000
O O11 0.570678 0.157408 0.351325
O O12 0.074943 0.438286 0.500000
O O13 0.000000 0.500000 0.645126
#
# Coordination Sequence:
#
# PCOD9529006 Si02
#       5
#    16  16  16  16  16
#     4   9  18  31  48  68  94 132 173 219 263 304
#     4  11  20  29  47  70  99 137 173 214 259 304
#     4   9  17  30  48  73 104 135 170 209 259 316
#     4   9  17  30  47  71 103 133 167 210 259 310
#     4   9  17  30  51  79 110 141 169 205 256 316
#
# _framework density 22.522902999999999
#
# number of rings (size 3 to 8) (size 9 to 14) (size 15 to 20)
#    0.000    2.600    0.000    5.400    0.000    3.200 
#    0.000    0.000    0.000   15.000    0.000    2.800 
#    0.000    8.000    0.000    0.200    0.000    1.800 
#
# Total GULP energy -223668.902695 kJ/mol
# GULP energy per Si atom -5591.722567 kJ/mol
# Density = 2.247164 g / cm^3
# Si number density = 22.522903 Si / 1000 Ang^3
#
#
#
# Elastic Constant Matrix: (Units=GPa)
#
#
# Indices 1 2 3 4 5 6 
#
# 1 25.5827 30.7031 9.5635 0.0000 0.0000 0.0000
# 2 30.7031 226.4251 56.9919 0.0000 0.0000 0.0000
# 3 9.5635 56.9919 100.7810 0.0000 0.0000 0.0000
# 4 0.0000 0.0000 0.0000 32.4095 0.0000 0.0000
# 5 0.0000 0.0000 0.0000 0.0000 -14.5723 0.0000
# 6 0.0000 0.0000 0.0000 0.0000 0.0000 4.9165
#
#
#
# Elastic Compliance Matrix: (Units=1/GPa)
#
#
# Indices 1 2 3 4 5 6 
#
# 1 0.046772 -0.006092 -0.000993 0.000000 0.000000 0.000000
# 2 -0.006092 0.005943 -0.002783 0.000000 0.000000 0.000000
# 3 -0.000993 -0.002783 0.011590 0.000000 0.000000 0.000000
# 4 0.000000 0.000000 0.000000 0.030855 0.000000 0.000000
# 5 0.000000 0.000000 0.000000 0.000000 -0.068623 0.000000
# 6 0.000000 0.000000 0.000000 0.000000 0.000000 0.203395
#
#
# Mechanical properties :
#
#
# Convention : Reuss Voigt Hill
#
# Bulk Modulus (GPa) = 22.43717 60.81177 41.62447
# Shear Modulus (GPa) = 18.90184 21.58612 20.24398
#
# Velocity S-wave (km/s) = 2.90009 3.09917 3.00128
# Velocity P-wave (km/s) = 4.60408 6.31388 5.52552
#
# Compressibility (1/GPa) = 0.04456890
#
# Stress axis : x y z
#
# Youngs Moduli (GPa) = 21.38045 168.26591 86.27868
#
# Poissons Ratio (x) = 1.02511 0.08569
# Poissons Ratio (y) = 0.13025 0.24008
# Poissons Ratio (z) = 0.02123 0.46823
#
# Static dielectric constant tensor:
#      x y z
#    x 1.820220 0.000000 0.000000 
#    y 0.000000 1.864470 0.000000 
#    z 0.000000 0.000000 1.855440 
# 
# From -- ./inp_files/21574.got.cif
#   From: 2010.05.17/outbox.cif.g08.bks.cpg/sg72_11_cif.got.tgz:21574.got - 2010.06.03 17:03:01.
