data_PCOD9529804
_publ_section_title
;
Structure prediction by ZEFSAII (Michael W. Deem and Ramdas Pophale) SiO2 
 PCOD9529804
Probable space group: I B C A 
;
_chemical_formula_sum "Si O2"
_cell_formula_units_Z 96
_cell_length_a 11.632093
_cell_length_b 19.920004
_cell_length_c 17.410496
_cell_angle_alpha 90.000000
_cell_angle_beta 90.000000
_cell_angle_gamma 90.000000
_cell_volume 4034.209342
_symmetry_space_group_name_H-M "I B C A "
_symmetry_group_IT_number 73
_symmetry_cell_setting 'orthorhombic'
loop_
_space_group_symop_operation_xyz
x,y,z
-x,1/2-y,z
x,-y,1/2-z
1/2-x,y,-z
-x,-y,-z
x,1/2+y,-z
-x,y,1/2+z
1/2+x,-y,z
1/2+x,1/2+y,1/2+z
1/2-x,-y,1/2+z
1/2+x,1/2-y,-z
-x,1/2+y,1/2-z
1/2-x,1/2-y,1/2-z
1/2+x,y,1/2-z
1/2-x,1/2+y,z
x,1/2-y,1/2+z
loop_
_atom_site_type_symbol
_atom_site_label
_atom_site_fract_x
_atom_site_fract_y
_atom_site_fract_z
Si Si1 0.331363 0.380009 0.122523
Si Si2 0.203072 0.354845 0.340395
Si Si3 0.411466 0.197924 0.770073
Si Si4 0.414596 0.392442 0.819650
Si Si5 0.871204 0.021500 0.663300
Si Si6 0.625115 0.257280 0.036150
O O1 0.378167 0.357190 0.206558
O O2 0.194227 0.387969 0.127117
O O3 0.371660 0.455874 0.110134
O O4 0.360201 0.317135 0.071055
O O5 0.289117 0.293774 0.312141
O O6 0.132142 0.381231 0.266974
O O7 0.286840 0.417420 0.362572
O O8 0.122800 0.319616 0.402892
O O9 0.500000 0.250000 0.732059
O O10 0.497781 0.168326 0.833165
O O11 0.497118 0.455254 0.828961
O O12 0.831485 0.000000 0.750000
O O13 0.500000 0.250000 0.996755
O O14 0.750000 0.271072 0.000000
#
# Coordination Sequence:
#
# PCOD9529804 Si02
#       6
#    16  16  16  16  16  16
#     4  11  22  37  61  99 137 179 222 280 356 428
#     4  10  22  40  63  96 136 179 225 279 355 425
#     4  10  18  30  55  93 132 165 205 262 351 436
#     4  10  19  31  58  93 142 167 203 259 350 438
#     4  11  21  35  60 108 146 179 205 267 354 458
#     4  12  29  50  72  92 129 189 257 311 345 394
#
# _framework density 23.796486000000002
#
# number of rings (size 3 to 8) (size 9 to 14) (size 15 to 20)
#    0.000    1.333    5.000    3.500    2.333    6.000 
#    0.000    0.833    0.000    3.000    0.000    0.000 
#    0.000    0.000    0.000    0.000    0.000    0.000 
#
# Total GULP energy -267549.856060 kJ/mol
# GULP energy per Si atom -5573.955335 kJ/mol
# Density = 2.374232 g / cm^3
# Si number density = 23.796486 Si / 1000 Ang^3
#
#
#
# Elastic Constant Matrix: (Units=GPa)
#
#
# Indices 1 2 3 4 5 6 
#
# 1 143.8929 14.0083 10.9000 0.0000 0.0000 0.0000
# 2 14.0083 118.0461 11.0151 0.0000 0.0000 0.0000
# 3 10.9000 11.0151 18.7555 0.0000 0.0000 0.0000
# 4 0.0000 0.0000 0.0000 8.8261 0.0000 0.0000
# 5 0.0000 0.0000 0.0000 0.0000 19.9880 0.0000
# 6 0.0000 0.0000 0.0000 0.0000 0.0000 40.1649
#
#
#
# Elastic Compliance Matrix: (Units=1/GPa)
#
#
# Indices 1 2 3 4 5 6 
#
# 1 0.007297 -0.000497 -0.003949 0.000000 0.000000 0.000000
# 2 -0.000497 0.008996 -0.004994 0.000000 0.000000 0.000000
# 3 -0.003949 -0.004994 0.058546 0.000000 0.000000 0.000000
# 4 0.000000 0.000000 0.000000 0.113300 0.000000 0.000000
# 5 0.000000 0.000000 0.000000 0.000000 0.050030 0.000000
# 6 0.000000 0.000000 0.000000 0.000000 0.000000 0.024897
#
#
# Mechanical properties :
#
#
# Convention : Reuss Voigt Hill
#
# Bulk Modulus (GPa) = 17.87054 39.17125 28.52090
# Shear Modulus (GPa) = 16.63336 30.11388 23.37362
#
# Velocity S-wave (km/s) = 2.64670 3.56121 3.13745
# Velocity P-wave (km/s) = 4.10683 5.77982 5.01360
#
# Compressibility (1/GPa) = 0.05595802
#
# Stress axis : x y z
#
# Youngs Moduli (GPa) = 137.03961 111.15640 17.08070
#
# Poissons Ratio (x) = 0.05530 0.06745
# Poissons Ratio (y) = 0.06818 0.08531
# Poissons Ratio (z) = 0.54112 0.55516
#
# Static dielectric constant tensor:
#      x y z
#    x 2.044140 0.000000 0.000000 
#    y 0.000000 2.035620 0.000000 
#    z 0.000000 0.000000 1.959410 
# 
# From -- ./inp_files/12866.got.cif
#   From: 2010.05.17/outbox.cif.g08.bks.cpg/sg73_7_cif.got.tgz:12866.got - 2010.06.03 17:35:07.
