data_PCOD9529950
_publ_section_title
;
Structure prediction by ZEFSAII (Michael W. Deem and Ramdas Pophale) SiO2 
 PCOD9529950
Probable space group: I B C A 
;
_chemical_formula_sum "Si O2"
_cell_formula_units_Z 104
_cell_length_a 20.187310
_cell_length_b 16.032594
_cell_length_c 14.335606
_cell_angle_alpha 90.000000
_cell_angle_beta 90.000000
_cell_angle_gamma 90.000000
_cell_volume 4639.789774
_symmetry_space_group_name_H-M "I B C A "
_symmetry_group_IT_number 73
_symmetry_cell_setting 'orthorhombic'
loop_
_space_group_symop_operation_xyz
x,y,z
-x,1/2-y,z
x,-y,1/2-z
1/2-x,y,-z
-x,-y,-z
x,1/2+y,-z
-x,y,1/2+z
1/2+x,-y,z
1/2+x,1/2+y,1/2+z
1/2-x,-y,1/2+z
1/2+x,1/2-y,-z
-x,1/2+y,1/2-z
1/2-x,1/2-y,1/2-z
1/2+x,y,1/2-z
1/2-x,1/2+y,z
x,1/2-y,1/2+z
loop_
_atom_site_type_symbol
_atom_site_label
_atom_site_fract_x
_atom_site_fract_y
_atom_site_fract_z
Si Si1 0.604001 0.665665 0.666573
Si Si2 0.500000 0.750000 0.521473
Si Si3 0.262248 0.557621 0.159268
Si Si4 0.316291 0.194971 0.254411
Si Si5 0.995820 0.963092 0.338509
Si Si6 0.065457 0.593478 0.527408
Si Si7 0.697524 0.903079 0.556391
O O1 0.559701 0.709513 0.584395
O O2 0.671405 0.613767 0.637631
O O3 0.625481 0.736256 0.741160
O O4 0.551521 0.597997 0.702818
O O5 0.464353 0.683254 0.456552
O O6 0.278885 0.500000 0.250000
O O7 0.201574 0.621947 0.181588
O O8 0.230924 0.488977 0.090502
O O9 0.250000 0.250000 0.250000
O O10 0.323119 0.147713 0.352990
O O11 0.952229 0.920438 0.417502
O O12 0.957798 0.000000 0.250000
O O13 0.032951 0.030459 0.401945
O O14 0.142773 0.582449 0.522147
O O15 0.750000 0.847910 0.500000
#
# Coordination Sequence:
#
# PCOD9529950 Si02
#       7
#    16   8  16  16  16  16  16
#     4  10  18  36  61  91 123 169 212 274 333 388
#     4  10  20  38  66  86 138 168 208 284 330 382
#     4   9  19  34  59  87 125 169 217 267 318 396
#     4   9  19  36  58  87 127 167 213 270 325 385
#     4  10  22  40  68  90 125 174 221 267 327 398
#     4  10  22  41  64  95 129 169 218 276 322 391
#     4  11  21  37  62  91 123 172 212 264 331 394
#
# _framework density 22.414808000000001
#
# number of rings (size 3 to 8) (size 9 to 14) (size 15 to 20)
#    0.000    2.154    1.538    1.385    0.000    4.308 
#    0.000    9.231   13.538    0.000    0.000    0.000 
#    0.000    0.000    0.000    0.000    0.000    0.000 
#
# Total GULP energy -289503.600103 kJ/mol
# GULP energy per Si atom -5567.376925 kJ/mol
# Density = 2.236379 g / cm^3
# Si number density = 22.414808 Si / 1000 Ang^3
#
#
#
# Elastic Constant Matrix: (Units=GPa)
#
#
# Indices 1 2 3 4 5 6 
#
# 1 73.3955 38.3167 2.5582 0.0000 0.0000 0.0000
# 2 38.3167 111.5380 19.2032 0.0000 0.0000 0.0000
# 3 2.5582 19.2032 41.4281 0.0000 0.0000 0.0000
# 4 0.0000 0.0000 0.0000 0.6791 0.0000 0.0000
# 5 0.0000 0.0000 0.0000 0.0000 13.2144 0.0000
# 6 0.0000 0.0000 0.0000 0.0000 0.0000 23.9708
#
#
#
# Elastic Compliance Matrix: (Units=1/GPa)
#
#
# Indices 1 2 3 4 5 6 
#
# 1 0.016721 -0.006049 0.001771 0.000000 0.000000 0.000000
# 2 -0.006049 0.011932 -0.005157 0.000000 0.000000 0.000000
# 3 0.001771 -0.005157 0.026419 0.000000 0.000000 0.000000
# 4 0.000000 0.000000 0.000000 1.472429 0.000000 0.000000
# 5 0.000000 0.000000 0.000000 0.000000 0.075675 0.000000
# 6 0.000000 0.000000 0.000000 0.000000 0.000000 0.041717
#
#
# Mechanical properties :
#
#
# Convention : Reuss Voigt Hill
#
# Bulk Modulus (GPa) = 27.62261 38.50197 33.06229
# Shear Modulus (GPa) = 2.98360 18.65844 10.82102
#
# Velocity S-wave (km/s) = 1.15498 2.88829 2.19957
# Velocity P-wave (km/s) = 3.75882 5.32328 4.60793
#
# Compressibility (1/GPa) = 0.03620222
#
# Stress axis : x y z
#
# Youngs Moduli (GPa) = 59.80473 83.81175 37.85118
#
# Poissons Ratio (x) = 0.50699 -0.06705
# Poissons Ratio (y) = 0.36177 0.19520
# Poissons Ratio (z) = -0.10594 0.43222
#
# Static dielectric constant tensor:
#      x y z
#    x 1.911170 0.000000 0.000000 
#    y 0.000000 1.952320 0.000000 
#    z 0.000000 0.000000 1.810270 
# 
# From -- ./inp_files/18812.got.cif
#   From: 2010.05.17/outbox.cif.g08.bks.cpg/sg73_10_cif.got.tgz:18812.got - 2010.06.03 17:35:07.
