data_PCOD9529931
_publ_section_title
;
Structure prediction by ZEFSAII (Michael W. Deem and Ramdas Pophale) SiO2 
 PCOD9529931
Probable space group: I B C A 
;
_chemical_formula_sum "Si O2"
_cell_formula_units_Z 112
_cell_length_a 17.786218
_cell_length_b 13.734178
_cell_length_c 18.539106
_cell_angle_alpha 90.000000
_cell_angle_beta 90.000000
_cell_angle_gamma 90.000000
_cell_volume 4528.715831
_symmetry_space_group_name_H-M "I B C A "
_symmetry_group_IT_number 73
_symmetry_cell_setting 'orthorhombic'
loop_
_space_group_symop_operation_xyz
x,y,z
-x,1/2-y,z
x,-y,1/2-z
1/2-x,y,-z
-x,-y,-z
x,1/2+y,-z
-x,y,1/2+z
1/2+x,-y,z
1/2+x,1/2+y,1/2+z
1/2-x,-y,1/2+z
1/2+x,1/2-y,-z
-x,1/2+y,1/2-z
1/2-x,1/2-y,1/2-z
1/2+x,y,1/2-z
1/2-x,1/2+y,z
x,1/2-y,1/2+z
loop_
_atom_site_type_symbol
_atom_site_label
_atom_site_fract_x
_atom_site_fract_y
_atom_site_fract_z
Si Si1 0.808319 0.557091 0.821760
Si Si2 0.327578 0.474292 0.527543
Si Si3 0.460498 0.616723 0.530374
Si Si4 0.429589 0.682261 0.751670
Si Si5 0.161135 0.254893 0.497373
Si Si6 0.345635 0.334624 0.156051
Si Si7 0.510067 0.058618 0.121586
O O1 0.787772 0.500000 0.750000
O O2 0.883515 0.617707 0.804857
O O3 0.738769 0.626804 0.840226
O O4 0.822654 0.481361 0.886278
O O5 0.250000 0.516037 0.500000
O O6 0.393565 0.544275 0.506056
O O7 0.495186 0.380804 0.546161
O O8 0.336424 0.369758 0.493249
O O9 0.408687 0.711628 0.544597
O O10 0.498231 0.553452 0.594492
O O11 0.500000 0.750000 0.728134
O O12 0.369360 0.760205 0.781800
O O13 0.459876 0.608879 0.815166
O O14 0.250000 0.225325 0.500000
O O15 0.140939 0.226120 0.416427
O O16 0.406020 0.422147 0.151350
#
# Coordination Sequence:
#
# PCOD9529931 Si02
#       7
#    16  16  16  16  16  16  16
#     4  12  24  40  69 102 137 185 238 295 353 421
#     4  11  23  40  64  98 139 182 240 304 362 420
#     4  10  18  35  62  93 131 180 228 279 351 432
#     4  10  22  42  67  97 134 183 236 293 360 431
#     4  10  20  34  60  96 133 180 235 292 351 419
#     4  10  20  38  62  94 136 181 235 294 355 422
#     4   9  19  35  62  95 133 175 224 286 355 424
#
# _framework density 24.731072000000001
#
# number of rings (size 3 to 8) (size 9 to 14) (size 15 to 20)
#    0.000    1.714    0.000    6.000    0.000    1.143 
#    0.000    7.857    0.000   23.143    0.000    0.000 
#    0.000    0.000    0.000    0.000    0.000    0.000 
#
# Total GULP energy -312829.361376 kJ/mol
# GULP energy per Si atom -5586.238596 kJ/mol
# Density = 2.467478 g / cm^3
# Si number density = 24.731072 Si / 1000 Ang^3
#
#
#
# Elastic Constant Matrix: (Units=GPa)
#
#
# Indices 1 2 3 4 5 6 
#
# 1 105.0920 1.1387 13.5246 0.0000 0.0000 0.0000
# 2 1.1387 94.8091 11.6353 0.0000 0.0000 0.0000
# 3 13.5246 11.6353 70.9540 0.0000 0.0000 0.0000
# 4 0.0000 0.0000 0.0000 28.4743 0.0000 0.0000
# 5 0.0000 0.0000 0.0000 0.0000 41.4926 0.0000
# 6 0.0000 0.0000 0.0000 0.0000 0.0000 92.7672
#
#
#
# Elastic Compliance Matrix: (Units=1/GPa)
#
#
# Indices 1 2 3 4 5 6 
#
# 1 0.009756 0.000113 -0.001878 0.000000 0.000000 0.000000
# 2 0.000113 0.010765 -0.001787 0.000000 0.000000 0.000000
# 3 -0.001878 -0.001787 0.014745 0.000000 0.000000 0.000000
# 4 0.000000 0.000000 0.000000 0.035119 0.000000 0.000000
# 5 0.000000 0.000000 0.000000 0.000000 0.024101 0.000000
# 6 0.000000 0.000000 0.000000 0.000000 0.000000 0.010780
#
#
# Mechanical properties :
#
#
# Convention : Reuss Voigt Hill
#
# Bulk Modulus (GPa) = 35.50825 35.93913 35.72369
# Shear Modulus (GPa) = 41.06543 48.85060 44.95801
#
# Velocity S-wave (km/s) = 4.07932 4.44922 4.26828
# Velocity P-wave (km/s) = 6.04787 6.39982 6.22633
#
# Compressibility (1/GPa) = 0.02816247
#
# Stress axis : x y z
#
# Youngs Moduli (GPa) = 102.50151 92.88980 67.82117
#
# Poissons Ratio (x) = -0.01053 0.12738
# Poissons Ratio (y) = -0.01162 0.12119
# Poissons Ratio (z) = 0.19252 0.16599
#
# Static dielectric constant tensor:
#      x y z
#    x 2.062840 0.000000 0.000000 
#    y 0.000000 2.033010 0.000000 
#    z 0.000000 0.000000 2.017650 
# 
# From -- ./inp_files/29527.got.cif
#   From: 2010.05.17/outbox.cif.g08.bks.cpg/sg73_15_cif.got.tgz:29527.got - 2010.06.03 17:35:07.
