data_PCOD9529984
_publ_section_title
;
Structure prediction by ZEFSAII (Michael W. Deem and Ramdas Pophale) SiO2 
 PCOD9529984
Probable space group: I B C A 
;
_chemical_formula_sum "Si O2"
_cell_formula_units_Z 80
_cell_length_a 14.407677
_cell_length_b 21.878592
_cell_length_c 11.981198
_cell_angle_alpha 90.000000
_cell_angle_beta 90.000000
_cell_angle_gamma 90.000000
_cell_volume 3776.709480
_symmetry_space_group_name_H-M "I B C A "
_symmetry_group_IT_number 73
_symmetry_cell_setting 'orthorhombic'
loop_
_space_group_symop_operation_xyz
x,y,z
-x,1/2-y,z
x,-y,1/2-z
1/2-x,y,-z
-x,-y,-z
x,1/2+y,-z
-x,y,1/2+z
1/2+x,-y,z
1/2+x,1/2+y,1/2+z
1/2-x,-y,1/2+z
1/2+x,1/2-y,-z
-x,1/2+y,1/2-z
1/2-x,1/2-y,1/2-z
1/2+x,y,1/2-z
1/2-x,1/2+y,z
x,1/2-y,1/2+z
loop_
_atom_site_type_symbol
_atom_site_label
_atom_site_fract_x
_atom_site_fract_y
_atom_site_fract_z
Si Si1 0.153938 0.557307 0.824682
Si Si2 0.098687 0.774754 0.767967
Si Si3 0.768031 0.683210 0.372285
Si Si4 0.436485 0.587065 0.718015
Si Si5 0.097040 0.482588 0.440299
O O1 0.183182 0.500000 0.750000
O O2 0.210885 0.619619 0.809197
O O3 0.046145 0.572125 0.795557
O O4 0.156877 0.537398 0.954115
O O5 0.143415 0.727322 0.854954
O O6 0.177929 0.782646 0.675140
O O7 0.081789 0.843114 0.811506
O O8 0.000000 0.750000 0.726799
O O9 0.750000 0.669614 0.500000
O O10 0.381503 0.542177 0.634305
O O11 0.413555 0.570214 0.846793
O O12 0.000000 0.500000 0.500000
#
# Coordination Sequence:
#
# PCOD9529984 Si02
#       5
#    16  16  16  16  16
#     4  11  20  40  66 100 143 173 219 287 344 412
#     4  11  24  46  71  96 135 186 229 285 344 413
#     4  11  26  48  66 101 140 179 238 287 348 419
#     4  10  18  37  66  99 132 178 236 272 334 420
#     4   9  17  33  62  97 135 175 220 276 337 398
#
# _framework density 21.182459000000001
#
# number of rings (size 3 to 8) (size 9 to 14) (size 15 to 20)
#    0.000    1.600    6.000    1.200    0.000    0.800 
#   21.600    0.000    0.000    0.000    0.000    0.000 
#    0.000    0.000    0.000    0.000    0.000    0.000 
#
# Total GULP energy -223421.037412 kJ/mol
# GULP energy per Si atom -5585.525935 kJ/mol
# Density = 2.113425 g / cm^3
# Si number density = 21.182459 Si / 1000 Ang^3
#
#
#
# Elastic Constant Matrix: (Units=GPa)
#
#
# Indices 1 2 3 4 5 6 
#
# 1 106.5199 42.4355 26.3281 0.0000 0.0000 0.0000
# 2 42.4355 161.8337 44.6384 0.0000 0.0000 0.0001
# 3 26.3281 44.6384 114.4499 0.0000 0.0000 0.0002
# 4 0.0000 0.0000 0.0000 21.1708 0.0000 0.0001
# 5 0.0000 0.0000 0.0000 0.0000 10.0956 0.0000
# 6 0.0000 0.0001 0.0002 0.0001 0.0000 152.6772
#
#
#
# Elastic Compliance Matrix: (Units=1/GPa)
#
#
# Indices 1 2 3 4 5 6 
#
# 1 0.010718 -0.002387 -0.001535 0.000000 0.000000 0.000000
# 2 -0.002387 0.007456 -0.002359 0.000000 0.000000 0.000000
# 3 -0.001535 -0.002359 0.010010 0.000000 0.000000 0.000000
# 4 0.000000 0.000000 0.000000 0.047235 0.000000 0.000000
# 5 0.000000 0.000000 0.000000 0.000000 0.099053 0.000000
# 6 0.000000 0.000000 0.000000 0.000000 0.000000 0.006550
#
#
# Mechanical properties :
#
#
# Convention : Reuss Voigt Hill
#
# Bulk Modulus (GPa) = 64.00684 67.73416 65.87050
# Shear Modulus (GPa) = 25.15203 54.74882 39.95043
#
# Velocity S-wave (km/s) = 3.44960 5.08944 4.34754
# Velocity P-wave (km/s) = 6.79330 8.15981 7.50771
#
# Compressibility (1/GPa) = 0.01562333
#
# Stress axis : x y z
#
# Youngs Moduli (GPa) = 93.29903 134.12426 99.89572
#
# Poissons Ratio (x) = 0.32018 0.15329
# Poissons Ratio (y) = 0.22273 0.23563
# Poissons Ratio (z) = 0.14317 0.31637
#
# Static dielectric constant tensor:
#      x y z
#    x 1.827110 0.000000 0.000000 
#    y 0.000000 1.781020 0.000000 
#    z 0.000000 0.000000 1.729990 
# 
# From -- ./inp_files/10809.got.cif
#   From: 2010.05.17/outbox.cif.g08.bks.cpg/sg73_6_cif.got.tgz:10809.got - 2010.06.03 17:35:07.
