data_PCOD9529106
_publ_section_title
;
Structure prediction by ZEFSAII (Michael W. Deem and Ramdas Pophale) SiO2 
 PCOD9529106
Probable space group: I B A M
;
_chemical_formula_sum "Si O2"
_cell_formula_units_Z 56
_cell_length_a 21.743374
_cell_length_b 9.011096
_cell_length_c 13.243498
_cell_angle_alpha 90.000000
_cell_angle_beta 90.000000
_cell_angle_gamma 90.000000
_cell_volume 2594.820156
_symmetry_space_group_name_H-M "I B A M"
_symmetry_group_IT_number 72
_symmetry_cell_setting 'orthorhombic'
loop_
_space_group_symop_operation_xyz
x,y,z
-x,-y,z
x,-y,1/2-z
-x,y,1/2-z
-x,-y,-z
x,y,-z
-x,y,1/2+z
x,-y,1/2+z
1/2+x,1/2+y,1/2+z
1/2-x,1/2-y,1/2+z
1/2+x,1/2-y,-z
1/2-x,1/2+y,-z
1/2-x,1/2-y,1/2-z
1/2+x,1/2+y,1/2-z
1/2-x,1/2+y,z
1/2+x,1/2-y,z
loop_
_atom_site_type_symbol
_atom_site_label
_atom_site_fract_x
_atom_site_fract_y
_atom_site_fract_z
Si Si1 0.571298 0.008334 0.500000
Si Si2 0.849019 0.221560 0.000000
Si Si3 0.310106 0.830874 0.289779
Si Si4 0.935457 0.294346 0.316519
Si Si5 0.567712 0.435630 0.000000
O O1 0.584834 0.930659 0.607996
O O2 0.500000 0.000000 0.500000
O O3 0.590345 0.176903 0.500000
O O4 0.811017 0.284283 0.093833
O O5 0.875627 0.053885 0.000000
O O6 0.250000 0.750000 0.250000
O O7 0.377167 0.773142 0.254885
O O8 0.305648 0.000000 0.250000
O O9 0.000000 0.309165 0.250000
O O10 0.933805 0.162194 0.397891
O O11 0.500000 0.500000 0.000000
#
# Coordination Sequence:
#
# PCOD9529106 Si02
#       5
#     8   8  16  16   8
#     4  11  21  40  72 108 141 187 248 311 364 424
#     4  12  26  46  76 107 146 193 257 299 367 454
#     4  12  29  50  76 108 147 196 247 311 377 442
#     4  11  25  46  75 108 150 194 248 304 368 436
#     4  11  25  44  70 113 157 196 237 303 374 446
#
# _framework density 21.581457
#
# number of rings (size 3 to 8) (size 9 to 14) (size 15 to 20)
#    0.000    0.571    2.857    5.143    4.000    6.286 
#    0.000    1.429    0.000    0.000    0.000    0.000 
#    0.000    0.000    0.000    0.000    0.000    0.000 
#
# Total GULP energy -155954.637259 kJ/mol
# GULP energy per Si atom -5569.808474 kJ/mol
# Density = 2.153234 g / cm^3
# Si number density = 21.581457 Si / 1000 Ang^3
#
#
#
# Elastic Constant Matrix: (Units=GPa)
#
#
# Indices 1 2 3 4 5 6 
#
# 1 133.1877 30.5448 65.1069 0.0000 0.0000 0.0000
# 2 30.5448 107.9902 41.1704 0.0000 0.0000 0.0000
# 3 65.1069 41.1704 196.1552 0.0000 0.0000 0.0000
# 4 0.0000 0.0000 0.0000 14.5631 0.0000 0.0000
# 5 0.0000 0.0000 0.0000 0.0000 -26.7927 0.0000
# 6 0.0000 0.0000 0.0000 0.0000 0.0000 30.0881
#
#
#
# Elastic Compliance Matrix: (Units=1/GPa)
#
#
# Indices 1 2 3 4 5 6 
#
# 1 0.009199 -0.001563 -0.002725 0.000000 0.000000 0.000000
# 2 -0.001563 0.010331 -0.001650 0.000000 0.000000 0.000000
# 3 -0.002725 -0.001650 0.006349 0.000000 0.000000 0.000000
# 4 0.000000 0.000000 0.000000 0.068667 0.000000 0.000000
# 5 0.000000 0.000000 0.000000 0.000000 -0.037324 0.000000
# 6 0.000000 0.000000 0.000000 0.000000 0.000000 0.033236
#
#
# Mechanical properties :
#
#
# Convention : Reuss Voigt Hill
#
# Bulk Modulus (GPa) = 71.41206 78.99748 75.20477
# Shear Modulus (GPa) = 46.72868 23.60576 35.16722
#
# Velocity S-wave (km/s) = 4.65824 3.31085 4.04110
# Velocity P-wave (km/s) = 7.87996 7.16236 7.52971
#
# Compressibility (1/GPa) = 0.01400324
#
# Stress axis : x y z
#
# Youngs Moduli (GPa) = 108.70979 96.79542 157.51087
#
# Poissons Ratio (x) = 0.15128 0.42925
# Poissons Ratio (y) = 0.16990 0.25983
# Poissons Ratio (z) = 0.29625 0.15967
#
# Static dielectric constant tensor:
#      x y z
#    x 1.800060 0.000000 0.000000 
#    y 0.000000 1.887700 0.000000 
#    z 0.000000 0.000000 -2.627430 
# 
# From -- ./inp_files/23816.got.cif
#   From: 2010.05.17/outbox.cif.g08.bks.cpg/sg72_12_cif.got.tgz:23816.got - 2010.06.03 17:03:01.
