data_PCOD9529254
_publ_section_title
;
Structure prediction by ZEFSAII (Michael W. Deem and Ramdas Pophale) SiO2 
 PCOD9529254
Probable space group: I B A M
;
_chemical_formula_sum "Si O2"
_cell_formula_units_Z 96
_cell_length_a 14.276806
_cell_length_b 14.138472
_cell_length_c 21.652068
_cell_angle_alpha 90.000000
_cell_angle_beta 90.000000
_cell_angle_gamma 90.000000
_cell_volume 4370.518034
_symmetry_space_group_name_H-M "I B A M"
_symmetry_group_IT_number 72
_symmetry_cell_setting 'orthorhombic'
loop_
_space_group_symop_operation_xyz
x,y,z
-x,-y,z
x,-y,1/2-z
-x,y,1/2-z
-x,-y,-z
x,y,-z
-x,y,1/2+z
x,-y,1/2+z
1/2+x,1/2+y,1/2+z
1/2-x,1/2-y,1/2+z
1/2+x,1/2-y,-z
1/2-x,1/2+y,-z
1/2-x,1/2-y,1/2-z
1/2+x,1/2+y,1/2-z
1/2-x,1/2+y,z
1/2+x,1/2-y,z
loop_
_atom_site_type_symbol
_atom_site_label
_atom_site_fract_x
_atom_site_fract_y
_atom_site_fract_z
Si Si1 0.101585 0.955141 0.317143
Si Si2 0.267969 0.826494 0.930877
Si Si3 0.631210 0.202939 0.629147
Si Si4 0.916086 0.253293 0.643527
Si Si5 0.113840 0.607611 0.745443
Si Si6 0.248765 0.538806 0.929201
O O1 0.086283 0.841446 0.315927
O O2 0.128845 0.000000 0.250000
O O3 0.174098 0.965919 0.374159
O O4 0.000000 0.000000 0.332031
O O5 0.183347 0.799627 0.886042
O O6 0.350371 0.752359 0.916057
O O7 0.298694 0.935109 0.927242
O O8 0.232691 0.811326 0.000000
O O9 0.520679 0.218467 0.625653
O O10 0.652880 0.166914 0.697853
O O11 0.674259 0.120967 0.586070
O O12 0.868573 0.336912 0.683098
O O13 0.145976 0.500000 0.750000
O O14 0.000000 0.606652 0.750000
O O15 0.284715 0.550004 0.000000
#
# Coordination Sequence:
#
# PCOD9529254 Si02
#       6
#    16  16  16  16  16  16
#     4  11  26  44  73 104 144 185 243 300 355 430
#     4  11  25  43  65  97 136 180 237 286 346 428
#     4  11  23  42  70  96 141 181 228 292 352 421
#     4  11  24  43  70 101 136 183 231 292 358 421
#     4   9  20  37  62  98 135 170 217 276 343 420
#     4  11  25  46  69 102 143 186 238 295 360 439
#
# _framework density 21.965357999999998
#
# number of rings (size 3 to 8) (size 9 to 14) (size 15 to 20)
#    0.000    1.333    1.667    2.500    9.333    6.333 
#    0.000    1.667    0.000    0.000    0.000    0.000 
#    0.000    0.000    0.000    0.000    0.000    0.000 
#
# Total GULP energy -268054.276717 kJ/mol
# GULP energy per Si atom -5584.464098 kJ/mol
# Density = 2.191536 g / cm^3
# Si number density = 21.965358 Si / 1000 Ang^3
#
#
#
# Elastic Constant Matrix: (Units=GPa)
#
#
# Indices 1 2 3 4 5 6 
#
# 1 81.5937 26.2888 53.7567 0.0000 0.0000 0.0000
# 2 26.2888 128.1402 40.1191 0.0000 0.0000 0.0000
# 3 53.7567 40.1191 119.9475 0.0000 0.0000 0.0000
# 4 0.0000 0.0000 0.0000 37.2217 0.0000 0.0000
# 5 0.0000 0.0000 0.0000 0.0000 23.2642 0.0000
# 6 0.0000 0.0000 0.0000 0.0000 0.0000 28.4927
#
#
#
# Elastic Compliance Matrix: (Units=1/GPa)
#
#
# Indices 1 2 3 4 5 6 
#
# 1 0.017575 -0.001273 -0.007451 0.000000 0.000000 0.000000
# 2 -0.001273 0.008809 -0.002376 0.000000 0.000000 0.000000
# 3 -0.007451 -0.002376 0.012471 0.000000 0.000000 0.000000
# 4 0.000000 0.000000 0.000000 0.026866 0.000000 0.000000
# 5 0.000000 0.000000 0.000000 0.000000 0.042984 0.000000
# 6 0.000000 0.000000 0.000000 0.000000 0.000000 0.035097
#
#
# Mechanical properties :
#
#
# Convention : Reuss Voigt Hill
#
# Bulk Modulus (GPa) = 60.03988 63.33452 61.68720
# Shear Modulus (GPa) = 29.14560 31.76352 30.45456
#
# Velocity S-wave (km/s) = 3.64660 3.80685 3.72759
# Velocity P-wave (km/s) = 6.71740 6.94401 6.83165
#
# Compressibility (1/GPa) = 0.01665560
#
# Stress axis : x y z
#
# Youngs Moduli (GPa) = 56.89984 113.52089 80.18711
#
# Poissons Ratio (x) = 0.14449 0.59745
# Poissons Ratio (y) = 0.07242 0.19052
# Poissons Ratio (z) = 0.42394 0.26971
#
# Static dielectric constant tensor:
#      x y z
#    x 1.792270 0.000000 0.000000 
#    y 0.000000 1.833490 0.000000 
#    z 0.000000 0.000000 1.840390 
# 
# From -- ./inp_files/38053.got.cif
#   From: 2010.05.17/outbox.cif.g08.bks.cpg/sg72_20_cif.got.tgz:38053.got - 2010.06.03 17:03:01.
