data_PCOD9529865
_publ_section_title
;
Structure prediction by ZEFSAII (Michael W. Deem and Ramdas Pophale) SiO2 
 PCOD9529865
Probable space group: I B C A 
;
_chemical_formula_sum "Si O2"
_cell_formula_units_Z 104
_cell_length_a 16.246970
_cell_length_b 19.914987
_cell_length_c 15.311930
_cell_angle_alpha 90.000000
_cell_angle_beta 90.000000
_cell_angle_gamma 90.000000
_cell_volume 4954.300453
_symmetry_space_group_name_H-M "I B C A "
_symmetry_group_IT_number 73
_symmetry_cell_setting 'orthorhombic'
loop_
_space_group_symop_operation_xyz
x,y,z
-x,1/2-y,z
x,-y,1/2-z
1/2-x,y,-z
-x,-y,-z
x,1/2+y,-z
-x,y,1/2+z
1/2+x,-y,z
1/2+x,1/2+y,1/2+z
1/2-x,-y,1/2+z
1/2+x,1/2-y,-z
-x,1/2+y,1/2-z
1/2-x,1/2-y,1/2-z
1/2+x,y,1/2-z
1/2-x,1/2+y,z
x,1/2-y,1/2+z
loop_
_atom_site_type_symbol
_atom_site_label
_atom_site_fract_x
_atom_site_fract_y
_atom_site_fract_z
Si Si1 0.564233 0.385493 0.699839
Si Si2 0.941238 0.058285 0.429760
Si Si3 0.012901 0.075639 0.614568
Si Si4 0.500000 0.250000 0.240849
Si Si5 0.841366 0.188325 0.459704
Si Si6 0.389398 0.788240 0.104447
Si Si7 0.784734 0.796523 0.672652
O O1 0.528307 0.427385 0.619602
O O2 0.534189 0.416040 0.792880
O O3 0.512718 0.316925 0.689195
O O4 0.658654 0.360327 0.697241
O O5 0.877995 0.119845 0.420608
O O6 0.953998 0.057531 0.533817
O O7 0.921033 0.985476 0.388680
O O8 0.054776 0.146510 0.590436
O O9 0.422689 0.242675 0.305383
O O10 0.750000 0.176110 0.500000
O O11 0.891656 0.227268 0.535737
O O12 0.836079 0.245002 0.386062
O O13 0.296217 0.813611 0.116131
O O14 0.750000 0.750000 0.750000
#
# Coordination Sequence:
#
# PCOD9529865 Si02
#       7
#    16  16  16   8  16  16  16
#     4  11  21  37  62  89 122 166 212 262 318 382
#     4  11  23  42  63  90 126 172 217 257 326 392
#     4  10  24  41  63  89 127 166 215 267 309 394
#     4  10  18  32  62  86 116 154 196 268 306 362
#     4  10  22  38  63  96 127 163 211 272 330 393
#     4  10  20  38  61  92 124 160 210 264 327 379
#     4  11  22  36  59  94 127 156 208 271 324 374
#
# _framework density 20.991864
#
# number of rings (size 3 to 8) (size 9 to 14) (size 15 to 20)
#    0.000    1.538    1.538    4.154    4.308    1.231 
#    0.000    5.385    3.385    0.000    0.000    0.000 
#    0.000    0.000    0.000    0.000    0.000    0.000 
#
# Total GULP energy -289906.651512 kJ/mol
# GULP energy per Si atom -5575.127914 kJ/mol
# Density = 2.094409 g / cm^3
# Si number density = 20.991864 Si / 1000 Ang^3
#
#
#
# Elastic Constant Matrix: (Units=GPa)
#
#
# Indices 1 2 3 4 5 6 
#
# 1 86.9667 42.9902 29.7334 0.0000 0.0000 0.0000
# 2 42.9902 115.1961 19.1209 0.0000 0.0000 0.0000
# 3 29.7334 19.1209 53.4916 0.0000 0.0000 0.0000
# 4 0.0000 0.0000 0.0000 37.7840 0.0000 0.0000
# 5 0.0000 0.0000 0.0000 0.0000 27.8679 0.0000
# 6 0.0000 0.0000 0.0000 0.0000 0.0000 25.3911
#
#
#
# Elastic Compliance Matrix: (Units=1/GPa)
#
#
# Indices 1 2 3 4 5 6 
#
# 1 0.016454 -0.004914 -0.007390 0.000000 0.000000 0.000000
# 2 -0.004914 0.010696 -0.001092 0.000000 0.000000 0.000000
# 3 -0.007390 -0.001092 0.023192 0.000000 0.000000 0.000000
# 4 0.000000 0.000000 0.000000 0.026466 0.000000 0.000000
# 5 0.000000 0.000000 0.000000 0.000000 0.035884 0.000000
# 6 0.000000 0.000000 0.000000 0.000000 0.000000 0.039384
#
#
# Mechanical properties :
#
#
# Convention : Reuss Voigt Hill
#
# Bulk Modulus (GPa) = 42.45997 48.81593 45.63795
# Shear Modulus (GPa) = 26.77840 29.12926 27.95383
#
# Velocity S-wave (km/s) = 3.57551 3.72915 3.65314
# Velocity P-wave (km/s) = 6.10872 6.46895 6.29141
#
# Compressibility (1/GPa) = 0.02355160
#
# Stress axis : x y z
#
# Youngs Moduli (GPa) = 60.77458 93.49326 43.11775
#
# Poissons Ratio (x) = 0.45943 0.31862
# Poissons Ratio (y) = 0.29865 0.04708
# Poissons Ratio (z) = 0.44910 0.10208
#
# Static dielectric constant tensor:
#      x y z
#    x 1.845920 0.000000 0.000000 
#    y 0.000000 1.822260 0.000000 
#    z 0.000000 0.000000 1.821680 
# 
# From -- ./inp_files/18781.got.cif
#   From: 2010.05.17/outbox.cif.g08.bks.cpg/sg73_10_cif.got.tgz:18781.got - 2010.06.03 17:35:07.
