data_PCOD9529414
_publ_section_title
;
Structure prediction by ZEFSAII (Michael W. Deem and Ramdas Pophale) SiO2 
 PCOD9529414
Probable space group: I B A M
;
_chemical_formula_sum "Si O2"
_cell_formula_units_Z 52
_cell_length_a 22.955436
_cell_length_b 7.520686
_cell_length_c 14.008257
_cell_angle_alpha 90.000000
_cell_angle_beta 90.000000
_cell_angle_gamma 90.000000
_cell_volume 2418.394260
_symmetry_space_group_name_H-M "I B A M"
_symmetry_group_IT_number 72
_symmetry_cell_setting 'orthorhombic'
loop_
_space_group_symop_operation_xyz
x,y,z
-x,-y,z
x,-y,1/2-z
-x,y,1/2-z
-x,-y,-z
x,y,-z
-x,y,1/2+z
x,-y,1/2+z
1/2+x,1/2+y,1/2+z
1/2-x,1/2-y,1/2+z
1/2+x,1/2-y,-z
1/2-x,1/2+y,-z
1/2-x,1/2-y,1/2-z
1/2+x,1/2+y,1/2-z
1/2-x,1/2+y,z
1/2+x,1/2-y,z
loop_
_atom_site_type_symbol
_atom_site_label
_atom_site_fract_x
_atom_site_fract_y
_atom_site_fract_z
Si Si1 0.500000 0.000000 0.750000
Si Si2 0.083618 0.825178 0.200905
Si Si3 0.151397 0.840276 0.000000
Si Si4 0.191701 0.317417 0.200058
Si Si5 0.724193 0.970452 0.500000
O O1 0.456892 0.854003 0.698898
O O2 0.112004 0.850308 0.095489
O O3 0.137131 0.800366 0.275104
O O4 0.056295 0.000000 0.250000
O O5 0.205192 0.980621 0.000000
O O6 0.187803 0.653865 0.000000
O O7 0.176105 0.500000 0.250000
O O8 0.250000 0.250000 0.250000
O O9 0.205649 0.361539 0.092484
#
# Coordination Sequence:
#
# PCOD9529414 Si02
#       5
#     4  16   8  16   8
#     4  12  26  58  76 102 148 202 258 316 392 426
#     4  12  27  48  76 108 147 199 256 319 370 449
#     4  12  26  43  71 116 151 201 252 295 389 459
#     4  12  22  40  65 108 155 195 243 302 373 446
#     4  12  22  38  68 105 163 207 229 302 376 460
#
# _framework density 21.501871000000001
#
# number of rings (size 3 to 8) (size 9 to 14) (size 15 to 20)
#    0.000    0.000    7.692    1.385    4.308    0.615 
#    0.000    4.615    0.000    0.000    0.000    0.000 
#    0.000    0.000    0.000    0.000    0.000    0.000 
#
# Total GULP energy -145120.340098 kJ/mol
# GULP energy per Si atom -5581.551542 kJ/mol
# Density = 2.145293 g / cm^3
# Si number density = 21.501871 Si / 1000 Ang^3
#
#
#
# Elastic Constant Matrix: (Units=GPa)
#
#
# Indices 1 2 3 4 5 6 
#
# 1 152.8750 63.3316 59.9739 0.0000 0.0000 0.0000
# 2 63.3316 157.0729 61.4536 0.0000 0.0000 0.0000
# 3 59.9739 61.4536 193.6201 0.0000 0.0000 0.0000
# 4 0.0000 0.0000 0.0000 34.4119 0.0000 0.0000
# 5 0.0000 0.0000 0.0000 0.0000 -12.6699 0.0000
# 6 0.0000 0.0000 0.0000 0.0000 0.0000 44.6620
#
#
#
# Elastic Compliance Matrix: (Units=1/GPa)
#
#
# Indices 1 2 3 4 5 6 
#
# 1 0.008331 -0.002683 -0.001729 0.000000 0.000000 0.000000
# 2 -0.002683 0.008133 -0.001750 0.000000 0.000000 0.000000
# 3 -0.001729 -0.001750 0.006256 0.000000 0.000000 0.000000
# 4 0.000000 0.000000 0.000000 0.029060 0.000000 0.000000
# 5 0.000000 0.000000 0.000000 0.000000 -0.078928 0.000000
# 6 0.000000 0.000000 0.000000 0.000000 0.000000 0.022390
#
#
# Mechanical properties :
#
#
# Convention : Reuss Voigt Hill
#
# Bulk Modulus (GPa) = 96.19387 97.00958 96.60172
# Shear Modulus (GPa) = 453.24449 34.53473 243.88961
#
# Velocity S-wave (km/s) = 14.53446 4.01200 10.66177
# Velocity P-wave (km/s) = 18.06937 8.16555 14.02103
#
# Compressibility (1/GPa) = 0.01039567
#
# Stress axis : x y z
#
# Youngs Moduli (GPa) = 120.03484 122.95749 159.84888
#
# Poissons Ratio (x) = 0.32984 0.27639
# Poissons Ratio (y) = 0.32200 0.27980
# Poissons Ratio (z) = 0.20755 0.21523
#
# Static dielectric constant tensor:
#      x y z
#    x 1.447200 0.000000 0.000000 
#    y 0.000000 1.826220 0.000000 
#    z 0.000000 0.000000 1.737330 
# 
# From -- ./inp_files/18347.got.cif
#   From: 2010.05.17/outbox.cif.g08.bks.cpg/sg72_10_cif.got.tgz:18347.got - 2010.06.03 17:03:01.
