data_PCOD9529307
_publ_section_title
;
Structure prediction by ZEFSAII (Michael W. Deem and Ramdas Pophale) SiO2 
 PCOD9529307
Probable space group: I B A M
;
_chemical_formula_sum "Si O2"
_cell_formula_units_Z 72
_cell_length_a 8.786808
_cell_length_b 19.102775
_cell_length_c 20.989078
_cell_angle_alpha 90.000000
_cell_angle_beta 90.000000
_cell_angle_gamma 90.000000
_cell_volume 3523.067456
_symmetry_space_group_name_H-M "I B A M"
_symmetry_group_IT_number 72
_symmetry_cell_setting 'orthorhombic'
loop_
_space_group_symop_operation_xyz
x,y,z
-x,-y,z
x,-y,1/2-z
-x,y,1/2-z
-x,-y,-z
x,y,-z
-x,y,1/2+z
x,-y,1/2+z
1/2+x,1/2+y,1/2+z
1/2-x,1/2-y,1/2+z
1/2+x,1/2-y,-z
1/2-x,1/2+y,-z
1/2-x,1/2-y,1/2-z
1/2+x,1/2+y,1/2-z
1/2-x,1/2+y,z
1/2+x,1/2-y,z
loop_
_atom_site_type_symbol
_atom_site_label
_atom_site_fract_x
_atom_site_fract_y
_atom_site_fract_z
Si Si1 0.817417 0.817378 0.858338
Si Si2 0.529014 0.176563 0.174449
Si Si3 0.000000 0.891738 0.250000
Si Si4 0.847194 0.046912 0.571265
Si Si5 0.778109 0.462553 0.314989
O O1 0.636385 0.822617 0.856977
O O2 0.872340 0.737660 0.858228
O O3 0.884925 0.846869 0.792004
O O4 0.877915 0.872069 0.910805
O O5 0.500000 0.190301 0.250000
O O6 0.616073 0.103062 0.169625
O O7 0.891269 0.935245 0.296641
O O8 0.782744 0.042271 0.500000
O O9 0.739794 0.015560 0.626562
O O10 0.000000 0.000000 0.572118
O O11 0.830162 0.500000 0.250000
#
# Coordination Sequence:
#
# PCOD9529307 Si02
#       5
#    16  16   8  16  16
#     4  12  24  41  63  97 133 173 214 272 327 397
#     4  12  24  39  65 101 136 167 216 274 337 389
#     4  12  19  38  66  92 135 162 212 254 333 382
#     4  11  24  43  68  97 130 173 223 273 331 399
#     4  12  22  40  66 101 132 170 214 274 330 391
#
# _framework density 20.436736
#
# number of rings (size 3 to 8) (size 9 to 14) (size 15 to 20)
#    0.000    0.222    7.778    2.333    0.000    3.111 
#    0.000    4.444    0.000    0.000    0.000    0.000 
#    0.000    0.000    0.000    0.000    0.000    0.000 
#
# Total GULP energy -201340.876771 kJ/mol
# GULP energy per Si atom -5592.802133 kJ/mol
# Density = 2.039022 g / cm^3
# Si number density = 20.436736 Si / 1000 Ang^3
#
#
#
# Elastic Constant Matrix: (Units=GPa)
#
#
# Indices 1 2 3 4 5 6 
#
# 1 110.5349 54.9901 9.6717 0.0000 0.0000 0.0000
# 2 54.9901 156.8387 47.6054 0.0000 0.0000 0.0000
# 3 9.6717 47.6054 116.2432 0.0000 0.0000 0.0000
# 4 0.0000 0.0000 0.0000 6.4079 0.0000 0.0000
# 5 0.0000 0.0000 0.0000 0.0000 0.0604 0.0000
# 6 0.0000 0.0000 0.0000 0.0000 0.0000 33.3281
#
#
#
# Elastic Compliance Matrix: (Units=1/GPa)
#
#
# Indices 1 2 3 4 5 6 
#
# 1 0.011017 -0.004093 0.000760 0.000000 0.000000 0.000000
# 2 -0.004093 0.008802 -0.003264 0.000000 0.000000 0.000000
# 3 0.000760 -0.003264 0.009876 0.000000 0.000000 0.000000
# 4 0.000000 0.000000 0.000000 0.156057 0.000000 0.000000
# 5 0.000000 0.000000 0.000000 0.000000 16.566239 0.000000
# 6 0.000000 0.000000 0.000000 0.000000 0.000000 0.030005
#
#
# Mechanical properties :
#
#
# Convention : Reuss Voigt Hill
#
# Bulk Modulus (GPa) = 60.60756 67.57235 64.08996
# Shear Modulus (GPa) = 0.29761 26.04925 13.17343
#
# Velocity S-wave (km/s) = 0.38202 3.57407 2.54164
# Velocity P-wave (km/s) = 5.46947 7.08293 6.32784
#
# Compressibility (1/GPa) = 0.01649959
#
# Stress axis : x y z
#
# Youngs Moduli (GPa) = 90.77050 113.61198 101.25354
#
# Poissons Ratio (x) = 0.46504 -0.07692
# Poissons Ratio (y) = 0.37155 0.33050
# Poissons Ratio (z) = -0.06896 0.37084
#
# Static dielectric constant tensor:
#      x y z
#    x 1.734060 0.000000 0.000000 
#    y 0.000000 1.766450 0.000000 
#    z 0.000000 0.000000 1.715700 
# 
# From -- ./inp_files/35635.got.cif
#   From: 2010.05.17/outbox.cif.g08.bks.cpg/sg72_18_cif.got.tgz:35635.got - 2010.06.03 17:03:01.
