data_PCOD9529977
_publ_section_title
;
Structure prediction by ZEFSAII (Michael W. Deem and Ramdas Pophale) SiO2 
 PCOD9529977
Probable space group: I B C A 
;
_chemical_formula_sum "Si O2"
_cell_formula_units_Z 120
_cell_length_a 24.060775
_cell_length_b 9.557862
_cell_length_c 24.204168
_cell_angle_alpha 90.000000
_cell_angle_beta 90.000000
_cell_angle_gamma 90.000000
_cell_volume 5566.222036
_symmetry_space_group_name_H-M "I B C A "
_symmetry_group_IT_number 73
_symmetry_cell_setting 'orthorhombic'
loop_
_space_group_symop_operation_xyz
x,y,z
-x,1/2-y,z
x,-y,1/2-z
1/2-x,y,-z
-x,-y,-z
x,1/2+y,-z
-x,y,1/2+z
1/2+x,-y,z
1/2+x,1/2+y,1/2+z
1/2-x,-y,1/2+z
1/2+x,1/2-y,-z
-x,1/2+y,1/2-z
1/2-x,1/2-y,1/2-z
1/2+x,y,1/2-z
1/2-x,1/2+y,z
x,1/2-y,1/2+z
loop_
_atom_site_type_symbol
_atom_site_label
_atom_site_fract_x
_atom_site_fract_y
_atom_site_fract_z
Si Si1 0.514670 0.594854 0.914118
Si Si2 0.062508 0.891217 0.966701
Si Si3 0.627684 0.348553 0.002518
Si Si4 0.339028 0.345095 0.726871
Si Si5 0.784950 0.286911 0.180558
Si Si6 0.880163 0.295434 0.381479
Si Si7 0.734030 0.051226 0.112168
Si Si8 0.750000 0.917054 0.000000
O O1 0.500000 0.750000 0.890950
O O2 0.470432 0.467277 0.916615
O O3 0.574534 0.579947 0.884546
O O4 0.522872 0.617557 0.979886
O O5 0.111176 0.989902 0.991888
O O6 0.090655 0.739948 0.959463
O O7 0.610135 0.295275 0.063487
O O8 0.692946 0.332969 0.991954
O O9 0.351805 0.500000 0.750000
O O10 0.273843 0.335699 0.708129
O O11 0.335083 0.232668 0.776681
O O12 0.375874 0.292687 0.675304
O O13 0.775512 0.136363 0.151726
O O14 0.791218 0.409405 0.136985
O O15 0.818246 0.348589 0.392134
O O16 0.759579 0.010577 0.054025
#
# Coordination Sequence:
#
# PCOD9529977 Si02
#       8
#    16  16  16  16  16  16  16   8
#     4  10  18  37  62  87 113 159 212 277 308 373
#     4  10  20  36  60  84 118 161 224 255 314 371
#     4  11  23  38  55  88 128 174 215 254 309 397
#     4  10  19  36  61  87 118 157 215 278 319 374
#     4  10  21  36  60  85 118 169 218 261 312 373
#     4  10  22  36  57  90 119 157 222 267 329 372
#     4  11  23  39  56  87 130 173 219 250 310 395
#     4  12  24  38  56  86 144 188 202 256 326 390
#
# _framework density 21.558608
#
# number of rings (size 3 to 8) (size 9 to 14) (size 15 to 20)
#    0.000    1.600    4.000    3.200    0.000    4.800 
#    0.000    0.000    0.000    0.000    3.467    0.000 
#    0.000    0.000    0.000    0.000    0.000    0.000 
#
# Total GULP energy -334241.762526 kJ/mol
# GULP energy per Si atom -5570.696042 kJ/mol
# Density = 2.150954 g / cm^3
# Si number density = 21.558608 Si / 1000 Ang^3
#
#
#
# Elastic Constant Matrix: (Units=GPa)
#
#
# Indices 1 2 3 4 5 6 
#
# 1 55.1504 -1.9602 -1.9177 0.0000 0.0000 0.0000
# 2 -1.9602 67.8754 33.5846 0.0000 0.0000 0.0000
# 3 -1.9177 33.5846 76.8423 0.0000 0.0000 0.0000
# 4 0.0000 0.0000 0.0000 29.1077 0.0000 0.0000
# 5 0.0000 0.0000 0.0000 0.0000 24.6814 0.0000
# 6 0.0000 0.0000 0.0000 0.0000 0.0000 17.3161
#
#
#
# Elastic Compliance Matrix: (Units=1/GPa)
#
#
# Indices 1 2 3 4 5 6 
#
# 1 0.018156 0.000383 0.000286 0.000000 0.000000 0.000000
# 2 0.000383 0.018806 -0.008210 0.000000 0.000000 0.000000
# 3 0.000286 -0.008210 0.016609 0.000000 0.000000 0.000000
# 4 0.000000 0.000000 0.000000 0.034355 0.000000 0.000000
# 5 0.000000 0.000000 0.000000 0.000000 0.040516 0.000000
# 6 0.000000 0.000000 0.000000 0.000000 0.000000 0.057750
#
#
# Mechanical properties :
#
#
# Convention : Reuss Voigt Hill
#
# Bulk Modulus (GPa) = 25.98171 28.80904 27.39538
# Shear Modulus (GPa) = 23.35313 25.56513 24.45913
#
# Velocity S-wave (km/s) = 3.29483 3.44734 3.37195
# Velocity P-wave (km/s) = 5.15290 5.40719 5.28158
#
# Compressibility (1/GPa) = 0.03848861
#
# Stress axis : x y z
#
# Youngs Moduli (GPa) = 55.07887 53.17409 60.20838
#
# Poissons Ratio (x) = -0.02036 -0.01720
# Poissons Ratio (y) = -0.02109 0.49430
# Poissons Ratio (z) = -0.01574 0.43655
#
# Static dielectric constant tensor:
#      x y z
#    x 1.875200 0.000000 0.000000 
#    y 0.000000 1.917000 0.000000 
#    z 0.000000 0.000000 1.867710 
# 
# From -- ./inp_files/30522.got.cif
#   From: 2010.05.17/outbox.cif.g08.bks.cpg/sg73_16_cif.got.tgz:30522.got - 2010.06.03 17:35:07.
