data_PCOD9529466
_publ_section_title
;
Structure prediction by ZEFSAII (Michael W. Deem and Ramdas Pophale) SiO2 
 PCOD9529466
Probable space group: I B A M
;
_chemical_formula_sum "Si O2"
_cell_formula_units_Z 52
_cell_length_a 14.204956
_cell_length_b 9.559122
_cell_length_c 15.239727
_cell_angle_alpha 90.000000
_cell_angle_beta 90.000000
_cell_angle_gamma 90.000000
_cell_volume 2069.355399
_symmetry_space_group_name_H-M "I B A M"
_symmetry_group_IT_number 72
_symmetry_cell_setting 'orthorhombic'
loop_
_space_group_symop_operation_xyz
x,y,z
-x,-y,z
x,-y,1/2-z
-x,y,1/2-z
-x,-y,-z
x,y,-z
-x,y,1/2+z
x,-y,1/2+z
1/2+x,1/2+y,1/2+z
1/2-x,1/2-y,1/2+z
1/2+x,1/2-y,-z
1/2-x,1/2+y,-z
1/2-x,1/2-y,1/2-z
1/2+x,1/2+y,1/2-z
1/2-x,1/2+y,z
1/2+x,1/2-y,z
loop_
_atom_site_type_symbol
_atom_site_label
_atom_site_fract_x
_atom_site_fract_y
_atom_site_fract_z
Si Si1 0.500000 0.000000 0.000000
Si Si2 0.714418 0.714668 0.901822
Si Si3 0.854662 0.073316 0.657073
Si Si4 0.003199 0.711508 0.854840
O O1 0.542455 0.101222 0.078854
O O2 0.699000 0.548563 0.894716
O O3 0.611366 0.778740 0.884246
O O4 0.788012 0.790497 0.838773
O O5 0.744104 0.751640 0.000000
O O6 0.952479 0.140595 0.627461
O O7 0.870528 0.000000 0.750000
O O8 0.000000 0.682703 0.750000
#
# Coordination Sequence:
#
# PCOD9529466 Si02
#       4
#     4  16  16  16
#     4  12  30  48  82 122 160 210 280 344 404 494
#     4  12  28  48  79 119 161 217 277 336 413 496
#     4  12  28  50  82 118 164 218 274 342 419 493
#     4  12  28  51  81 117 166 214 274 340 420 492
#
# _framework density 25.128596999999999
#
# number of rings (size 3 to 8) (size 9 to 14) (size 15 to 20)
#    0.000    0.000    4.615    3.231    8.615    1.231 
#    0.000    0.000    0.000    0.000    0.000    0.000 
#    0.000    0.000    0.000    0.000    0.000    0.000 
#
# Total GULP energy -145033.183241 kJ/mol
# GULP energy per Si atom -5578.199355 kJ/mol
# Density = 2.507140 g / cm^3
# Si number density = 25.128597 Si / 1000 Ang^3
#
#
#
# Elastic Constant Matrix: (Units=GPa)
#
#
# Indices 1 2 3 4 5 6 
#
# 1 62.8006 8.2409 -20.4247 0.0000 0.0000 0.0000
# 2 8.2409 142.9407 58.5804 0.0000 0.0000 0.0000
# 3 -20.4247 58.5804 107.8709 0.0000 0.0000 0.0000
# 4 0.0000 0.0000 0.0000 43.3274 0.0000 0.0000
# 5 0.0000 0.0000 0.0000 0.0000 21.0986 0.0000
# 6 0.0000 0.0000 0.0000 0.0000 0.0000 56.9504
#
#
#
# Elastic Compliance Matrix: (Units=1/GPa)
#
#
# Indices 1 2 3 4 5 6 
#
# 1 0.017995 -0.003131 0.005107 0.000000 0.000000 0.000000
# 2 -0.003131 0.009543 -0.005775 0.000000 0.000000 0.000000
# 3 0.005107 -0.005775 0.013374 0.000000 0.000000 0.000000
# 4 0.000000 0.000000 0.000000 0.023080 0.000000 0.000000
# 5 0.000000 0.000000 0.000000 0.000000 0.047396 0.000000
# 6 0.000000 0.000000 0.000000 0.000000 0.000000 0.017559
#
#
# Mechanical properties :
#
#
# Convention : Reuss Voigt Hill
#
# Bulk Modulus (GPa) = 30.01626 45.15617 37.58622
# Shear Modulus (GPa) = 33.86382 42.08965 37.97674
#
# Velocity S-wave (km/s) = 3.67498 4.09708 3.89176
# Velocity P-wave (km/s) = 5.47524 6.35535 5.93164
#
# Compressibility (1/GPa) = 0.03331527
#
# Stress axis : x y z
#
# Youngs Moduli (GPa) = 55.57000 104.78602 74.77332
#
# Poissons Ratio (x) = 0.32804 -0.38190
# Poissons Ratio (y) = 0.17397 0.43184
# Poissons Ratio (z) = -0.28382 0.60517
#
# Static dielectric constant tensor:
#      x y z
#    x 1.984870 0.000000 0.000000 
#    y 0.000000 2.044370 0.000000 
#    z 0.000000 0.000000 1.972850 
# 
# From -- ./inp_files/22683.got.cif
#   From: 2010.05.17/outbox.cif.g08.bks.cpg/sg72_12_cif.got.tgz:22683.got - 2010.06.03 17:03:01.
