data_PCOD9529204
_publ_section_title
;
Structure prediction by ZEFSAII (Michael W. Deem and Ramdas Pophale) SiO2 
 PCOD9529204
Probable space group: I B A M
;
_chemical_formula_sum "Si O2"
_cell_formula_units_Z 48
_cell_length_a 9.071078
_cell_length_b 20.147294
_cell_length_c 13.691470
_cell_angle_alpha 90.000000
_cell_angle_beta 90.000000
_cell_angle_gamma 90.000000
_cell_volume 2502.221230
_symmetry_space_group_name_H-M "I B A M"
_symmetry_group_IT_number 72
_symmetry_cell_setting 'orthorhombic'
loop_
_space_group_symop_operation_xyz
x,y,z
-x,-y,z
x,-y,1/2-z
-x,y,1/2-z
-x,-y,-z
x,y,-z
-x,y,1/2+z
x,-y,1/2+z
1/2+x,1/2+y,1/2+z
1/2-x,1/2-y,1/2+z
1/2+x,1/2-y,-z
1/2-x,1/2+y,-z
1/2-x,1/2-y,1/2-z
1/2+x,1/2+y,1/2-z
1/2-x,1/2+y,z
1/2+x,1/2-y,z
loop_
_atom_site_type_symbol
_atom_site_label
_atom_site_fract_x
_atom_site_fract_y
_atom_site_fract_z
Si Si1 0.277000 0.538531 0.500000
Si Si2 0.163764 0.433900 0.793595
Si Si3 0.160782 0.186629 0.792760
Si Si4 0.598529 0.386986 0.000000
O O1 0.177330 0.556807 0.592116
O O2 0.427421 0.584643 0.500000
O O3 0.316398 0.459120 0.500000
O O4 0.234812 0.500000 0.750000
O O5 0.257994 0.373202 0.759554
O O6 0.000000 0.428195 0.750000
O O7 0.250000 0.250000 0.750000
O O8 0.139348 0.159340 0.905331
O O9 0.000000 0.195866 0.750000
#
# Coordination Sequence:
#
# PCOD9529204 Si02
#       4
#     8  16  16   8
#     4  11  22  43  76 108 142 189 243 291 366 440
#     4  11  24  42  71 108 143 184 237 305 360 431
#     4  12  26  46  70 104 145 189 243 299 363 435
#     4  11  24  42  77 107 139 196 241 292 362 442
#
# _framework density 19.182955
#
# number of rings (size 3 to 8) (size 9 to 14) (size 15 to 20)
#    0.000    0.667    6.667    1.000    0.000    7.333 
#    0.000    0.000    0.000    0.000    0.000    0.000 
#    0.000    0.000    0.000    0.000    0.000    0.000 
#
# Total GULP energy -133627.415681 kJ/mol
# GULP energy per Si atom -5567.808987 kJ/mol
# Density = 1.913929 g / cm^3
# Si number density = 19.182955 Si / 1000 Ang^3
#
#
#
# Elastic Constant Matrix: (Units=GPa)
#
#
# Indices 1 2 3 4 5 6 
#
# 1 132.1233 88.0271 73.1958 0.0000 0.0000 0.0000
# 2 88.0271 184.2394 79.1752 0.0000 0.0000 0.0000
# 3 73.1958 79.1752 235.9107 0.0001 0.0000 0.0000
# 4 0.0000 0.0000 0.0001 20.5757 0.0000 0.0000
# 5 0.0000 0.0000 0.0000 0.0000 20.9871 0.0000
# 6 0.0000 0.0000 0.0000 0.0000 0.0000 59.7633
#
#
#
# Elastic Compliance Matrix: (Units=1/GPa)
#
#
# Indices 1 2 3 4 5 6 
#
# 1 0.011923 -0.004799 -0.002089 0.000000 0.000000 0.000000
# 2 -0.004799 0.008274 -0.001288 0.000000 0.000000 0.000000
# 3 -0.002089 -0.001288 0.005319 0.000000 0.000000 0.000000
# 4 0.000000 0.000000 0.000000 0.048601 0.000000 0.000000
# 5 0.000000 0.000000 0.000000 0.000000 0.047648 0.000000
# 6 0.000000 0.000000 0.000000 0.000000 0.000000 0.016733
#
#
# Mechanical properties :
#
#
# Convention : Reuss Voigt Hill
#
# Bulk Modulus (GPa) = 109.11056 114.78552 111.94804
# Shear Modulus (GPa) = 31.66456 41.05691 36.36073
#
# Velocity S-wave (km/s) = 4.06724 4.63134 4.35842
# Velocity P-wave (km/s) = 8.89151 9.41096 9.15492
#
# Compressibility (1/GPa) = 0.00916502
#
# Stress axis : x y z
#
# Youngs Moduli (GPa) = 83.86946 120.85821 187.99793
#
# Poissons Ratio (x) = 0.58002 0.39268
# Poissons Ratio (y) = 0.40250 0.24212
# Poissons Ratio (z) = 0.17518 0.15565
#
# Static dielectric constant tensor:
#      x y z
#    x 1.634120 0.000000 0.000000 
#    y 0.000000 1.615170 0.000000 
#    z 0.000000 0.000000 4.573240 
# 
# From -- ./inp_files/18131.got.cif
#   From: 2010.05.17/outbox.cif.g08.bks.cpg/sg72_10_cif.got.tgz:18131.got - 2010.06.03 17:03:01.
