data_PCOD9529994
_publ_section_title
;
Structure prediction by ZEFSAII (Michael W. Deem and Ramdas Pophale) SiO2 
 PCOD9529994
Probable space group: I B C A 
;
_chemical_formula_sum "Si O2"
_cell_formula_units_Z 120
_cell_length_a 11.016536
_cell_length_b 28.854076
_cell_length_c 19.239434
_cell_angle_alpha 90.000000
_cell_angle_beta 90.000000
_cell_angle_gamma 90.000000
_cell_volume 6115.676730
_symmetry_space_group_name_H-M "I B C A "
_symmetry_group_IT_number 73
_symmetry_cell_setting 'orthorhombic'
loop_
_space_group_symop_operation_xyz
x,y,z
-x,1/2-y,z
x,-y,1/2-z
1/2-x,y,-z
-x,-y,-z
x,1/2+y,-z
-x,y,1/2+z
1/2+x,-y,z
1/2+x,1/2+y,1/2+z
1/2-x,-y,1/2+z
1/2+x,1/2-y,-z
-x,1/2+y,1/2-z
1/2-x,1/2-y,1/2-z
1/2+x,y,1/2-z
1/2-x,1/2+y,z
x,1/2-y,1/2+z
loop_
_atom_site_type_symbol
_atom_site_label
_atom_site_fract_x
_atom_site_fract_y
_atom_site_fract_z
Si Si1 0.971839 0.429658 0.536072
Si Si2 0.891252 0.526883 0.591019
Si Si3 0.060116 0.924627 0.194851
Si Si4 0.221219 0.342140 0.850115
Si Si5 0.153859 0.150097 0.792340
Si Si6 0.840340 0.923169 0.843956
Si Si7 0.871527 0.750101 0.205987
Si Si8 0.750000 0.865169 0.500000
O O1 0.898779 0.474626 0.563991
O O2 0.872219 0.395762 0.504104
O O3 0.066929 0.443103 0.475501
O O4 0.052201 0.413973 0.601722
O O5 0.762166 0.542970 0.622413
O O6 0.997122 0.536189 0.648107
O O7 0.164083 0.893768 0.158150
O O8 0.107907 0.940633 0.269901
O O9 0.954985 0.886074 0.203760
O O10 0.321502 0.340898 0.789416
O O11 0.134860 0.298333 0.834493
O O12 0.258084 0.336841 0.929173
O O13 0.270095 0.124120 0.824111
O O14 0.133322 0.199313 0.829466
O O15 0.750000 0.750000 0.250000
O O16 0.000000 0.750000 0.245535
#
# Coordination Sequence:
#
# PCOD9529994 Si02
#       8
#    16  16  16  16  16  16  16   8
#     4  11  24  40  62  87 122 166 216 261 315 380
#     4  10  23  40  62  87 120 164 213 259 315 379
#     4  10  18  38  59  91 122 157 198 263 312 368
#     4  10  20  35  59  86 124 160 201 246 311 375
#     4   9  19  36  64  92 122 154 203 254 320 373
#     4  10  22  38  64  93 123 158 211 266 315 376
#     4  10  19  35  64  97 124 157 201 257 310 378
#     4  12  24  40  62  86 124 174 208 258 314 382
#
# _framework density 19.621704000000001
#
# number of rings (size 3 to 8) (size 9 to 14) (size 15 to 20)
#    0.000    1.867    2.667    1.200    3.733    0.533 
#    0.000    4.000    8.800    0.000    0.000    0.000 
#    0.000    0.000    0.000    0.000    0.000    0.000 
#
# Total GULP energy -334335.740682 kJ/mol
# GULP energy per Si atom -5572.262345 kJ/mol
# Density = 1.957704 g / cm^3
# Si number density = 19.621704 Si / 1000 Ang^3
#
#
#
# Elastic Constant Matrix: (Units=GPa)
#
#
# Indices 1 2 3 4 5 6 
#
# 1 36.6351 0.8490 1.1430 0.0000 0.0000 0.0000
# 2 0.8490 37.9686 0.1803 0.0000 0.0000 0.0000
# 3 1.1430 0.1803 85.8653 0.0001 0.0000 0.0000
# 4 0.0000 0.0000 0.0001 4.8840 0.0000 0.0000
# 5 0.0000 0.0000 0.0000 0.0000 31.6637 0.0000
# 6 0.0000 0.0000 0.0000 0.0000 0.0000 14.5753
#
#
#
# Elastic Compliance Matrix: (Units=1/GPa)
#
#
# Indices 1 2 3 4 5 6 
#
# 1 0.027322 -0.000609 -0.000362 0.000000 0.000000 0.000000
# 2 -0.000609 0.026351 -0.000047 0.000000 0.000000 0.000000
# 3 -0.000362 -0.000047 0.011651 0.000000 0.000000 0.000000
# 4 0.000000 0.000000 0.000000 0.204750 0.000000 0.000000
# 5 0.000000 0.000000 0.000000 0.000000 0.031582 0.000000
# 6 0.000000 0.000000 0.000000 0.000000 0.000000 0.068609
#
#
# Mechanical properties :
#
#
# Convention : Reuss Voigt Hill
#
# Bulk Modulus (GPa) = 15.80118 18.31262 17.05690
# Shear Modulus (GPa) = 12.70976 20.77770 16.74373
#
# Velocity S-wave (km/s) = 2.54783 3.25763 2.92435
# Velocity P-wave (km/s) = 4.08970 4.84795 4.48488
#
# Compressibility (1/GPa) = 0.06328641
#
# Stress axis : x y z
#
# Youngs Moduli (GPa) = 36.60103 37.94861 85.82905
#
# Poissons Ratio (x) = 0.02312 0.03111
# Poissons Ratio (y) = 0.02230 0.00405
# Poissons Ratio (z) = 0.01326 0.00179
#
# Static dielectric constant tensor:
#      x y z
#    x 1.721730 0.000000 0.000000 
#    y 0.000000 1.700370 0.000000 
#    z 0.000000 0.000000 1.690380 
# 
# From -- ./inp_files/14908.got.cif
#   From: 2010.05.17/outbox.cif.g08.bks.cpg/sg73_8_cif.got.tgz:14908.got - 2010.06.03 17:35:07.
