data_PCOD9529594
_publ_section_title
;
Structure prediction by ZEFSAII (Michael W. Deem and Ramdas Pophale) SiO2 
 PCOD9529594
Probable space group: I B A M
;
_chemical_formula_sum "Si O2"
_cell_formula_units_Z 44
_cell_length_a 21.000000
_cell_length_b 9.000000
_cell_length_c 24.000000
_cell_angle_alpha 90.000000
_cell_angle_beta 90.000000
_cell_angle_gamma 90.000000
_cell_volume 4536.000000
_symmetry_space_group_name_H-M "I B A M"
_symmetry_group_IT_number 72
_symmetry_cell_setting 'orthorhombic'
loop_
_space_group_symop_operation_xyz
x,y,z
-x,-y,z
x,-y,1/2-z
-x,y,1/2-z
-x,-y,-z
x,y,-z
-x,y,1/2+z
x,-y,1/2+z
1/2+x,1/2+y,1/2+z
1/2-x,1/2-y,1/2+z
1/2+x,1/2-y,-z
1/2-x,1/2+y,-z
1/2-x,1/2-y,1/2-z
1/2+x,1/2+y,1/2-z
1/2-x,1/2+y,z
1/2+x,1/2-y,z
loop_
_atom_site_type_symbol
_atom_site_label
_atom_site_fract_x
_atom_site_fract_y
_atom_site_fract_z
Si Si1 0.563794 0.833831 0.276354
Si Si2 0.493985 0.171225 0.601756
Si Si3 0.139890 0.222804 0.599294
Si Si4 0.323225 0.946415 0.500000
Si Si5 0.324784 0.508518 0.500000
Si Si6 0.814125 0.170018 0.227805
Si Si7 0.410386 0.768008 0.000000
O O1 0.500000 0.764633 0.250000
O O2 0.547686 0.836176 0.341719
O O3 0.626045 0.746279 0.258645
O O4 0.569276 0.000000 0.250000
O O5 0.565083 0.237821 0.609850
O O6 0.454902 0.253533 0.553811
O O7 0.500000 0.000000 0.583114
O O8 0.167715 0.352382 0.557821
O O9 0.173161 0.193767 0.660248
O O10 0.148945 0.085600 0.556532
O O11 0.251884 0.011709 0.500000
O O12 0.378101 0.069991 0.500000
O O13 0.351551 0.343453 0.500000
O O14 0.750000 0.250000 0.250000
O O15 0.811403 0.000000 0.250000
#
# Coordination Sequence:
#
# PCOD9529594 Si02
#       7
#    16  16  16   8   8  16   8
#     4  11  22  44  72 104 139 190 232 288 354 422
#     4  12  22  42  74 101 138 179 240 287 346 417
#     4  11  25  47  69 102 142 178 234 294 346 414
#     4  11  24  45  77  95 140 190 236 285 344 428
#     4  11  28  46  63 106 141 186 226 291 359 408
#     4  12  29  48  73 107 144 187 237 292 355 428
#     4  12  25  40  74 105 131 188 239 287 347 408
#
# _framework density 9.7001760000000008
#
# number of rings (size 3 to 8) (size 9 to 14) (size 15 to 20)
#    0.000    0.545    5.455    3.000    5.091    3.273 
#    0.000    0.000    0.000    0.000    0.000    0.000 
#    0.000    0.000    0.000    0.000    0.000    0.000 
#
# Total GULP energy -245710.623070 kJ/mol
# GULP energy per Si atom -5584.332343 kJ/mol
# Density = 0.967810 g / cm^3
# Si number density = 9.700176 Si / 1000 Ang^3
#
#
#
# Elastic Constant Matrix: (Units=GPa)
#
#
# Indices 1 2 3 4 5 6 
#
# 1 160.3365 56.3423 66.8988 0.0000 0.0000 0.0000
# 2 56.3423 93.9320 46.4629 0.0000 0.0000 0.0000
# 3 66.8988 46.4629 176.3974 0.0000 0.0000 0.0000
# 4 0.0000 0.0000 0.0000 20.9855 0.0000 0.0000
# 5 0.0000 0.0000 0.0000 0.0000 34.4543 0.0000
# 6 0.0000 0.0000 0.0000 0.0000 0.0000 39.6676
#
#
#
# Elastic Compliance Matrix: (Units=1/GPa)
#
#
# Indices 1 2 3 4 5 6 
#
# 1 0.008575 -0.004065 -0.002182 0.000000 0.000000 0.000000
# 2 -0.004065 0.014167 -0.002190 0.000000 0.000000 0.000000
# 3 -0.002182 -0.002190 0.007073 0.000000 0.000000 0.000000
# 4 0.000000 0.000000 0.000000 0.047652 0.000000 0.000000
# 5 0.000000 0.000000 0.000000 0.000000 0.029024 0.000000
# 6 0.000000 0.000000 0.000000 0.000000 0.000000 0.025209
#
#
# Mechanical properties :
#
#
# Convention : Reuss Voigt Hill
#
# Bulk Modulus (GPa) = 77.25994 85.56377 81.41185
# Shear Modulus (GPa) = 32.70354 36.41895 34.56124
#
# Velocity S-wave (km/s) = 4.11020 4.33740 4.22533
# Velocity P-wave (km/s) = 7.90161 8.32371 8.11540
#
# Compressibility (1/GPa) = 0.01294332
#
# Stress axis : x y z
#
# Youngs Moduli (GPa) = 116.61197 70.58463 141.37683
#
# Poissons Ratio (x) = 0.28690 0.30843
# Poissons Ratio (y) = 0.47398 0.30964
# Poissons Ratio (z) = 0.25440 0.15459
#
# Static dielectric constant tensor:
#      x y z
#    x 1.647810 0.000000 0.000000 
#    y 0.000000 1.713290 0.000000 
#    z 0.000000 0.000000 1.683850 
# 
# From -- ./inp_files/45292.got.cif
#   From: 2010.05.17/outbox.ucp.g08.bks.cvg/sg72_23_cif.got.tgz:45292.got - 2010.06.11 16:33:07.
