data_PCOD9529860
_publ_section_title
;
Structure prediction by ZEFSAII (Michael W. Deem and Ramdas Pophale) SiO2 
 PCOD9529860
Probable space group: I B C A 
;
_chemical_formula_sum "Si O2"
_cell_formula_units_Z 96
_cell_length_a 14.436353
_cell_length_b 21.838994
_cell_length_c 11.588055
_cell_angle_alpha 90.000000
_cell_angle_beta 90.000000
_cell_angle_gamma 90.000000
_cell_volume 3653.428983
_symmetry_space_group_name_H-M "I B C A "
_symmetry_group_IT_number 73
_symmetry_cell_setting 'orthorhombic'
loop_
_space_group_symop_operation_xyz
x,y,z
-x,1/2-y,z
x,-y,1/2-z
1/2-x,y,-z
-x,-y,-z
x,1/2+y,-z
-x,y,1/2+z
1/2+x,-y,z
1/2+x,1/2+y,1/2+z
1/2-x,-y,1/2+z
1/2+x,1/2-y,-z
-x,1/2+y,1/2-z
1/2-x,1/2-y,1/2-z
1/2+x,y,1/2-z
1/2-x,1/2+y,z
x,1/2-y,1/2+z
loop_
_atom_site_type_symbol
_atom_site_label
_atom_site_fract_x
_atom_site_fract_y
_atom_site_fract_z
Si Si1 0.859396 0.494236 0.499927
Si Si2 0.000000 0.250000 0.430045
Si Si3 0.165007 0.817688 0.565841
Si Si4 0.263369 0.377897 0.222228
Si Si5 0.341659 0.000000 0.250000
Si Si6 0.113393 0.643103 0.440297
Si Si7 0.570455 0.895546 0.140098
O O1 0.750000 0.509941 0.500000
O O2 0.893516 0.513704 0.629574
O O3 0.872548 0.420619 0.487749
O O4 0.907509 0.535547 0.402506
O O5 0.083913 0.282687 0.366259
O O6 0.062420 0.200900 0.502517
O O7 0.250000 0.784409 0.500000
O O8 0.217283 0.857697 0.658306
O O9 0.110342 0.855699 0.467843
O O10 0.226730 0.446288 0.210384
O O11 0.210862 0.342303 0.121110
O O12 0.371444 0.375740 0.248451
O O13 0.037208 0.618963 0.347552
#
# Coordination Sequence:
#
# PCOD9529860 Si02
#       7
#    16   8  16  16   8  16  16
#     4  11  19  36  65  91 138 172 205 270 332 402
#     4  10  22  42  56  86 132 168 228 280 306 380
#     4   9  18  36  64  82 111 170 217 253 332 386
#     4  10  19  37  61  94 121 165 212 266 328 396
#     4  10  18  32  60  96 128 162 204 250 316 408
#     4  10  24  37  61  94 129 169 225 271 323 388
#     4  10  18  39  63  89 128 175 206 261 338 401
#
# _framework density 26.276685000000001
#
# number of rings (size 3 to 8) (size 9 to 14) (size 15 to 20)
#    0.000    2.000    3.333    1.000    0.000    1.333 
#    0.000   19.167    0.000    0.000    0.000    0.000 
#    0.000    0.000    0.000    0.000    0.000    0.000 
#
# Total GULP energy -268053.184765 kJ/mol
# GULP energy per Si atom -5584.441349 kJ/mol
# Density = 2.621688 g / cm^3
# Si number density = 26.276685 Si / 1000 Ang^3
#
#
#
# Elastic Constant Matrix: (Units=GPa)
#
#
# Indices 1 2 3 4 5 6 
#
# 1 127.6127 15.3722 25.6830 0.0000 0.0000 0.0000
# 2 15.3722 72.6064 9.9594 0.0001 0.0000 0.0000
# 3 25.6830 9.9594 99.8273 0.0002 0.0000 0.0000
# 4 0.0000 0.0001 0.0002 16.8540 0.0000 0.0000
# 5 0.0000 0.0000 0.0000 0.0000 17.8391 0.0000
# 6 0.0000 0.0000 0.0000 0.0000 0.0000 33.3970
#
#
#
# Elastic Compliance Matrix: (Units=1/GPa)
#
#
# Indices 1 2 3 4 5 6 
#
# 1 0.008424 -0.001507 -0.002017 0.000000 0.000000 0.000000
# 2 -0.001507 0.014234 -0.001032 0.000000 0.000000 0.000000
# 3 -0.002017 -0.001032 0.010639 0.000000 0.000000 0.000000
# 4 0.000000 0.000000 0.000000 0.059333 0.000000 0.000000
# 5 0.000000 0.000000 0.000000 0.000000 0.056057 0.000000
# 6 0.000000 0.000000 0.000000 0.000000 0.000000 0.029943
#
#
# Mechanical properties :
#
#
# Convention : Reuss Voigt Hill
#
# Bulk Modulus (GPa) = 41.34918 44.67509 43.01213
# Shear Modulus (GPa) = 25.53595 30.22013 27.87804
#
# Velocity S-wave (km/s) = 3.12077 3.39495 3.26074
# Velocity P-wave (km/s) = 5.36245 5.69265 5.53002
#
# Compressibility (1/GPa) = 0.02418428
#
# Stress axis : x y z
#
# Youngs Moduli (GPa) = 118.71376 70.25671 93.99221
#
# Poissons Ratio (x) = 0.10586 0.18957
# Poissons Ratio (y) = 0.17888 0.09703
# Poissons Ratio (z) = 0.23943 0.07253
#
# Static dielectric constant tensor:
#      x y z
#    x 2.052110 0.000000 0.000000 
#    y 0.000000 2.137440 0.000000 
#    z 0.000000 0.000000 2.173810 
# 
# From -- ./inp_files/17216.got.cif
#   From: 2010.05.17/outbox.cif.g08.bks.cpg/sg73_9_cif.got.tgz:17216.got - 2010.06.03 17:35:07.
