data_PCOD9529434
_publ_section_title
;
Structure prediction by ZEFSAII (Michael W. Deem and Ramdas Pophale) SiO2 
 PCOD9529434
Probable space group: I B A M
;
_chemical_formula_sum "Si O2"
_cell_formula_units_Z 88
_cell_length_a 15.297780
_cell_length_b 9.610853
_cell_length_c 26.056825
_cell_angle_alpha 90.000000
_cell_angle_beta 90.000000
_cell_angle_gamma 90.000000
_cell_volume 3830.997264
_symmetry_space_group_name_H-M "I B A M"
_symmetry_group_IT_number 72
_symmetry_cell_setting 'orthorhombic'
loop_
_space_group_symop_operation_xyz
x,y,z
-x,-y,z
x,-y,1/2-z
-x,y,1/2-z
-x,-y,-z
x,y,-z
-x,y,1/2+z
x,-y,1/2+z
1/2+x,1/2+y,1/2+z
1/2-x,1/2-y,1/2+z
1/2+x,1/2-y,-z
1/2-x,1/2+y,-z
1/2-x,1/2-y,1/2-z
1/2+x,1/2+y,1/2-z
1/2-x,1/2+y,z
1/2+x,1/2-y,z
loop_
_atom_site_type_symbol
_atom_site_label
_atom_site_fract_x
_atom_site_fract_y
_atom_site_fract_z
Si Si1 0.500000 0.309136 0.250000
Si Si2 0.478266 0.273265 0.558337
Si Si3 0.186166 0.177427 0.208331
Si Si4 0.952423 0.627486 0.344817
Si Si5 0.352093 0.473580 0.057839
Si Si6 0.284736 0.047290 0.353604
O O1 0.412886 0.363954 0.277491
O O2 0.451453 0.238755 0.200381
O O3 0.471986 0.216186 0.500000
O O4 0.492337 0.170561 0.605404
O O5 0.565802 0.368529 0.560320
O O6 0.396005 0.375380 0.566766
O O7 0.250000 0.250000 0.250000
O O8 0.229495 0.035937 0.188900
O O9 0.182439 0.303826 0.166659
O O10 0.861184 0.564912 0.363584
O O11 0.000000 0.500000 0.317235
O O12 0.278477 0.435823 0.098131
O O13 0.317104 0.470429 0.000000
#
# Coordination Sequence:
#
# PCOD9529434 Si02
#       6
#     8  16  16  16  16  16
#     4  12  25  46  67  94 136 189 219 276 348 405
#     4   9  20  43  68  94 130 175 221 276 336 402
#     4  12  26  45  69  97 136 178 234 276 337 407
#     4  12  24  39  67  93 133 178 219 268 341 409
#     4   9  20  41  69  96 130 170 220 280 338 393
#     4  12  25  43  69 100 135 176 223 284 335 410
#
# _framework density 22.97052
#
# number of rings (size 3 to 8) (size 9 to 14) (size 15 to 20)
#    0.000    1.091    3.636    4.091    0.000    1.091 
#    0.000    1.818    0.000    0.000    0.000    0.000 
#    0.000    0.000    0.000    0.000    0.000    0.000 
#
# Total GULP energy -245707.695644 kJ/mol
# GULP energy per Si atom -5584.265810 kJ/mol
# Density = 2.291824 g / cm^3
# Si number density = 22.970520 Si / 1000 Ang^3
#
#
#
# Elastic Constant Matrix: (Units=GPa)
#
#
# Indices 1 2 3 4 5 6 
#
# 1 110.2324 18.4056 34.8785 0.0000 0.0000 0.0000
# 2 18.4056 70.4612 36.1829 0.0000 0.0000 0.0000
# 3 34.8785 36.1829 113.7585 0.0000 0.0000 0.0000
# 4 0.0000 0.0000 0.0000 30.5745 0.0000 0.0000
# 5 0.0000 0.0000 0.0000 0.0000 40.4264 0.0000
# 6 0.0000 0.0000 0.0000 0.0000 0.0000 8.8303
#
#
#
# Elastic Compliance Matrix: (Units=1/GPa)
#
#
# Indices 1 2 3 4 5 6 
#
# 1 0.010139 -0.001258 -0.002709 0.000000 0.000000 0.000000
# 2 -0.001258 0.017119 -0.005059 0.000000 0.000000 0.000000
# 3 -0.002709 -0.005059 0.011230 0.000000 0.000000 0.000000
# 4 0.000000 0.000000 0.000000 0.032707 0.000000 0.000000
# 5 0.000000 0.000000 0.000000 0.000000 0.024736 0.000000
# 6 0.000000 0.000000 0.000000 0.000000 0.000000 0.113247
#
#
# Mechanical properties :
#
#
# Convention : Reuss Voigt Hill
#
# Bulk Modulus (GPa) = 48.93133 52.59844 50.76488
# Shear Modulus (GPa) = 21.36377 29.63191 25.49784
#
# Velocity S-wave (km/s) = 3.05298 3.59555 3.33532
# Velocity P-wave (km/s) = 5.81168 6.33918 6.08116
#
# Compressibility (1/GPa) = 0.02043681
#
# Stress axis : x y z
#
# Youngs Moduli (GPa) = 98.63172 58.41554 89.04547
#
# Poissons Ratio (x) = 0.07346 0.24119
# Poissons Ratio (y) = 0.12403 0.45051
# Poissons Ratio (z) = 0.26715 0.29554
#
# Static dielectric constant tensor:
#      x y z
#    x 1.907420 0.000000 0.000000 
#    y 0.000000 1.933580 0.000000 
#    z 0.000000 0.000000 1.856290 
# 
# From -- ./inp_files/44160.got.cif
#   From: 2010.05.17/outbox.cif.g08.bks.cpg/sg72_23_cif.got.tgz:44160.got - 2010.06.03 17:03:01.
