data_PCOD9529194
_publ_section_title
;
Structure prediction by ZEFSAII (Michael W. Deem and Ramdas Pophale) SiO2 
 PCOD9529194
Probable space group: I B A M
;
_chemical_formula_sum "Si O2"
_cell_formula_units_Z 68
_cell_length_a 8.090160
_cell_length_b 21.116368
_cell_length_c 16.887539
_cell_angle_alpha 90.000000
_cell_angle_beta 90.000000
_cell_angle_gamma 90.000000
_cell_volume 2884.979276
_symmetry_space_group_name_H-M "I B A M"
_symmetry_group_IT_number 72
_symmetry_cell_setting 'orthorhombic'
loop_
_space_group_symop_operation_xyz
x,y,z
-x,-y,z
x,-y,1/2-z
-x,y,1/2-z
-x,-y,-z
x,y,-z
-x,y,1/2+z
x,-y,1/2+z
1/2+x,1/2+y,1/2+z
1/2-x,1/2-y,1/2+z
1/2+x,1/2-y,-z
1/2-x,1/2+y,-z
1/2-x,1/2-y,1/2-z
1/2+x,1/2+y,1/2-z
1/2-x,1/2+y,z
1/2+x,1/2-y,z
loop_
_atom_site_type_symbol
_atom_site_label
_atom_site_fract_x
_atom_site_fract_y
_atom_site_fract_z
Si Si1 0.378050 0.794461 0.593198
Si Si2 0.500000 0.000000 0.377703
Si Si3 0.000000 0.000000 0.750000
Si Si4 0.750147 0.663218 0.136855
Si Si5 0.743145 0.071764 0.000000
Si Si6 0.243830 0.596901 0.807047
O O1 0.351002 0.785101 0.500000
O O2 0.348873 0.728919 0.638230
O O3 0.564489 0.819032 0.606991
O O4 0.256815 0.848240 0.627388
O O5 0.641082 0.968808 0.431755
O O6 0.414692 0.945619 0.326838
O O7 0.109307 0.046420 0.803507
O O8 0.679141 0.616731 0.070372
O O9 0.758866 0.631213 0.222341
#
# Coordination Sequence:
#
# PCOD9529194 Si02
#       6
#    16   8   4  16   8  16
#     4  12  25  48  76 110 141 188 241 300 359 430
#     4  11  24  47  78 104 142 194 253 283 358 444
#     4  12  32  46  66 108 148 182 242 294 368 408
#     4  12  25  46  75 108 146 186 241 298 365 423
#     4  11  22  42  76 112 136 188 236 302 350 434
#     4  12  28  48  73 107 141 195 239 302 355 437
#
# _framework density 23.570360999999998
#
# number of rings (size 3 to 8) (size 9 to 14) (size 15 to 20)
#    0.000    0.235    4.706    2.824    8.235    1.882 
#    0.000    0.588    0.000    0.000    0.000    0.000 
#    0.000    0.000    0.000    0.000    0.000    0.000 
#
# Total GULP energy -189501.382680 kJ/mol
# GULP energy per Si atom -5573.570079 kJ/mol
# Density = 2.351671 g / cm^3
# Si number density = 23.570361 Si / 1000 Ang^3
#
#
#
# Elastic Constant Matrix: (Units=GPa)
#
#
# Indices 1 2 3 4 5 6 
#
# 1 34.1591 16.2984 24.7213 0.0000 0.0000 0.0000
# 2 16.2984 121.9232 56.4913 0.0000 -0.0001 0.0000
# 3 24.7213 56.4913 148.0400 0.0000 -0.0003 0.0000
# 4 0.0000 0.0000 0.0000 33.6539 -0.0001 0.0000
# 5 0.0000 -0.0001 -0.0003 -0.0001 353.2464 0.0000
# 6 0.0000 0.0000 0.0000 0.0000 0.0000 20.6342
#
#
#
# Elastic Compliance Matrix: (Units=1/GPa)
#
#
# Indices 1 2 3 4 5 6 
#
# 1 0.033828 -0.002314 -0.004766 0.000000 0.000000 0.000000
# 2 -0.002314 0.010122 -0.003476 0.000000 0.000000 0.000000
# 3 -0.004766 -0.003476 0.008877 0.000000 0.000000 0.000000
# 4 0.000000 0.000000 0.000000 0.029714 0.000000 0.000000
# 5 0.000000 0.000000 0.000000 0.000000 0.002831 0.000000
# 6 0.000000 0.000000 0.000000 0.000000 0.000000 0.048463
#
#
# Mechanical properties :
#
#
# Convention : Reuss Voigt Hill
#
# Bulk Modulus (GPa) = 31.53052 55.46047 43.49550
# Shear Modulus (GPa) = 30.20807 95.28098 62.74453
#
# Velocity S-wave (km/s) = 3.58385 6.36489 5.16506
# Velocity P-wave (km/s) = 5.52553 8.80889 7.35283
#
# Compressibility (1/GPa) = 0.03171530
#
# Stress axis : x y z
#
# Youngs Moduli (GPa) = 29.56135 98.79714 112.64749
#
# Poissons Ratio (x) = 0.22859 0.53688
# Poissons Ratio (y) = 0.06840 0.39157
# Poissons Ratio (z) = 0.14089 0.34342
#
# Static dielectric constant tensor:
#      x y z
#    x 1.974120 0.000000 0.000000 
#    y 0.000000 1.902900 0.000000 
#    z 0.000000 0.000000 1.831790 
# 
# From -- ./inp_files/27841.got.cif
#   From: 2010.05.17/outbox.cif.g08.bks.cpg/sg72_14_cif.got.tgz:27841.got - 2010.06.03 17:03:01.
