data_PCOD9529212
_publ_section_title
;
Structure prediction by ZEFSAII (Michael W. Deem and Ramdas Pophale) SiO2 
 PCOD9529212
Probable space group: I B A M
;
_chemical_formula_sum "Si O2"
_cell_formula_units_Z 48
_cell_length_a 8.163077
_cell_length_b 18.689660
_cell_length_c 14.559996
_cell_angle_alpha 90.000000
_cell_angle_beta 90.000000
_cell_angle_gamma 90.000000
_cell_volume 2221.347736
_symmetry_space_group_name_H-M "I B A M"
_symmetry_group_IT_number 72
_symmetry_cell_setting 'orthorhombic'
loop_
_space_group_symop_operation_xyz
x,y,z
-x,-y,z
x,-y,1/2-z
-x,y,1/2-z
-x,-y,-z
x,y,-z
-x,y,1/2+z
x,-y,1/2+z
1/2+x,1/2+y,1/2+z
1/2-x,1/2-y,1/2+z
1/2+x,1/2-y,-z
1/2-x,1/2+y,-z
1/2-x,1/2-y,1/2-z
1/2+x,1/2+y,1/2-z
1/2-x,1/2+y,z
1/2+x,1/2-y,z
loop_
_atom_site_type_symbol
_atom_site_label
_atom_site_fract_x
_atom_site_fract_y
_atom_site_fract_z
Si Si1 0.306126 0.827840 0.500000
Si Si2 0.658208 0.448252 0.347970
Si Si3 0.646988 0.079392 0.323185
Si Si4 0.085641 0.835724 0.000000
O O1 0.366652 0.865635 0.406223
O O2 0.352912 0.744972 0.500000
O O3 0.110521 0.836145 0.500000
O O4 0.500000 0.500000 0.361615
O O5 0.695333 0.416952 0.246184
O O6 0.812240 0.501396 0.366587
O O7 0.646511 0.381548 0.413961
O O8 0.500000 0.085627 0.250000
#
# Coordination Sequence:
#
# PCOD9529212 Si02
#       4
#     8  16  16   8
#     4  12  29  50  69 107 152 194 239 292 375 435
#     4  11  22  46  78 106 137 191 246 295 356 422
#     4  11  25  46  76 111 143 184 242 311 354 423
#     4  12  28  47  74 107 151 198 234 295 363 442
#
# _framework density 21.608502000000001
#
# number of rings (size 3 to 8) (size 9 to 14) (size 15 to 20)
#    0.000    0.667    3.333    5.500    4.667    1.333 
#    0.000   10.000    0.000    0.000    0.000    0.000 
#    0.000    0.000    0.000    0.000    0.000    0.000 
#
# Total GULP energy -133903.148377 kJ/mol
# GULP energy per Si atom -5579.297849 kJ/mol
# Density = 2.155932 g / cm^3
# Si number density = 21.608502 Si / 1000 Ang^3
#
#
#
# Elastic Constant Matrix: (Units=GPa)
#
#
# Indices 1 2 3 4 5 6 
#
# 1 101.8636 63.3491 51.0419 0.0000 0.0000 0.0000
# 2 63.3491 205.4779 134.3181 -0.0001 0.0000 0.0000
# 3 51.0419 134.3181 132.3223 -0.0002 0.0000 0.0000
# 4 0.0000 -0.0001 -0.0002-1354.2909 0.0001 0.0000
# 5 0.0000 0.0000 0.0000 0.0001 42.4469 0.0000
# 6 0.0000 0.0000 0.0000 0.0000 0.0000 34.4291
#
#
#
# Elastic Compliance Matrix: (Units=1/GPa)
#
#
# Indices 1 2 3 4 5 6 
#
# 1 0.012461 -0.002080 -0.002696 0.000000 0.000000 0.000000
# 2 -0.002080 0.014812 -0.014233 0.000000 0.000000 0.000000
# 3 -0.002696 -0.014233 0.023045 0.000000 0.000000 0.000000
# 4 0.000000 0.000000 0.000000 -0.000738 0.000000 0.000000
# 5 0.000000 0.000000 0.000000 0.000000 0.023559 0.000000
# 6 0.000000 0.000000 0.000000 0.000000 0.000000 0.029045
#
#
# Mechanical properties :
#
#
# Convention : Reuss Voigt Hill
#
# Bulk Modulus (GPa) = 81.29413 104.12021 92.70717
# Shear Modulus (GPa) = 34.64994 -242.75267 -104.05137
#
# Velocity S-wave (km/s) = 4.00876 -10.61062 -6.94676
# Velocity P-wave (km/s) = 7.68960 10.09079 4.62029
#
# Compressibility (1/GPa) = 0.01230101
#
# Stress axis : x y z
#
# Youngs Moduli (GPa) = 80.24934 67.51406 43.39370
#
# Poissons Ratio (x) = 0.14040 0.11698
# Poissons Ratio (y) = 0.16688 0.61762
# Poissons Ratio (z) = 0.21634 0.96092
#
# Static dielectric constant tensor:
#      x y z
#    x 1.927530 0.000000 0.000000 
#    y 0.000000 1.761480 0.000000 
#    z 0.000000 0.000000 1.822280 
# 
# From -- ./inp_files/27389.got.cif
#   From: 2010.05.17/outbox.cif.g08.bks.cpg/sg72_14_cif.got.tgz:27389.got - 2010.06.03 17:03:01.
