data_PCOD9529619
_publ_section_title
;
Structure prediction by ZEFSAII (Michael W. Deem and Ramdas Pophale) SiO2 
 PCOD9529619
Probable space group: I B C A 
;
_chemical_formula_sum "Si O2"
_cell_formula_units_Z 56
_cell_length_a 5.090046
_cell_length_b 29.832811
_cell_length_c 13.707403
_cell_angle_alpha 90.000000
_cell_angle_beta 90.000000
_cell_angle_gamma 90.000000
_cell_volume 2081.474358
_symmetry_space_group_name_H-M "I B C A "
_symmetry_group_IT_number 73
_symmetry_cell_setting 'orthorhombic'
loop_
_space_group_symop_operation_xyz
x,y,z
-x,1/2-y,z
x,-y,1/2-z
1/2-x,y,-z
-x,-y,-z
x,1/2+y,-z
-x,y,1/2+z
1/2+x,-y,z
1/2+x,1/2+y,1/2+z
1/2-x,-y,1/2+z
1/2+x,1/2-y,-z
-x,1/2+y,1/2-z
1/2-x,1/2-y,1/2-z
1/2+x,y,1/2-z
1/2-x,1/2+y,z
x,1/2-y,1/2+z
loop_
_atom_site_type_symbol
_atom_site_label
_atom_site_fract_x
_atom_site_fract_y
_atom_site_fract_z
Si Si1 0.225332 0.659470 0.118258
Si Si2 0.222909 0.388768 0.116935
Si Si3 0.000000 0.250000 0.930306
Si Si4 0.572267 0.518194 0.640949
O O1 0.521905 0.650220 0.149877
O O2 0.017402 0.621680 0.151601
O O3 0.099224 0.708053 0.132512
O O4 0.250000 0.656535 0.000000
O O5 0.074361 0.434648 0.141627
O O6 0.250000 0.388447 0.000000
O O7 0.250000 0.262678 0.000000
O O8 0.626537 0.500000 0.750000
O O9 0.862510 0.516600 0.595731
#
# Coordination Sequence:
#
# PCOD9529619 Si02
#       4
#    16  16   8  16
#     4   9  17  28  44  70 103 137 168 199 243 296
#     4  10  19  31  48  72 102 133 167 209 255 296
#     4  10  16  26  44  68 104 144 172 196 238 296
#     4  10  21  36  52  70  96 127 170 217 259 307
#
# _framework density 26.904005999999999
#
# number of rings (size 3 to 8) (size 9 to 14) (size 15 to 20)
#    0.000    2.286    0.000    6.000    0.000    1.143 
#    0.000    0.000    0.000    0.000    0.000    0.000 
#    0.000   91.429    0.000    0.000    0.000    8.571 
#
# Total GULP energy -156610.305750 kJ/mol
# GULP energy per Si atom -5593.225205 kJ/mol
# Density = 2.684277 g / cm^3
# Si number density = 26.904006 Si / 1000 Ang^3
#
#
#
# Elastic Constant Matrix: (Units=GPa)
#
#
# Indices 1 2 3 4 5 6 
#
# 1 185.6038 50.8524 -16.3291 0.0000 0.0000 0.0000
# 2 50.8524 147.5050 -15.3785 0.0000 0.0000 0.0000
# 3 -16.3291 -15.3785 89.9464 0.0000 0.0000 0.0000
# 4 0.0000 0.0000 0.0000 13.1749 0.0000 0.0000
# 5 0.0000 0.0000 0.0000 0.0000 -3.5110 0.0000
# 6 0.0000 0.0000 0.0000 0.0000 0.0000 43.0545
#
#
#
# Elastic Compliance Matrix: (Units=1/GPa)
#
#
# Indices 1 2 3 4 5 6 
#
# 1 0.005999 -0.001990 0.000749 0.000000 0.000000 0.000000
# 2 -0.001990 0.007563 0.000932 0.000000 0.000000 0.000000
# 3 0.000749 0.000932 0.011413 0.000000 0.000000 0.000000
# 4 0.000000 0.000000 0.000000 0.075902 0.000000 0.000000
# 5 0.000000 0.000000 0.000000 0.000000 -0.284821 0.000000
# 6 0.000000 0.000000 0.000000 0.000000 0.000000 0.023226
#
#
# Mechanical properties :
#
#
# Convention : Reuss Voigt Hill
#
# Bulk Modulus (GPa) = 41.05846 51.26055 46.15950
# Shear Modulus (GPa) = -32.89882 37.47105 2.28611
#
# Velocity S-wave (km/s) = -3.50068 3.73603 0.92281
# Velocity P-wave (km/s) = 1.02248 6.14044 4.28133
#
# Compressibility (1/GPa) = 0.02435551
#
# Stress axis : x y z
#
# Youngs Moduli (GPa) = 166.69591 132.22882 87.61962
#
# Poissons Ratio (x) = 0.26314 -0.06561
# Poissons Ratio (y) = 0.33174 -0.08164
# Poissons Ratio (z) = -0.12482 -0.12320
#
# Static dielectric constant tensor:
#      x y z
#    x 2.135140 0.000000 0.000000 
#    y 0.000000 2.138330 0.000000 
#    z 0.000000 0.000000 2.261010 
# 
# From -- ./inp_files/717.got.cif
#   From: 2010.05.17/outbox.cif.g08.bks.cpg/sg73_1_cif.got.tgz:717.got - 2010.06.03 17:35:07.
