data_PCOD9529412
_publ_section_title
;
Structure prediction by ZEFSAII (Michael W. Deem and Ramdas Pophale) SiO2 
 PCOD9529412
Probable space group: I B A M
;
_chemical_formula_sum "Si O2"
_cell_formula_units_Z 68
_cell_length_a 9.052592
_cell_length_b 23.537622
_cell_length_c 13.402703
_cell_angle_alpha 90.000000
_cell_angle_beta 90.000000
_cell_angle_gamma 90.000000
_cell_volume 2855.800893
_symmetry_space_group_name_H-M "I B A M"
_symmetry_group_IT_number 72
_symmetry_cell_setting 'orthorhombic'
loop_
_space_group_symop_operation_xyz
x,y,z
-x,-y,z
x,-y,1/2-z
-x,y,1/2-z
-x,-y,-z
x,y,-z
-x,y,1/2+z
x,-y,1/2+z
1/2+x,1/2+y,1/2+z
1/2-x,1/2-y,1/2+z
1/2+x,1/2-y,-z
1/2-x,1/2+y,-z
1/2-x,1/2-y,1/2-z
1/2+x,1/2+y,1/2-z
1/2-x,1/2+y,z
1/2+x,1/2-y,z
loop_
_atom_site_type_symbol
_atom_site_label
_atom_site_fract_x
_atom_site_fract_y
_atom_site_fract_z
Si Si1 0.589676 0.178677 0.121665
Si Si2 0.756187 0.711119 0.378182
Si Si3 0.010015 0.562622 0.612561
Si Si4 0.164557 0.092192 0.114191
Si Si5 0.000000 0.000000 0.750000
O O1 0.704014 0.226496 0.152681
O O2 0.426032 0.200056 0.147885
O O3 0.604933 0.113768 0.159218
O O4 0.594123 0.175084 0.000000
O O5 0.749423 0.710177 0.500000
O O6 0.653513 0.657518 0.348230
O O7 0.069457 0.555241 0.500000
O O8 0.841403 0.583376 0.607609
O O9 0.000000 0.500000 0.654009
O O10 0.106199 0.088434 0.000000
O O11 0.095570 0.042832 0.181298
#
# Coordination Sequence:
#
# PCOD9529412 Si02
#       5
#    16  16  16  16   4
#     4   8  13  23  43  72 104 136 171 214 262 311
#     4   8  14  27  46  72 103 134 172 217 261 309
#     4   8  14  28  50  77 107 137 176 223 267 312
#     4   9  19  35  54  77 107 139 176 222 264 313
#     4  12  22  36  54  74 104 148 180 210 272 326
#
# _framework density 23.811184000000001
#
# number of rings (size 3 to 8) (size 9 to 14) (size 15 to 20)
#    0.000    3.529    0.000    3.176    0.000    0.000 
#    4.235    0.588    0.000    5.647    0.000    0.000 
#    0.000    0.000    0.000    0.000    0.000    0.000 
#
# Total GULP energy -189832.076934 kJ/mol
# GULP energy per Si atom -5583.296380 kJ/mol
# Density = 2.375699 g / cm^3
# Si number density = 23.811184 Si / 1000 Ang^3
#
#
#
# Elastic Constant Matrix: (Units=GPa)
#
#
# Indices 1 2 3 4 5 6 
#
# 1 27.0840 48.0010 4.8169 0.0000 0.0000 0.0000
# 2 48.0010 260.8387 33.5004 0.0000 0.0000 0.0000
# 3 4.8169 33.5004 104.3864 0.0001 -0.0001 0.0000
# 4 0.0000 0.0000 0.0001 2.1999 0.0000 0.0000
# 5 0.0000 0.0000 -0.0001 0.0000 -104.8320 0.0000
# 6 0.0000 0.0000 0.0000 0.0000 0.0000 37.5054
#
#
#
# Elastic Compliance Matrix: (Units=1/GPa)
#
#
# Indices 1 2 3 4 5 6 
#
# 1 0.054847 -0.010188 0.000739 0.000000 0.000000 0.000000
# 2 -0.010188 0.005891 -0.001420 0.000000 0.000000 0.000000
# 3 0.000739 -0.001420 0.010002 0.000000 0.000000 0.000000
# 4 0.000000 0.000000 0.000000 0.454576 0.000000 0.000000
# 5 0.000000 0.000000 0.000000 0.000000 -0.009539 0.000000
# 6 0.000000 0.000000 0.000000 0.000000 0.000000 0.026663
#
#
# Mechanical properties :
#
#
# Convention : Reuss Voigt Hill
#
# Bulk Modulus (GPa) = 20.40813 62.77175 41.58994
# Shear Modulus (GPa) = 8.61307 7.37404 7.99355
#
# Velocity S-wave (km/s) = 1.90397 1.76170 1.83422
# Velocity P-wave (km/s) = 3.66372 5.52790 4.68938
#
# Compressibility (1/GPa) = 0.04900008
#
# Stress axis : x y z
#
# Youngs Moduli (GPa) = 18.23245 169.74731 99.98426
#
# Poissons Ratio (x) = 1.72942 -0.07386
# Poissons Ratio (y) = 0.18576 0.14203
# Poissons Ratio (z) = -0.01347 0.24112
#
# Static dielectric constant tensor:
#      x y z
#    x 1.824140 0.000000 0.000000 
#    y 0.000000 2.106880 0.000000 
#    z 0.000000 0.000000 1.986130 
# 
# From -- ./inp_files/19921.got.cif
#   From: 2010.05.17/outbox.cif.g08.bks.cpg/sg72_10_cif.got.tgz:19921.got - 2010.06.03 17:03:01.
