data_PCOD9529477
_publ_section_title
;
Structure prediction by ZEFSAII (Michael W. Deem and Ramdas Pophale) SiO2 
 PCOD9529477
Probable space group: I B A M
;
_chemical_formula_sum "Si O2"
_cell_formula_units_Z 80
_cell_length_a 9.665423
_cell_length_b 29.456726
_cell_length_c 16.210239
_cell_angle_alpha 90.000000
_cell_angle_beta 90.000000
_cell_angle_gamma 90.000000
_cell_volume 4615.244978
_symmetry_space_group_name_H-M "I B A M"
_symmetry_group_IT_number 72
_symmetry_cell_setting 'orthorhombic'
loop_
_space_group_symop_operation_xyz
x,y,z
-x,-y,z
x,-y,1/2-z
-x,y,1/2-z
-x,-y,-z
x,y,-z
-x,y,1/2+z
x,-y,1/2+z
1/2+x,1/2+y,1/2+z
1/2-x,1/2-y,1/2+z
1/2+x,1/2-y,-z
1/2-x,1/2+y,-z
1/2-x,1/2-y,1/2-z
1/2+x,1/2+y,1/2-z
1/2-x,1/2+y,z
1/2+x,1/2-y,z
loop_
_atom_site_type_symbol
_atom_site_label
_atom_site_fract_x
_atom_site_fract_y
_atom_site_fract_z
Si Si1 0.099254 0.884251 0.170873
Si Si2 0.338401 0.294888 0.741681
Si Si3 0.364777 0.943420 0.400014
Si Si4 0.816661 0.454215 0.600428
Si Si5 0.675211 0.360347 0.905943
O O1 0.177410 0.837182 0.194346
O O2 0.204644 0.923021 0.144808
O O3 0.000000 0.894543 0.250000
O O4 0.984914 0.875335 0.100709
O O5 0.500000 0.282935 0.750000
O O6 0.250000 0.250000 0.750000
O O7 0.309963 0.317522 0.653195
O O8 0.361992 0.943883 0.500000
O O9 0.526116 0.939851 0.377194
O O10 0.270944 0.901500 0.373351
O O11 0.307058 0.992714 0.375167
O O12 0.802747 0.450952 0.500000
O O13 0.712856 0.350850 0.000000
#
# Coordination Sequence:
#
# PCOD9529477 Si02
#       5
#    16  16  16  16  16
#     4   9  19  33  49  71 100 132 165 204 248 295
#     4   9  20  37  52  69  96 127 159 204 258 302
#     4   8  16  29  49  76 103 129 165 205 241 282
#     4   9  16  30  50  74 103 135 167 203 242 287
#     4   9  17  33  53  74  98 128 165 205 244 294
#
# _framework density 17.333856999999998
#
# number of rings (size 3 to 8) (size 9 to 14) (size 15 to 20)
#    0.000    3.600    0.000    1.800    0.000    2.400 
#    0.000   19.000    0.000    9.600    0.000    0.000 
#    0.000    0.000    0.000    0.000    0.000    0.000 
#
# Total GULP energy -222715.864255 kJ/mol
# GULP energy per Si atom -5567.896606 kJ/mol
# Density = 1.729440 g / cm^3
# Si number density = 17.333857 Si / 1000 Ang^3
#
#
#
# Elastic Constant Matrix: (Units=GPa)
#
#
# Indices 1 2 3 4 5 6 
#
# 1 85.0133 108.4108 36.8736 0.0000 0.0000 0.0000
# 2 108.4108 163.0228 56.5531 0.0000 0.0000 0.0000
# 3 36.8736 56.5531 48.0342 0.0000 0.0000 0.0000
# 4 0.0000 0.0000 0.0000 12.5071 0.0000 0.0000
# 5 0.0000 0.0000 0.0000 0.0000 16.5492 0.0000
# 6 0.0000 0.0000 0.0000 0.0000 0.0000 48.1512
#
#
#
# Elastic Compliance Matrix: (Units=1/GPa)
#
#
# Indices 1 2 3 4 5 6 
#
# 1 0.077515 -0.052243 0.002004 0.000000 0.000000 0.000000
# 2 -0.052243 0.045579 -0.013558 0.000000 0.000000 0.000000
# 3 0.002004 -0.013558 0.035244 0.000000 0.000000 0.000000
# 4 0.000000 0.000000 0.000000 0.079955 0.000000 0.000000
# 5 0.000000 0.000000 0.000000 0.000000 0.060426 0.000000
# 6 0.000000 0.000000 0.000000 0.000000 0.000000 0.020768
#
#
# Mechanical properties :
#
#
# Convention : Reuss Voigt Hill
#
# Bulk Modulus (GPa) = 32.52839 77.74949 55.13894
# Shear Modulus (GPa) = 10.93302 21.72369 16.32836
#
# Velocity S-wave (km/s) = 2.51416 3.54397 3.07252
# Velocity P-wave (km/s) = 5.21868 7.85479 6.66830
#
# Compressibility (1/GPa) = 0.03074237
#
# Stress axis : x y z
#
# Youngs Moduli (GPa) = 12.90068 21.93972 28.37396
#
# Poissons Ratio (x) = 1.14620 -0.05685
# Poissons Ratio (y) = 0.67397 0.38471
# Poissons Ratio (z) = -0.02585 0.29747
#
# Static dielectric constant tensor:
#      x y z
#    x 1.587070 0.000000 0.000000 
#    y 0.000000 1.573490 0.000000 
#    z 0.000000 0.000000 1.630770 
# 
# From -- ./inp_files/28120.got.cif
#   From: 2010.05.17/outbox.cif.g08.bks.cpg/sg72_15_cif.got.tgz:28120.got - 2010.06.03 17:03:01.
