data_PCOD9529798
_publ_section_title
;
Structure prediction by ZEFSAII (Michael W. Deem and Ramdas Pophale) SiO2 
 PCOD9529798
Probable space group: I B C A 
;
_chemical_formula_sum "Si O2"
_cell_formula_units_Z 104
_cell_length_a 14.919084
_cell_length_b 20.887310
_cell_length_c 19.041998
_cell_angle_alpha 90.000000
_cell_angle_beta 90.000000
_cell_angle_gamma 90.000000
_cell_volume 5933.858513
_symmetry_space_group_name_H-M "I B C A "
_symmetry_group_IT_number 73
_symmetry_cell_setting 'orthorhombic'
loop_
_space_group_symop_operation_xyz
x,y,z
-x,1/2-y,z
x,-y,1/2-z
1/2-x,y,-z
-x,-y,-z
x,1/2+y,-z
-x,y,1/2+z
1/2+x,-y,z
1/2+x,1/2+y,1/2+z
1/2-x,-y,1/2+z
1/2+x,1/2-y,-z
-x,1/2+y,1/2-z
1/2-x,1/2-y,1/2-z
1/2+x,y,1/2-z
1/2-x,1/2+y,z
x,1/2-y,1/2+z
loop_
_atom_site_type_symbol
_atom_site_label
_atom_site_fract_x
_atom_site_fract_y
_atom_site_fract_z
Si Si1 0.967570 0.495348 0.580202
Si Si2 0.112699 0.363683 0.051584
Si Si3 0.677157 0.286276 0.062648
Si Si4 0.856385 0.981346 0.669212
Si Si5 0.685196 0.352208 0.602235
Si Si6 0.282433 0.930770 0.418898
Si Si7 0.000000 0.750000 0.984321
O O1 0.935524 0.422707 0.586712
O O2 0.881182 0.539941 0.589317
O O3 0.000000 0.500000 0.500000
O O4 0.047542 0.509362 0.632843
O O5 0.211938 0.359877 0.080787
O O6 0.125540 0.369735 0.966851
O O7 0.055402 0.300179 0.060936
O O8 0.673500 0.223957 0.112820
O O9 0.708137 0.354251 0.093863
O O10 0.576785 0.287413 0.029148
O O11 0.750000 0.271955 0.000000
O O12 0.833816 0.906143 0.659259
O O13 0.856953 0.000000 0.750000
O O14 0.785907 0.027393 0.627865
O O15 0.250000 0.937758 0.500000
#
# Coordination Sequence:
#
# PCOD9529798 Si02
#       7
#    16  16  16  16  16  16   8
#     4  12  21  35  63  93 118 156 210 256 306 358
#     4  10  18  31  59  89 118 154 194 251 299 362
#     4  10  20  32  57  95 126 150 199 259 306 359
#     4  12  27  42  60  89 128 167 208 258 310 367
#     4  10  18  38  57  85 122 160 197 239 310 366
#     4  11  22  39  64  96 123 156 210 261 308 364
#     4  10  18  30  52  94 132 142 186 258 326 338
#
# _framework density 17.526537999999999
#
# number of rings (size 3 to 8) (size 9 to 14) (size 15 to 20)
#    0.000    1.231    7.692    0.923    4.308    0.615 
#    0.000    0.769    0.000    0.000    4.000    0.000 
#    0.000    0.000    0.000    0.000    0.000    0.000 
#
# Total GULP energy -289926.337768 kJ/mol
# GULP energy per Si atom -5575.506496 kJ/mol
# Density = 1.748665 g / cm^3
# Si number density = 17.526538 Si / 1000 Ang^3
#
#
#
# Elastic Constant Matrix: (Units=GPa)
#
#
# Indices 1 2 3 4 5 6 
#
# 1 117.2534 52.3504 40.0621 0.0000 0.0000 0.0000
# 2 52.3504 156.2280 49.0805 0.0000 0.0000 0.0000
# 3 40.0621 49.0805 83.2113 0.0000 0.0000 0.0000
# 4 0.0000 0.0000 0.0000 15.1861 0.0000 0.0000
# 5 0.0000 0.0000 0.0000 0.0000 12.0402 0.0000
# 6 0.0000 0.0000 0.0000 0.0000 0.0000 28.4220
#
#
#
# Elastic Compliance Matrix: (Units=1/GPa)
#
#
# Indices 1 2 3 4 5 6 
#
# 1 0.010931 -0.002467 -0.003808 0.000000 0.000000 0.000000
# 2 -0.002467 0.008413 -0.003775 0.000000 0.000000 0.000000
# 3 -0.003808 -0.003775 0.016077 0.000000 0.000000 0.000000
# 4 0.000000 0.000000 0.000000 0.065850 0.000000 0.000000
# 5 0.000000 0.000000 0.000000 0.000000 0.083055 0.000000
# 6 0.000000 0.000000 0.000000 0.000000 0.000000 0.035184
#
#
# Mechanical properties :
#
#
# Convention : Reuss Voigt Hill
#
# Bulk Modulus (GPa) = 65.26121 71.07543 68.16832
# Shear Modulus (GPa) = 20.43179 25.47630 22.95404
#
# Velocity S-wave (km/s) = 3.41803 3.81673 3.62287
# Velocity P-wave (km/s) = 7.27281 7.75011 7.51525
#
# Compressibility (1/GPa) = 0.01532304
#
# Stress axis : x y z
#
# Youngs Moduli (GPa) = 91.48463 118.85880 62.19904
#
# Poissons Ratio (x) = 0.29317 0.23684
# Poissons Ratio (y) = 0.22565 0.23480
# Poissons Ratio (z) = 0.34835 0.44868
#
# Static dielectric constant tensor:
#      x y z
#    x 1.579590 0.000000 0.000000 
#    y 0.000000 1.654450 0.000000 
#    z 0.000000 0.000000 1.565410 
# 
# From -- ./inp_files/22086.got.cif
#   From: 2010.05.17/outbox.cif.g08.bks.cpg/sg73_12_cif.got.tgz:22086.got - 2010.06.03 17:35:07.
