data_PCOD9529008
_publ_section_title
;
Structure prediction by ZEFSAII (Michael W. Deem and Ramdas Pophale) SiO2 
 PCOD9529008
Probable space group: I B A M
;
_chemical_formula_sum "Si O2"
_cell_formula_units_Z 104
_cell_length_a 23.398941
_cell_length_b 8.668190
_cell_length_c 28.007001
_cell_angle_alpha 90.000000
_cell_angle_beta 90.000000
_cell_angle_gamma 90.000000
_cell_volume 5680.561047
_symmetry_space_group_name_H-M "I B A M"
_symmetry_group_IT_number 72
_symmetry_cell_setting 'orthorhombic'
loop_
_space_group_symop_operation_xyz
x,y,z
-x,-y,z
x,-y,1/2-z
-x,y,1/2-z
-x,-y,-z
x,y,-z
-x,y,1/2+z
x,-y,1/2+z
1/2+x,1/2+y,1/2+z
1/2-x,1/2-y,1/2+z
1/2+x,1/2-y,-z
1/2-x,1/2+y,-z
1/2-x,1/2-y,1/2-z
1/2+x,1/2+y,1/2-z
1/2-x,1/2+y,z
1/2+x,1/2-y,z
loop_
_atom_site_type_symbol
_atom_site_label
_atom_site_fract_x
_atom_site_fract_y
_atom_site_fract_z
Si Si1 0.710786 0.983412 0.691910
Si Si2 0.025607 0.324055 0.445068
Si Si3 0.571299 0.273262 0.119010
Si Si4 0.606002 0.076098 0.633323
Si Si5 0.906752 0.000000 0.750000
Si Si6 0.479040 0.240657 0.799763
Si Si7 0.828167 0.136818 0.327380
O O1 0.696260 0.808631 0.677866
O O2 0.705247 0.000000 0.750000
O O3 0.666550 0.087371 0.660522
O O4 0.774679 0.023773 0.675609
O O5 0.037816 0.289597 0.500000
O O6 0.082220 0.323833 0.411537
O O7 0.000000 0.500000 0.442377
O O8 0.974724 0.217162 0.423660
O O9 0.531113 0.281734 0.165675
O O10 0.627051 0.377726 0.128528
O O11 0.597147 0.100588 0.117837
O O12 0.560032 0.119222 0.673428
O O13 0.943908 0.893023 0.715137
O O14 0.866258 0.891554 0.780781
O O15 0.500000 0.176418 0.750000
#
# Coordination Sequence:
#
# PCOD9529008 Si02
#       7
#    16  16  16  16   8  16  16
#     4  11  22  35  50  71 103 150 183 223 257 309
#     4   8  14  30  55  80 106 131 164 218 277 331
#     4   9  19  33  48  79 105 134 172 219 267 325
#     4   9  20  32  49  78 105 134 182 211 266 319
#     4  12  23  34  44  70 102 146 187 216 262 318
#     4  11  20  30  47  69 105 136 171 210 258 317
#     4  11  23  35  50  68 105 138 191 221 253 311
#
# _framework density 18.308050999999999
#
# number of rings (size 3 to 8) (size 9 to 14) (size 15 to 20)
#    0.000    2.000    2.308    3.000    4.308    0.615 
#    0.000    0.000    0.000    0.923    0.000    8.615 
#    0.000    0.000    0.000    0.000    0.000    0.000 
#
# Total GULP energy -289719.506583 kJ/mol
# GULP energy per Si atom -5571.528973 kJ/mol
# Density = 1.826638 g / cm^3
# Si number density = 18.308051 Si / 1000 Ang^3
#
#
#
# Elastic Constant Matrix: (Units=GPa)
#
#
# Indices 1 2 3 4 5 6 
#
# 1 114.6393 10.3976 40.2136 0.0000 0.0000 0.0000
# 2 10.3976 21.4877 -0.5731 0.0000 0.0000 0.0000
# 3 40.2136 -0.5731 109.4331 0.0000 0.0000 0.0000
# 4 0.0000 0.0000 0.0000 5.8799 0.0000 0.0000
# 5 0.0000 0.0000 0.0000 0.0000 13.1241 0.0000
# 6 0.0000 0.0000 0.0000 0.0000 0.0000 44.2527
#
#
#
# Elastic Compliance Matrix: (Units=1/GPa)
#
#
# Indices 1 2 3 4 5 6 
#
# 1 0.010568 -0.005218 -0.003911 0.000000 0.000000 0.000000
# 2 -0.005218 0.049121 0.002175 0.000000 0.000000 0.000000
# 3 -0.003911 0.002175 0.010587 0.000000 0.000000 0.000000
# 4 0.000000 0.000000 0.000000 0.170070 0.000000 0.000000
# 5 0.000000 0.000000 0.000000 0.000000 0.076196 0.000000
# 6 0.000000 0.000000 0.000000 0.000000 0.000000 0.022598
#
#
# Mechanical properties :
#
#
# Convention : Reuss Voigt Hill
#
# Bulk Modulus (GPa) = 17.74072 38.40402 28.07237
# Shear Modulus (GPa) = 13.44676 25.68615 19.56646
#
# Velocity S-wave (km/s) = 2.71306 3.74972 3.27270
# Velocity P-wave (km/s) = 4.41875 6.30629 5.44494
#
# Compressibility (1/GPa) = 0.05636750
#
# Stress axis : x y z
#
# Youngs Moduli (GPa) = 94.62410 20.35784 94.45987
#
# Poissons Ratio (x) = 0.10623 0.36942
# Poissons Ratio (y) = 0.49375 -0.20543
# Poissons Ratio (z) = 0.37006 -0.04427
#
# Static dielectric constant tensor:
#      x y z
#    x 1.665590 0.000000 0.000000 
#    y 0.000000 1.684960 0.000000 
#    z 0.000000 0.000000 1.626080 
# 
# From -- ./inp_files/49683.got.cif
#   From: 2010.05.17/outbox.cif.g08.bks.cpg/sg72_25_cif.got.tgz:49683.got - 2010.06.03 17:03:01.
