data_PCOD9529441
_publ_section_title
;
Structure prediction by ZEFSAII (Michael W. Deem and Ramdas Pophale) SiO2 
 PCOD9529441
Probable space group: I B A M
;
_chemical_formula_sum "Si O2"
_cell_formula_units_Z 64
_cell_length_a 9.135832
_cell_length_b 19.962832
_cell_length_c 15.693914
_cell_angle_alpha 90.000000
_cell_angle_beta 90.000000
_cell_angle_gamma 90.000000
_cell_volume 2862.210200
_symmetry_space_group_name_H-M "I B A M"
_symmetry_group_IT_number 72
_symmetry_cell_setting 'orthorhombic'
loop_
_space_group_symop_operation_xyz
x,y,z
-x,-y,z
x,-y,1/2-z
-x,y,1/2-z
-x,-y,-z
x,y,-z
-x,y,1/2+z
x,-y,1/2+z
1/2+x,1/2+y,1/2+z
1/2-x,1/2-y,1/2+z
1/2+x,1/2-y,-z
1/2-x,1/2+y,-z
1/2-x,1/2-y,1/2-z
1/2+x,1/2+y,1/2-z
1/2-x,1/2+y,z
1/2+x,1/2-y,z
loop_
_atom_site_type_symbol
_atom_site_label
_atom_site_fract_x
_atom_site_fract_y
_atom_site_fract_z
Si Si1 0.184770 0.570621 0.149367
Si Si2 0.147227 0.418360 0.144657
Si Si3 0.590214 0.320460 0.837809
Si Si4 0.705116 0.282194 0.593956
O O1 0.195007 0.493520 0.120518
O O2 0.168215 0.578808 0.252474
O O3 0.328206 0.613311 0.128563
O O4 0.022887 0.593156 0.120024
O O5 0.238001 0.357441 0.108009
O O6 0.500000 0.332718 0.750000
O O7 0.467816 0.286836 0.895964
O O8 0.721115 0.266741 0.837824
O O9 0.742782 0.257555 0.500000
#
# Coordination Sequence:
#
# PCOD9529441 Si02
#       4
#    16  16  16  16
#     4   9  19  38  66  97 120 165 217 268 315 384
#     4   9  19  39  65  93 130 161 210 265 325 391
#     4  12  24  41  66  95 127 172 230 275 317 390
#     4  12  26  42  60  93 135 173 213 275 341 393
#
# _framework density 22.360343
#
# number of rings (size 3 to 8) (size 9 to 14) (size 15 to 20)
#    0.000    1.500    2.500    4.500    3.500    1.000 
#    0.000    7.500    0.000    0.000    0.000    0.000 
#    0.000    0.000    0.000    0.000    0.000    0.000 
#
# Total GULP energy -178613.120347 kJ/mol
# GULP energy per Si atom -5581.660011 kJ/mol
# Density = 2.230945 g / cm^3
# Si number density = 22.360343 Si / 1000 Ang^3
#
#
#
# Elastic Constant Matrix: (Units=GPa)
#
#
# Indices 1 2 3 4 5 6 
#
# 1 100.6508 39.4325 -16.1078 0.0000 0.0000 0.0000
# 2 39.4325 62.4657 -10.3743 0.0000 0.0000 0.0000
# 3 -16.1078 -10.3743 21.8905 0.0000 0.0000 0.0000
# 4 0.0000 0.0000 0.0000 -10.7495 0.0000 0.0000
# 5 0.0000 0.0000 0.0000 0.0000 20.1869 0.0000
# 6 0.0000 0.0000 0.0000 0.0000 0.0000 50.2244
#
#
#
# Elastic Compliance Matrix: (Units=1/GPa)
#
#
# Indices 1 2 3 4 5 6 
#
# 1 0.014039 -0.007758 0.006654 0.000000 0.000000 0.000000
# 2 -0.007758 0.021663 0.004558 0.000000 0.000000 0.000000
# 3 0.006654 0.004558 0.052739 0.000000 0.000000 0.000000
# 4 0.000000 0.000000 0.000000 -0.093028 0.000000 0.000000
# 5 0.000000 0.000000 0.000000 0.000000 0.049537 0.000000
# 6 0.000000 0.000000 0.000000 0.000000 0.000000 0.019911
#
#
# Mechanical properties :
#
#
# Convention : Reuss Voigt Hill
#
# Bulk Modulus (GPa) = 10.48754 23.43418 16.96086
# Shear Modulus (GPa) = 55.71993 23.40280 39.56136
#
# Velocity S-wave (km/s) = 4.99732 3.23866 4.21083
# Velocity P-wave (km/s) = 6.16425 4.94856 5.58955
#
# Compressibility (1/GPa) = 0.09535121
#
# Stress axis : x y z
#
# Youngs Moduli (GPa) = 71.22766 46.16189 18.96139
#
# Poissons Ratio (x) = 0.35810 -0.12618
# Poissons Ratio (y) = 0.55255 -0.08643
# Poissons Ratio (z) = -0.47397 -0.21042
#
# Static dielectric constant tensor:
#      x y z
#    x 1.808260 0.000000 0.000000 
#    y 0.000000 1.815350 0.000000 
#    z 0.000000 0.000000 1.869140 
# 
# From -- ./inp_files/27654.got.cif
#   From: 2010.05.17/outbox.cif.g08.bks.cpg/sg72_14_cif.got.tgz:27654.got - 2010.06.03 17:03:01.
