data_PCOD9529988
_publ_section_title
;
Structure prediction by ZEFSAII (Michael W. Deem and Ramdas Pophale) SiO2 
 PCOD9529988
Probable space group: I B C A 
;
_chemical_formula_sum "Si O2"
_cell_formula_units_Z 104
_cell_length_a 19.370523
_cell_length_b 15.296868
_cell_length_c 16.338432
_cell_angle_alpha 90.000000
_cell_angle_beta 90.000000
_cell_angle_gamma 90.000000
_cell_volume 4841.213557
_symmetry_space_group_name_H-M "I B C A "
_symmetry_group_IT_number 73
_symmetry_cell_setting 'orthorhombic'
loop_
_space_group_symop_operation_xyz
x,y,z
-x,1/2-y,z
x,-y,1/2-z
1/2-x,y,-z
-x,-y,-z
x,1/2+y,-z
-x,y,1/2+z
1/2+x,-y,z
1/2+x,1/2+y,1/2+z
1/2-x,-y,1/2+z
1/2+x,1/2-y,-z
-x,1/2+y,1/2-z
1/2-x,1/2-y,1/2-z
1/2+x,y,1/2-z
1/2-x,1/2+y,z
x,1/2-y,1/2+z
loop_
_atom_site_type_symbol
_atom_site_label
_atom_site_fract_x
_atom_site_fract_y
_atom_site_fract_z
Si Si1 0.356192 0.072178 0.431215
Si Si2 0.413935 0.998218 0.911025
Si Si3 0.269258 0.980356 0.843140
Si Si4 0.750000 0.213884 0.000000
Si Si5 0.948492 0.687224 0.170888
Si Si6 0.527948 0.914314 0.692196
Si Si7 0.294383 0.773598 0.829383
O O1 0.403522 0.018081 0.493503
O O2 0.296747 0.007248 0.399349
O O3 0.315667 0.150781 0.477525
O O4 0.401226 0.106103 0.354978
O O5 0.339530 0.024564 0.873209
O O6 0.432107 0.902868 0.874614
O O7 0.471893 0.061819 0.877327
O O8 0.282609 0.876583 0.844702
O O9 0.253690 0.000000 0.750000
O O10 0.730540 0.265432 0.083255
O O11 0.875941 0.735578 0.186107
O O12 0.000000 0.750000 0.121904
O O13 0.991994 0.657279 0.250455
O O14 0.538501 0.000000 0.750000
O O15 0.250000 0.750000 0.750000
#
# Coordination Sequence:
#
# PCOD9529988 Si02
#       7
#    16  16  16   8  16  16  16
#     4  11  18  35  57  89 110 153 195 244 291 356
#     4  10  18  38  57  81 114 153 189 240 297 346
#     4  10  19  34  62  85 113 148 200 240 292 352
#     4  10  20  38  64  86 116 158 210 236 300 366
#     4  10  21  37  57  85 115 155 195 239 297 352
#     4  10  22  35  58  85 118 149 197 241 297 357
#     4  10  21  39  65  84 117 161 199 244 300 356
#
# _framework density 21.482216999999999
#
# number of rings (size 3 to 8) (size 9 to 14) (size 15 to 20)
#    0.000    1.846    4.615    3.231    4.308    0.000 
#    0.000    2.308    6.769    0.000    0.000    0.000 
#    0.000    0.000    0.000    0.000    0.000    0.000 
#
# Total GULP energy -290152.645688 kJ/mol
# GULP energy per Si atom -5579.858571 kJ/mol
# Density = 2.143332 g / cm^3
# Si number density = 21.482217 Si / 1000 Ang^3
#
#
#
# Elastic Constant Matrix: (Units=GPa)
#
#
# Indices 1 2 3 4 5 6 
#
# 1 119.3970 15.6241 48.0141 0.0000 0.0000 0.0000
# 2 15.6241 18.9683 6.3137 0.0000 0.0000 0.0000
# 3 48.0141 6.3137 121.3389 0.0000 0.0000 0.0000
# 4 0.0000 0.0000 0.0000 15.1616 0.0000 0.0000
# 5 0.0000 0.0000 0.0000 0.0000 52.8505 0.0000
# 6 0.0000 0.0000 0.0000 0.0000 0.0000 10.0717
#
#
#
# Elastic Compliance Matrix: (Units=1/GPa)
#
#
# Indices 1 2 3 4 5 6 
#
# 1 0.010970 -0.007725 -0.003939 0.000000 0.000000 0.000000
# 2 -0.007725 0.059088 -0.000018 0.000000 0.000000 0.000000
# 3 -0.003939 -0.000018 0.009801 0.000000 0.000000 0.000000
# 4 0.000000 0.000000 0.000000 0.065956 0.000000 0.000000
# 5 0.000000 0.000000 0.000000 0.000000 0.018921 0.000000
# 6 0.000000 0.000000 0.000000 0.000000 0.000000 0.099288
#
#
# Mechanical properties :
#
#
# Convention : Reuss Voigt Hill
#
# Bulk Modulus (GPa) = 17.70036 44.40091 31.05063
# Shear Modulus (GPa) = 16.32808 28.26691 22.29750
#
# Velocity S-wave (km/s) = 2.75994 3.63137 3.22522
# Velocity P-wave (km/s) = 4.29112 6.18838 5.32493
#
# Compressibility (1/GPa) = 0.05649602
#
# Stress axis : x y z
#
# Youngs Moduli (GPa) = 91.15485 16.92379 102.03055
#
# Poissons Ratio (x) = 0.13074 0.40190
# Poissons Ratio (y) = 0.70418 0.00181
# Poissons Ratio (z) = 0.35906 0.00030
#
# Static dielectric constant tensor:
#      x y z
#    x 1.812830 0.000000 0.000000 
#    y 0.000000 1.793390 0.000000 
#    z 0.000000 0.000000 1.835900 
# 
# From -- ./inp_files/22621.got.cif
#   From: 2010.05.17/outbox.cif.g08.bks.cpg/sg73_12_cif.got.tgz:22621.got - 2010.06.03 17:35:07.
