data_PCOD9529345
_publ_section_title
;
Structure prediction by ZEFSAII (Michael W. Deem and Ramdas Pophale) SiO2 
 PCOD9529345
Probable space group: I B A M
;
_chemical_formula_sum "Si O2"
_cell_formula_units_Z 36
_cell_length_a 9.694770
_cell_length_b 7.893412
_cell_length_c 20.422671
_cell_angle_alpha 90.000000
_cell_angle_beta 90.000000
_cell_angle_gamma 90.000000
_cell_volume 1562.841097
_symmetry_space_group_name_H-M "I B A M"
_symmetry_group_IT_number 72
_symmetry_cell_setting 'orthorhombic'
loop_
_space_group_symop_operation_xyz
x,y,z
-x,-y,z
x,-y,1/2-z
-x,y,1/2-z
-x,-y,-z
x,y,-z
-x,y,1/2+z
x,-y,1/2+z
1/2+x,1/2+y,1/2+z
1/2-x,1/2-y,1/2+z
1/2+x,1/2-y,-z
1/2-x,1/2+y,-z
1/2-x,1/2-y,1/2-z
1/2+x,1/2+y,1/2-z
1/2-x,1/2+y,z
1/2+x,1/2-y,z
loop_
_atom_site_type_symbol
_atom_site_label
_atom_site_fract_x
_atom_site_fract_y
_atom_site_fract_z
Si Si1 0.690904 0.556042 0.175868
Si Si2 0.500000 0.000000 0.500000
Si Si3 0.448669 0.232771 0.626377
O O1 0.667491 0.500000 0.250000
O O2 0.639662 0.408637 0.126575
O O3 0.590164 0.713585 0.161045
O O4 0.847630 0.608357 0.165435
O O5 0.476897 0.145556 0.557472
#
# Coordination Sequence:
#
# PCOD9529345 Si02
#       3
#    16   4  16
#     4  11  25  47  77 112 143 187 247 307 371 422
#     4  12  28  46  70 104 144 194 240 280 360 434
#     4  11  25  45  73 105 147 192 236 300 355 434
#
# _framework density 23.034970999999999
#
# number of rings (size 3 to 8) (size 9 to 14) (size 15 to 20)
#    0.000    0.889    0.000    6.667    0.000   14.222 
#    0.000    4.444    0.000    0.000    0.000    0.000 
#    0.000    0.000    0.000    0.000    0.000    0.000 
#
# Total GULP energy -100209.483424 kJ/mol
# GULP energy per Si atom -5567.193524 kJ/mol
# Density = 2.298254 g / cm^3
# Si number density = 23.034971 Si / 1000 Ang^3
#
#
#
# Elastic Constant Matrix: (Units=GPa)
#
#
# Indices 1 2 3 4 5 6 
#
# 1 120.3068 55.0884 92.2353 0.0000 0.0000 0.0000
# 2 55.0884 171.3683 98.7903 0.0000 0.0000 0.0000
# 3 92.2353 98.7903 227.4953 0.0000 0.0000 0.0000
# 4 0.0000 0.0000 0.0000 38.5350 0.0000 0.0000
# 5 0.0000 0.0000 0.0000 0.0000 0.4460 0.0000
# 6 0.0000 0.0000 0.0000 0.0000 0.0000 44.0104
#
#
#
# Elastic Compliance Matrix: (Units=1/GPa)
#
#
# Indices 1 2 3 4 5 6 
#
# 1 0.012323 -0.001442 -0.004370 0.000000 0.000000 0.000000
# 2 -0.001442 0.007953 -0.002869 0.000000 0.000000 0.000000
# 3 -0.004370 -0.002869 0.007413 0.000000 0.000000 0.000000
# 4 0.000000 0.000000 0.000000 0.025950 0.000000 0.000000
# 5 0.000000 0.000000 0.000000 0.000000 2.242225 0.000000
# 6 0.000000 0.000000 0.000000 0.000000 0.000000 0.022722
#
#
# Mechanical properties :
#
#
# Convention : Reuss Voigt Hill
#
# Bulk Modulus (GPa) = 96.83312 112.37763 104.60538
# Shear Modulus (GPa) = 2.13731 34.80204 18.46967
#
# Velocity S-wave (km/s) = 0.96430 3.89116 2.83470
# Velocity P-wave (km/s) = 6.58548 8.31142 7.49828
#
# Compressibility (1/GPa) = 0.01032704
#
# Stress axis : x y z
#
# Youngs Moduli (GPa) = 81.15152 125.74197 134.89503
#
# Poissons Ratio (x) = 0.18134 0.58947
# Poissons Ratio (y) = 0.11703 0.38699
# Poissons Ratio (z) = 0.35462 0.36073
#
# Static dielectric constant tensor:
#      x y z
#    x 1.890810 0.000000 0.000000 
#    y 0.000000 1.961770 0.000000 
#    z 0.000000 0.000000 1.748210 
# 
# From -- ./inp_files/35000.got.cif
#   From: 2010.05.17/outbox.cif.g08.bks.cpg/sg72_18_cif.got.tgz:35000.got - 2010.06.03 17:03:01.
