data_PCOD9529192
_publ_section_title
;
Structure prediction by ZEFSAII (Michael W. Deem and Ramdas Pophale) SiO2 
 PCOD9529192
Probable space group: I B A M
;
_chemical_formula_sum "Si O2"
_cell_formula_units_Z 72
_cell_length_a 26.707864
_cell_length_b 9.141486
_cell_length_c 14.888199
_cell_angle_alpha 90.000000
_cell_angle_beta 90.000000
_cell_angle_gamma 90.000000
_cell_volume 3634.947307
_symmetry_space_group_name_H-M "I B A M"
_symmetry_group_IT_number 72
_symmetry_cell_setting 'orthorhombic'
loop_
_space_group_symop_operation_xyz
x,y,z
-x,-y,z
x,-y,1/2-z
-x,y,1/2-z
-x,-y,-z
x,y,-z
-x,y,1/2+z
x,-y,1/2+z
1/2+x,1/2+y,1/2+z
1/2-x,1/2-y,1/2+z
1/2+x,1/2-y,-z
1/2-x,1/2+y,-z
1/2-x,1/2-y,1/2-z
1/2+x,1/2+y,1/2-z
1/2-x,1/2+y,z
1/2+x,1/2-y,z
loop_
_atom_site_type_symbol
_atom_site_label
_atom_site_fract_x
_atom_site_fract_y
_atom_site_fract_z
Si Si1 0.205324 0.367607 0.601627
Si Si2 0.556037 0.259743 0.241797
Si Si3 0.579305 0.510679 0.103071
Si Si4 0.306883 0.472590 0.855838
Si Si5 0.866570 0.500000 0.750000
O O1 0.187113 0.382216 0.500000
O O2 0.261218 0.430713 0.609062
O O3 0.205005 0.197195 0.627201
O O4 0.169428 0.454978 0.668510
O O5 0.500000 0.199115 0.250000
O O6 0.557120 0.374833 0.159316
O O7 0.568431 0.349501 0.333272
O O8 0.597751 0.136900 0.228466
O O9 0.639367 0.491998 0.102699
O O10 0.561972 0.523378 0.000000
O O11 0.311566 0.500000 0.750000
#
# Coordination Sequence:
#
# PCOD9529192 Si02
#       5
#    16  16  16  16   8
#     4  12  26  42  65  99 137 176 217 266 323 395
#     4  11  25  44  67  95 125 168 223 275 330 389
#     4  11  22  42  69  97 129 166 214 271 327 390
#     4  12  23  43  66  98 134 173 216 262 323 392
#     4  12  25  44  66  92 136 176 215 272 332 394
#
# _framework density 19.807715000000002
#
# number of rings (size 3 to 8) (size 9 to 14) (size 15 to 20)
#    0.000    0.444    5.556    4.333    3.111    2.667 
#    0.000    0.000    0.000    4.000    0.000    0.000 
#    0.000    0.000    0.000    0.000    0.000    0.000 
#
# Total GULP energy -201438.127112 kJ/mol
# GULP energy per Si atom -5595.503531 kJ/mol
# Density = 1.976263 g / cm^3
# Si number density = 19.807715 Si / 1000 Ang^3
#
#
#
# Elastic Constant Matrix: (Units=GPa)
#
#
# Indices 1 2 3 4 5 6 
#
# 1 116.7632 11.2000 5.6785 0.0000 0.0000 0.0000
# 2 11.2000 47.5412 24.2198 0.0000 0.0000 0.0000
# 3 5.6785 24.2198 154.8269 0.0000 0.0000 0.0000
# 4 0.0000 0.0000 0.0000 -9.6296 0.0000 0.0000
# 5 0.0000 0.0000 0.0000 0.0000 10.1788 0.0000
# 6 0.0000 0.0000 0.0000 0.0000 0.0000 -10.6564
#
#
#
# Elastic Compliance Matrix: (Units=1/GPa)
#
#
# Indices 1 2 3 4 5 6 
#
# 1 0.008762 -0.002065 0.000002 0.000000 0.000000 0.000000
# 2 -0.002065 0.023343 -0.003576 0.000000 0.000000 0.000000
# 3 0.000002 -0.003576 0.007018 0.000000 0.000000 0.000000
# 4 0.000000 0.000000 0.000000 -0.103847 0.000000 0.000000
# 5 0.000000 0.000000 0.000000 0.000000 0.098243 0.000000
# 6 0.000000 0.000000 0.000000 0.000000 0.000000 -0.093841
#
#
# Mechanical properties :
#
#
# Convention : Reuss Voigt Hill
#
# Bulk Modulus (GPa) = 35.91361 44.59199 40.25280
# Shear Modulus (GPa) = -125.75118 16.51411 -54.61854
#
# Velocity S-wave (km/s) = -7.97645 2.89056 -5.25683
# Velocity P-wave (km/s) = 8.16463 5.80532 4.05953
#
# Compressibility (1/GPa) = 0.02784460
#
# Stress axis : x y z
#
# Youngs Moduli (GPa) = 114.12463 42.84019 142.48810
#
# Poissons Ratio (x) = 0.08847 -0.00024
# Poissons Ratio (y) = 0.23568 0.50951
# Poissons Ratio (z) = -0.00019 0.15319
#
# Static dielectric constant tensor:
#      x y z
#    x 1.696670 0.000000 0.000000 
#    y 0.000000 1.663570 0.000000 
#    z 0.000000 0.000000 1.693570 
# 
# From -- ./inp_files/18865.got.cif
#   From: 2010.05.17/outbox.cif.g08.bks.cpg/sg72_10_cif.got.tgz:18865.got - 2010.06.03 17:03:01.
