data_PCOD9529857
_publ_section_title
;
Structure prediction by ZEFSAII (Michael W. Deem and Ramdas Pophale) SiO2 
 PCOD9529857
Probable space group: I B C A 
;
_chemical_formula_sum "Si O2"
_cell_formula_units_Z 96
_cell_length_a 19.558524
_cell_length_b 15.137316
_cell_length_c 14.943362
_cell_angle_alpha 90.000000
_cell_angle_beta 90.000000
_cell_angle_gamma 90.000000
_cell_volume 4424.184926
_symmetry_space_group_name_H-M "I B C A "
_symmetry_group_IT_number 73
_symmetry_cell_setting 'orthorhombic'
loop_
_space_group_symop_operation_xyz
x,y,z
-x,1/2-y,z
x,-y,1/2-z
1/2-x,y,-z
-x,-y,-z
x,1/2+y,-z
-x,y,1/2+z
1/2+x,-y,z
1/2+x,1/2+y,1/2+z
1/2-x,-y,1/2+z
1/2+x,1/2-y,-z
-x,1/2+y,1/2-z
1/2-x,1/2-y,1/2-z
1/2+x,y,1/2-z
1/2-x,1/2+y,z
x,1/2-y,1/2+z
loop_
_atom_site_type_symbol
_atom_site_label
_atom_site_fract_x
_atom_site_fract_y
_atom_site_fract_z
Si Si1 0.634347 0.893861 0.249117
Si Si2 0.273353 0.888263 0.902740
Si Si3 0.362624 0.416398 0.817493
Si Si4 0.566486 0.036512 0.547852
Si Si5 0.983939 0.347092 0.787567
Si Si6 0.691568 0.404313 0.934398
O O1 0.661115 0.857578 0.344986
O O2 0.553370 0.879796 0.241041
O O3 0.676409 0.861649 0.162246
O O4 0.644122 0.000000 0.250000
O O5 0.210323 0.875357 0.835450
O O6 0.284389 0.994206 0.915909
O O7 0.250000 0.853306 0.000000
O O8 0.355573 0.500000 0.750000
O O9 0.389376 0.456743 0.910553
O O10 0.420015 0.351882 0.779401
O O11 0.538176 0.092178 0.630630
O O12 0.619166 0.089475 0.485737
O O13 0.500000 0.000000 0.500000
O O14 0.000000 0.250000 0.820168
O O15 0.750000 0.366045 0.000000
#
# Coordination Sequence:
#
# PCOD9529857 Si02
#       6
#    16  16  16  16  16  16
#     4  10  20  37  62  90 124 156 206 263 316 375
#     4  10  18  32  62  98 123 147 203 270 319 370
#     4  10  19  35  61  90 118 159 205 254 312 373
#     4  11  20  35  65  94 119 157 213 262 309 370
#     4  11  25  41  58  86 129 173 210 253 318 381
#     4  10  18  32  59  98 125 145 200 272 321 360
#
# _framework density 21.698913000000001
#
# number of rings (size 3 to 8) (size 9 to 14) (size 15 to 20)
#    0.000    1.667    3.333    6.000    2.333    0.000 
#    0.000    4.167    0.000    0.000    0.000    0.000 
#    0.000    0.000    0.000    0.000    0.000    0.000 
#
# Total GULP energy -267958.240933 kJ/mol
# GULP energy per Si atom -5582.463353 kJ/mol
# Density = 2.164953 g / cm^3
# Si number density = 21.698913 Si / 1000 Ang^3
#
#
#
# Elastic Constant Matrix: (Units=GPa)
#
#
# Indices 1 2 3 4 5 6 
#
# 1 128.3699 -0.9318 44.8661 0.0000 0.0000 0.0000
# 2 -0.9318 17.9869 -3.6509 0.0000 0.0000 0.0000
# 3 44.8661 -3.6509 90.7385 0.0000 0.0000 0.0000
# 4 0.0000 0.0000 0.0000 -1.0221 0.0000 0.0000
# 5 0.0000 0.0000 0.0000 0.0000 31.6498 0.0000
# 6 0.0000 0.0000 0.0000 0.0000 0.0000 -9.6968
#
#
#
# Elastic Compliance Matrix: (Units=1/GPa)
#
#
# Indices 1 2 3 4 5 6 
#
# 1 0.009421 -0.000461 -0.004677 0.000000 0.000000 0.000000
# 2 -0.000461 0.056076 0.002484 0.000000 0.000000 0.000000
# 3 -0.004677 0.002484 0.013433 0.000000 0.000000 0.000000
# 4 0.000000 0.000000 0.000000 -0.978334 0.000000 0.000000
# 5 0.000000 0.000000 0.000000 0.000000 0.031596 0.000000
# 6 0.000000 0.000000 0.000000 0.000000 0.000000 -0.103126
#
#
# Mechanical properties :
#
#
# Convention : Reuss Voigt Hill
#
# Bulk Modulus (GPa) = 13.58273 35.29578 24.43925
# Shear Modulus (GPa) = -5.31302 17.30696 5.99697
#
# Velocity S-wave (km/s) = -1.56647 2.82724 1.66425
# Velocity P-wave (km/s) = 1.73247 5.19222 3.87044
#
# Compressibility (1/GPa) = 0.07362291
#
# Stress axis : x y z
#
# Youngs Moduli (GPa) = 106.14288 17.83287 74.44256
#
# Poissons Ratio (x) = 0.00823 0.34816
# Poissons Ratio (y) = 0.04896 -0.18494
# Poissons Ratio (z) = 0.49642 -0.04430
#
# Static dielectric constant tensor:
#      x y z
#    x 1.818220 0.000000 0.000000 
#    y 0.000000 1.792210 0.000000 
#    z 0.000000 0.000000 2.208200 
# 
# From -- ./inp_files/18659.got.cif
#   From: 2010.05.17/outbox.cif.g08.bks.cpg/sg73_10_cif.got.tgz:18659.got - 2010.06.03 17:35:07.
