data_PCOD9529086
_publ_section_title
;
Structure prediction by ZEFSAII (Michael W. Deem and Ramdas Pophale) SiO2 
 PCOD9529086
Probable space group: I B A M
;
_chemical_formula_sum "Si O2"
_cell_formula_units_Z 68
_cell_length_a 16.157147
_cell_length_b 11.515205
_cell_length_c 20.638872
_cell_angle_alpha 90.000000
_cell_angle_beta 90.000000
_cell_angle_gamma 90.000000
_cell_volume 3839.921161
_symmetry_space_group_name_H-M "I B A M"
_symmetry_group_IT_number 72
_symmetry_cell_setting 'orthorhombic'
loop_
_space_group_symop_operation_xyz
x,y,z
-x,-y,z
x,-y,1/2-z
-x,y,1/2-z
-x,-y,-z
x,y,-z
-x,y,1/2+z
x,-y,1/2+z
1/2+x,1/2+y,1/2+z
1/2-x,1/2-y,1/2+z
1/2+x,1/2-y,-z
1/2-x,1/2+y,-z
1/2-x,1/2-y,1/2-z
1/2+x,1/2+y,1/2-z
1/2-x,1/2+y,z
1/2+x,1/2-y,z
loop_
_atom_site_type_symbol
_atom_site_label
_atom_site_fract_x
_atom_site_fract_y
_atom_site_fract_z
Si Si1 0.114216 0.903918 0.071618
Si Si2 0.183076 0.881226 0.211041
Si Si3 0.072283 0.822256 0.572294
Si Si4 0.000000 0.500000 0.750000
Si Si5 0.625855 0.812179 0.300075
O O1 0.165332 0.878368 0.135061
O O2 0.027030 0.836206 0.077872
O O3 0.100263 0.043025 0.074026
O O4 0.148680 0.876342 0.000000
O O5 0.281233 0.857343 0.213065
O O6 0.122906 0.788208 0.245561
O O7 0.167624 0.000000 0.250000
O O8 0.091757 0.776453 0.500000
O O9 0.111364 0.748621 0.630383
O O10 0.940131 0.585615 0.790247
#
# Coordination Sequence:
#
# PCOD9529086 Si02
#       5
#    16  16  16   4  16
#     4   9  18  34  58  85 113 140 189 248 289 340
#     4  11  21  38  59  86 113 152 200 239 286 350
#     4   9  18  35  57  83 111 146 188 239 293 343
#     4  12  24  40  52  88 120 154 188 240 296 348
#     4  11  23  37  59  81 121 156 188 243 288 346
#
# _framework density 17.708696
#
# number of rings (size 3 to 8) (size 9 to 14) (size 15 to 20)
#    0.000    1.882    3.529    2.824    0.000    0.941 
#    0.000    0.588    0.000    1.412    0.000    0.000 
#    0.000    0.000    0.000    0.000    0.000    0.000 
#
# Total GULP energy -189328.222402 kJ/mol
# GULP energy per Si atom -5568.477129 kJ/mol
# Density = 1.766839 g / cm^3
# Si number density = 17.708696 Si / 1000 Ang^3
#
#
#
# Elastic Constant Matrix: (Units=GPa)
#
#
# Indices 1 2 3 4 5 6 
#
# 1 38.8059 27.4546 24.3007 0.0000 0.0000 0.0000
# 2 27.4546 75.2807 46.9756 0.0000 0.0000 0.0000
# 3 24.3007 46.9756 134.8452 0.0000 0.0000 0.0000
# 4 0.0000 0.0000 0.0000 26.2635 0.0000 0.0000
# 5 0.0000 0.0000 0.0000 0.0000 -89.8467 0.0000
# 6 0.0000 0.0000 0.0000 0.0000 0.0000 19.1557
#
#
#
# Elastic Compliance Matrix: (Units=1/GPa)
#
#
# Indices 1 2 3 4 5 6 
#
# 1 0.035328 -0.011386 -0.002400 0.000000 0.000000 0.000000
# 2 -0.011386 0.020643 -0.005139 0.000000 0.000000 0.000000
# 3 -0.002400 -0.005139 0.009639 0.000000 0.000000 0.000000
# 4 0.000000 0.000000 0.000000 0.038076 0.000000 0.000000
# 5 0.000000 0.000000 0.000000 0.000000 -0.011130 0.000000
# 6 0.000000 0.000000 0.000000 0.000000 0.000000 0.052204
#
#
# Mechanical properties :
#
#
# Convention : Reuss Voigt Hill
#
# Bulk Modulus (GPa) = 36.02509 49.59928 42.81218
# Shear Modulus (GPa) = 26.06019 1.12788 13.59403
#
# Velocity S-wave (km/s) = 3.84031 0.79893 2.77365
# Velocity P-wave (km/s) = 6.32861 5.37776 5.87246
#
# Compressibility (1/GPa) = 0.02775843
#
# Stress axis : x y z
#
# Youngs Moduli (GPa) = 28.30634 48.44203 103.74730
#
# Poissons Ratio (x) = 0.55158 0.24898
# Poissons Ratio (y) = 0.32231 0.53320
# Poissons Ratio (z) = 0.06793 0.24897
#
# Static dielectric constant tensor:
#      x y z
#    x 1.603750 0.000000 0.000000 
#    y 0.000000 1.608060 0.000000 
#    z 0.000000 0.000000 1.669090 
# 
# From -- ./inp_files/31244.got.cif
#   From: 2010.05.17/outbox.cif.g08.bks.cpg/sg72_16_cif.got.tgz:31244.got - 2010.06.03 17:03:01.
