data_PCOD9529223
_publ_section_title
;
Structure prediction by ZEFSAII (Michael W. Deem and Ramdas Pophale) SiO2 
 PCOD9529223
Probable space group: I B A M
;
_chemical_formula_sum "Si O2"
_cell_formula_units_Z 96
_cell_length_a 13.717200
_cell_length_b 13.638048
_cell_length_c 21.878357
_cell_angle_alpha 90.000000
_cell_angle_beta 90.000000
_cell_angle_gamma 90.000000
_cell_volume 4092.911839
_symmetry_space_group_name_H-M "I B A M"
_symmetry_group_IT_number 72
_symmetry_cell_setting 'orthorhombic'
loop_
_space_group_symop_operation_xyz
x,y,z
-x,-y,z
x,-y,1/2-z
-x,y,1/2-z
-x,-y,-z
x,y,-z
-x,y,1/2+z
x,-y,1/2+z
1/2+x,1/2+y,1/2+z
1/2-x,1/2-y,1/2+z
1/2+x,1/2-y,-z
1/2-x,1/2+y,-z
1/2-x,1/2-y,1/2-z
1/2+x,1/2+y,1/2-z
1/2-x,1/2+y,z
1/2+x,1/2-y,z
loop_
_atom_site_type_symbol
_atom_site_label
_atom_site_fract_x
_atom_site_fract_y
_atom_site_fract_z
Si Si1 0.550287 0.283840 0.609882
Si Si2 0.254083 0.988687 0.681839
Si Si3 0.847214 0.431486 0.500000
Si Si4 0.762684 0.332852 0.383210
Si Si5 0.461636 0.098940 0.181910
Si Si6 0.567555 0.854776 0.000000
Si Si7 0.853204 0.874846 0.925401
O O1 0.648779 0.330143 0.634200
O O2 0.506548 0.202584 0.654814
O O3 0.589260 0.212864 0.556741
O O4 0.468923 0.357102 0.584865
O O5 0.344765 0.913062 0.682221
O O6 0.186464 0.952855 0.625040
O O7 0.209714 0.000000 0.750000
O O8 0.302874 0.095611 0.669183
O O9 0.786306 0.396576 0.442766
O O10 0.873194 0.545487 0.500000
O O11 0.952305 0.377938 0.500000
O O12 0.804933 0.227264 0.401310
O O13 0.500000 0.095507 0.250000
O O14 0.500000 0.000000 0.147544
O O15 0.837148 0.888636 0.000000
#
# Coordination Sequence:
#
# PCOD9529223 Si02
#       7
#    16  16   8  16  16   8  16
#     4  12  24  44  71 107 148 198 246 316 376 454
#     4  12  28  49  74 109 154 202 251 321 388 472
#     4  11  23  38  70 111 147 193 241 314 382 453
#     4  12  25  44  73 108 151 198 253 311 393 461
#     4  11  23  42  74 107 141 182 255 321 379 450
#     4  11  23  38  68 107 152 184 245 314 380 432
#     4  12  27  48  74 112 156 202 263 318 388 467
#
# _framework density 23.455183000000002
#
# number of rings (size 3 to 8) (size 9 to 14) (size 15 to 20)
#    0.000    0.333    6.667    2.500    3.500    2.667 
#    0.000    1.667    0.000    0.000    0.000    0.000 
#    0.000    0.000    0.000    0.000    0.000    0.000 
#
# Total GULP energy -268059.513449 kJ/mol
# GULP energy per Si atom -5584.573197 kJ/mol
# Density = 2.340180 g / cm^3
# Si number density = 23.455183 Si / 1000 Ang^3
#
#
#
# Elastic Constant Matrix: (Units=GPa)
#
#
# Indices 1 2 3 4 5 6 
#
# 1 84.7508 9.8729 -9.0078 0.0000 0.0000 0.0000
# 2 9.8729 84.3943 35.0830 0.0000 0.0000 0.0000
# 3 -9.0078 35.0830 102.5185 0.0000 0.0000 0.0000
# 4 0.0000 0.0000 0.0000 25.5680 0.0000 0.0000
# 5 0.0000 0.0000 0.0000 0.0000 25.9961 0.0000
# 6 0.0000 0.0000 0.0000 0.0000 0.0000 40.6927
#
#
#
# Elastic Compliance Matrix: (Units=1/GPa)
#
#
# Indices 1 2 3 4 5 6 
#
# 1 0.012249 -0.002192 0.001826 0.000000 0.000000 0.000000
# 2 -0.002192 0.014207 -0.005054 0.000000 0.000000 0.000000
# 3 0.001826 -0.005054 0.011644 0.000000 0.000000 0.000000
# 4 0.000000 0.000000 0.000000 0.039111 0.000000 0.000000
# 5 0.000000 0.000000 0.000000 0.000000 0.038467 0.000000
# 6 0.000000 0.000000 0.000000 0.000000 0.000000 0.024574
#
#
# Mechanical properties :
#
#
# Convention : Reuss Voigt Hill
#
# Bulk Modulus (GPa) = 36.68400 38.17329 37.42865
# Shear Modulus (GPa) = 31.21493 34.16574 32.69034
#
# Velocity S-wave (km/s) = 3.65202 3.82073 3.73733
# Velocity P-wave (km/s) = 5.78420 5.98117 5.88351
#
# Compressibility (1/GPa) = 0.02725984
#
# Stress axis : x y z
#
# Youngs Moduli (GPa) = 81.64066 70.38944 85.87777
#
# Poissons Ratio (x) = 0.15431 -0.15685
# Poissons Ratio (y) = 0.17897 0.43405
# Poissons Ratio (z) = -0.14911 0.35577
#
# Static dielectric constant tensor:
#      x y z
#    x 1.942860 0.000000 0.000000 
#    y 0.000000 2.011990 0.000000 
#    z 0.000000 0.000000 1.842550 
# 
# From -- ./inp_files/44293.got.cif
#   From: 2010.05.17/outbox.cif.g08.bks.cpg/sg72_23_cif.got.tgz:44293.got - 2010.06.03 17:03:01.
