data_PCOD9529572
_publ_section_title
;
Structure prediction by ZEFSAII (Michael W. Deem and Ramdas Pophale) SiO2 
 PCOD9529572
Probable space group: I B A M
;
_chemical_formula_sum "Si O2"
_cell_formula_units_Z 54
_cell_length_a 15.000000
_cell_length_b 24.000000
_cell_length_c 15.000000
_cell_angle_alpha 90.000000
_cell_angle_beta 90.000000
_cell_angle_gamma 90.000000
_cell_volume 5400.000000
_symmetry_space_group_name_H-M "I B A M"
_symmetry_group_IT_number 72
_symmetry_cell_setting 'orthorhombic'
loop_
_space_group_symop_operation_xyz
x,y,z
-x,-y,z
x,-y,1/2-z
-x,y,1/2-z
-x,-y,-z
x,y,-z
-x,y,1/2+z
x,-y,1/2+z
1/2+x,1/2+y,1/2+z
1/2-x,1/2-y,1/2+z
1/2+x,1/2-y,-z
1/2-x,1/2+y,-z
1/2-x,1/2-y,1/2-z
1/2+x,1/2+y,1/2-z
1/2-x,1/2+y,z
1/2+x,1/2-y,z
loop_
_atom_site_type_symbol
_atom_site_label
_atom_site_fract_x
_atom_site_fract_y
_atom_site_fract_z
Si Si1 0.362910 0.201112 0.896931
Si Si2 0.924825 0.691149 0.104682
Si Si3 0.605394 0.508957 0.356364
Si Si4 0.730232 0.456046 0.500000
Si Si5 0.105980 0.213096 0.241566
Si Si6 0.223482 0.888118 0.677718
Si Si7 0.150042 0.575125 0.668002
Si Si8 0.000000 0.500000 0.250000
O O1 0.467644 0.184658 0.886363
O O2 0.355531 0.251405 0.825275
O O3 0.294899 0.150253 0.876704
O O4 0.350428 0.218992 0.000000
O O5 0.891485 0.746053 0.155946
O O6 0.879073 0.638623 0.150271
O O7 0.903855 0.693816 0.000000
O O8 0.500000 0.500000 0.373592
O O9 0.615735 0.500000 0.250000
O O10 0.655355 0.466624 0.421086
O O11 0.657372 0.568479 0.372772
O O12 0.804871 0.446995 0.578902
O O13 0.161102 0.157103 0.226995
O O14 0.000000 0.200854 0.250000
O O15 0.282785 0.922831 0.748019
O O16 0.064356 0.538828 0.692130
#
# Coordination Sequence:
#
# PCOD9529572 Si02
#       8
#    16  16  16   8  16  16  16   4
#     4  10  22  40  64 101 138 177 223 275 340 417
#     4  10  21  42  66  96 142 182 217 279 351 409
#     4  11  26  48  72  94 140 185 235 304 359 407
#     4  12  25  47  68 108 130 186 238 295 344 420
#     4  10  23  42  68  98 139 176 226 282 345 416
#     4  12  24  44  71 101 131 188 231 286 349 420
#     4  12  24  43  70 100 141 180 233 290 342 417
#     4  12  28  46  68 108 140 192 236 282 362 424
#
# _framework density 10.0
#
# number of rings (size 3 to 8) (size 9 to 14) (size 15 to 20)
#    0.000    1.037    3.704    2.444    4.148    0.889 
#    4.000    0.000    3.259    0.000    0.000    0.000 
#    0.000    0.000    0.000    0.000    0.000    0.000 
#
# Total GULP energy -300668.616148 kJ/mol
# GULP energy per Si atom -5567.937336 kJ/mol
# Density = 0.997724 g / cm^3
# Si number density = 10.000000 Si / 1000 Ang^3
#
#
#
# Elastic Constant Matrix: (Units=GPa)
#
#
# Indices 1 2 3 4 5 6 
#
# 1 102.9238 47.2681 15.0338 -0.0001 0.0000 0.0000
# 2 47.2681 22.1790 10.0120 0.0001 0.0000 0.0000
# 3 15.0338 10.0120 53.6516 0.0000 0.0000 0.0000
# 4 -0.0001 0.0001 0.0000 6.4824 0.0000 0.0000
# 5 0.0000 0.0000 0.0000 0.0000 40.1540 0.0000
# 6 0.0000 0.0000 0.0000 0.0000 0.0000 30.1187
#
#
#
# Elastic Compliance Matrix: (Units=1/GPa)
#
#
# Indices 1 2 3 4 5 6 
#
# 1 0.726506 -1.590421 0.093216 0.000021 0.000000 0.000001
# 2 -1.590421 3.530881 -0.213250 -0.000046 0.000001 -0.000003
# 3 0.093216 -0.213250 0.032314 0.000003 0.000000 0.000000
# 4 0.000021 -0.000046 0.000003 0.154264 0.000000 0.000000
# 5 0.000000 0.000001 0.000000 0.000000 0.024904 0.000000
# 6 0.000001 -0.000003 0.000000 0.000000 0.000000 0.033202
#
#
# Mechanical properties :
#
#
# Convention : Reuss Voigt Hill
#
# Bulk Modulus (GPa) = 1.15102 35.93136 18.54119
# Shear Modulus (GPa) = 0.60882 22.44705 11.52793
#
# Velocity S-wave (km/s) = 0.55233 3.35379 2.40343
# Velocity P-wave (km/s) = 0.99173 5.74472 4.12222
#
# Compressibility (1/GPa) = 0.86879109
#
# Stress axis : x y z
#
# Youngs Moduli (GPa) = 1.37645 0.28322 30.94667
#
# Poissons Ratio (x) = 0.45043 -2.88473
# Poissons Ratio (y) = 2.18914 6.59939
# Poissons Ratio (z) = -0.12831 0.06040
#
# Static dielectric constant tensor:
#      x y z
#    x 1.715840 0.000000 0.000000 
#    y 0.000000 1.708830 0.000000 
#    z 0.000000 0.000000 1.691830 
# 
# From -- ./inp_files/22180.got.cif
#   From: 2010.05.17/outbox.ucp.g08.bks.cvg/sg72_12_cif.got.tgz:22180.got - 2010.06.11 16:33:07.
