data_PCOD9529055
_publ_section_title
;
Structure prediction by ZEFSAII (Michael W. Deem and Ramdas Pophale) SiO2 
 PCOD9529055
Probable space group: I B A M
;
_chemical_formula_sum "Si O2"
_cell_formula_units_Z 80
_cell_length_a 7.183351
_cell_length_b 29.925713
_cell_length_c 16.134423
_cell_angle_alpha 90.000000
_cell_angle_beta 90.000000
_cell_angle_gamma 90.000000
_cell_volume 3468.366902
_symmetry_space_group_name_H-M "I B A M"
_symmetry_group_IT_number 72
_symmetry_cell_setting 'orthorhombic'
loop_
_space_group_symop_operation_xyz
x,y,z
-x,-y,z
x,-y,1/2-z
-x,y,1/2-z
-x,-y,-z
x,y,-z
-x,y,1/2+z
x,-y,1/2+z
1/2+x,1/2+y,1/2+z
1/2-x,1/2-y,1/2+z
1/2+x,1/2-y,-z
1/2-x,1/2+y,-z
1/2-x,1/2-y,1/2-z
1/2+x,1/2+y,1/2-z
1/2-x,1/2+y,z
1/2+x,1/2-y,z
loop_
_atom_site_type_symbol
_atom_site_label
_atom_site_fract_x
_atom_site_fract_y
_atom_site_fract_z
Si Si1 0.744309 0.396398 0.658318
Si Si2 0.281305 0.557123 0.000000
Si Si3 0.593159 0.292383 0.840278
Si Si4 0.709179 0.386507 0.841932
Si Si5 0.267345 0.454460 0.000000
Si Si6 0.791632 0.301484 0.593216
O O1 0.782496 0.405371 0.754771
O O2 0.517763 0.391093 0.657183
O O3 0.793594 0.430654 0.585370
O O4 0.833719 0.348828 0.634605
O O5 0.224843 0.585242 0.080352
O O6 0.215235 0.506270 0.000000
O O7 0.507175 0.551851 0.000000
O O8 0.500000 0.296884 0.750000
O O9 0.738682 0.332915 0.847645
O O10 0.433115 0.300535 0.907644
O O11 0.660166 0.242267 0.854170
O O12 0.866484 0.298575 0.500000
#
# Coordination Sequence:
#
# PCOD9529055 Si02
#       6
#    16   8  16  16   8  16
#     4   9  16  29  46  64  96 131 170 202 263 305
#     4   9  18  26  43  66  95 129 177 207 254 315
#     4  11  21  34  51  74 106 144 176 213 259 308
#     4   9  17  29  44  66  95 136 166 209 255 309
#     4   9  16  28  43  66  93 131 167 219 254 313
#     4  11  21  33  51  77 102 144 178 213 256 315
#
# _framework density 23.065611000000001
#
# number of rings (size 3 to 8) (size 9 to 14) (size 15 to 20)
#    0.000    2.200    5.000    1.200    5.600    0.800 
#    0.000    4.000    0.000    0.000    0.000    0.000 
#    0.000    3.200    0.400    0.000    0.400    0.000 
#
# Total GULP energy -223503.629702 kJ/mol
# GULP energy per Si atom -5587.590743 kJ/mol
# Density = 2.301311 g / cm^3
# Si number density = 23.065611 Si / 1000 Ang^3
#
#
#
# Elastic Constant Matrix: (Units=GPa)
#
#
# Indices 1 2 3 4 5 6 
#
# 1 69.5874 9.5723 8.7406 0.0000 0.0000 0.0000
# 2 9.5723 215.7429 144.3472 0.0000 0.0000 0.0000
# 3 8.7406 144.3472 232.0085 0.0000 0.0000 0.0000
# 4 0.0000 0.0000 0.0000 14.6359 0.0000 0.0000
# 5 0.0000 0.0000 0.0000 0.0000 -6.6022 0.0000
# 6 0.0000 0.0000 0.0000 0.0000 0.0000 12.8118
#
#
#
# Elastic Compliance Matrix: (Units=1/GPa)
#
#
# Indices 1 2 3 4 5 6 
#
# 1 0.014467 -0.000475 -0.000250 0.000000 0.000000 0.000000
# 2 -0.000475 0.007956 -0.004932 0.000000 0.000000 0.000000
# 3 -0.000250 -0.004932 0.007388 0.000000 0.000000 0.000000
# 4 0.000000 0.000000 0.000000 0.068325 0.000000 0.000000
# 5 0.000000 0.000000 0.000000 0.000000 -0.151464 0.000000
# 6 0.000000 0.000000 0.000000 0.000000 0.000000 0.078053
#
#
# Mechanical properties :
#
#
# Convention : Reuss Voigt Hill
#
# Bulk Modulus (GPa) = 54.05929 93.62879 73.84404
# Shear Modulus (GPa) = 118.47025 27.81435 73.14230
#
# Velocity S-wave (km/s) = 7.17452 3.47634 5.63732
# Velocity P-wave (km/s) = 9.59791 7.53617 8.62883
#
# Compressibility (1/GPa) = 0.01849821
#
# Stress axis : x y z
#
# Youngs Moduli (GPa) = 69.12242 125.68856 135.35110
#
# Poissons Ratio (x) = 0.05969 0.03378
# Poissons Ratio (y) = 0.03283 0.66757
# Poissons Ratio (z) = 0.01725 0.61991
#
# Static dielectric constant tensor:
#      x y z
#    x 1.995800 0.000000 0.000000 
#    y 0.000000 1.837710 0.000000 
#    z 0.000000 0.000000 1.824470 
# 
# From -- ./inp_files/20459.got.cif
#   From: 2010.05.17/outbox.cif.g08.bks.cpg/sg72_11_cif.got.tgz:20459.got - 2010.06.03 17:03:01.
