data_PCOD9529433
_publ_section_title
;
Structure prediction by ZEFSAII (Michael W. Deem and Ramdas Pophale) SiO2 
 PCOD9529433
Probable space group: I B A M
;
_chemical_formula_sum "Si O2"
_cell_formula_units_Z 80
_cell_length_a 9.170610
_cell_length_b 28.524253
_cell_length_c 17.157001
_cell_angle_alpha 90.000000
_cell_angle_beta 90.000000
_cell_angle_gamma 90.000000
_cell_volume 4488.010672
_symmetry_space_group_name_H-M "I B A M"
_symmetry_group_IT_number 72
_symmetry_cell_setting 'orthorhombic'
loop_
_space_group_symop_operation_xyz
x,y,z
-x,-y,z
x,-y,1/2-z
-x,y,1/2-z
-x,-y,-z
x,y,-z
-x,y,1/2+z
x,-y,1/2+z
1/2+x,1/2+y,1/2+z
1/2-x,1/2-y,1/2+z
1/2+x,1/2-y,-z
1/2-x,1/2+y,-z
1/2-x,1/2-y,1/2-z
1/2+x,1/2+y,1/2-z
1/2-x,1/2+y,z
1/2+x,1/2-y,z
loop_
_atom_site_type_symbol
_atom_site_label
_atom_site_fract_x
_atom_site_fract_y
_atom_site_fract_z
Si Si1 0.800655 0.127827 0.183559
Si Si2 0.079286 0.706485 0.333185
Si Si3 0.053332 0.051036 0.409859
Si Si4 0.284846 0.224137 0.913667
Si Si5 0.886648 0.136380 0.361425
O O1 0.656956 0.155931 0.161086
O O2 0.816442 0.126982 0.276802
O O3 0.826806 0.076906 0.144495
O O4 0.947380 0.154783 0.153635
O O5 0.206804 0.743755 0.349192
O O6 0.000000 0.710870 0.250000
O O7 0.953553 0.716304 0.395368
O O8 0.100937 0.048472 0.500000
O O9 0.917745 0.087212 0.403288
O O10 0.000000 0.000000 0.384014
O O11 0.205823 0.174011 0.906980
O O12 0.265128 0.244412 0.000000
#
# Coordination Sequence:
#
# PCOD9529433 Si02
#       5
#    16  16  16  16  16
#     4   9  20  35  57  84 111 148 195 236 292 346
#     4  12  24  39  59  81 118 160 200 247 293 351
#     4   9  18  33  59  91 118 145 185 239 296 351
#     4  12  25  38  56  84 118 157 202 246 296 349
#     4   9  19  36  57  83 114 147 194 245 286 346
#
# _framework density 17.82527
#
# number of rings (size 3 to 8) (size 9 to 14) (size 15 to 20)
#    1.200    0.600    2.000    3.000    2.800    3.200 
#    0.000    0.000    0.000    1.200    0.000    4.200 
#    0.000    0.000    0.000    0.000    0.000    0.000 
#
# Total GULP energy -222742.745090 kJ/mol
# GULP energy per Si atom -5568.568627 kJ/mol
# Density = 1.778470 g / cm^3
# Si number density = 17.825270 Si / 1000 Ang^3
#
#
#
# Elastic Constant Matrix: (Units=GPa)
#
#
# Indices 1 2 3 4 5 6 
#
# 1 74.4421 34.3637 28.7866 0.0000 0.0000 0.0000
# 2 34.3637 96.3819 23.4120 0.0000 0.0000 0.0000
# 3 28.7866 23.4120 69.5658 0.0000 0.0000 0.0000
# 4 0.0000 0.0000 0.0000 23.6834 0.0000 0.0000
# 5 0.0000 0.0000 0.0000 0.0000 20.8734 0.0000
# 6 0.0000 0.0000 0.0000 0.0000 0.0000 26.0938
#
#
#
# Elastic Compliance Matrix: (Units=1/GPa)
#
#
# Indices 1 2 3 4 5 6 
#
# 1 0.017969 -0.005010 -0.005750 0.000000 0.000000 0.000000
# 2 -0.005010 0.012696 -0.002200 0.000000 0.000000 0.000000
# 3 -0.005750 -0.002200 0.017494 0.000000 0.000000 0.000000
# 4 0.000000 0.000000 0.000000 0.042224 0.000000 0.000000
# 5 0.000000 0.000000 0.000000 0.000000 0.047908 0.000000
# 6 0.000000 0.000000 0.000000 0.000000 0.000000 0.038323
#
#
# Mechanical properties :
#
#
# Convention : Reuss Voigt Hill
#
# Bulk Modulus (GPa) = 44.96191 45.94603 45.45397
# Shear Modulus (GPa) = 23.81554 24.38528 24.10041
#
# Velocity S-wave (km/s) = 3.65917 3.70268 3.68099
# Velocity P-wave (km/s) = 6.56743 6.64165 6.60465
#
# Compressibility (1/GPa) = 0.02224105
#
# Stress axis : x y z
#
# Youngs Moduli (GPa) = 55.65016 78.76510 57.16122
#
# Poissons Ratio (x) = 0.39462 0.32866
# Poissons Ratio (y) = 0.27881 0.12573
# Poissons Ratio (z) = 0.31997 0.17325
#
# Static dielectric constant tensor:
#      x y z
#    x 1.607260 0.000000 0.000000 
#    y 0.000000 1.610070 0.000000 
#    z 0.000000 0.000000 1.651940 
# 
# From -- ./inp_files/28301.got.cif
#   From: 2010.05.17/outbox.cif.g08.bks.cpg/sg72_15_cif.got.tgz:28301.got - 2010.06.03 17:03:01.
