data_PCOD9529989
_publ_section_title
;
Structure prediction by ZEFSAII (Michael W. Deem and Ramdas Pophale) SiO2 
 PCOD9529989
Probable space group: I B C A 
;
_chemical_formula_sum "Si O2"
_cell_formula_units_Z 88
_cell_length_a 14.532294
_cell_length_b 16.733593
_cell_length_c 15.802682
_cell_angle_alpha 90.000000
_cell_angle_beta 90.000000
_cell_angle_gamma 90.000000
_cell_volume 3842.856594
_symmetry_space_group_name_H-M "I B C A "
_symmetry_group_IT_number 73
_symmetry_cell_setting 'orthorhombic'
loop_
_space_group_symop_operation_xyz
x,y,z
-x,1/2-y,z
x,-y,1/2-z
1/2-x,y,-z
-x,-y,-z
x,1/2+y,-z
-x,y,1/2+z
1/2+x,-y,z
1/2+x,1/2+y,1/2+z
1/2-x,-y,1/2+z
1/2+x,1/2-y,-z
-x,1/2+y,1/2-z
1/2-x,1/2-y,1/2-z
1/2+x,y,1/2-z
1/2-x,1/2+y,z
x,1/2-y,1/2+z
loop_
_atom_site_type_symbol
_atom_site_label
_atom_site_fract_x
_atom_site_fract_y
_atom_site_fract_z
Si Si1 0.540066 0.091139 0.585766
Si Si2 0.750000 0.049362 0.000000
Si Si3 0.886434 0.964651 0.907881
Si Si4 0.896771 0.214375 0.635409
Si Si5 0.378133 0.308256 0.022971
Si Si6 0.608478 0.275353 0.189894
O O1 0.592763 0.051663 0.507785
O O2 0.482456 0.162645 0.540253
O O3 0.602561 0.133928 0.655927
O O4 0.463328 0.029132 0.620297
O O5 0.832538 0.111848 0.013515
O O6 0.784334 0.000782 0.917771
O O7 0.894278 0.881395 0.859160
O O8 0.856573 0.241341 0.545767
O O9 0.853557 0.255528 0.717922
O O10 0.000000 0.250000 0.630466
O O11 0.347977 0.277866 0.115247
O O12 0.500000 0.250000 0.196085
#
# Coordination Sequence:
#
# PCOD9529989 Si02
#       6
#    16   8  16  16  16  16
#     4   9  17  35  62  85 115 148 196 260 303 346
#     4  10  24  36  58  80 118 172 200 240 312 360
#     4  10  19  35  63  87 116 157 204 245 308 361
#     4  11  19  34  64  92 115 155 207 259 309 358
#     4  10  18  38  58  83 118 156 199 249 297 372
#     4   9  18  33  59  93 117 148 200 255 305 356
#
# _framework density 22.899632
#
# number of rings (size 3 to 8) (size 9 to 14) (size 15 to 20)
#    0.000    2.182    3.636    0.545    0.000    0.727 
#    0.000   15.455    4.000    0.000    0.000    0.000 
#    0.000    0.000    0.000    0.000    0.000    0.000 
#
# Total GULP energy -245272.761970 kJ/mol
# GULP energy per Si atom -5574.380954 kJ/mol
# Density = 2.284751 g / cm^3
# Si number density = 22.899632 Si / 1000 Ang^3
#
#
#
# Elastic Constant Matrix: (Units=GPa)
#
#
# Indices 1 2 3 4 5 6 
#
# 1 40.6394 9.9427 12.2595 0.0000 0.0000 0.0000
# 2 9.9427 149.4299 41.3784 0.0000 0.0000 0.0000
# 3 12.2595 41.3784 126.0155 0.0000 0.0000 0.0000
# 4 0.0000 0.0000 0.0000 18.8190 0.0000 0.0000
# 5 0.0000 0.0000 0.0000 0.0000 4.1344 0.0000
# 6 0.0000 0.0000 0.0000 0.0000 0.0000 14.2504
#
#
#
# Elastic Compliance Matrix: (Units=1/GPa)
#
#
# Indices 1 2 3 4 5 6 
#
# 1 0.025517 -0.001112 -0.002117 0.000000 0.000000 0.000000
# 2 -0.001112 0.007410 -0.002325 0.000000 0.000000 0.000000
# 3 -0.002117 -0.002325 0.008905 0.000000 0.000000 0.000000
# 4 0.000000 0.000000 0.000000 0.053138 0.000000 0.000000
# 5 0.000000 0.000000 0.000000 0.000000 0.241872 0.000000
# 6 0.000000 0.000000 0.000000 0.000000 0.000000 0.070173
#
#
# Mechanical properties :
#
#
# Convention : Reuss Voigt Hill
#
# Bulk Modulus (GPa) = 32.54759 49.24954 40.89857
# Shear Modulus (GPa) = 11.67229 24.27437 17.97333
#
# Velocity S-wave (km/s) = 2.26014 3.25935 2.80460
# Velocity P-wave (km/s) = 4.58857 5.97644 5.32789
#
# Compressibility (1/GPa) = 0.03072424
#
# Stress axis : x y z
#
# Youngs Moduli (GPa) = 39.18900 134.95529 112.29698
#
# Poissons Ratio (x) = 0.15001 0.23779
# Poissons Ratio (y) = 0.04356 0.26109
# Poissons Ratio (z) = 0.08298 0.31377
#
# Static dielectric constant tensor:
#      x y z
#    x 2.001620 0.000000 0.000000 
#    y 0.000000 1.915560 0.000000 
#    z 0.000000 0.000000 1.889150 
# 
# From -- ./inp_files/17972.got.cif
#   From: 2010.05.17/outbox.cif.g08.bks.cpg/sg73_9_cif.got.tgz:17972.got - 2010.06.03 17:35:07.
