data_PCOD9529606
_publ_section_title
;
Structure prediction by ZEFSAII (Michael W. Deem and Ramdas Pophale) SiO2 
 PCOD9529606
Probable space group: I B C A 
;
_chemical_formula_sum "Si O2"
_cell_formula_units_Z 96
_cell_length_a 16.849773
_cell_length_b 27.912866
_cell_length_c 8.006287
_cell_angle_alpha 90.000000
_cell_angle_beta 90.000000
_cell_angle_gamma 90.000000
_cell_volume 3765.560583
_symmetry_space_group_name_H-M "I B C A "
_symmetry_group_IT_number 73
_symmetry_cell_setting 'orthorhombic'
loop_
_space_group_symop_operation_xyz
x,y,z
-x,1/2-y,z
x,-y,1/2-z
1/2-x,y,-z
-x,-y,-z
x,1/2+y,-z
-x,y,1/2+z
1/2+x,-y,z
1/2+x,1/2+y,1/2+z
1/2-x,-y,1/2+z
1/2+x,1/2-y,-z
-x,1/2+y,1/2-z
1/2-x,1/2-y,1/2-z
1/2+x,y,1/2-z
1/2-x,1/2+y,z
x,1/2-y,1/2+z
loop_
_atom_site_type_symbol
_atom_site_label
_atom_site_fract_x
_atom_site_fract_y
_atom_site_fract_z
Si Si1 0.803583 0.946469 0.266555
Si Si2 0.153154 0.799688 0.991534
Si Si3 0.651035 0.805228 0.139098
Si Si4 0.424513 0.443508 0.454171
Si Si5 0.815185 0.847515 0.181384
Si Si6 0.589872 0.442638 0.581027
O O1 0.766074 0.896096 0.213227
O O2 0.837243 0.939050 0.452322
O O3 0.766520 0.000000 0.250000
O O4 0.872887 0.944570 0.124964
O O5 0.129483 0.746577 0.933869
O O6 0.132465 0.835605 0.841503
O O7 0.250000 0.802741 0.000000
O O8 0.119539 0.811565 0.173835
O O9 0.747108 0.807256 0.165043
O O10 0.637254 0.843649 0.991549
O O11 0.509943 0.422092 0.499809
O O12 0.427965 0.500616 0.419374
O O13 0.397845 0.425938 0.270410
#
# Coordination Sequence:
#
# PCOD9529606 Si02
#       6
#    16  16  16  16  16  16
#     4  10  20  31  43  66 103 133 160 199 228 271
#     4  10  15  28  51  75  90 115 145 198 255 283
#     4  10  17  30  53  73  92 123 148 201 254 298
#     4   9  15  26  46  67  85 120 161 198 241 277
#     4  10  19  28  46  71  97 124 157 193 246 283
#     4   9  15  26  46  66  86 119 163 196 238 281
#
# _framework density 25.494211
#
# number of rings (size 3 to 8) (size 9 to 14) (size 15 to 20)
#    0.000    2.333    5.000    1.000    0.000    1.333 
#    0.000    0.000   11.000    0.000    0.000    0.000 
#    0.000    4.000    0.000    0.000    0.000    0.000 
#
# Total GULP energy -267650.662560 kJ/mol
# GULP energy per Si atom -5576.055470 kJ/mol
# Density = 2.543619 g / cm^3
# Si number density = 25.494211 Si / 1000 Ang^3
#
#
#
# Elastic Constant Matrix: (Units=GPa)
#
#
# Indices 1 2 3 4 5 6 
#
# 1 50.9442 6.8202 32.4815 0.0001 0.0004 -0.0007
# 2 6.8202 119.1896 52.8461 -0.0003 -0.0003 -0.0008
# 3 32.4815 52.8461 272.2402 -0.0044 -0.0035 0.0101
# 4 0.0001 -0.0003 -0.0044 33.6720 -0.0013 -0.0010
# 5 0.0004 -0.0003 -0.0035 -0.0013 5.4833 0.0046
# 6 -0.0007 -0.0008 0.0101 -0.0010 0.0046 -31.7739
#
#
#
# Elastic Compliance Matrix: (Units=1/GPa)
#
#
# Indices 1 2 3 4 5 6 
#
# 1 0.021247 -0.000100 -0.002515 0.000000 -0.000003 -0.000001
# 2 -0.000100 0.009181 -0.001770 0.000000 -0.000001 -0.000001
# 3 -0.002515 -0.001770 0.004317 0.000001 0.000003 0.000001
# 4 0.000000 0.000000 0.000001 0.029698 0.000007 -0.000001
# 5 -0.000003 -0.000001 0.000003 0.000007 0.182372 0.000026
# 6 -0.000001 -0.000001 0.000001 -0.000001 0.000026 -0.031472
#
#
# Mechanical properties :
#
#
# Convention : Reuss Voigt Hill
#
# Bulk Modulus (GPa) = 38.50291 69.62995 54.06643
# Shear Modulus (GPa) = 21.48033 24.82470 23.15251
#
# Velocity S-wave (km/s) = 2.90583 3.12386 3.01682
# Velocity P-wave (km/s) = 5.13750 6.35474 5.77826
#
# Compressibility (1/GPa) = 0.02597206
#
# Stress axis : x y z
#
# Youngs Moduli (GPa) = 47.06633 108.92573 231.64464
#
# Poissons Ratio (x) = 0.01094 0.58270
# Poissons Ratio (y) = 0.00473 0.41004
# Poissons Ratio (z) = 0.11839 0.19281
#
# Static dielectric constant tensor:
#      x y z
#    x 2.000870 0.000000 0.000000 
#    y 0.000000 2.052530 0.000000 
#    z 0.000000 0.000000 2.105520 
# 
# From -- ./inp_files/7270.got.cif
#   From: 2010.05.17/outbox.cif.g08.bks.cpg/sg73_4_cif.got.tgz:7270.got - 2010.06.03 17:35:07.
