data_PCOD9529739
_publ_section_title
;
Structure prediction by ZEFSAII (Michael W. Deem and Ramdas Pophale) SiO2 
 PCOD9529739
Probable space group: I B C A 
;
_chemical_formula_sum "Si O2"
_cell_formula_units_Z 120
_cell_length_a 24.163475
_cell_length_b 14.965863
_cell_length_c 14.826180
_cell_angle_alpha 90.000000
_cell_angle_beta 90.000000
_cell_angle_gamma 90.000000
_cell_volume 5361.550797
_symmetry_space_group_name_H-M "I B C A "
_symmetry_group_IT_number 73
_symmetry_cell_setting 'orthorhombic'
loop_
_space_group_symop_operation_xyz
x,y,z
-x,1/2-y,z
x,-y,1/2-z
1/2-x,y,-z
-x,-y,-z
x,1/2+y,-z
-x,y,1/2+z
1/2+x,-y,z
1/2+x,1/2+y,1/2+z
1/2-x,-y,1/2+z
1/2+x,1/2-y,-z
-x,1/2+y,1/2-z
1/2-x,1/2-y,1/2-z
1/2+x,y,1/2-z
1/2-x,1/2+y,z
x,1/2-y,1/2+z
loop_
_atom_site_type_symbol
_atom_site_label
_atom_site_fract_x
_atom_site_fract_y
_atom_site_fract_z
Si Si1 0.655388 0.675381 0.835300
Si Si2 0.489121 0.641821 0.452066
Si Si3 0.084622 0.115259 0.073019
Si Si4 0.383882 0.179480 0.458400
Si Si5 0.272121 0.199810 0.402361
Si Si6 0.209775 0.088236 0.078193
Si Si7 0.545702 0.326145 0.745196
Si Si8 0.809913 0.500000 0.250000
O O1 0.721318 0.693774 0.832625
O O2 0.605527 0.720194 0.779436
O O3 0.653332 0.575949 0.795728
O O4 0.640128 0.687544 0.939514
O O5 0.500000 0.750000 0.453590
O O6 0.543468 0.595842 0.491265
O O7 0.439050 0.623718 0.522089
O O8 0.472257 0.625833 0.348495
O O9 0.097001 0.221777 0.069308
O O10 0.144512 0.069834 0.064219
O O11 0.055166 0.108933 0.170008
O O12 0.332399 0.153975 0.394071
O O13 0.250000 0.167525 0.500000
O O14 0.284073 0.305347 0.412160
O O15 0.225716 0.042381 0.171063
O O16 0.250000 0.057404 0.000000
O O17 0.500000 0.250000 0.765821
#
# Coordination Sequence:
#
# PCOD9529739 Si02
#       8
#    16  16  16  16  16  16  16   8
#     4  10  20  35  56  87 122 161 204 261 316 378
#     4   8  15  26  49  83 119 147 185 244 312 375
#     4  10  17  34  56  87 121 153 194 261 323 370
#     4   8  15  29  52  83 117 147 195 255 311 363
#     4   8  16  33  57  85 120 154 202 265 317 360
#     4  10  22  39  62  89 122 166 212 265 326 387
#     4  10  18  30  54  91 120 150 203 257 316 368
#     4  12  24  40  58  88 126 178 214 244 322 412
#
# _framework density 22.381582999999999
#
# number of rings (size 3 to 8) (size 9 to 14) (size 15 to 20)
#    0.000    2.667    1.333    2.800    0.000    2.133 
#    0.000    0.000    2.933    3.200    0.000    4.667 
#    0.000    0.000    0.000    0.000    0.000    0.000 
#
# Total GULP energy -334257.073674 kJ/mol
# GULP energy per Si atom -5570.951228 kJ/mol
# Density = 2.233064 g / cm^3
# Si number density = 22.381583 Si / 1000 Ang^3
#
#
#
# Elastic Constant Matrix: (Units=GPa)
#
#
# Indices 1 2 3 4 5 6 
#
# 1 141.8075 26.1077 66.8439 0.0000 0.0000 0.0000
# 2 26.1077 35.0827 17.9532 0.0000 0.0000 0.0000
# 3 66.8439 17.9532 126.0896 0.0000 0.0000 0.0000
# 4 0.0000 0.0000 0.0000 -1.7454 0.0000 0.0000
# 5 0.0000 0.0000 0.0000 0.0000 30.5837 0.0000
# 6 0.0000 0.0000 0.0000 0.0000 0.0000 -0.7042
#
#
#
# Elastic Compliance Matrix: (Units=1/GPa)
#
#
# Indices 1 2 3 4 5 6 
#
# 1 0.010213 -0.005209 -0.004673 0.000000 0.000000 0.000000
# 2 -0.005209 0.033401 -0.001994 0.000000 0.000000 0.000000
# 3 -0.004673 -0.001994 0.010692 0.000000 0.000000 0.000000
# 4 0.000000 0.000000 0.000000 -0.572949 0.000000 0.000000
# 5 0.000000 0.000000 0.000000 0.000000 0.032697 0.000000
# 6 0.000000 0.000000 0.000000 0.000000 0.000000 -1.420115
#
#
# Mechanical properties :
#
#
# Convention : Reuss Voigt Hill
#
# Bulk Modulus (GPa) = 32.72878 58.30992 45.51935
# Shear Modulus (GPa) = -2.67077 18.43184 7.88054
#
# Velocity S-wave (km/s) = -1.09356 2.87283 1.87847
# Velocity P-wave (km/s) = 3.61391 6.09208 5.00868
#
# Compressibility (1/GPa) = 0.03055415
#
# Stress axis : x y z
#
# Youngs Moduli (GPa) = 97.90976 29.93893 93.52815
#
# Poissons Ratio (x) = 0.15596 0.43703
# Poissons Ratio (y) = 0.51005 0.18651
# Poissons Ratio (z) = 0.45751 0.05970
#
# Static dielectric constant tensor:
#      x y z
#    x 1.927870 0.000000 0.000000 
#    y 0.000000 1.824480 0.000000 
#    z 0.000000 0.000000 1.846750 
# 
# From -- ./inp_files/19520.got.cif
#   From: 2010.05.17/outbox.cif.g08.bks.cpg/sg73_10_cif.got.tgz:19520.got - 2010.06.03 17:35:07.
