data_PCOD9529193
_publ_section_title
;
Structure prediction by ZEFSAII (Michael W. Deem and Ramdas Pophale) SiO2 
 PCOD9529193
Probable space group: I B A M
;
_chemical_formula_sum "Si O2"
_cell_formula_units_Z 104
_cell_length_a 9.160421
_cell_length_b 21.014492
_cell_length_c 25.139663
_cell_angle_alpha 90.000000
_cell_angle_beta 90.000000
_cell_angle_gamma 90.000000
_cell_volume 4839.425196
_symmetry_space_group_name_H-M "I B A M"
_symmetry_group_IT_number 72
_symmetry_cell_setting 'orthorhombic'
loop_
_space_group_symop_operation_xyz
x,y,z
-x,-y,z
x,-y,1/2-z
-x,y,1/2-z
-x,-y,-z
x,y,-z
-x,y,1/2+z
x,-y,1/2+z
1/2+x,1/2+y,1/2+z
1/2-x,1/2-y,1/2+z
1/2+x,1/2-y,-z
1/2-x,1/2+y,-z
1/2-x,1/2-y,1/2-z
1/2+x,1/2+y,1/2-z
1/2-x,1/2+y,z
1/2+x,1/2-y,z
loop_
_atom_site_type_symbol
_atom_site_label
_atom_site_fract_x
_atom_site_fract_y
_atom_site_fract_z
Si Si1 0.826149 0.145730 0.760682
Si Si2 0.699031 0.771655 0.832066
Si Si3 0.735254 0.550213 0.000000
Si Si4 0.075873 0.430179 0.800813
Si Si5 0.945209 0.745254 0.907511
Si Si6 0.275824 0.910196 0.500000
Si Si7 0.511583 0.334142 0.500000
Si Si8 0.960444 0.394426 0.577987
O O1 0.753398 0.172420 0.706383
O O2 0.792902 0.203898 0.801577
O O3 0.745381 0.083482 0.785156
O O4 0.000000 0.138497 0.750000
O O5 0.536591 0.771636 0.854606
O O6 0.798145 0.774401 0.884570
O O7 0.690705 0.477049 0.000000
O O8 0.612495 0.603954 0.000000
O O9 0.840994 0.561211 0.949606
O O10 0.000000 0.500000 0.802235
O O11 0.000000 0.396833 0.750000
O O12 0.044964 0.404385 0.859221
O O13 0.918416 0.678065 0.935285
O O14 0.029246 0.791933 0.947116
O O15 0.383813 0.906824 0.449325
O O16 0.157777 0.855059 0.500000
#
# Coordination Sequence:
#
# PCOD9529193 Si02
#       8
#    16  16   8  16  16   8   8  16
#     4  11  23  41  67 101 136 180 232 286 344 422
#     4  11  23  39  64 100 137 177 223 276 358 420
#     4  11  24  43  68  89 130 183 238 288 335 423
#     4  11  24  43  68 101 136 183 239 289 343 417
#     4  12  23  41  64  99 144 172 217 294 354 432
#     4  11  24  45  66  95 132 181 244 288 336 418
#     4  12  27  40  62 102 139 178 222 284 375 409
#     4  11  22  42  71  97 128 178 234 289 348 417
#
# _framework density 21.490155000000001
#
# number of rings (size 3 to 8) (size 9 to 14) (size 15 to 20)
#    0.000    0.769    3.077    5.769    0.000    1.846 
#    0.000    1.538    0.000    0.000    0.000    0.000 
#    0.000    0.000    0.000    0.000    0.000    0.000 
#
# Total GULP energy -290301.976165 kJ/mol
# GULP energy per Si atom -5582.730311 kJ/mol
# Density = 2.144124 g / cm^3
# Si number density = 21.490155 Si / 1000 Ang^3
#
#
#
# Elastic Constant Matrix: (Units=GPa)
#
#
# Indices 1 2 3 4 5 6 
#
# 1 106.1692 29.3052 37.9363 0.0000 0.0000 0.0000
# 2 29.3052 97.4002 34.6349 0.0000 0.0000 0.0000
# 3 37.9363 34.6349 135.7705 0.0000 0.0000 0.0000
# 4 0.0000 0.0000 0.0000 19.4406 0.0000 0.0000
# 5 0.0000 0.0000 0.0000 0.0000 23.9573 0.0000
# 6 0.0000 0.0000 0.0000 0.0000 0.0000 36.3109
#
#
#
# Elastic Compliance Matrix: (Units=1/GPa)
#
#
# Indices 1 2 3 4 5 6 
#
# 1 0.010963 -0.002430 -0.002443 0.000000 0.000000 0.000000
# 2 -0.002430 0.011830 -0.002339 0.000000 0.000000 0.000000
# 3 -0.002443 -0.002339 0.008645 0.000000 0.000000 0.000000
# 4 0.000000 0.000000 0.000000 0.051439 0.000000 0.000000
# 5 0.000000 0.000000 0.000000 0.000000 0.041741 0.000000
# 6 0.000000 0.000000 0.000000 0.000000 0.000000 0.027540
#
#
# Mechanical properties :
#
#
# Convention : Reuss Voigt Hill
#
# Bulk Modulus (GPa) = 58.77713 60.34365 59.56039
# Shear Modulus (GPa) = 29.02739 31.77266 30.40002
#
# Velocity S-wave (km/s) = 3.67921 3.84927 3.76520
# Velocity P-wave (km/s) = 6.74232 6.92072 6.83211
#
# Compressibility (1/GPa) = 0.01701342
#
# Stress axis : x y z
#
# Youngs Moduli (GPa) = 91.21936 84.53377 115.67748
#
# Poissons Ratio (x) = 0.20538 0.28264
# Poissons Ratio (y) = 0.22162 0.27056
# Poissons Ratio (z) = 0.22288 0.19771
#
# Static dielectric constant tensor:
#      x y z
#    x 1.772820 0.000000 0.000000 
#    y 0.000000 1.836170 0.000000 
#    z 0.000000 0.000000 1.786520 
# 
# From -- ./inp_files/47439.got.cif
#   From: 2010.05.17/outbox.cif.g08.bks.cpg/sg72_24_cif.got.tgz:47439.got - 2010.06.03 17:03:01.
