data_PCOD9529470
_publ_section_title
;
Structure prediction by ZEFSAII (Michael W. Deem and Ramdas Pophale) SiO2 
 PCOD9529470
Probable space group: I B A M
;
_chemical_formula_sum "Si O2"
_cell_formula_units_Z 68
_cell_length_a 21.375121
_cell_length_b 7.098004
_cell_length_c 18.783462
_cell_angle_alpha 90.000000
_cell_angle_beta 90.000000
_cell_angle_gamma 90.000000
_cell_volume 2849.839897
_symmetry_space_group_name_H-M "I B A M"
_symmetry_group_IT_number 72
_symmetry_cell_setting 'orthorhombic'
loop_
_space_group_symop_operation_xyz
x,y,z
-x,-y,z
x,-y,1/2-z
-x,y,1/2-z
-x,-y,-z
x,y,-z
-x,y,1/2+z
x,-y,1/2+z
1/2+x,1/2+y,1/2+z
1/2-x,1/2-y,1/2+z
1/2+x,1/2-y,-z
1/2-x,1/2+y,-z
1/2-x,1/2-y,1/2-z
1/2+x,1/2+y,1/2-z
1/2-x,1/2+y,z
1/2+x,1/2-y,z
loop_
_atom_site_type_symbol
_atom_site_label
_atom_site_fract_x
_atom_site_fract_y
_atom_site_fract_z
Si Si1 0.065736 0.668078 0.884236
Si Si2 0.500000 0.000000 0.750000
Si Si3 0.690499 0.182574 0.338324
Si Si4 0.672072 0.738650 0.319701
Si Si5 0.936183 0.769994 0.077471
O O1 0.043360 0.623773 0.802379
O O2 0.135136 0.750121 0.889236
O O3 0.066485 0.461116 0.919706
O O4 0.010417 0.797296 0.913154
O O5 0.681655 0.296093 0.264365
O O6 0.763178 0.181091 0.357876
O O7 0.672712 0.965329 0.325656
O O8 0.609166 0.670600 0.357991
O O9 0.914435 0.833045 0.000000
#
# Coordination Sequence:
#
# PCOD9529470 Si02
#       5
#    16   4  16  16  16
#     4   9  14  23  41  61  83 107 140 177 210 246
#     4   8  12  20  38  64  84 102 132 180 220 238
#     4   9  16  28  45  66  85 109 139 176 213 247
#     4   9  17  28  44  64  89 111 137 172 213 252
#     4   9  16  26  39  61  87 112 138 174 212 247
#
# _framework density 23.860990999999999
#
# number of rings (size 3 to 8) (size 9 to 14) (size 15 to 20)
#    0.000    3.294    0.000    5.647    0.000    0.000 
#    0.000    5.882    0.000    1.412    0.000    8.235 
#    0.000    0.000    0.000    0.000    0.000    0.000 
#
# Total GULP energy -189624.644198 kJ/mol
# GULP energy per Si atom -5577.195418 kJ/mol
# Density = 2.380668 g / cm^3
# Si number density = 23.860991 Si / 1000 Ang^3
#
#
#
# Elastic Constant Matrix: (Units=GPa)
#
#
# Indices 1 2 3 4 5 6 
#
# 1 178.4533 -38.6401 5.9162 0.0000 0.0000 0.0000
# 2 -38.6401 51.8693 -30.9334 0.0000 0.0000 0.0000
# 3 5.9162 -30.9334 62.4128 0.0000 0.0000 0.0000
# 4 0.0000 0.0000 0.0000 4.4022 0.0000 0.0000
# 5 0.0000 0.0000 0.0000 0.0000 10.5979 0.0000
# 6 0.0000 0.0000 0.0000 0.0000 0.0000 19.8918
#
#
#
# Elastic Compliance Matrix: (Units=1/GPa)
#
#
# Indices 1 2 3 4 5 6 
#
# 1 0.006993 0.006834 0.002724 0.000000 0.000000 0.000000
# 2 0.006834 0.034048 0.016227 0.000000 0.000000 0.000000
# 3 0.002724 0.016227 0.023807 0.000000 0.000000 0.000000
# 4 0.000000 0.000000 0.000000 0.227158 0.000000 0.000000
# 5 0.000000 0.000000 0.000000 0.000000 0.094358 0.000000
# 6 0.000000 0.000000 0.000000 0.000000 0.000000 0.050272
#
#
# Mechanical properties :
#
#
# Convention : Reuss Voigt Hill
#
# Bulk Modulus (GPa) = 8.58963 18.38010 13.48486
# Shear Modulus (GPa) = 11.79606 30.73791 21.26698
#
# Velocity S-wave (km/s) = 2.22585 3.59305 2.98868
# Velocity P-wave (km/s) = 3.19586 4.99331 4.19205
#
# Compressibility (1/GPa) = 0.11641950
#
# Stress axis : x y z
#
# Youngs Moduli (GPa) = 142.99584 29.37041 42.00499
#
# Poissons Ratio (x) = -0.20073 -0.11444
# Poissons Ratio (y) = -0.97728 -0.68162
# Poissons Ratio (z) = -0.38957 -0.47660
#
# Static dielectric constant tensor:
#      x y z
#    x 2.000540 0.000000 0.000000 
#    y 0.000000 2.014290 0.000000 
#    z 0.000000 0.000000 2.053340 
# 
# From -- ./inp_files/33139.got.cif
#   From: 2010.05.17/outbox.cif.g08.bks.cpg/sg72_17_cif.got.tgz:33139.got - 2010.06.03 17:03:01.
