data_PCOD9529816
_publ_section_title
;
Structure prediction by ZEFSAII (Michael W. Deem and Ramdas Pophale) SiO2 
 PCOD9529816
Probable space group: I B C A 
;
_chemical_formula_sum "Si O2"
_cell_formula_units_Z 120
_cell_length_a 18.013833
_cell_length_b 17.777710
_cell_length_c 20.604600
_cell_angle_alpha 90.000000
_cell_angle_beta 90.000000
_cell_angle_gamma 90.000000
_cell_volume 6598.513926
_symmetry_space_group_name_H-M "I B C A "
_symmetry_group_IT_number 73
_symmetry_cell_setting 'orthorhombic'
loop_
_space_group_symop_operation_xyz
x,y,z
-x,1/2-y,z
x,-y,1/2-z
1/2-x,y,-z
-x,-y,-z
x,1/2+y,-z
-x,y,1/2+z
1/2+x,-y,z
1/2+x,1/2+y,1/2+z
1/2-x,-y,1/2+z
1/2+x,1/2-y,-z
-x,1/2+y,1/2-z
1/2-x,1/2-y,1/2-z
1/2+x,y,1/2-z
1/2-x,1/2+y,z
x,1/2-y,1/2+z
loop_
_atom_site_type_symbol
_atom_site_label
_atom_site_fract_x
_atom_site_fract_y
_atom_site_fract_z
Si Si1 0.085986 0.977742 0.820064
Si Si2 0.168005 0.328934 0.475698
Si Si3 0.750000 0.428855 0.500000
Si Si4 0.720609 0.453898 0.118342
Si Si5 0.877002 0.920132 0.897046
Si Si6 0.523348 0.330886 0.364663
Si Si7 0.518854 0.957843 0.432339
Si Si8 0.901517 0.828005 0.507047
O O1 0.077497 0.888190 0.827938
O O2 0.055909 0.000000 0.750000
O O3 0.169450 0.006402 0.829353
O O4 0.041850 0.018634 0.879187
O O5 0.250000 0.304719 0.500000
O O6 0.178827 0.382983 0.414422
O O7 0.137725 0.381354 0.533513
O O8 0.119327 0.254706 0.468239
O O9 0.737193 0.485183 0.438943
O O10 0.824825 0.377368 0.495942
O O11 0.800112 0.422873 0.140836
O O12 0.945816 0.875442 0.868303
O O13 0.905780 0.004036 0.907478
O O14 0.500000 0.250000 0.338048
O O15 0.561368 0.321156 0.435582
O O16 0.538331 0.872622 0.449560
O O17 0.500000 0.000000 0.500000
#
# Coordination Sequence:
#
# PCOD9529816 Si02
#       8
#    16  16   8  16  16  16  16  16
#     4  11  25  43  61  85 122 172 215 249 308 378
#     4  10  19  29  49  89 131 149 185 251 321 357
#     4  12  18  30  58  92 118 162 196 244 306 376
#     4  11  20  36  56  81 123 161 202 253 302 366
#     4  10  18  31  53  84 115 156 195 247 302 363
#     4  11  22  35  61  91 124 160 201 255 318 372
#     4  11  19  35  59  89 116 149 202 255 302 360
#     4  12  20  30  56  94 129 154 196 257 315 367
#
# _framework density 18.185912999999999
#
# number of rings (size 3 to 8) (size 9 to 14) (size 15 to 20)
#    0.000    1.067    9.333    0.800    0.000    0.000 
#    0.000    4.000    0.000    0.800    0.000    0.000 
#    0.000    0.000    0.000    0.000    0.000    0.000 
#
# Total GULP energy -334575.631926 kJ/mol
# GULP energy per Si atom -5576.260532 kJ/mol
# Density = 1.814452 g / cm^3
# Si number density = 18.185913 Si / 1000 Ang^3
#
#
#
# Elastic Constant Matrix: (Units=GPa)
#
#
# Indices 1 2 3 4 5 6 
#
# 1 78.7943 37.7190 12.7522 0.0000 0.0000 0.0000
# 2 37.7190 108.7504 12.6282 0.0000 0.0000 0.0000
# 3 12.7522 12.6282 52.1270 0.0000 0.0000 0.0000
# 4 0.0000 0.0000 0.0000 3.4135 0.0000 0.0000
# 5 0.0000 0.0000 0.0000 0.0000 12.2689 0.0000
# 6 0.0000 0.0000 0.0000 0.0000 0.0000 40.3880
#
#
#
# Elastic Compliance Matrix: (Units=1/GPa)
#
#
# Indices 1 2 3 4 5 6 
#
# 1 0.015545 -0.005093 -0.002569 0.000000 0.000000 0.000000
# 2 -0.005093 0.011130 -0.001450 0.000000 0.000000 0.000000
# 3 -0.002569 -0.001450 0.020164 0.000000 0.000000 0.000000
# 4 0.000000 0.000000 0.000000 0.292956 0.000000 0.000000
# 5 0.000000 0.000000 0.000000 0.000000 0.081507 0.000000
# 6 0.000000 0.000000 0.000000 0.000000 0.000000 0.024760
#
#
# Mechanical properties :
#
#
# Convention : Reuss Voigt Hill
#
# Bulk Modulus (GPa) = 34.94818 40.65225 37.80022
# Shear Modulus (GPa) = 10.55240 22.98555 16.76898
#
# Velocity S-wave (km/s) = 2.41145 3.55902 3.03988
# Velocity P-wave (km/s) = 5.19734 6.26826 5.75775
#
# Compressibility (1/GPa) = 0.02861379
#
# Stress axis : x y z
#
# Youngs Moduli (GPa) = 64.32823 89.84412 49.59387
#
# Poissons Ratio (x) = 0.45761 0.12741
# Poissons Ratio (y) = 0.32765 0.07193
# Poissons Ratio (z) = 0.16526 0.13031
#
# Static dielectric constant tensor:
#      x y z
#    x 1.699110 0.000000 0.000000 
#    y 0.000000 1.653300 0.000000 
#    z 0.000000 0.000000 1.636910 
# 
# From -- ./inp_files/26679.got.cif
#   From: 2010.05.17/outbox.cif.g08.bks.cpg/sg73_14_cif.got.tgz:26679.got - 2010.06.03 17:35:07.
