data_PCOD9529630
_publ_section_title
;
Structure prediction by ZEFSAII (Michael W. Deem and Ramdas Pophale) SiO2 
 PCOD9529630
Probable space group: I B C A 
;
_chemical_formula_sum "Si O2"
_cell_formula_units_Z 104
_cell_length_a 17.011086
_cell_length_b 25.084095
_cell_length_c 11.444974
_cell_angle_alpha 90.000000
_cell_angle_beta 90.000000
_cell_angle_gamma 90.000000
_cell_volume 4883.658501
_symmetry_space_group_name_H-M "I B C A "
_symmetry_group_IT_number 73
_symmetry_cell_setting 'orthorhombic'
loop_
_space_group_symop_operation_xyz
x,y,z
-x,1/2-y,z
x,-y,1/2-z
1/2-x,y,-z
-x,-y,-z
x,1/2+y,-z
-x,y,1/2+z
1/2+x,-y,z
1/2+x,1/2+y,1/2+z
1/2-x,-y,1/2+z
1/2+x,1/2-y,-z
-x,1/2+y,1/2-z
1/2-x,1/2-y,1/2-z
1/2+x,y,1/2-z
1/2-x,1/2+y,z
x,1/2-y,1/2+z
loop_
_atom_site_type_symbol
_atom_site_label
_atom_site_fract_x
_atom_site_fract_y
_atom_site_fract_z
Si Si1 0.359360 0.548079 0.665113
Si Si2 0.584382 0.999684 0.061052
Si Si3 0.443795 0.171404 0.599957
Si Si4 0.543293 0.078367 0.271132
Si Si5 0.659409 0.662550 0.130186
Si Si6 0.104874 0.207110 0.872551
Si Si7 0.250000 0.752422 0.500000
O O1 0.335462 0.500000 0.750000
O O2 0.358608 0.522136 0.536627
O O3 0.450033 0.565928 0.702518
O O4 0.311027 0.603279 0.662854
O O5 0.573265 0.040356 0.166895
O O6 0.591873 0.940942 0.115922
O O7 0.500000 0.000000 0.000000
O O8 0.440845 0.135441 0.715330
O O9 0.393414 0.154578 0.486980
O O10 0.418468 0.230821 0.633241
O O11 0.535230 0.175122 0.564687
O O12 0.614212 0.683704 0.243597
O O13 0.718333 0.710339 0.096849
O O14 0.184059 0.210037 0.945711
#
# Coordination Sequence:
#
# PCOD9529630 Si02
#       7
#    16  16  16  16  16  16   8
#     4  11  19  31  54  86 119 164 197 242 306 369
#     4   9  16  27  46  77 121 157 188 227 293 376
#     4  10  21  35  58  97 123 150 193 259 320 368
#     4  10  16  29  49  81 126 156 182 231 308 364
#     4  11  22  40  63  84 125 161 199 258 314 367
#     4  10  22  39  61  88 119 157 207 252 311 371
#     4  10  24  44  60  80 112 172 218 250 302 374
#
# _framework density 21.29551
#
# number of rings (size 3 to 8) (size 9 to 14) (size 15 to 20)
#    0.000    1.846    6.154    0.462    0.000    4.923 
#    0.000    0.000    0.000    4.615    0.000    0.000 
#    0.000    0.000    0.000    0.000    0.000    0.000 
#
# Total GULP energy -289837.731140 kJ/mol
# GULP energy per Si atom -5573.802522 kJ/mol
# Density = 2.124704 g / cm^3
# Si number density = 21.295510 Si / 1000 Ang^3
#
#
#
# Elastic Constant Matrix: (Units=GPa)
#
#
# Indices 1 2 3 4 5 6 
#
# 1 28.8990 -8.4507 2.2367 0.0000 0.0000 0.0000
# 2 -8.4507 60.3364 29.3216 0.0000 0.0000 0.0000
# 3 2.2367 29.3216 69.0308 0.0001 0.0000 0.0000
# 4 0.0000 0.0000 0.0001 40.4430 0.0000 0.0000
# 5 0.0000 0.0000 0.0000 0.0000 10.3375 0.0000
# 6 0.0000 0.0000 0.0000 0.0000 0.0000 2.3194
#
#
#
# Elastic Compliance Matrix: (Units=1/GPa)
#
#
# Indices 1 2 3 4 5 6 
#
# 1 0.037063 0.007277 -0.004292 0.000000 0.000000 0.000000
# 2 0.007277 0.022313 -0.009714 0.000000 0.000000 0.000000
# 3 -0.004292 -0.009714 0.018751 0.000000 0.000000 0.000000
# 4 0.000000 0.000000 0.000000 0.024726 0.000000 0.000000
# 5 0.000000 0.000000 0.000000 0.000000 0.096735 0.000000
# 6 0.000000 0.000000 0.000000 0.000000 0.000000 0.431149
#
#
# Mechanical properties :
#
#
# Convention : Reuss Voigt Hill
#
# Bulk Modulus (GPa) = 15.46295 22.72015 19.09155
# Shear Modulus (GPa) = 7.51030 19.63056 13.57043
#
# Velocity S-wave (km/s) = 1.87999 3.03944 2.52711
# Velocity P-wave (km/s) = 3.46257 4.79684 4.18325
#
# Compressibility (1/GPa) = 0.06467071
#
# Stress axis : x y z
#
# Youngs Moduli (GPa) = 26.98086 44.81598 53.32950
#
# Poissons Ratio (x) = -0.32612 0.22888
# Poissons Ratio (y) = -0.19633 0.51803
# Poissons Ratio (z) = 0.11580 0.43533
#
# Static dielectric constant tensor:
#      x y z
#    x 1.844670 0.000000 0.000000 
#    y 0.000000 1.815330 0.000000 
#    z 0.000000 0.000000 1.765500 
# 
# From -- ./inp_files/12178.got.cif
#   From: 2010.05.17/outbox.cif.g08.bks.cpg/sg73_7_cif.got.tgz:12178.got - 2010.06.03 17:35:07.
