data_PCOD9529230
_publ_section_title
;
Structure prediction by ZEFSAII (Michael W. Deem and Ramdas Pophale) SiO2 
 PCOD9529230
Probable space group: I B A M
;
_chemical_formula_sum "Si O2"
_cell_formula_units_Z 52
_cell_length_a 16.492926
_cell_length_b 5.319191
_cell_length_c 29.550888
_cell_angle_alpha 90.000000
_cell_angle_beta 90.000000
_cell_angle_gamma 90.000000
_cell_volume 2592.470549
_symmetry_space_group_name_H-M "I B A M"
_symmetry_group_IT_number 72
_symmetry_cell_setting 'orthorhombic'
loop_
_space_group_symop_operation_xyz
x,y,z
-x,-y,z
x,-y,1/2-z
-x,y,1/2-z
-x,-y,-z
x,y,-z
-x,y,1/2+z
x,-y,1/2+z
1/2+x,1/2+y,1/2+z
1/2-x,1/2-y,1/2+z
1/2+x,1/2-y,-z
1/2-x,1/2+y,-z
1/2-x,1/2-y,1/2-z
1/2+x,1/2+y,1/2-z
1/2-x,1/2+y,z
1/2+x,1/2-y,z
loop_
_atom_site_type_symbol
_atom_site_label
_atom_site_fract_x
_atom_site_fract_y
_atom_site_fract_z
Si Si1 0.081514 0.842575 0.822239
Si Si2 0.198610 0.000000 0.250000
Si Si3 0.943523 0.252197 0.922937
Si Si4 0.193342 0.756320 0.000000
Si Si5 0.000000 0.500000 0.250000
O O1 0.094532 0.738095 0.872221
O O2 0.058946 0.644499 0.783740
O O3 0.148312 0.005762 0.796935
O O4 0.000000 0.000000 0.827147
O O5 0.250000 0.250000 0.250000
O O6 0.868865 0.244857 0.957628
O O7 0.000000 0.500000 0.929447
O O8 0.000000 0.000000 0.927916
O O9 0.250265 0.506828 0.000000
#
# Coordination Sequence:
#
# PCOD9529230 Si02
#       5
#    16   8  16   8   4
#     4  11  23  39  67  92 127 177 227 274 317 386
#     4  12  26  38  57  91 136 172 210 268 330 390
#     4  11  24  43  71 101 126 173 232 282 324 393
#     4  12  26  46  70  98 140 176 208 276 354 414
#     4  12  16  40  68  90 132 162 230 266 326 360
#
# _framework density 20.058088000000001
#
# number of rings (size 3 to 8) (size 9 to 14) (size 15 to 20)
#    0.000    0.615    4.615    3.692    0.000    2.462 
#    0.000    0.000    0.000    0.000    0.000    0.000 
#    0.000    0.000    0.000    0.000    0.000    0.000 
#
# Total GULP energy -145132.040322 kJ/mol
# GULP energy per Si atom -5582.001551 kJ/mol
# Density = 2.001243 g / cm^3
# Si number density = 20.058088 Si / 1000 Ang^3
#
#
#
# Elastic Constant Matrix: (Units=GPa)
#
#
# Indices 1 2 3 4 5 6 
#
# 1 129.2248 72.1374 91.6548 0.0000 0.0000 0.0000
# 2 72.1374 150.6184 64.5131 0.0000 0.0000 0.0000
# 3 91.6548 64.5131 212.1603 0.0000 0.0000 0.0000
# 4 0.0000 0.0000 0.0000 28.6764 0.0000 0.0000
# 5 0.0000 0.0000 0.0000 0.0000 -975.0138 0.0000
# 6 0.0000 0.0000 0.0000 0.0000 0.0000 50.2055
#
#
#
# Elastic Compliance Matrix: (Units=1/GPa)
#
#
# Indices 1 2 3 4 5 6 
#
# 1 0.013392 -0.004525 -0.004409 0.000000 0.000000 0.000000
# 2 -0.004525 0.009163 -0.000831 0.000000 0.000000 0.000000
# 3 -0.004409 -0.000831 0.006871 0.000000 0.000000 0.000000
# 4 0.000000 0.000000 0.000000 0.034872 0.000000 0.000000
# 5 0.000000 0.000000 0.000000 0.000000 -0.001026 0.000000
# 6 0.000000 0.000000 0.000000 0.000000 0.000000 0.019918
#
#
# Mechanical properties :
#
#
# Convention : Reuss Voigt Hill
#
# Bulk Modulus (GPa) = 101.07222 105.40158 103.23690
# Shear Modulus (GPa) = 47.16081 -161.64650 -57.24285
#
# Velocity S-wave (km/s) = 4.85419 -8.98689 -5.34794
# Velocity P-wave (km/s) = 9.05078 7.41777 3.66698
#
# Compressibility (1/GPa) = 0.00989392
#
# Stress axis : x y z
#
# Youngs Moduli (GPa) = 74.67072 109.13810 145.53790
#
# Poissons Ratio (x) = 0.49389 0.64174
# Poissons Ratio (y) = 0.33791 0.12097
# Poissons Ratio (z) = 0.32926 0.09071
#
# Static dielectric constant tensor:
#      x y z
#    x 2.723880 0.000000 0.000000 
#    y 0.000000 1.822360 0.000000 
#    z 0.000000 0.000000 1.933550 
# 
# From -- ./inp_files/51635.got.cif
#   From: 2010.05.17/outbox.cif.g08.bks.cpg/sg72_26_cif.got.tgz:51635.got - 2010.06.03 17:03:01.
