data_PCOD9529942
_publ_section_title
;
Structure prediction by ZEFSAII (Michael W. Deem and Ramdas Pophale) SiO2 
 PCOD9529942
Probable space group: I B C A 
;
_chemical_formula_sum "Si O2"
_cell_formula_units_Z 120
_cell_length_a 13.359884
_cell_length_b 20.040039
_cell_length_c 24.727235
_cell_angle_alpha 90.000000
_cell_angle_beta 90.000000
_cell_angle_gamma 90.000000
_cell_volume 6620.286828
_symmetry_space_group_name_H-M "I B C A "
_symmetry_group_IT_number 73
_symmetry_cell_setting 'orthorhombic'
loop_
_space_group_symop_operation_xyz
x,y,z
-x,1/2-y,z
x,-y,1/2-z
1/2-x,y,-z
-x,-y,-z
x,1/2+y,-z
-x,y,1/2+z
1/2+x,-y,z
1/2+x,1/2+y,1/2+z
1/2-x,-y,1/2+z
1/2+x,1/2-y,-z
-x,1/2+y,1/2-z
1/2-x,1/2-y,1/2-z
1/2+x,y,1/2-z
1/2-x,1/2+y,z
x,1/2-y,1/2+z
loop_
_atom_site_type_symbol
_atom_site_label
_atom_site_fract_x
_atom_site_fract_y
_atom_site_fract_z
Si Si1 0.542906 0.595232 0.158582
Si Si2 0.148148 0.399729 0.336014
Si Si3 0.691094 0.717513 0.166007
Si Si4 0.898616 0.500000 0.750000
Si Si5 0.117135 0.257047 0.283729
Si Si6 0.656323 0.349349 0.891526
Si Si7 0.985544 0.527649 0.584936
Si Si8 0.140323 0.046837 0.022190
O O1 0.631234 0.649322 0.158204
O O2 0.540332 0.554621 0.215137
O O3 0.438167 0.630843 0.145595
O O4 0.557196 0.540218 0.111758
O O5 0.163834 0.459713 0.294170
O O6 0.140337 0.332400 0.301894
O O7 0.243771 0.388635 0.373566
O O8 0.048440 0.417227 0.370914
O O9 0.645253 0.750357 0.220826
O O10 0.808589 0.711340 0.180648
O O11 0.675379 0.770933 0.118001
O O12 0.000000 0.250000 0.291828
O O13 0.635582 0.380043 0.950318
O O14 0.931003 0.545471 0.529580
O O15 0.097539 0.506056 0.566727
O O16 0.250000 0.031506 0.000000
#
# Coordination Sequence:
#
# PCOD9529942 Si02
#       8
#    16  16  16   8  16  16  16  16
#     4  10  19  35  51  82 115 146 185 234 281 338
#     4  10  19  35  51  82 111 147 188 226 278 348
#     4  10  20  35  55  81 111 144 194 231 271 338
#     4  10  20  32  48  76 120 150 176 230 268 336
#     4  10  20  35  54  76 112 157 181 222 281 332
#     4  10  20  32  59  81 103 146 194 233 281 337
#     4   9  20  34  57  82 114 141 188 237 289 342
#     4  10  18  36  58  82 105 147 188 240 287 336
#
# _framework density 18.126101999999999
#
# number of rings (size 3 to 8) (size 9 to 14) (size 15 to 20)
#    0.000    2.133    2.667    1.200    0.000    0.533 
#    2.400    1.333    0.000    5.600    0.000    0.000 
#    0.000    0.000    0.000    0.000    0.000    0.000 
#
# Total GULP energy -334051.122185 kJ/mol
# GULP energy per Si atom -5567.518703 kJ/mol
# Density = 1.808485 g / cm^3
# Si number density = 18.126102 Si / 1000 Ang^3
#
#
#
# Elastic Constant Matrix: (Units=GPa)
#
#
# Indices 1 2 3 4 5 6 
#
# 1 97.9511 32.9964 17.9442 0.0000 0.0000 0.0000
# 2 32.9964 43.7736 33.3974 0.0000 0.0000 0.0000
# 3 17.9442 33.3974 78.0104 0.0000 0.0000 0.0000
# 4 0.0000 0.0000 0.0000 28.1277 0.0000 0.0000
# 5 0.0000 0.0000 0.0000 0.0000 21.2809 0.0000
# 6 0.0000 0.0000 0.0000 0.0000 0.0000 13.6212
#
#
#
# Elastic Compliance Matrix: (Units=1/GPa)
#
#
# Indices 1 2 3 4 5 6 
#
# 1 0.013873 -0.011914 0.001910 0.000000 0.000000 0.000000
# 2 -0.011914 0.044158 -0.016164 0.000000 0.000000 0.000000
# 3 0.001910 -0.016164 0.019300 0.000000 0.000000 0.000000
# 4 0.000000 0.000000 0.000000 0.035552 0.000000 0.000000
# 5 0.000000 0.000000 0.000000 0.000000 0.046990 0.000000
# 6 0.000000 0.000000 0.000000 0.000000 0.000000 0.073415
#
#
# Mechanical properties :
#
#
# Convention : Reuss Voigt Hill
#
# Bulk Modulus (GPa) = 40.01111 43.15680 41.58395
# Shear Modulus (GPa) = 17.00927 21.63245 19.32086
#
# Velocity S-wave (km/s) = 3.06663 3.45837 3.26838
# Velocity P-wave (km/s) = 5.88733 6.30936 6.10199
#
# Compressibility (1/GPa) = 0.02499306
#
# Stress axis : x y z
#
# Youngs Moduli (GPa) = 72.08329 22.64572 51.81412
#
# Poissons Ratio (x) = 0.26981 -0.09894
# Poissons Ratio (y) = 0.85882 0.83754
# Poissons Ratio (z) = -0.13765 0.36605
#
# Static dielectric constant tensor:
#      x y z
#    x 1.652760 0.000000 0.000000 
#    y 0.000000 1.629730 0.000000 
#    z 0.000000 0.000000 1.642680 
# 
# From -- ./inp_files/22196.got.cif
#   From: 2010.05.17/outbox.cif.g08.bks.cpg/sg73_12_cif.got.tgz:22196.got - 2010.06.03 17:35:07.
