data_PCOD9529558
_publ_section_title
;
Structure prediction by ZEFSAII (Michael W. Deem and Ramdas Pophale) SiO2 
 PCOD9529558
Probable space group: I B A M
;
_chemical_formula_sum "Si O2"
_cell_formula_units_Z 32
_cell_length_a 9.000000
_cell_length_b 15.000000
_cell_length_c 24.000000
_cell_angle_alpha 90.000000
_cell_angle_beta 90.000000
_cell_angle_gamma 90.000000
_cell_volume 3240.000000
_symmetry_space_group_name_H-M "I B A M"
_symmetry_group_IT_number 72
_symmetry_cell_setting 'orthorhombic'
loop_
_space_group_symop_operation_xyz
x,y,z
-x,-y,z
x,-y,1/2-z
-x,y,1/2-z
-x,-y,-z
x,y,-z
-x,y,1/2+z
x,-y,1/2+z
1/2+x,1/2+y,1/2+z
1/2-x,1/2-y,1/2+z
1/2+x,1/2-y,-z
1/2-x,1/2+y,-z
1/2-x,1/2-y,1/2-z
1/2+x,1/2+y,1/2-z
1/2-x,1/2+y,z
1/2+x,1/2-y,z
loop_
_atom_site_type_symbol
_atom_site_label
_atom_site_fract_x
_atom_site_fract_y
_atom_site_fract_z
Si Si1 0.764484 0.866694 0.881449
Si Si2 0.459888 0.213886 0.568263
Si Si3 0.179471 0.652073 0.752262
Si Si4 0.838066 0.549785 0.862969
O O1 0.624690 0.816007 0.910942
O O2 0.903034 0.806204 0.902411
O O3 0.735213 0.873737 0.814327
O O4 0.761227 0.973238 0.892836
O O5 0.452053 0.217855 0.500000
O O6 0.361396 0.134108 0.595889
O O7 0.250000 0.750000 0.750000
O O8 0.214018 0.589717 0.697713
O O9 0.000000 0.657449 0.750000
O O10 0.000000 0.500000 0.855064
#
# Coordination Sequence:
#
# PCOD9529558 Si02
#       4
#    16  16  16  16
#     4  11  22  39  62  88 122 157 201 255 305 361
#     4  11  23  39  60  88 121 163 209 249 296 355
#     4  12  20  37  65  94 125 157 193 253 312 371
#     4  10  21  36  63  92 119 156 205 246 303 362
#
# _framework density 9.8765429999999999
#
# number of rings (size 3 to 8) (size 9 to 14) (size 15 to 20)
#    0.000    1.000    7.500    1.500    0.000    5.500 
#    0.000    1.250    0.000    4.500    0.000    0.000 
#    0.000    0.000    0.000    0.000    0.000    0.000 
#
# Total GULP energy -178389.381350 kJ/mol
# GULP energy per Si atom -5574.668167 kJ/mol
# Density = 0.985406 g / cm^3
# Si number density = 9.876543 Si / 1000 Ang^3
#
#
#
# Elastic Constant Matrix: (Units=GPa)
#
#
# Indices 1 2 3 4 5 6 
#
# 1 19.0739 9.3219 2.4296 0.0000 0.0000 0.0000
# 2 9.3219 128.6278 23.8521 0.0000 0.0000 0.0000
# 3 2.4296 23.8521 143.8974 0.0000 0.0000 0.0000
# 4 0.0000 0.0000 0.0000 36.5225 0.0000 0.0000
# 5 0.0000 0.0000 0.0000 0.0000 23.2027 0.0000
# 6 0.0000 0.0000 0.0000 0.0000 0.0000 40.4574
#
#
#
# Elastic Compliance Matrix: (Units=1/GPa)
#
#
# Indices 1 2 3 4 5 6 
#
# 1 0.054363 -0.003889 -0.000273 0.000000 0.000000 0.000000
# 2 -0.003889 0.008299 -0.001310 0.000000 0.000000 0.000000
# 3 -0.000273 -0.001310 0.007171 0.000000 0.000000 0.000000
# 4 0.000000 0.000000 0.000000 0.027380 0.000000 0.000000
# 5 0.000000 0.000000 0.000000 0.000000 0.043098 0.000000
# 6 0.000000 0.000000 0.000000 0.000000 0.000000 0.024717
#
#
# Mechanical properties :
#
#
# Convention : Reuss Voigt Hill
#
# Bulk Modulus (GPa) = 16.98119 40.31183 28.64651
# Shear Modulus (GPa) = 25.56186 37.10287 31.33237
#
# Velocity S-wave (km/s) = 3.60122 4.33868 3.98703
# Velocity P-wave (km/s) = 5.08990 6.74915 5.97738
#
# Compressibility (1/GPa) = 0.05888870
#
# Stress axis : x y z
#
# Youngs Moduli (GPa) = 18.39482 120.49435 139.44763
#
# Poissons Ratio (x) = 0.46862 0.03810
# Poissons Ratio (y) = 0.07154 0.18267
# Poissons Ratio (z) = 0.00503 0.15785
#
# Static dielectric constant tensor:
#      x y z
#    x 1.745880 0.000000 0.000000 
#    y 0.000000 1.776250 0.000000 
#    z 0.000000 0.000000 1.728180 
# 
# From -- ./inp_files/36586.got.cif
#   From: 2010.05.17/outbox.ucp.g08.bks.cvg/sg72_19_cif.got.tgz:36586.got - 2010.06.11 16:33:07.
