data_PCOD9529321
_publ_section_title
;
Structure prediction by ZEFSAII (Michael W. Deem and Ramdas Pophale) SiO2 
 PCOD9529321
Probable space group: I B A M
;
_chemical_formula_sum "Si O2"
_cell_formula_units_Z 80
_cell_length_a 20.568026
_cell_length_b 10.772831
_cell_length_c 14.706269
_cell_angle_alpha 90.000000
_cell_angle_beta 90.000000
_cell_angle_gamma 90.000000
_cell_volume 3258.554320
_symmetry_space_group_name_H-M "I B A M"
_symmetry_group_IT_number 72
_symmetry_cell_setting 'orthorhombic'
loop_
_space_group_symop_operation_xyz
x,y,z
-x,-y,z
x,-y,1/2-z
-x,y,1/2-z
-x,-y,-z
x,y,-z
-x,y,1/2+z
x,-y,1/2+z
1/2+x,1/2+y,1/2+z
1/2-x,1/2-y,1/2+z
1/2+x,1/2-y,-z
1/2-x,1/2+y,-z
1/2-x,1/2-y,1/2-z
1/2+x,1/2+y,1/2-z
1/2-x,1/2+y,z
1/2+x,1/2-y,z
loop_
_atom_site_type_symbol
_atom_site_label
_atom_site_fract_x
_atom_site_fract_y
_atom_site_fract_z
Si Si1 0.387937 0.032961 0.099324
Si Si2 0.723315 0.318786 0.500000
Si Si3 0.183262 0.273144 0.695866
Si Si4 0.091965 0.108887 0.178702
Si Si5 0.013098 0.323745 0.145806
Si Si6 0.820577 0.088435 0.500000
O O1 0.337314 0.085987 0.171993
O O2 0.448351 0.129447 0.098223
O O3 0.424252 0.902920 0.115506
O O4 0.358448 0.030337 0.000000
O O5 0.688247 0.286431 0.404601
O O6 0.784653 0.222986 0.500000
O O7 0.726170 0.468172 0.500000
O O8 0.250000 0.250000 0.750000
O O9 0.129165 0.209925 0.758452
O O10 0.028743 0.179153 0.140298
O O11 0.136614 0.078614 0.091930
O O12 0.079633 0.000000 0.250000
O O13 0.000000 0.356396 0.250000
#
# Coordination Sequence:
#
# PCOD9529321 Si02
#       6
#    16   8  16  16  16   8
#     4  11  24  45  76 116 156 194 258 335 390 471
#     4  12  26  50  71 108 153 205 266 328 392 481
#     4  12  25  48  73 108 156 205 253 319 399 467
#     4  12  27  48  71 105 153 204 262 320 383 479
#     4  11  24  45  74 114 151 198 261 319 402 469
#     4  12  28  48  75 108 153 203 272 328 400 473
#
# _framework density 24.550764999999998
#
# number of rings (size 3 to 8) (size 9 to 14) (size 15 to 20)
#    0.000    0.400    7.000    2.400    2.800    2.000 
#    7.200    0.000    0.000    3.600    0.000    0.000 
#    0.000    0.000    0.000    0.000    0.000    0.000 
#
# Total GULP energy -223836.267283 kJ/mol
# GULP energy per Si atom -5595.906682 kJ/mol
# Density = 2.449489 g / cm^3
# Si number density = 24.550765 Si / 1000 Ang^3
#
#
#
# Elastic Constant Matrix: (Units=GPa)
#
#
# Indices 1 2 3 4 5 6 
#
# 1 85.1863 55.9268 46.9244 0.0000 0.0000 0.0000
# 2 55.9268 133.0569 60.5533 0.0000 0.0000 0.0000
# 3 46.9244 60.5533 183.0882 0.0000 0.0000 0.0000
# 4 0.0000 0.0000 0.0000 30.1360 0.0000 0.0000
# 5 0.0000 0.0000 0.0000 0.0000 3.2554 0.0000
# 6 0.0000 0.0000 0.0000 0.0000 0.0000 32.3030
#
#
#
# Elastic Compliance Matrix: (Units=1/GPa)
#
#
# Indices 1 2 3 4 5 6 
#
# 1 0.017032 -0.006089 -0.002351 0.000000 0.000000 0.000000
# 2 -0.006089 0.011024 -0.002085 0.000000 0.000000 0.000000
# 3 -0.002351 -0.002085 0.006754 0.000000 0.000000 0.000000
# 4 0.000000 0.000000 0.000000 0.033183 0.000000 0.000000
# 5 0.000000 0.000000 0.000000 0.000000 0.307181 0.000000
# 6 0.000000 0.000000 0.000000 0.000000 0.000000 0.030957
#
#
# Mechanical properties :
#
#
# Convention : Reuss Voigt Hill
#
# Bulk Modulus (GPa) = 72.68148 80.90448 76.79298
# Shear Modulus (GPa) = 11.58029 29.00068 20.29049
#
# Velocity S-wave (km/s) = 2.17419 3.44067 2.87796
# Velocity P-wave (km/s) = 5.99764 6.98640 6.51081
#
# Compressibility (1/GPa) = 0.01375866
#
# Stress axis : x y z
#
# Youngs Moduli (GPa) = 58.71458 90.71231 148.05549
#
# Poissons Ratio (x) = 0.55232 0.34813
# Poissons Ratio (y) = 0.35749 0.30877
# Poissons Ratio (z) = 0.13806 0.18918
#
# Static dielectric constant tensor:
#      x y z
#    x 1.997980 0.000000 0.000000 
#    y 0.000000 1.986320 0.000000 
#    z 0.000000 0.000000 1.957420 
# 
# From -- ./inp_files/24941.got.cif
#   From: 2010.05.17/outbox.cif.g08.bks.cpg/sg72_13_cif.got.tgz:24941.got - 2010.06.03 17:03:01.
