data_PCOD9529593
_publ_section_title
;
Structure prediction by ZEFSAII (Michael W. Deem and Ramdas Pophale) SiO2 
 PCOD9529593
Probable space group: I B A M
;
_chemical_formula_sum "Si O2"
_cell_formula_units_Z 56
_cell_length_a 12.000000
_cell_length_b 15.000000
_cell_length_c 30.000000
_cell_angle_alpha 90.000000
_cell_angle_beta 90.000000
_cell_angle_gamma 90.000000
_cell_volume 5400.000000
_symmetry_space_group_name_H-M "I B A M"
_symmetry_group_IT_number 72
_symmetry_cell_setting 'orthorhombic'
loop_
_space_group_symop_operation_xyz
x,y,z
-x,-y,z
x,-y,1/2-z
-x,y,1/2-z
-x,-y,-z
x,y,-z
-x,y,1/2+z
x,-y,1/2+z
1/2+x,1/2+y,1/2+z
1/2-x,1/2-y,1/2+z
1/2+x,1/2-y,-z
1/2-x,1/2+y,-z
1/2-x,1/2-y,1/2-z
1/2+x,1/2+y,1/2-z
1/2-x,1/2+y,z
1/2+x,1/2-y,z
loop_
_atom_site_type_symbol
_atom_site_label
_atom_site_fract_x
_atom_site_fract_y
_atom_site_fract_z
Si Si1 0.735373 0.610984 0.673548
Si Si2 0.077732 0.244156 0.052059
Si Si3 0.230348 0.611699 0.599316
Si Si4 0.579412 0.755505 0.290823
Si Si5 0.904915 0.745266 0.628682
Si Si6 0.881102 0.047469 0.587337
Si Si7 0.118724 0.452433 0.812328
O O1 0.679625 0.686430 0.703710
O O2 0.829047 0.661900 0.643766
O O3 0.645490 0.572052 0.638754
O O4 0.790757 0.527992 0.698465
O O5 0.168698 0.316226 0.068571
O O6 0.117744 0.142674 0.062498
O O7 0.967184 0.261597 0.081464
O O8 0.056555 0.253306 0.000000
O O9 0.325701 0.667945 0.625645
O O10 0.288628 0.527457 0.575453
O O11 0.144984 0.573913 0.636207
O O12 0.500000 0.733563 0.250000
O O13 0.503076 0.747999 0.335061
O O14 0.619189 0.857999 0.287305
O O15 0.000000 0.000000 0.582164
O O16 0.000000 0.500000 0.807382
#
# Coordination Sequence:
#
# PCOD9529593 Si02
#       7
#    16  16  16  16  16  16  16
#     4  11  22  42  71  98 135 188 224 278 347 407
#     4  12  25  41  66 101 139 178 228 288 345 406
#     4  11  22  41  71  92 132 185 228 278 346 411
#     4  12  25  43  70 104 137 178 225 288 345 412
#     4  12  20  46  66  94 138 176 230 270 349 408
#     4  11  21  40  69  96 130 177 229 277 342 411
#     4  11  21  41  69 100 134 181 230 276 338 412
#
# _framework density 10.370369999999999
#
# number of rings (size 3 to 8) (size 9 to 14) (size 15 to 20)
#    0.000    0.571    8.571    0.000    0.000    2.286 
#    0.000    0.000    3.143    7.286    0.000    0.000 
#    0.000    0.000    0.000    0.000    0.000    0.000 
#
# Total GULP energy -313285.251912 kJ/mol
# GULP energy per Si atom -5594.379498 kJ/mol
# Density = 1.034677 g / cm^3
# Si number density = 10.370370 Si / 1000 Ang^3
#
#
#
# Elastic Constant Matrix: (Units=GPa)
#
#
# Indices 1 2 3 4 5 6 
#
# 1 81.4175 63.2577 40.2686 0.0000 0.0000 0.0000
# 2 63.2577 172.3860 48.7554 0.0000 0.0000 0.0000
# 3 40.2686 48.7554 94.2973 0.0000 0.0000 0.0000
# 4 0.0000 0.0000 0.0000 16.0200 0.0000 0.0000
# 5 0.0000 0.0000 0.0000 0.0000 20.7893 0.0000
# 6 0.0000 0.0000 0.0000 0.0000 0.0000 48.5987
#
#
#
# Elastic Compliance Matrix: (Units=1/GPa)
#
#
# Indices 1 2 3 4 5 6 
#
# 1 0.019236 -0.005547 -0.005347 0.000000 0.000000 0.000000
# 2 -0.005547 0.008394 -0.001971 0.000000 0.000000 0.000000
# 3 -0.005347 -0.001971 0.013907 0.000000 0.000000 0.000000
# 4 0.000000 0.000000 0.000000 0.062422 0.000000 0.000000
# 5 0.000000 0.000000 0.000000 0.000000 0.048102 0.000000
# 6 0.000000 0.000000 0.000000 0.000000 0.000000 0.020577
#
#
# Mechanical properties :
#
#
# Convention : Reuss Voigt Hill
#
# Bulk Modulus (GPa) = 63.25936 72.51823 67.88880
# Shear Modulus (GPa) = 24.55351 30.13619 27.34485
#
# Velocity S-wave (km/s) = 3.44442 3.81595 3.63493
# Velocity P-wave (km/s) = 6.81065 7.37939 7.10071
#
# Compressibility (1/GPa) = 0.01580794
#
# Stress axis : x y z
#
# Youngs Moduli (GPa) = 51.98485 119.13512 71.90466
#
# Poissons Ratio (x) = 0.66080 0.38446
# Poissons Ratio (y) = 0.28834 0.14175
# Poissons Ratio (z) = 0.27795 0.23485
#
# Static dielectric constant tensor:
#      x y z
#    x 1.754460 0.000000 0.000000 
#    y 0.000000 1.745010 0.000000 
#    z 0.000000 0.000000 1.725580 
# 
# From -- ./inp_files/51451.got.cif
#   From: 2010.05.17/outbox.ucp.g08.bks.cvg/sg72_26_cif.got.tgz:51451.got - 2010.06.11 16:33:07.
