data_PCOD9529746
_publ_section_title
;
Structure prediction by ZEFSAII (Michael W. Deem and Ramdas Pophale) SiO2 
 PCOD9529746
Probable space group: I B C A 
;
_chemical_formula_sum "Si O2"
_cell_formula_units_Z 80
_cell_length_a 15.060951
_cell_length_b 17.385773
_cell_length_c 16.166785
_cell_angle_alpha 90.000000
_cell_angle_beta 90.000000
_cell_angle_gamma 90.000000
_cell_volume 4233.212435
_symmetry_space_group_name_H-M "I B C A "
_symmetry_group_IT_number 73
_symmetry_cell_setting 'orthorhombic'
loop_
_space_group_symop_operation_xyz
x,y,z
-x,1/2-y,z
x,-y,1/2-z
1/2-x,y,-z
-x,-y,-z
x,1/2+y,-z
-x,y,1/2+z
1/2+x,-y,z
1/2+x,1/2+y,1/2+z
1/2-x,-y,1/2+z
1/2+x,1/2-y,-z
-x,1/2+y,1/2-z
1/2-x,1/2-y,1/2-z
1/2+x,y,1/2-z
1/2-x,1/2+y,z
x,1/2-y,1/2+z
loop_
_atom_site_type_symbol
_atom_site_label
_atom_site_fract_x
_atom_site_fract_y
_atom_site_fract_z
Si Si1 0.702575 0.610275 0.312588
Si Si2 0.797470 0.931023 0.369761
Si Si3 0.613408 0.559957 0.958817
Si Si4 0.546829 0.670443 0.424838
Si Si5 0.837357 0.114476 0.559036
O O1 0.693037 0.616005 0.214517
O O2 0.699991 0.520339 0.340655
O O3 0.621749 0.651356 0.358012
O O4 0.796469 0.636588 0.352572
O O5 0.867711 0.923760 0.444175
O O6 0.701434 0.913767 0.409480
O O7 0.526409 0.603210 0.928725
O O8 0.613742 0.468126 0.942968
O O9 0.500000 0.750000 0.407510
O O10 0.598014 0.672833 0.512977
O O11 0.750000 0.104845 0.500000
#
# Coordination Sequence:
#
# PCOD9529746 Si02
#       5
#    16  16  16  16  16
#     4   9  18  36  57  84 114 141 186 239 290 330
#     4   9  17  35  60  84 105 143 187 241 287 325
#     4  10  17  35  59  81 108 143 194 237 278 337
#     4  11  22  35  53  83 118 151 185 226 284 347
#     4   9  16  35  58  78 108 147 184 238 282 329
#
# _framework density 18.898177
#
# number of rings (size 3 to 8) (size 9 to 14) (size 15 to 20)
#    0.000    2.400    6.000    0.600    0.000    0.000 
#   14.400    4.000    0.000    0.000    0.000    0.000 
#    0.000    0.000    0.000    0.000    0.000    0.000 
#
# Total GULP energy -222964.821736 kJ/mol
# GULP energy per Si atom -5574.120543 kJ/mol
# Density = 1.885516 g / cm^3
# Si number density = 18.898177 Si / 1000 Ang^3
#
#
#
# Elastic Constant Matrix: (Units=GPa)
#
#
# Indices 1 2 3 4 5 6 
#
# 1 78.1395 40.0096 41.3057 0.0000 0.0000 0.0000
# 2 40.0096 24.6308 25.5706 0.0000 0.0000 0.0000
# 3 41.3057 25.5706 143.0689 0.0000 0.0000 0.0000
# 4 0.0000 0.0000 0.0000 10.8497 0.0000 0.0000
# 5 0.0000 0.0000 0.0000 0.0000 28.6528 0.0000
# 6 0.0000 0.0000 0.0000 0.0000 0.0000 -14.1222
#
#
#
# Elastic Compliance Matrix: (Units=1/GPa)
#
#
# Indices 1 2 3 4 5 6 
#
# 1 0.076054 -0.123696 0.000150 0.000000 0.000000 0.000000
# 2 -0.123696 0.251030 -0.009154 0.000000 0.000000 0.000000
# 3 0.000150 -0.009154 0.008582 0.000000 0.000000 0.000000
# 4 0.000000 0.000000 0.000000 0.092168 0.000000 0.000000
# 5 0.000000 0.000000 0.000000 0.000000 0.034901 0.000000
# 6 0.000000 0.000000 0.000000 0.000000 0.000000 -0.070810
#
#
# Mechanical properties :
#
#
# Convention : Reuss Voigt Hill
#
# Bulk Modulus (GPa) = 14.23125 51.06789 32.64957
# Shear Modulus (GPa) = 7.34488 14.33962 10.84225
#
# Velocity S-wave (km/s) = 1.97357 2.75759 2.39784
# Velocity P-wave (km/s) = 3.56934 6.10085 4.99803
#
# Compressibility (1/GPa) = 0.07026792
#
# Stress axis : x y z
#
# Youngs Moduli (GPa) = 13.14861 3.98358 116.51859
#
# Poissons Ratio (x) = 0.49275 -0.01753
# Poissons Ratio (y) = 1.62642 1.06663
# Poissons Ratio (z) = -0.00198 0.03647
#
# Static dielectric constant tensor:
#      x y z
#    x 1.649680 0.000000 0.000000 
#    y 0.000000 1.655210 0.000000 
#    z 0.000000 0.000000 1.691120 
# 
# From -- ./inp_files/21880.got.cif
#   From: 2010.05.17/outbox.cif.g08.bks.cpg/sg73_11_cif.got.tgz:21880.got - 2010.06.03 17:35:07.
