data_PCOD9529479
_publ_section_title
;
Structure prediction by ZEFSAII (Michael W. Deem and Ramdas Pophale) SiO2 
 PCOD9529479
Probable space group: I B A M
;
_chemical_formula_sum "Si O2"
_cell_formula_units_Z 128
_cell_length_a 13.542130
_cell_length_b 22.392470
_cell_length_c 20.410184
_cell_angle_alpha 90.000000
_cell_angle_beta 90.000000
_cell_angle_gamma 90.000000
_cell_volume 6189.219705
_symmetry_space_group_name_H-M "I B A M"
_symmetry_group_IT_number 72
_symmetry_cell_setting 'orthorhombic'
loop_
_space_group_symop_operation_xyz
x,y,z
-x,-y,z
x,-y,1/2-z
-x,y,1/2-z
-x,-y,-z
x,y,-z
-x,y,1/2+z
x,-y,1/2+z
1/2+x,1/2+y,1/2+z
1/2-x,1/2-y,1/2+z
1/2+x,1/2-y,-z
1/2-x,1/2+y,-z
1/2-x,1/2-y,1/2-z
1/2+x,1/2+y,1/2-z
1/2-x,1/2+y,z
1/2+x,1/2-y,z
loop_
_atom_site_type_symbol
_atom_site_label
_atom_site_fract_x
_atom_site_fract_y
_atom_site_fract_z
Si Si1 0.873958 0.760971 0.322110
Si Si2 0.832698 0.418891 0.687525
Si Si3 0.093304 0.078030 0.840508
Si Si4 0.137567 0.286376 0.821635
Si Si5 0.856392 0.662240 0.425909
Si Si6 0.122656 0.189310 0.072548
Si Si7 0.683044 0.952116 0.840525
Si Si8 0.392586 0.607114 0.309983
O O1 0.894188 0.735059 0.250186
O O2 0.756431 0.776077 0.322496
O O3 0.898298 0.711441 0.375996
O O4 0.919383 0.826241 0.332335
O O5 0.884147 0.356613 0.669740
O O6 0.863189 0.481786 0.655860
O O7 0.836200 0.428194 0.766455
O O8 0.717264 0.409680 0.669438
O O9 0.092578 0.125553 0.898667
O O10 0.196471 0.042359 0.847588
O O11 0.109804 0.108672 0.769156
O O12 0.977313 0.061343 0.832833
O O13 0.100338 0.242747 0.877947
O O14 0.896815 0.661368 0.500000
O O15 0.741576 0.682343 0.430660
O O16 0.854842 0.597279 0.391354
O O17 0.083076 0.199997 0.000000
#
# Coordination Sequence:
#
# PCOD9529479 Si02
#       8
#    16  16  16  16  16  16  16  16
#     4   9  14  24  41  59  79 103 135 178 221 255
#     4   9  16  25  40  61  83 110 145 181 213 242
#     4   9  16  26  39  58  85 115 145 173 204 246
#     4   9  14  24  41  59  79 103 135 178 221 255
#     4   9  16  26  41  59  79 107 140 172 211 258
#     4   9  16  26  41  59  79 107 140 172 211 258
#     4   9  16  26  39  58  85 115 145 173 204 246
#     4   9  16  25  40  61  83 110 145 181 213 242
#
# _framework density 20.68112
#
# number of rings (size 3 to 8) (size 9 to 14) (size 15 to 20)
#    0.000    3.000    2.500    0.000    0.000    0.500 
#    0.000    3.750    0.000    2.250    0.000    3.500 
#    0.000    1.000    2.000    2.250    0.000    0.250 
#
# Total GULP energy -356618.771272 kJ/mol
# GULP energy per Si atom -5572.168301 kJ/mol
# Density = 2.063405 g / cm^3
# Si number density = 20.681120 Si / 1000 Ang^3
#
#
#
# Elastic Constant Matrix: (Units=GPa)
#
#
# Indices 1 2 3 4 5 6 
#
# 1 31.5187 -4.8636 -3.4175 0.0000 0.0000 0.0000
# 2 -4.8636 157.2226 64.7159 0.0000 0.0000 0.0000
# 3 -3.4175 64.7159 116.7498 0.0000 0.0000 0.0000
# 4 0.0000 0.0000 0.0000 13.6905 0.0000 0.0000
# 5 0.0000 0.0000 0.0000 0.0000 -6.9128 0.0000
# 6 0.0000 0.0000 0.0000 0.0000 0.0000 12.9715
#
#
#
# Elastic Compliance Matrix: (Units=1/GPa)
#
#
# Indices 1 2 3 4 5 6 
#
# 1 0.031902 0.000781 0.000501 0.000000 0.000000 0.000000
# 2 0.000781 0.008260 -0.004556 0.000000 0.000000 0.000000
# 3 0.000501 -0.004556 0.011105 0.000000 0.000000 0.000000
# 4 0.000000 0.000000 0.000000 0.073043 0.000000 0.000000
# 5 0.000000 0.000000 0.000000 0.000000 -0.144659 0.000000
# 6 0.000000 0.000000 0.000000 0.000000 0.000000 0.077092
#
#
# Mechanical properties :
#
#
# Convention : Reuss Voigt Hill
#
# Bulk Modulus (GPa) = 22.36175 46.48452 34.42314
# Shear Modulus (GPa) = 63.94029 20.55358 42.24693
#
# Velocity S-wave (km/s) = 5.56636 3.15593 4.52461
# Velocity P-wave (km/s) = 7.22140 5.98377 6.63152
#
# Compressibility (1/GPa) = 0.04471921
#
# Stress axis : x y z
#
# Youngs Moduli (GPa) = 31.34597 121.06914 90.04755
#
# Poissons Ratio (x) = -0.09451 -0.04513
# Poissons Ratio (y) = -0.02447 0.41022
# Poissons Ratio (z) = -0.01571 0.55155
#
# Static dielectric constant tensor:
#      x y z
#    x 1.811570 0.000000 0.000000 
#    y 0.000000 1.753610 0.000000 
#    z 0.000000 0.000000 1.698420 
# 
# From -- ./inp_files/32089.got.cif
#   From: 2010.05.17/outbox.cif.g08.bks.cpg/sg72_17_cif.got.tgz:32089.got - 2010.06.03 17:03:01.
