data_PCOD9529792
_publ_section_title
;
Structure prediction by ZEFSAII (Michael W. Deem and Ramdas Pophale) SiO2 
 PCOD9529792
Probable space group: I B C A 
;
_chemical_formula_sum "Si O2"
_cell_formula_units_Z 96
_cell_length_a 10.713508
_cell_length_b 24.827876
_cell_length_c 15.645059
_cell_angle_alpha 90.000000
_cell_angle_beta 90.000000
_cell_angle_gamma 90.000000
_cell_volume 4161.486319
_symmetry_space_group_name_H-M "I B C A "
_symmetry_group_IT_number 73
_symmetry_cell_setting 'orthorhombic'
loop_
_space_group_symop_operation_xyz
x,y,z
-x,1/2-y,z
x,-y,1/2-z
1/2-x,y,-z
-x,-y,-z
x,1/2+y,-z
-x,y,1/2+z
1/2+x,-y,z
1/2+x,1/2+y,1/2+z
1/2-x,-y,1/2+z
1/2+x,1/2-y,-z
-x,1/2+y,1/2-z
1/2-x,1/2-y,1/2-z
1/2+x,y,1/2-z
1/2-x,1/2+y,z
x,1/2-y,1/2+z
loop_
_atom_site_type_symbol
_atom_site_label
_atom_site_fract_x
_atom_site_fract_y
_atom_site_fract_z
Si Si1 0.628439 0.876289 0.563176
Si Si2 0.728351 0.220767 0.839469
Si Si3 0.021092 0.490119 0.100997
Si Si4 0.255169 0.831936 0.600595
Si Si5 0.987918 0.309768 0.422724
Si Si6 0.762143 0.549659 0.394727
O O1 0.750000 0.882286 0.500000
O O2 0.644577 0.830001 0.634671
O O3 0.587302 0.931918 0.604032
O O4 0.527729 0.854190 0.495472
O O5 0.750000 0.250000 0.750000
O O6 0.682062 0.273904 0.889669
O O7 0.863071 0.197152 0.867946
O O8 0.124364 0.531694 0.135491
O O9 0.878818 0.487253 0.134105
O O10 0.000000 0.500000 0.000000
O O11 0.250000 0.839729 0.500000
O O12 0.296260 0.889645 0.634882
O O13 0.111690 0.822659 0.629958
O O14 0.000000 0.250000 0.460886
O O15 0.750000 0.546950 0.500000
#
# Coordination Sequence:
#
# PCOD9529792 Si02
#       6
#    16  16  16  16  16  16
#     4  10  18  30  53  80 109 146 190 242 295 349
#     4  10  21  35  51  78 115 151 192 239 293 360
#     4  10  18  30  49  83 116 142 183 239 297 355
#     4  10  18  34  55  78 109 145 188 237 294 357
#     4   9  17  31  50  76 106 145 187 231 289 351
#     4   9  18  30  50  79 111 142 177 231 293 351
#
# _framework density 23.068681999999999
#
# number of rings (size 3 to 8) (size 9 to 14) (size 15 to 20)
#    0.000    2.333    0.000    7.000    0.000    1.333 
#    0.000   12.500    0.000    1.000    0.000    7.000 
#    0.000    0.000    0.000    0.000    0.000    0.000 
#
# Total GULP energy -267297.354604 kJ/mol
# GULP energy per Si atom -5568.694888 kJ/mol
# Density = 2.301618 g / cm^3
# Si number density = 23.068682 Si / 1000 Ang^3
#
#
#
# Elastic Constant Matrix: (Units=GPa)
#
#
# Indices 1 2 3 4 5 6 
#
# 1 87.5062 18.9540 3.1282 0.0000 0.0000 0.0000
# 2 18.9540 102.4661 3.8617 0.0000 0.0000 0.0000
# 3 3.1282 3.8617 35.6333 0.0000 0.0000 0.0000
# 4 0.0000 0.0000 0.0000 -38.3170 0.0000 0.0000
# 5 0.0000 0.0000 0.0000 0.0000 -0.6150 0.0000
# 6 0.0000 0.0000 0.0000 0.0000 0.0000 38.4096
#
#
#
# Elastic Compliance Matrix: (Units=1/GPa)
#
#
# Indices 1 2 3 4 5 6 
#
# 1 0.011928 -0.002176 -0.000811 0.000000 0.000000 0.000000
# 2 -0.002176 0.010196 -0.000914 0.000000 0.000000 0.000000
# 3 -0.000811 -0.000914 0.028234 0.000000 -0.000002 0.000000
# 4 0.000000 0.000000 0.000000 -0.026098 0.000001 0.000000
# 5 0.000000 0.000000 -0.000002 0.000001 -1.625984 0.000000
# 6 0.000000 0.000000 0.000000 0.000000 0.000000 0.026035
#
#
# Mechanical properties :
#
#
# Convention : Reuss Voigt Hill
#
# Bulk Modulus (GPa) = 23.49853 30.83260 27.16557
# Shear Modulus (GPa) = -3.21812 13.20629 4.99408
#
# Velocity S-wave (km/s) = -1.18239 2.39524 1.47295
# Velocity P-wave (km/s) = 2.88867 4.58739 3.83331
#
# Compressibility (1/GPa) = 0.04255585
#
# Stress axis : x y z
#
# Youngs Moduli (GPa) = 83.83591 98.07518 35.41841
#
# Poissons Ratio (x) = 0.21340 0.02874
# Poissons Ratio (y) = 0.18241 0.03237
# Poissons Ratio (z) = 0.06802 0.08964
#
# Static dielectric constant tensor:
#      x y z
#    x 1.961500 0.000000 0.000000 
#    y 0.000000 2.630830 0.000000 
#    z 0.000000 0.000000 1.933270 
# 
# From -- ./inp_files/21364.got.cif
#   From: 2010.05.17/outbox.cif.g08.bks.cpg/sg73_11_cif.got.tgz:21364.got - 2010.06.03 17:35:07.
