data_PCOD9529010
_publ_section_title
;
Structure prediction by ZEFSAII (Michael W. Deem and Ramdas Pophale) SiO2 
 PCOD9529010
Probable space group: I B A M
;
_chemical_formula_sum "Si O2"
_cell_formula_units_Z 96
_cell_length_a 27.351372
_cell_length_b 25.711157
_cell_length_c 9.799219
_cell_angle_alpha 90.000000
_cell_angle_beta 90.000000
_cell_angle_gamma 90.000000
_cell_volume 6891.157886
_symmetry_space_group_name_H-M "I B A M"
_symmetry_group_IT_number 72
_symmetry_cell_setting 'orthorhombic'
loop_
_space_group_symop_operation_xyz
x,y,z
-x,-y,z
x,-y,1/2-z
-x,y,1/2-z
-x,-y,-z
x,y,-z
-x,y,1/2+z
x,-y,1/2+z
1/2+x,1/2+y,1/2+z
1/2-x,1/2-y,1/2+z
1/2+x,1/2-y,-z
1/2-x,1/2+y,-z
1/2-x,1/2-y,1/2-z
1/2+x,1/2+y,1/2-z
1/2-x,1/2+y,z
1/2+x,1/2-y,z
loop_
_atom_site_type_symbol
_atom_site_label
_atom_site_fract_x
_atom_site_fract_y
_atom_site_fract_z
Si Si1 0.241632 0.171291 0.844513
Si Si2 0.352542 0.617217 0.744263
Si Si3 0.899212 0.226992 0.837670
Si Si4 0.093240 0.069490 0.000000
Si Si5 0.500000 0.685921 0.250000
Si Si6 0.010955 0.892873 0.000000
Si Si7 0.383423 0.550831 0.500000
Si Si8 0.319198 0.219973 0.658102
O O1 0.201540 0.129277 0.798647
O O2 0.284938 0.178752 0.736174
O O3 0.212029 0.226173 0.846287
O O4 0.258516 0.162051 0.000000
O O5 0.373301 0.670419 0.678236
O O6 0.387010 0.600547 0.869197
O O7 0.356086 0.572519 0.632398
O O8 0.951590 0.220644 0.764772
O O9 0.865637 0.266816 0.752819
O O10 0.903228 0.238338 0.000000
O O11 0.112377 0.010877 0.000000
O O12 0.034686 0.068349 0.000000
O O13 0.495539 0.646230 0.374877
O O14 0.062417 0.922644 0.000000
O O15 0.330408 0.206894 0.500000
#
# Coordination Sequence:
#
# PCOD9529010 Si02
#       8
#    16  16  16   8   8   8   8  16
#     4   9  17  30  46  64  86 107 131 164 219 273
#     4  11  20  33  48  63  82 111 142 183 231 281
#     4  11  20  32  46  63  89 113 143 181 224 267
#     4  12  23  34  50  60  85 109 154 198 241 285
#     4  12  20  30  49  62  84 116 156 184 227 274
#     4  12  21  36  46  62  78 114 152 200 242 280
#     4  12  23  36  44  66  83 113 148 200 247 277
#     4   9  19  28  46  71  86 105 129 170 213 266
#
# _framework density 13.930895
#
# number of rings (size 3 to 8) (size 9 to 14) (size 15 to 20)
#    0.000    1.333    5.833    1.250    3.500    2.000 
#    0.000    2.500    0.000    0.000    0.000    0.000 
#    0.000    0.000    0.000    0.000    0.000    0.000 
#
# Total GULP energy -267656.793025 kJ/mol
# GULP energy per Si atom -5576.183188 kJ/mol
# Density = 1.389919 g / cm^3
# Si number density = 13.930895 Si / 1000 Ang^3
#
#
#
# Elastic Constant Matrix: (Units=GPa)
#
#
# Indices 1 2 3 4 5 6 
#
# 1 57.9453 25.4789 20.9507 0.0000 0.0000 0.0000
# 2 25.4789 28.0617 16.6253 0.0000 0.0000 0.0000
# 3 20.9507 16.6253 87.7622 0.0000 0.0000 0.0000
# 4 0.0000 0.0000 0.0000 10.4775 0.0000 0.0000
# 5 0.0000 0.0000 0.0000 0.0000 18.7590 0.0000
# 6 0.0000 0.0000 0.0000 0.0000 0.0000 17.9234
#
#
#
# Elastic Compliance Matrix: (Units=1/GPa)
#
#
# Indices 1 2 3 4 5 6 
#
# 1 0.029094 -0.025121 -0.002187 0.000000 0.000000 0.000000
# 2 -0.025121 0.061831 -0.005716 0.000000 0.000000 0.000000
# 3 -0.002187 -0.005716 0.012999 0.000000 0.000000 0.000000
# 4 0.000000 0.000000 0.000000 0.095442 0.000000 0.000000
# 5 0.000000 0.000000 0.000000 0.000000 0.053308 0.000000
# 6 0.000000 0.000000 0.000000 0.000000 0.000000 0.055793
#
#
# Mechanical properties :
#
#
# Convention : Reuss Voigt Hill
#
# Bulk Modulus (GPa) = 26.40103 33.31988 29.86046
# Shear Modulus (GPa) = 12.91523 16.81295 14.86409
#
# Velocity S-wave (km/s) = 3.04812 3.47779 3.27002
# Velocity P-wave (km/s) = 5.60184 6.33219 5.97818
#
# Compressibility (1/GPa) = 0.03787731
#
# Stress axis : x y z
#
# Youngs Moduli (GPa) = 34.37141 16.17314 76.92752
#
# Poissons Ratio (x) = 0.40628 0.16821
# Poissons Ratio (y) = 0.86343 0.43973
# Poissons Ratio (z) = 0.07516 0.09245
#
# Static dielectric constant tensor:
#      x y z
#    x 1.474250 0.000000 0.000000 
#    y 0.000000 1.421040 0.000000 
#    z 0.000000 0.000000 1.873200 
# 
# From -- ./inp_files/8311.got.cif
#   From: 2010.05.17/outbox.cif.g08.bks.cpg/sg72_5_cif.got.tgz:8311.got - 2010.06.03 17:03:01.
