data_PCOD9529075
_publ_section_title
;
Structure prediction by ZEFSAII (Michael W. Deem and Ramdas Pophale) SiO2 
 PCOD9529075
Probable space group: I B A M
;
_chemical_formula_sum "Si O2"
_cell_formula_units_Z 68
_cell_length_a 15.408046
_cell_length_b 13.961179
_cell_length_c 15.444086
_cell_angle_alpha 90.000000
_cell_angle_beta 90.000000
_cell_angle_gamma 90.000000
_cell_volume 3322.246656
_symmetry_space_group_name_H-M "I B A M"
_symmetry_group_IT_number 72
_symmetry_cell_setting 'orthorhombic'
loop_
_space_group_symop_operation_xyz
x,y,z
-x,-y,z
x,-y,1/2-z
-x,y,1/2-z
-x,-y,-z
x,y,-z
-x,y,1/2+z
x,-y,1/2+z
1/2+x,1/2+y,1/2+z
1/2-x,1/2-y,1/2+z
1/2+x,1/2-y,-z
1/2-x,1/2+y,-z
1/2-x,1/2-y,1/2-z
1/2+x,1/2+y,1/2-z
1/2-x,1/2+y,z
1/2+x,1/2-y,z
loop_
_atom_site_type_symbol
_atom_site_label
_atom_site_fract_x
_atom_site_fract_y
_atom_site_fract_z
Si Si1 0.500000 0.500000 0.750000
Si Si2 0.054490 0.599241 0.599028
Si Si3 0.113492 0.907348 0.098032
Si Si4 0.384900 0.810942 0.603136
Si Si5 0.721522 0.004046 0.346269
O O1 0.555414 0.438181 0.680116
O O2 0.077033 0.625138 0.500000
O O3 0.143160 0.572930 0.646061
O O4 0.000000 0.500000 0.597371
O O5 0.983910 0.672836 0.636304
O O6 0.142642 0.797886 0.115228
O O7 0.197897 0.974799 0.095512
O O8 0.073085 0.908402 0.000000
O O9 0.391079 0.829098 0.500000
O O10 0.320509 0.892470 0.636582
O O11 0.756025 0.000000 0.250000
#
# Coordination Sequence:
#
# PCOD9529075 Si02
#       5
#     4  16  16  16  16
#     4  12  26  48  64  90 120 164 218 264 308 394
#     4   8  15  31  55  83 117 155 195 243 299 355
#     4  11  24  45  67  89 126 169 208 262 319 374
#     4   9  20  39  63  92 127 168 211 254 314 380
#     4  11  21  36  61  94 130 161 206 263 312 367
#
# _framework density 20.468077999999998
#
# number of rings (size 3 to 8) (size 9 to 14) (size 15 to 20)
#    0.000    2.118    1.176    3.882    0.000    7.059 
#    4.235    0.000    0.000    0.000    0.000    0.000 
#    0.000    0.000    0.000    0.000    0.000    0.000 
#
# Total GULP energy -189420.412881 kJ/mol
# GULP energy per Si atom -5571.188614 kJ/mol
# Density = 2.042149 g / cm^3
# Si number density = 20.468078 Si / 1000 Ang^3
#
#
#
# Elastic Constant Matrix: (Units=GPa)
#
#
# Indices 1 2 3 4 5 6 
#
# 1 62.0194 31.5621 32.7861 0.0000 0.0000 0.0000
# 2 31.5621 97.0768 40.1225 0.0000 0.0000 0.0000
# 3 32.7861 40.1225 109.6648 0.0000 0.0000 0.0000
# 4 0.0000 0.0000 0.0000 -12.1175 0.0000 0.0000
# 5 0.0000 0.0000 0.0000 0.0000 32.8326 0.0000
# 6 0.0000 0.0000 0.0000 0.0000 0.0000 19.5568
#
#
#
# Elastic Compliance Matrix: (Units=1/GPa)
#
#
# Indices 1 2 3 4 5 6 
#
# 1 0.021021 -0.004992 -0.004458 0.000000 0.000000 0.000000
# 2 -0.004992 0.013322 -0.003382 0.000000 0.000000 0.000000
# 3 -0.004458 -0.003382 0.011689 0.000000 0.000000 0.000000
# 4 0.000000 0.000000 0.000000 -0.082525 0.000000 0.000000
# 5 0.000000 0.000000 0.000000 0.000000 0.030458 0.000000
# 6 0.000000 0.000000 0.000000 0.000000 0.000000 0.051133
#
#
# Mechanical properties :
#
#
# Convention : Reuss Voigt Hill
#
# Bulk Modulus (GPa) = 49.09594 53.07804 51.08699
# Shear Modulus (GPa) = 64.47430 19.00705 41.74068
#
# Velocity S-wave (km/s) = 5.61857 3.05063 4.52077
# Velocity P-wave (km/s) = 8.13202 6.19652 7.22934
#
# Compressibility (1/GPa) = 0.02036828
#
# Stress axis : x y z
#
# Youngs Moduli (GPa) = 47.57094 75.06540 85.55220
#
# Poissons Ratio (x) = 0.37472 0.38142
# Poissons Ratio (y) = 0.23747 0.28930
# Poissons Ratio (z) = 0.21209 0.25384
#
# Static dielectric constant tensor:
#      x y z
#    x 1.765920 0.000000 0.000000 
#    y 0.000000 1.717980 0.000000 
#    z 0.000000 0.000000 1.734390 
# 
# From -- ./inp_files/31323.got.cif
#   From: 2010.05.17/outbox.cif.g08.bks.cpg/sg72_16_cif.got.tgz:31323.got - 2010.06.03 17:03:01.
