data_PCOD9529489
_publ_section_title
;
Structure prediction by ZEFSAII (Michael W. Deem and Ramdas Pophale) SiO2 
 PCOD9529489
Probable space group: I B A M
;
_chemical_formula_sum "Si O2"
_cell_formula_units_Z 64
_cell_length_a 21.000000
_cell_length_b 21.000000
_cell_length_c 18.000000
_cell_angle_alpha 90.000000
_cell_angle_beta 90.000000
_cell_angle_gamma 90.000000
_cell_volume 7938.000000
_symmetry_space_group_name_H-M "I B A M"
_symmetry_group_IT_number 72
_symmetry_cell_setting 'orthorhombic'
loop_
_space_group_symop_operation_xyz
x,y,z
-x,-y,z
x,-y,1/2-z
-x,y,1/2-z
-x,-y,-z
x,y,-z
-x,y,1/2+z
x,-y,1/2+z
1/2+x,1/2+y,1/2+z
1/2-x,1/2-y,1/2+z
1/2+x,1/2-y,-z
1/2-x,1/2+y,-z
1/2-x,1/2-y,1/2-z
1/2+x,1/2+y,1/2-z
1/2-x,1/2+y,z
1/2+x,1/2-y,z
loop_
_atom_site_type_symbol
_atom_site_label
_atom_site_fract_x
_atom_site_fract_y
_atom_site_fract_z
Si Si1 0.643751 0.871527 0.323536
Si Si2 0.245829 0.630763 0.919649
Si Si3 0.075077 0.494939 0.838471
Si Si4 0.437059 0.210159 0.205859
Si Si5 0.269768 0.425409 0.740340
Si Si6 0.599724 0.876087 0.084450
Si Si7 0.210821 0.256363 0.865195
Si Si8 0.667857 0.306896 0.708366
O O1 0.604424 0.927794 0.360586
O O2 0.603251 0.837593 0.258750
O O3 0.706032 0.900848 0.282786
O O4 0.665007 0.815597 0.378837
O O5 0.262942 0.590881 0.846841
O O6 0.171662 0.650338 0.911965
O O7 0.285660 0.695909 0.917318
O O8 0.252960 0.598584 0.000000
O O9 0.086419 0.500000 0.750000
O O10 0.105009 0.554359 0.879835
O O11 0.000000 0.500000 0.850830
O O12 0.500000 0.225060 0.250000
O O13 0.445870 0.168810 0.132051
O O14 0.398430 0.274261 0.190121
O O15 0.277562 0.500000 0.750000
O O16 0.325405 0.381471 0.775103
O O17 0.579183 0.880963 0.000000
O O18 0.280552 0.285882 0.852440
O O19 0.190212 0.226905 0.785315
#
# Coordination Sequence:
#
# PCOD9529489 Si02
#       8
#    16  16  16  16  16  16  16  16
#     4  10  17  28  47  71  91 118 166 198 229 262
#     4  10  17  28  46  69  98 125 152 192 245 292
#     4  11  20  31  46  65  92 131 173 198 218 272
#     4  11  18  30  50  69  89 122 163 198 231 276
#     4  10  17  29  50  70  95 122 159 200 231 286
#     4  11  21  31  45  67  95 124 157 198 241 279
#     4   8  14  27  44  64  92 117 148 200 233 273
#     4   8  15  27  45  69  88 109 155 199 234 267
#
# _framework density 8.0624839999999995
#
# number of rings (size 3 to 8) (size 9 to 14) (size 15 to 20)
#    0.000    2.125    3.750    3.375    0.000    0.250 
#    0.000    0.625    0.000   13.875    0.000    0.000 
#    0.000    0.000    0.000   11.250    0.000    0.000 
#
# Total GULP energy -356299.197244 kJ/mol
# GULP energy per Si atom -5567.174957 kJ/mol
# Density = 0.804413 g / cm^3
# Si number density = 8.062484 Si / 1000 Ang^3
#
#
#
# Elastic Constant Matrix: (Units=GPa)
#
#
# Indices 1 2 3 4 5 6 
#
# 1 40.0138 38.0737 12.4562 0.0000 0.0000 0.0000
# 2 38.0737 81.0134 18.5941 0.0000 0.0000 0.0000
# 3 12.4562 18.5941 54.1092 0.0000 0.0000 0.0000
# 4 0.0000 0.0000 0.0000 3.4187 0.0000 0.0000
# 5 0.0000 0.0000 0.0000 0.0000 2.0403 0.0000
# 6 0.0000 0.0000 0.0000 0.0000 0.0000 -7.1891
#
#
#
# Elastic Compliance Matrix: (Units=1/GPa)
#
#
# Indices 1 2 3 4 5 6 
#
# 1 0.045781 -0.020732 -0.003415 0.000000 0.000000 0.000000
# 2 -0.020732 0.022789 -0.003059 0.000000 0.000000 0.000000
# 3 -0.003415 -0.003059 0.020318 0.000000 0.000000 0.000000
# 4 0.000000 0.000000 0.000000 0.292507 0.000000 0.000000
# 5 0.000000 0.000000 0.000000 0.000000 0.490124 0.000000
# 6 0.000000 0.000000 0.000000 0.000000 0.000000 -0.139100
#
#
# Mechanical properties :
#
#
# Convention : Reuss Voigt Hill
#
# Bulk Modulus (GPa) = 29.00412 34.82050 31.91231
# Shear Modulus (GPa) = 6.26313 6.72147 6.49230
#
# Velocity S-wave (km/s) = 1.97296 2.04387 2.00873
# Velocity P-wave (km/s) = 4.81832 5.21641 5.02131
#
# Compressibility (1/GPa) = 0.03447786
#
# Stress axis : x y z
#
# Youngs Moduli (GPa) = 21.84308 43.88085 49.21672
#
# Poissons Ratio (x) = 0.90973 0.16806
# Poissons Ratio (y) = 0.45285 0.15054
# Poissons Ratio (z) = 0.07459 0.13422
#
# Static dielectric constant tensor:
#      x y z
#    x 1.586400 0.000000 0.000000 
#    y 0.000000 1.563860 0.000000 
#    z 0.000000 0.000000 1.553420 
# 
# From -- ./inp_files/32961.got.cif
#   From: 2010.05.17/outbox.ucp.g08.bks.cvg/sg72_17_cif.got.tgz:32961.got - 2010.06.11 16:33:07.
