data_PCOD9529903
_publ_section_title
;
Structure prediction by ZEFSAII (Michael W. Deem and Ramdas Pophale) SiO2 
 PCOD9529903
Probable space group: I B C A 
;
_chemical_formula_sum "Si O2"
_cell_formula_units_Z 104
_cell_length_a 8.771427
_cell_length_b 21.388039
_cell_length_c 27.786061
_cell_angle_alpha 90.000000
_cell_angle_beta 90.000000
_cell_angle_gamma 90.000000
_cell_volume 5212.765706
_symmetry_space_group_name_H-M "I B C A "
_symmetry_group_IT_number 73
_symmetry_cell_setting 'orthorhombic'
loop_
_space_group_symop_operation_xyz
x,y,z
-x,1/2-y,z
x,-y,1/2-z
1/2-x,y,-z
-x,-y,-z
x,1/2+y,-z
-x,y,1/2+z
1/2+x,-y,z
1/2+x,1/2+y,1/2+z
1/2-x,-y,1/2+z
1/2+x,1/2-y,-z
-x,1/2+y,1/2-z
1/2-x,1/2-y,1/2-z
1/2+x,y,1/2-z
1/2-x,1/2+y,z
x,1/2-y,1/2+z
loop_
_atom_site_type_symbol
_atom_site_label
_atom_site_fract_x
_atom_site_fract_y
_atom_site_fract_z
Si Si1 0.896732 0.644324 0.030774
Si Si2 0.000000 0.750000 0.269792
Si Si3 0.421830 0.500000 0.750000
Si Si4 0.821928 0.441036 0.314599
Si Si5 0.703578 0.798602 0.315879
Si Si6 0.233718 0.527299 0.416051
Si Si7 0.059172 0.944873 0.465179
Si Si8 0.000000 0.250000 0.395781
O O1 0.828109 0.583741 0.058769
O O2 0.970045 0.691927 0.068537
O O3 0.750000 0.669148 0.000000
O O4 0.021916 0.618706 0.992798
O O5 0.878976 0.786864 0.302383
O O6 0.894992 0.710482 0.232986
O O7 0.527130 0.465070 0.711410
O O8 0.313301 0.549334 0.723550
O O9 0.826556 0.369514 0.331032
O O10 0.783108 0.480645 0.361616
O O11 0.641455 0.752620 0.357752
O O12 0.059288 0.547595 0.421004
O O13 0.276531 0.464550 0.445585
O O14 0.000000 0.000000 0.500000
#
# Coordination Sequence:
#
# PCOD9529903 Si02
#       8
#    16   8   8  16  16  16  16   8
#     4   9  19  36  57  79 113 151 189 241 305 343
#     4   9  20  38  59  96 112 166 201 248 284 357
#     4  10  24  34  56  86 128 154 188 232 310 358
#     4  11  20  38  56  88 121 157 189 244 292 361
#     4  10  20  36  66  84 126 153 209 243 297 350
#     4  10  18  34  60  82 110 147 192 233 287 347
#     4   9  18  33  58  82 107 142 186 237 283 352
#     4  11  20  38  61  86 112 168 197 254 300 359
#
# _framework density 19.95102
#
# number of rings (size 3 to 8) (size 9 to 14) (size 15 to 20)
#    0.000    2.154    1.538    3.231    0.000    0.000 
#    0.000    3.846   10.154    0.000    0.000    0.000 
#    0.000    0.000    0.000    0.000    0.000    0.000 
#
# Total GULP energy -289850.851497 kJ/mol
# GULP energy per Si atom -5574.054836 kJ/mol
# Density = 1.990561 g / cm^3
# Si number density = 19.951020 Si / 1000 Ang^3
#
#
#
# Elastic Constant Matrix: (Units=GPa)
#
#
# Indices 1 2 3 4 5 6 
#
# 1 89.3665 19.5021 22.5466 0.0000 0.0000 0.0000
# 2 19.5021 49.3405 10.9581 0.0000 0.0000 0.0000
# 3 22.5466 10.9581 87.1780 0.0000 0.0000 0.0000
# 4 0.0000 0.0000 0.0000 32.3854 0.0000 0.0000
# 5 0.0000 0.0000 0.0000 0.0000 -16.8701 0.0000
# 6 0.0000 0.0000 0.0000 0.0000 0.0000 13.6608
#
#
#
# Elastic Compliance Matrix: (Units=1/GPa)
#
#
# Indices 1 2 3 4 5 6 
#
# 1 0.012863 -0.004470 -0.002765 0.000000 0.000000 0.000000
# 2 -0.004470 0.022403 -0.001660 0.000000 0.000000 0.000000
# 3 -0.002765 -0.001660 0.012394 0.000000 0.000000 0.000000
# 4 0.000000 0.000000 0.000000 0.030878 0.000000 0.000000
# 5 0.000000 0.000000 0.000000 0.000000 -0.059276 0.000000
# 6 0.000000 0.000000 0.000000 0.000000 0.000000 0.073202
#
#
# Mechanical properties :
#
#
# Convention : Reuss Voigt Hill
#
# Bulk Modulus (GPa) = 33.47773 36.87760 35.17766
# Shear Modulus (GPa) = 41.59364 17.36042 29.47703
#
# Velocity S-wave (km/s) = 4.57090 2.95303 3.84796
# Velocity P-wave (km/s) = 6.68385 5.49103 6.11659
#
# Compressibility (1/GPa) = 0.02987061
#
# Stress axis : x y z
#
# Youngs Moduli (GPa) = 77.74287 44.63724 80.68102
#
# Poissons Ratio (x) = 0.19953 0.22307
# Poissons Ratio (y) = 0.34752 0.13392
# Poissons Ratio (z) = 0.21494 0.07409
#
# Static dielectric constant tensor:
#      x y z
#    x 1.748740 0.000000 0.000000 
#    y 0.000000 1.702770 0.000000 
#    z 0.000000 0.000000 1.722110 
# 
# From -- ./inp_files/8500.got.cif
#   From: 2010.05.17/outbox.cif.g08.bks.cpg/sg73_5_cif.got.tgz:8500.got - 2010.06.03 17:35:07.
