data_PCOD9529413
_publ_section_title
;
Structure prediction by ZEFSAII (Michael W. Deem and Ramdas Pophale) SiO2 
 PCOD9529413
Probable space group: I B A M
;
_chemical_formula_sum "Si O2"
_cell_formula_units_Z 52
_cell_length_a 11.717034
_cell_length_b 14.857435
_cell_length_c 13.784461
_cell_angle_alpha 90.000000
_cell_angle_beta 90.000000
_cell_angle_gamma 90.000000
_cell_volume 2399.668873
_symmetry_space_group_name_H-M "I B A M"
_symmetry_group_IT_number 72
_symmetry_cell_setting 'orthorhombic'
loop_
_space_group_symop_operation_xyz
x,y,z
-x,-y,z
x,-y,1/2-z
-x,y,1/2-z
-x,-y,-z
x,y,-z
-x,y,1/2+z
x,-y,1/2+z
1/2+x,1/2+y,1/2+z
1/2-x,1/2-y,1/2+z
1/2+x,1/2-y,-z
1/2-x,1/2+y,-z
1/2-x,1/2-y,1/2-z
1/2+x,1/2+y,1/2-z
1/2-x,1/2+y,z
1/2+x,1/2-y,z
loop_
_atom_site_type_symbol
_atom_site_label
_atom_site_fract_x
_atom_site_fract_y
_atom_site_fract_z
Si Si1 0.872285 0.865923 0.774392
Si Si2 0.767259 0.718175 0.109851
Si Si3 0.000000 0.500000 0.250000
Si Si4 0.676665 0.088611 0.391850
O O1 0.868776 0.768660 0.831391
O O2 0.792669 0.852984 0.679669
O O3 0.802279 0.930253 0.847009
O O4 0.000000 0.890868 0.750000
O O5 0.679533 0.802579 0.103390
O O6 0.796099 0.690321 0.000000
O O7 0.919412 0.442986 0.180206
O O8 0.663514 0.052253 0.500000
#
# Coordination Sequence:
#
# PCOD9529413 Si02
#       4
#    16  16   4  16
#     4   9  17  32  55  79 111 142 176 224 286 334
#     4   8  17  31  50  80 113 141 174 219 276 330
#     4  12  22  36  62  74 108 156 198 224 264 318
#     4   9  20  37  54  78 109 144 184 229 271 314
#
# _framework density 21.669656
#
# number of rings (size 3 to 8) (size 9 to 14) (size 15 to 20)
#    1.846    1.231    0.000    0.462    2.154    2.462 
#    0.000    6.923    0.000    1.846    0.000    0.000 
#    0.000    0.000    0.000    0.000    0.000    0.000 
#
# Total GULP energy -144766.226469 kJ/mol
# GULP energy per Si atom -5567.931787 kJ/mol
# Density = 2.162033 g / cm^3
# Si number density = 21.669656 Si / 1000 Ang^3
#
#
#
# Elastic Constant Matrix: (Units=GPa)
#
#
# Indices 1 2 3 4 5 6 
#
# 1 126.0897 14.2693 58.2761 0.0000 0.0000 0.0000
# 2 14.2693 47.3041 17.5036 0.0000 0.0000 0.0000
# 3 58.2761 17.5036 190.9580 0.0000 0.0000 0.0000
# 4 0.0000 0.0000 0.0000 2.9163 0.0000 0.0000
# 5 0.0000 0.0000 0.0000 0.0000 8.7205 0.0000
# 6 0.0000 0.0000 0.0000 0.0000 0.0000 9.5305
#
#
#
# Elastic Compliance Matrix: (Units=1/GPa)
#
#
# Indices 1 2 3 4 5 6 
#
# 1 0.009384 -0.001833 -0.002696 0.000000 0.000000 0.000000
# 2 -0.001833 0.022240 -0.001479 0.000000 0.000000 0.000000
# 3 -0.002696 -0.001479 0.006195 0.000000 0.000000 0.000000
# 4 0.000000 0.000000 0.000000 0.342902 0.000000 0.000000
# 5 0.000000 0.000000 0.000000 0.000000 0.114672 0.000000
# 6 0.000000 0.000000 0.000000 0.000000 0.000000 0.104927
#
#
# Mechanical properties :
#
#
# Convention : Reuss Voigt Hill
#
# Bulk Modulus (GPa) = 38.75512 60.49444 49.62478
# Shear Modulus (GPa) = 8.05233 22.52031 15.28632
#
# Velocity S-wave (km/s) = 1.92977 3.22725 2.65887
# Velocity P-wave (km/s) = 4.78421 6.47025 5.69003
#
# Compressibility (1/GPa) = 0.02580304
#
# Stress axis : x y z
#
# Youngs Moduli (GPa) = 106.56109 44.96381 161.41947
#
# Poissons Ratio (x) = 0.08243 0.43516
# Poissons Ratio (y) = 0.19535 0.23876
# Poissons Ratio (z) = 0.28727 0.06651
#
# Static dielectric constant tensor:
#      x y z
#    x 1.761570 0.000000 0.000000 
#    y 0.000000 1.887630 0.000000 
#    z 0.000000 0.000000 1.820940 
# 
# From -- ./inp_files/18500.got.cif
#   From: 2010.05.17/outbox.cif.g08.bks.cpg/sg72_10_cif.got.tgz:18500.got - 2010.06.03 17:03:01.
