data_PCOD9529418
_publ_section_title
;
Structure prediction by ZEFSAII (Michael W. Deem and Ramdas Pophale) SiO2 
 PCOD9529418
Probable space group: I B A M
;
_chemical_formula_sum "Si O2"
_cell_formula_units_Z 72
_cell_length_a 8.021740
_cell_length_b 17.607220
_cell_length_c 22.492628
_cell_angle_alpha 90.000000
_cell_angle_beta 90.000000
_cell_angle_gamma 90.000000
_cell_volume 3176.870946
_symmetry_space_group_name_H-M "I B A M"
_symmetry_group_IT_number 72
_symmetry_cell_setting 'orthorhombic'
loop_
_space_group_symop_operation_xyz
x,y,z
-x,-y,z
x,-y,1/2-z
-x,y,1/2-z
-x,-y,-z
x,y,-z
-x,y,1/2+z
x,-y,1/2+z
1/2+x,1/2+y,1/2+z
1/2-x,1/2-y,1/2+z
1/2+x,1/2-y,-z
1/2-x,1/2+y,-z
1/2-x,1/2-y,1/2-z
1/2+x,1/2+y,1/2-z
1/2-x,1/2+y,z
1/2+x,1/2-y,z
loop_
_atom_site_type_symbol
_atom_site_label
_atom_site_fract_x
_atom_site_fract_y
_atom_site_fract_z
Si Si1 0.566542 0.659161 0.500000
Si Si2 0.627340 0.847978 0.364573
Si Si3 0.649436 0.560772 0.612949
Si Si4 0.497638 0.688199 0.680180
Si Si5 0.000000 0.500000 0.643768
Si Si6 0.168591 0.665708 0.500000
O O1 0.631730 0.614785 0.556696
O O2 0.367127 0.656074 0.500000
O O3 0.626237 0.745211 0.500000
O O4 0.544482 0.766834 0.351653
O O5 0.607232 0.864070 0.435669
O O6 0.819867 0.838615 0.345786
O O7 0.547404 0.918147 0.328443
O O8 0.500000 0.500000 0.613491
O O9 0.625134 0.619432 0.667157
O O10 0.825930 0.519801 0.612037
O O11 0.500000 0.702875 0.750000
#
# Coordination Sequence:
#
# PCOD9529418 Si02
#       6
#     8  16  16  16   8   8
#     4  12  25  41  74 107 151 191 238 316 380 453
#     4  12  25  47  74 113 147 195 253 305 382 448
#     4  12  25  49  72 111 150 194 248 311 379 450
#     4  12  26  50  76 104 152 203 254 311 369 452
#     4  12  28  47  77 112 152 190 247 309 382 456
#     4  12  22  43  74 111 147 190 250 309 372 464
#
# _framework density 22.663809000000001
#
# number of rings (size 3 to 8) (size 9 to 14) (size 15 to 20)
#    0.000    0.000    6.667    2.333    3.111    2.222 
#    0.000    3.889    0.000    0.000    0.000    0.000 
#    0.000    0.000    0.000    0.000    0.000    0.000 
#
# Total GULP energy -201327.184067 kJ/mol
# GULP energy per Si atom -5592.421780 kJ/mol
# Density = 2.261223 g / cm^3
# Si number density = 22.663809 Si / 1000 Ang^3
#
#
#
# Elastic Constant Matrix: (Units=GPa)
#
#
# Indices 1 2 3 4 5 6 
#
# 1 128.0118 54.2301 17.1394 0.0000 0.0000 0.0000
# 2 54.2301 156.1406 9.3305 0.0000 0.0000 0.0000
# 3 17.1394 9.3305 101.9850 0.0000 0.0000 0.0000
# 4 0.0000 0.0000 0.0000 -31.8309 0.0000 0.0000
# 5 0.0000 0.0000 0.0000 0.0000 -294.6417 0.0000
# 6 0.0000 0.0000 0.0000 0.0000 0.0000 68.3989
#
#
#
# Elastic Compliance Matrix: (Units=1/GPa)
#
#
# Indices 1 2 3 4 5 6 
#
# 1 0.009322 -0.003161 -0.001277 0.000000 0.000000 0.000000
# 2 -0.003161 0.007512 -0.000156 0.000000 0.000000 0.000000
# 3 -0.001277 -0.000156 0.010034 0.000000 0.000000 0.000000
# 4 0.000000 0.000000 0.000000 -0.031416 0.000000 0.000000
# 5 0.000000 0.000000 0.000000 0.000000 -0.003394 0.000000
# 6 0.000000 0.000000 0.000000 0.000000 0.000000 0.014620
#
#
# Mechanical properties :
#
#
# Convention : Reuss Voigt Hill
#
# Bulk Modulus (GPa) = 56.56524 60.83749 58.70136
# Shear Modulus (GPa) = 229.77141 -31.25225 99.25958
#
# Velocity S-wave (km/s) = 10.07981 -3.71745 6.62507
# Velocity P-wave (km/s) = 12.66818 2.91133 9.19126
#
# Compressibility (1/GPa) = 0.01767870
#
# Stress axis : x y z
#
# Youngs Moduli (GPa) = 107.27224 133.12386 99.65805
#
# Poissons Ratio (x) = 0.42085 0.12731
# Poissons Ratio (y) = 0.33913 0.01554
# Poissons Ratio (z) = 0.13703 0.02076
#
# Static dielectric constant tensor:
#      x y z
#    x 1.832080 0.000000 0.000000 
#    y 0.000000 1.799460 0.000000 
#    z 0.000000 0.000000 1.950870 
# 
# From -- ./inp_files/42114.got.cif
#   From: 2010.05.17/outbox.cif.g08.bks.cpg/sg72_22_cif.got.tgz:42114.got - 2010.06.03 17:03:01.
