data_PCOD9529275
_publ_section_title
;
Structure prediction by ZEFSAII (Michael W. Deem and Ramdas Pophale) SiO2 
 PCOD9529275
Probable space group: I B A M
;
_chemical_formula_sum "Si O2"
_cell_formula_units_Z 88
_cell_length_a 24.148448
_cell_length_b 11.995207
_cell_length_c 14.981479
_cell_angle_alpha 90.000000
_cell_angle_beta 90.000000
_cell_angle_gamma 90.000000
_cell_volume 4339.619590
_symmetry_space_group_name_H-M "I B A M"
_symmetry_group_IT_number 72
_symmetry_cell_setting 'orthorhombic'
loop_
_space_group_symop_operation_xyz
x,y,z
-x,-y,z
x,-y,1/2-z
-x,y,1/2-z
-x,-y,-z
x,y,-z
-x,y,1/2+z
x,-y,1/2+z
1/2+x,1/2+y,1/2+z
1/2-x,1/2-y,1/2+z
1/2+x,1/2-y,-z
1/2-x,1/2+y,-z
1/2-x,1/2-y,1/2-z
1/2+x,1/2+y,1/2-z
1/2-x,1/2+y,z
1/2+x,1/2-y,z
loop_
_atom_site_type_symbol
_atom_site_label
_atom_site_fract_x
_atom_site_fract_y
_atom_site_fract_z
Si Si1 0.857714 0.466072 0.605384
Si Si2 0.194391 0.754229 0.642649
Si Si3 0.877770 0.854172 0.500000
Si Si4 0.975284 0.617029 0.151869
Si Si5 0.004442 0.795675 0.500000
Si Si6 0.179147 0.709960 0.152897
Si Si7 0.875147 0.111828 0.500000
O O1 0.869536 0.481403 0.500000
O O2 0.808927 0.376167 0.615620
O O3 0.909929 0.405595 0.650854
O O4 0.845328 0.585340 0.647823
O O5 0.180071 0.758365 0.747252
O O6 0.256349 0.796573 0.625348
O O7 0.151232 0.823904 0.584242
O O8 0.944410 0.850477 0.500000
O O9 0.854323 0.788220 0.414427
O O10 0.859679 0.982500 0.500000
O O11 0.000000 0.500000 0.117990
O O12 0.000000 0.635898 0.250000
O O13 0.990433 0.715798 0.085990
O O14 0.058603 0.873107 0.500000
#
# Coordination Sequence:
#
# PCOD9529275 Si02
#       7
#    16  16   8  16   8  16   8
#     4  12  23  43  72 104 141 177 228 285 350 409
#     4  11  25  46  70  99 139 183 226 282 345 408
#     4  12  28  43  71  98 137 182 238 278 336 411
#     4  11  24  37  66 102 139 178 218 282 348 406
#     4  12  24  46  64  98 135 179 230 283 342 409
#     4  11  27  44  69 105 138 178 230 284 342 409
#     4  12  26  47  71  92 138 186 233 279 344 407
#
# _framework density 20.278274
#
# number of rings (size 3 to 8) (size 9 to 14) (size 15 to 20)
#    0.000    0.545    4.545    2.727   10.182    0.727 
#    0.000    0.000    0.000    3.273    0.000    0.000 
#    0.000    0.000    0.000    0.000    0.000    0.000 
#
# Total GULP energy -246247.055368 kJ/mol
# GULP energy per Si atom -5596.523986 kJ/mol
# Density = 2.023212 g / cm^3
# Si number density = 20.278274 Si / 1000 Ang^3
#
#
#
# Elastic Constant Matrix: (Units=GPa)
#
#
# Indices 1 2 3 4 5 6 
#
# 1 105.6164 19.2250 54.7693 0.0000 0.0000 0.0000
# 2 19.2250 120.0264 37.0700 0.0000 0.0000 0.0000
# 3 54.7693 37.0700 109.0493 0.0000 0.0000 0.0000
# 4 0.0000 0.0000 0.0000 16.6652 0.0000 0.0000
# 5 0.0000 0.0000 0.0000 0.0000 29.8906 0.0000
# 6 0.0000 0.0000 0.0000 0.0000 0.0000 24.8721
#
#
#
# Elastic Compliance Matrix: (Units=1/GPa)
#
#
# Indices 1 2 3 4 5 6 
#
# 1 0.012803 -0.000072 -0.006406 0.000000 0.000000 0.000000
# 2 -0.000072 0.009309 -0.003128 0.000000 0.000000 0.000000
# 3 -0.006406 -0.003128 0.013451 0.000000 0.000000 0.000000
# 4 0.000000 0.000000 0.000000 0.060005 0.000000 0.000000
# 5 0.000000 0.000000 0.000000 0.000000 0.033455 0.000000
# 6 0.000000 0.000000 0.000000 0.000000 0.000000 0.040206
#
#
# Mechanical properties :
#
#
# Convention : Reuss Voigt Hill
#
# Bulk Modulus (GPa) = 61.15966 61.86897 61.51431
# Shear Modulus (GPa) = 25.78751 29.19410 27.49080
#
# Velocity S-wave (km/s) = 3.56993 3.79842 3.68595
# Velocity P-wave (km/s) = 6.87155 7.05787 6.96533
#
# Compressibility (1/GPa) = 0.01635065
#
# Stress axis : x y z
#
# Youngs Moduli (GPa) = 78.10539 107.42013 74.34485
#
# Poissons Ratio (x) = 0.00777 0.47623
# Poissons Ratio (y) = 0.00565 0.23257
# Poissons Ratio (z) = 0.50032 0.33604
#
# Static dielectric constant tensor:
#      x y z
#    x 1.773090 0.000000 0.000000 
#    y 0.000000 1.676770 0.000000 
#    z 0.000000 0.000000 1.721690 
# 
# From -- ./inp_files/25037.got.cif
#   From: 2010.05.17/outbox.cif.g08.bks.cpg/sg72_13_cif.got.tgz:25037.got - 2010.06.03 17:03:01.
