data_PCOD9529219
_publ_section_title
;
Structure prediction by ZEFSAII (Michael W. Deem and Ramdas Pophale) SiO2 
 PCOD9529219
Probable space group: I B A M
;
_chemical_formula_sum "Si O2"
_cell_formula_units_Z 88
_cell_length_a 32.641114
_cell_length_b 12.699508
_cell_length_c 10.451602
_cell_angle_alpha 90.000000
_cell_angle_beta 90.000000
_cell_angle_gamma 90.000000
_cell_volume 4332.461694
_symmetry_space_group_name_H-M "I B A M"
_symmetry_group_IT_number 72
_symmetry_cell_setting 'orthorhombic'
loop_
_space_group_symop_operation_xyz
x,y,z
-x,-y,z
x,-y,1/2-z
-x,y,1/2-z
-x,-y,-z
x,y,-z
-x,y,1/2+z
x,-y,1/2+z
1/2+x,1/2+y,1/2+z
1/2-x,1/2-y,1/2+z
1/2+x,1/2-y,-z
1/2-x,1/2+y,-z
1/2-x,1/2-y,1/2-z
1/2+x,1/2+y,1/2-z
1/2-x,1/2+y,z
1/2+x,1/2-y,z
loop_
_atom_site_type_symbol
_atom_site_label
_atom_site_fract_x
_atom_site_fract_y
_atom_site_fract_z
Si Si1 0.844604 0.991788 0.000000
Si Si2 0.403298 0.299418 0.500000
Si Si3 0.595307 0.320716 0.500000
Si Si4 0.451246 0.373651 0.749225
Si Si5 0.300459 0.812552 0.781425
Si Si6 0.216694 0.900509 0.801803
Si Si7 0.144101 0.405765 0.000000
Si Si8 0.834164 0.356777 0.000000
O O1 0.816097 0.035634 0.114927
O O2 0.862347 0.874002 0.000000
O O3 0.884397 0.064228 0.000000
O O4 0.429196 0.329295 0.624440
O O5 0.393526 0.175228 0.500000
O O6 0.568383 0.317915 0.627347
O O7 0.632485 0.237254 0.500000
O O8 0.443942 0.500000 0.750000
O O9 0.500000 0.357981 0.750000
O O10 0.255447 0.830559 0.844277
O O11 0.307072 0.686263 0.780213
O O12 0.331278 0.872877 0.872452
O O13 0.307725 0.845149 0.631743
O O14 0.241673 0.000000 0.750000
O O15 0.142364 0.531799 0.000000
#
# Coordination Sequence:
#
# PCOD9529219 Si02
#       8
#     8   8   8  16  16  16   8   8
#     4  12  23  38  60  91 131 163 203 265 326 374
#     4  12  25  39  70 100 132 162 213 268 315 379
#     4  12  23  40  69  94 132 169 200 259 316 382
#     4  11  23  42  68 102 137 168 196 246 325 407
#     4  11  24  42  61  85 121 172 219 270 319 377
#     4  11  23  37  59  85 124 163 216 265 328 370
#     4  12  25  40  64  90 121 164 223 266 306 364
#     4  12  24  45  64  87 124 172 223 262 321 371
#
# _framework density 20.311776999999999
#
# number of rings (size 3 to 8) (size 9 to 14) (size 15 to 20)
#    0.000    0.545    3.636    4.909    2.545    4.364 
#    0.000    0.000    0.000    3.273    0.000    0.000 
#    0.000    0.000    0.000    0.000    0.000    0.000 
#
# Total GULP energy -245253.101828 kJ/mol
# GULP energy per Si atom -5573.934132 kJ/mol
# Density = 2.026555 g / cm^3
# Si number density = 20.311777 Si / 1000 Ang^3
#
#
#
# Elastic Constant Matrix: (Units=GPa)
#
#
# Indices 1 2 3 4 5 6 
#
# 1 88.6692 12.2848 56.0426 0.0000 0.0000 0.0000
# 2 12.2848 113.9994 21.2790 0.0000 0.0000 0.0000
# 3 56.0426 21.2790 152.3278 0.0000 0.0000 0.0000
# 4 0.0000 0.0000 0.0000 318.7846 0.0000 0.0000
# 5 0.0000 0.0000 0.0000 0.0000 35.2399 0.0000
# 6 0.0000 0.0000 0.0000 0.0000 0.0000 14.3133
#
#
#
# Elastic Compliance Matrix: (Units=1/GPa)
#
#
# Indices 1 2 3 4 5 6 
#
# 1 0.014734 -0.000591 -0.005338 0.000000 0.000000 0.000000
# 2 -0.000591 0.009031 -0.001044 0.000000 0.000000 0.000000
# 3 -0.005338 -0.001044 0.008675 0.000000 0.000000 0.000000
# 4 0.000000 0.000000 0.000000 0.003137 0.000000 0.000000
# 5 0.000000 0.000000 0.000000 0.000000 0.028377 0.000000
# 6 0.000000 0.000000 0.000000 0.000000 0.000000 0.069865
#
#
# Mechanical properties :
#
#
# Convention : Reuss Voigt Hill
#
# Bulk Modulus (GPa) = 54.07707 59.35658 56.71683
# Shear Modulus (GPa) = 32.48271 91.36025 61.92148
#
# Velocity S-wave (km/s) = 4.00335 6.71391 5.52736
# Velocity P-wave (km/s) = 6.93183 9.45454 8.28971
#
# Compressibility (1/GPa) = 0.01849213
#
# Stress axis : x y z
#
# Youngs Moduli (GPa) = 67.87187 110.73511 115.28019
#
# Poissons Ratio (x) = 0.06548 0.61537
# Poissons Ratio (y) = 0.04014 0.12035
# Poissons Ratio (z) = 0.36230 0.11560
#
# Static dielectric constant tensor:
#      x y z
#    x 1.716580 0.000000 0.000000 
#    y 0.000000 1.745450 0.000000 
#    z 0.000000 0.000000 1.886400 
# 
# From -- ./inp_files/16809.got.cif
#   From: 2010.05.17/outbox.cif.g08.bks.cpg/sg72_9_cif.got.tgz:16809.got - 2010.06.03 17:03:01.
