data_PCOD9529013
_publ_section_title
;
Structure prediction by ZEFSAII (Michael W. Deem and Ramdas Pophale) SiO2 
 PCOD9529013
Probable space group: I B A M
;
_chemical_formula_sum "Si O2"
_cell_formula_units_Z 80
_cell_length_a 28.160938
_cell_length_b 6.855662
_cell_length_c 16.597749
_cell_angle_alpha 90.000000
_cell_angle_beta 90.000000
_cell_angle_gamma 90.000000
_cell_volume 3204.392502
_symmetry_space_group_name_H-M "I B A M"
_symmetry_group_IT_number 72
_symmetry_cell_setting 'orthorhombic'
loop_
_space_group_symop_operation_xyz
x,y,z
-x,-y,z
x,-y,1/2-z
-x,y,1/2-z
-x,-y,-z
x,y,-z
-x,y,1/2+z
x,-y,1/2+z
1/2+x,1/2+y,1/2+z
1/2-x,1/2-y,1/2+z
1/2+x,1/2-y,-z
1/2-x,1/2+y,-z
1/2-x,1/2-y,1/2-z
1/2+x,1/2+y,1/2-z
1/2-x,1/2+y,z
1/2+x,1/2-y,z
loop_
_atom_site_type_symbol
_atom_site_label
_atom_site_fract_x
_atom_site_fract_y
_atom_site_fract_z
Si Si1 0.603125 0.813528 0.589954
Si Si2 0.291938 0.704828 0.088780
Si Si3 0.298870 0.654340 0.321796
Si Si4 0.049614 0.906760 0.909832
Si Si5 0.898049 0.761776 0.732435
O O1 0.589455 0.896818 0.500000
O O2 0.660395 0.830754 0.594304
O O3 0.585513 0.588790 0.583510
O O4 0.588712 0.847143 0.684494
O O5 0.310410 0.486169 0.103247
O O6 0.250112 0.750239 0.151068
O O7 0.271595 0.726275 0.000000
O O8 0.293023 0.500000 0.250000
O O9 0.343953 0.780530 0.295612
O O10 0.068368 0.753031 0.845359
O O11 0.042142 0.827401 0.000000
O O12 0.000000 0.000000 0.881842
O O13 0.898140 0.000000 0.750000
#
# Coordination Sequence:
#
# PCOD9529013 Si02
#       5
#    16  16  16  16  16
#     4   9  17  29  42  63  93 126 162 200 243 294
#     4  11  21  33  49  70  98 135 172 210 253 303
#     4  11  20  33  50  70  98 133 174 207 253 302
#     4   9  16  26  43  66  94 128 163 201 251 308
#     4   9  16  28  44  63  91 127 158 200 247 291
#
# _framework density 24.965733
#
# number of rings (size 3 to 8) (size 9 to 14) (size 15 to 20)
#    0.000    2.200    6.000    1.200    0.000    4.400 
#    0.000    0.000    0.000    0.000    0.000    0.000 
#    0.000    1.600    0.400   12.000    4.400    0.000 
#
# Total GULP energy -222879.651192 kJ/mol
# GULP energy per Si atom -5571.991280 kJ/mol
# Density = 2.490891 g / cm^3
# Si number density = 24.965733 Si / 1000 Ang^3
#
#
#
# Elastic Constant Matrix: (Units=GPa)
#
#
# Indices 1 2 3 4 5 6 
#
# 1 113.8019 25.3845 60.2157 0.0000 0.0000 0.0000
# 2 25.3845 57.8315 21.1314 0.0000 0.0000 0.0000
# 3 60.2157 21.1314 216.7027 0.0000 0.0000 0.0000
# 4 0.0000 0.0000 0.0000 12.9960 0.0000 0.0000
# 5 0.0000 0.0000 0.0000 0.0000 34.3210 0.0000
# 6 0.0000 0.0000 0.0000 0.0000 0.0000 5.5199
#
#
#
# Elastic Compliance Matrix: (Units=1/GPa)
#
#
# Indices 1 2 3 4 5 6 
#
# 1 0.011081 -0.003877 -0.002701 0.000000 0.000000 0.000000
# 2 -0.003877 0.019287 -0.000803 0.000000 0.000000 0.000000
# 3 -0.002701 -0.000803 0.005444 0.000000 0.000000 0.000000
# 4 0.000000 0.000000 0.000000 0.076947 0.000000 0.000000
# 5 0.000000 0.000000 0.000000 0.000000 0.029137 0.000000
# 6 0.000000 0.000000 0.000000 0.000000 0.000000 0.181163
#
#
# Mechanical properties :
#
#
# Convention : Reuss Voigt Hill
#
# Bulk Modulus (GPa) = 47.50905 66.86660 57.18782
# Shear Modulus (GPa) = 14.49957 29.34102 21.92029
#
# Velocity S-wave (km/s) = 2.41255 3.43191 2.96635
# Velocity P-wave (km/s) = 5.17992 6.52269 5.88970
#
# Compressibility (1/GPa) = 0.02104862
#
# Stress axis : x y z
#
# Youngs Moduli (GPa) = 90.24274 51.84854 183.70456
#
# Poissons Ratio (x) = 0.20102 0.49621
# Poissons Ratio (y) = 0.34987 0.14759
# Poissons Ratio (z) = 0.24376 0.04166
#
# Static dielectric constant tensor:
#      x y z
#    x 1.975630 0.000000 0.000000 
#    y 0.000000 2.057750 0.000000 
#    z 0.000000 0.000000 2.091400 
# 
# From -- ./inp_files/25790.got.cif
#   From: 2010.05.17/outbox.cif.g08.bks.cpg/sg72_13_cif.got.tgz:25790.got - 2010.06.03 17:03:01.
