data_PCOD9529444
_publ_section_title
;
Structure prediction by ZEFSAII (Michael W. Deem and Ramdas Pophale) SiO2 
 PCOD9529444
Probable space group: I B A M
;
_chemical_formula_sum "Si O2"
_cell_formula_units_Z 88
_cell_length_a 22.780714
_cell_length_b 11.579695
_cell_length_c 14.718701
_cell_angle_alpha 90.000000
_cell_angle_beta 90.000000
_cell_angle_gamma 90.000000
_cell_volume 3882.700890
_symmetry_space_group_name_H-M "I B A M"
_symmetry_group_IT_number 72
_symmetry_cell_setting 'orthorhombic'
loop_
_space_group_symop_operation_xyz
x,y,z
-x,-y,z
x,-y,1/2-z
-x,y,1/2-z
-x,-y,-z
x,y,-z
-x,y,1/2+z
x,-y,1/2+z
1/2+x,1/2+y,1/2+z
1/2-x,1/2-y,1/2+z
1/2+x,1/2-y,-z
1/2-x,1/2+y,-z
1/2-x,1/2-y,1/2-z
1/2+x,1/2+y,1/2-z
1/2-x,1/2+y,z
1/2+x,1/2-y,z
loop_
_atom_site_type_symbol
_atom_site_label
_atom_site_fract_x
_atom_site_fract_y
_atom_site_fract_z
Si Si1 0.479816 0.818045 0.609106
Si Si2 0.293588 0.833300 0.500000
Si Si3 0.392169 0.218822 0.654609
Si Si4 0.664882 0.347681 0.000000
Si Si5 0.415668 0.386387 0.810697
Si Si6 0.136574 0.524318 0.142936
Si Si7 0.647455 0.411020 0.500000
O O1 0.487168 0.815458 0.500000
O O2 0.542876 0.838765 0.654579
O O3 0.468199 0.690281 0.648900
O O4 0.425656 0.906820 0.626772
O O5 0.227507 0.787210 0.500000
O O6 0.314625 0.903503 0.589201
O O7 0.332019 0.718623 0.500000
O O8 0.376733 0.317876 0.583687
O O9 0.382746 0.286775 0.749717
O O10 0.358427 0.108863 0.613161
O O11 0.688941 0.478848 0.000000
O O12 0.427273 0.500000 0.750000
O O13 0.384651 0.423081 0.903442
O O14 0.143539 0.500000 0.250000
#
# Coordination Sequence:
#
# PCOD9529444 Si02
#       7
#    16   8  16   8  16  16   8
#     4  12  24  44  73 107 151 194 230 299 378 448
#     4  12  27  51  77  99 144 196 244 309 366 423
#     4  12  26  44  71 111 146 187 245 300 362 445
#     4  12  29  48  73 105 140 194 255 306 353 434
#     4  12  24  46  71 103 147 192 233 292 364 447
#     4  12  24  46  75 111 146 187 241 303 377 445
#     4  12  24  53  72  98 144 188 241 298 361 426
#
# _framework density 22.664636000000002
#
# number of rings (size 3 to 8) (size 9 to 14) (size 15 to 20)
#    0.000    0.000    8.182    1.636    2.545    2.909 
#    3.273    3.636    0.000    0.000    0.000    0.000 
#    0.000    0.000    0.000    0.000    0.000    0.000 
#
# Total GULP energy -244943.854300 kJ/mol
# GULP energy per Si atom -5566.905780 kJ/mol
# Density = 2.261305 g / cm^3
# Si number density = 22.664636 Si / 1000 Ang^3
#
#
#
# Elastic Constant Matrix: (Units=GPa)
#
#
# Indices 1 2 3 4 5 6 
#
# 1 49.5777 -1.0398 19.2429 0.0000 0.0000 0.0000
# 2 -1.0398 132.5649 22.0534 0.0000 0.0000 0.0000
# 3 19.2429 22.0534 146.3752 0.0000 0.0000 0.0000
# 4 0.0000 0.0000 0.0000 29.3012 0.0000 0.0000
# 5 0.0000 0.0000 0.0000 0.0000 -8.5751 0.0000
# 6 0.0000 0.0000 0.0000 0.0000 0.0000 3.9813
#
#
#
# Elastic Compliance Matrix: (Units=1/GPa)
#
#
# Indices 1 2 3 4 5 6 
#
# 1 0.021309 0.000649 -0.002899 0.000000 0.000000 0.000000
# 2 0.000649 0.007757 -0.001254 0.000000 0.000000 0.000000
# 3 -0.002899 -0.001254 0.007402 0.000000 0.000000 0.000000
# 4 0.000000 0.000000 0.000000 0.034128 0.000000 0.000000
# 5 0.000000 0.000000 0.000000 0.000000 -0.116617 0.000000
# 6 0.000000 0.000000 0.000000 0.000000 0.000000 0.251174
#
#
# Mechanical properties :
#
#
# Convention : Reuss Voigt Hill
#
# Bulk Modulus (GPa) = 33.94365 45.44786 39.69575
# Shear Modulus (GPa) = 22.52439 24.15891 23.34165
#
# Velocity S-wave (km/s) = 3.15590 3.26840 3.21264
# Velocity P-wave (km/s) = 5.31870 5.85996 5.59588
#
# Compressibility (1/GPa) = 0.02946059
#
# Stress axis : x y z
#
# Youngs Moduli (GPa) = 46.92788 128.91251 135.10146
#
# Poissons Ratio (x) = -0.08372 0.39169
# Poissons Ratio (y) = -0.03048 0.16943
# Poissons Ratio (z) = 0.13605 0.16167
#
# Static dielectric constant tensor:
#      x y z
#    x 1.871520 0.000000 0.000000 
#    y 0.000000 2.042260 0.000000 
#    z 0.000000 0.000000 2.044520 
# 
# From -- ./inp_files/25039.got.cif
#   From: 2010.05.17/outbox.cif.g08.bks.cpg/sg72_13_cif.got.tgz:25039.got - 2010.06.03 17:03:01.
