data_PCOD9529179
_publ_section_title
;
Structure prediction by ZEFSAII (Michael W. Deem and Ramdas Pophale) SiO2 
 PCOD9529179
Probable space group: I B A M
;
_chemical_formula_sum "Si O2"
_cell_formula_units_Z 96
_cell_length_a 13.190381
_cell_length_b 15.164094
_cell_length_c 23.839741
_cell_angle_alpha 90.000000
_cell_angle_beta 90.000000
_cell_angle_gamma 90.000000
_cell_volume 4768.429224
_symmetry_space_group_name_H-M "I B A M"
_symmetry_group_IT_number 72
_symmetry_cell_setting 'orthorhombic'
loop_
_space_group_symop_operation_xyz
x,y,z
-x,-y,z
x,-y,1/2-z
-x,y,1/2-z
-x,-y,-z
x,y,-z
-x,y,1/2+z
x,-y,1/2+z
1/2+x,1/2+y,1/2+z
1/2-x,1/2-y,1/2+z
1/2+x,1/2-y,-z
1/2-x,1/2+y,-z
1/2-x,1/2-y,1/2-z
1/2+x,1/2+y,1/2-z
1/2-x,1/2+y,z
1/2+x,1/2-y,z
loop_
_atom_site_type_symbol
_atom_site_label
_atom_site_fract_x
_atom_site_fract_y
_atom_site_fract_z
Si Si1 0.726892 0.901999 0.379414
Si Si2 0.568299 0.148339 0.500000
Si Si3 0.890548 0.625295 0.773022
Si Si4 0.880420 0.263103 0.883031
Si Si5 0.751508 0.086952 0.326715
Si Si6 0.852789 0.547610 0.000000
Si Si7 0.947118 0.811810 0.198847
O O1 0.628838 0.890678 0.338769
O O2 0.797511 0.815602 0.378028
O O3 0.701145 0.922741 0.443207
O O4 0.770006 0.991046 0.352153
O O5 0.586110 0.209481 0.445588
O O6 0.458569 0.101461 0.500000
O O7 0.637129 0.059139 0.500000
O O8 0.799278 0.589505 0.735125
O O9 0.892947 0.730790 0.768698
O O10 0.000000 0.595237 0.750000
O O11 0.830049 0.352983 0.859760
O O12 0.974687 0.229078 0.845702
O O13 0.858742 0.134283 0.328938
O O14 0.000000 0.863447 0.250000
#
# Coordination Sequence:
#
# PCOD9529179 Si02
#       7
#    16   8  16  16  16   8  16
#     4  12  26  43  69 102 136 180 230 278 344 410
#     4  11  25  44  70  99 136 175 220 286 353 389
#     4  11  22  40  67 102 137 177 221 282 345 402
#     4  12  24  46  68  96 139 181 225 280 345 403
#     4  12  24  42  67 101 136 180 225 281 342 409
#     4  11  25  44  72 103 130 173 231 289 334 405
#     4  11  22  41  70  96 137 184 222 275 342 419
#
# _framework density 20.132415999999999
#
# number of rings (size 3 to 8) (size 9 to 14) (size 15 to 20)
#    0.000    0.500    6.667    3.500    0.000    2.000 
#    0.000    1.667    0.000    2.000    0.000    0.000 
#    0.000    0.000    0.000    0.000    0.000    0.000 
#
# Total GULP energy -267952.955657 kJ/mol
# GULP energy per Si atom -5582.353243 kJ/mol
# Density = 2.008659 g / cm^3
# Si number density = 20.132416 Si / 1000 Ang^3
#
#
#
# Elastic Constant Matrix: (Units=GPa)
#
#
# Indices 1 2 3 4 5 6 
#
# 1 60.0691 23.8722 34.9968 0.0000 0.0000 0.0000
# 2 23.8722 101.6402 26.8106 0.0000 0.0000 0.0000
# 3 34.9968 26.8106 152.2087 0.0000 0.0000 0.0000
# 4 0.0000 0.0000 0.0000 22.9179 0.0000 0.0000
# 5 0.0000 0.0000 0.0000 0.0000 20.8863 0.0000
# 6 0.0000 0.0000 0.0000 0.0000 0.0000 40.3401
#
#
#
# Elastic Compliance Matrix: (Units=1/GPa)
#
#
# Indices 1 2 3 4 5 6 
#
# 1 0.020497 -0.003745 -0.004053 0.000000 0.000000 0.000000
# 2 -0.003745 0.011002 -0.001077 0.000000 0.000000 0.000000
# 3 -0.004053 -0.001077 0.007692 0.000000 0.000000 0.000000
# 4 0.000000 0.000000 0.000000 0.043634 0.000000 0.000000
# 5 0.000000 0.000000 0.000000 0.000000 0.047878 0.000000
# 6 0.000000 0.000000 0.000000 0.000000 0.000000 0.024789
#
#
# Mechanical properties :
#
#
# Convention : Reuss Voigt Hill
#
# Bulk Modulus (GPa) = 46.63997 53.91966 50.27982
# Shear Modulus (GPa) = 27.71776 32.04476 29.88126
#
# Velocity S-wave (km/s) = 3.71451 3.99394 3.85676
# Velocity P-wave (km/s) = 6.45087 6.93609 6.69788
#
# Compressibility (1/GPa) = 0.02144084
#
# Stress axis : x y z
#
# Youngs Moduli (GPa) = 48.78703 90.89022 130.01274
#
# Poissons Ratio (x) = 0.34039 0.52697
# Poissons Ratio (y) = 0.18271 0.14001
# Poissons Ratio (z) = 0.19774 0.09788
#
# Static dielectric constant tensor:
#      x y z
#    x 1.743040 0.000000 0.000000 
#    y 0.000000 1.754530 0.000000 
#    z 0.000000 0.000000 1.735780 
# 
# From -- ./inp_files/38084.got.cif
#   From: 2010.05.17/outbox.cif.g08.bks.cpg/sg72_20_cif.got.tgz:38084.got - 2010.06.03 17:03:01.
