data_PCOD9529216
_publ_section_title
;
Structure prediction by ZEFSAII (Michael W. Deem and Ramdas Pophale) SiO2 
 PCOD9529216
Probable space group: I B A M
;
_chemical_formula_sum "Si O2"
_cell_formula_units_Z 72
_cell_length_a 16.109325
_cell_length_b 25.897866
_cell_length_c 10.000417
_cell_angle_alpha 90.000000
_cell_angle_beta 90.000000
_cell_angle_gamma 90.000000
_cell_volume 4172.145373
_symmetry_space_group_name_H-M "I B A M"
_symmetry_group_IT_number 72
_symmetry_cell_setting 'orthorhombic'
loop_
_space_group_symop_operation_xyz
x,y,z
-x,-y,z
x,-y,1/2-z
-x,y,1/2-z
-x,-y,-z
x,y,-z
-x,y,1/2+z
x,-y,1/2+z
1/2+x,1/2+y,1/2+z
1/2-x,1/2-y,1/2+z
1/2+x,1/2-y,-z
1/2-x,1/2+y,-z
1/2-x,1/2-y,1/2-z
1/2+x,1/2+y,1/2-z
1/2-x,1/2+y,z
1/2+x,1/2-y,z
loop_
_atom_site_type_symbol
_atom_site_label
_atom_site_fract_x
_atom_site_fract_y
_atom_site_fract_z
Si Si1 0.311398 0.294225 0.000000
Si Si2 0.899221 0.439533 0.748734
Si Si3 0.413754 0.707442 0.226147
Si Si4 0.539222 0.208820 0.000000
Si Si5 0.120835 0.633842 0.000000
Si Si6 0.208281 0.807511 0.500000
Si Si7 0.176168 0.379735 0.000000
O O1 0.367433 0.284422 0.132426
O O2 0.237463 0.252264 0.000000
O O3 0.265453 0.350343 0.000000
O O4 0.877326 0.500000 0.750000
O O5 0.880680 0.403881 0.874545
O O6 0.848994 0.413957 0.627277
O O7 0.000000 0.437651 0.750000
O O8 0.500000 0.677781 0.250000
O O9 0.346579 0.681542 0.129885
O O10 0.445501 0.755852 0.132565
O O11 0.453152 0.176589 0.000000
O O12 0.609040 0.165800 0.000000
O O13 0.206753 0.663081 0.000000
#
# Coordination Sequence:
#
# PCOD9529216 Si02
#       7
#     8  16  16   8   8   8   8
#     4  12  23  36  58  81 118 145 198 247 273 337
#     4  11  23  39  58  83 117 156 199 242 282 336
#     4  11  23  39  53  76 116 156 191 234 285 333
#     4  11  24  35  53  81 113 159 199 225 271 351
#     4  12  23  38  61  84 117 159 202 234 284 342
#     4  11  23  35  54  83 115 145 196 239 281 336
#     4  12  23  38  57  85 115 152 201 236 286 334
#
# _framework density 17.257307999999998
#
# number of rings (size 3 to 8) (size 9 to 14) (size 15 to 20)
#    0.000    0.667    4.444    5.333    6.222    1.778 
#    0.000    0.000    0.000    0.000    0.000    0.000 
#    0.000   62.222    0.000    0.000    0.000    0.000 
#
# Total GULP energy -200708.571310 kJ/mol
# GULP energy per Si atom -5575.238092 kJ/mol
# Density = 1.721803 g / cm^3
# Si number density = 17.257308 Si / 1000 Ang^3
#
#
#
# Elastic Constant Matrix: (Units=GPa)
#
#
# Indices 1 2 3 4 5 6 
#
# 1 134.1012 54.2882 57.0179 0.0000 0.0000 0.0000
# 2 54.2882 114.6238 57.9813 0.0000 0.0000 0.0000
# 3 57.0179 57.9813 167.1424 0.0000 0.0005 -0.0001
# 4 0.0000 0.0000 0.0000 22.1966 -0.0002 0.0000
# 5 0.0000 0.0000 0.0005 -0.0002 42.0552 0.0000
# 6 0.0000 0.0000 -0.0001 0.0000 0.0000 19.7466
#
#
#
# Elastic Compliance Matrix: (Units=1/GPa)
#
#
# Indices 1 2 3 4 5 6 
#
# 1 0.009799 -0.003578 -0.002102 0.000000 0.000000 0.000000
# 2 -0.003578 0.011887 -0.002903 0.000000 0.000000 0.000000
# 3 -0.002102 -0.002903 0.007707 0.000000 0.000000 0.000000
# 4 0.000000 0.000000 0.000000 0.045052 0.000000 0.000000
# 5 0.000000 0.000000 0.000000 0.000000 0.023778 0.000000
# 6 0.000000 0.000000 0.000000 0.000000 0.000000 0.050642
#
#
# Mechanical properties :
#
#
# Convention : Reuss Voigt Hill
#
# Bulk Modulus (GPa) = 81.77991 83.82691 82.80341
# Shear Modulus (GPa) = 29.39336 33.23836 31.31586
#
# Velocity S-wave (km/s) = 4.13151 4.39343 4.26448
# Velocity P-wave (km/s) = 8.38156 8.62650 8.50492
#
# Compressibility (1/GPa) = 0.01222794
#
# Stress axis : x y z
#
# Youngs Moduli (GPa) = 102.05017 84.12339 129.75334
#
# Poissons Ratio (x) = 0.30099 0.27269
# Poissons Ratio (y) = 0.36513 0.37669
# Poissons Ratio (z) = 0.21447 0.24422
#
# Static dielectric constant tensor:
#      x y z
#    x 1.609650 0.000000 0.000000 
#    y 0.000000 1.582860 0.000000 
#    z 0.000000 0.000000 1.840420 
# 
# From -- ./inp_files/4649.got.cif
#   From: 2010.05.17/outbox.cif.g08.bks.cpg/sg72_3_cif.got.tgz:4649.got - 2010.06.03 17:03:01.
