data_PCOD9529945
_publ_section_title
;
Structure prediction by ZEFSAII (Michael W. Deem and Ramdas Pophale) SiO2 
 PCOD9529945
Probable space group: I B C A 
;
_chemical_formula_sum "Si O2"
_cell_formula_units_Z 104
_cell_length_a 20.367073
_cell_length_b 17.849981
_cell_length_c 15.562123
_cell_angle_alpha 90.000000
_cell_angle_beta 90.000000
_cell_angle_gamma 90.000000
_cell_volume 5657.638857
_symmetry_space_group_name_H-M "I B C A "
_symmetry_group_IT_number 73
_symmetry_cell_setting 'orthorhombic'
loop_
_space_group_symop_operation_xyz
x,y,z
-x,1/2-y,z
x,-y,1/2-z
1/2-x,y,-z
-x,-y,-z
x,1/2+y,-z
-x,y,1/2+z
1/2+x,-y,z
1/2+x,1/2+y,1/2+z
1/2-x,-y,1/2+z
1/2+x,1/2-y,-z
-x,1/2+y,1/2-z
1/2-x,1/2-y,1/2-z
1/2+x,y,1/2-z
1/2-x,1/2+y,z
x,1/2-y,1/2+z
loop_
_atom_site_type_symbol
_atom_site_label
_atom_site_fract_x
_atom_site_fract_y
_atom_site_fract_z
Si Si1 0.754872 0.816895 0.678374
Si Si2 0.401048 0.665219 0.354893
Si Si3 0.495477 0.841479 0.006914
Si Si4 0.504343 0.659817 0.205108
Si Si5 0.142677 0.911889 0.744049
Si Si6 0.372926 0.667080 0.920104
Si Si7 0.250000 0.731456 0.000000
O O1 0.750000 0.750000 0.750000
O O2 0.826969 0.854134 0.672405
O O3 0.698648 0.876550 0.696952
O O4 0.744238 0.779702 0.585903
O O5 0.433346 0.638727 0.445733
O O6 0.449255 0.642438 0.277090
O O7 0.394090 0.755562 0.371259
O O8 0.500000 0.750000 0.008119
O O9 0.499256 0.866643 0.105756
O O10 0.561406 0.866790 0.959255
O O11 0.500000 0.750000 0.201361
O O12 0.573558 0.628104 0.236760
O O13 0.159974 0.887382 0.647740
O O14 0.136613 0.000000 0.750000
O O15 0.317982 0.686996 0.989779
#
# Coordination Sequence:
#
# PCOD9529945 Si02
#       7
#    16  16  16  16  16  16   8
#     4  11  22  38  64  90 124 162 218 267 307 372
#     4  10  18  36  59  92 116 146 214 273 289 349
#     4   9  19  29  57  93 117 145 204 269 303 345
#     4  11  19  35  65  88 117 162 215 251 309 368
#     4  12  25  41  59  93 137 170 196 262 342 379
#     4  10  19  36  59  91 127 155 203 272 308 367
#     4  10  22  34  66  96 118 158 228 266 298 358
#
# _framework density 18.382227
#
# number of rings (size 3 to 8) (size 9 to 14) (size 15 to 20)
#    0.000    1.538    6.154    0.462   10.769    0.000 
#    0.000    2.308    0.000    0.000    0.000    0.000 
#    0.000    0.000    0.000    0.000    0.000    0.000 
#
# Total GULP energy -289678.129256 kJ/mol
# GULP energy per Si atom -5570.733255 kJ/mol
# Density = 1.834039 g / cm^3
# Si number density = 18.382227 Si / 1000 Ang^3
#
#
#
# Elastic Constant Matrix: (Units=GPa)
#
#
# Indices 1 2 3 4 5 6 
#
# 1 156.1604 31.6529 49.0997 0.0000 0.0000 0.0000
# 2 31.6529 46.4023 11.2728 0.0000 0.0000 0.0000
# 3 49.0997 11.2728 117.9673 0.0000 0.0000 0.0000
# 4 0.0000 0.0000 0.0000 1.6109 0.0000 0.0000
# 5 0.0000 0.0000 0.0000 0.0000 38.1502 0.0000
# 6 0.0000 0.0000 0.0000 0.0000 0.0000 8.3993
#
#
#
# Elastic Compliance Matrix: (Units=1/GPa)
#
#
# Indices 1 2 3 4 5 6 
#
# 1 0.008355 -0.004970 -0.003003 0.000000 0.000000 0.000000
# 2 -0.004970 0.025019 -0.000322 0.000000 0.000000 0.000000
# 3 -0.003003 -0.000322 0.009757 0.000000 0.000000 0.000000
# 4 0.000000 0.000000 0.000000 0.620761 0.000000 0.000000
# 5 0.000000 0.000000 0.000000 0.000000 0.026212 0.000000
# 6 0.000000 0.000000 0.000000 0.000000 0.000000 0.119057
#
#
# Mechanical properties :
#
#
# Convention : Reuss Voigt Hill
#
# Bulk Modulus (GPa) = 37.67590 56.06453 46.87021
# Shear Modulus (GPa) = 5.99090 24.86572 15.42831
#
# Velocity S-wave (km/s) = 1.80725 3.68190 2.90022
# Velocity P-wave (km/s) = 4.98951 6.97429 6.06366
#
# Compressibility (1/GPa) = 0.02654217
#
# Stress axis : x y z
#
# Youngs Moduli (GPa) = 119.68701 39.96938 102.48582
#
# Poissons Ratio (x) = 0.19864 0.30772
# Poissons Ratio (y) = 0.59484 0.03303
# Poissons Ratio (z) = 0.35937 0.01288
#
# Static dielectric constant tensor:
#      x y z
#    x 1.672110 0.000000 0.000000 
#    y 0.000000 1.629740 0.000000 
#    z 0.000000 0.000000 1.675530 
# 
# From -- ./inp_files/18789.got.cif
#   From: 2010.05.17/outbox.cif.g08.bks.cpg/sg73_10_cif.got.tgz:18789.got - 2010.06.03 17:35:07.
