data_PCOD9529577
_publ_section_title
;
Structure prediction by ZEFSAII (Michael W. Deem and Ramdas Pophale) SiO2 
 PCOD9529577
Probable space group: I B A M
;
_chemical_formula_sum "Si O2"
_cell_formula_units_Z 56
_cell_length_a 15.000000
_cell_length_b 12.000000
_cell_length_c 30.000000
_cell_angle_alpha 90.000000
_cell_angle_beta 90.000000
_cell_angle_gamma 90.000000
_cell_volume 5400.000000
_symmetry_space_group_name_H-M "I B A M"
_symmetry_group_IT_number 72
_symmetry_cell_setting 'orthorhombic'
loop_
_space_group_symop_operation_xyz
x,y,z
-x,-y,z
x,-y,1/2-z
-x,y,1/2-z
-x,-y,-z
x,y,-z
-x,y,1/2+z
x,-y,1/2+z
1/2+x,1/2+y,1/2+z
1/2-x,1/2-y,1/2+z
1/2+x,1/2-y,-z
1/2-x,1/2+y,-z
1/2-x,1/2-y,1/2-z
1/2+x,1/2+y,1/2-z
1/2-x,1/2+y,z
1/2+x,1/2-y,z
loop_
_atom_site_type_symbol
_atom_site_label
_atom_site_fract_x
_atom_site_fract_y
_atom_site_fract_z
Si Si1 0.523013 0.872585 0.877493
Si Si2 0.603800 0.479872 0.608180
Si Si3 0.661556 0.284872 0.328986
Si Si4 0.356465 0.713987 0.857665
Si Si5 0.323745 0.106964 0.053578
Si Si6 0.764643 0.136146 0.051944
Si Si7 0.105180 0.873236 0.740768
O O1 0.594790 0.812483 0.844948
O O2 0.432520 0.797929 0.876283
O O3 0.579408 0.876630 0.923506
O O4 0.500000 0.000000 0.864922
O O5 0.500000 0.500000 0.606060
O O6 0.625587 0.400269 0.649976
O O7 0.647230 0.601046 0.613470
O O8 0.638912 0.409398 0.566476
O O9 0.760921 0.269650 0.347931
O O10 0.656095 0.296204 0.276116
O O11 0.384174 0.667607 0.809260
O O12 0.270507 0.227941 0.062959
O O13 0.291957 0.977978 0.068118
O O14 0.327708 0.103006 0.000000
O O15 0.746839 0.136949 0.000000
O O16 0.000000 0.868769 0.750000
O O17 0.135354 0.000000 0.750000
#
# Coordination Sequence:
#
# PCOD9529577 Si02
#       7
#    16  16  16  16  16  16  16
#     4  12  27  44  66  99 139 179 223 279 343 415
#     4  12  22  42  69  97 131 177 232 280 337 400
#     4  12  25  44  66 100 133 174 222 283 338 409
#     4  12  26  43  69 101 133 178 228 282 344 406
#     4  10  22  44  71 103 143 184 233 289 349 415
#     4  10  22  40  67 102 140 181 229 287 343 406
#     4  11  21  42  71  98 130 170 228 287 339 408
#
# _framework density 10.370369999999999
#
# number of rings (size 3 to 8) (size 9 to 14) (size 15 to 20)
#    0.000    0.714    5.714    1.286    4.000    0.571 
#    0.000    2.143    0.000    0.857    0.000    0.000 
#    0.000    0.000    0.000    0.000    0.000    0.000 
#
# Total GULP energy -312070.494492 kJ/mol
# GULP energy per Si atom -5572.687402 kJ/mol
# Density = 1.034677 g / cm^3
# Si number density = 10.370370 Si / 1000 Ang^3
#
#
#
# Elastic Constant Matrix: (Units=GPa)
#
#
# Indices 1 2 3 4 5 6 
#
# 1 100.9697 60.8025 30.2829 0.0000 0.0000 0.0000
# 2 60.8025 175.6965 42.6662 0.0000 0.0000 0.0000
# 3 30.2829 42.6662 42.2126 0.0000 0.0000 0.0000
# 4 0.0000 0.0000 0.0000 25.2245 0.0000 0.0000
# 5 0.0000 0.0000 0.0000 0.0000 27.3305 0.0000
# 6 0.0000 0.0000 0.0000 0.0000 0.0000 -947.0108
#
#
#
# Elastic Compliance Matrix: (Units=1/GPa)
#
#
# Indices 1 2 3 4 5 6 
#
# 1 0.013818 -0.003147 -0.006732 0.000000 0.000000 0.000000
# 2 -0.003147 0.008260 -0.006091 0.000000 0.000000 0.000000
# 3 -0.006732 -0.006091 0.034675 0.000000 0.000000 0.000000
# 4 0.000000 0.000000 0.000000 0.039644 0.000000 0.000000
# 5 0.000000 0.000000 0.000000 0.000000 0.036589 0.000000
# 6 0.000000 0.000000 0.000000 0.000000 0.000000 -0.001056
#
#
# Mechanical properties :
#
#
# Convention : Reuss Voigt Hill
#
# Bulk Modulus (GPa) = 40.30092 65.15354 52.72723
# Shear Modulus (GPa) = 29.04577 -166.54934 -68.75179
#
# Velocity S-wave (km/s) = 3.74628 -8.97078 -5.76369
# Velocity P-wave (km/s) = 6.17947 8.70737 4.33777
#
# Compressibility (1/GPa) = 0.02481333
#
# Stress axis : x y z
#
# Youngs Moduli (GPa) = 72.36803 121.06720 28.83882
#
# Poissons Ratio (x) = 0.38102 0.19415
# Poissons Ratio (y) = 0.22776 0.17565
# Poissons Ratio (z) = 0.48719 0.73740
#
# Static dielectric constant tensor:
#      x y z
#    x 1.768210 0.000000 0.000000 
#    y 0.000000 1.753070 0.000000 
#    z 0.000000 0.000000 1.805450 
# 
# From -- ./inp_files/51786.got.cif
#   From: 2010.05.17/outbox.ucp.g08.bks.cvg/sg72_26_cif.got.tgz:51786.got - 2010.06.11 16:33:07.
