data_PCOD9529724
_publ_section_title
;
Structure prediction by ZEFSAII (Michael W. Deem and Ramdas Pophale) SiO2 
 PCOD9529724
Probable space group: I B C A 
;
_chemical_formula_sum "Si O2"
_cell_formula_units_Z 96
_cell_length_a 9.420598
_cell_length_b 25.647653
_cell_length_c 17.820052
_cell_angle_alpha 90.000000
_cell_angle_beta 90.000000
_cell_angle_gamma 90.000000
_cell_volume 4305.613757
_symmetry_space_group_name_H-M "I B C A "
_symmetry_group_IT_number 73
_symmetry_cell_setting 'orthorhombic'
loop_
_space_group_symop_operation_xyz
x,y,z
-x,1/2-y,z
x,-y,1/2-z
1/2-x,y,-z
-x,-y,-z
x,1/2+y,-z
-x,y,1/2+z
1/2+x,-y,z
1/2+x,1/2+y,1/2+z
1/2-x,-y,1/2+z
1/2+x,1/2-y,-z
-x,1/2+y,1/2-z
1/2-x,1/2-y,1/2-z
1/2+x,y,1/2-z
1/2-x,1/2+y,z
x,1/2-y,1/2+z
loop_
_atom_site_type_symbol
_atom_site_label
_atom_site_fract_x
_atom_site_fract_y
_atom_site_fract_z
Si Si1 0.629282 0.145638 0.112168
Si Si2 0.432573 0.040207 0.559026
Si Si3 0.817025 0.999884 0.350649
Si Si4 0.870724 0.689525 0.688567
Si Si5 0.640111 0.225413 0.857955
Si Si6 0.749330 0.914605 0.247639
O O1 0.583232 0.102850 0.050525
O O2 0.505241 0.185547 0.134444
O O3 0.774185 0.178514 0.101931
O O4 0.651212 0.112510 0.190009
O O5 0.545329 0.031511 0.626361
O O6 0.500000 0.000000 0.500000
O O7 0.275687 0.022079 0.581556
O O8 0.708423 0.039666 0.309386
O O9 0.853840 0.949741 0.299713
O O10 0.753164 0.729007 0.658252
O O11 0.905849 0.704735 0.774930
O O12 0.807588 0.631938 0.697868
O O13 0.500000 0.250000 0.894956
#
# Coordination Sequence:
#
# PCOD9529724 Si02
#       6
#    16  16  16  16  16  16
#     4  10  20  34  54  84 122 165 198 246 313 369
#     4  11  23  40  57  80 118 163 217 258 299 362
#     4  10  21  36  57  80 117 162 198 255 302 369
#     4  10  17  31  52  83 128 161 192 241 307 384
#     4  10  19  31  51  85 131 160 190 244 311 386
#     4   9  19  30  54  88 122 150 197 241 314 367
#
# _framework density 22.296471
#
# number of rings (size 3 to 8) (size 9 to 14) (size 15 to 20)
#    0.000    2.000    1.667    4.000    2.333    1.333 
#    3.000    0.000    0.000    0.000    0.000    0.000 
#   80.000    1.333    0.000    0.000    0.000    0.000 
#
# Total GULP energy -267424.854928 kJ/mol
# GULP energy per Si atom -5571.351144 kJ/mol
# Density = 2.224572 g / cm^3
# Si number density = 22.296471 Si / 1000 Ang^3
#
#
#
# Elastic Constant Matrix: (Units=GPa)
#
#
# Indices 1 2 3 4 5 6 
#
# 1 81.4774 40.3658 8.3775 0.0000 0.0000 0.0000
# 2 40.3658 152.1751 29.1640 0.0000 0.0000 0.0000
# 3 8.3775 29.1640 32.7936 0.0001 0.0000 0.0000
# 4 0.0000 0.0000 0.0001 22.6589 0.0000 0.0000
# 5 0.0000 0.0000 0.0000 0.0000 13.6421 0.0000
# 6 0.0000 0.0000 0.0000 0.0000 0.0000 47.9991
#
#
#
# Elastic Compliance Matrix: (Units=1/GPa)
#
#
# Indices 1 2 3 4 5 6 
#
# 1 0.014133 -0.003685 -0.000333 0.000000 0.000000 0.000000
# 2 -0.003685 0.008882 -0.006958 0.000000 0.000000 0.000000
# 3 -0.000333 -0.006958 0.036767 0.000000 0.000000 0.000000
# 4 0.000000 0.000000 0.000000 0.044133 0.000000 0.000000
# 5 0.000000 0.000000 0.000000 0.000000 0.073303 0.000000
# 6 0.000000 0.000000 0.000000 0.000000 0.000000 0.020834
#
#
# Mechanical properties :
#
#
# Convention : Reuss Voigt Hill
#
# Bulk Modulus (GPa) = 26.43414 46.91785 36.67599
# Shear Modulus (GPa) = 21.49485 29.42926 25.46205
#
# Velocity S-wave (km/s) = 3.10828 3.63699 3.38298
# Velocity P-wave (km/s) = 4.97628 6.22297 5.63421
#
# Compressibility (1/GPa) = 0.03782987
#
# Stress axis : x y z
#
# Youngs Moduli (GPa) = 70.75482 112.58291 27.19857
#
# Poissons Ratio (x) = 0.41488 0.00906
# Poissons Ratio (y) = 0.26074 0.18924
# Poissons Ratio (z) = 0.02358 0.78333
#
# Static dielectric constant tensor:
#      x y z
#    x 1.841820 0.000000 0.000000 
#    y 0.000000 1.833150 0.000000 
#    z 0.000000 0.000000 1.933850 
# 
# From -- ./inp_files/24897.got.cif
#   From: 2010.05.17/outbox.cif.g08.bks.cpg/sg73_13_cif.got.tgz:24897.got - 2010.06.03 17:35:07.
