data_PCOD9529009
_publ_section_title
;
Structure prediction by ZEFSAII (Michael W. Deem and Ramdas Pophale) SiO2 
 PCOD9529009
Probable space group: I B A M
;
_chemical_formula_sum "Si O2"
_cell_formula_units_Z 80
_cell_length_a 9.182695
_cell_length_b 22.860259
_cell_length_c 22.835060
_cell_angle_alpha 90.000000
_cell_angle_beta 90.000000
_cell_angle_gamma 90.000000
_cell_volume 4793.508074
_symmetry_space_group_name_H-M "I B A M"
_symmetry_group_IT_number 72
_symmetry_cell_setting 'orthorhombic'
loop_
_space_group_symop_operation_xyz
x,y,z
-x,-y,z
x,-y,1/2-z
-x,y,1/2-z
-x,-y,-z
x,y,-z
-x,y,1/2+z
x,-y,1/2+z
1/2+x,1/2+y,1/2+z
1/2-x,1/2-y,1/2+z
1/2+x,1/2-y,-z
1/2-x,1/2+y,-z
1/2-x,1/2-y,1/2-z
1/2+x,1/2+y,1/2-z
1/2-x,1/2+y,z
1/2+x,1/2-y,z
loop_
_atom_site_type_symbol
_atom_site_label
_atom_site_fract_x
_atom_site_fract_y
_atom_site_fract_z
Si Si1 0.169374 0.190643 0.236091
Si Si2 0.059400 0.100149 0.000000
Si Si3 0.830711 0.503285 0.372928
Si Si4 0.276676 0.473808 0.000000
Si Si5 0.882898 0.923232 0.698991
Si Si6 0.853536 0.880280 0.123544
O O1 0.250000 0.250000 0.250000
O O2 0.202831 0.133333 0.275855
O O3 0.313540 0.329658 0.331019
O O4 0.000000 0.200405 0.250000
O O5 0.112093 0.134428 0.056969
O O6 0.890909 0.079948 0.000000
O O7 0.138290 0.036266 0.000000
O O8 0.808825 0.475437 0.438175
O O9 0.729103 0.470124 0.325731
O O10 0.768065 0.569119 0.374686
O O11 0.000000 0.500000 0.357431
O O12 0.000000 0.938775 0.750000
O O13 0.993301 0.906820 0.646875
#
# Coordination Sequence:
#
# PCOD9529009 Si02
#       6
#    16   8  16   8  16  16
#     4   9  20  36  54  71  93 129 175 224 267 309
#     4   9  14  28  54  75  97 142 182 199 242 313
#     4  11  20  30  48  81 115 139 166 214 270 311
#     4   9  17  28  48  77 111 142 168 203 250 320
#     4   9  19  34  50  71  99 138 179 214 249 317
#     4   9  18  32  52  75 100 140 176 208 247 324
#
# _framework density 16.689238
#
# number of rings (size 3 to 8) (size 9 to 14) (size 15 to 20)
#    0.000    3.000    2.000    0.900    0.000    8.000 
#    0.000    7.000    0.000    6.000    0.000    0.000 
#    0.000    0.000    0.000    0.000    0.000    0.000 
#
# Total GULP energy -222700.327085 kJ/mol
# GULP energy per Si atom -5567.508177 kJ/mol
# Density = 1.665125 g / cm^3
# Si number density = 16.689238 Si / 1000 Ang^3
#
#
#
# Elastic Constant Matrix: (Units=GPa)
#
#
# Indices 1 2 3 4 5 6 
#
# 1 66.7060 36.0406 50.3909 0.0000 0.0000 0.0000
# 2 36.0406 79.9210 49.3262 0.0000 0.0000 0.0000
# 3 50.3909 49.3262 138.0420 0.0000 0.0000 0.0000
# 4 0.0000 0.0000 0.0000 15.1218 0.0000 0.0000
# 5 0.0000 0.0000 0.0000 0.0000 15.1957 0.0000
# 6 0.0000 0.0000 0.0000 0.0000 0.0000 29.5835
#
#
#
# Elastic Compliance Matrix: (Units=1/GPa)
#
#
# Indices 1 2 3 4 5 6 
#
# 1 0.023207 -0.006718 -0.006071 0.000000 0.000000 0.000000
# 2 -0.006718 0.017998 -0.003979 0.000000 0.000000 0.000000
# 3 -0.006071 -0.003979 0.010882 0.000000 0.000000 0.000000
# 4 0.000000 0.000000 0.000000 0.066130 0.000000 0.000000
# 5 0.000000 0.000000 0.000000 0.000000 0.065808 0.000000
# 6 0.000000 0.000000 0.000000 0.000000 0.000000 0.033803
#
#
# Mechanical properties :
#
#
# Convention : Reuss Voigt Hill
#
# Bulk Modulus (GPa) = 53.90566 61.79828 57.85197
# Shear Modulus (GPa) = 19.41396 21.90760 20.66078
#
# Velocity S-wave (km/s) = 3.41436 3.62702 3.52230
# Velocity P-wave (km/s) = 6.92197 7.39254 7.16112
#
# Compressibility (1/GPa) = 0.01855093
#
# Stress axis : x y z
#
# Youngs Moduli (GPa) = 43.09024 55.56312 91.89570
#
# Poissons Ratio (x) = 0.37330 0.55788
# Poissons Ratio (y) = 0.28950 0.36561
# Poissons Ratio (z) = 0.26159 0.22106
#
# Static dielectric constant tensor:
#      x y z
#    x 1.554470 0.000000 0.000000 
#    y 0.000000 1.573360 0.000000 
#    z 0.000000 0.000000 1.630220 
# 
# From -- ./inp_files/42204.got.cif
#   From: 2010.05.17/outbox.cif.g08.bks.cpg/sg72_22_cif.got.tgz:42204.got - 2010.06.03 17:03:01.
