data_PCOD9529198
_publ_section_title
;
Structure prediction by ZEFSAII (Michael W. Deem and Ramdas Pophale) SiO2 
 PCOD9529198
Probable space group: I B A M
;
_chemical_formula_sum "Si O2"
_cell_formula_units_Z 48
_cell_length_a 10.535123
_cell_length_b 15.094469
_cell_length_c 14.354654
_cell_angle_alpha 90.000000
_cell_angle_beta 90.000000
_cell_angle_gamma 90.000000
_cell_volume 2282.707045
_symmetry_space_group_name_H-M "I B A M"
_symmetry_group_IT_number 72
_symmetry_cell_setting 'orthorhombic'
loop_
_space_group_symop_operation_xyz
x,y,z
-x,-y,z
x,-y,1/2-z
-x,y,1/2-z
-x,-y,-z
x,y,-z
-x,y,1/2+z
x,-y,1/2+z
1/2+x,1/2+y,1/2+z
1/2-x,1/2-y,1/2+z
1/2+x,1/2-y,-z
1/2-x,1/2+y,-z
1/2-x,1/2-y,1/2-z
1/2+x,1/2+y,1/2-z
1/2-x,1/2+y,z
1/2+x,1/2-y,z
loop_
_atom_site_type_symbol
_atom_site_label
_atom_site_fract_x
_atom_site_fract_y
_atom_site_fract_z
Si Si1 0.882146 0.053516 0.654493
Si Si2 0.673243 0.056176 0.500000
Si Si3 0.917921 0.354297 0.500000
Si Si4 0.381655 0.755696 0.808225
O O1 0.760628 0.060068 0.590381
O O2 0.920389 0.154676 0.670380
O O3 0.854841 0.000000 0.750000
O O4 0.000000 0.000000 0.611207
O O5 0.571053 0.135265 0.500000
O O6 0.620612 0.956691 0.500000
O O7 0.869751 0.306739 0.406271
O O8 0.500000 0.796035 0.750000
O O9 0.250000 0.750000 0.750000
#
# Coordination Sequence:
#
# PCOD9529198 Si02
#       4
#    16   8   8  16
#     4  11  22  43  68  99 134 179 241 291 349 417
#     4  11  24  45  65  99 140 185 230 290 357 420
#     4  11  27  43  68 101 143 186 231 290 360 428
#     4  12  25  45  71 105 142 184 236 295 358 423
#
# _framework density 21.027664999999999
#
# number of rings (size 3 to 8) (size 9 to 14) (size 15 to 20)
#    0.000    0.667    3.333    5.500    0.000    1.333 
#    0.000    3.333    0.000    0.000    0.000    0.000 
#    0.000    0.000    0.000    0.000    0.000    0.000 
#
# Total GULP energy -134072.223474 kJ/mol
# GULP energy per Si atom -5586.342645 kJ/mol
# Density = 2.097980 g / cm^3
# Si number density = 21.027665 Si / 1000 Ang^3
#
#
#
# Elastic Constant Matrix: (Units=GPa)
#
#
# Indices 1 2 3 4 5 6 
#
# 1 123.5664 1.8129 55.3099 0.0000 0.0000 0.0000
# 2 1.8129 88.5975 22.6598 0.0000 0.0000 0.0000
# 3 55.3099 22.6598 149.3979 0.0000 0.0000 0.0000
# 4 0.0000 0.0000 0.0000 49.9024 0.0000 0.0000
# 5 0.0000 0.0000 0.0000 0.0000 -311.1996 0.0000
# 6 0.0000 0.0000 0.0000 0.0000 0.0000 33.3717
#
#
#
# Elastic Compliance Matrix: (Units=1/GPa)
#
#
# Indices 1 2 3 4 5 6 
#
# 1 0.009748 0.000753 -0.003723 0.000000 0.000000 0.000000
# 2 0.000753 0.011801 -0.002069 0.000000 0.000000 0.000000
# 3 -0.003723 -0.002069 0.008386 0.000000 0.000000 0.000000
# 4 0.000000 0.000000 0.000000 0.020039 0.000000 0.000000
# 5 0.000000 0.000000 0.000000 0.000000 -0.003213 0.000000
# 6 0.000000 0.000000 0.000000 0.000000 0.000000 0.029966
#
#
# Mechanical properties :
#
#
# Convention : Reuss Voigt Hill
#
# Bulk Modulus (GPa) = 50.36079 57.90302 54.13190
# Shear Modulus (GPa) = 53.52016 -26.79983 13.36016
#
# Velocity S-wave (km/s) = 5.05050 -3.57389 2.52337
# Velocity P-wave (km/s) = 7.61655 3.25055 5.85568
#
# Compressibility (1/GPa) = 0.01985672
#
# Stress axis : x y z
#
# Youngs Moduli (GPa) = 102.58185 84.74111 119.25106
#
# Poissons Ratio (x) = -0.06379 0.44399
# Poissons Ratio (y) = -0.07722 0.24668
# Poissons Ratio (z) = 0.38193 0.17529
#
# Static dielectric constant tensor:
#      x y z
#    x 1.802820 0.000000 0.000000 
#    y 0.000000 1.718650 0.000000 
#    z 0.000000 0.000000 1.786510 
# 
# From -- ./inp_files/19352.got.cif
#   From: 2010.05.17/outbox.cif.g08.bks.cpg/sg72_10_cif.got.tgz:19352.got - 2010.06.03 17:03:01.
