data_PCOD9529203
_publ_section_title
;
Structure prediction by ZEFSAII (Michael W. Deem and Ramdas Pophale) SiO2 
 PCOD9529203
Probable space group: I B A M
;
_chemical_formula_sum "Si O2"
_cell_formula_units_Z 64
_cell_length_a 11.909737
_cell_length_b 14.616377
_cell_length_c 18.501486
_cell_angle_alpha 90.000000
_cell_angle_beta 90.000000
_cell_angle_gamma 90.000000
_cell_volume 3220.686989
_symmetry_space_group_name_H-M "I B A M"
_symmetry_group_IT_number 72
_symmetry_cell_setting 'orthorhombic'
loop_
_space_group_symop_operation_xyz
x,y,z
-x,-y,z
x,-y,1/2-z
-x,y,1/2-z
-x,-y,-z
x,y,-z
-x,y,1/2+z
x,-y,1/2+z
1/2+x,1/2+y,1/2+z
1/2-x,1/2-y,1/2+z
1/2+x,1/2-y,-z
1/2-x,1/2+y,-z
1/2-x,1/2-y,1/2-z
1/2+x,1/2+y,1/2-z
1/2-x,1/2+y,z
1/2+x,1/2-y,z
loop_
_atom_site_type_symbol
_atom_site_label
_atom_site_fract_x
_atom_site_fract_y
_atom_site_fract_z
Si Si1 0.255587 0.795778 0.669270
Si Si2 0.513367 0.891476 0.830289
Si Si3 0.871911 0.974692 0.834539
Si Si4 0.286585 0.119720 0.414570
O O1 0.250000 0.750000 0.750000
O O2 0.362243 0.860020 0.653005
O O3 0.152441 0.866274 0.659114
O O4 0.267183 0.713409 0.613414
O O5 0.500000 0.850759 0.750000
O O6 0.413166 0.868184 0.884084
O O7 0.500000 0.000000 0.824770
O O8 0.855700 0.000000 0.750000
O O9 0.782711 0.036472 0.878402
O O10 0.000000 0.000000 0.854484
O O11 0.286855 0.109087 0.500000
#
# Coordination Sequence:
#
# PCOD9529203 Si02
#       4
#    16  16  16  16
#     4  12  24  43  74 103 134 181 234 286 342 415
#     4  11  22  43  75  99 133 182 235 284 337 418
#     4  11  24  45  73 101 138 187 236 281 345 426
#     4  12  28  45  68 107 143 182 233 295 357 407
#
# _framework density 19.871535999999999
#
# number of rings (size 3 to 8) (size 9 to 14) (size 15 to 20)
#    0.000    0.500    7.500    0.000    3.500    3.000 
#    0.000    0.000    0.000    0.000    0.000    0.000 
#    0.000    0.000    0.000    0.000    0.000    0.000 
#
# Total GULP energy -178527.486833 kJ/mol
# GULP energy per Si atom -5578.983964 kJ/mol
# Density = 1.982631 g / cm^3
# Si number density = 19.871536 Si / 1000 Ang^3
#
#
#
# Elastic Constant Matrix: (Units=GPa)
#
#
# Indices 1 2 3 4 5 6 
#
# 1 123.9061 46.2825 53.5106 0.0000 0.0000 0.0000
# 2 46.2825 122.5542 31.0166 0.0000 0.0000 0.0000
# 3 53.5106 31.0166 119.2108 0.0000 0.0000 0.0000
# 4 0.0000 0.0000 0.0000 21.5576 0.0000 0.0000
# 5 0.0000 0.0000 0.0000 0.0000 23.1769 0.0000
# 6 0.0000 0.0000 0.0000 0.0000 0.0000 39.4571
#
#
#
# Elastic Compliance Matrix: (Units=1/GPa)
#
#
# Indices 1 2 3 4 5 6 
#
# 1 0.011021 -0.003115 -0.004136 0.000000 0.000000 0.000000
# 2 -0.003115 0.009615 -0.001103 0.000000 0.000000 0.000000
# 3 -0.004136 -0.001103 0.010532 0.000000 0.000000 0.000000
# 4 0.000000 0.000000 0.000000 0.046387 0.000000 0.000000
# 5 0.000000 0.000000 0.000000 0.000000 0.043146 0.000000
# 6 0.000000 0.000000 0.000000 0.000000 0.000000 0.025344
#
#
# Mechanical properties :
#
#
# Convention : Reuss Voigt Hill
#
# Bulk Modulus (GPa) = 69.16388 69.69895 69.43142
# Shear Modulus (GPa) = 29.83739 32.49577 31.16658
#
# Velocity S-wave (km/s) = 3.87914 4.04826 3.96460
# Velocity P-wave (km/s) = 7.41247 7.54998 7.48154
#
# Compressibility (1/GPa) = 0.01445841
#
# Stress axis : x y z
#
# Youngs Moduli (GPa) = 90.73982 104.00067 94.94604
#
# Poissons Ratio (x) = 0.32397 0.39273
# Poissons Ratio (y) = 0.28266 0.10477
# Poissons Ratio (z) = 0.37533 0.11476
#
# Static dielectric constant tensor:
#      x y z
#    x 1.822620 0.000000 0.000000 
#    y 0.000000 1.795500 0.000000 
#    z 0.000000 0.000000 1.693840 
# 
# From -- ./inp_files/28783.got.cif
#   From: 2010.05.17/outbox.cif.g08.bks.cpg/sg72_15_cif.got.tgz:28783.got - 2010.06.03 17:03:01.
