data_PCOD9529923
_publ_section_title
;
Structure prediction by ZEFSAII (Michael W. Deem and Ramdas Pophale) SiO2 
 PCOD9529923
Probable space group: I B C A 
;
_chemical_formula_sum "Si O2"
_cell_formula_units_Z 88
_cell_length_a 18.513966
_cell_length_b 13.924683
_cell_length_c 16.112282
_cell_angle_alpha 90.000000
_cell_angle_beta 90.000000
_cell_angle_gamma 90.000000
_cell_volume 4153.764146
_symmetry_space_group_name_H-M "I B C A "
_symmetry_group_IT_number 73
_symmetry_cell_setting 'orthorhombic'
loop_
_space_group_symop_operation_xyz
x,y,z
-x,1/2-y,z
x,-y,1/2-z
1/2-x,y,-z
-x,-y,-z
x,1/2+y,-z
-x,y,1/2+z
1/2+x,-y,z
1/2+x,1/2+y,1/2+z
1/2-x,-y,1/2+z
1/2+x,1/2-y,-z
-x,1/2+y,1/2-z
1/2-x,1/2-y,1/2-z
1/2+x,y,1/2-z
1/2-x,1/2+y,z
x,1/2-y,1/2+z
loop_
_atom_site_type_symbol
_atom_site_label
_atom_site_fract_x
_atom_site_fract_y
_atom_site_fract_z
Si Si1 0.390661 0.891086 0.553399
Si Si2 0.250000 0.526530 0.000000
Si Si3 0.115881 0.218224 0.669739
Si Si4 0.000000 0.750000 0.457492
Si Si5 0.500000 0.750000 0.808949
Si Si6 0.750590 0.922602 0.676963
Si Si7 0.081731 0.436530 0.831421
O O1 0.320396 0.908781 0.501198
O O2 0.370070 0.825270 0.633725
O O3 0.447579 0.827192 0.503519
O O4 0.417595 0.990661 0.591187
O O5 0.246820 0.466389 0.084402
O O6 0.055791 0.187352 0.599964
O O7 0.067734 0.218896 0.751449
O O8 0.189487 0.159677 0.679283
O O9 0.531058 0.653648 0.848906
O O10 0.836019 0.899040 0.684459
O O11 0.735475 0.000000 0.750000
O O12 0.060521 0.500000 0.750000
#
# Coordination Sequence:
#
# PCOD9529923 Si02
#       7
#    16   8  16   8   8  16  16
#     4   9  18  37  65  87 133 181 214 267 345 394
#     4  10  22  42  64  98 130 186 222 284 336 398
#     4   9  18  36  62  94 127 179 217 269 346 395
#     4   7  16  34  64  91 123 181 206 273 336 395
#     4  11  20  34  64  93 131 181 210 287 338 399
#     4  10  23  40  66  99 131 175 231 282 333 409
#     4  10  18  35  57  93 133 169 213 269 337 400
#
# _framework density 21.185601999999999
#
# number of rings (size 3 to 8) (size 9 to 14) (size 15 to 20)
#    1.091    1.455    1.818    0.000    0.000    3.636 
#    0.000    0.909    0.000   10.909    0.000    0.000 
#    0.000    0.000    0.000    0.000    0.000    0.000 
#
# Total GULP energy -244968.026659 kJ/mol
# GULP energy per Si atom -5567.455151 kJ/mol
# Density = 2.113738 g / cm^3
# Si number density = 21.185602 Si / 1000 Ang^3
#
#
#
# Elastic Constant Matrix: (Units=GPa)
#
#
# Indices 1 2 3 4 5 6 
#
# 1 98.2010 94.7589 49.9001 0.0000 0.0000 0.0000
# 2 94.7589 124.1299 32.1326 0.0000 0.0000 0.0000
# 3 49.9001 32.1326 76.1481 0.0000 0.0000 0.0000
# 4 0.0000 0.0000 0.0000 -22.3041 0.0000 0.0000
# 5 0.0000 0.0000 0.0000 0.0000 29.8613 0.0000
# 6 0.0000 0.0000 0.0000 0.0000 0.0000 48.1091
#
#
#
# Elastic Compliance Matrix: (Units=1/GPa)
#
#
# Indices 1 2 3 4 5 6 
#
# 1 0.061072 -0.040708 -0.022843 0.000000 0.000000 0.000000
# 2 -0.040708 0.036179 0.011410 0.000000 0.000000 0.000000
# 3 -0.022843 0.011410 0.023287 0.000000 0.000000 0.000000
# 4 0.000000 0.000000 0.000000 -0.044835 0.000000 0.000000
# 5 0.000000 0.000000 0.000000 0.000000 0.033488 0.000000
# 6 0.000000 0.000000 0.000000 0.000000 0.000000 0.020786
#
#
# Mechanical properties :
#
#
# Convention : Reuss Voigt Hill
#
# Bulk Modulus (GPa) = 61.52089 72.45136 66.98613
# Shear Modulus (GPa) = 20.86138 19.24575 20.05357
#
# Velocity S-wave (km/s) = 3.14139 3.01730 3.07997
# Velocity P-wave (km/s) = 6.50076 6.81259 6.65850
#
# Compressibility (1/GPa) = 0.01625464
#
# Stress axis : x y z
#
# Youngs Moduli (GPa) = 16.37413 27.64065 42.94322
#
# Poissons Ratio (x) = 1.12520 0.98094
# Poissons Ratio (y) = 0.66656 -0.48997
# Poissons Ratio (z) = 0.37403 -0.31537
#
# Static dielectric constant tensor:
#      x y z
#    x 1.761110 0.000000 0.000000 
#    y 0.000000 1.743750 0.000000 
#    z 0.000000 0.000000 1.865910 
# 
# From -- ./inp_files/22489.got.cif
#   From: 2010.05.17/outbox.cif.g08.bks.cpg/sg73_12_cif.got.tgz:22489.got - 2010.06.03 17:35:07.
