data_PCOD9529111
_publ_section_title
;
Structure prediction by ZEFSAII (Michael W. Deem and Ramdas Pophale) SiO2 
 PCOD9529111
Probable space group: I B A M
;
_chemical_formula_sum "Si O2"
_cell_formula_units_Z 112
_cell_length_a 10.084823
_cell_length_b 33.624936
_cell_length_c 15.347481
_cell_angle_alpha 90.000000
_cell_angle_beta 90.000000
_cell_angle_gamma 90.000000
_cell_volume 5204.354257
_symmetry_space_group_name_H-M "I B A M"
_symmetry_group_IT_number 72
_symmetry_cell_setting 'orthorhombic'
loop_
_space_group_symop_operation_xyz
x,y,z
-x,-y,z
x,-y,1/2-z
-x,y,1/2-z
-x,-y,-z
x,y,-z
-x,y,1/2+z
x,-y,1/2+z
1/2+x,1/2+y,1/2+z
1/2-x,1/2-y,1/2+z
1/2+x,1/2-y,-z
1/2-x,1/2+y,-z
1/2-x,1/2-y,1/2-z
1/2+x,1/2+y,1/2-z
1/2-x,1/2+y,z
1/2+x,1/2-y,z
loop_
_atom_site_type_symbol
_atom_site_label
_atom_site_fract_x
_atom_site_fract_y
_atom_site_fract_z
Si Si1 0.142425 0.412814 0.221077
Si Si2 0.713816 0.151043 0.900425
Si Si3 0.069283 0.206629 0.900715
Si Si4 0.772004 0.071076 0.594369
Si Si5 0.997894 0.879261 0.149494
Si Si6 0.848145 0.491474 0.353230
Si Si7 0.293058 0.260613 0.847622
O O1 0.127176 0.371359 0.171608
O O2 0.217009 0.411239 0.313789
O O3 0.190139 0.445023 0.148551
O O4 0.000000 0.428349 0.250000
O O5 0.734511 0.196965 0.876954
O O6 0.857161 0.130414 0.886454
O O7 0.669187 0.146886 0.000000
O O8 0.074444 0.163868 0.854455
O O9 0.212016 0.227367 0.900061
O O10 0.951565 0.233917 0.859854
O O11 0.026652 0.199098 0.000000
O O12 0.713528 0.083839 0.500000
O O13 0.920867 0.087263 0.596918
O O14 0.745861 0.023951 0.602472
O O15 0.000000 0.891697 0.250000
O O16 0.839638 0.500000 0.250000
O O17 0.000000 0.500000 0.383051
O O18 0.250000 0.250000 0.750000
#
# Coordination Sequence:
#
# PCOD9529111 Si02
#       7
#    16  16  16  16  16  16  16
#     4  11  22  41  65  93 131 170 216 261 325 391
#     4  11  24  43  65  91 131 176 217 264 329 397
#     4  11  22  40  65  93 128 166 217 272 325 390
#     4  11  22  37  64  97 125 160 219 271 315 386
#     4  11  21  41  65  91 124 173 212 264 328 385
#     4   9  17  38  61  87 125 166 206 256 315 380
#     4  11  23  41  64  93 126 170 220 267 332 393
#
# _framework density 21.520441999999999
#
# number of rings (size 3 to 8) (size 9 to 14) (size 15 to 20)
#    0.000    1.286    4.286    5.571    0.000    2.571 
#    0.000    0.714    0.000    1.714    0.000    0.000 
#    0.000    0.000    0.000    0.000    0.000    0.000 
#
# Total GULP energy -312227.832156 kJ/mol
# GULP energy per Si atom -5575.497003 kJ/mol
# Density = 2.147146 g / cm^3
# Si number density = 21.520442 Si / 1000 Ang^3
#
#
#
# Elastic Constant Matrix: (Units=GPa)
#
#
# Indices 1 2 3 4 5 6 
#
# 1 45.3730 28.7747 7.0804 0.0004 -0.0001 0.0000
# 2 28.7747 73.1859 12.3244 0.0005 0.0000 0.0000
# 3 7.0804 12.3244 140.1251 0.0012 -0.0001 0.0001
# 4 0.0004 0.0005 0.0012 -57.5213 -0.0001 0.0001
# 5 -0.0001 0.0000 -0.0001 -0.0001 9.0764 0.0001
# 6 0.0000 0.0000 0.0001 0.0001 0.0001 40.9094
#
#
#
# Elastic Compliance Matrix: (Units=1/GPa)
#
#
# Indices 1 2 3 4 5 6 
#
# 1 0.029392 -0.011476 -0.000476 0.000000 0.000000 0.000000
# 2 -0.011476 0.018350 -0.001034 0.000000 0.000000 0.000000
# 3 -0.000476 -0.001034 0.007251 0.000000 0.000000 0.000000
# 4 0.000000 0.000000 0.000000 -0.017385 0.000000 0.000000
# 5 0.000000 0.000000 0.000000 0.000000 0.110176 0.000000
# 6 0.000000 0.000000 0.000000 0.000000 0.000000 0.024444
#
#
# Mechanical properties :
#
#
# Convention : Reuss Voigt Hill
#
# Bulk Modulus (GPa) = 34.45712 39.44923 36.95318
# Shear Modulus (GPa) = 24.05311 12.52653 18.28982
#
# Velocity S-wave (km/s) = 3.34681 2.41524 2.91843
# Velocity P-wave (km/s) = 5.56605 5.11358 5.34461
#
# Compressibility (1/GPa) = 0.02902158
#
# Stress axis : x y z
#
# Youngs Moduli (GPa) = 34.02332 54.49603 137.90311
#
# Poissons Ratio (x) = 0.62539 0.06561
# Poissons Ratio (y) = 0.39045 0.14260
# Poissons Ratio (z) = 0.01619 0.05635
#
# Static dielectric constant tensor:
#      x y z
#    x 1.833630 0.000000 0.000000 
#    y 0.000000 1.837030 0.000000 
#    z 0.000000 0.000000 1.892300 
# 
# From -- ./inp_files/20709.got.cif
#   From: 2010.05.17/outbox.cif.g08.bks.cpg/sg72_11_cif.got.tgz:20709.got - 2010.06.03 17:03:01.
