data_PCOD9529328
_publ_section_title
;
Structure prediction by ZEFSAII (Michael W. Deem and Ramdas Pophale) SiO2 
 PCOD9529328
Probable space group: I B A M
;
_chemical_formula_sum "Si O2"
_cell_formula_units_Z 68
_cell_length_a 17.211032
_cell_length_b 9.703500
_cell_length_c 19.385210
_cell_angle_alpha 90.000000
_cell_angle_beta 90.000000
_cell_angle_gamma 90.000000
_cell_volume 3237.470594
_symmetry_space_group_name_H-M "I B A M"
_symmetry_group_IT_number 72
_symmetry_cell_setting 'orthorhombic'
loop_
_space_group_symop_operation_xyz
x,y,z
-x,-y,z
x,-y,1/2-z
-x,y,1/2-z
-x,-y,-z
x,y,-z
-x,y,1/2+z
x,-y,1/2+z
1/2+x,1/2+y,1/2+z
1/2-x,1/2-y,1/2+z
1/2+x,1/2-y,-z
1/2-x,1/2+y,-z
1/2-x,1/2-y,1/2-z
1/2+x,1/2+y,1/2-z
1/2-x,1/2+y,z
1/2+x,1/2-y,z
loop_
_atom_site_type_symbol
_atom_site_label
_atom_site_fract_x
_atom_site_fract_y
_atom_site_fract_z
Si Si1 0.923964 0.819891 0.866909
Si Si2 0.199739 0.969635 0.921404
Si Si3 0.084290 0.715672 0.921393
Si Si4 0.353064 0.024418 0.331277
Si Si5 0.000000 0.000000 0.750000
O O1 0.888561 0.673566 0.846502
O O2 0.003388 0.793383 0.908257
O O3 0.861977 0.908778 0.909162
O O4 0.947344 0.905477 0.798949
O O5 0.153261 0.826527 0.912254
O O6 0.269257 0.982799 0.867716
O O7 0.229561 0.975288 0.000000
O O8 0.095080 0.593131 0.867397
O O9 0.086653 0.663606 0.000000
O O10 0.347716 0.000000 0.250000
#
# Coordination Sequence:
#
# PCOD9529328 Si02
#       5
#    16  16  16  16   4
#     4  12  25  44  73  98 137 181 232 279 341 409
#     4  11  25  46  71 101 136 181 232 283 339 409
#     4  11  24  46  72 103 137 180 232 285 340 406
#     4  12  28  43  66 104 143 181 226 283 346 410
#     4  12  24  44  72 104 132 180 226 288 340 408
#
# _framework density 21.004051
#
# number of rings (size 3 to 8) (size 9 to 14) (size 15 to 20)
#    0.000    0.471    2.353    4.941    1.647   11.294 
#    0.000    0.000    0.000    0.000    0.000    0.000 
#    0.000    0.000    0.000    0.000    0.000    0.000 
#
# Total GULP energy -190526.252812 kJ/mol
# GULP energy per Si atom -5603.713318 kJ/mol
# Density = 2.095624 g / cm^3
# Si number density = 21.004051 Si / 1000 Ang^3
#
#
#
# Elastic Constant Matrix: (Units=GPa)
#
#
# Indices 1 2 3 4 5 6 
#
# 1 72.0677 2.0251 17.3084 0.0000 0.0000 0.0000
# 2 2.0251 94.6017 38.1278 0.0000 0.0000 0.0000
# 3 17.3084 38.1278 128.4058 0.0000 0.0000 0.0000
# 4 0.0000 0.0000 0.0000 19.5924 0.0000 0.0000
# 5 0.0000 0.0000 0.0000 0.0000 -29.0788 0.0000
# 6 0.0000 0.0000 0.0000 0.0000 0.0000 29.2387
#
#
#
# Elastic Compliance Matrix: (Units=1/GPa)
#
#
# Indices 1 2 3 4 5 6 
#
# 1 0.014364 0.000537 -0.002096 0.000000 0.000000 0.000000
# 2 0.000537 0.012028 -0.003644 0.000000 0.000000 0.000000
# 3 -0.002096 -0.003644 0.009152 0.000000 0.000000 0.000000
# 4 0.000000 0.000000 0.000000 0.051040 0.000000 0.000000
# 5 0.000000 0.000000 0.000000 0.000000 -0.034389 0.000000
# 6 0.000000 0.000000 0.000000 0.000000 0.000000 0.034201
#
#
# Mechanical properties :
#
#
# Convention : Reuss Voigt Hill
#
# Bulk Modulus (GPa) = 39.77832 45.55533 42.66682
# Shear Modulus (GPa) = 47.53720 19.79137 33.66429
#
# Velocity S-wave (km/s) = 4.76251 3.07296 4.00778
# Velocity P-wave (km/s) = 7.01581 5.85890 6.46329
#
# Compressibility (1/GPa) = 0.02513932
#
# Stress axis : x y z
#
# Youngs Moduli (GPa) = 69.61817 83.14126 109.26256
#
# Poissons Ratio (x) = -0.04466 0.22898
# Poissons Ratio (y) = -0.03740 0.39813
# Poissons Ratio (z) = 0.14590 0.30295
#
# Static dielectric constant tensor:
#      x y z
#    x 1.731350 0.000000 0.000000 
#    y 0.000000 1.731560 0.000000 
#    z 0.000000 0.000000 1.719020 
# 
# From -- ./inp_files/27747.got.cif
#   From: 2010.05.17/outbox.cif.g08.bks.cpg/sg72_14_cif.got.tgz:27747.got - 2010.06.03 17:03:01.
