data_PCOD9529682
_publ_section_title
;
Structure prediction by ZEFSAII (Michael W. Deem and Ramdas Pophale) SiO2 
 PCOD9529682
Probable space group: I B C A 
;
_chemical_formula_sum "Si O2"
_cell_formula_units_Z 120
_cell_length_a 16.813654
_cell_length_b 13.042899
_cell_length_c 26.571016
_cell_angle_alpha 90.000000
_cell_angle_beta 90.000000
_cell_angle_gamma 90.000000
_cell_volume 5826.991683
_symmetry_space_group_name_H-M "I B C A "
_symmetry_group_IT_number 73
_symmetry_cell_setting 'orthorhombic'
loop_
_space_group_symop_operation_xyz
x,y,z
-x,1/2-y,z
x,-y,1/2-z
1/2-x,y,-z
-x,-y,-z
x,1/2+y,-z
-x,y,1/2+z
1/2+x,-y,z
1/2+x,1/2+y,1/2+z
1/2-x,-y,1/2+z
1/2+x,1/2-y,-z
-x,1/2+y,1/2-z
1/2-x,1/2-y,1/2-z
1/2+x,y,1/2-z
1/2-x,1/2+y,z
x,1/2-y,1/2+z
loop_
_atom_site_type_symbol
_atom_site_label
_atom_site_fract_x
_atom_site_fract_y
_atom_site_fract_z
Si Si1 0.975037 0.369454 0.848284
Si Si2 0.077403 0.198267 0.951077
Si Si3 0.908685 0.473014 0.019563
Si Si4 0.615249 0.017062 0.364443
Si Si5 0.750000 0.889526 0.500000
Si Si6 0.328535 0.800583 0.298166
Si Si7 0.205986 0.172749 0.396001
Si Si8 0.333729 0.614760 0.230347
O O1 0.948377 0.377703 0.906337
O O2 0.897601 0.377594 0.814419
O O3 0.000000 0.250000 0.843169
O O4 0.045793 0.447460 0.840262
O O5 0.125511 0.286026 0.922691
O O6 0.000000 0.250000 0.973984
O O7 0.118849 0.131567 0.992566
O O8 0.833938 0.549121 0.007721
O O9 0.910778 0.455858 0.079285
O O10 0.000000 0.500000 0.000000
O O11 0.690301 0.939815 0.372787
O O12 0.635159 0.108687 0.326851
O O13 0.738924 0.832394 0.554315
O O14 0.288387 0.748660 0.348212
O O15 0.364599 0.707879 0.264683
O O16 0.259921 0.860636 0.269735
O O17 0.347688 0.500000 0.250000
#
# Coordination Sequence:
#
# PCOD9529682 Si02
#       8
#    16  16  16  16   8  16  16  16
#     4  10  16  34  62  88 111 161 209 251 307 398
#     4  10  17  33  60  83 120 163 207 247 316 392
#     4  11  22  38  58  95 130 166 210 268 328 393
#     4  11  20  37  64  89 120 169 213 258 327 384
#     4  10  24  36  60  92 128 164 214 262 314 402
#     4  10  22  38  65  92 123 166 214 268 337 387
#     4  10  19  36  58  89 118 163 206 260 315 391
#     4  11  22  41  62  90 122 166 212 273 323 381
#
# _framework density 20.593817000000001
#
# number of rings (size 3 to 8) (size 9 to 14) (size 15 to 20)
#    0.000    1.600    6.667    0.800    0.000    5.867 
#    0.000    2.000    0.000    7.200    0.000    0.000 
#    0.000    0.000    0.000    0.000    0.000    0.000 
#
# Total GULP energy -334008.038436 kJ/mol
# GULP energy per Si atom -5566.800641 kJ/mol
# Density = 2.054694 g / cm^3
# Si number density = 20.593817 Si / 1000 Ang^3
#
#
#
# Elastic Constant Matrix: (Units=GPa)
#
#
# Indices 1 2 3 4 5 6 
#
# 1 56.3059 9.9537 27.6206 0.0000 0.0000 0.0000
# 2 9.9537 36.3928 25.3144 0.0000 0.0000 0.0000
# 3 27.6206 25.3144 96.7944 0.0000 0.0000 0.0000
# 4 0.0000 0.0000 0.0000 26.6347 0.0000 0.0000
# 5 0.0000 0.0000 0.0000 0.0000 34.2742 0.0000
# 6 0.0000 0.0000 0.0000 0.0000 0.0000 17.1849
#
#
#
# Elastic Compliance Matrix: (Units=1/GPa)
#
#
# Indices 1 2 3 4 5 6 
#
# 1 0.020758 -0.001904 -0.005426 0.000000 0.000000 0.000000
# 2 -0.001904 0.033763 -0.008287 0.000000 0.000000 0.000000
# 3 -0.005426 -0.008287 0.014047 0.000000 0.000000 0.000000
# 4 0.000000 0.000000 0.000000 0.037545 0.000000 0.000000
# 5 0.000000 0.000000 0.000000 0.000000 0.029176 0.000000
# 6 0.000000 0.000000 0.000000 0.000000 0.000000 0.058191
#
#
# Mechanical properties :
#
#
# Convention : Reuss Voigt Hill
#
# Bulk Modulus (GPa) = 26.78395 35.03007 30.90701
# Shear Modulus (GPa) = 21.08315 24.05906 22.57110
#
# Velocity S-wave (km/s) = 3.20310 3.42170 3.31420
# Velocity P-wave (km/s) = 5.16854 5.71468 5.44846
#
# Compressibility (1/GPa) = 0.03733580
#
# Stress axis : x y z
#
# Youngs Moduli (GPa) = 48.17394 29.61848 71.19167
#
# Poissons Ratio (x) = 0.05638 0.38626
# Poissons Ratio (y) = 0.09170 0.58994
# Poissons Ratio (z) = 0.26137 0.24544
#
# Static dielectric constant tensor:
#      x y z
#    x 1.795670 0.000000 0.000000 
#    y 0.000000 1.779280 0.000000 
#    z 0.000000 0.000000 1.829630 
# 
# From -- ./inp_files/34579.got.cif
#   From: 2010.05.17/outbox.cif.g08.bks.cpg/sg73_18_cif.got.tgz:34579.got - 2010.06.03 17:35:07.
