data_PCOD9529570
_publ_section_title
;
Structure prediction by ZEFSAII (Michael W. Deem and Ramdas Pophale) SiO2 
 PCOD9529570
Probable space group: I B A M
;
_chemical_formula_sum "Si O2"
_cell_formula_units_Z 40
_cell_length_a 9.000000
_cell_length_b 27.000000
_cell_length_c 18.000000
_cell_angle_alpha 90.000000
_cell_angle_beta 90.000000
_cell_angle_gamma 90.000000
_cell_volume 4374.000000
_symmetry_space_group_name_H-M "I B A M"
_symmetry_group_IT_number 72
_symmetry_cell_setting 'orthorhombic'
loop_
_space_group_symop_operation_xyz
x,y,z
-x,-y,z
x,-y,1/2-z
-x,y,1/2-z
-x,-y,-z
x,y,-z
-x,y,1/2+z
x,-y,1/2+z
1/2+x,1/2+y,1/2+z
1/2-x,1/2-y,1/2+z
1/2+x,1/2-y,-z
1/2-x,1/2+y,-z
1/2-x,1/2-y,1/2-z
1/2+x,1/2+y,1/2-z
1/2-x,1/2+y,z
1/2+x,1/2-y,z
loop_
_atom_site_type_symbol
_atom_site_label
_atom_site_fract_x
_atom_site_fract_y
_atom_site_fract_z
Si Si1 0.929063 0.716422 0.334617
Si Si2 0.829105 0.395719 0.168243
Si Si3 0.824981 0.988581 0.088996
Si Si4 0.260497 0.195062 0.589533
Si Si5 0.320213 0.911718 0.843857
O O1 0.830221 0.665144 0.339409
O O2 0.840311 0.765338 0.363338
O O3 0.000000 0.719908 0.250000
O O4 0.070001 0.709065 0.388879
O O5 0.727578 0.435069 0.122403
O O6 0.796651 0.406473 0.255124
O O7 0.000453 0.408975 0.148122
O O8 0.738660 0.035747 0.125183
O O9 0.799254 0.988038 0.000000
O O10 0.000000 0.000000 0.101902
O O11 0.235305 0.198759 0.500000
O O12 0.248674 0.137204 0.616445
#
# Coordination Sequence:
#
# PCOD9529570 Si02
#       5
#    16  16  16  16  16
#     4  11  22  42  64  94 128 171 213 265 319 384
#     4  10  21  40  66  91 115 164 215 261 308 389
#     4  11  25  41  58  88 129 163 204 263 326 383
#     4  11  23  39  64  94 130 166 212 266 319 380
#     4  10  21  41  63  90 122 159 214 258 317 378
#
# _framework density 9.1449470000000002
#
# number of rings (size 3 to 8) (size 9 to 14) (size 15 to 20)
#    0.000    1.400    4.000    3.000    0.000   10.400 
#    0.000    2.000    0.000    0.000    0.000    0.000 
#    0.000    0.000    0.000    0.000    0.000    0.000 
#
# Total GULP energy -223151.155495 kJ/mol
# GULP energy per Si atom -5578.778887 kJ/mol
# Density = 0.912413 g / cm^3
# Si number density = 9.144947 Si / 1000 Ang^3
#
#
#
# Elastic Constant Matrix: (Units=GPa)
#
#
# Indices 1 2 3 4 5 6 
#
# 1 57.8705 47.2534 42.0470 0.0000 0.0000 0.0000
# 2 47.2534 160.2798 72.1553 0.0000 0.0000 0.0000
# 3 42.0470 72.1553 134.2380 -0.0001 0.0000 0.0000
# 4 0.0000 0.0000 -0.0001 43.0303 0.0000 0.0000
# 5 0.0000 0.0000 0.0000 0.0000 35.4339 0.0000
# 6 0.0000 0.0000 0.0000 0.0000 0.0000 47.0762
#
#
#
# Elastic Compliance Matrix: (Units=1/GPa)
#
#
# Indices 1 2 3 4 5 6 
#
# 1 0.025190 -0.005111 -0.005143 0.000000 0.000000 0.000000
# 2 -0.005111 0.009268 -0.003381 0.000000 0.000000 0.000000
# 3 -0.005143 -0.003381 0.010878 0.000000 0.000000 0.000000
# 4 0.000000 0.000000 0.000000 0.023239 0.000000 0.000000
# 5 0.000000 0.000000 0.000000 0.000000 0.028222 0.000000
# 6 0.000000 0.000000 0.000000 0.000000 0.000000 0.021242
#
#
# Mechanical properties :
#
#
# Convention : Reuss Voigt Hill
#
# Bulk Modulus (GPa) = 55.35270 75.03331 65.19300
# Shear Modulus (GPa) = 33.04029 37.83689 35.43859
#
# Velocity S-wave (km/s) = 4.25488 4.55327 4.40660
# Velocity P-wave (km/s) = 7.38027 8.29195 7.84936
#
# Compressibility (1/GPa) = 0.01806597
#
# Stress axis : x y z
#
# Youngs Moduli (GPa) = 39.69805 107.89910 91.93283
#
# Poissons Ratio (x) = 0.55150 0.47280
# Poissons Ratio (y) = 0.20291 0.31079
# Poissons Ratio (z) = 0.20416 0.36477
#
# Static dielectric constant tensor:
#      x y z
#    x 1.640990 0.000000 0.000000 
#    y 0.000000 1.635980 0.000000 
#    z 0.000000 0.000000 1.633140 
# 
# From -- ./inp_files/28185.got.cif
#   From: 2010.05.17/outbox.ucp.g08.bks.cvg/sg72_15_cif.got.tgz:28185.got - 2010.06.11 16:33:07.
