data_PCOD9529017
_publ_section_title
;
Structure prediction by ZEFSAII (Michael W. Deem and Ramdas Pophale) SiO2 
 PCOD9529017
Probable space group: I B A M
;
_chemical_formula_sum "Si O2"
_cell_formula_units_Z 92
_cell_length_a 24.612811
_cell_length_b 8.970010
_cell_length_c 22.600767
_cell_angle_alpha 90.000000
_cell_angle_beta 90.000000
_cell_angle_gamma 90.000000
_cell_volume 4989.733170
_symmetry_space_group_name_H-M "I B A M"
_symmetry_group_IT_number 72
_symmetry_cell_setting 'orthorhombic'
loop_
_space_group_symop_operation_xyz
x,y,z
-x,-y,z
x,-y,1/2-z
-x,y,1/2-z
-x,-y,-z
x,y,-z
-x,y,1/2+z
x,-y,1/2+z
1/2+x,1/2+y,1/2+z
1/2-x,1/2-y,1/2+z
1/2+x,1/2-y,-z
1/2-x,1/2+y,-z
1/2-x,1/2-y,1/2-z
1/2+x,1/2+y,1/2-z
1/2-x,1/2+y,z
1/2+x,1/2-y,z
loop_
_atom_site_type_symbol
_atom_site_label
_atom_site_fract_x
_atom_site_fract_y
_atom_site_fract_z
Si Si1 0.446668 0.761824 0.834323
Si Si2 0.352331 0.039071 0.680172
Si Si3 0.767057 0.120858 0.203786
Si Si4 0.025911 0.164525 0.567252
Si Si5 0.572983 0.500000 0.750000
Si Si6 0.500000 0.000000 0.250000
Si Si7 0.875466 0.789913 0.650952
O O1 0.383997 0.812634 0.841149
O O2 0.484360 0.757687 0.891814
O O3 0.453888 0.605840 0.799840
O O4 0.466698 0.891989 0.791684
O O5 0.287781 0.061807 0.673285
O O6 0.357540 0.000000 0.750000
O O7 0.376135 0.889639 0.651086
O O8 0.750000 0.250000 0.250000
O O9 0.812102 0.166724 0.156245
O O10 0.790109 0.000000 0.250000
O O11 0.029916 0.219638 0.500000
O O12 0.084813 0.159265 0.598640
O O13 0.000000 0.000000 0.565874
O O14 0.601566 0.628864 0.789857
#
# Coordination Sequence:
#
# PCOD9529017 Si02
#       7
#    16  16  16  16   8   4  16
#     4  12  22  37  58  89 127 162 201 260 313 388
#     4  11  21  36  54  92 137 155 192 248 324 389
#     4  11  20  33  57  93 131 160 194 245 321 399
#     4  11  26  44  63  88 121 172 226 266 301 359
#     4  12  20  31  59  94 113 152 206 243 334 382
#     4  12  24  34  56  92 134 158 192 258 342 370
#     4  12  22  38  60  91 129 168 200 263 312 386
#
# _framework density 18.437860000000001
#
# number of rings (size 3 to 8) (size 9 to 14) (size 15 to 20)
#    0.000    0.522    8.696    2.087    0.000    0.696 
#    0.000    3.913    0.000    2.087    0.000    0.000 
#    0.000    0.000    0.000    0.000    0.000    0.000 
#
# Total GULP energy -256446.721422 kJ/mol
# GULP energy per Si atom -5574.928727 kJ/mol
# Density = 1.839589 g / cm^3
# Si number density = 18.437860 Si / 1000 Ang^3
#
#
#
# Elastic Constant Matrix: (Units=GPa)
#
#
# Indices 1 2 3 4 5 6 
#
# 1 119.8292 30.7842 60.6858 0.0000 0.0000 0.0000
# 2 30.7842 92.1191 22.5428 0.0000 0.0000 0.0000
# 3 60.6858 22.5428 104.0410 0.0000 0.0000 0.0000
# 4 0.0000 0.0000 0.0000 15.2540 0.0000 0.0000
# 5 0.0000 0.0000 0.0000 0.0000 8.8468 0.0000
# 6 0.0000 0.0000 0.0000 0.0000 0.0000 31.9938
#
#
#
# Elastic Compliance Matrix: (Units=1/GPa)
#
#
# Indices 1 2 3 4 5 6 
#
# 1 0.012366 -0.002500 -0.006671 0.000000 0.000000 0.000000
# 2 -0.002500 0.011969 -0.001135 0.000000 0.000000 0.000000
# 3 -0.006671 -0.001135 0.013749 0.000000 0.000000 0.000000
# 4 0.000000 0.000000 0.000000 0.065556 0.000000 0.000000
# 5 0.000000 0.000000 0.000000 0.000000 0.113036 0.000000
# 6 0.000000 0.000000 0.000000 0.000000 0.000000 0.031256
#
#
# Mechanical properties :
#
#
# Convention : Reuss Voigt Hill
#
# Bulk Modulus (GPa) = 57.23795 60.44610 58.84203
# Shear Modulus (GPa) = 18.22370 24.68402 21.45386
#
# Velocity S-wave (km/s) = 3.14727 3.66289 3.41482
# Velocity P-wave (km/s) = 6.65719 7.12347 6.89427
#
# Compressibility (1/GPa) = 0.01747093
#
# Stress axis : x y z
#
# Youngs Moduli (GPa) = 80.86678 83.55122 72.73351
#
# Poissons Ratio (x) = 0.20887 0.48523
# Poissons Ratio (y) = 0.20216 0.08256
# Poissons Ratio (z) = 0.53949 0.09484
#
# Static dielectric constant tensor:
#      x y z
#    x 1.785170 0.000000 0.000000 
#    y 0.000000 1.689930 0.000000 
#    z 0.000000 0.000000 1.605710 
# 
# From -- ./inp_files/40719.got.cif
#   From: 2010.05.17/outbox.cif.g08.bks.cpg/sg72_21_cif.got.tgz:40719.got - 2010.06.03 17:03:01.
