data_PCOD9529826
_publ_section_title
;
Structure prediction by ZEFSAII (Michael W. Deem and Ramdas Pophale) SiO2 
 PCOD9529826
Probable space group: I B C A 
;
_chemical_formula_sum "Si O2"
_cell_formula_units_Z 88
_cell_length_a 26.490241
_cell_length_b 8.766291
_cell_length_c 21.005105
_cell_angle_alpha 90.000000
_cell_angle_beta 90.000000
_cell_angle_gamma 90.000000
_cell_volume 4877.829876
_symmetry_space_group_name_H-M "I B C A "
_symmetry_group_IT_number 73
_symmetry_cell_setting 'orthorhombic'
loop_
_space_group_symop_operation_xyz
x,y,z
-x,1/2-y,z
x,-y,1/2-z
1/2-x,y,-z
-x,-y,-z
x,1/2+y,-z
-x,y,1/2+z
1/2+x,-y,z
1/2+x,1/2+y,1/2+z
1/2-x,-y,1/2+z
1/2+x,1/2-y,-z
-x,1/2+y,1/2-z
1/2-x,1/2-y,1/2-z
1/2+x,y,1/2-z
1/2-x,1/2+y,z
x,1/2-y,1/2+z
loop_
_atom_site_type_symbol
_atom_site_label
_atom_site_fract_x
_atom_site_fract_y
_atom_site_fract_z
Si Si1 0.453803 0.000000 0.750000
Si Si2 0.598123 0.405151 0.153074
Si Si3 0.782726 0.641252 0.294947
Si Si4 0.110079 0.727551 0.296103
Si Si5 0.706208 0.103911 0.589447
Si Si6 0.500000 0.750000 0.841023
Si Si7 0.750000 0.357703 0.500000
O O1 0.420983 0.884531 0.706834
O O2 0.486059 0.891339 0.795233
O O3 0.608725 0.333373 0.223177
O O4 0.588888 0.586350 0.163076
O O5 0.649991 0.387606 0.115615
O O6 0.550610 0.311070 0.125237
O O7 0.798420 0.500000 0.250000
O O8 0.750000 0.750000 0.250000
O O9 0.832797 0.731682 0.315738
O O10 0.747011 0.591272 0.353156
O O11 0.719780 0.252838 0.548962
O O12 0.713840 0.963615 0.541836
#
# Coordination Sequence:
#
# PCOD9529826 Si02
#       7
#     8  16  16  16  16   8   8
#     4  10  18  32  46  72 120 154 184 210 266 356
#     4  10  20  34  53  77 112 148 188 233 282 336
#     4  12  21  32  54  89 119 146 179 230 290 351
#     4  10  19  31  50  84 118 152 176 220 285 351
#     4  11  22  38  57  79 115 150 193 237 278 345
#     4  10  20  32  52  76 106 154 192 230 276 334
#     4  10  24  40  56  78 108 158 196 230 284 340
#
# _framework density 18.040808999999999
#
# number of rings (size 3 to 8) (size 9 to 14) (size 15 to 20)
#    0.000    1.455    2.727    5.455    0.000    0.000 
#    0.000    0.000    0.000    1.091    0.000    0.000 
#    0.000    0.000    0.000    0.000    0.000    0.000 
#
# Total GULP energy -245588.629654 kJ/mol
# GULP energy per Si atom -5581.559765 kJ/mol
# Density = 1.799975 g / cm^3
# Si number density = 18.040809 Si / 1000 Ang^3
#
#
#
# Elastic Constant Matrix: (Units=GPa)
#
#
# Indices 1 2 3 4 5 6 
#
# 1 116.0407 44.3355 24.4347 0.0000 0.0000 0.0000
# 2 44.3355 116.4910 20.6851 0.0000 0.0000 0.0000
# 3 24.4347 20.6851 53.0159 0.0000 0.0000 0.0000
# 4 0.0000 0.0000 0.0000 -12.3468 0.0000 0.0000
# 5 0.0000 0.0000 0.0000 0.0000 11.2186 0.0000
# 6 0.0000 0.0000 0.0000 0.0000 0.0000 10.4039
#
#
#
# Elastic Compliance Matrix: (Units=1/GPa)
#
#
# Indices 1 2 3 4 5 6 
#
# 1 0.010683 -0.003429 -0.003586 0.000000 0.000000 0.000000
# 2 -0.003429 0.010324 -0.002448 0.000000 0.000000 0.000000
# 3 -0.003586 -0.002448 0.021470 0.000000 0.000000 0.000000
# 4 0.000000 0.000000 0.000000 -0.080993 0.000000 0.000000
# 5 0.000000 0.000000 0.000000 0.000000 0.089138 0.000000
# 6 0.000000 0.000000 0.000000 0.000000 0.000000 0.096117
#
#
# Mechanical properties :
#
#
# Convention : Reuss Voigt Hill
#
# Bulk Modulus (GPa) = 42.45953 51.60647 47.03300
# Shear Modulus (GPa) = 28.81596 14.92797 21.87196
#
# Velocity S-wave (km/s) = 4.00092 2.87967 3.48567
# Velocity P-wave (km/s) = 6.70294 6.30271 6.50591
#
# Compressibility (1/GPa) = 0.02355184
#
# Stress axis : x y z
#
# Youngs Moduli (GPa) = 93.60791 96.86107 46.57676
#
# Poissons Ratio (x) = 0.33215 0.16701
# Poissons Ratio (y) = 0.32099 0.11401
# Poissons Ratio (z) = 0.33565 0.23709
#
# Static dielectric constant tensor:
#      x y z
#    x 1.651880 0.000000 0.000000 
#    y 0.000000 1.667280 0.000000 
#    z 0.000000 0.000000 1.591290 
# 
# From -- ./inp_files/7092.got.cif
#   From: 2010.05.17/outbox.cif.g08.bks.cpg/sg73_4_cif.got.tgz:7092.got - 2010.06.03 17:35:07.
