data_PCOD9529761
_publ_section_title
;
Structure prediction by ZEFSAII (Michael W. Deem and Ramdas Pophale) SiO2 
 PCOD9529761
Probable space group: I B C A 
;
_chemical_formula_sum "Si O2"
_cell_formula_units_Z 104
_cell_length_a 17.603573
_cell_length_b 14.466671
_cell_length_c 17.613240
_cell_angle_alpha 90.000000
_cell_angle_beta 90.000000
_cell_angle_gamma 90.000000
_cell_volume 4485.477509
_symmetry_space_group_name_H-M "I B C A "
_symmetry_group_IT_number 73
_symmetry_cell_setting 'orthorhombic'
loop_
_space_group_symop_operation_xyz
x,y,z
-x,1/2-y,z
x,-y,1/2-z
1/2-x,y,-z
-x,-y,-z
x,1/2+y,-z
-x,y,1/2+z
1/2+x,-y,z
1/2+x,1/2+y,1/2+z
1/2-x,-y,1/2+z
1/2+x,1/2-y,-z
-x,1/2+y,1/2-z
1/2-x,1/2-y,1/2-z
1/2+x,y,1/2-z
1/2-x,1/2+y,z
x,1/2-y,1/2+z
loop_
_atom_site_type_symbol
_atom_site_label
_atom_site_fract_x
_atom_site_fract_y
_atom_site_fract_z
Si Si1 0.954737 0.657703 0.109662
Si Si2 0.285869 0.406307 0.081920
Si Si3 0.991543 0.048530 0.111295
Si Si4 0.842061 0.562159 0.323007
Si Si5 0.388834 0.228347 0.764746
Si Si6 0.500000 0.750000 0.096009
Si Si7 0.339500 0.910930 0.204016
O O1 0.867026 0.645445 0.083021
O O2 0.996802 0.560167 0.090219
O O3 0.938957 0.676609 0.200813
O O4 0.000000 0.750000 0.084646
O O5 0.303316 0.512830 0.106236
O O6 0.224209 0.376655 0.144768
O O7 0.250000 0.399785 0.000000
O O8 0.068123 0.062961 0.159288
O O9 0.993709 0.145462 0.061290
O O10 0.913794 0.055352 0.157607
O O11 0.836031 0.500000 0.250000
O O12 0.821064 0.662705 0.293097
O O13 0.430871 0.249258 0.844077
O O14 0.363170 0.328991 0.739061
O O15 0.313791 0.000000 0.250000
#
# Coordination Sequence:
#
# PCOD9529761 Si02
#       7
#    16  16  16  16  16   8  16
#     4  11  21  39  70 101 135 186 234 288 355 425
#     4  11  26  46  63  88 145 193 236 286 355 435
#     4   9  18  33  62 100 139 162 222 287 351 421
#     4  10  17  37  67  96 125 176 223 289 350 405
#     4  10  18  33  65 101 132 163 225 288 349 415
#     4   8  16  26  54 100 134 156 198 282 358 392
#     4  11  23  38  64 104 139 174 222 299 365 421
#
# _framework density 23.185936000000002
#
# number of rings (size 3 to 8) (size 9 to 14) (size 15 to 20)
#    0.000    1.846    3.846    1.846    2.154    0.615 
#    2.769    3.846   10.154    0.000    0.000    0.000 
#    0.000    0.000    0.000    0.000    0.000    0.000 
#
# Total GULP energy -289500.244296 kJ/mol
# GULP energy per Si atom -5567.312390 kJ/mol
# Density = 2.313316 g / cm^3
# Si number density = 23.185936 Si / 1000 Ang^3
#
#
#
# Elastic Constant Matrix: (Units=GPa)
#
#
# Indices 1 2 3 4 5 6 
#
# 1 111.1666 30.9305 21.9719 0.0000 0.0000 0.0000
# 2 30.9305 221.3433 48.1424 0.0000 0.0000 0.0000
# 3 21.9719 48.1424 78.3065 0.0000 0.0000 0.0000
# 4 0.0000 0.0000 0.0000 20.8144 0.0000 0.0000
# 5 0.0000 0.0000 0.0000 0.0000 4.0800 0.0000
# 6 0.0000 0.0000 0.0000 0.0000 0.0000 3.4126
#
#
#
# Elastic Compliance Matrix: (Units=1/GPa)
#
#
# Indices 1 2 3 4 5 6 
#
# 1 0.009669 -0.000879 -0.002173 0.000000 0.000000 0.000000
# 2 -0.000879 0.005295 -0.003009 0.000000 0.000000 0.000000
# 3 -0.002173 -0.003009 0.015230 0.000000 0.000000 0.000000
# 4 0.000000 0.000000 0.000000 0.048044 0.000000 0.000000
# 5 0.000000 0.000000 0.000000 0.000000 0.245098 0.000000
# 6 0.000000 0.000000 0.000000 0.000000 0.000000 0.293030
#
#
# Mechanical properties :
#
#
# Convention : Reuss Voigt Hill
#
# Bulk Modulus (GPa) = 55.32952 68.10066 61.71509
# Shear Modulus (GPa) = 7.88008 26.31285 17.09647
#
# Velocity S-wave (km/s) = 1.84554 3.37243 2.71839
# Velocity P-wave (km/s) = 5.33447 6.67830 6.04385
#
# Compressibility (1/GPa) = 0.01807354
#
# Stress axis : x y z
#
# Youngs Moduli (GPa) = 103.41851 188.85486 65.66047
#
# Poissons Ratio (x) = 0.16592 0.14268
# Poissons Ratio (y) = 0.09086 0.19756
# Poissons Ratio (z) = 0.22473 0.56824
#
# Static dielectric constant tensor:
#      x y z
#    x 1.934300 0.000000 0.000000 
#    y 0.000000 2.124800 0.000000 
#    z 0.000000 0.000000 1.901190 
# 
# From -- ./inp_files/26545.got.cif
#   From: 2010.05.17/outbox.cif.g08.bks.cpg/sg73_14_cif.got.tgz:26545.got - 2010.06.03 17:35:07.
