data_PCOD9529166
_publ_section_title
;
Structure prediction by ZEFSAII (Michael W. Deem and Ramdas Pophale) SiO2 
 PCOD9529166
Probable space group: I B A M
;
_chemical_formula_sum "Si O2"
_cell_formula_units_Z 64
_cell_length_a 8.363497
_cell_length_b 19.968927
_cell_length_c 16.090892
_cell_angle_alpha 90.000000
_cell_angle_beta 90.000000
_cell_angle_gamma 90.000000
_cell_volume 2687.340855
_symmetry_space_group_name_H-M "I B A M"
_symmetry_group_IT_number 72
_symmetry_cell_setting 'orthorhombic'
loop_
_space_group_symop_operation_xyz
x,y,z
-x,-y,z
x,-y,1/2-z
-x,y,1/2-z
-x,-y,-z
x,y,-z
-x,y,1/2+z
x,-y,1/2+z
1/2+x,1/2+y,1/2+z
1/2-x,1/2-y,1/2+z
1/2+x,1/2-y,-z
1/2-x,1/2+y,-z
1/2-x,1/2-y,1/2-z
1/2+x,1/2+y,1/2-z
1/2-x,1/2+y,z
1/2+x,1/2-y,z
loop_
_atom_site_type_symbol
_atom_site_label
_atom_site_fract_x
_atom_site_fract_y
_atom_site_fract_z
Si Si1 0.073732 0.658801 0.340389
Si Si2 0.232217 0.270637 0.403177
Si Si3 0.245825 0.963360 0.100364
Si Si4 0.599112 0.402956 0.898953
O O1 0.231737 0.704436 0.351090
O O2 0.115492 0.583547 0.366197
O O3 0.000000 0.660771 0.250000
O O4 0.941438 0.696051 0.396297
O O5 0.259703 0.254301 0.500000
O O6 0.351385 0.329315 0.372598
O O7 0.076778 0.928267 0.123400
O O8 0.225134 0.040070 0.128781
O O9 0.256985 0.963666 0.000000
O O10 0.603794 0.401915 0.000000
#
# Coordination Sequence:
#
# PCOD9529166 Si02
#       4
#    16  16  16  16
#     4  12  25  39  58  88 129 167 203 259 323 380
#     4  11  22  39  61  86 115 161 215 262 309 373
#     4   9  17  36  62  89 118 157 205 260 317 377
#     4   8  17  34  62  91 115 147 204 267 313 362
#
# _framework density 23.815365
#
# number of rings (size 3 to 8) (size 9 to 14) (size 15 to 20)
#    0.000    2.000    0.000    6.000    0.000    3.000 
#    0.000    6.250    0.000    3.000    0.000    0.000 
#    0.000    0.000    0.000    0.000    0.000    0.000 
#
# Total GULP energy -179027.699908 kJ/mol
# GULP energy per Si atom -5594.615622 kJ/mol
# Density = 2.376116 g / cm^3
# Si number density = 23.815365 Si / 1000 Ang^3
#
#
#
# Elastic Constant Matrix: (Units=GPa)
#
#
# Indices 1 2 3 4 5 6 
#
# 1 63.8687 3.2816 16.9055 0.0000 0.0000 0.0000
# 2 3.2816 101.7627 29.6861 0.0000 0.0000 0.0000
# 3 16.9055 29.6861 58.4854 0.0000 0.0000 0.0000
# 4 0.0000 0.0000 0.0000 11.3778 0.0000 0.0000
# 5 0.0000 0.0000 0.0000 0.0000 21.9500 0.0000
# 6 0.0000 0.0000 0.0000 0.0000 0.0000 51.3457
#
#
#
# Elastic Compliance Matrix: (Units=1/GPa)
#
#
# Indices 1 2 3 4 5 6 
#
# 1 0.017048 0.001042 -0.005457 0.000000 0.000000 0.000000
# 2 0.001042 0.011598 -0.006188 0.000000 0.000000 0.000000
# 3 -0.005457 -0.006188 0.021817 0.000000 0.000000 0.000000
# 4 0.000000 0.000000 0.000000 0.087891 0.000000 0.000000
# 5 0.000000 0.000000 0.000000 0.000000 0.045558 0.000000
# 6 0.000000 0.000000 0.000000 0.000000 0.000000 0.019476
#
#
# Mechanical properties :
#
#
# Convention : Reuss Voigt Hill
#
# Bulk Modulus (GPa) = 34.17985 35.98480 35.08233
# Shear Modulus (GPa) = 21.33598 28.55094 24.94346
#
# Velocity S-wave (km/s) = 2.99639 3.46619 3.23982
# Velocity P-wave (km/s) = 5.13365 5.58230 5.36266
#
# Compressibility (1/GPa) = 0.02925700
#
# Stress axis : x y z
#
# Youngs Moduli (GPa) = 58.65814 86.21845 45.83644
#
# Poissons Ratio (x) = -0.08985 0.25012
# Poissons Ratio (y) = -0.06113 0.28365
# Poissons Ratio (z) = 0.32008 0.53355
#
# Static dielectric constant tensor:
#      x y z
#    x 1.988630 0.000000 0.000000 
#    y 0.000000 1.874000 0.000000 
#    z 0.000000 0.000000 1.868710 
# 
# From -- ./inp_files/27644.got.cif
#   From: 2010.05.17/outbox.cif.g08.bks.cpg/sg72_14_cif.got.tgz:27644.got - 2010.06.03 17:03:01.
