data_PCOD9529493
_publ_section_title
;
Structure prediction by ZEFSAII (Michael W. Deem and Ramdas Pophale) SiO2 
 PCOD9529493
Probable space group: I B A M
;
_chemical_formula_sum "Si O2"
_cell_formula_units_Z 64
_cell_length_a 12.000000
_cell_length_b 27.000000
_cell_length_c 24.000000
_cell_angle_alpha 90.000000
_cell_angle_beta 90.000000
_cell_angle_gamma 90.000000
_cell_volume 7776.000000
_symmetry_space_group_name_H-M "I B A M"
_symmetry_group_IT_number 72
_symmetry_cell_setting 'orthorhombic'
loop_
_space_group_symop_operation_xyz
x,y,z
-x,-y,z
x,-y,1/2-z
-x,y,1/2-z
-x,-y,-z
x,y,-z
-x,y,1/2+z
x,-y,1/2+z
1/2+x,1/2+y,1/2+z
1/2-x,1/2-y,1/2+z
1/2+x,1/2-y,-z
1/2-x,1/2+y,-z
1/2-x,1/2-y,1/2-z
1/2+x,1/2+y,1/2-z
1/2-x,1/2+y,z
1/2+x,1/2-y,z
loop_
_atom_site_type_symbol
_atom_site_label
_atom_site_fract_x
_atom_site_fract_y
_atom_site_fract_z
Si Si1 0.367083 0.505961 0.436810
Si Si2 0.365417 0.559150 0.253397
Si Si3 0.879883 0.343773 0.566476
Si Si4 0.693011 0.396028 0.375216
Si Si5 0.318823 0.735105 0.933879
Si Si6 0.854354 0.653890 0.565994
Si Si7 0.192818 0.085363 0.129866
Si Si8 0.004879 0.849880 0.432382
O O1 0.500000 0.500000 0.434195
O O2 0.331198 0.495192 0.500000
O O3 0.341072 0.560674 0.417607
O O4 0.310343 0.470264 0.392451
O O5 0.337569 0.500000 0.250000
O O6 0.500000 0.562351 0.250000
O O7 0.326796 0.584876 0.311760
O O8 0.320582 0.584873 0.196567
O O9 0.851874 0.351595 0.500000
O O10 0.817609 0.381571 0.607205
O O11 0.837522 0.290071 0.586579
O O12 0.013336 0.344222 0.570082
O O13 0.608569 0.353012 0.396977
O O14 0.209904 0.704281 0.916502
O O15 0.428238 0.701409 0.925165
O O16 0.307313 0.740623 0.000000
O O17 0.825558 0.644964 0.500000
O O18 0.800471 0.612580 0.605353
O O19 0.088594 0.110821 0.096995
O O20 0.991736 0.858305 0.500000
#
# Coordination Sequence:
#
# PCOD9529493 Si02
#       8
#    16  16  16  16  16  16  16  16
#     4  11  19  29  49  81 115 141 173 232 294 339
#     4  11  21  37  55  80 112 147 191 234 284 332
#     4  10  21  36  55  84 120 150 182 232 285 339
#     4  12  22  33  52  85 117 147 188 234 282 333
#     4   8  17  32  55  83 113 147 180 220 283 351
#     4   9  19  36  56  82 113 149 188 223 278 347
#     4  11  19  34  55  77 107 147 190 230 274 334
#     4  10  18  30  52  85 114 140 177 226 287 346
#
# _framework density 8.2304530000000007
#
# number of rings (size 3 to 8) (size 9 to 14) (size 15 to 20)
#    0.000    1.750    3.750    3.000    1.750    0.000 
#    0.000    1.250    0.000    6.000    6.500    0.000 
#    0.000    0.000    0.000    0.000    0.000    0.000 
#
# Total GULP energy -356513.339083 kJ/mol
# GULP energy per Si atom -5570.520923 kJ/mol
# Density = 0.821172 g / cm^3
# Si number density = 8.230453 Si / 1000 Ang^3
#
#
#
# Elastic Constant Matrix: (Units=GPa)
#
#
# Indices 1 2 3 4 5 6 
#
# 1 78.3474 31.0749 44.9986 0.0000 0.0000 0.0000
# 2 31.0749 52.3593 29.6190 0.0000 0.0000 0.0000
# 3 44.9986 29.6190 109.2185 0.0000 0.0000 0.0000
# 4 0.0000 0.0000 0.0000 -1.3206 0.0000 0.0000
# 5 0.0000 0.0000 0.0000 0.0000 24.7755 0.0000
# 6 0.0000 0.0000 0.0000 0.0000 0.0000 12.5085
#
#
#
# Elastic Compliance Matrix: (Units=1/GPa)
#
#
# Indices 1 2 3 4 5 6 
#
# 1 0.019315 -0.008223 -0.005728 0.000000 0.000000 0.000000
# 2 -0.008223 0.026061 -0.003679 0.000000 0.000000 0.000000
# 3 -0.005728 -0.003679 0.012514 0.000000 0.000000 0.000000
# 4 0.000000 0.000000 0.000000 -0.757204 0.000000 0.000000
# 5 0.000000 0.000000 0.000000 0.000000 0.040362 0.000000
# 6 0.000000 0.000000 0.000000 0.000000 0.000000 0.079946
#
#
# Mechanical properties :
#
#
# Convention : Reuss Voigt Hill
#
# Bulk Modulus (GPa) = 44.19212 50.14559 47.16885
# Shear Modulus (GPa) = -9.32482 16.14151 3.40835
#
# Velocity S-wave (km/s) = -2.38267 3.13485 1.44051
# Velocity P-wave (km/s) = 4.39721 6.60550 5.61106
#
# Compressibility (1/GPa) = 0.02262847
#
# Stress axis : x y z
#
# Youngs Moduli (GPa) = 51.77332 38.37214 79.91259
#
# Poissons Ratio (x) = 0.31554 0.45773
# Poissons Ratio (y) = 0.42574 0.29403
# Poissons Ratio (z) = 0.29655 0.14119
#
# Static dielectric constant tensor:
#      x y z
#    x 1.578280 0.000000 0.000000 
#    y 0.000000 1.613110 0.000000 
#    z 0.000000 0.000000 1.527560 
# 
# From -- ./inp_files/43753.got.cif
#   From: 2010.05.17/outbox.ucp.g08.bks.cvg/sg72_22_cif.got.tgz:43753.got - 2010.06.11 16:33:07.
