data_PCOD9529944
_publ_section_title
;
Structure prediction by ZEFSAII (Michael W. Deem and Ramdas Pophale) SiO2 
 PCOD9529944
Probable space group: I B C A 
;
_chemical_formula_sum "Si O2"
_cell_formula_units_Z 104
_cell_length_a 23.196800
_cell_length_b 13.008529
_cell_length_c 17.577795
_cell_angle_alpha 90.000000
_cell_angle_beta 90.000000
_cell_angle_gamma 90.000000
_cell_volume 5304.209423
_symmetry_space_group_name_H-M "I B C A "
_symmetry_group_IT_number 73
_symmetry_cell_setting 'orthorhombic'
loop_
_space_group_symop_operation_xyz
x,y,z
-x,1/2-y,z
x,-y,1/2-z
1/2-x,y,-z
-x,-y,-z
x,1/2+y,-z
-x,y,1/2+z
1/2+x,-y,z
1/2+x,1/2+y,1/2+z
1/2-x,-y,1/2+z
1/2+x,1/2-y,-z
-x,1/2+y,1/2-z
1/2-x,1/2-y,1/2-z
1/2+x,y,1/2-z
1/2-x,1/2+y,z
x,1/2-y,1/2+z
loop_
_atom_site_type_symbol
_atom_site_label
_atom_site_fract_x
_atom_site_fract_y
_atom_site_fract_z
Si Si1 0.888576 0.301907 0.901026
Si Si2 0.411904 0.117105 0.777384
Si Si3 0.171786 0.900330 0.059509
Si Si4 0.000000 0.750000 0.685149
Si Si5 0.700958 0.163137 0.898233
Si Si6 0.362158 0.872392 0.568161
Si Si7 0.316322 0.215533 0.240512
O O1 0.877220 0.180410 0.917943
O O2 0.951666 0.307605 0.864822
O O3 0.839889 0.331506 0.838135
O O4 0.881661 0.359042 0.981160
O O5 0.466066 0.169510 0.737411
O O6 0.412277 0.132934 0.868537
O O7 0.356123 0.183644 0.751886
O O8 0.406560 0.000000 0.750000
O O9 0.230921 0.854676 0.093617
O O10 0.164658 0.016562 0.084070
O O11 0.175147 0.900350 0.967975
O O12 0.683532 0.281124 0.916650
O O13 0.676355 0.142894 0.814531
O O14 0.250000 0.250000 0.250000
#
# Coordination Sequence:
#
# PCOD9529944 Si02
#       7
#    16  16  16   8  16  16  16
#     4  10  21  38  62  89 121 161 207 259 314 365
#     4  10  22  41  65  92 118 166 213 254 318 380
#     4  10  19  36  58  84 123 158 206 245 304 373
#     4  10  22  42  64  86 124 162 210 276 310 360
#     4   9  20  33  55  85 121 160 194 246 298 371
#     4  10  21  38  61  90 120 161 208 251 307 379
#     4  10  18  36  59  86 126 161 200 250 304 375
#
# _framework density 19.607068999999999
#
# number of rings (size 3 to 8) (size 9 to 14) (size 15 to 20)
#    0.000    2.154    1.538    1.846    0.000    5.538 
#    0.000   10.000    0.000    0.923    0.000    0.000 
#    0.000    0.000    0.000    0.000    0.000    0.000 
#
# Total GULP energy -289916.016049 kJ/mol
# GULP energy per Si atom -5575.308001 kJ/mol
# Density = 1.956244 g / cm^3
# Si number density = 19.607069 Si / 1000 Ang^3
#
#
#
# Elastic Constant Matrix: (Units=GPa)
#
#
# Indices 1 2 3 4 5 6 
#
# 1 116.6296 25.7559 57.5244 0.0000 0.0000 0.0000
# 2 25.7559 60.8341 16.2238 0.0000 0.0000 0.0000
# 3 57.5244 16.2238 175.3183 0.0000 0.0000 0.0000
# 4 0.0000 0.0000 0.0000 9.7892 0.0000 0.0000
# 5 0.0000 0.0000 0.0000 0.0000 26.3442 0.0000
# 6 0.0000 0.0000 0.0000 0.0000 0.0000 7.0053
#
#
#
# Elastic Compliance Matrix: (Units=1/GPa)
#
#
# Indices 1 2 3 4 5 6 
#
# 1 0.011023 -0.003796 -0.003266 0.000000 0.000000 0.000000
# 2 -0.003796 0.018161 -0.000435 0.000000 0.000000 0.000000
# 3 -0.003266 -0.000435 0.006816 0.000000 0.000000 0.000000
# 4 0.000000 0.000000 0.000000 0.102154 0.000000 0.000000
# 5 0.000000 0.000000 0.000000 0.000000 0.037959 0.000000
# 6 0.000000 0.000000 0.000000 0.000000 0.000000 0.142749
#
#
# Mechanical properties :
#
#
# Convention : Reuss Voigt Hill
#
# Bulk Modulus (GPa) = 47.60389 61.31002 54.45695
# Shear Modulus (GPa) = 14.66887 25.51292 20.09090
#
# Velocity S-wave (km/s) = 2.73819 3.61114 3.20453
# Velocity P-wave (km/s) = 5.85906 6.98028 6.44410
#
# Compressibility (1/GPa) = 0.02100669
#
# Stress axis : x y z
#
# Youngs Moduli (GPa) = 90.71855 55.06194 146.72121
#
# Poissons Ratio (x) = 0.20902 0.47913
# Poissons Ratio (y) = 0.34437 0.06384
# Poissons Ratio (z) = 0.29625 0.02396
#
# Static dielectric constant tensor:
#      x y z
#    x 1.669090 0.000000 0.000000 
#    y 0.000000 1.669030 0.000000 
#    z 0.000000 0.000000 1.793100 
# 
# From -- ./inp_files/23913.got.cif
#   From: 2010.05.17/outbox.cif.g08.bks.cpg/sg73_12_cif.got.tgz:23913.got - 2010.06.03 17:35:07.
