data_PCOD9529730
_publ_section_title
;
Structure prediction by ZEFSAII (Michael W. Deem and Ramdas Pophale) SiO2 
 PCOD9529730
Probable space group: I B C A 
;
_chemical_formula_sum "Si O2"
_cell_formula_units_Z 96
_cell_length_a 8.356684
_cell_length_b 17.889846
_cell_length_c 28.985724
_cell_angle_alpha 90.000000
_cell_angle_beta 90.000000
_cell_angle_gamma 90.000000
_cell_volume 4333.359646
_symmetry_space_group_name_H-M "I B C A "
_symmetry_group_IT_number 73
_symmetry_cell_setting 'orthorhombic'
loop_
_space_group_symop_operation_xyz
x,y,z
-x,1/2-y,z
x,-y,1/2-z
1/2-x,y,-z
-x,-y,-z
x,1/2+y,-z
-x,y,1/2+z
1/2+x,-y,z
1/2+x,1/2+y,1/2+z
1/2-x,-y,1/2+z
1/2+x,1/2-y,-z
-x,1/2+y,1/2-z
1/2-x,1/2-y,1/2-z
1/2+x,y,1/2-z
1/2-x,1/2+y,z
x,1/2-y,1/2+z
loop_
_atom_site_type_symbol
_atom_site_label
_atom_site_fract_x
_atom_site_fract_y
_atom_site_fract_z
Si Si1 0.325858 0.587109 0.086556
Si Si2 0.675714 0.783652 0.358191
Si Si3 0.624236 0.960416 0.534716
Si Si4 0.691956 0.748532 0.551715
Si Si5 0.148064 0.358584 0.684815
Si Si6 0.701089 0.832326 0.728067
O O1 0.221461 0.520499 0.065118
O O2 0.505789 0.585113 0.066864
O O3 0.253627 0.665198 0.067934
O O4 0.341302 0.585963 0.141690
O O5 0.500000 0.750000 0.358953
O O6 0.730950 0.802604 0.409606
O O7 0.796865 0.719144 0.339796
O O8 0.688548 0.843443 0.317074
O O9 0.750000 0.922082 0.500000
O O10 0.500000 0.000000 0.500000
O O11 0.500000 0.750000 0.553924
O O12 0.750000 0.759337 0.500000
O O13 0.263561 0.380977 0.726863
O O14 0.976780 0.343936 0.708751
O O15 0.750000 0.750000 0.750000
#
# Coordination Sequence:
#
# PCOD9529730 Si02
#       6
#    16  16  16  16  16  16
#     4  10  21  39  61  88 118 153 203 254 304 355
#     4  10  18  31  50  75 110 156 199 234 279 353
#     4   9  18  37  65  87 110 153 204 251 289 349
#     4  11  22  36  53  84 129 164 190 239 309 377
#     4  10  20  33  54  81 112 145 192 258 299 341
#     4  10  17  32  54  79 112 157 201 235 285 360
#
# _framework density 22.153711000000001
#
# number of rings (size 3 to 8) (size 9 to 14) (size 15 to 20)
#    0.000    2.000    0.000    8.000    0.000    0.667 
#    0.000   18.333    0.000    3.000    0.000    0.000 
#    0.000    0.000    0.000    0.000    0.000    0.000 
#
# Total GULP energy -267685.476689 kJ/mol
# GULP energy per Si atom -5576.780764 kJ/mol
# Density = 2.210329 g / cm^3
# Si number density = 22.153711 Si / 1000 Ang^3
#
#
#
# Elastic Constant Matrix: (Units=GPa)
#
#
# Indices 1 2 3 4 5 6 
#
# 1 126.4078 7.6933 70.6821 0.0000 0.0000 0.0000
# 2 7.6933 45.8432 24.9358 0.0000 0.0000 0.0000
# 3 70.6821 24.9358 252.2481 0.0000 0.0000 0.0000
# 4 0.0000 0.0000 0.0000 25.8927 0.0000 0.0000
# 5 0.0000 0.0000 0.0000 0.0000 52.7088 0.0000
# 6 0.0000 0.0000 0.0000 0.0000 0.0000 15.6544
#
#
#
# Elastic Compliance Matrix: (Units=1/GPa)
#
#
# Indices 1 2 3 4 5 6 
#
# 1 0.009382 -0.000153 -0.002614 0.000000 0.000000 0.000000
# 2 -0.000153 0.023056 -0.002236 0.000000 0.000000 0.000000
# 3 -0.002614 -0.002236 0.004918 0.000000 0.000000 0.000000
# 4 0.000000 0.000000 0.000000 0.038621 0.000000 0.000000
# 5 0.000000 0.000000 0.000000 0.000000 0.018972 0.000000
# 6 0.000000 0.000000 0.000000 0.000000 0.000000 0.063880
#
#
# Mechanical properties :
#
#
# Convention : Reuss Voigt Hill
#
# Bulk Modulus (GPa) = 36.56380 70.12462 53.34421
# Shear Modulus (GPa) = 28.09776 40.26371 34.18074
#
# Velocity S-wave (km/s) = 3.56520 4.26780 3.93222
# Velocity P-wave (km/s) = 5.78688 7.48384 6.68939
#
# Compressibility (1/GPa) = 0.02734946
#
# Stress axis : x y z
#
# Youngs Moduli (GPa) = 106.59060 43.37352 203.34242
#
# Poissons Ratio (x) = 0.00662 0.53148
# Poissons Ratio (y) = 0.01628 0.45474
# Poissons Ratio (z) = 0.27860 0.09700
#
# Static dielectric constant tensor:
#      x y z
#    x 1.789100 0.000000 0.000000 
#    y 0.000000 2.065290 0.000000 
#    z 0.000000 0.000000 1.898670 
# 
# From -- ./inp_files/31334.got.cif
#   From: 2010.05.17/outbox.cif.g08.bks.cpg/sg73_16_cif.got.tgz:31334.got - 2010.06.03 17:35:07.
