data_PCOD9529032
_publ_section_title
;
Structure prediction by ZEFSAII (Michael W. Deem and Ramdas Pophale) SiO2 
 PCOD9529032
Probable space group: I B A M
;
_chemical_formula_sum "Si O2"
_cell_formula_units_Z 92
_cell_length_a 25.790881
_cell_length_b 8.676349
_cell_length_c 21.810408
_cell_angle_alpha 90.000000
_cell_angle_beta 90.000000
_cell_angle_gamma 90.000000
_cell_volume 4880.529929
_symmetry_space_group_name_H-M "I B A M"
_symmetry_group_IT_number 72
_symmetry_cell_setting 'orthorhombic'
loop_
_space_group_symop_operation_xyz
x,y,z
-x,-y,z
x,-y,1/2-z
-x,y,1/2-z
-x,-y,-z
x,y,-z
-x,y,1/2+z
x,-y,1/2+z
1/2+x,1/2+y,1/2+z
1/2-x,1/2-y,1/2+z
1/2+x,1/2-y,-z
1/2-x,1/2+y,-z
1/2-x,1/2-y,1/2-z
1/2+x,1/2+y,1/2-z
1/2-x,1/2+y,z
1/2+x,1/2-y,z
loop_
_atom_site_type_symbol
_atom_site_label
_atom_site_fract_x
_atom_site_fract_y
_atom_site_fract_z
Si Si1 0.783284 0.560683 0.132236
Si Si2 0.138530 0.797361 0.673580
Si Si3 0.556694 0.317190 0.268140
Si Si4 0.500000 0.500000 0.000000
Si Si5 0.779654 0.000000 0.250000
Si Si6 0.088016 0.919852 0.102244
Si Si7 0.194916 0.755675 0.930517
O O1 0.833680 0.667623 0.133876
O O2 0.756849 0.574878 0.198989
O O3 0.797676 0.386494 0.115788
O O4 0.740042 0.623010 0.085521
O O5 0.099622 0.737236 0.725935
O O6 0.182636 0.889811 0.711161
O O7 0.108186 0.917967 0.630582
O O8 0.559372 0.500000 0.250000
O O9 0.500000 0.261466 0.250000
O O10 0.567592 0.318834 0.340183
O O11 0.542967 0.549253 0.946355
O O12 0.139142 0.835457 0.076866
O O13 0.200713 0.699649 0.000000
#
# Coordination Sequence:
#
# PCOD9529032 Si02
#       7
#    16  16  16   4   8  16  16
#     4  12  25  38  64  94 135 169 210 255 328 388
#     4  11  20  38  63  97 129 163 201 267 325 392
#     4   9  17  33  61  90 120 152 200 263 324 373
#     4  12  24  40  66  94 116 164 224 280 312 362
#     4  12  20  36  63 100 131 164 200 258 326 408
#     4  11  21  39  63  90 122 157 217 265 318 372
#     4  12  24  43  59  88 127 179 218 258 305 391
#
# _framework density 18.850411000000001
#
# number of rings (size 3 to 8) (size 9 to 14) (size 15 to 20)
#    0.000    0.870    6.957    3.130    2.435    0.000 
#    3.130    0.000    0.000    6.261    0.000    0.000 
#    0.000    0.000    0.000    0.000    0.000    0.000 
#
# Total GULP energy -256356.399900 kJ/mol
# GULP energy per Si atom -5572.965215 kJ/mol
# Density = 1.880751 g / cm^3
# Si number density = 18.850411 Si / 1000 Ang^3
#
#
#
# Elastic Constant Matrix: (Units=GPa)
#
#
# Indices 1 2 3 4 5 6 
#
# 1 137.6488 37.4834 44.6851 0.0000 0.0000 0.0000
# 2 37.4834 43.3223 13.5935 0.0000 0.0000 0.0000
# 3 44.6851 13.5935 97.6282 0.0000 0.0000 0.0000
# 4 0.0000 0.0000 0.0000 26.1146 0.0000 0.0000
# 5 0.0000 0.0000 0.0000 0.0000 30.3265 0.0000
# 6 0.0000 0.0000 0.0000 0.0000 0.0000 18.0832
#
#
#
# Elastic Compliance Matrix: (Units=1/GPa)
#
#
# Indices 1 2 3 4 5 6 
#
# 1 0.010683 -0.008061 -0.003767 0.000000 0.000000 0.000000
# 2 -0.008061 0.030220 -0.000518 0.000000 0.000000 0.000000
# 3 -0.003767 -0.000518 0.012039 0.000000 0.000000 0.000000
# 4 0.000000 0.000000 0.000000 0.038293 0.000000 0.000000
# 5 0.000000 0.000000 0.000000 0.000000 0.032974 0.000000
# 6 0.000000 0.000000 0.000000 0.000000 0.000000 0.055300
#
#
# Mechanical properties :
#
#
# Convention : Reuss Voigt Hill
#
# Bulk Modulus (GPa) = 35.39898 52.23593 43.81745
# Shear Modulus (GPa) = 23.40617 27.09402 25.25009
#
# Velocity S-wave (km/s) = 3.52757 3.79531 3.66389
# Velocity P-wave (km/s) = 5.95074 6.85396 6.41826
#
# Compressibility (1/GPa) = 0.02824940
#
# Stress axis : x y z
#
# Youngs Moduli (GPa) = 93.60705 33.09067 83.06066
#
# Poissons Ratio (x) = 0.26675 0.31291
# Poissons Ratio (y) = 0.75457 0.04304
# Poissons Ratio (z) = 0.35264 0.01715
#
# Static dielectric constant tensor:
#      x y z
#    x 1.672780 0.000000 0.000000 
#    y 0.000000 1.665570 0.000000 
#    z 0.000000 0.000000 1.665530 
# 
# From -- ./inp_files/40728.got.cif
#   From: 2010.05.17/outbox.cif.g08.bks.cpg/sg72_21_cif.got.tgz:40728.got - 2010.06.03 17:03:01.
