data_PCOD9529850
_publ_section_title
;
Structure prediction by ZEFSAII (Michael W. Deem and Ramdas Pophale) SiO2 
 PCOD9529850
Probable space group: I B C A 
;
_chemical_formula_sum "Si O2"
_cell_formula_units_Z 112
_cell_length_a 12.984478
_cell_length_b 18.448619
_cell_length_c 20.587665
_cell_angle_alpha 90.000000
_cell_angle_beta 90.000000
_cell_angle_gamma 90.000000
_cell_volume 4931.686367
_symmetry_space_group_name_H-M "I B C A "
_symmetry_group_IT_number 73
_symmetry_cell_setting 'orthorhombic'
loop_
_space_group_symop_operation_xyz
x,y,z
-x,1/2-y,z
x,-y,1/2-z
1/2-x,y,-z
-x,-y,-z
x,1/2+y,-z
-x,y,1/2+z
1/2+x,-y,z
1/2+x,1/2+y,1/2+z
1/2-x,-y,1/2+z
1/2+x,1/2-y,-z
-x,1/2+y,1/2-z
1/2-x,1/2-y,1/2-z
1/2+x,y,1/2-z
1/2-x,1/2+y,z
x,1/2-y,1/2+z
loop_
_atom_site_type_symbol
_atom_site_label
_atom_site_fract_x
_atom_site_fract_y
_atom_site_fract_z
Si Si1 0.361411 0.136764 0.491631
Si Si2 0.135250 0.016297 0.063848
Si Si3 0.315206 0.109074 0.120993
Si Si4 0.590970 0.857682 0.659197
Si Si5 0.476220 0.495436 0.681077
Si Si6 0.863924 0.297477 0.146703
Si Si7 0.581140 0.333894 0.000359
O O1 0.250000 0.172160 0.500000
O O2 0.143218 0.060227 0.471388
O O3 0.384842 0.127056 0.416079
O O4 0.461324 0.179662 0.516182
O O5 0.246300 0.046213 0.086776
O O6 0.088518 0.079814 0.018997
O O7 0.058026 0.008978 0.124259
O O8 0.231936 0.152440 0.162917
O O9 0.409850 0.073755 0.158999
O O10 0.352246 0.165370 0.065328
O O11 0.602190 0.936241 0.689803
O O12 0.471712 0.833090 0.668503
O O13 0.649972 0.783365 0.673516
O O14 0.532614 0.500000 0.750000
O O15 0.880913 0.296878 0.067054
#
# Coordination Sequence:
#
# PCOD9529850 Si02
#       7
#    16  16  16  16  16  16  16
#     4  11  19  29  55  87 120 158 182 240 314 377
#     4  11  19  34  55  84 119 154 195 249 313 362
#     4  11  21  37  58  92 124 157 200 255 316 371
#     4  10  20  39  57  92 117 157 204 252 304 380
#     4  12  24  38  58  88 124 163 221 269 298 349
#     4   9  19  36  64  85 116 158 201 245 310 388
#     4  10  18  32  56  89 119 152 189 245 307 377
#
# _framework density 22.710284999999999
#
# number of rings (size 3 to 8) (size 9 to 14) (size 15 to 20)
#    0.000    1.429    5.714    4.714    0.000    1.714 
#    0.000    0.714    0.000    0.000    7.429    0.000 
#    0.000    0.000    0.000    0.000    0.000    0.000 
#
# Total GULP energy -312667.371696 kJ/mol
# GULP energy per Si atom -5583.345923 kJ/mol
# Density = 2.265860 g / cm^3
# Si number density = 22.710285 Si / 1000 Ang^3
#
#
#
# Elastic Constant Matrix: (Units=GPa)
#
#
# Indices 1 2 3 4 5 6 
#
# 1 97.7087 -9.5733 7.2367 0.0000 0.0000 0.0000
# 2 -9.5733 76.7149 -4.7742 0.0000 0.0000 0.0000
# 3 7.2367 -4.7742 28.5237 0.0000 0.0000 0.0000
# 4 0.0000 0.0000 0.0000 3.3495 0.0000 0.0000
# 5 0.0000 0.0000 0.0000 0.0000 8.2322 0.0000
# 6 0.0000 0.0000 0.0000 0.0000 0.0000 31.5477
#
#
#
# Elastic Compliance Matrix: (Units=1/GPa)
#
#
# Indices 1 2 3 4 5 6 
#
# 1 0.010532 0.001160 -0.002478 0.000000 0.000000 0.000000
# 2 0.001160 0.013300 0.001932 0.000000 0.000000 0.000000
# 3 -0.002478 0.001932 0.036011 0.000000 0.000000 0.000000
# 4 0.000000 0.000000 0.000000 0.298551 0.000000 0.000000
# 5 0.000000 0.000000 0.000000 0.000000 0.121474 0.000000
# 6 0.000000 0.000000 0.000000 0.000000 0.000000 0.031698
#
#
# Mechanical properties :
#
#
# Convention : Reuss Voigt Hill
#
# Bulk Modulus (GPa) = 16.37445 20.96951 18.67198
# Shear Modulus (GPa) = 9.42162 22.62977 16.02569
#
# Velocity S-wave (km/s) = 2.03902 3.16009 2.65930
# Velocity P-wave (km/s) = 3.57342 4.75062 4.20343
#
# Compressibility (1/GPa) = 0.06107074
#
# Stress axis : x y z
#
# Youngs Moduli (GPa) = 94.95165 75.18643 27.76960
#
# Poissons Ratio (x) = -0.08722 0.06881
# Poissons Ratio (y) = -0.11015 -0.05365
# Poissons Ratio (z) = 0.23527 -0.14525
#
# Static dielectric constant tensor:
#      x y z
#    x 1.883620 0.000000 0.000000 
#    y 0.000000 1.941940 0.000000 
#    z 0.000000 0.000000 1.855960 
# 
# From -- ./inp_files/29039.got.cif
#   From: 2010.05.17/outbox.cif.g08.bks.cpg/sg73_15_cif.got.tgz:29039.got - 2010.06.03 17:35:07.
