data_PCOD9529818
_publ_section_title
;
Structure prediction by ZEFSAII (Michael W. Deem and Ramdas Pophale) SiO2 
 PCOD9529818
Probable space group: I B C A 
;
_chemical_formula_sum "Si O2"
_cell_formula_units_Z 80
_cell_length_a 18.663486
_cell_length_b 6.512523
_cell_length_c 24.715991
_cell_angle_alpha 90.000000
_cell_angle_beta 90.000000
_cell_angle_gamma 90.000000
_cell_volume 3004.139280
_symmetry_space_group_name_H-M "I B C A "
_symmetry_group_IT_number 73
_symmetry_cell_setting 'orthorhombic'
loop_
_space_group_symop_operation_xyz
x,y,z
-x,1/2-y,z
x,-y,1/2-z
1/2-x,y,-z
-x,-y,-z
x,1/2+y,-z
-x,y,1/2+z
1/2+x,-y,z
1/2+x,1/2+y,1/2+z
1/2-x,-y,1/2+z
1/2+x,1/2-y,-z
-x,1/2+y,1/2-z
1/2-x,1/2-y,1/2-z
1/2+x,y,1/2-z
1/2-x,1/2+y,z
x,1/2-y,1/2+z
loop_
_atom_site_type_symbol
_atom_site_label
_atom_site_fract_x
_atom_site_fract_y
_atom_site_fract_z
Si Si1 0.739228 0.249461 0.851269
Si Si2 0.076705 0.308711 0.416969
Si Si3 0.722478 0.993168 0.939178
Si Si4 0.871038 0.953027 0.672056
Si Si5 0.025417 0.019927 0.692426
O O1 0.737529 0.252366 0.922942
O O2 0.663271 0.321831 0.826628
O O3 0.729415 0.994428 0.867595
O O4 0.806452 0.195641 0.811484
O O5 0.137655 0.435654 0.446621
O O6 0.058397 0.436602 0.362681
O O7 0.000000 0.250000 0.442572
O O8 0.114880 0.105270 0.391647
O O9 0.750000 0.009823 0.000000
O O10 0.946447 0.913934 0.698970
O O11 0.000000 0.250000 0.681645
O O12 0.063307 0.000000 0.750000
#
# Coordination Sequence:
#
# PCOD9529818 Si02
#       5
#    16  16  16  16  16
#     4   9  18  32  53  77 110 152 194 242 296 356
#     4   9  19  35  56  84 118 154 197 250 305 362
#     4  10  18  31  54  81 110 151 198 243 296 359
#     4   9  18  34  55  82 114 156 199 243 306 361
#     4  11  21  36  60  87 117 155 201 251 305 365
#
# _framework density 26.629923000000002
#
# number of rings (size 3 to 8) (size 9 to 14) (size 15 to 20)
#    0.000    2.400    0.000    3.600    0.000    0.000 
#    0.000    2.000    0.000   56.400    0.000    0.000 
#    0.000    0.000    0.000    0.000    0.000    0.000 
#
# Total GULP energy -222882.875257 kJ/mol
# GULP energy per Si atom -5572.071881 kJ/mol
# Density = 2.656931 g / cm^3
# Si number density = 26.629923 Si / 1000 Ang^3
#
#
#
# Elastic Constant Matrix: (Units=GPa)
#
#
# Indices 1 2 3 4 5 6 
#
# 1 202.7319 33.8008 42.3462 0.0000 0.0000 0.0000
# 2 33.8008 170.1049 37.3715 0.0000 0.0000 0.0000
# 3 42.3462 37.3715 91.8870 0.0000 0.0000 0.0000
# 4 0.0000 0.0000 0.0000 25.5523 0.0000 0.0000
# 5 0.0000 0.0000 0.0000 0.0000 26.4014 0.0000
# 6 0.0000 0.0000 0.0000 0.0000 0.0000 37.1541
#
#
#
# Elastic Compliance Matrix: (Units=1/GPa)
#
#
# Indices 1 2 3 4 5 6 
#
# 1 0.005511 -0.000590 -0.002300 0.000000 0.000000 0.000000
# 2 -0.000590 0.006519 -0.002379 0.000000 0.000000 0.000000
# 3 -0.002300 -0.002379 0.012911 0.000000 0.000000 0.000000
# 4 0.000000 0.000000 0.000000 0.039135 0.000000 0.000000
# 5 0.000000 0.000000 0.000000 0.000000 0.037877 0.000000
# 6 0.000000 0.000000 0.000000 0.000000 0.000000 0.026915
#
#
# Mechanical properties :
#
#
# Convention : Reuss Voigt Hill
#
# Bulk Modulus (GPa) = 69.43400 76.86233 73.14816
# Shear Modulus (GPa) = 34.67236 41.23524 37.95380
#
# Velocity S-wave (km/s) = 3.61225 3.93931 3.77932
# Velocity P-wave (km/s) = 6.59758 7.04391 6.82440
#
# Compressibility (1/GPa) = 0.01440217
#
# Stress axis : x y z
#
# Youngs Moduli (GPa) = 181.44237 153.40542 77.45550
#
# Poissons Ratio (x) = 0.09048 0.17815
# Poissons Ratio (y) = 0.10702 0.18430
# Poissons Ratio (z) = 0.41732 0.36501
#
# Static dielectric constant tensor:
#      x y z
#    x 2.068010 0.000000 0.000000 
#    y 0.000000 2.424460 0.000000 
#    z 0.000000 0.000000 2.000580 
# 
# From -- ./inp_files/34479.got.cif
#   From: 2010.05.17/outbox.cif.g08.bks.cpg/sg73_18_cif.got.tgz:34479.got - 2010.06.03 17:35:07.
