data_PCOD9529260
_publ_section_title
;
Structure prediction by ZEFSAII (Michael W. Deem and Ramdas Pophale) SiO2 
 PCOD9529260
Probable space group: I B A M
;
_chemical_formula_sum "Si O2"
_cell_formula_units_Z 88
_cell_length_a 25.907888
_cell_length_b 11.448060
_cell_length_c 13.482540
_cell_angle_alpha 90.000000
_cell_angle_beta 90.000000
_cell_angle_gamma 90.000000
_cell_volume 3998.854710
_symmetry_space_group_name_H-M "I B A M"
_symmetry_group_IT_number 72
_symmetry_cell_setting 'orthorhombic'
loop_
_space_group_symop_operation_xyz
x,y,z
-x,-y,z
x,-y,1/2-z
-x,y,1/2-z
-x,-y,-z
x,y,-z
-x,y,1/2+z
x,-y,1/2+z
1/2+x,1/2+y,1/2+z
1/2-x,1/2-y,1/2+z
1/2+x,1/2-y,-z
1/2-x,1/2+y,-z
1/2-x,1/2-y,1/2-z
1/2+x,1/2+y,1/2-z
1/2-x,1/2+y,z
1/2+x,1/2-y,z
loop_
_atom_site_type_symbol
_atom_site_label
_atom_site_fract_x
_atom_site_fract_y
_atom_site_fract_z
Si Si1 0.032122 0.880045 0.000000
Si Si2 0.773027 0.874455 0.718701
Si Si3 0.156761 0.624615 0.500000
Si Si4 0.371064 0.301200 0.671056
Si Si5 0.230479 0.058405 0.500000
Si Si6 0.545221 0.793524 0.176526
Si Si7 0.059608 0.462526 0.500000
Si Si8 0.120889 0.961609 0.500000
O O1 0.023680 0.804953 0.899996
O O2 0.000000 0.000000 0.000000
O O3 0.093134 0.914493 0.000000
O O4 0.750000 0.750000 0.750000
O O5 0.827729 0.872899 0.772204
O O6 0.778719 0.873534 0.601125
O O7 0.747487 0.000000 0.750000
O O8 0.155620 0.704834 0.401082
O O9 0.207069 0.540073 0.500000
O O10 0.101664 0.562719 0.500000
O O11 0.409879 0.249860 0.751017
O O12 0.397550 0.390487 0.595416
O O13 0.183814 0.963827 0.500000
O O14 0.500000 0.835403 0.250000
O O15 0.566504 0.889298 0.100495
O O16 0.000000 0.500000 0.500000
#
# Coordination Sequence:
#
# PCOD9529260 Si02
#       8
#     8  16   8  16   8  16   8   8
#     4  11  24  41  66 103 137 176 230 292 358 449
#     4  12  26  46  74 106 149 200 250 309 377 440
#     4  11  25  45  70 102 136 187 244 303 354 447
#     4  11  24  44  69 102 142 186 243 296 374 439
#     4  12  24  44  74 104 148 193 252 294 372 443
#     4  11  25  44  68 103 137 179 239 303 376 447
#     4  11  26  49  72  97 139 186 242 310 381 446
#     4  11  23  43  70  98 144 194 232 293 373 446
#
# _framework density 22.006301000000001
#
# number of rings (size 3 to 8) (size 9 to 14) (size 15 to 20)
#    0.000    0.727    3.636    3.273    0.000   10.182 
#    0.000    1.818    0.000    0.000    0.000    0.000 
#    0.000    0.000    0.000    0.000    0.000    0.000 
#
# Total GULP energy -245753.896991 kJ/mol
# GULP energy per Si atom -5585.315841 kJ/mol
# Density = 2.195621 g / cm^3
# Si number density = 22.006301 Si / 1000 Ang^3
#
#
#
# Elastic Constant Matrix: (Units=GPa)
#
#
# Indices 1 2 3 4 5 6 
#
# 1 80.1011 25.6000 26.2106 0.0000 0.0000 0.0000
# 2 25.6000 93.9590 47.2781 0.0000 0.0000 0.0000
# 3 26.2106 47.2781 193.0790 0.0000 0.0000 0.0000
# 4 0.0000 0.0000 0.0000 22.1934 0.0000 0.0000
# 5 0.0000 0.0000 0.0000 0.0000 12.9831 0.0000
# 6 0.0000 0.0000 0.0000 0.0000 0.0000 40.0290
#
#
#
# Elastic Compliance Matrix: (Units=1/GPa)
#
#
# Indices 1 2 3 4 5 6 
#
# 1 0.013874 -0.003230 -0.001092 0.000000 0.000000 0.000000
# 2 -0.003230 0.012891 -0.002718 0.000000 0.000000 0.000000
# 3 -0.001092 -0.002718 0.005993 0.000000 0.000000 0.000000
# 4 0.000000 0.000000 0.000000 0.045058 0.000000 0.000000
# 5 0.000000 0.000000 0.000000 0.000000 0.077023 0.000000
# 6 0.000000 0.000000 0.000000 0.000000 0.000000 0.024982
#
#
# Mechanical properties :
#
#
# Convention : Reuss Voigt Hill
#
# Bulk Modulus (GPa) = 53.54383 62.81295 58.17839
# Shear Modulus (GPa) = 24.98393 32.91111 28.94752
#
# Velocity S-wave (km/s) = 3.37309 3.87141 3.63081
# Velocity P-wave (km/s) = 6.28922 6.97057 6.63864
#
# Compressibility (1/GPa) = 0.01867629
#
# Stress axis : x y z
#
# Youngs Moduli (GPa) = 72.07659 77.57519 166.86007
#
# Poissons Ratio (x) = 0.25060 0.18228
# Poissons Ratio (y) = 0.23284 0.45351
# Poissons Ratio (z) = 0.07874 0.21084
#
# Static dielectric constant tensor:
#      x y z
#    x 1.850590 0.000000 0.000000 
#    y 0.000000 1.896940 0.000000 
#    z 0.000000 0.000000 1.742520 
# 
# From -- ./inp_files/25058.got.cif
#   From: 2010.05.17/outbox.cif.g08.bks.cpg/sg72_13_cif.got.tgz:25058.got - 2010.06.03 17:03:01.
