data_PCOD9529720
_publ_section_title
;
Structure prediction by ZEFSAII (Michael W. Deem and Ramdas Pophale) SiO2 
 PCOD9529720
Probable space group: I B C A 
;
_chemical_formula_sum "Si O2"
_cell_formula_units_Z 72
_cell_length_a 18.411281
_cell_length_b 28.530426
_cell_length_c 5.524330
_cell_angle_alpha 90.000000
_cell_angle_beta 90.000000
_cell_angle_gamma 90.000000
_cell_volume 2901.829399
_symmetry_space_group_name_H-M "I B C A "
_symmetry_group_IT_number 73
_symmetry_cell_setting 'orthorhombic'
loop_
_space_group_symop_operation_xyz
x,y,z
-x,1/2-y,z
x,-y,1/2-z
1/2-x,y,-z
-x,-y,-z
x,1/2+y,-z
-x,y,1/2+z
1/2+x,-y,z
1/2+x,1/2+y,1/2+z
1/2-x,-y,1/2+z
1/2+x,1/2-y,-z
-x,1/2+y,1/2-z
1/2-x,1/2-y,1/2-z
1/2+x,y,1/2-z
1/2-x,1/2+y,z
x,1/2-y,1/2+z
loop_
_atom_site_type_symbol
_atom_site_label
_atom_site_fract_x
_atom_site_fract_y
_atom_site_fract_z
Si Si1 0.123900 0.904706 0.678016
Si Si2 0.081575 0.269150 0.938290
Si Si3 0.250000 0.526397 0.000000
Si Si4 0.104480 0.376395 0.821497
Si Si5 0.757335 0.672273 0.750468
O O1 0.181317 0.943732 0.596046
O O2 0.076365 0.894254 0.439279
O O3 0.169480 0.857080 0.726157
O O4 0.093443 0.910767 0.949853
O O5 0.114743 0.244400 0.699594
O O6 0.076516 0.324316 0.882732
O O7 0.000000 0.250000 0.959961
O O8 0.272717 0.500000 0.250000
O O9 0.191455 0.366355 0.774900
O O10 0.750000 0.697829 0.500000
O O11 0.750000 0.698593 0.000000
#
# Coordination Sequence:
#
# PCOD9529720 Si02
#       5
#    16  16   8  16  16
#     4  10  18  32  47  73  98 144 192 202 245 323
#     4  10  21  36  52  76 104 129 164 229 304 315
#     4  12  22  30  48  78 114 146 176 228 266 284
#     4  10  17  30  54  66  93 143 183 211 259 319
#     4   8  14  24  44  61  86 119 179 205 223 275
#
# _framework density 24.811934000000001
#
# number of rings (size 3 to 8) (size 9 to 14) (size 15 to 20)
#    0.000    2.222    3.333    2.667    1.556    0.000 
#    0.000    0.000    0.000   36.000    0.000    0.000 
#    0.000    0.000    0.000  280.000    0.000    0.000 
#
# Total GULP energy -200836.974923 kJ/mol
# GULP energy per Si atom -5578.804859 kJ/mol
# Density = 2.475546 g / cm^3
# Si number density = 24.811934 Si / 1000 Ang^3
#
#
#
# Elastic Constant Matrix: (Units=GPa)
#
#
# Indices 1 2 3 4 5 6 
#
# 1 62.8809 6.8808 10.0393 0.0000 0.0000 0.0001
# 2 6.8808 71.4269 53.2064 0.0000 0.0000 0.0001
# 3 10.0393 53.2064 344.2082 -0.0001 -0.0004 0.0004
# 4 0.0000 0.0000 -0.0001 36.0435 0.0000 0.0000
# 5 0.0000 0.0000 -0.0004 0.0000 2.6086 0.0004
# 6 0.0001 0.0001 0.0004 0.0000 0.0004 10.0354
#
#
#
# Elastic Compliance Matrix: (Units=1/GPa)
#
#
# Indices 1 2 3 4 5 6 
#
# 1 0.016093 -0.001357 -0.000260 0.000000 0.000000 0.000000
# 2 -0.001357 0.015937 -0.002424 0.000000 0.000000 0.000000
# 3 -0.000260 -0.002424 0.003287 0.000000 0.000001 0.000000
# 4 0.000000 0.000000 0.000000 0.027744 0.000000 0.000000
# 5 0.000000 0.000000 0.000001 0.000000 0.383353 -0.000014
# 6 0.000000 0.000000 0.000000 0.000000 -0.000014 0.099647
#
#
# Mechanical properties :
#
#
# Convention : Reuss Voigt Hill
#
# Bulk Modulus (GPa) = 36.71568 68.75210 52.73389
# Shear Modulus (GPa) = 8.87751 36.96347 22.92049
#
# Velocity S-wave (km/s) = 1.89359 3.86391 3.04265
# Velocity P-wave (km/s) = 4.42839 6.90477 5.80028
#
# Compressibility (1/GPa) = 0.02723632
#
# Stress axis : x y z
#
# Youngs Moduli (GPa) = 62.13881 62.74876 304.18626
#
# Poissons Ratio (x) = 0.08514 0.07898
# Poissons Ratio (y) = 0.08432 0.73730
# Poissons Ratio (z) = 0.01613 0.15209
#
# Static dielectric constant tensor:
#      x y z
#    x 1.982020 0.000000 0.000000 
#    y 0.000000 1.907870 0.000000 
#    z 0.000000 0.000000 2.181860 
# 
# From -- ./inp_files/1800.got.cif
#   From: 2010.05.17/outbox.cif.g08.bks.cpg/sg73_1_cif.got.tgz:1800.got - 2010.06.03 17:35:07.
