data_PCOD9529892
_publ_section_title
;
Structure prediction by ZEFSAII (Michael W. Deem and Ramdas Pophale) SiO2 
 PCOD9529892
Probable space group: I B C A 
;
_chemical_formula_sum "Si O2"
_cell_formula_units_Z 72
_cell_length_a 20.488257
_cell_length_b 8.259978
_cell_length_c 18.754541
_cell_angle_alpha 90.000000
_cell_angle_beta 90.000000
_cell_angle_gamma 90.000000
_cell_volume 3173.878836
_symmetry_space_group_name_H-M "I B C A "
_symmetry_group_IT_number 73
_symmetry_cell_setting 'orthorhombic'
loop_
_space_group_symop_operation_xyz
x,y,z
-x,1/2-y,z
x,-y,1/2-z
1/2-x,y,-z
-x,-y,-z
x,1/2+y,-z
-x,y,1/2+z
1/2+x,-y,z
1/2+x,1/2+y,1/2+z
1/2-x,-y,1/2+z
1/2+x,1/2-y,-z
-x,1/2+y,1/2-z
1/2-x,1/2-y,1/2-z
1/2+x,y,1/2-z
1/2-x,1/2+y,z
x,1/2-y,1/2+z
loop_
_atom_site_type_symbol
_atom_site_label
_atom_site_fract_x
_atom_site_fract_y
_atom_site_fract_z
Si Si1 0.163068 0.467036 0.964789
Si Si2 0.402621 0.424234 0.343143
Si Si3 0.636686 0.767769 0.777244
Si Si4 0.794658 0.381485 0.906014
Si Si5 0.022576 0.500000 0.250000
O O1 0.100705 0.546639 0.926986
O O2 0.181134 0.285329 0.942351
O O3 0.221690 0.572050 0.928195
O O4 0.164240 0.485923 0.049601
O O5 0.362458 0.277210 0.306510
O O6 0.371396 0.592712 0.313661
O O7 0.474367 0.424769 0.308933
O O8 0.691593 0.862563 0.821888
O O9 0.570532 0.870218 0.785678
#
# Coordination Sequence:
#
# PCOD9529892 Si02
#       5
#    16  16  16  16   8
#     4  10  20  34  54  75 106 136 168 208 253 304
#     4   9  18  35  53  74 103 137 166 207 258 300
#     4   9  19  33  54  76 102 133 170 210 253 300
#     4  10  20  35  52  77 105 136 169 208 253 303
#     4  10  18  34  56  76  98 130 174 218 250 292
#
# _framework density 22.685174
#
# number of rings (size 3 to 8) (size 9 to 14) (size 15 to 20)
#    0.000    2.667    0.000    5.333    0.000    4.444 
#    0.000    4.444    0.000    8.000    0.000    1.556 
#    0.000    0.000    0.000    0.000    0.000    0.000 
#
# Total GULP energy -200453.245460 kJ/mol
# GULP energy per Si atom -5568.145707 kJ/mol
# Density = 2.263354 g / cm^3
# Si number density = 22.685174 Si / 1000 Ang^3
#
#
#
# Elastic Constant Matrix: (Units=GPa)
#
#
# Indices 1 2 3 4 5 6 
#
# 1 36.3071 -5.6045 0.8414 0.0000 0.0000 0.0000
# 2 -5.6045 57.0465 12.1955 0.0000 0.0000 0.0000
# 3 0.8414 12.1955 48.2467 0.0000 0.0000 0.0000
# 4 0.0000 0.0000 0.0000 18.7667 0.0000 0.0000
# 5 0.0000 0.0000 0.0000 0.0000 11.1633 0.0000
# 6 0.0000 0.0000 0.0000 0.0000 0.0000 12.4207
#
#
#
# Elastic Compliance Matrix: (Units=1/GPa)
#
#
# Indices 1 2 3 4 5 6 
#
# 1 0.028038 0.003022 -0.001253 0.000000 0.000000 0.000000
# 2 0.003022 0.018857 -0.004819 0.000000 0.000000 0.000000
# 3 -0.001253 -0.004819 0.021967 0.000000 0.000000 0.000000
# 4 0.000000 0.000000 0.000000 0.053286 0.000000 0.000000
# 5 0.000000 0.000000 0.000000 0.000000 0.089579 0.000000
# 6 0.000000 0.000000 0.000000 0.000000 0.000000 0.080511
#
#
# Mechanical properties :
#
#
# Convention : Reuss Voigt Hill
#
# Bulk Modulus (GPa) = 15.93305 17.38501 16.65903
# Shear Modulus (GPa) = 15.66133 17.41469 16.53801
#
# Velocity S-wave (km/s) = 2.63035 2.77369 2.70297
# Velocity P-wave (km/s) = 4.03284 4.23533 4.13533
#
# Compressibility (1/GPa) = 0.06276262
#
# Stress axis : x y z
#
# Youngs Moduli (GPa) = 35.66537 53.03133 45.52320
#
# Poissons Ratio (x) = -0.16029 0.05704
# Poissons Ratio (y) = -0.10780 0.21939
# Poissons Ratio (z) = 0.04469 0.25557
#
# Static dielectric constant tensor:
#      x y z
#    x 1.865580 0.000000 0.000000 
#    y 0.000000 1.917420 0.000000 
#    z 0.000000 0.000000 1.959840 
# 
# From -- ./inp_files/23783.got.cif
#   From: 2010.05.17/outbox.cif.g08.bks.cpg/sg73_12_cif.got.tgz:23783.got - 2010.06.03 17:35:07.
