data_PCOD9529163
_publ_section_title
;
Structure prediction by ZEFSAII (Michael W. Deem and Ramdas Pophale) SiO2 
 PCOD9529163
Probable space group: I B A M
;
_chemical_formula_sum "Si O2"
_cell_formula_units_Z 64
_cell_length_a 22.423262
_cell_length_b 12.424931
_cell_length_c 10.891898
_cell_angle_alpha 90.000000
_cell_angle_beta 90.000000
_cell_angle_gamma 90.000000
_cell_volume 3034.564288
_symmetry_space_group_name_H-M "I B A M"
_symmetry_group_IT_number 72
_symmetry_cell_setting 'orthorhombic'
loop_
_space_group_symop_operation_xyz
x,y,z
-x,-y,z
x,-y,1/2-z
-x,y,1/2-z
-x,-y,-z
x,y,-z
-x,y,1/2+z
x,-y,1/2+z
1/2+x,1/2+y,1/2+z
1/2-x,1/2-y,1/2+z
1/2+x,1/2-y,-z
1/2-x,1/2+y,-z
1/2-x,1/2-y,1/2-z
1/2+x,1/2+y,1/2-z
1/2-x,1/2+y,z
1/2+x,1/2-y,z
loop_
_atom_site_type_symbol
_atom_site_label
_atom_site_fract_x
_atom_site_fract_y
_atom_site_fract_z
Si Si1 0.686878 0.645563 0.639384
Si Si2 0.402587 0.517231 0.000000
Si Si3 0.500000 0.185354 0.750000
Si Si4 0.285442 0.000000 0.250000
Si Si5 0.015182 0.821468 0.000000
Si Si6 0.120522 0.640984 0.641766
O O1 0.706463 0.676538 0.500000
O O2 0.638950 0.550490 0.614411
O O3 0.742447 0.596714 0.709447
O O4 0.652214 0.749154 0.689231
O O5 0.458307 0.598503 0.000000
O O6 0.426726 0.397605 0.000000
O O7 0.512302 0.255136 0.626773
O O8 0.560494 0.122605 0.782173
O O9 0.330769 0.047359 0.349979
O O10 0.103885 0.659445 0.500000
#
# Coordination Sequence:
#
# PCOD9529163 Si02
#       6
#    16   8   8   8   8  16
#     4   9  20  41  60  94 132 163 212 272 327 386
#     4   9  20  38  62 105 134 176 209 278 335 402
#     4  12  22  46  66 100 130 184 218 282 332 390
#     4  12  24  39  68  89 126 186 216 266 326 400
#     4  11  22  38  68 100 143 176 218 269 344 399
#     4  11  24  46  64  95 132 166 221 281 333 396
#
# _framework density 21.090342
#
# number of rings (size 3 to 8) (size 9 to 14) (size 15 to 20)
#    0.750    0.750    3.750    1.500    3.500    2.500 
#    4.500    1.250    0.000    0.000    0.000    0.000 
#    0.000    0.000    0.000    0.000    0.000    0.000 
#
# Total GULP energy -178453.216512 kJ/mol
# GULP energy per Si atom -5576.663016 kJ/mol
# Density = 2.104234 g / cm^3
# Si number density = 21.090342 Si / 1000 Ang^3
#
#
#
# Elastic Constant Matrix: (Units=GPa)
#
#
# Indices 1 2 3 4 5 6 
#
# 1 146.5989 42.6453 39.3004 0.0000 0.0000 0.0000
# 2 42.6453 65.1711 28.2679 0.0000 0.0000 0.0000
# 3 39.3004 28.2679 80.5472 0.0000 0.0000 0.0000
# 4 0.0000 0.0000 0.0000 15.4245 0.0000 0.0000
# 5 0.0000 0.0000 0.0000 0.0000 21.8896 0.0000
# 6 0.0000 0.0000 0.0000 0.0000 0.0000 21.2048
#
#
#
# Elastic Compliance Matrix: (Units=1/GPa)
#
#
# Indices 1 2 3 4 5 6 
#
# 1 0.008900 -0.004648 -0.002711 0.000000 0.000000 0.000000
# 2 -0.004648 0.020527 -0.004936 0.000000 0.000000 0.000000
# 3 -0.002711 -0.004936 0.015470 0.000000 0.000000 0.000000
# 4 0.000000 0.000000 0.000000 0.064832 0.000000 0.000000
# 5 0.000000 0.000000 0.000000 0.000000 0.045684 0.000000
# 6 0.000000 0.000000 0.000000 0.000000 0.000000 0.047159
#
#
# Mechanical properties :
#
#
# Convention : Reuss Voigt Hill
#
# Bulk Modulus (GPa) = 49.24515 56.97161 53.10838
# Shear Modulus (GPa) = 21.37379 23.84403 22.60891
#
# Velocity S-wave (km/s) = 3.18691 3.36604 3.27770
# Velocity P-wave (km/s) = 6.07801 6.49451 6.28971
#
# Compressibility (1/GPa) = 0.02030657
#
# Stress axis : x y z
#
# Youngs Moduli (GPa) = 112.35598 48.71724 64.63999
#
# Poissons Ratio (x) = 0.22643 0.17527
# Poissons Ratio (y) = 0.52222 0.31906
# Poissons Ratio (z) = 0.30465 0.24047
#
# Static dielectric constant tensor:
#      x y z
#    x 1.753800 0.000000 0.000000 
#    y 0.000000 1.776850 0.000000 
#    z 0.000000 0.000000 1.752840 
# 
# From -- ./inp_files/13530.got.cif
#   From: 2010.05.17/outbox.cif.g08.bks.cpg/sg72_7_cif.got.tgz:13530.got - 2010.06.03 17:03:01.
