data_PCOD9529615
_publ_section_title
;
Structure prediction by ZEFSAII (Michael W. Deem and Ramdas Pophale) SiO2 
 PCOD9529615
Probable space group: I B C A 
;
_chemical_formula_sum "Si O2"
_cell_formula_units_Z 64
_cell_length_a 14.001098
_cell_length_b 32.442270
_cell_length_c 5.416463
_cell_angle_alpha 90.000000
_cell_angle_beta 90.000000
_cell_angle_gamma 90.000000
_cell_volume 2460.305914
_symmetry_space_group_name_H-M "I B C A "
_symmetry_group_IT_number 73
_symmetry_cell_setting 'orthorhombic'
loop_
_space_group_symop_operation_xyz
x,y,z
-x,1/2-y,z
x,-y,1/2-z
1/2-x,y,-z
-x,-y,-z
x,1/2+y,-z
-x,y,1/2+z
1/2+x,-y,z
1/2+x,1/2+y,1/2+z
1/2-x,-y,1/2+z
1/2+x,1/2-y,-z
-x,1/2+y,1/2-z
1/2-x,1/2-y,1/2-z
1/2+x,y,1/2-z
1/2-x,1/2+y,z
x,1/2-y,1/2+z
loop_
_atom_site_type_symbol
_atom_site_label
_atom_site_fract_x
_atom_site_fract_y
_atom_site_fract_z
Si Si1 0.643536 0.861164 0.204928
Si Si2 0.357964 0.766117 0.701108
Si Si3 0.861976 0.109027 0.197207
Si Si4 0.891595 0.482371 0.504237
O O1 0.645439 0.813837 0.124603
O O2 0.750306 0.879656 0.252779
O O3 0.601979 0.860457 0.483137
O O4 0.599595 0.887614 0.978131
O O5 0.250000 0.750000 0.750000
O O6 0.400187 0.740393 0.474031
O O7 0.882093 0.065922 0.058807
O O8 0.851975 0.500000 0.250000
O O9 0.000000 0.500000 0.500000
O O10 0.845845 0.500000 0.750000
#
# Coordination Sequence:
#
# PCOD9529615 Si02
#       4
#    16  16  16  16
#     4  10  19  30  46  74 105 141 170 199 253 312
#     4  10  16  25  41  64  99 144 172 194 229 290
#     4  10  18  32  49  68  99 133 168 211 254 313
#     4  10  21  37  55  73  93 127 172 227 278 315
#
# _framework density 26.013027000000001
#
# number of rings (size 3 to 8) (size 9 to 14) (size 15 to 20)
#    0.000    2.000    0.000    9.000    0.000    0.000 
#    0.000   10.000    0.000    0.000    0.000    0.000 
#    0.000    0.000    0.000 1098.000    0.000    0.000 
#
# Total GULP energy -178455.577622 kJ/mol
# GULP energy per Si atom -5576.736801 kJ/mol
# Density = 2.595382 g / cm^3
# Si number density = 26.013027 Si / 1000 Ang^3
#
#
#
# Elastic Constant Matrix: (Units=GPa)
#
#
# Indices 1 2 3 4 5 6 
#
# 1 136.3948 4.1858 -0.8848 0.0072 0.0397 0.1316
# 2 4.1858 175.0066 43.2773 0.0450 -0.0808 0.1797
# 3 -0.8848 43.2773 307.8229 0.1602 -0.1505 0.4285
# 4 0.0072 0.0450 0.1602 57.0930 -0.1322 0.2841
# 5 0.0397 -0.0808 -0.1505 -0.1322 -92.7935 -0.3249
# 6 0.1316 0.1797 0.4285 0.2841 -0.3249 57.6376
#
#
#
# Elastic Compliance Matrix: (Units=1/GPa)
#
#
# Indices 1 2 3 4 5 6 
#
# 1 0.007338 -0.000187 0.000047 -0.000001 0.000003 -0.000016
# 2 -0.000187 0.005925 -0.000833 -0.000002 -0.000004 -0.000012
# 3 0.000047 -0.000833 0.003366 -0.000009 -0.000005 -0.000023
# 4 -0.000001 -0.000002 -0.000009 0.017516 -0.000025 -0.000086
# 5 0.000003 -0.000004 -0.000005 -0.000025 -0.010776 -0.000061
# 6 -0.000016 -0.000012 -0.000023 -0.000086 -0.000061 0.017350
#
#
# Mechanical properties :
#
#
# Convention : Reuss Voigt Hill
#
# Bulk Modulus (GPa) = 68.11131 79.15344 73.63237
# Shear Modulus (GPa) = 105.13418 42.56381 73.84899
#
# Velocity S-wave (km/s) = 6.36425 4.04945 5.33394
# Velocity P-wave (km/s) = 8.95798 7.23591 8.14260
#
# Compressibility (1/GPa) = 0.01468185
#
# Stress axis : x y z
#
# Youngs Moduli (GPa) = 136.28200 168.78574 297.09100
#
# Poissons Ratio (x) = 0.03160 -0.01409
# Poissons Ratio (y) = 0.02551 0.24762
# Poissons Ratio (z) = -0.00646 0.14068
#
# Static dielectric constant tensor:
#      x y z
#    x 2.159990 -0.000310 -0.000950 
#    y -0.000310 2.079760 -0.000600 
#    z -0.000950 -0.000600 2.285240 
# 
# From -- ./inp_files/1632.got.cif
#   From: 2010.05.17/outbox.cif.g08.bks.cpg/sg73_1_cif.got.tgz:1632.got - 2010.06.03 17:35:07.
