data_PCOD9529856
_publ_section_title
;
Structure prediction by ZEFSAII (Michael W. Deem and Ramdas Pophale) SiO2 
 PCOD9529856
Probable space group: I B C A 
;
_chemical_formula_sum "Si O2"
_cell_formula_units_Z 64
_cell_length_a 36.097670
_cell_length_b 4.988959
_cell_length_c 14.208169
_cell_angle_alpha 90.000000
_cell_angle_beta 90.000000
_cell_angle_gamma 90.000000
_cell_volume 2558.746251
_symmetry_space_group_name_H-M "I B C A "
_symmetry_group_IT_number 73
_symmetry_cell_setting 'orthorhombic'
loop_
_space_group_symop_operation_xyz
x,y,z
-x,1/2-y,z
x,-y,1/2-z
1/2-x,y,-z
-x,-y,-z
x,1/2+y,-z
-x,y,1/2+z
1/2+x,-y,z
1/2+x,1/2+y,1/2+z
1/2-x,-y,1/2+z
1/2+x,1/2-y,-z
-x,1/2+y,1/2-z
1/2-x,1/2-y,1/2-z
1/2+x,y,1/2-z
1/2-x,1/2+y,z
x,1/2-y,1/2+z
loop_
_atom_site_type_symbol
_atom_site_label
_atom_site_fract_x
_atom_site_fract_y
_atom_site_fract_z
Si Si1 0.271315 0.517822 0.637153
Si Si2 0.074795 0.034880 0.637709
Si Si3 0.848207 0.272947 0.558927
Si Si4 0.966576 0.953065 0.636439
O O1 0.270378 0.500000 0.750000
O O2 0.260749 0.221710 0.603767
O O3 0.310778 0.636145 0.609779
O O4 0.043315 0.246783 0.603521
O O5 0.070833 0.000000 0.750000
O O6 0.114807 0.148244 0.614433
O O7 0.067947 0.732208 0.604719
O O8 0.848513 0.960736 0.533941
O O9 0.000000 0.750000 0.612215
O O10 0.969489 0.000000 0.750000
#
# Coordination Sequence:
#
# PCOD9529856 Si02
#       4
#    16  16  16  16
#     4  10  22  41  65  91 119 153 196 246 299 355
#     4  10  21  37  59  85 117 156 196 243 297 353
#     4  12  25  40  60  86 122 162 200 244 291 351
#     4  10  18  32  58  90 117 144 192 253 302 344
#
# _framework density 25.012249000000001
#
# number of rings (size 3 to 8) (size 9 to 14) (size 15 to 20)
#    0.000    1.500    0.000    6.750    0.000    3.000 
#    0.000   10.000    0.000   15.000    0.000    0.000 
#    0.000    0.000    0.000    0.000    0.000    0.000 
#
# Total GULP energy -178932.648520 kJ/mol
# GULP energy per Si atom -5591.645266 kJ/mol
# Density = 2.495532 g / cm^3
# Si number density = 25.012249 Si / 1000 Ang^3
#
#
#
# Elastic Constant Matrix: (Units=GPa)
#
#
# Indices 1 2 3 4 5 6 
#
# 1 143.0503 44.9266 7.1161 0.0000 0.0000 0.0000
# 2 44.9266 142.9874 2.1078 0.0000 0.0000 0.0000
# 3 7.1161 2.1078 71.2235 0.0000 0.0000 0.0000
# 4 0.0000 0.0000 0.0000 14.8686 0.0000 0.0000
# 5 0.0000 0.0000 0.0000 0.0000 33.1534 0.0000
# 6 0.0000 0.0000 0.0000 0.0000 0.0000 38.3819
#
#
#
# Elastic Compliance Matrix: (Units=1/GPa)
#
#
# Indices 1 2 3 4 5 6 
#
# 1 0.007791 -0.002438 -0.000706 0.000000 0.000000 0.000000
# 2 -0.002438 0.007759 0.000014 0.000000 0.000000 0.000000
# 3 -0.000706 0.000014 0.014110 0.000000 0.000000 0.000000
# 4 0.000000 0.000000 0.000000 0.067256 0.000000 0.000000
# 5 0.000000 0.000000 0.000000 0.000000 0.030163 0.000000
# 6 0.000000 0.000000 0.000000 0.000000 0.000000 0.026054
#
#
# Mechanical properties :
#
#
# Convention : Reuss Voigt Hill
#
# Bulk Modulus (GPa) = 42.73310 51.72914 47.23112
# Shear Modulus (GPa) = 29.90534 37.48814 33.69674
#
# Velocity S-wave (km/s) = 3.46154 3.87562 3.67442
# Velocity P-wave (km/s) = 5.75311 6.38386 6.07668
#
# Compressibility (1/GPa) = 0.02340106
#
# Stress axis : x y z
#
# Youngs Moduli (GPa) = 128.34929 128.87744 70.86934
#
# Poissons Ratio (x) = 0.31415 0.05005
# Poissons Ratio (y) = 0.31286 -0.00099
# Poissons Ratio (z) = 0.09065 -0.00179
#
# Static dielectric constant tensor:
#      x y z
#    x 1.964320 0.000000 0.000000 
#    y 0.000000 1.922640 0.000000 
#    z 0.000000 0.000000 2.002720 
# 
# From -- ./inp_files/24050.got.cif
#   From: 2010.05.17/outbox.cif.g08.bks.cpg/sg73_13_cif.got.tgz:24050.got - 2010.06.03 17:35:07.
