data_PCOD9529650
_publ_section_title
;
Structure prediction by ZEFSAII (Michael W. Deem and Ramdas Pophale) SiO2 
 PCOD9529650
Probable space group: I B C A 
;
_chemical_formula_sum "Si O2"
_cell_formula_units_Z 72
_cell_length_a 5.095747
_cell_length_b 22.938488
_cell_length_c 31.456671
_cell_angle_alpha 90.000000
_cell_angle_beta 90.000000
_cell_angle_gamma 90.000000
_cell_volume 3676.930368
_symmetry_space_group_name_H-M "I B C A "
_symmetry_group_IT_number 73
_symmetry_cell_setting 'orthorhombic'
loop_
_space_group_symop_operation_xyz
x,y,z
-x,1/2-y,z
x,-y,1/2-z
1/2-x,y,-z
-x,-y,-z
x,1/2+y,-z
-x,y,1/2+z
1/2+x,-y,z
1/2+x,1/2+y,1/2+z
1/2-x,-y,1/2+z
1/2+x,1/2-y,-z
-x,1/2+y,1/2-z
1/2-x,1/2-y,1/2-z
1/2+x,y,1/2-z
1/2-x,1/2+y,z
x,1/2-y,1/2+z
loop_
_atom_site_type_symbol
_atom_site_label
_atom_site_fract_x
_atom_site_fract_y
_atom_site_fract_z
Si Si1 0.672995 0.655224 0.278092
Si Si2 0.017088 0.654111 0.472899
Si Si3 0.969338 0.975822 0.201986
Si Si4 0.750000 0.542528 0.000000
Si Si5 0.000000 0.750000 0.403428
Si Si6 0.000000 0.750000 0.654126
O O1 0.965477 0.663809 0.260418
O O2 0.631759 0.589314 0.293980
O O3 0.594328 0.698427 0.315178
O O4 0.750000 0.644652 0.500000
O O5 0.250000 0.685870 0.500000
O O6 0.339257 0.591470 0.535331
O O7 0.949289 0.693887 0.433065
O O8 0.020240 0.000000 0.250000
O O9 0.251661 0.983232 0.181150
O O10 0.500000 0.500000 0.000000
O O11 0.251799 0.735490 0.375000
#
# Coordination Sequence:
#
# PCOD9529650 Si02
#       6
#    16  16  16   8   8   8
#     4  12  21  38  60  81 114 144 211 254 300 367
#     4  10  20  36  68  97 118 163 202 250 287 342
#     4  10  16  30  54  88  97 130 175 261 308 328
#     4  10  18  34  60 106 126 148 202 252 290 342
#     4  12  24  44  58  86 136 154 210 242 300 370
#     4  12  28  38  56  84 122 172 186 252 318 356
#
# _framework density 19.581551999999999
#
# number of rings (size 3 to 8) (size 9 to 14) (size 15 to 20)
#    0.667    0.444    5.556    4.000    0.000    0.000 
#    0.000    0.000    0.000    8.000    0.000    0.000 
#    0.000    0.000    0.000    0.000    0.000    0.000 
#
# Total GULP energy -200459.996738 kJ/mol
# GULP energy per Si atom -5568.333243 kJ/mol
# Density = 1.953698 g / cm^3
# Si number density = 19.581552 Si / 1000 Ang^3
#
#
#
# Elastic Constant Matrix: (Units=GPa)
#
#
# Indices 1 2 3 4 5 6 
#
# 1 102.9849 -16.9021 -3.4139 0.0000 0.0000 0.0000
# 2 -16.9021 90.0054 21.3675 0.0000 0.0000 0.0000
# 3 -3.4139 21.3675 27.8594 0.0000 0.0000 0.0000
# 4 0.0000 0.0000 0.0000 -200.0797 0.0000 0.0000
# 5 0.0000 0.0000 0.0000 0.0000 36.1692 0.0000
# 6 0.0000 0.0000 0.0000 0.0000 0.0000 -61.3304
#
#
#
# Elastic Compliance Matrix: (Units=1/GPa)
#
#
# Indices 1 2 3 4 5 6 
#
# 1 0.010021 0.001944 -0.000263 0.000000 0.000000 0.000000
# 2 0.001944 0.013961 -0.010470 0.000000 0.000000 0.000000
# 3 -0.000263 -0.010470 0.043892 0.000000 0.000000 0.000000
# 4 0.000000 0.000000 0.000000 -0.004998 0.000000 0.000000
# 5 0.000000 0.000000 0.000000 0.000000 0.027648 0.000000
# 6 0.000000 0.000000 0.000000 0.000000 0.000000 -0.016305
#
#
# Mechanical properties :
#
#
# Convention : Reuss Voigt Hill
#
# Bulk Modulus (GPa) = 19.88206 24.77253 22.32730
# Shear Modulus (GPa) = 46.05699 -30.39497 7.83101
#
# Velocity S-wave (km/s) = 4.85507 -3.94410 2.00196
# Velocity P-wave (km/s) = 6.45015 2.83952 4.09521
#
# Compressibility (1/GPa) = 0.05029659
#
# Stress axis : x y z
#
# Youngs Moduli (GPa) = 99.79518 71.62778 22.78311
#
# Poissons Ratio (x) = -0.13926 0.00600
# Poissons Ratio (y) = -0.19403 0.23853
# Poissons Ratio (z) = 0.02627 0.74991
#
# Static dielectric constant tensor:
#      x y z
#    x 1.772540 0.000000 0.000000 
#    y 0.000000 1.710690 0.000000 
#    z 0.000000 0.000000 1.722040 
# 
# From -- ./inp_files/30870.got.cif
#   From: 2010.05.17/outbox.cif.g08.bks.cpg/sg73_16_cif.got.tgz:30870.got - 2010.06.03 17:35:07.
