data_PCOD9529806
_publ_section_title
;
Structure prediction by ZEFSAII (Michael W. Deem and Ramdas Pophale) SiO2 
 PCOD9529806
Probable space group: I B C A 
;
_chemical_formula_sum "Si O2"
_cell_formula_units_Z 120
_cell_length_a 14.504093
_cell_length_b 21.017635
_cell_length_c 21.186580
_cell_angle_alpha 90.000000
_cell_angle_beta 90.000000
_cell_angle_gamma 90.000000
_cell_volume 6458.553757
_symmetry_space_group_name_H-M "I B C A "
_symmetry_group_IT_number 73
_symmetry_cell_setting 'orthorhombic'
loop_
_space_group_symop_operation_xyz
x,y,z
-x,1/2-y,z
x,-y,1/2-z
1/2-x,y,-z
-x,-y,-z
x,1/2+y,-z
-x,y,1/2+z
1/2+x,-y,z
1/2+x,1/2+y,1/2+z
1/2-x,-y,1/2+z
1/2+x,1/2-y,-z
-x,1/2+y,1/2-z
1/2-x,1/2-y,1/2-z
1/2+x,y,1/2-z
1/2-x,1/2+y,z
x,1/2-y,1/2+z
loop_
_atom_site_type_symbol
_atom_site_label
_atom_site_fract_x
_atom_site_fract_y
_atom_site_fract_z
Si Si1 0.881127 0.562744 0.831636
Si Si2 0.605457 0.173099 0.931171
Si Si3 0.098992 0.918982 0.038902
Si Si4 0.388412 0.182593 0.908268
Si Si5 0.172861 0.952692 0.173645
Si Si6 0.401493 0.535075 0.938991
Si Si7 0.917114 0.411283 0.206569
Si Si8 0.750000 0.611582 0.500000
O O1 0.867077 0.621899 0.878882
O O2 0.779853 0.548198 0.806068
O O3 0.909206 0.502304 0.873916
O O4 0.971862 0.579870 0.791745
O O5 0.494131 0.175674 0.930190
O O6 0.637012 0.242944 0.910592
O O7 0.630056 0.142414 0.998880
O O8 0.157311 0.930873 0.101750
O O9 0.989794 0.919299 0.054748
O O10 0.102947 0.980870 0.993380
O O11 0.388476 0.145481 0.841059
O O12 0.323680 0.149702 0.959330
O O13 0.120126 0.906935 0.222573
O O14 0.128318 0.023069 0.180321
O O15 0.306637 0.571232 0.948887
#
# Coordination Sequence:
#
# PCOD9529806 Si02
#       8
#    16  16  16  16  16  16  16   8
#     4  10  20  37  58  83 110 155 193 234 298 348
#     4   9  20  37  60  79 112 151 191 245 292 352
#     4  10  18  34  55  85 114 147 181 241 300 338
#     4  10  20  37  56  82 114 152 197 234 291 351
#     4  11  22  35  58  86 118 150 194 239 290 359
#     4  10  18  30  56  84 122 140 178 241 300 349
#     4  10  22  39  55  81 120 157 192 234 287 358
#     4  12  20  30  56  92 110 148 192 244 298 354
#
# _framework density 18.580010999999999
#
# number of rings (size 3 to 8) (size 9 to 14) (size 15 to 20)
#    0.000    1.867    2.667    2.400    0.000    4.800 
#    2.400    0.667    0.000    6.400    0.000    0.000 
#    0.000    0.000    0.000    0.000    0.000    0.000 
#
# Total GULP energy -334604.727591 kJ/mol
# GULP energy per Si atom -5576.745460 kJ/mol
# Density = 1.853772 g / cm^3
# Si number density = 18.580011 Si / 1000 Ang^3
#
#
#
# Elastic Constant Matrix: (Units=GPa)
#
#
# Indices 1 2 3 4 5 6 
#
# 1 91.9318 14.3959 25.4484 0.0000 0.0000 0.0000
# 2 14.3959 83.1232 20.2507 0.0000 0.0000 0.0000
# 3 25.4484 20.2507 72.0710 0.0000 0.0000 0.0000
# 4 0.0000 0.0000 0.0000 18.8808 0.0000 0.0000
# 5 0.0000 0.0000 0.0000 0.0000 18.2407 0.0000
# 6 0.0000 0.0000 0.0000 0.0000 0.0000 -8.5842
#
#
#
# Elastic Compliance Matrix: (Units=1/GPa)
#
#
# Indices 1 2 3 4 5 6 
#
# 1 0.012155 -0.001137 -0.003973 0.000000 0.000000 0.000000
# 2 -0.001137 0.013021 -0.003257 0.000000 0.000000 0.000000
# 3 -0.003973 -0.003257 0.016193 0.000000 0.000000 0.000000
# 4 0.000000 0.000000 0.000000 0.052964 0.000000 0.000000
# 5 0.000000 0.000000 0.000000 0.000000 0.054822 0.000000
# 6 0.000000 0.000000 0.000000 0.000000 0.000000 -0.116493
#
#
# Mechanical properties :
#
#
# Convention : Reuss Voigt Hill
#
# Bulk Modulus (GPa) = 40.59185 40.81288 40.70237
# Shear Modulus (GPa) = 86.79325 18.17620 52.48472
#
# Velocity S-wave (km/s) = 6.84212 3.13112 5.32065
# Velocity P-wave (km/s) = 9.18227 5.92331 7.72656
#
# Compressibility (1/GPa) = 0.02463548
#
# Stress axis : x y z
#
# Youngs Moduli (GPa) = 82.26798 76.80017 61.75475
#
# Poissons Ratio (x) = 0.08735 0.24532
# Poissons Ratio (y) = 0.09357 0.20114
# Poissons Ratio (z) = 0.32681 0.25014
#
# Static dielectric constant tensor:
#      x y z
#    x 1.680240 0.000000 0.000000 
#    y 0.000000 1.647730 0.000000 
#    z 0.000000 0.000000 1.653560 
# 
# From -- ./inp_files/18943.got.cif
#   From: 2010.05.17/outbox.cif.g08.bks.cpg/sg73_10_cif.got.tgz:18943.got - 2010.06.03 17:35:07.
