data_PCOD9529838
_publ_section_title
;
Structure prediction by ZEFSAII (Michael W. Deem and Ramdas Pophale) SiO2 
 PCOD9529838
Probable space group: I B C A 
;
_chemical_formula_sum "Si O2"
_cell_formula_units_Z 104
_cell_length_a 10.112784
_cell_length_b 25.782759
_cell_length_c 17.943890
_cell_angle_alpha 90.000000
_cell_angle_beta 90.000000
_cell_angle_gamma 90.000000
_cell_volume 4678.608641
_symmetry_space_group_name_H-M "I B C A "
_symmetry_group_IT_number 73
_symmetry_cell_setting 'orthorhombic'
loop_
_space_group_symop_operation_xyz
x,y,z
-x,1/2-y,z
x,-y,1/2-z
1/2-x,y,-z
-x,-y,-z
x,1/2+y,-z
-x,y,1/2+z
1/2+x,-y,z
1/2+x,1/2+y,1/2+z
1/2-x,-y,1/2+z
1/2+x,1/2-y,-z
-x,1/2+y,1/2-z
1/2-x,1/2-y,1/2-z
1/2+x,y,1/2-z
1/2-x,1/2+y,z
x,1/2-y,1/2+z
loop_
_atom_site_type_symbol
_atom_site_label
_atom_site_fract_x
_atom_site_fract_y
_atom_site_fract_z
Si Si1 0.469491 0.690303 0.935187
Si Si2 0.500693 0.187126 0.389313
Si Si3 0.244309 0.367021 0.357541
Si Si4 0.230579 0.137812 0.414235
Si Si5 0.750000 0.442802 0.000000
Si Si6 0.636218 0.477795 0.598157
Si Si7 0.633954 0.536003 0.316173
O O1 0.500000 0.750000 0.937753
O O2 0.340993 0.680862 0.886127
O O3 0.588358 0.660608 0.894400
O O4 0.461350 0.674875 0.023060
O O5 0.500000 0.250000 0.379782
O O6 0.610624 0.155047 0.343607
O O7 0.356805 0.162588 0.374502
O O8 0.232341 0.405184 0.429911
O O9 0.177431 0.404993 0.297281
O O10 0.250000 0.154940 0.500000
O O11 0.213291 0.076151 0.414015
O O12 0.638088 0.483217 0.972469
O O13 0.731531 0.508239 0.655590
O O14 0.489992 0.465619 0.627220
O O15 0.585256 0.500000 0.250000
#
# Coordination Sequence:
#
# PCOD9529838 Si02
#       7
#    16  16  16  16   8  16  16
#     4  10  18  32  53  85 127 168 206 245 310 389
#     4  10  20  33  54  89 134 172 198 241 316 394
#     4  11  20  36  59  86 128 169 205 255 311 384
#     4  10  20  32  52  87 124 156 201 245 311 375
#     4  10  22  34  56  92 126 158 202 244 336 380
#     4  11  23  38  62  86 124 159 204 268 314 396
#     4  11  26  43  60  85 119 169 224 263 313 366
#
# _framework density 22.228831
#
# number of rings (size 3 to 8) (size 9 to 14) (size 15 to 20)
#    0.000    1.538    3.846    1.385    4.308    4.923 
#    0.000    0.000    0.000    0.000    0.000    6.462 
#    0.000    0.000    0.000    0.000    0.000    0.000 
#
# Total GULP energy -289925.595226 kJ/mol
# GULP energy per Si atom -5575.492216 kJ/mol
# Density = 2.217824 g / cm^3
# Si number density = 22.228831 Si / 1000 Ang^3
#
#
#
# Elastic Constant Matrix: (Units=GPa)
#
#
# Indices 1 2 3 4 5 6 
#
# 1 99.2257 16.8683 6.9115 0.0000 0.0000 0.0000
# 2 16.8683 81.0550 14.2625 0.0000 0.0000 0.0000
# 3 6.9115 14.2625 15.7961 0.0000 0.0000 0.0000
# 4 0.0000 0.0000 0.0000 5.3715 0.0000 0.0000
# 5 0.0000 0.0000 0.0000 0.0000 11.0993 0.0000
# 6 0.0000 0.0000 0.0000 0.0000 0.0000 36.3131
#
#
#
# Elastic Compliance Matrix: (Units=1/GPa)
#
#
# Indices 1 2 3 4 5 6 
#
# 1 0.010577 -0.001649 -0.003139 0.000000 0.000000 0.000000
# 2 -0.001649 0.014925 -0.012754 0.000000 0.000000 0.000000
# 3 -0.003139 -0.012754 0.076196 0.000000 0.000000 0.000000
# 4 0.000000 0.000000 0.000000 0.186168 0.000000 0.000000
# 5 0.000000 0.000000 0.000000 0.000000 0.090096 0.000000
# 6 0.000000 0.000000 0.000000 0.000000 0.000000 0.027538
#
#
# Mechanical properties :
#
#
# Convention : Reuss Voigt Hill
#
# Bulk Modulus (GPa) = 15.01199 30.24016 22.62607
# Shear Modulus (GPa) = 10.80407 21.09242 15.94824
#
# Velocity S-wave (km/s) = 2.20702 3.08373 2.68145
# Velocity P-wave (km/s) = 3.64179 5.12959 4.44833
#
# Compressibility (1/GPa) = 0.06661344
#
# Stress axis : x y z
#
# Youngs Moduli (GPa) = 94.54485 67.00315 13.12401
#
# Poissons Ratio (x) = 0.11047 0.04120
# Poissons Ratio (y) = 0.15589 0.16739
# Poissons Ratio (z) = 0.29680 0.85457
#
# Static dielectric constant tensor:
#      x y z
#    x 1.453730 0.000000 0.000000 
#    y 0.000000 1.891150 0.000000 
#    z 0.000000 0.000000 1.942430 
# 
# From -- ./inp_files/25064.got.cif
#   From: 2010.05.17/outbox.cif.g08.bks.cpg/sg73_13_cif.got.tgz:25064.got - 2010.06.03 17:35:07.
