data_PCOD9529658
_publ_section_title
;
Structure prediction by ZEFSAII (Michael W. Deem and Ramdas Pophale) SiO2 
 PCOD9529658
Probable space group: I B C A 
;
_chemical_formula_sum "Si O2"
_cell_formula_units_Z 64
_cell_length_a 20.277508
_cell_length_b 5.327931
_cell_length_c 24.505279
_cell_angle_alpha 90.000000
_cell_angle_beta 90.000000
_cell_angle_gamma 90.000000
_cell_volume 2647.480833
_symmetry_space_group_name_H-M "I B C A "
_symmetry_group_IT_number 73
_symmetry_cell_setting 'orthorhombic'
loop_
_space_group_symop_operation_xyz
x,y,z
-x,1/2-y,z
x,-y,1/2-z
1/2-x,y,-z
-x,-y,-z
x,1/2+y,-z
-x,y,1/2+z
1/2+x,-y,z
1/2+x,1/2+y,1/2+z
1/2-x,-y,1/2+z
1/2+x,1/2-y,-z
-x,1/2+y,1/2-z
1/2-x,1/2-y,1/2-z
1/2+x,y,1/2-z
1/2-x,1/2+y,z
x,1/2-y,1/2+z
loop_
_atom_site_type_symbol
_atom_site_label
_atom_site_fract_x
_atom_site_fract_y
_atom_site_fract_z
Si Si1 0.214032 0.355154 0.157472
Si Si2 0.577757 0.750325 0.714172
Si Si3 0.027139 0.000112 0.937617
Si Si4 0.678358 0.551789 0.036929
O O1 0.238794 0.628400 0.177793
O O2 0.138834 0.276715 0.171819
O O3 0.219060 0.394279 0.091720
O O4 0.500000 0.750000 0.698062
O O5 0.588394 0.500000 0.750000
O O6 0.585277 0.000000 0.750000
O O7 0.000000 0.750000 0.912259
O O8 0.104292 0.982581 0.941692
O O9 0.000000 0.250000 0.910186
O O10 0.000000 0.000000 0.000000
O O11 0.684744 0.797587 0.998748
#
# Coordination Sequence:
#
# PCOD9529658 Si02
#       4
#    16  16  16  16
#     4  12  28  46  67 106 144 186 242 284 349 430
#     4  10  23  48  80 109 140 175 223 292 368 427
#     4  10  16  31  53  82 114 158 226 290 322 388
#     4  12  23  39  62  89 134 190 239 286 328 393
#
# _framework density 24.173922999999998
#
# number of rings (size 3 to 8) (size 9 to 14) (size 15 to 20)
#    0.000    1.000    5.000    3.000    0.000    7.000 
#    0.000    3.750    0.000    0.000    0.000    0.000 
#    0.000    0.000    0.000    0.000    0.000    0.000 
#
# Total GULP energy -178777.879571 kJ/mol
# GULP energy per Si atom -5586.808737 kJ/mol
# Density = 2.411890 g / cm^3
# Si number density = 24.173923 Si / 1000 Ang^3
#
#
#
# Elastic Constant Matrix: (Units=GPa)
#
#
# Indices 1 2 3 4 5 6 
#
# 1 140.0067 53.2053 4.7578 0.0000 0.0000 0.0000
# 2 53.2053 262.1502 43.6355 0.0000 0.0000 0.0000
# 3 4.7578 43.6355 80.5526 0.0000 0.0000 0.0000
# 4 0.0000 0.0000 0.0000 4.8288 0.0000 0.0000
# 5 0.0000 0.0000 0.0000 0.0000 6.6105 0.0000
# 6 0.0000 0.0000 0.0000 0.0000 0.0000 72.2149
#
#
#
# Elastic Compliance Matrix: (Units=1/GPa)
#
#
# Indices 1 2 3 4 5 6 
#
# 1 0.007753 -0.001646 0.000434 0.000000 0.000000 0.000000
# 2 -0.001646 0.004542 -0.002363 0.000000 0.000000 0.000000
# 3 0.000434 -0.002363 0.013669 0.000000 0.000000 0.000000
# 4 0.000000 0.000000 0.000000 0.207091 0.000000 0.000000
# 5 0.000000 0.000000 0.000000 0.000000 0.151276 0.000000
# 6 0.000000 0.000000 0.000000 0.000000 0.000000 0.013848
#
#
# Mechanical properties :
#
#
# Convention : Reuss Voigt Hill
#
# Bulk Modulus (GPa) = 53.15409 76.21185 64.68297
# Shear Modulus (GPa) = 12.14773 42.13824 27.14298
#
# Velocity S-wave (km/s) = 2.24411 4.17961 3.35449
# Velocity P-wave (km/s) = 5.36196 7.40858 6.46675
#
# Compressibility (1/GPa) = 0.01881323
#
# Stress axis : x y z
#
# Youngs Moduli (GPa) = 128.97917 220.16830 73.15932
#
# Poissons Ratio (x) = 0.36234 -0.03172
# Poissons Ratio (y) = 0.21227 0.17289
# Poissons Ratio (z) = -0.05592 0.52030
#
# Static dielectric constant tensor:
#      x y z
#    x 1.921120 0.000000 0.000000 
#    y 0.000000 2.004720 0.000000 
#    z 0.000000 0.000000 1.910810 
# 
# From -- ./inp_files/30248.got.cif
#   From: 2010.05.17/outbox.cif.g08.bks.cpg/sg73_16_cif.got.tgz:30248.got - 2010.06.03 17:35:07.
