data_PCOD9529547
_publ_section_title
;
Structure prediction by ZEFSAII (Michael W. Deem and Ramdas Pophale) SiO2 
 PCOD9529547
Probable space group: I B A M
;
_chemical_formula_sum "Si O2"
_cell_formula_units_Z 56
_cell_length_a 27.000000
_cell_length_b 15.000000
_cell_length_c 15.000000
_cell_angle_alpha 90.000000
_cell_angle_beta 90.000000
_cell_angle_gamma 90.000000
_cell_volume 6075.000000
_symmetry_space_group_name_H-M "I B A M"
_symmetry_group_IT_number 72
_symmetry_cell_setting 'orthorhombic'
loop_
_space_group_symop_operation_xyz
x,y,z
-x,-y,z
x,-y,1/2-z
-x,y,1/2-z
-x,-y,-z
x,y,-z
-x,y,1/2+z
x,-y,1/2+z
1/2+x,1/2+y,1/2+z
1/2-x,1/2-y,1/2+z
1/2+x,1/2-y,-z
1/2-x,1/2+y,-z
1/2-x,1/2-y,1/2-z
1/2+x,1/2+y,1/2-z
1/2-x,1/2+y,z
1/2+x,1/2-y,z
loop_
_atom_site_type_symbol
_atom_site_label
_atom_site_fract_x
_atom_site_fract_y
_atom_site_fract_z
Si Si1 0.054204 0.545092 0.894599
Si Si2 0.811064 0.923592 0.601360
Si Si3 0.600493 0.400509 0.260071
Si Si4 0.274249 0.207738 0.339824
Si Si5 0.825212 0.881773 0.099096
Si Si6 0.442010 0.208935 0.761370
Si Si7 0.877786 0.627738 0.892367
O O1 0.068281 0.630807 0.834368
O O2 0.097336 0.470426 0.885160
O O3 0.000000 0.500000 0.870485
O O4 0.050355 0.568714 0.000000
O O5 0.827505 0.913688 0.500000
O O6 0.856679 0.909799 0.666539
O O7 0.768142 0.853921 0.619959
O O8 0.795063 0.026616 0.614783
O O9 0.576811 0.500000 0.250000
O O10 0.630620 0.380029 0.169527
O O11 0.570549 0.311643 0.284522
O O12 0.250000 0.250000 0.250000
O O13 0.291050 0.295945 0.391978
O O14 0.324435 0.147089 0.345723
O O15 0.846138 0.885464 0.000000
O O16 0.500000 0.203120 0.750000
O O17 0.414845 0.186587 0.667998
O O18 0.875009 0.647887 0.000000
#
# Coordination Sequence:
#
# PCOD9529547 Si02
#       7
#    16  16  16  16  16  16  16
#     4  10  22  42  64  92 131 172 213 267 333 399
#     4  10  21  39  61  84 117 159 201 254 316 375
#     4  10  22  41  59  88 122 160 210 263 320 379
#     4  12  22  39  61  91 125 161 210 265 320 381
#     4  10  20  38  62  81 112 161 203 247 308 377
#     4  12  23  38  64  94 124 168 219 267 326 389
#     4  11  23  40  64  94 130 172 214 264 326 401
#
# _framework density 9.2181069999999998
#
# number of rings (size 3 to 8) (size 9 to 14) (size 15 to 20)
#    0.000    1.286    4.286    1.714    0.000    0.857 
#    7.714    0.000    0.000    0.000    0.000    6.000 
#    0.000    0.000    0.000    0.000    0.000    0.000 
#
# Total GULP energy -311957.843841 kJ/mol
# GULP energy per Si atom -5570.675783 kJ/mol
# Density = 0.919713 g / cm^3
# Si number density = 9.218107 Si / 1000 Ang^3
#
#
#
# Elastic Constant Matrix: (Units=GPa)
#
#
# Indices 1 2 3 4 5 6 
#
# 1 56.8693 25.8987 44.2393 0.0000 0.0000 0.0000
# 2 25.8987 148.0361 51.3394 0.0000 0.0000 0.0000
# 3 44.2393 51.3394 95.5633 0.0000 0.0000 0.0000
# 4 0.0000 0.0000 0.0000 36.4069 0.0000 0.0000
# 5 0.0000 0.0000 0.0000 0.0000 55.5940 0.0000
# 6 0.0000 0.0000 0.0000 0.0000 0.0000 34.5114
#
#
#
# Elastic Compliance Matrix: (Units=1/GPa)
#
#
# Indices 1 2 3 4 5 6 
#
# 1 0.027509 -0.000487 -0.012473 0.000000 0.000000 0.000000
# 2 -0.000487 0.008310 -0.004239 0.000000 0.000000 0.000000
# 3 -0.012473 -0.004239 0.018516 0.000000 0.000000 0.000000
# 4 0.000000 0.000000 0.000000 0.027467 0.000000 0.000000
# 5 0.000000 0.000000 0.000000 0.000000 0.017988 0.000000
# 6 0.000000 0.000000 0.000000 0.000000 0.000000 0.028976
#
#
# Mechanical properties :
#
#
# Convention : Reuss Voigt Hill
#
# Bulk Modulus (GPa) = 50.15869 60.38038 55.26953
# Shear Modulus (GPa) = 29.44462 37.23521 33.33992
#
# Velocity S-wave (km/s) = 4.00072 4.49896 4.25713
# Velocity P-wave (km/s) = 6.97185 7.73366 7.36262
#
# Compressibility (1/GPa) = 0.01993673
#
# Stress axis : x y z
#
# Youngs Moduli (GPa) = 36.35181 120.33011 54.00757
#
# Poissons Ratio (x) = 0.05859 0.67365
# Poissons Ratio (y) = 0.01770 0.22895
# Poissons Ratio (z) = 0.45342 0.51011
#
# Static dielectric constant tensor:
#      x y z
#    x 1.627180 0.000000 0.000000 
#    y 0.000000 1.776620 0.000000 
#    z 0.000000 0.000000 1.761400 
# 
# From -- ./inp_files/25951.got.cif
#   From: 2010.05.17/outbox.ucp.g08.bks.cvg/sg72_13_cif.got.tgz:25951.got - 2010.06.11 16:33:07.
