data_PCOD9529043
_publ_section_title
;
Structure prediction by ZEFSAII (Michael W. Deem and Ramdas Pophale) SiO2 
 PCOD9529043
Probable space group: I B A M
;
_chemical_formula_sum "Si O2"
_cell_formula_units_Z 56
_cell_length_a 13.583553
_cell_length_b 12.193783
_cell_length_c 14.806435
_cell_angle_alpha 90.000000
_cell_angle_beta 90.000000
_cell_angle_gamma 90.000000
_cell_volume 2452.462346
_symmetry_space_group_name_H-M "I B A M"
_symmetry_group_IT_number 72
_symmetry_cell_setting 'orthorhombic'
loop_
_space_group_symop_operation_xyz
x,y,z
-x,-y,z
x,-y,1/2-z
-x,y,1/2-z
-x,-y,-z
x,y,-z
-x,y,1/2+z
x,-y,1/2+z
1/2+x,1/2+y,1/2+z
1/2-x,1/2-y,1/2+z
1/2+x,1/2-y,-z
1/2-x,1/2+y,-z
1/2-x,1/2-y,1/2-z
1/2+x,1/2+y,1/2-z
1/2-x,1/2+y,z
1/2+x,1/2-y,z
loop_
_atom_site_type_symbol
_atom_site_label
_atom_site_fract_x
_atom_site_fract_y
_atom_site_fract_z
Si Si1 0.810950 0.500000 0.750000
Si Si2 0.834149 0.023084 0.098407
Si Si3 0.938518 0.610814 0.399766
Si Si4 0.478458 0.337794 0.355642
O O1 0.740539 0.443424 0.676388
O O2 0.870484 0.587314 0.688127
O O3 0.879521 0.902269 0.118361
O O4 0.929246 0.100509 0.099397
O O5 0.787430 0.026756 0.000000
O O6 0.892250 0.629403 0.500000
O O7 0.011567 0.711806 0.381812
O O8 0.000000 0.500000 0.404982
O O9 0.500000 0.351163 0.250000
#
# Coordination Sequence:
#
# PCOD9529043 Si02
#       4
#     8  16  16  16
#     4  12  23  43  64 100 130 172 220 281 335 384
#     4  11  22  40  67 100 134 170 222 278 333 395
#     4  11  25  45  66  93 132 178 222 268 334 410
#     4  11  20  42  68  96 130 178 220 267 335 400
#
# _framework density 22.834192999999999
#
# number of rings (size 3 to 8) (size 9 to 14) (size 15 to 20)
#    0.000    0.857    2.857    7.286    0.000    1.143 
#    5.143    0.000    0.000    0.000    0.000    0.000 
#    0.000    0.000    0.000    0.000    0.000    0.000 
#
# Total GULP energy -156462.122689 kJ/mol
# GULP energy per Si atom -5587.932953 kJ/mol
# Density = 2.278222 g / cm^3
# Si number density = 22.834193 Si / 1000 Ang^3
#
#
#
# Elastic Constant Matrix: (Units=GPa)
#
#
# Indices 1 2 3 4 5 6 
#
# 1 48.8369 11.6588 37.6872 0.0000 0.0000 0.0000
# 2 11.6588 121.2328 16.0937 0.0000 0.0000 0.0000
# 3 37.6872 16.0937 230.2332 0.0000 0.0000 0.0000
# 4 0.0000 0.0000 0.0000 56.9805 0.0000 0.0000
# 5 0.0000 0.0000 0.0000 0.0000 15.3907 0.0000
# 6 0.0000 0.0000 0.0000 0.0000 0.0000 -32.3297
#
#
#
# Elastic Compliance Matrix: (Units=1/GPa)
#
#
# Indices 1 2 3 4 5 6 
#
# 1 0.023815 -0.001789 -0.003773 0.000000 0.000000 0.000000
# 2 -0.001789 0.008460 -0.000298 0.000000 0.000000 0.000000
# 3 -0.003773 -0.000298 0.004982 0.000000 0.000000 0.000000
# 4 0.000000 0.000000 0.000000 0.017550 0.000000 0.000000
# 5 0.000000 0.000000 0.000000 0.000000 0.064974 0.000000
# 6 0.000000 0.000000 0.000000 0.000000 0.000000 -0.030931
#
#
# Mechanical properties :
#
#
# Convention : Reuss Voigt Hill
#
# Bulk Modulus (GPa) = 39.16152 59.02024 49.09088
# Shear Modulus (GPa) = 45.83601 30.33252 38.08426
#
# Velocity S-wave (km/s) = 4.48520 3.64865 4.08838
# Velocity P-wave (km/s) = 6.63402 6.60709 6.62057
#
# Compressibility (1/GPa) = 0.02553527
#
# Stress axis : x y z
#
# Youngs Moduli (GPa) = 41.98974 118.19909 200.72490
#
# Poissons Ratio (x) = 0.21150 0.75739
# Poissons Ratio (y) = 0.07514 0.05991
# Poissons Ratio (z) = 0.15844 0.03528
#
# Static dielectric constant tensor:
#      x y z
#    x 1.870540 0.000000 0.000000 
#    y 0.000000 1.864490 0.000000 
#    z 0.000000 0.000000 1.921860 
# 
# From -- ./inp_files/21059.got.cif
#   From: 2010.05.17/outbox.cif.g08.bks.cpg/sg72_11_cif.got.tgz:21059.got - 2010.06.03 17:03:01.
