data_PCOD9529803
_publ_section_title
;
Structure prediction by ZEFSAII (Michael W. Deem and Ramdas Pophale) SiO2 
 PCOD9529803
Probable space group: I B C A 
;
_chemical_formula_sum "Si O2"
_cell_formula_units_Z 120
_cell_length_a 15.479839
_cell_length_b 18.306825
_cell_length_c 26.169956
_cell_angle_alpha 90.000000
_cell_angle_beta 90.000000
_cell_angle_gamma 90.000000
_cell_volume 7416.217564
_symmetry_space_group_name_H-M "I B C A "
_symmetry_group_IT_number 73
_symmetry_cell_setting 'orthorhombic'
loop_
_space_group_symop_operation_xyz
x,y,z
-x,1/2-y,z
x,-y,1/2-z
1/2-x,y,-z
-x,-y,-z
x,1/2+y,-z
-x,y,1/2+z
1/2+x,-y,z
1/2+x,1/2+y,1/2+z
1/2-x,-y,1/2+z
1/2+x,1/2-y,-z
-x,1/2+y,1/2-z
1/2-x,1/2-y,1/2-z
1/2+x,y,1/2-z
1/2-x,1/2+y,z
x,1/2-y,1/2+z
loop_
_atom_site_type_symbol
_atom_site_label
_atom_site_fract_x
_atom_site_fract_y
_atom_site_fract_z
Si Si1 0.998928 0.930919 0.962518
Si Si2 0.274991 0.418727 0.744934
Si Si3 0.673059 0.835169 0.038842
Si Si4 0.318260 0.161672 0.344112
Si Si5 0.175037 0.160915 0.539879
Si Si6 0.002026 0.418648 0.654537
Si Si7 0.320747 0.334600 0.343813
Si Si8 0.054636 0.500000 0.250000
O O1 0.914320 0.880427 0.971447
O O2 0.994718 0.952360 0.902318
O O3 0.087105 0.884175 0.968528
O O4 0.000000 0.000000 0.000000
O O5 0.235709 0.500000 0.750000
O O6 0.266469 0.377515 0.798833
O O7 0.237064 0.375006 0.697823
O O8 0.377194 0.435407 0.736443
O O9 0.655479 0.747861 0.035637
O O10 0.703347 0.849523 0.097107
O O11 0.750000 0.853278 0.000000
O O12 0.290323 0.147632 0.402502
O O13 0.414856 0.129009 0.342446
O O14 0.318539 0.248053 0.335472
O O15 0.250000 0.142258 0.500000
O O16 0.082775 0.365531 0.661282
O O17 0.997976 0.476317 0.700493
#
# Coordination Sequence:
#
# PCOD9529803 Si02
#       8
#    16  16  16  16  16  16  16   8
#     4  10  20  33  49  78 104 130 168 211 252 298
#     4   9  19  32  46  72 103 130 156 194 254 295
#     4   9  19  35  53  75 101 134 173 210 252 296
#     4   9  17  34  53  73  98 128 166 205 246 291
#     4   9  18  35  56  75  99 134 171 210 253 299
#     4   9  18  33  50  71  97 128 165 204 244 286
#     4  10  18  30  55  76  93 126 174 208 234 292
#     4   8  18  32  46  64 102 138 150 190 256 296
#
# _framework density 16.180755000000001
#
# number of rings (size 3 to 8) (size 9 to 14) (size 15 to 20)
#    0.400    2.400    0.000    1.200    0.933    4.800 
#    4.800    0.000    0.000    0.000    0.000    7.467 
#    0.000    0.000    0.000    0.000    0.000    0.000 
#
# Total GULP energy -334043.792627 kJ/mol
# GULP energy per Si atom -5567.396544 kJ/mol
# Density = 1.614393 g / cm^3
# Si number density = 16.180755 Si / 1000 Ang^3
#
#
#
# Elastic Constant Matrix: (Units=GPa)
#
#
# Indices 1 2 3 4 5 6 
#
# 1 60.6700 36.1131 75.5854 0.0000 0.0000 0.0000
# 2 36.1131 85.7426 89.3335 0.0000 0.0000 0.0000
# 3 75.5854 89.3335 160.0345 0.0000 0.0000 0.0000
# 4 0.0000 0.0000 0.0000 34.3628 0.0000 0.0000
# 5 0.0000 0.0000 0.0000 0.0000 28.0952 0.0000
# 6 0.0000 0.0000 0.0000 0.0000 0.0000 10.8706
#
#
#
# Elastic Compliance Matrix: (Units=1/GPa)
#
#
# Indices 1 2 3 4 5 6 
#
# 1 0.041771 0.007079 -0.023680 0.000000 0.000000 0.000000
# 2 0.007079 0.029074 -0.019573 0.000000 0.000000 0.000000
# 3 -0.023680 -0.019573 0.028359 0.000000 0.000000 0.000000
# 4 0.000000 0.000000 0.000000 0.029101 0.000000 0.000000
# 5 0.000000 0.000000 0.000000 0.000000 0.035593 0.000000
# 6 0.000000 0.000000 0.000000 0.000000 0.000000 0.091991
#
#
# Mechanical properties :
#
#
# Convention : Reuss Voigt Hill
#
# Bulk Modulus (GPa) = 37.23669 78.72345 57.98007
# Shear Modulus (GPa) = 14.82846 21.69339 18.26092
#
# Velocity S-wave (km/s) = 3.03054 3.66552 3.36305
# Velocity P-wave (km/s) = 5.94209 8.16534 7.14077
#
# Compressibility (1/GPa) = 0.02685523
#
# Stress axis : x y z
#
# Youngs Moduli (GPa) = 23.94012 34.39509 35.26236
#
# Poissons Ratio (x) = -0.24348 0.83502
# Poissons Ratio (y) = -0.16947 0.69019
# Poissons Ratio (z) = 0.56691 0.67321
#
# Static dielectric constant tensor:
#      x y z
#    x 1.522610 0.000000 0.000000 
#    y 0.000000 1.531570 0.000000 
#    z 0.000000 0.000000 1.547460 
# 
# From -- ./inp_files/18273.got.cif
#   From: 2010.05.17/outbox.cif.g08.bks.cpg/sg73_10_cif.got.tgz:18273.got - 2010.06.03 17:35:07.
