data_PCOD9529169
_publ_section_title
;
Structure prediction by ZEFSAII (Michael W. Deem and Ramdas Pophale) SiO2 
 PCOD9529169
Probable space group: I B A M
;
_chemical_formula_sum "Si O2"
_cell_formula_units_Z 64
_cell_length_a 21.626381
_cell_length_b 7.358491
_cell_length_c 18.315569
_cell_angle_alpha 90.000000
_cell_angle_beta 90.000000
_cell_angle_gamma 90.000000
_cell_volume 2914.694410
_symmetry_space_group_name_H-M "I B A M"
_symmetry_group_IT_number 72
_symmetry_cell_setting 'orthorhombic'
loop_
_space_group_symop_operation_xyz
x,y,z
-x,-y,z
x,-y,1/2-z
-x,y,1/2-z
-x,-y,-z
x,y,-z
-x,y,1/2+z
x,-y,1/2+z
1/2+x,1/2+y,1/2+z
1/2-x,1/2-y,1/2+z
1/2+x,1/2-y,-z
1/2-x,1/2+y,-z
1/2-x,1/2-y,1/2-z
1/2+x,1/2+y,1/2-z
1/2-x,1/2+y,z
1/2+x,1/2-y,z
loop_
_atom_site_type_symbol
_atom_site_label
_atom_site_fract_x
_atom_site_fract_y
_atom_site_fract_z
Si Si1 0.609738 0.338831 0.079264
Si Si2 0.068268 0.286290 0.232079
Si Si3 0.160997 0.815314 0.855931
Si Si4 0.283357 0.948691 0.084036
O O1 0.575330 0.253440 0.147260
O O2 0.620241 0.551461 0.093984
O O3 0.674936 0.231410 0.081209
O O4 0.581428 0.307851 0.000000
O O5 0.070115 0.500000 0.250000
O O6 0.124323 0.203101 0.279974
O O7 0.000000 0.216503 0.250000
O O8 0.228227 0.911460 0.858961
O O9 0.175119 0.618339 0.890513
O O10 0.261081 0.978480 0.000000
#
# Coordination Sequence:
#
# PCOD9529169 Si02
#       4
#    16  16  16  16
#     4  11  24  44  70 104 143 186 232 294 361 427
#     4  11  26  51  73 101 142 193 250 305 350 422
#     4  12  23  42  73 102 142 192 230 289 365 422
#     4  11  22  39  64 107 151 179 226 291 356 432
#
# _framework density 21.957704
#
# number of rings (size 3 to 8) (size 9 to 14) (size 15 to 20)
#    0.000    0.750    5.000    3.000    0.000    3.000 
#    4.500    7.500    0.000    0.000    0.000    0.000 
#    0.000    0.000    0.000    0.000    0.000    0.000 
#
# Total GULP energy -178796.475650 kJ/mol
# GULP energy per Si atom -5587.389864 kJ/mol
# Density = 2.190773 g / cm^3
# Si number density = 21.957704 Si / 1000 Ang^3
#
#
#
# Elastic Constant Matrix: (Units=GPa)
#
#
# Indices 1 2 3 4 5 6 
#
# 1 82.4982 14.2408 75.5549 0.0000 0.0000 0.0000
# 2 14.2408 128.8338 42.7697 0.0000 0.0000 0.0000
# 3 75.5549 42.7697 190.1284 0.0000 0.0000 0.0000
# 4 0.0000 0.0000 0.0000 6.6772 0.0000 0.0000
# 5 0.0000 0.0000 0.0000 0.0000 -44.9793 0.0000
# 6 0.0000 0.0000 0.0000 0.0000 0.0000 -101.0781
#
#
#
# Elastic Compliance Matrix: (Units=1/GPa)
#
#
# Indices 1 2 3 4 5 6 
#
# 1 0.019080 0.000441 -0.007682 0.000000 0.000000 0.000000
# 2 0.000441 0.008399 -0.002065 0.000000 0.000000 0.000000
# 3 -0.007682 -0.002065 0.008777 0.000000 0.000000 0.000000
# 4 0.000000 0.000000 0.000000 0.149763 0.000000 0.000000
# 5 0.000000 0.000000 0.000000 0.000000 -0.022232 0.000000
# 6 0.000000 0.000000 0.000000 0.000000 0.000000 -0.009893
#
#
# Mechanical properties :
#
#
# Convention : Reuss Voigt Hill
#
# Bulk Modulus (GPa) = 56.67190 74.06568 65.36879
# Shear Modulus (GPa) = 28.02931 -9.94969 9.03981
#
# Velocity S-wave (km/s) = 3.57671 -2.13099 2.03122
# Velocity P-wave (km/s) = 6.55154 5.26777 5.94442
#
# Compressibility (1/GPa) = 0.01764543
#
# Stress axis : x y z
#
# Youngs Moduli (GPa) = 52.40979 119.06805 113.93956
#
# Poissons Ratio (x) = -0.05251 0.87523
# Poissons Ratio (y) = -0.02311 0.23523
# Poissons Ratio (z) = 0.40259 0.24582
#
# Static dielectric constant tensor:
#      x y z
#    x 1.820130 0.000000 0.000000 
#    y 0.000000 1.823070 0.000000 
#    z 0.000000 0.000000 1.793390 
# 
# From -- ./inp_files/27680.got.cif
#   From: 2010.05.17/outbox.cif.g08.bks.cpg/sg72_14_cif.got.tgz:27680.got - 2010.06.03 17:03:01.
