data_PCOD9529095
_publ_section_title
;
Structure prediction by ZEFSAII (Michael W. Deem and Ramdas Pophale) SiO2 
 PCOD9529095
Probable space group: I B A M
;
_chemical_formula_sum "Si O2"
_cell_formula_units_Z 80
_cell_length_a 10.012588
_cell_length_b 13.317662
_cell_length_c 32.460887
_cell_angle_alpha 90.000000
_cell_angle_beta 90.000000
_cell_angle_gamma 90.000000
_cell_volume 4328.473045
_symmetry_space_group_name_H-M "I B A M"
_symmetry_group_IT_number 72
_symmetry_cell_setting 'orthorhombic'
loop_
_space_group_symop_operation_xyz
x,y,z
-x,-y,z
x,-y,1/2-z
-x,y,1/2-z
-x,-y,-z
x,y,-z
-x,y,1/2+z
x,-y,1/2+z
1/2+x,1/2+y,1/2+z
1/2-x,1/2-y,1/2+z
1/2+x,1/2-y,-z
1/2-x,1/2+y,-z
1/2-x,1/2-y,1/2-z
1/2+x,1/2+y,1/2-z
1/2-x,1/2+y,z
1/2+x,1/2-y,z
loop_
_atom_site_type_symbol
_atom_site_label
_atom_site_fract_x
_atom_site_fract_y
_atom_site_fract_z
Si Si1 0.229003 0.619086 0.500000
Si Si2 0.620882 0.443112 0.294569
Si Si3 0.077508 0.300675 0.500000
Si Si4 0.848414 0.540006 0.566074
Si Si5 0.349495 0.959450 0.340263
Si Si6 0.121824 0.281056 0.277116
O O1 0.357386 0.690907 0.500000
O O2 0.227032 0.544956 0.539572
O O3 0.084527 0.679956 0.500000
O O4 0.500000 0.500000 0.316322
O O5 0.636816 0.500000 0.250000
O O6 0.757028 0.458257 0.318460
O O7 0.577221 0.328286 0.292386
O O8 0.138669 0.359229 0.539376
O O9 0.803259 0.556297 0.612753
O O10 0.000000 0.500000 0.568254
O O11 0.342063 0.858829 0.312802
O O12 0.500000 0.000000 0.340184
O O13 0.250000 0.250000 0.250000
O O14 0.000000 0.324251 0.250000
#
# Coordination Sequence:
#
# PCOD9529095 Si02
#       6
#     8  16   8  16  16  16
#     4   9  17  35  64  84 114 149 179 221 282 338
#     4  11  21  39  54  73 113 152 181 229 304 336
#     4   9  17  35  62  82 112 147 185 219 274 342
#     4   8  18  37  55  82 115 150 178 225 285 332
#     4  11  23  36  58  84 110 142 201 245 266 328
#     4  12  22  35  56  77 102 147 193 230 281 333
#
# _framework density 18.482268000000001
#
# number of rings (size 3 to 8) (size 9 to 14) (size 15 to 20)
#    0.000    1.800    4.000    2.400    0.000    1.600 
#    0.000   10.000    0.000    0.000    0.000    0.000 
#    0.000    0.000    0.000    0.000    0.000    0.000 
#
# Total GULP energy -222937.812098 kJ/mol
# GULP energy per Si atom -5573.445302 kJ/mol
# Density = 1.844020 g / cm^3
# Si number density = 18.482268 Si / 1000 Ang^3
#
#
#
# Elastic Constant Matrix: (Units=GPa)
#
#
# Indices 1 2 3 4 5 6 
#
# 1 58.4815 -6.6360 20.9883 0.0000 0.0000 0.0000
# 2 -6.6360 74.8551 31.2360 0.0000 0.0000 0.0000
# 3 20.9883 31.2360 125.8211 0.0000 0.0000 0.0000
# 4 0.0000 0.0000 0.0000 -1.9095 0.0000 0.0000
# 5 0.0000 0.0000 0.0000 0.0000 10.6777 0.0000
# 6 0.0000 0.0000 0.0000 0.0000 0.0000 34.7294
#
#
#
# Elastic Compliance Matrix: (Units=1/GPa)
#
#
# Indices 1 2 3 4 5 6 
#
# 1 0.018908 0.003338 -0.003983 0.000000 0.000000 0.000000
# 2 0.003338 0.015492 -0.004403 0.000000 0.000000 0.000000
# 3 -0.003983 -0.004403 0.009705 0.000000 0.000000 0.000000
# 4 0.000000 0.000000 0.000000 -0.523702 0.000000 0.000000
# 5 0.000000 0.000000 0.000000 0.000000 0.093653 0.000000
# 6 0.000000 0.000000 0.000000 0.000000 0.000000 0.028794
#
#
# Mechanical properties :
#
#
# Convention : Reuss Voigt Hill
#
# Bulk Modulus (GPa) = 29.40306 38.92605 34.16455
# Shear Modulus (GPa) = -14.89345 22.93747 4.02201
#
# Velocity S-wave (km/s) = -2.84178 3.52668 1.47678
# Velocity P-wave (km/s) = 2.27501 6.13924 4.62958
#
# Compressibility (1/GPa) = 0.03401007
#
# Stress axis : x y z
#
# Youngs Moduli (GPa) = 52.88893 64.54798 103.03744
#
# Poissons Ratio (x) = -0.21547 0.41037
# Poissons Ratio (y) = -0.17655 0.45367
# Poissons Ratio (z) = 0.21064 0.28420
#
# Static dielectric constant tensor:
#      x y z
#    x 1.050950 0.000000 0.000000 
#    y 0.000000 1.680190 0.000000 
#    z 0.000000 0.000000 1.735170 
# 
# From -- ./inp_files/47993.got.cif
#   From: 2010.05.17/outbox.cif.g08.bks.cpg/sg72_24_cif.got.tgz:47993.got - 2010.06.03 17:03:01.
