data_PCOD9529309
_publ_section_title
;
Structure prediction by ZEFSAII (Michael W. Deem and Ramdas Pophale) SiO2 
 PCOD9529309
Probable space group: I B A M
;
_chemical_formula_sum "Si O2"
_cell_formula_units_Z 64
_cell_length_a 10.285440
_cell_length_b 8.821918
_cell_length_c 31.929535
_cell_angle_alpha 90.000000
_cell_angle_beta 90.000000
_cell_angle_gamma 90.000000
_cell_volume 2897.200060
_symmetry_space_group_name_H-M "I B A M"
_symmetry_group_IT_number 72
_symmetry_cell_setting 'orthorhombic'
loop_
_space_group_symop_operation_xyz
x,y,z
-x,-y,z
x,-y,1/2-z
-x,y,1/2-z
-x,-y,-z
x,y,-z
-x,y,1/2+z
x,-y,1/2+z
1/2+x,1/2+y,1/2+z
1/2-x,1/2-y,1/2+z
1/2+x,1/2-y,-z
1/2-x,1/2+y,-z
1/2-x,1/2-y,1/2-z
1/2+x,1/2+y,1/2-z
1/2-x,1/2+y,z
1/2+x,1/2-y,z
loop_
_atom_site_type_symbol
_atom_site_label
_atom_site_fract_x
_atom_site_fract_y
_atom_site_fract_z
Si Si1 0.346101 0.480374 0.046353
Si Si2 0.759593 0.735990 0.601130
Si Si3 0.374265 0.329374 0.268888
Si Si4 0.979751 0.324864 0.348497
O O1 0.500000 0.500000 0.045989
O O2 0.290988 0.574789 0.085393
O O3 0.314671 0.310182 0.059048
O O4 0.295889 0.518269 0.000000
O O5 0.630699 0.825582 0.615918
O O6 0.878860 0.728971 0.634572
O O7 0.369705 0.500000 0.250000
O O8 0.500000 0.249192 0.250000
O O9 0.250000 0.250000 0.250000
O O10 0.408657 0.296923 0.317173
O O11 0.000000 0.500000 0.332993
#
# Coordination Sequence:
#
# PCOD9529309 Si02
#       4
#    16  16  16  16
#     4  11  24  43  69 105 151 198 245 308 369 434
#     4  12  24  46  71 108 145 191 252 297 368 440
#     4  11  28  49  74 107 144 187 241 300 376 450
#     4  12  27  45  77 106 147 191 242 307 372 447
#
# _framework density 22.090292999999999
#
# number of rings (size 3 to 8) (size 9 to 14) (size 15 to 20)
#    0.000    0.500    5.000    2.250    7.000    4.000 
#    0.000    1.250    0.000    0.000    0.000    0.000 
#    0.000    0.000    0.000    0.000    0.000    0.000 
#
# Total GULP energy -178222.655328 kJ/mol
# GULP energy per Si atom -5569.457979 kJ/mol
# Density = 2.204001 g / cm^3
# Si number density = 22.090293 Si / 1000 Ang^3
#
#
#
# Elastic Constant Matrix: (Units=GPa)
#
#
# Indices 1 2 3 4 5 6 
#
# 1 155.9872 26.7571 27.1422 0.0000 0.0000 0.0000
# 2 26.7571 83.2397 18.8205 0.0000 0.0000 0.0000
# 3 27.1422 18.8205 73.9196 0.0000 0.0000 0.0000
# 4 0.0000 0.0000 0.0000 11.0510 0.0000 0.0000
# 5 0.0000 0.0000 0.0000 0.0000 -36.1901 0.0000
# 6 0.0000 0.0000 0.0000 0.0000 0.0000 12.1825
#
#
#
# Elastic Compliance Matrix: (Units=1/GPa)
#
#
# Indices 1 2 3 4 5 6 
#
# 1 0.007092 -0.001794 -0.002147 0.000000 0.000000 0.000000
# 2 -0.001794 0.013201 -0.002702 0.000000 0.000000 0.000000
# 3 -0.002147 -0.002702 0.015005 0.000000 0.000000 0.000000
# 4 0.000000 0.000000 0.000000 0.090489 0.000000 0.000000
# 5 0.000000 0.000000 0.000000 0.000000 -0.027632 0.000000
# 6 0.000000 0.000000 0.000000 0.000000 0.000000 0.082085
#
#
# Mechanical properties :
#
#
# Convention : Reuss Voigt Hill
#
# Bulk Modulus (GPa) = 45.43313 50.95402 48.19357
# Shear Modulus (GPa) = 24.89232 13.43713 19.16473
#
# Velocity S-wave (km/s) = 3.36049 2.46901 2.94864
# Velocity P-wave (km/s) = 5.97234 5.58967 5.78417
#
# Compressibility (1/GPa) = 0.02201037
#
# Stress axis : x y z
#
# Youngs Moduli (GPa) = 141.00000 75.75042 66.64571
#
# Poissons Ratio (x) = 0.13592 0.14311
# Poissons Ratio (y) = 0.25299 0.18010
# Poissons Ratio (z) = 0.30277 0.20470
#
# Static dielectric constant tensor:
#      x y z
#    x 1.793340 0.000000 0.000000 
#    y 0.000000 1.717620 0.000000 
#    z 0.000000 0.000000 2.012790 
# 
# From -- ./inp_files/50583.got.cif
#   From: 2010.05.17/outbox.cif.g08.bks.cpg/sg72_26_cif.got.tgz:50583.got - 2010.06.03 17:03:01.
