data_PCOD9529423
_publ_section_title
;
Structure prediction by ZEFSAII (Michael W. Deem and Ramdas Pophale) SiO2 
 PCOD9529423
Probable space group: I B A M
;
_chemical_formula_sum "Si O2"
_cell_formula_units_Z 68
_cell_length_a 23.855521
_cell_length_b 5.387044
_cell_length_c 21.354812
_cell_angle_alpha 90.000000
_cell_angle_beta 90.000000
_cell_angle_gamma 90.000000
_cell_volume 2744.322720
_symmetry_space_group_name_H-M "I B A M"
_symmetry_group_IT_number 72
_symmetry_cell_setting 'orthorhombic'
loop_
_space_group_symop_operation_xyz
x,y,z
-x,-y,z
x,-y,1/2-z
-x,y,1/2-z
-x,-y,-z
x,y,-z
-x,y,1/2+z
x,-y,1/2+z
1/2+x,1/2+y,1/2+z
1/2-x,1/2-y,1/2+z
1/2+x,1/2-y,-z
1/2-x,1/2+y,-z
1/2-x,1/2-y,1/2-z
1/2+x,1/2+y,1/2-z
1/2-x,1/2+y,z
1/2+x,1/2-y,z
loop_
_atom_site_type_symbol
_atom_site_label
_atom_site_fract_x
_atom_site_fract_y
_atom_site_fract_z
Si Si1 0.226255 0.752534 0.903275
Si Si2 0.188576 0.250093 0.209356
Si Si3 0.500000 0.000000 0.750000
Si Si4 0.428263 0.765445 0.141499
Si Si5 0.093363 0.233598 0.425342
O O1 0.248062 0.499015 0.932685
O O2 0.256840 0.746921 0.835023
O O3 0.159242 0.763645 0.904967
O O4 0.185133 0.500000 0.250000
O O5 0.136107 0.258424 0.163402
O O6 0.183386 0.000000 0.250000
O O7 0.463534 0.827018 0.796174
O O8 0.436107 0.500559 0.108212
O O9 0.432883 0.005380 0.096649
O O10 0.090995 0.206993 0.500000
#
# Coordination Sequence:
#
# PCOD9529423 Si02
#       5
#    16  16   4  16  16
#     4  12  23  41  65 109 149 205 251 287 356 439
#     4  12  24  42  67 105 162 201 245 300 371 456
#     4  12  32  54  90 110 156 174 252 336 404 476
#     4  12  27  52  76 117 144 200 251 320 400 438
#     4  12  27  52  77 109 159 205 257 304 359 454
#
# _framework density 24.778426
#
# number of rings (size 3 to 8) (size 9 to 14) (size 15 to 20)
#    0.000    0.000    5.882    3.529    0.000    5.647 
#    6.353    3.529    0.000    0.000    0.000    0.000 
#    0.000    0.000    0.000    0.000    0.000    0.000 
#
# Total GULP energy -190507.771522 kJ/mol
# GULP energy per Si atom -5603.169751 kJ/mol
# Density = 2.472203 g / cm^3
# Si number density = 24.778426 Si / 1000 Ang^3
#
#
#
# Elastic Constant Matrix: (Units=GPa)
#
#
# Indices 1 2 3 4 5 6 
#
# 1 101.9967 22.6653 8.5942 0.0000 0.0000 0.0000
# 2 22.6653 237.9780 71.8396 0.0000 0.0000 0.0000
# 3 8.5942 71.8396 112.0809 0.0000 0.0000 0.0000
# 4 0.0000 0.0000 0.0000 -4.8941 0.0000 0.0000
# 5 0.0000 0.0000 0.0000 0.0000 -13.3352 0.0000
# 6 0.0000 0.0000 0.0000 0.0000 0.0000 -17.5637
#
#
#
# Elastic Compliance Matrix: (Units=1/GPa)
#
#
# Indices 1 2 3 4 5 6 
#
# 1 0.010020 -0.000896 -0.000194 0.000000 0.000000 0.000000
# 2 -0.000896 0.005290 -0.003322 0.000000 0.000000 0.000000
# 3 -0.000194 -0.003322 0.011066 0.000000 0.000000 0.000000
# 4 0.000000 0.000000 0.000000 -0.204326 0.000000 0.000000
# 5 0.000000 0.000000 0.000000 0.000000 -0.074990 0.000000
# 6 0.000000 0.000000 0.000000 0.000000 0.000000 -0.056936
#
#
# Mechanical properties :
#
#
# Convention : Reuss Voigt Hill
#
# Bulk Modulus (GPa) = 56.97286 73.13929 65.05607
# Shear Modulus (GPa) = -16.93766 16.10517 -0.41624
#
# Velocity S-wave (km/s) = -2.61734 2.55221 -0.41031
# Velocity P-wave (km/s) = 3.72946 6.18599 5.10761
#
# Compressibility (1/GPa) = 0.01755222
#
# Stress axis : x y z
#
# Youngs Moduli (GPa) = 99.80408 189.02686 90.36362
#
# Poissons Ratio (x) = 0.16930 0.01755
# Poissons Ratio (y) = 0.08939 0.30020
# Poissons Ratio (z) = 0.01938 0.62798
#
# Static dielectric constant tensor:
#      x y z
#    x 1.945970 0.000000 0.000000 
#    y 0.000000 2.022830 0.000000 
#    z 0.000000 0.000000 1.954990 
# 
# From -- ./inp_files/40600.got.cif
#   From: 2010.05.17/outbox.cif.g08.bks.cpg/sg72_21_cif.got.tgz:40600.got - 2010.06.03 17:03:01.
