data_PCOD9529083
_publ_section_title
;
Structure prediction by ZEFSAII (Michael W. Deem and Ramdas Pophale) SiO2 
 PCOD9529083
Probable space group: I B A M
;
_chemical_formula_sum "Si O2"
_cell_formula_units_Z 96
_cell_length_a 14.384853
_cell_length_b 14.191684
_cell_length_c 26.336956
_cell_angle_alpha 90.000000
_cell_angle_beta 90.000000
_cell_angle_gamma 90.000000
_cell_volume 5376.565472
_symmetry_space_group_name_H-M "I B A M"
_symmetry_group_IT_number 72
_symmetry_cell_setting 'orthorhombic'
loop_
_space_group_symop_operation_xyz
x,y,z
-x,-y,z
x,-y,1/2-z
-x,y,1/2-z
-x,-y,-z
x,y,-z
-x,y,1/2+z
x,-y,1/2+z
1/2+x,1/2+y,1/2+z
1/2-x,1/2-y,1/2+z
1/2+x,1/2-y,-z
1/2-x,1/2+y,-z
1/2-x,1/2-y,1/2-z
1/2+x,1/2+y,1/2-z
1/2-x,1/2+y,z
1/2+x,1/2-y,z
loop_
_atom_site_type_symbol
_atom_site_label
_atom_site_fract_x
_atom_site_fract_y
_atom_site_fract_z
Si Si1 0.432391 0.720597 0.901580
Si Si2 0.356705 0.061472 0.000000
Si Si3 0.775609 0.941229 0.903962
Si Si4 0.577094 0.417226 0.556551
Si Si5 0.438362 0.148658 0.500000
Si Si6 0.988744 0.342800 0.306255
Si Si7 0.843953 0.516678 0.693916
O O1 0.347403 0.646178 0.898421
O O2 0.527192 0.663921 0.912767
O O3 0.417126 0.790706 0.949390
O O4 0.452979 0.774412 0.849655
O O5 0.297124 0.080978 0.949170
O O6 0.452537 0.119877 0.000000
O O7 0.383715 0.950407 0.000000
O O8 0.727314 0.970889 0.851626
O O9 0.833519 0.032611 0.921384
O O10 0.500000 0.500000 0.553315
O O11 0.596664 0.382279 0.500000
O O12 0.088461 0.393048 0.312908
O O13 0.000000 0.299631 0.250000
O O14 0.914162 0.427991 0.307953
O O15 0.800661 0.500000 0.750000
#
# Coordination Sequence:
#
# PCOD9529083 Si02
#       7
#    16   8  16  16   8  16  16
#     4  11  21  38  58  86 118 146 189 236 284 338
#     4  11  23  39  58  83 118 155 190 227 279 342
#     4  11  21  38  58  86 118 146 189 236 284 338
#     4   9  18  36  58  75 112 160 182 216 285 349
#     4  11  23  39  58  83 118 155 190 227 279 342
#     4   9  19  40  63  81 111 153 190 229 285 339
#     4   9  19  40  63  81 111 153 190 229 285 339
#
# _framework density 17.855264999999999
#
# number of rings (size 3 to 8) (size 9 to 14) (size 15 to 20)
#    0.000    2.000    1.667    3.500    0.000    2.667 
#   18.000    1.667    0.000    0.000    0.000    0.000 
#    0.000    0.000    0.000    0.000    0.000    0.000 
#
# Total GULP energy -267532.450457 kJ/mol
# GULP energy per Si atom -5573.592718 kJ/mol
# Density = 1.781463 g / cm^3
# Si number density = 17.855265 Si / 1000 Ang^3
#
#
#
# Elastic Constant Matrix: (Units=GPa)
#
#
# Indices 1 2 3 4 5 6 
#
# 1 80.1604 8.8966 58.8949 0.0000 0.0000 0.0000
# 2 8.8966 44.6989 33.6225 0.0000 0.0000 0.0000
# 3 58.8949 33.6225 151.8633 0.0000 0.0000 0.0000
# 4 0.0000 0.0000 0.0000 17.0006 0.0000 0.0000
# 5 0.0000 0.0000 0.0000 0.0000 28.6243 0.0000
# 6 0.0000 0.0000 0.0000 0.0000 0.0000 20.5143
#
#
#
# Elastic Compliance Matrix: (Units=1/GPa)
#
#
# Indices 1 2 3 4 5 6 
#
# 1 0.017587 0.001956 -0.007254 0.000000 0.000000 0.000000
# 2 0.001956 0.027060 -0.006749 0.000000 0.000000 0.000000
# 3 -0.007254 -0.006749 0.010892 0.000000 0.000000 0.000000
# 4 0.000000 0.000000 0.000000 0.058821 0.000000 0.000000
# 5 0.000000 0.000000 0.000000 0.000000 0.034935 0.000000
# 6 0.000000 0.000000 0.000000 0.000000 0.000000 0.048747
#
#
# Mechanical properties :
#
#
# Convention : Reuss Voigt Hill
#
# Bulk Modulus (GPa) = 31.80211 53.28338 42.54275
# Shear Modulus (GPa) = 21.49442 24.91508 23.20475
#
# Velocity S-wave (km/s) = 3.47337 3.73955 3.60891
# Velocity P-wave (km/s) = 5.82541 6.96794 6.42214
#
# Compressibility (1/GPa) = 0.03144445
#
# Stress axis : x y z
#
# Youngs Moduli (GPa) = 56.85942 36.95543 91.80839
#
# Poissons Ratio (x) = -0.07227 0.66594
# Poissons Ratio (y) = -0.11120 0.61966
# Poissons Ratio (z) = 0.41243 0.24943
#
# Static dielectric constant tensor:
#      x y z
#    x 1.608700 0.000000 0.000000 
#    y 0.000000 1.608970 0.000000 
#    z 0.000000 0.000000 1.627850 
# 
# From -- ./inp_files/44291.got.cif
#   From: 2010.05.17/outbox.cif.g08.bks.cpg/sg72_23_cif.got.tgz:44291.got - 2010.06.03 17:03:01.
