data_PCOD9529357
_publ_section_title
;
Structure prediction by ZEFSAII (Michael W. Deem and Ramdas Pophale) SiO2 
 PCOD9529357
Probable space group: I B A M
;
_chemical_formula_sum "Si O2"
_cell_formula_units_Z 68
_cell_length_a 17.882002
_cell_length_b 9.790775
_cell_length_c 16.116547
_cell_angle_alpha 90.000000
_cell_angle_beta 90.000000
_cell_angle_gamma 90.000000
_cell_volume 2821.663422
_symmetry_space_group_name_H-M "I B A M"
_symmetry_group_IT_number 72
_symmetry_cell_setting 'orthorhombic'
loop_
_space_group_symop_operation_xyz
x,y,z
-x,-y,z
x,-y,1/2-z
-x,y,1/2-z
-x,-y,-z
x,y,-z
-x,y,1/2+z
x,-y,1/2+z
1/2+x,1/2+y,1/2+z
1/2-x,1/2-y,1/2+z
1/2+x,1/2-y,-z
1/2-x,1/2+y,-z
1/2-x,1/2-y,1/2-z
1/2+x,1/2+y,1/2-z
1/2-x,1/2+y,z
1/2+x,1/2-y,z
loop_
_atom_site_type_symbol
_atom_site_label
_atom_site_fract_x
_atom_site_fract_y
_atom_site_fract_z
Si Si1 0.664993 0.280815 0.174698
Si Si2 0.000000 0.500000 0.250000
Si Si3 0.512957 0.351827 0.904707
Si Si4 0.743329 0.983589 0.594898
Si Si5 0.382451 0.819885 0.349337
O O1 0.579387 0.275261 0.142554
O O2 0.696675 0.429484 0.148466
O O3 0.660870 0.250847 0.272568
O O4 0.712442 0.159420 0.130990
O O5 0.055360 0.586212 0.193434
O O6 0.500000 0.500000 0.865995
O O7 0.431983 0.283262 0.901394
O O8 0.537745 0.365603 0.000000
O O9 0.768832 0.965664 0.500000
O O10 0.672734 0.086106 0.599063
#
# Coordination Sequence:
#
# PCOD9529357 Si02
#       5
#    16   4  16  16  16
#     4  12  26  47  72 103 145 186 237 288 353 426
#     4  12  20  44  68 100 132 176 236 294 344 420
#     4  11  25  46  74 107 142 182 235 297 361 423
#     4  12  26  45  70 103 143 190 237 290 354 421
#     4  12  23  45  72 102 139 184 239 296 352 418
#
# _framework density 24.099259
#
# number of rings (size 3 to 8) (size 9 to 14) (size 15 to 20)
#    0.000    0.235    4.706    3.529    3.294    1.882 
#    0.000    3.529    0.000    0.000    0.000    0.000 
#    0.000    0.000    0.000    0.000    0.000    0.000 
#
# Total GULP energy -190475.467443 kJ/mol
# GULP energy per Si atom -5602.219631 kJ/mol
# Density = 2.404441 g / cm^3
# Si number density = 24.099259 Si / 1000 Ang^3
#
#
#
# Elastic Constant Matrix: (Units=GPa)
#
#
# Indices 1 2 3 4 5 6 
#
# 1 87.7960 37.2573 29.0116 0.0000 0.0000 0.0000
# 2 37.2573 113.7519 34.9676 0.0000 0.0000 0.0000
# 3 29.0116 34.9676 105.8075 0.0000 0.0000 0.0000
# 4 0.0000 0.0000 0.0000 -192.5434 0.0000 0.0000
# 5 0.0000 0.0000 0.0000 0.0000 30.0170 0.0000
# 6 0.0000 0.0000 0.0000 0.0000 0.0000 48.0924
#
#
#
# Elastic Compliance Matrix: (Units=1/GPa)
#
#
# Indices 1 2 3 4 5 6 
#
# 1 0.013822 -0.003742 -0.002553 0.000000 0.000000 0.000000
# 2 -0.003742 0.010798 -0.002543 0.000000 0.000000 0.000000
# 3 -0.002553 -0.002543 0.010991 0.000000 0.000000 0.000000
# 4 0.000000 0.000000 0.000000 -0.005194 0.000000 0.000000
# 5 0.000000 0.000000 0.000000 0.000000 0.033314 0.000000
# 6 0.000000 0.000000 0.000000 0.000000 0.000000 0.020793
#
#
# Mechanical properties :
#
#
# Convention : Reuss Voigt Hill
#
# Bulk Modulus (GPa) = 55.75454 56.64762 56.20108
# Shear Modulus (GPa) = 46.21925 -9.14553 18.53686
#
# Velocity S-wave (km/s) = 4.38410 -1.95017 2.77643
# Velocity P-wave (km/s) = 6.98661 4.29954 5.80081
#
# Compressibility (1/GPa) = 0.01793576
#
# Stress axis : x y z
#
# Youngs Moduli (GPa) = 72.34975 92.60668 90.97985
#
# Poissons Ratio (x) = 0.34656 0.23228
# Poissons Ratio (y) = 0.27075 0.23132
# Poissons Ratio (z) = 0.18471 0.23546
#
# Static dielectric constant tensor:
#      x y z
#    x 1.918430 0.000000 0.000000 
#    y 0.000000 1.965150 0.000000 
#    z 0.000000 0.000000 1.841640 
# 
# From -- ./inp_files/32297.got.cif
#   From: 2010.05.17/outbox.cif.g08.bks.cpg/sg72_17_cif.got.tgz:32297.got - 2010.06.03 17:03:01.
