data_PCOD9529512
_publ_section_title
;
Structure prediction by ZEFSAII (Michael W. Deem and Ramdas Pophale) SiO2 
 PCOD9529512
Probable space group: I B A M
;
_chemical_formula_sum "Si O2"
_cell_formula_units_Z 58
_cell_length_a 27.000000
_cell_length_b 24.000000
_cell_length_c 9.000000
_cell_angle_alpha 90.000000
_cell_angle_beta 90.000000
_cell_angle_gamma 90.000000
_cell_volume 5832.000000
_symmetry_space_group_name_H-M "I B A M"
_symmetry_group_IT_number 72
_symmetry_cell_setting 'orthorhombic'
loop_
_space_group_symop_operation_xyz
x,y,z
-x,-y,z
x,-y,1/2-z
-x,y,1/2-z
-x,-y,-z
x,y,-z
-x,y,1/2+z
x,-y,1/2+z
1/2+x,1/2+y,1/2+z
1/2-x,1/2-y,1/2+z
1/2+x,1/2-y,-z
1/2-x,1/2+y,-z
1/2-x,1/2-y,1/2-z
1/2+x,1/2+y,1/2-z
1/2-x,1/2+y,z
1/2+x,1/2-y,z
loop_
_atom_site_type_symbol
_atom_site_label
_atom_site_fract_x
_atom_site_fract_y
_atom_site_fract_z
Si Si1 0.644351 0.865952 0.321224
Si Si2 0.733103 0.058553 0.175509
Si Si3 0.696000 0.249690 0.178048
Si Si4 0.921818 0.906972 0.163485
Si Si5 0.552889 0.298086 0.674833
Si Si6 0.000000 0.000000 0.250000
Si Si7 0.183415 0.875056 0.671807
Si Si8 0.946298 0.676166 0.322520
O O1 0.638995 0.864992 0.500000
O O2 0.680398 0.916051 0.278721
O O3 0.670310 0.807719 0.274653
O O4 0.591720 0.867681 0.243347
O O5 0.774137 0.103082 0.223045
O O6 0.743627 0.000000 0.250000
O O7 0.733566 0.052112 0.000000
O O8 0.750000 0.250000 0.250000
O O9 0.671119 0.310293 0.210252
O O10 0.700121 0.246666 0.000000
O O11 0.928714 0.858875 0.282364
O O12 0.863276 0.917370 0.177405
O O13 0.928852 0.880962 0.000000
O O14 0.960820 0.957188 0.174693
O O15 0.500000 0.296721 0.750000
O O16 0.549204 0.296048 0.500000
O O17 0.574489 0.238156 0.720785
O O18 0.200344 0.874693 0.500000
O O19 0.949604 0.672836 0.500000
O O20 0.000000 0.670584 0.250000
#
# Coordination Sequence:
#
# PCOD9529512 Si02
#       8
#    16  16  16  16  16   4  16  16
#     4  10  21  38  61  90 125 163 200 246 302 361
#     4  11  24  42  63  88 120 160 205 249 297 358
#     4  10  19  34  58  89 124 157 195 247 308 373
#     4  11  24  41  59  79 110 150 199 259 317 366
#     4  10  20  35  56  82 113 150 192 238 291 355
#     4  12  26  40  60  86 110 148 218 272 326 368
#     4  10  22  39  61  88 118 157 200 252 315 374
#     4  10  21  36  59  92 125 158 195 238 291 356
#
# _framework density 9.9451300000000007
#
# number of rings (size 3 to 8) (size 9 to 14) (size 15 to 20)
#    0.000    1.655    2.069    2.276    0.966    5.517 
#    0.000    0.000    0.000    0.414    0.000    2.897 
#    0.000    0.000    0.000    0.000    0.000    0.000 
#
# Total GULP energy -323057.675112 kJ/mol
# GULP energy per Si atom -5569.959916 kJ/mol
# Density = 0.992249 g / cm^3
# Si number density = 9.945130 Si / 1000 Ang^3
#
#
#
# Elastic Constant Matrix: (Units=GPa)
#
#
# Indices 1 2 3 4 5 6 
#
# 1 42.2263 -3.0089 7.3540 0.0000 0.0000 0.0000
# 2 -3.0089 29.4057 5.8562 0.0000 0.0000 0.0000
# 3 7.3540 5.8562 -2.5349 0.0000 0.0000 0.0000
# 4 0.0000 0.0000 0.0000 24.1864 0.0000 0.0000
# 5 0.0000 0.0000 0.0000 0.0000 17.9941 0.0000
# 6 0.0000 0.0000 0.0000 0.0000 0.0000 32.8445
#
#
#
# Elastic Compliance Matrix: (Units=1/GPa)
#
#
# Indices 1 2 3 4 5 6 
#
# 1 0.016947 -0.005518 0.036416 0.000000 0.000000 0.000000
# 2 -0.005518 0.025088 0.041950 0.000000 0.000000 0.000000
# 3 0.036416 0.041950 -0.191933 0.000000 0.000000 0.000000
# 4 0.000000 0.000000 0.000000 0.041346 0.000000 0.000000
# 5 0.000000 0.000000 0.000000 0.000000 0.055574 0.000000
# 6 0.000000 0.000000 0.000000 0.000000 0.000000 0.030446
#
#
# Mechanical properties :
#
#
# Convention : Reuss Voigt Hill
#
# Bulk Modulus (GPa) = -237.88556 9.94439 -113.97058
# Shear Modulus (GPa) = -29.47603 18.93140 -5.27232
#
# Velocity S-wave (km/s) = -3.85376 3.08846 -1.62986
# Velocity P-wave (km/s) = 11.81781 4.21053 7.80807
#
# Compressibility (1/GPa) = -0.00420370
#
# Stress axis : x y z
#
# Youngs Moduli (GPa) = 59.00837 39.85976 -5.21014
#
# Poissons Ratio (x) = 0.21995 0.18973
# Poissons Ratio (y) = 0.32562 0.21857
# Poissons Ratio (z) = -2.14882 -1.67212
#
# Static dielectric constant tensor:
#      x y z
#    x 1.753130 0.000000 0.000000 
#    y 0.000000 1.731530 0.000000 
#    z 0.000000 0.000000 1.676120 
# 
# From -- ./inp_files/7256.got.cif
#   From: 2010.05.17/outbox.ucp.g08.bks.cvg/sg72_4_cif.got.tgz:7256.got - 2010.06.11 16:33:07.
