data_PCOD9530917
_publ_section_title
;
Structure prediction by ZEFSAII (Michael W. Deem and Ramdas Pophale) SiO2 
 PCOD9530917
Probable space group: I B C A 
;
_chemical_formula_sum "Si O2"
_cell_formula_units_Z 104
_cell_length_a 19.666399
_cell_length_b 17.194982
_cell_length_c 16.477920
_cell_angle_alpha 90.000000
_cell_angle_beta 90.000000
_cell_angle_gamma 90.000000
_cell_volume 5572.229070
_symmetry_space_group_name_H-M "I B C A "
_symmetry_group_IT_number 73
_symmetry_cell_setting 'orthorhombic'
loop_
_space_group_symop_operation_xyz
x,y,z
-x,1/2-y,z
x,-y,1/2-z
1/2-x,y,-z
-x,-y,-z
x,1/2+y,-z
-x,y,1/2+z
1/2+x,-y,z
1/2+x,1/2+y,1/2+z
1/2-x,-y,1/2+z
1/2+x,1/2-y,-z
-x,1/2+y,1/2-z
1/2-x,1/2-y,1/2-z
1/2+x,y,1/2-z
1/2-x,1/2+y,z
x,1/2-y,1/2+z
loop_
_atom_site_type_symbol
_atom_site_label
_atom_site_fract_x
_atom_site_fract_y
_atom_site_fract_z
Si Si1 0.438402 0.595232 0.063756
Si Si2 0.500000 0.250000 0.869332
Si Si3 0.052929 0.814142 0.709154
Si Si4 0.705531 0.678226 0.275226
Si Si5 0.778868 0.924042 0.912415
Si Si6 0.955653 0.529650 0.616278
Si Si7 0.687612 0.542310 0.163055
O O1 0.460212 0.684016 0.081476
O O2 0.359819 0.581617 0.085657
O O3 0.484769 0.533761 0.113294
O O4 0.451413 0.574028 0.969827
O O5 0.546416 0.201858 0.805465
O O6 0.131664 0.801659 0.687995
O O7 0.036148 0.902368 0.683236
O O8 0.000000 0.750000 0.673747
O O9 0.750000 0.750000 0.250000
O O10 0.746664 0.629416 0.342379
O O11 0.693155 0.630050 0.192159
O O12 0.748436 0.009471 0.891863
O O13 0.750000 0.900636 0.000000
O O14 0.884253 0.484749 0.627078
O O15 0.691648 0.500000 0.250000
#
# Coordination Sequence:
#
# PCOD9530917 Si02
#       7
#    16   8  16  16  16  16  16
#     4  11  24  39  64  97 123 167 213 272 320 382
#     4  10  24  38  60  96 130 154 210 272 320 368
#     4  10  22  40  61  93 125 170 210 260 322 380
#     4  11  22  39  63  93 128 163 208 257 320 377
#     4  11  21  41  63  87 124 165 210 258 317 374
#     4  11  22  42  66  89 125 172 218 256 318 389
#     4  10  20  39  66  84 119 172 205 254 309 386
#
# _framework density 18.663986000000001
#
# number of rings (size 3 to 8) (size 9 to 14) (size 15 to 20)
#    0.462    0.923    4.615    1.846    1.077    1.231 
#    5.538    0.769    0.000    0.000    0.000    0.000 
#    0.000    0.000    0.000    0.000    0.000    0.000 
#
# Total GULP energy -289894.274627 kJ/mol
# GULP energy per Si atom -5574.889897 kJ/mol
# Density = 1.862151 g / cm^3
# Si number density = 18.663986 Si / 1000 Ang^3
#
#
#
# Elastic Constant Matrix: (Units=GPa)
#
#
# Indices 1 2 3 4 5 6 
#
# 1 169.3759 84.9145 36.7877 0.0000 0.0000 0.0000
# 2 84.9145 145.7511 50.0481 0.0000 0.0000 0.0000
# 3 36.7877 50.0481 74.1010 0.0000 0.0000 0.0000
# 4 0.0000 0.0000 0.0000 34.7906 0.0000 0.0000
# 5 0.0000 0.0000 0.0000 0.0000 29.2712 0.0000
# 6 0.0000 0.0000 0.0000 0.0000 0.0000 28.9079
#
#
#
# Elastic Compliance Matrix: (Units=1/GPa)
#
#
# Indices 1 2 3 4 5 6 
#
# 1 0.008412 -0.004513 -0.001128 0.000000 0.000000 0.000000
# 2 -0.004513 0.011354 -0.005428 0.000000 0.000000 0.000000
# 3 -0.001128 -0.005428 0.017721 0.000000 0.000000 0.000000
# 4 0.000000 0.000000 0.000000 0.028743 0.000000 0.000000
# 5 0.000000 0.000000 0.000000 0.000000 0.034163 0.000000
# 6 0.000000 0.000000 0.000000 0.000000 0.000000 0.034593
#
#
# Mechanical properties :
#
#
# Convention : Reuss Voigt Hill
#
# Bulk Modulus (GPa) = 65.15142 81.41427 73.28285
# Shear Modulus (GPa) = 30.81829 33.09244 31.95537
#
# Velocity S-wave (km/s) = 4.06793 4.21534 4.14229
# Velocity P-wave (km/s) = 7.55297 8.21023 7.88845
#
# Compressibility (1/GPa) = 0.01534886
#
# Stress axis : x y z
#
# Youngs Moduli (GPa) = 118.88198 88.07113 56.42996
#
# Poissons Ratio (x) = 0.39750 0.06363
# Poissons Ratio (y) = 0.53657 0.30631
# Poissons Ratio (z) = 0.13405 0.47806
#
# Static dielectric constant tensor:
#      x y z
#    x 1.657250 0.000000 0.000000 
#    y 0.000000 1.573230 0.000000 
#    z 0.000000 0.000000 1.666010 
# 
# From -- ./inp_files/22620.got.cif
#   From: 2010.05.17/outbox.cif.g08.bks.cpg/sg73_12_cif.got.tgz:22620.got - 2010.06.03 17:35:07.
