data_PCOD9530085
_publ_section_title
;
Structure prediction by ZEFSAII (Michael W. Deem and Ramdas Pophale) SiO2 
 PCOD9530085
Probable space group: I B C A 
;
_chemical_formula_sum "Si O2"
_cell_formula_units_Z 120
_cell_length_a 11.649085
_cell_length_b 28.665001
_cell_length_c 18.554349
_cell_angle_alpha 90.000000
_cell_angle_beta 90.000000
_cell_angle_gamma 90.000000
_cell_volume 6195.687388
_symmetry_space_group_name_H-M "I B C A "
_symmetry_group_IT_number 73
_symmetry_cell_setting 'orthorhombic'
loop_
_space_group_symop_operation_xyz
x,y,z
-x,1/2-y,z
x,-y,1/2-z
1/2-x,y,-z
-x,-y,-z
x,1/2+y,-z
-x,y,1/2+z
1/2+x,-y,z
1/2+x,1/2+y,1/2+z
1/2-x,-y,1/2+z
1/2+x,1/2-y,-z
-x,1/2+y,1/2-z
1/2-x,1/2-y,1/2-z
1/2+x,y,1/2-z
1/2-x,1/2+y,z
x,1/2-y,1/2+z
loop_
_atom_site_type_symbol
_atom_site_label
_atom_site_fract_x
_atom_site_fract_y
_atom_site_fract_z
Si Si1 0.549623 0.350384 0.732118
Si Si2 0.887805 0.390356 0.011488
Si Si3 0.609655 0.281148 0.012390
Si Si4 0.569402 0.429465 0.138415
Si Si5 0.037459 0.500000 0.750000
Si Si6 0.161942 0.239682 0.338742
Si Si7 0.102408 0.286515 0.193644
Si Si8 0.163502 0.583116 0.831860
O O1 0.496235 0.387028 0.677372
O O2 0.592894 0.305257 0.689304
O O3 0.456674 0.335652 0.792889
O O4 0.651010 0.372986 0.778456
O O5 0.917895 0.335381 0.003810
O O6 0.945417 0.421468 0.947992
O O7 0.750000 0.392359 0.000000
O O8 0.903803 0.407887 0.093192
O O9 0.500000 0.250000 0.982693
O O10 0.610312 0.268035 0.096123
O O11 0.750000 0.275115 0.000000
O O12 0.530617 0.474878 0.184128
O O13 0.704528 0.424627 0.150854
O O14 0.112042 0.539752 0.788491
O O15 0.157458 0.274682 0.271503
O O16 0.290337 0.222007 0.357602
O O17 0.000000 0.250000 0.179907
#
# Coordination Sequence:
#
# PCOD9530085 Si02
#       8
#    16  16  16  16   8  16  16  16
#     4  10  19  32  54  79 108 146 187 231 279 325
#     4   9  20  36  58  81 110 150 186 224 275 335
#     4  11  23  37  54  78 112 156 199 237 276 328
#     4  10  19  36  57  80 110 141 176 222 279 342
#     4  10  22  36  60  86 106 134 170 228 288 340
#     4  10  19  32  50  74 108 148 192 235 279 324
#     4   9  18  29  47  75 105 140 184 235 278 320
#     4  10  21  37  56  83 109 137 180 227 280 344
#
# _framework density 19.368312
#
# number of rings (size 3 to 8) (size 9 to 14) (size 15 to 20)
#    0.000    2.133    0.000    4.000    0.000   10.667 
#    0.000    0.000    0.000    1.600    0.000    1.867 
#    0.000    0.000    0.000    0.000    0.000    0.000 
#
# Total GULP energy -334021.725803 kJ/mol
# GULP energy per Si atom -5567.028763 kJ/mol
# Density = 1.932423 g / cm^3
# Si number density = 19.368312 Si / 1000 Ang^3
#
#
#
# Elastic Constant Matrix: (Units=GPa)
#
#
# Indices 1 2 3 4 5 6 
#
# 1 73.8919 5.9879 12.6069 0.0000 0.0000 0.0000
# 2 5.9879 67.6727 34.7871 0.0000 0.0000 0.0000
# 3 12.6069 34.7871 110.6412 0.0001 0.0000 0.0000
# 4 0.0000 0.0000 0.0001 42.7423 0.0000 0.0000
# 5 0.0000 0.0000 0.0000 0.0000 32.7278 0.0000
# 6 0.0000 0.0000 0.0000 0.0000 0.0000 17.7588
#
#
#
# Elastic Compliance Matrix: (Units=1/GPa)
#
#
# Indices 1 2 3 4 5 6 
#
# 1 0.013815 -0.000493 -0.001419 0.000000 0.000000 0.000000
# 2 -0.000493 0.017643 -0.005491 0.000000 0.000000 0.000000
# 3 -0.001419 -0.005491 0.010926 0.000000 0.000000 0.000000
# 4 0.000000 0.000000 0.000000 0.023396 0.000000 0.000000
# 5 0.000000 0.000000 0.000000 0.000000 0.030555 0.000000
# 6 0.000000 0.000000 0.000000 0.000000 0.000000 0.056310
#
#
# Mechanical properties :
#
#
# Convention : Reuss Voigt Hill
#
# Bulk Modulus (GPa) = 36.25994 39.88551 38.07272
# Shear Modulus (GPa) = 28.30527 31.90071 30.10299
#
# Velocity S-wave (km/s) = 3.82700 4.06280 3.94666
# Velocity P-wave (km/s) = 6.18788 6.53041 6.36145
#
# Compressibility (1/GPa) = 0.02757864
#
# Stress axis : x y z
#
# Youngs Moduli (GPa) = 72.38325 56.67865 91.52124
#
# Poissons Ratio (x) = 0.02794 0.12989
# Poissons Ratio (y) = 0.03568 0.50256
# Poissons Ratio (z) = 0.10273 0.31123
#
# Static dielectric constant tensor:
#      x y z
#    x 1.758830 0.000000 0.000000 
#    y 0.000000 1.710320 0.000000 
#    z 0.000000 0.000000 1.739770 
# 
# From -- ./inp_files/21568.got.cif
#   From: 2010.05.17/outbox.cif.g08.bks.cpg/sg73_11_cif.got.tgz:21568.got - 2010.06.03 17:35:07.
