data_PCOD9530030
_publ_section_title
;
Structure prediction by ZEFSAII (Michael W. Deem and Ramdas Pophale) SiO2 
 PCOD9530030
Probable space group: I B C A 
;
_chemical_formula_sum "Si O2"
_cell_formula_units_Z 64
_cell_length_a 19.197837
_cell_length_b 12.738420
_cell_length_c 10.877235
_cell_angle_alpha 90.000000
_cell_angle_beta 90.000000
_cell_angle_gamma 90.000000
_cell_volume 2660.029024
_symmetry_space_group_name_H-M "I B C A "
_symmetry_group_IT_number 73
_symmetry_cell_setting 'orthorhombic'
loop_
_space_group_symop_operation_xyz
x,y,z
-x,1/2-y,z
x,-y,1/2-z
1/2-x,y,-z
-x,-y,-z
x,1/2+y,-z
-x,y,1/2+z
1/2+x,-y,z
1/2+x,1/2+y,1/2+z
1/2-x,-y,1/2+z
1/2+x,1/2-y,-z
-x,1/2+y,1/2-z
1/2-x,1/2-y,1/2-z
1/2+x,y,1/2-z
1/2-x,1/2+y,z
x,1/2-y,1/2+z
loop_
_atom_site_type_symbol
_atom_site_label
_atom_site_fract_x
_atom_site_fract_y
_atom_site_fract_z
Si Si1 0.365528 0.240437 0.333313
Si Si2 0.250000 0.344305 0.500000
Si Si3 0.926224 0.091818 0.846016
Si Si4 0.500000 0.250000 0.007051
Si Si5 0.177942 0.540653 0.439477
O O1 0.299284 0.286050 0.405166
O O2 0.382611 0.312311 0.216252
O O3 0.432785 0.254469 0.421023
O O4 0.350367 0.115999 0.333388
O O5 0.200846 0.421596 0.419693
O O6 0.879107 0.043436 0.952897
O O7 0.992355 0.148089 0.906772
O O8 0.942185 0.000000 0.750000
O O9 0.250000 0.584822 0.500000
#
# Coordination Sequence:
#
# PCOD9530030 Si02
#       5
#    16   8  16   8  16
#     4  11  21  41  65  87 128 160 205 258 305 366
#     4  10  18  40  62  92 120 164 192 262 310 362
#     4  11  21  41  66  86 121 170 204 247 313 371
#     4  10  26  42  56  96 126 162 210 256 304 360
#     4   9  20  37  58  92 122 149 200 251 308 354
#
# _framework density 24.059887
#
# number of rings (size 3 to 8) (size 9 to 14) (size 15 to 20)
#    0.750    1.000    3.750    0.750    0.000    2.000 
#    4.500    0.000    0.000    0.000    0.000    0.000 
#    0.000    0.000    0.000    0.000    0.000    0.000 
#
# Total GULP energy -178814.737773 kJ/mol
# GULP energy per Si atom -5587.960555 kJ/mol
# Density = 2.400513 g / cm^3
# Si number density = 24.059887 Si / 1000 Ang^3
#
#
#
# Elastic Constant Matrix: (Units=GPa)
#
#
# Indices 1 2 3 4 5 6 
#
# 1 42.3222 -15.4692 13.0117 0.0000 0.0000 0.0000
# 2 -15.4692 31.6409 9.5067 0.0000 0.0000 0.0000
# 3 13.0117 9.5067 79.3482 0.0000 0.0000 0.0000
# 4 0.0000 0.0000 0.0000 -229.7322 0.0000 0.0000
# 5 0.0000 0.0000 0.0000 0.0000 -15.8428 0.0000
# 6 0.0000 0.0000 0.0000 0.0000 0.0000 52.0314
#
#
#
# Elastic Compliance Matrix: (Units=1/GPa)
#
#
# Indices 1 2 3 4 5 6 
#
# 1 0.032592 0.018195 -0.007524 0.000000 0.000000 0.000000
# 2 0.018195 0.042943 -0.008129 0.000000 0.000000 0.000000
# 3 -0.007524 -0.008129 0.014810 0.000000 0.000000 0.000000
# 4 0.000000 0.000000 0.000000 -0.004353 0.000000 0.000000
# 5 0.000000 0.000000 0.000000 0.000000 -0.063120 0.000000
# 6 0.000000 0.000000 0.000000 0.000000 0.000000 0.019219
#
#
# Mechanical properties :
#
#
# Convention : Reuss Voigt Hill
#
# Bulk Modulus (GPa) = 10.47899 18.60107 14.54003
# Shear Modulus (GPa) = 72.65636 -28.95792 21.84922
#
# Velocity S-wave (km/s) = 5.50124 -3.47302 3.01677
# Velocity P-wave (km/s) = 6.68703 2.88697 4.26508
#
# Compressibility (1/GPa) = 0.09542901
#
# Stress axis : x y z
#
# Youngs Moduli (GPa) = 30.68224 23.28695 67.51984
#
# Poissons Ratio (x) = -0.42371 0.50805
# Poissons Ratio (y) = -0.55827 0.54884
# Poissons Ratio (z) = 0.23087 0.18929
#
# Static dielectric constant tensor:
#      x y z
#    x 1.875650 0.000000 0.000000 
#    y 0.000000 1.985590 0.000000 
#    z 0.000000 0.000000 1.901140 
# 
# From -- ./inp_files/9493.got.cif
#   From: 2010.05.17/outbox.cif.g08.bks.cpg/sg73_5_cif.got.tgz:9493.got - 2010.06.03 17:35:07.
