data_PCOD9530373
_publ_section_title
;
Structure prediction by ZEFSAII (Michael W. Deem and Ramdas Pophale) SiO2 
 PCOD9530373
Probable space group: I B C A 
;
_chemical_formula_sum "Si O2"
_cell_formula_units_Z 88
_cell_length_a 14.418097
_cell_length_b 14.472448
_cell_length_c 15.943828
_cell_angle_alpha 90.000000
_cell_angle_beta 90.000000
_cell_angle_gamma 90.000000
_cell_volume 3326.921406
_symmetry_space_group_name_H-M "I B C A "
_symmetry_group_IT_number 73
_symmetry_cell_setting 'orthorhombic'
loop_
_space_group_symop_operation_xyz
x,y,z
-x,1/2-y,z
x,-y,1/2-z
1/2-x,y,-z
-x,-y,-z
x,1/2+y,-z
-x,y,1/2+z
1/2+x,-y,z
1/2+x,1/2+y,1/2+z
1/2-x,-y,1/2+z
1/2+x,1/2-y,-z
-x,1/2+y,1/2-z
1/2-x,1/2-y,1/2-z
1/2+x,y,1/2-z
1/2-x,1/2+y,z
x,1/2-y,1/2+z
loop_
_atom_site_type_symbol
_atom_site_label
_atom_site_fract_x
_atom_site_fract_y
_atom_site_fract_z
Si Si1 0.021352 0.374819 0.313581
Si Si2 0.102015 0.666615 0.536388
Si Si3 0.741792 0.155456 0.672217
Si Si4 0.252314 0.122667 0.654474
Si Si5 0.542126 0.082737 0.866532
Si Si6 0.750000 0.325029 0.000000
O O1 0.130940 0.353459 0.319028
O O2 0.008655 0.479359 0.348991
O O3 0.001380 0.362916 0.214156
O O4 0.955394 0.323399 0.378327
O O5 0.184527 0.603914 0.574792
O O6 0.040253 0.628046 0.459418
O O7 0.159003 0.758884 0.510647
O O8 0.764641 0.264918 0.661481
O O9 0.788695 0.107429 0.751463
O O10 0.766758 0.115698 0.582341
O O11 0.153225 0.077123 0.646077
#
# Coordination Sequence:
#
# PCOD9530373 Si02
#       6
#    16  16  16  16  16   8
#     4  10  23  35  61  90 132 152 209 255 320 352
#     4  11  19  39  64  89 117 172 200 252 311 386
#     4   9  18  38  56  90 116 159 197 264 287 374
#     4   9  18  35  69  81 117 161 208 240 317 354
#     4  10  19  41  59  90 122 169 196 261 302 381
#     4  10  20  36  66  86 124 160 216 246 312 360
#
# _framework density 26.450880999999999
#
# number of rings (size 3 to 8) (size 9 to 14) (size 15 to 20)
#    0.000    2.182    3.636    0.545    0.000    2.909 
#    6.545    7.273    0.000    0.000    0.000    0.000 
#    0.000    0.000    0.000    0.000    0.000    0.000 
#
# Total GULP energy -245520.820372 kJ/mol
# GULP energy per Si atom -5580.018645 kJ/mol
# Density = 2.639068 g / cm^3
# Si number density = 26.450881 Si / 1000 Ang^3
#
#
#
# Elastic Constant Matrix: (Units=GPa)
#
#
# Indices 1 2 3 4 5 6 
#
# 1 81.0765 9.9250 35.7379 0.0000 0.0000 0.0000
# 2 9.9250 81.7066 -2.9753 0.0000 0.0000 0.0000
# 3 35.7379 -2.9753 241.9335 0.0000 0.0000 0.0000
# 4 0.0000 0.0000 0.0000 -30.5679 0.0000 0.0000
# 5 0.0000 0.0000 0.0000 0.0000 51.9991 0.0000
# 6 0.0000 0.0000 0.0000 0.0000 0.0000 26.3927
#
#
#
# Elastic Compliance Matrix: (Units=1/GPa)
#
#
# Indices 1 2 3 4 5 6 
#
# 1 0.013426 -0.001704 -0.002004 0.000000 0.000000 0.000000
# 2 -0.001704 0.012461 0.000405 0.000000 0.000000 0.000000
# 3 -0.002004 0.000405 0.004434 0.000000 0.000000 0.000000
# 4 0.000000 0.000000 0.000000 -0.032714 0.000000 0.000000
# 5 0.000000 0.000000 0.000000 0.000000 0.019231 0.000000
# 6 0.000000 0.000000 0.000000 0.000000 0.000000 0.037889
#
#
# Mechanical properties :
#
#
# Convention : Reuss Voigt Hill
#
# Bulk Modulus (GPa) = 42.16776 54.45462 48.31119
# Shear Modulus (GPa) = 72.21407 33.70005 52.95706
#
# Velocity S-wave (km/s) = 5.23072 3.57327 4.47933
# Velocity P-wave (km/s) = 7.24273 6.13646 6.71242
#
# Compressibility (1/GPa) = 0.02371480
#
# Stress axis : x y z
#
# Youngs Moduli (GPa) = 74.48200 80.25276 225.50929
#
# Poissons Ratio (x) = 0.13674 0.45197
# Poissons Ratio (y) = 0.12691 -0.09132
# Poissons Ratio (z) = 0.14928 -0.03250
#
# Static dielectric constant tensor:
#      x y z
#    x 2.212610 0.000000 0.000000 
#    y 0.000000 2.077820 0.000000 
#    z 0.000000 0.000000 2.266230 
# 
# From -- ./inp_files/22029.got.cif
#   From: 2010.05.17/outbox.cif.g08.bks.cpg/sg73_12_cif.got.tgz:22029.got - 2010.06.03 17:35:07.
