data_PCOD9530730
_publ_section_title
;
Structure prediction by ZEFSAII (Michael W. Deem and Ramdas Pophale) SiO2 
 PCOD9530730
Probable space group: I B C A 
;
_chemical_formula_sum "Si O2"
_cell_formula_units_Z 120
_cell_length_a 22.257686
_cell_length_b 9.395532
_cell_length_c 30.224986
_cell_angle_alpha 90.000000
_cell_angle_beta 90.000000
_cell_angle_gamma 90.000000
_cell_volume 6320.733734
_symmetry_space_group_name_H-M "I B C A "
_symmetry_group_IT_number 73
_symmetry_cell_setting 'orthorhombic'
loop_
_space_group_symop_operation_xyz
x,y,z
-x,1/2-y,z
x,-y,1/2-z
1/2-x,y,-z
-x,-y,-z
x,1/2+y,-z
-x,y,1/2+z
1/2+x,-y,z
1/2+x,1/2+y,1/2+z
1/2-x,-y,1/2+z
1/2+x,1/2-y,-z
-x,1/2+y,1/2-z
1/2-x,1/2-y,1/2-z
1/2+x,y,1/2-z
1/2-x,1/2+y,z
x,1/2-y,1/2+z
loop_
_atom_site_type_symbol
_atom_site_label
_atom_site_fract_x
_atom_site_fract_y
_atom_site_fract_z
Si Si1 0.392948 0.868343 0.157905
Si Si2 0.128773 0.665057 0.497158
Si Si3 0.000000 0.250000 0.605896
Si Si4 0.451667 0.577903 0.030574
Si Si5 0.176651 0.755885 0.586281
Si Si6 0.205570 0.080313 0.590356
Si Si7 0.560041 0.332269 0.251854
Si Si8 0.931617 0.801528 0.151101
O O1 0.441707 0.769918 0.135025
O O2 0.331791 0.856792 0.131276
O O3 0.390790 0.829215 0.209441
O O4 0.419559 0.028126 0.150013
O O5 0.104607 0.527899 0.524249
O O6 0.073559 0.766340 0.482476
O O7 0.162114 0.755445 0.534285
O O8 0.169420 0.623503 0.454873
O O9 0.015069 0.389296 0.576408
O O10 0.500000 0.500000 0.000000
O O11 0.227440 0.638152 0.591917
O O12 0.117174 0.737907 0.616838
O O13 0.203265 0.911136 0.595883
O O14 0.500000 0.250000 0.265684
O O15 0.544210 0.500000 0.250000
O O16 0.578124 0.272269 0.203675
O O17 0.000000 0.750000 0.140833
#
# Coordination Sequence:
#
# PCOD9530730 Si02
#       8
#    16  16   8  16  16  16  16  16
#     4  10  20  37  61  89 121 157 193 247 304 363
#     4  12  24  40  60  83 120 165 207 250 298 356
#     4  12  22  34  58  90 128 156 206 244 302 356
#     4  12  23  38  56  88 126 163 202 248 302 356
#     4  11  26  41  63  84 120 161 209 252 304 357
#     4  11  24  44  57  86 117 160 210 255 296 364
#     4   9  17  35  61  88 122 155 190 242 306 370
#     4   9  21  40  61  92 121 154 197 248 309 369
#
# _framework density 18.985137000000002
#
# number of rings (size 3 to 8) (size 9 to 14) (size 15 to 20)
#    0.000    1.333    4.667    0.400    5.600    1.067 
#    0.000    0.667    0.000    0.000    0.000    0.000 
#    0.000    0.000    0.000    0.000    0.000    0.000 
#
# Total GULP energy -334424.451588 kJ/mol
# GULP energy per Si atom -5573.740860 kJ/mol
# Density = 1.894193 g / cm^3
# Si number density = 18.985137 Si / 1000 Ang^3
#
#
#
# Elastic Constant Matrix: (Units=GPa)
#
#
# Indices 1 2 3 4 5 6 
#
# 1 91.8015 14.8137 41.5424 0.0000 0.0000 0.0000
# 2 14.8137 38.2077 12.7573 0.0000 0.0000 0.0000
# 3 41.5424 12.7573 93.5498 0.0000 0.0000 0.0000
# 4 0.0000 0.0000 0.0000 15.3329 0.0000 0.0000
# 5 0.0000 0.0000 0.0000 0.0000 -3.1775 0.0000
# 6 0.0000 0.0000 0.0000 0.0000 0.0000 35.1834
#
#
#
# Elastic Compliance Matrix: (Units=1/GPa)
#
#
# Indices 1 2 3 4 5 6 
#
# 1 0.014073 -0.003530 -0.005768 0.000000 0.000000 0.000000
# 2 -0.003530 0.028307 -0.002292 0.000000 0.000000 0.000000
# 3 -0.005768 -0.002292 0.013563 0.000000 0.000000 0.000000
# 4 0.000000 0.000000 0.000000 0.065219 0.000000 0.000000
# 5 0.000000 0.000000 0.000000 0.000000 -0.314711 0.000000
# 6 0.000000 0.000000 0.000000 0.000000 0.000000 0.028423
#
#
# Mechanical properties :
#
#
# Convention : Reuss Voigt Hill
#
# Bulk Modulus (GPa) = 30.52334 40.19841 35.36088
# Shear Modulus (GPa) = -38.16088 19.76411 -9.19838
#
# Velocity S-wave (km/s) = -4.48821 3.23000 -2.20353
# Velocity P-wave (km/s) = 3.27816 5.92707 3.49169
#
# Compressibility (1/GPa) = 0.03276181
#
# Stress axis : x y z
#
# Youngs Moduli (GPa) = 71.05878 35.32699 73.72772
#
# Poissons Ratio (x) = 0.12472 0.42525
# Poissons Ratio (y) = 0.25087 0.16902
# Poissons Ratio (z) = 0.40986 0.08098
#
# Static dielectric constant tensor:
#      x y z
#    x 1.693430 0.000000 0.000000 
#    y 0.000000 1.674880 0.000000 
#    z 0.000000 0.000000 1.696540 
# 
# From -- ./inp_files/34813.got.cif
#   From: 2010.05.17/outbox.cif.g08.bks.cpg/sg73_18_cif.got.tgz:34813.got - 2010.06.03 17:35:07.
