data_PCOD9530738
_publ_section_title
;
Structure prediction by ZEFSAII (Michael W. Deem and Ramdas Pophale) SiO2 
 PCOD9530738
Probable space group: I B C A 
;
_chemical_formula_sum "Si O2"
_cell_formula_units_Z 88
_cell_length_a 24.175897
_cell_length_b 13.421025
_cell_length_c 13.086999
_cell_angle_alpha 90.000000
_cell_angle_beta 90.000000
_cell_angle_gamma 90.000000
_cell_volume 4246.277293
_symmetry_space_group_name_H-M "I B C A "
_symmetry_group_IT_number 73
_symmetry_cell_setting 'orthorhombic'
loop_
_space_group_symop_operation_xyz
x,y,z
-x,1/2-y,z
x,-y,1/2-z
1/2-x,y,-z
-x,-y,-z
x,1/2+y,-z
-x,y,1/2+z
1/2+x,-y,z
1/2+x,1/2+y,1/2+z
1/2-x,-y,1/2+z
1/2+x,1/2-y,-z
-x,1/2+y,1/2-z
1/2-x,1/2-y,1/2-z
1/2+x,y,1/2-z
1/2-x,1/2+y,z
x,1/2-y,1/2+z
loop_
_atom_site_type_symbol
_atom_site_label
_atom_site_fract_x
_atom_site_fract_y
_atom_site_fract_z
Si Si1 0.500000 0.750000 0.481819
Si Si2 0.571836 0.095010 0.891202
Si Si3 0.228895 0.613876 0.747035
Si Si4 0.803869 0.878742 0.444621
Si Si5 0.580038 0.373595 0.154466
Si Si6 0.806615 0.286058 0.889027
O O1 0.528665 0.836291 0.549140
O O2 0.546834 0.707596 0.407963
O O3 0.632531 0.088897 0.944163
O O4 0.578468 0.137767 0.776475
O O5 0.555076 0.980550 0.875392
O O6 0.209171 0.500000 0.750000
O O7 0.282450 0.619303 0.671533
O O8 0.252087 0.654102 0.853864
O O9 0.188763 0.694435 0.693865
O O10 0.750000 0.930092 0.500000
O O11 0.806619 0.773424 0.504894
O O12 0.643279 0.361739 0.119866
#
# Coordination Sequence:
#
# PCOD9530738 Si02
#       6
#     8  16  16  16  16  16
#     4  12  24  44  68  96 130 164 232 290 324 390
#     4  11  23  42  68  98 125 177 223 268 345 398
#     4  10  20  38  64  91 129 173 217 263 323 399
#     4  10  20  37  61  93 132 165 214 261 322 404
#     4  11  23  42  69  90 128 175 217 277 336 399
#     4  10  20  37  61  92 125 168 214 267 324 391
#
# _framework density 20.724036000000002
#
# number of rings (size 3 to 8) (size 9 to 14) (size 15 to 20)
#    0.000    1.455    3.636    2.182    0.000    0.000 
#    0.000   34.545    4.000    0.000    0.000    0.000 
#    0.000    0.000    0.000    0.000    0.000    0.000 
#
# Total GULP energy -245217.248065 kJ/mol
# GULP energy per Si atom -5573.119274 kJ/mol
# Density = 2.067687 g / cm^3
# Si number density = 20.724036 Si / 1000 Ang^3
#
#
#
# Elastic Constant Matrix: (Units=GPa)
#
#
# Indices 1 2 3 4 5 6 
#
# 1 57.0892 4.8479 14.1175 0.0000 0.0000 0.0000
# 2 4.8479 101.7427 23.3737 0.0000 0.0000 0.0000
# 3 14.1175 23.3737 59.1254 0.0000 0.0000 0.0000
# 4 0.0000 0.0000 0.0000 32.0946 0.0000 0.0000
# 5 0.0000 0.0000 0.0000 0.0000 23.4573 0.0000
# 6 0.0000 0.0000 0.0000 0.0000 0.0000 25.8856
#
#
#
# Elastic Compliance Matrix: (Units=1/GPa)
#
#
# Indices 1 2 3 4 5 6 
#
# 1 0.018618 0.000148 -0.004504 0.000000 0.000000 0.000000
# 2 0.000148 0.010812 -0.004309 0.000000 0.000000 0.000000
# 3 -0.004504 -0.004309 0.019692 0.000000 0.000000 0.000000
# 4 0.000000 0.000000 0.000000 0.031158 0.000000 0.000000
# 5 0.000000 0.000000 0.000000 0.000000 0.042631 0.000000
# 6 0.000000 0.000000 0.000000 0.000000 0.000000 0.038631
#
#
# Mechanical properties :
#
#
# Convention : Reuss Voigt Hill
#
# Bulk Modulus (GPa) = 31.45599 33.62618 32.54108
# Shear Modulus (GPa) = 26.38948 27.99537 27.19242
#
# Velocity S-wave (km/s) = 3.57231 3.67940 3.62625
# Velocity P-wave (km/s) = 5.67685 5.85761 5.76794
#
# Compressibility (1/GPa) = 0.03179045
#
# Stress axis : x y z
#
# Youngs Moduli (GPa) = 53.71249 92.49255 50.78164
#
# Poissons Ratio (x) = -0.01365 0.22871
# Poissons Ratio (y) = -0.00793 0.21884
# Poissons Ratio (z) = 0.24191 0.39858
#
# Static dielectric constant tensor:
#      x y z
#    x 1.909450 0.000000 0.000000 
#    y 0.000000 1.783210 0.000000 
#    z 0.000000 0.000000 1.781210 
# 
# From -- ./inp_files/19320.got.cif
#   From: 2010.05.17/outbox.cif.g08.bks.cpg/sg73_10_cif.got.tgz:19320.got - 2010.06.03 17:35:07.
