data_PCOD9530236
_publ_section_title
;
Structure prediction by ZEFSAII (Michael W. Deem and Ramdas Pophale) SiO2 
 PCOD9530236
Probable space group: I B C A 
;
_chemical_formula_sum "Si O2"
_cell_formula_units_Z 80
_cell_length_a 9.203294
_cell_length_b 21.519174
_cell_length_c 18.449038
_cell_angle_alpha 90.000000
_cell_angle_beta 90.000000
_cell_angle_gamma 90.000000
_cell_volume 3653.781886
_symmetry_space_group_name_H-M "I B C A "
_symmetry_group_IT_number 73
_symmetry_cell_setting 'orthorhombic'
loop_
_space_group_symop_operation_xyz
x,y,z
-x,1/2-y,z
x,-y,1/2-z
1/2-x,y,-z
-x,-y,-z
x,1/2+y,-z
-x,y,1/2+z
1/2+x,-y,z
1/2+x,1/2+y,1/2+z
1/2-x,-y,1/2+z
1/2+x,1/2-y,-z
-x,1/2+y,1/2-z
1/2-x,1/2-y,1/2-z
1/2+x,y,1/2-z
1/2-x,1/2+y,z
x,1/2-y,1/2+z
loop_
_atom_site_type_symbol
_atom_site_label
_atom_site_fract_x
_atom_site_fract_y
_atom_site_fract_z
Si Si1 0.146219 0.542745 0.929998
Si Si2 0.153053 0.640939 0.134669
Si Si3 0.908856 0.592269 0.032548
Si Si4 0.830284 0.739831 0.926086
Si Si5 0.632985 0.296844 0.280977
O O1 0.240830 0.581183 0.872637
O O2 0.104555 0.471147 0.919223
O O3 0.250000 0.541578 0.000000
O O4 0.005328 0.577890 0.960627
O O5 0.251157 0.698297 0.105179
O O6 0.109289 0.653182 0.218192
O O7 0.011251 0.635805 0.082737
O O8 0.750000 0.604707 0.000000
O O9 0.820712 0.687562 0.862818
O O10 0.000000 0.750000 0.942253
O O11 0.750000 0.726613 0.000000
O O12 0.500000 0.250000 0.290484
O O13 0.750000 0.250000 0.250000
#
# Coordination Sequence:
#
# PCOD9530236 Si02
#       5
#    16  16  16  16  16
#     4   8  15  29  52  85 127 172 212 255 304 365
#     4  10  19  36  59  88 132 173 204 249 315 378
#     4   9  16  29  52  87 130 170 212 257 306 364
#     4  10  21  39  63  92 122 155 207 264 315 378
#     4   9  20  39  60  85 117 161 206 251 309 371
#
# _framework density 21.895122000000001
#
# number of rings (size 3 to 8) (size 9 to 14) (size 15 to 20)
#    0.000    2.800    0.000    3.000    0.000    3.200 
#    0.000   18.000    0.000    0.000    0.000   37.800 
#    0.000    4.800    0.000    0.000    0.000    0.000 
#
# Total GULP energy -222955.794528 kJ/mol
# GULP energy per Si atom -5573.894863 kJ/mol
# Density = 2.184529 g / cm^3
# Si number density = 21.895122 Si / 1000 Ang^3
#
#
#
# Elastic Constant Matrix: (Units=GPa)
#
#
# Indices 1 2 3 4 5 6 
#
# 1 171.3531 24.3598 57.8048 0.0000 0.0000 0.0000
# 2 24.3598 77.1797 50.5996 0.0000 0.0000 0.0000
# 3 57.8048 50.5996 164.0554 0.0000 0.0000 0.0000
# 4 0.0000 0.0000 0.0000 -29.6315 0.0000 0.0000
# 5 0.0000 0.0000 0.0000 0.0000 21.2063 0.0000
# 6 0.0000 0.0000 0.0000 0.0000 0.0000 35.0333
#
#
#
# Elastic Compliance Matrix: (Units=1/GPa)
#
#
# Indices 1 2 3 4 5 6 
#
# 1 0.006654 -0.000706 -0.002127 0.000000 0.000000 0.000000
# 2 -0.000706 0.016316 -0.004784 0.000000 0.000000 0.000000
# 3 -0.002127 -0.004784 0.008320 0.000000 0.000000 0.000000
# 4 0.000000 0.000000 0.000000 -0.033748 0.000000 0.000000
# 5 0.000000 0.000000 0.000000 0.000000 0.047156 0.000000
# 6 0.000000 0.000000 0.000000 0.000000 0.000000 0.028544
#
#
# Mechanical properties :
#
#
# Convention : Reuss Voigt Hill
#
# Bulk Modulus (GPa) = 62.27630 75.34629 68.81130
# Shear Modulus (GPa) = 53.28990 23.97655 38.63323
#
# Velocity S-wave (km/s) = 4.93878 3.31276 4.20511
# Velocity P-wave (km/s) = 7.81197 7.00854 7.42113
#
# Compressibility (1/GPa) = 0.01605747
#
# Stress axis : x y z
#
# Youngs Moduli (GPa) = 150.29288 61.29072 120.18859
#
# Poissons Ratio (x) = 0.04326 0.25561
# Poissons Ratio (y) = 0.10607 0.57493
# Poissons Ratio (z) = 0.31963 0.29319
#
# Static dielectric constant tensor:
#      x y z
#    x 1.789050 0.000000 0.000000 
#    y 0.000000 1.912730 0.000000 
#    z 0.000000 0.000000 1.850350 
# 
# From -- ./inp_files/20731.got.cif
#   From: 2010.05.17/outbox.cif.g08.bks.cpg/sg73_11_cif.got.tgz:20731.got - 2010.06.03 17:35:07.
