data_PCOD9530327
_publ_section_title
;
Structure prediction by ZEFSAII (Michael W. Deem and Ramdas Pophale) SiO2 
 PCOD9530327
Probable space group: I B C A 
;
_chemical_formula_sum "Si O2"
_cell_formula_units_Z 104
_cell_length_a 18.838877
_cell_length_b 12.022199
_cell_length_c 24.237506
_cell_angle_alpha 90.000000
_cell_angle_beta 90.000000
_cell_angle_gamma 90.000000
_cell_volume 5489.424959
_symmetry_space_group_name_H-M "I B C A "
_symmetry_group_IT_number 73
_symmetry_cell_setting 'orthorhombic'
loop_
_space_group_symop_operation_xyz
x,y,z
-x,1/2-y,z
x,-y,1/2-z
1/2-x,y,-z
-x,-y,-z
x,1/2+y,-z
-x,y,1/2+z
1/2+x,-y,z
1/2+x,1/2+y,1/2+z
1/2-x,-y,1/2+z
1/2+x,1/2-y,-z
-x,1/2+y,1/2-z
1/2-x,1/2-y,1/2-z
1/2+x,y,1/2-z
1/2-x,1/2+y,z
x,1/2-y,1/2+z
loop_
_atom_site_type_symbol
_atom_site_label
_atom_site_fract_x
_atom_site_fract_y
_atom_site_fract_z
Si Si1 0.934477 0.326503 0.831429
Si Si2 0.944412 0.484614 0.578306
Si Si3 0.746945 0.387409 0.941766
Si Si4 0.100986 0.033697 0.046692
Si Si5 0.864486 0.500000 0.750000
Si Si6 0.672835 0.690093 0.904626
Si Si7 0.691390 0.570181 0.136757
O O1 0.953646 0.408816 0.882002
O O2 0.909044 0.405032 0.781674
O O3 0.000000 0.250000 0.815219
O O4 0.125308 0.252379 0.857967
O O5 0.912961 0.520759 0.518894
O O6 0.884928 0.409820 0.608260
O O7 0.023268 0.437654 0.570119
O O8 0.662144 0.379547 0.935195
O O9 0.797977 0.281142 0.948104
O O10 0.780490 0.456344 0.891842
O O11 0.750000 0.453444 0.000000
O O12 0.130841 0.914192 0.069140
O O13 0.819098 0.554574 0.798665
O O14 0.746867 0.654130 0.877443
#
# Coordination Sequence:
#
# PCOD9530327 Si02
#       7
#    16  16  16  16   8  16  16
#     4  11  21  42  64  93 119 170 220 255 322 392
#     4  10  19  39  57  85 129 159 207 256 308 375
#     4  11  20  36  56  91 127 162 202 253 316 386
#     4  10  21  34  58  89 125 163 199 257 310 383
#     4  10  22  44  64  82 126 162 212 278 306 362
#     4  11  22  35  64  91 123 160 210 252 319 396
#     4  10  22  39  60  88 118 163 202 268 310 368
#
# _framework density 18.945516999999999
#
# number of rings (size 3 to 8) (size 9 to 14) (size 15 to 20)
#    0.000    1.538    6.154    0.000    2.154    0.615 
#    0.000    4.615    0.000    0.000    0.000    0.000 
#    0.000    0.000    0.000    0.000    0.000    0.000 
#
# Total GULP energy -289749.880039 kJ/mol
# GULP energy per Si atom -5572.113078 kJ/mol
# Density = 1.890240 g / cm^3
# Si number density = 18.945517 Si / 1000 Ang^3
#
#
#
# Elastic Constant Matrix: (Units=GPa)
#
#
# Indices 1 2 3 4 5 6 
#
# 1 125.3399 12.9112 35.2053 0.0000 0.0000 0.0000
# 2 12.9112 37.6592 22.3397 0.0000 0.0000 0.0000
# 3 35.2053 22.3397 119.6384 0.0000 0.0000 0.0000
# 4 0.0000 0.0000 0.0000 18.8919 0.0000 0.0000
# 5 0.0000 0.0000 0.0000 0.0000 17.3676 0.0000
# 6 0.0000 0.0000 0.0000 0.0000 0.0000 32.9352
#
#
#
# Elastic Compliance Matrix: (Units=1/GPa)
#
#
# Indices 1 2 3 4 5 6 
#
# 1 0.008789 -0.001663 -0.002276 0.000000 0.000000 0.000000
# 2 -0.001663 0.030176 -0.005145 0.000000 0.000000 0.000000
# 3 -0.002276 -0.005145 0.009989 0.000000 0.000000 0.000000
# 4 0.000000 0.000000 0.000000 0.052933 0.000000 0.000000
# 5 0.000000 0.000000 0.000000 0.000000 0.057578 0.000000
# 6 0.000000 0.000000 0.000000 0.000000 0.000000 0.030363
#
#
# Mechanical properties :
#
#
# Convention : Reuss Voigt Hill
#
# Bulk Modulus (GPa) = 32.48261 47.06112 39.77186
# Shear Modulus (GPa) = 22.90862 27.98435 25.44649
#
# Velocity S-wave (km/s) = 3.48110 3.84747 3.66886
# Velocity P-wave (km/s) = 5.77408 6.68068 6.24386
#
# Compressibility (1/GPa) = 0.03078570
#
# Stress axis : x y z
#
# Youngs Moduli (GPa) = 113.78093 33.13847 100.11080
#
# Poissons Ratio (x) = 0.05512 0.22782
# Poissons Ratio (y) = 0.18925 0.51510
# Poissons Ratio (z) = 0.25893 0.17051
#
# Static dielectric constant tensor:
#      x y z
#    x 1.704550 0.000000 0.000000 
#    y 0.000000 1.721850 0.000000 
#    z 0.000000 0.000000 1.638310 
# 
# From -- ./inp_files/18128.got.cif
#   From: 2010.05.17/outbox.cif.g08.bks.cpg/sg73_10_cif.got.tgz:18128.got - 2010.06.03 17:35:07.
