data_PCOD9530880
_publ_section_title
;
Structure prediction by ZEFSAII (Michael W. Deem and Ramdas Pophale) SiO2 
 PCOD9530880
Probable space group: I B C A 
;
_chemical_formula_sum "Si O2"
_cell_formula_units_Z 80
_cell_length_a 11.102677
_cell_length_b 22.353961
_cell_length_c 13.589760
_cell_angle_alpha 90.000000
_cell_angle_beta 90.000000
_cell_angle_gamma 90.000000
_cell_volume 3372.826344
_symmetry_space_group_name_H-M "I B C A "
_symmetry_group_IT_number 73
_symmetry_cell_setting 'orthorhombic'
loop_
_space_group_symop_operation_xyz
x,y,z
-x,1/2-y,z
x,-y,1/2-z
1/2-x,y,-z
-x,-y,-z
x,1/2+y,-z
-x,y,1/2+z
1/2+x,-y,z
1/2+x,1/2+y,1/2+z
1/2-x,-y,1/2+z
1/2+x,1/2-y,-z
-x,1/2+y,1/2-z
1/2-x,1/2-y,1/2-z
1/2+x,y,1/2-z
1/2-x,1/2+y,z
x,1/2-y,1/2+z
loop_
_atom_site_type_symbol
_atom_site_label
_atom_site_fract_x
_atom_site_fract_y
_atom_site_fract_z
Si Si1 0.985254 0.154816 0.947925
Si Si2 0.000000 0.250000 0.804113
Si Si3 0.002873 0.021640 0.388118
Si Si4 0.861281 0.823675 0.860540
Si Si5 0.760758 0.949117 0.879557
Si Si6 0.250000 0.225241 0.500000
O O1 0.056867 0.201759 0.879479
O O2 0.974361 0.092195 0.893800
O O3 0.855098 0.183125 0.961163
O O4 0.044792 0.151329 0.056209
O O5 0.921485 0.207197 0.733837
O O6 0.864632 0.018580 0.350833
O O7 0.118228 0.984861 0.350358
O O8 0.000000 0.000000 0.500000
O O9 0.777665 0.881288 0.840565
O O10 0.802897 0.767898 0.916407
O O11 0.750000 0.944050 0.000000
#
# Coordination Sequence:
#
# PCOD9530880 Si02
#       6
#    16   8  16  16  16   8
#     4  12  24  43  65 103 143 178 248 293 357 449
#     4  12  26  44  66 102 146 188 236 296 372 440
#     4  10  21  39  70 103 131 185 237 296 359 428
#     4  12  22  45  67  98 144 186 223 307 367 421
#     4  10  20  38  72 101 136 178 243 291 364 421
#     4  12  22  40  70  94 142 186 236 294 362 442
#
# _framework density 23.718979000000001
#
# number of rings (size 3 to 8) (size 9 to 14) (size 15 to 20)
#    0.000    0.800    9.000    0.000    4.200    0.800 
#    0.000    1.000    0.000    2.400    0.000    0.000 
#    0.000    0.000    0.000    0.000    0.000    0.000 
#
# Total GULP energy -223447.075255 kJ/mol
# GULP energy per Si atom -5586.176881 kJ/mol
# Density = 2.366499 g / cm^3
# Si number density = 23.718979 Si / 1000 Ang^3
#
#
#
# Elastic Constant Matrix: (Units=GPa)
#
#
# Indices 1 2 3 4 5 6 
#
# 1 146.7814 40.8462 19.7682 0.0000 0.0000 0.0000
# 2 40.8462 104.7958 28.2480 0.0000 0.0000 0.0000
# 3 19.7682 28.2480 99.8011 0.0000 0.0000 0.0000
# 4 0.0000 0.0000 0.0000 8.2711 0.0000 0.0000
# 5 0.0000 0.0000 0.0000 0.0000 -18.7464 0.0000
# 6 0.0000 0.0000 0.0000 0.0000 0.0000 54.1136
#
#
#
# Elastic Compliance Matrix: (Units=1/GPa)
#
#
# Indices 1 2 3 4 5 6 
#
# 1 0.007691 -0.002801 -0.000731 0.000000 0.000000 0.000000
# 2 -0.002801 0.011350 -0.002658 0.000000 0.000000 0.000000
# 3 -0.000731 -0.002658 0.010917 0.000000 0.000000 0.000000
# 4 0.000000 0.000000 0.000000 0.120904 0.000000 0.000000
# 5 0.000000 0.000000 0.000000 0.000000 -0.053344 0.000000
# 6 0.000000 0.000000 0.000000 0.000000 0.000000 0.018480
#
#
# Mechanical properties :
#
#
# Convention : Reuss Voigt Hill
#
# Bulk Modulus (GPa) = 56.88400 58.78923 57.83661
# Shear Modulus (GPa) = 37.24789 26.22872 31.73830
#
# Velocity S-wave (km/s) = 3.96711 3.32898 3.66197
# Velocity P-wave (km/s) = 6.70958 6.29410 6.50516
#
# Compressibility (1/GPa) = 0.01757964
#
# Stress axis : x y z
#
# Youngs Moduli (GPa) = 130.02872 88.10254 91.60068
#
# Poissons Ratio (x) = 0.24674 0.06693
# Poissons Ratio (y) = 0.36416 0.24347
# Poissons Ratio (z) = 0.09500 0.23417
#
# Static dielectric constant tensor:
#      x y z
#    x 2.000950 0.000000 0.000000 
#    y 0.000000 1.947270 0.000000 
#    z 0.000000 0.000000 1.939420 
# 
# From -- ./inp_files/21335.got.cif
#   From: 2010.05.17/outbox.cif.g08.bks.cpg/sg73_11_cif.got.tgz:21335.got - 2010.06.03 17:35:07.
