data_PCOD9530642
_publ_section_title
;
Structure prediction by ZEFSAII (Michael W. Deem and Ramdas Pophale) SiO2 
 PCOD9530642
Probable space group: I B C A 
;
_chemical_formula_sum "Si O2"
_cell_formula_units_Z 64
_cell_length_a 23.345873
_cell_length_b 12.564660
_cell_length_c 9.248586
_cell_angle_alpha 90.000000
_cell_angle_beta 90.000000
_cell_angle_gamma 90.000000
_cell_volume 2712.915076
_symmetry_space_group_name_H-M "I B C A "
_symmetry_group_IT_number 73
_symmetry_cell_setting 'orthorhombic'
loop_
_space_group_symop_operation_xyz
x,y,z
-x,1/2-y,z
x,-y,1/2-z
1/2-x,y,-z
-x,-y,-z
x,1/2+y,-z
-x,y,1/2+z
1/2+x,-y,z
1/2+x,1/2+y,1/2+z
1/2-x,-y,1/2+z
1/2+x,1/2-y,-z
-x,1/2+y,1/2-z
1/2-x,1/2-y,1/2-z
1/2+x,y,1/2-z
1/2-x,1/2+y,z
x,1/2-y,1/2+z
loop_
_atom_site_type_symbol
_atom_site_label
_atom_site_fract_x
_atom_site_fract_y
_atom_site_fract_z
Si Si1 0.703266 0.923121 0.378481
Si Si2 0.449104 0.667353 0.530621
Si Si3 0.115182 0.253889 0.792809
Si Si4 0.613038 0.974336 0.907414
O O1 0.750000 0.897666 0.500000
O O2 0.673974 0.817132 0.313348
O O3 0.724113 0.000000 0.250000
O O4 0.653819 0.988415 0.464030
O O5 0.500000 0.750000 0.557671
O O6 0.433749 0.670559 0.360942
O O7 0.397879 0.712993 0.633299
O O8 0.445332 0.543642 0.578402
O O9 0.107316 0.151047 0.895421
O O10 0.639100 0.000000 0.750000
#
# Coordination Sequence:
#
# PCOD9530642 Si02
#       4
#    16  16  16  16
#     4  11  23  40  63  91 122 158 205 258 316 376
#     4  10  20  36  60  89 123 163 206 250 301 359
#     4  10  21  39  60  88 124 163 204 253 307 365
#     4   9  20  39  59  86 126 163 204 253 300 363
#
# _framework density 23.590859999999999
#
# number of rings (size 3 to 8) (size 9 to 14) (size 15 to 20)
#    0.000    2.000    0.000    3.000    0.000    2.000 
#    0.000   25.000    0.000    0.000    0.000    0.000 
#    0.000    0.000    0.000    0.000    0.000    0.000 
#
# Total GULP energy -178386.538460 kJ/mol
# GULP energy per Si atom -5574.579327 kJ/mol
# Density = 2.353717 g / cm^3
# Si number density = 23.590860 Si / 1000 Ang^3
#
#
#
# Elastic Constant Matrix: (Units=GPa)
#
#
# Indices 1 2 3 4 5 6 
#
# 1 82.4514 32.2324 8.2916 0.0000 0.0000 0.0000
# 2 32.2324 110.1940 7.7049 0.0000 0.0000 0.0000
# 3 8.2916 7.7049 83.7457 0.0000 0.0000 0.0000
# 4 0.0000 0.0000 0.0000 31.2368 0.0000 0.0000
# 5 0.0000 0.0000 0.0000 0.0000 29.6771 0.0000
# 6 0.0000 0.0000 0.0000 0.0000 0.0000 9.3605
#
#
#
# Elastic Compliance Matrix: (Units=1/GPa)
#
#
# Indices 1 2 3 4 5 6 
#
# 1 0.013777 -0.003960 -0.001000 0.000000 0.000000 0.000000
# 2 -0.003960 0.010272 -0.000553 0.000000 0.000000 0.000000
# 3 -0.001000 -0.000553 0.012091 0.000000 0.000000 0.000000
# 4 0.000000 0.000000 0.000000 0.032014 0.000000 0.000000
# 5 0.000000 0.000000 0.000000 0.000000 0.033696 0.000000
# 6 0.000000 0.000000 0.000000 0.000000 0.000000 0.106831
#
#
# Mechanical properties :
#
#
# Convention : Reuss Voigt Hill
#
# Bulk Modulus (GPa) = 39.81791 41.42766 40.62279
# Shear Modulus (GPa) = 21.92239 29.26569 25.59404
#
# Velocity S-wave (km/s) = 3.05171 3.52597 3.29738
# Velocity P-wave (km/s) = 5.41594 5.84599 5.63507
#
# Compressibility (1/GPa) = 0.02511432
#
# Stress axis : x y z
#
# Youngs Moduli (GPa) = 72.58504 97.35320 82.70769
#
# Poissons Ratio (x) = 0.38551 0.08268
# Poissons Ratio (y) = 0.28743 0.04574
# Poissons Ratio (z) = 0.07256 0.05383
#
# Static dielectric constant tensor:
#      x y z
#    x 1.948510 0.000000 0.000000 
#    y 0.000000 2.006950 0.000000 
#    z 0.000000 0.000000 1.850490 
# 
# From -- ./inp_files/3965.got.cif
#   From: 2010.05.17/outbox.cif.g08.bks.cpg/sg73_2_cif.got.tgz:3965.got - 2010.06.03 17:35:07.
