data_PCOD9530362
_publ_section_title
;
Structure prediction by ZEFSAII (Michael W. Deem and Ramdas Pophale) SiO2 
 PCOD9530362
Probable space group: I B C A 
;
_chemical_formula_sum "Si O2"
_cell_formula_units_Z 112
_cell_length_a 13.411064
_cell_length_b 26.896287
_cell_length_c 14.554595
_cell_angle_alpha 90.000000
_cell_angle_beta 90.000000
_cell_angle_gamma 90.000000
_cell_volume 5249.956325
_symmetry_space_group_name_H-M "I B C A "
_symmetry_group_IT_number 73
_symmetry_cell_setting 'orthorhombic'
loop_
_space_group_symop_operation_xyz
x,y,z
-x,1/2-y,z
x,-y,1/2-z
1/2-x,y,-z
-x,-y,-z
x,1/2+y,-z
-x,y,1/2+z
1/2+x,-y,z
1/2+x,1/2+y,1/2+z
1/2-x,-y,1/2+z
1/2+x,1/2-y,-z
-x,1/2+y,1/2-z
1/2-x,1/2-y,1/2-z
1/2+x,y,1/2-z
1/2-x,1/2+y,z
x,1/2-y,1/2+z
loop_
_atom_site_type_symbol
_atom_site_label
_atom_site_fract_x
_atom_site_fract_y
_atom_site_fract_z
Si Si1 0.493066 0.551888 0.443589
Si Si2 0.190078 0.812182 0.591062
Si Si3 0.463482 0.856176 0.709949
Si Si4 0.843248 0.943899 0.721820
Si Si5 0.652986 0.403340 0.194891
Si Si6 0.601969 0.218752 0.141788
Si Si7 0.987632 0.839606 0.489112
O O1 0.500000 0.500000 0.500000
O O2 0.396876 0.557937 0.377007
O O3 0.590513 0.561855 0.376915
O O4 0.481453 0.600599 0.507408
O O5 0.250000 0.803254 0.500000
O O6 0.220033 0.862516 0.641633
O O7 0.185436 0.761072 0.646564
O O8 0.080233 0.825633 0.553688
O O9 0.405946 0.908567 0.709717
O O10 0.570016 0.870559 0.753577
O O11 0.400568 0.822796 0.780662
O O12 0.484785 0.828060 0.615285
O O13 0.727037 0.930434 0.734846
O O14 0.856241 0.000000 0.750000
O O15 0.500000 0.250000 0.155487
O O16 0.598604 0.191079 0.041930
#
# Coordination Sequence:
#
# PCOD9530362 Si02
#       7
#    16  16  16  16  16  16  16
#     4  10  21  42  69  94 130 178 226 277 341 411
#     4  10  20  39  62  91 127 169 222 277 334 402
#     4  11  21  42  67  89 133 176 215 276 345 404
#     4  11  23  40  64  97 131 169 227 282 334 413
#     4  10  22  42  64  94 130 175 228 279 334 416
#     4  10  19  40  62  90 128 165 221 271 324 408
#     4  10  20  38  63  90 121 169 217 267 325 403
#
# _framework density 21.333511000000001
#
# number of rings (size 3 to 8) (size 9 to 14) (size 15 to 20)
#    0.000    1.714    5.714    1.714    0.000    6.286 
#    2.571    3.571    0.000    0.000    0.000    0.000 
#    0.000    0.000    0.000    0.000    0.000    0.000 
#
# Total GULP energy -312092.894156 kJ/mol
# GULP energy per Si atom -5573.087396 kJ/mol
# Density = 2.128496 g / cm^3
# Si number density = 21.333511 Si / 1000 Ang^3
#
#
#
# Elastic Constant Matrix: (Units=GPa)
#
#
# Indices 1 2 3 4 5 6 
#
# 1 43.3129 26.2570 28.0552 0.0000 0.0000 0.0000
# 2 26.2570 123.1543 41.2640 0.0000 0.0000 0.0000
# 3 28.0552 41.2640 91.6512 -0.0001 -0.0001 0.0000
# 4 0.0000 0.0000 -0.0001 -0.9470 0.0000 0.0000
# 5 0.0000 0.0000 -0.0001 0.0000 22.5152 0.0000
# 6 0.0000 0.0000 0.0000 0.0000 0.0000 19.2307
#
#
#
# Elastic Compliance Matrix: (Units=1/GPa)
#
#
# Indices 1 2 3 4 5 6 
#
# 1 0.030349 -0.003954 -0.007510 0.000001 0.000000 0.000000
# 2 -0.003954 0.010078 -0.003327 0.000001 0.000000 0.000000
# 3 -0.007510 -0.003327 0.014708 -0.000002 0.000000 0.000000
# 4 0.000001 0.000001 -0.000002 -1.055990 0.000000 0.000000
# 5 0.000000 0.000000 0.000000 0.000000 0.044415 0.000000
# 6 0.000000 0.000000 0.000000 0.000000 0.000000 0.052000
#
#
# Mechanical properties :
#
#
# Convention : Reuss Voigt Hill
#
# Bulk Modulus (GPa) = 39.13493 49.91900 44.52697
# Shear Modulus (GPa) = -5.77140 18.99591 6.61226
#
# Velocity S-wave (km/s) = -1.64657 2.98724 1.76244
# Velocity P-wave (km/s) = 3.84308 5.94544 5.00587
#
# Compressibility (1/GPa) = 0.02555262
#
# Stress axis : x y z
#
# Youngs Moduli (GPa) = 32.94958 99.22941 67.99218
#
# Poissons Ratio (x) = 0.39239 0.51061
# Poissons Ratio (y) = 0.13030 0.22620
# Poissons Ratio (z) = 0.24745 0.33011
#
# Static dielectric constant tensor:
#      x y z
#    x 1.790470 0.000000 0.000000 
#    y 0.000000 1.803650 0.000000 
#    z 0.000000 0.000000 1.758110 
# 
# From -- ./inp_files/17378.got.cif
#   From: 2010.05.17/outbox.cif.g08.bks.cpg/sg73_9_cif.got.tgz:17378.got - 2010.06.03 17:35:07.
