data_PCOD9530317
_publ_section_title
;
Structure prediction by ZEFSAII (Michael W. Deem and Ramdas Pophale) SiO2 
 PCOD9530317
Probable space group: I B C A 
;
_chemical_formula_sum "Si O2"
_cell_formula_units_Z 104
_cell_length_a 19.545656
_cell_length_b 18.956606
_cell_length_c 14.720645
_cell_angle_alpha 90.000000
_cell_angle_beta 90.000000
_cell_angle_gamma 90.000000
_cell_volume 5454.283078
_symmetry_space_group_name_H-M "I B C A "
_symmetry_group_IT_number 73
_symmetry_cell_setting 'orthorhombic'
loop_
_space_group_symop_operation_xyz
x,y,z
-x,1/2-y,z
x,-y,1/2-z
1/2-x,y,-z
-x,-y,-z
x,1/2+y,-z
-x,y,1/2+z
1/2+x,-y,z
1/2+x,1/2+y,1/2+z
1/2-x,-y,1/2+z
1/2+x,1/2-y,-z
-x,1/2+y,1/2-z
1/2-x,1/2-y,1/2-z
1/2+x,y,1/2-z
1/2-x,1/2+y,z
x,1/2-y,1/2+z
loop_
_atom_site_type_symbol
_atom_site_label
_atom_site_fract_x
_atom_site_fract_y
_atom_site_fract_z
Si Si1 0.483607 0.419104 0.532803
Si Si2 0.057793 0.580480 0.242442
Si Si3 0.620326 0.907715 0.402614
Si Si4 0.176199 0.178609 0.677022
Si Si5 0.679007 0.334450 0.763157
Si Si6 0.250000 0.119968 0.500000
Si Si7 0.082594 0.434425 0.644290
O O1 0.500000 0.500000 0.500000
O O2 0.454600 0.408667 0.634267
O O3 0.558333 0.383815 0.533066
O O4 0.432041 0.399487 0.453695
O O5 0.083156 0.500000 0.250000
O O6 0.112074 0.631627 0.291047
O O7 0.984737 0.582783 0.295248
O O8 0.639511 0.846596 0.332228
O O9 0.690742 0.924736 0.452648
O O10 0.593566 0.981043 0.359441
O O11 0.240523 0.163240 0.743818
O O12 0.160117 0.260890 0.690660
O O13 0.208134 0.162896 0.577330
O O14 0.651102 0.399969 0.819015
#
# Coordination Sequence:
#
# PCOD9530317 Si02
#       7
#    16  16  16  16  16   8  16
#     4  10  20  35  60  93 125 158 201 255 319 368
#     4  12  21  39  66  93 125 160 209 264 311 380
#     4  10  19  38  65  89 122 163 202 264 314 371
#     4  10  25  41  64  88 123 171 209 261 316 376
#     4  10  21  45  60  83 126 165 208 254 319 372
#     4  10  22  40  62  88 126 166 220 256 322 386
#     4  11  21  39  66  92 126 165 200 260 323 370
#
# _framework density 19.067582999999999
#
# number of rings (size 3 to 8) (size 9 to 14) (size 15 to 20)
#    0.000    1.538    4.615    1.385    2.154    3.077 
#    8.308    0.000    0.000    0.000    0.000    0.000 
#    0.000    0.000    0.000    0.000    0.000    0.000 
#
# Total GULP energy -289555.665852 kJ/mol
# GULP energy per Si atom -5568.378189 kJ/mol
# Density = 1.902418 g / cm^3
# Si number density = 19.067583 Si / 1000 Ang^3
#
#
#
# Elastic Constant Matrix: (Units=GPa)
#
#
# Indices 1 2 3 4 5 6 
#
# 1 75.8161 34.1326 32.2502 0.0000 0.0000 0.0000
# 2 34.1326 60.4624 17.2202 0.0000 0.0000 0.0000
# 3 32.2502 17.2202 108.4022 0.0000 0.0000 0.0000
# 4 0.0000 0.0000 0.0000 12.5750 0.0000 0.0000
# 5 0.0000 0.0000 0.0000 0.0000 34.3560 0.0000
# 6 0.0000 0.0000 0.0000 0.0000 0.0000 15.2350
#
#
#
# Elastic Compliance Matrix: (Units=1/GPa)
#
#
# Indices 1 2 3 4 5 6 
#
# 1 0.019364 -0.009731 -0.004215 0.000000 0.000000 0.000000
# 2 -0.009731 0.022213 -0.000634 0.000000 0.000000 0.000000
# 3 -0.004215 -0.000634 0.010580 0.000000 0.000000 0.000000
# 4 0.000000 0.000000 0.000000 0.079523 0.000000 0.000000
# 5 0.000000 0.000000 0.000000 0.000000 0.029107 0.000000
# 6 0.000000 0.000000 0.000000 0.000000 0.000000 0.065638
#
#
# Mechanical properties :
#
#
# Convention : Reuss Voigt Hill
#
# Bulk Modulus (GPa) = 43.48356 45.76520 44.62438
# Shear Modulus (GPa) = 18.99346 23.17173 21.08260
#
# Velocity S-wave (km/s) = 3.15955 3.48981 3.32878
# Velocity P-wave (km/s) = 6.01372 6.34760 6.18292
#
# Compressibility (1/GPa) = 0.02299720
#
# Stress axis : x y z
#
# Youngs Moduli (GPa) = 51.64334 45.01880 94.52196
#
# Poissons Ratio (x) = 0.43807 0.39841
# Poissons Ratio (y) = 0.50253 0.05990
# Poissons Ratio (z) = 0.21768 0.02853
#
# Static dielectric constant tensor:
#      x y z
#    x 1.668500 0.000000 0.000000 
#    y 0.000000 1.640360 0.000000 
#    z 0.000000 0.000000 1.790350 
# 
# From -- ./inp_files/18796.got.cif
#   From: 2010.05.17/outbox.cif.g08.bks.cpg/sg73_10_cif.got.tgz:18796.got - 2010.06.03 17:35:07.
