data_PCOD9530628
_publ_section_title
;
Structure prediction by ZEFSAII (Michael W. Deem and Ramdas Pophale) SiO2 
 PCOD9530628
Probable space group: I B C A 
;
_chemical_formula_sum "Si O2"
_cell_formula_units_Z 80
_cell_length_a 9.233594
_cell_length_b 18.238052
_cell_length_c 24.603230
_cell_angle_alpha 90.000000
_cell_angle_beta 90.000000
_cell_angle_gamma 90.000000
_cell_volume 4143.252022
_symmetry_space_group_name_H-M "I B C A "
_symmetry_group_IT_number 73
_symmetry_cell_setting 'orthorhombic'
loop_
_space_group_symop_operation_xyz
x,y,z
-x,1/2-y,z
x,-y,1/2-z
1/2-x,y,-z
-x,-y,-z
x,1/2+y,-z
-x,y,1/2+z
1/2+x,-y,z
1/2+x,1/2+y,1/2+z
1/2-x,-y,1/2+z
1/2+x,1/2-y,-z
-x,1/2+y,1/2-z
1/2-x,1/2-y,1/2-z
1/2+x,y,1/2-z
1/2-x,1/2+y,z
x,1/2-y,1/2+z
loop_
_atom_site_type_symbol
_atom_site_label
_atom_site_fract_x
_atom_site_fract_y
_atom_site_fract_z
Si Si1 0.750000 0.268041 0.000000
Si Si2 0.227844 0.644029 0.583783
Si Si3 0.380535 0.438458 0.178026
Si Si4 0.375987 0.000000 0.250000
Si Si5 0.519422 0.469879 0.412445
Si Si6 0.950960 0.098636 0.477816
O O1 0.725817 0.218820 0.945983
O O2 0.879669 0.322706 0.984257
O O3 0.138574 0.634083 0.640423
O O4 0.366427 0.594301 0.596014
O O5 0.118103 0.610005 0.539024
O O6 0.516122 0.443469 0.219238
O O7 0.232931 0.458045 0.209360
O O8 0.418846 0.505144 0.136549
O O9 0.433655 0.442882 0.465476
O O10 0.603295 0.543901 0.431094
#
# Coordination Sequence:
#
# PCOD9530628 Si02
#       6
#     8  16  16   8  16  16
#     4  12  24  34  54  88 130 176 204 238 296 384
#     4  11  21  37  53  86 130 166 199 251 308 376
#     4  10  21  36  62  91 122 153 205 276 319 361
#     4  10  20  38  60  94 118 146 216 286 324 350
#     4  10  20  36  59  85 121 159 209 249 308 361
#     4  10  23  34  56  85 125 166 205 243 298 366
#
# _framework density 19.308503999999999
#
# number of rings (size 3 to 8) (size 9 to 14) (size 15 to 20)
#    0.000    1.600    4.000    0.600    8.400    0.000 
#    0.000    0.000    0.000    0.000    0.000   53.200 
#    0.000    0.000    0.000    0.000    0.000    0.000 
#
# Total GULP energy -222769.770880 kJ/mol
# GULP energy per Si atom -5569.244272 kJ/mol
# Density = 1.926456 g / cm^3
# Si number density = 19.308504 Si / 1000 Ang^3
#
#
#
# Elastic Constant Matrix: (Units=GPa)
#
#
# Indices 1 2 3 4 5 6 
#
# 1 80.7626 27.2399 41.1692 0.0000 0.0000 0.0000
# 2 27.2399 102.2522 42.4088 0.0000 0.0000 0.0000
# 3 41.1692 42.4088 111.1320 0.0000 0.0000 0.0000
# 4 0.0000 0.0000 0.0000 15.4816 0.0000 0.0000
# 5 0.0000 0.0000 0.0000 0.0000 35.8677 0.0000
# 6 0.0000 0.0000 0.0000 0.0000 0.0000 10.9506
#
#
#
# Elastic Compliance Matrix: (Units=1/GPa)
#
#
# Indices 1 2 3 4 5 6 
#
# 1 0.015633 -0.002094 -0.004992 0.000000 0.000000 0.000000
# 2 -0.002094 0.011899 -0.003765 0.000000 0.000000 0.000000
# 3 -0.004992 -0.003765 0.012284 0.000000 0.000000 0.000000
# 4 0.000000 0.000000 0.000000 0.064593 0.000000 0.000000
# 5 0.000000 0.000000 0.000000 0.000000 0.027880 0.000000
# 6 0.000000 0.000000 0.000000 0.000000 0.000000 0.091320
#
#
# Mechanical properties :
#
#
# Convention : Reuss Voigt Hill
#
# Bulk Modulus (GPa) = 55.20602 57.30918 56.25760
# Shear Modulus (GPa) = 19.89259 24.68190 22.28724
#
# Velocity S-wave (km/s) = 3.21323 3.57920 3.40114
# Velocity P-wave (km/s) = 6.51307 6.84296 6.68005
#
# Compressibility (1/GPa) = 0.01811397
#
# Stress axis : x y z
#
# Youngs Moduli (GPa) = 63.96691 84.03960 81.40379
#
# Poissons Ratio (x) = 0.17599 0.40638
# Poissons Ratio (y) = 0.13396 0.30649
# Poissons Ratio (z) = 0.31933 0.31641
#
# Static dielectric constant tensor:
#      x y z
#    x 1.762110 0.000000 0.000000 
#    y 0.000000 1.699750 0.000000 
#    z 0.000000 0.000000 1.782590 
# 
# From -- ./inp_files/28899.got.cif
#   From: 2010.05.17/outbox.cif.g08.bks.cpg/sg73_15_cif.got.tgz:28899.got - 2010.06.03 17:35:07.
