data_PCOD9530514
_publ_section_title
;
Structure prediction by ZEFSAII (Michael W. Deem and Ramdas Pophale) SiO2 
 PCOD9530514
Probable space group: I B C A 
;
_chemical_formula_sum "Si O2"
_cell_formula_units_Z 120
_cell_length_a 23.763433
_cell_length_b 8.141227
_cell_length_c 30.116981
_cell_angle_alpha 90.000000
_cell_angle_beta 90.000000
_cell_angle_gamma 90.000000
_cell_volume 5826.536625
_symmetry_space_group_name_H-M "I B C A "
_symmetry_group_IT_number 73
_symmetry_cell_setting 'orthorhombic'
loop_
_space_group_symop_operation_xyz
x,y,z
-x,1/2-y,z
x,-y,1/2-z
1/2-x,y,-z
-x,-y,-z
x,1/2+y,-z
-x,y,1/2+z
1/2+x,-y,z
1/2+x,1/2+y,1/2+z
1/2-x,-y,1/2+z
1/2+x,1/2-y,-z
-x,1/2+y,1/2-z
1/2-x,1/2-y,1/2-z
1/2+x,y,1/2-z
1/2-x,1/2+y,z
x,1/2-y,1/2+z
loop_
_atom_site_type_symbol
_atom_site_label
_atom_site_fract_x
_atom_site_fract_y
_atom_site_fract_z
Si Si1 0.311327 0.900466 0.181427
Si Si2 0.620772 0.281683 0.886560
Si Si3 0.520696 0.575570 0.292471
Si Si4 0.699290 0.230748 0.058614
Si Si5 0.000000 0.750000 0.849437
Si Si6 0.357046 0.212354 0.229586
Si Si7 0.182301 0.103376 0.348735
Si Si8 0.821603 0.142459 0.531435
O O1 0.352294 0.870582 0.139945
O O2 0.331708 0.776459 0.221015
O O3 0.247383 0.892601 0.165731
O O4 0.319902 0.075938 0.204149
O O5 0.555898 0.302983 0.875157
O O6 0.658976 0.433342 0.868464
O O7 0.629513 0.280716 0.939061
O O8 0.500000 0.750000 0.312158
O O9 0.487231 0.500000 0.250000
O O10 0.520081 0.415550 0.323428
O O11 0.580361 0.639172 0.272553
O O12 0.680149 0.232382 0.109817
O O13 0.765119 0.269346 0.050507
O O14 0.687802 0.046967 0.042239
O O15 0.670545 0.341529 0.021136
O O16 0.352776 0.362554 0.195915
#
# Coordination Sequence:
#
# PCOD9530514 Si02
#       8
#    16  16  16  16   8  16  16  16
#     4  11  21  38  56  87 126 164 203 255 320 380
#     4  11  23  40  63  90 125 170 213 263 328 378
#     4  12  23  41  64  89 119 169 230 283 315 371
#     4  10  20  34  59  89 122 157 200 255 325 389
#     4  12  24  46  66  90 132 170 230 280 318 386
#     4  11  23  39  55  87 123 166 216 249 327 380
#     4  11  23  37  60  91 125 162 206 260 318 403
#     4  10  20  36  58  93 123 156 204 256 327 384
#
# _framework density 20.595424999999999
#
# number of rings (size 3 to 8) (size 9 to 14) (size 15 to 20)
#    0.000    1.067    4.667    3.600    1.867    2.667 
#    0.000    0.000    0.000    3.200    1.733    0.000 
#    0.000    0.000    0.000    0.000    0.000    0.000 
#
# Total GULP energy -334506.486246 kJ/mol
# GULP energy per Si atom -5575.108104 kJ/mol
# Density = 2.054855 g / cm^3
# Si number density = 20.595425 Si / 1000 Ang^3
#
#
#
# Elastic Constant Matrix: (Units=GPa)
#
#
# Indices 1 2 3 4 5 6 
#
# 1 88.3643 5.0581 18.0900 0.0000 0.0000 0.0000
# 2 5.0581 65.2499 12.8092 0.0000 0.0000 0.0000
# 3 18.0900 12.8092 66.1314 0.0000 0.0000 0.0000
# 4 0.0000 0.0000 0.0000 35.5083 0.0000 0.0000
# 5 0.0000 0.0000 0.0000 0.0000 -18.6049 0.0000
# 6 0.0000 0.0000 0.0000 0.0000 0.0000 7.0107
#
#
#
# Elastic Compliance Matrix: (Units=1/GPa)
#
#
# Indices 1 2 3 4 5 6 
#
# 1 0.011994 -0.000297 -0.003223 0.000000 0.000000 0.000000
# 2 -0.000297 0.015939 -0.003006 0.000000 0.000000 0.000000
# 3 -0.003223 -0.003006 0.016585 0.000000 0.000000 0.000000
# 4 0.000000 0.000000 0.000000 0.028162 0.000000 0.000000
# 5 0.000000 0.000000 0.000000 0.000000 -0.053749 0.000000
# 6 0.000000 0.000000 0.000000 0.000000 0.000000 0.142638
#
#
# Mechanical properties :
#
#
# Convention : Reuss Voigt Hill
#
# Bulk Modulus (GPa) = 31.78104 32.40670 32.09387
# Shear Modulus (GPa) = 27.01091 17.03538 22.02315
#
# Velocity S-wave (km/s) = 3.62539 2.87913 3.27360
# Velocity P-wave (km/s) = 5.74363 5.17896 5.46858
#
# Compressibility (1/GPa) = 0.03146530
#
# Stress axis : x y z
#
# Youngs Moduli (GPa) = 83.37740 62.73986 60.29407
#
# Poissons Ratio (x) = 0.01863 0.19435
# Poissons Ratio (y) = 0.02476 0.18124
# Poissons Ratio (z) = 0.26875 0.18860
#
# Static dielectric constant tensor:
#      x y z
#    x 1.762350 0.000000 0.000000 
#    y 0.000000 1.817990 0.000000 
#    z 0.000000 0.000000 1.817260 
# 
# From -- ./inp_files/34819.got.cif
#   From: 2010.05.17/outbox.cif.g08.bks.cpg/sg73_18_cif.got.tgz:34819.got - 2010.06.03 17:35:07.
