data_PCOD9530498
_publ_section_title
;
Structure prediction by ZEFSAII (Michael W. Deem and Ramdas Pophale) SiO2 
 PCOD9530498
Probable space group: I B C A 
;
_chemical_formula_sum "Si O2"
_cell_formula_units_Z 104
_cell_length_a 13.125553
_cell_length_b 20.121681
_cell_length_c 22.450396
_cell_angle_alpha 90.000000
_cell_angle_beta 90.000000
_cell_angle_gamma 90.000000
_cell_volume 5929.333462
_symmetry_space_group_name_H-M "I B C A "
_symmetry_group_IT_number 73
_symmetry_cell_setting 'orthorhombic'
loop_
_space_group_symop_operation_xyz
x,y,z
-x,1/2-y,z
x,-y,1/2-z
1/2-x,y,-z
-x,-y,-z
x,1/2+y,-z
-x,y,1/2+z
1/2+x,-y,z
1/2+x,1/2+y,1/2+z
1/2-x,-y,1/2+z
1/2+x,1/2-y,-z
-x,1/2+y,1/2-z
1/2-x,1/2-y,1/2-z
1/2+x,y,1/2-z
1/2-x,1/2+y,z
x,1/2-y,1/2+z
loop_
_atom_site_type_symbol
_atom_site_label
_atom_site_fract_x
_atom_site_fract_y
_atom_site_fract_z
Si Si1 0.681834 0.343331 0.059390
Si Si2 0.044884 0.107113 0.439516
Si Si3 0.235016 0.803700 0.071568
Si Si4 0.417903 0.500000 0.750000
Si Si5 0.051692 0.977162 0.358872
Si Si6 0.102421 0.910278 0.925896
Si Si7 0.287248 0.032049 0.142744
O O1 0.559741 0.352243 0.048464
O O2 0.712700 0.272334 0.087358
O O3 0.706564 0.402512 0.103738
O O4 0.750000 0.351404 0.000000
O O5 0.134532 0.153462 0.413965
O O6 0.090670 0.082040 0.502905
O O7 0.024969 0.045402 0.395068
O O8 0.336088 0.843645 0.091209
O O9 0.250000 0.802575 0.000000
O O10 0.491785 0.465866 0.797491
O O11 0.345610 0.540443 0.794715
O O12 0.169688 0.981868 0.346649
O O13 0.011637 0.917911 0.400807
O O14 0.164943 0.970700 0.895235
#
# Coordination Sequence:
#
# PCOD9530498 Si02
#       7
#    16  16  16   8  16  16  16
#     4  11  22  34  54  89 122 154 194 232 293 359
#     4  11  19  34  57  86 119 153 189 236 293 354
#     4   9  20  35  53  81 125 159 181 230 292 363
#     4  10  22  40  54  84 116 144 200 244 302 324
#     4  11  21  35  59  87 107 151 193 246 290 349
#     4  10  20  34  56  88 122 147 188 236 302 345
#     4  11  22  36  60  86 114 153 190 254 283 354
#
# _framework density 17.539914
#
# number of rings (size 3 to 8) (size 9 to 14) (size 15 to 20)
#    0.000    1.538    4.615    2.308    2.154    0.000 
#    0.000    2.308    0.000    3.692    8.000    0.000 
#    0.000    0.000    0.000    0.000    0.000    0.000 
#
# Total GULP energy -289506.973012 kJ/mol
# GULP energy per Si atom -5567.441789 kJ/mol
# Density = 1.749999 g / cm^3
# Si number density = 17.539914 Si / 1000 Ang^3
#
#
#
# Elastic Constant Matrix: (Units=GPa)
#
#
# Indices 1 2 3 4 5 6 
#
# 1 88.5726 25.2942 12.1724 0.0000 0.0000 0.0000
# 2 25.2942 86.5958 36.3840 0.0000 0.0000 0.0000
# 3 12.1724 36.3840 74.7552 0.0000 0.0000 0.0000
# 4 0.0000 0.0000 0.0000 -2.2502 0.0000 0.0000
# 5 0.0000 0.0000 0.0000 0.0000 31.4620 0.0000
# 6 0.0000 0.0000 0.0000 0.0000 0.0000 24.8004
#
#
#
# Elastic Compliance Matrix: (Units=1/GPa)
#
#
# Indices 1 2 3 4 5 6 
#
# 1 0.012324 -0.003465 -0.000320 0.000000 0.000000 0.000000
# 2 -0.003465 0.015491 -0.006975 0.000000 0.000000 0.000000
# 3 -0.000320 -0.006975 0.016824 0.000000 0.000000 0.000000
# 4 0.000000 0.000000 0.000000 -0.444414 0.000000 0.000000
# 5 0.000000 0.000000 0.000000 0.000000 0.031784 0.000000
# 6 0.000000 0.000000 0.000000 0.000000 0.000000 0.040322
#
#
# Mechanical properties :
#
#
# Convention : Reuss Voigt Hill
#
# Bulk Modulus (GPa) = 43.25748 44.18053 43.71901
# Shear Modulus (GPa) = -16.75368 22.54066 2.89349
#
# Velocity S-wave (km/s) = -3.09394 3.58873 1.28578
# Velocity P-wave (km/s) = 3.45724 6.51270 5.21382
#
# Compressibility (1/GPa) = 0.02311739
#
# Stress axis : x y z
#
# Youngs Moduli (GPa) = 81.14423 64.55446 59.43870
#
# Poissons Ratio (x) = 0.22369 0.01903
# Poissons Ratio (y) = 0.28118 0.41460
# Poissons Ratio (z) = 0.02598 0.45029
#
# Static dielectric constant tensor:
#      x y z
#    x 1.673400 0.000000 0.000000 
#    y 0.000000 1.597240 0.000000 
#    z 0.000000 0.000000 1.591780 
# 
# From -- ./inp_files/29672.got.cif
#   From: 2010.05.17/outbox.cif.g08.bks.cpg/sg73_15_cif.got.tgz:29672.got - 2010.06.03 17:35:07.
