data_PCOD9530940
_publ_section_title
;
Structure prediction by ZEFSAII (Michael W. Deem and Ramdas Pophale) SiO2 
 PCOD9530940
Probable space group: I B C A 
;
_chemical_formula_sum "Si O2"
_cell_formula_units_Z 72
_cell_length_a 16.568807
_cell_length_b 16.212820
_cell_length_c 13.144731
_cell_angle_alpha 90.000000
_cell_angle_beta 90.000000
_cell_angle_gamma 90.000000
_cell_volume 3531.030778
_symmetry_space_group_name_H-M "I B C A "
_symmetry_group_IT_number 73
_symmetry_cell_setting 'orthorhombic'
loop_
_space_group_symop_operation_xyz
x,y,z
-x,1/2-y,z
x,-y,1/2-z
1/2-x,y,-z
-x,-y,-z
x,1/2+y,-z
-x,y,1/2+z
1/2+x,-y,z
1/2+x,1/2+y,1/2+z
1/2-x,-y,1/2+z
1/2+x,1/2-y,-z
-x,1/2+y,1/2-z
1/2-x,1/2-y,1/2-z
1/2+x,y,1/2-z
1/2-x,1/2+y,z
x,1/2-y,1/2+z
loop_
_atom_site_type_symbol
_atom_site_label
_atom_site_fract_x
_atom_site_fract_y
_atom_site_fract_z
Si Si1 0.693720 0.812813 0.153669
Si Si2 0.580295 0.890742 0.983260
Si Si3 0.750000 0.178178 0.000000
Si Si4 0.094839 0.083941 0.563479
Si Si5 0.139080 0.334073 0.271775
O O1 0.638704 0.759933 0.230092
O O2 0.766923 0.859810 0.207920
O O3 0.642350 0.862284 0.071142
O O4 0.740885 0.739904 0.094094
O O5 0.594799 0.842426 0.878734
O O6 0.594045 0.986473 0.955481
O O7 0.489784 0.880732 0.023731
O O8 0.830081 0.123661 0.003506
O O9 0.104922 0.108938 0.681640
#
# Coordination Sequence:
#
# PCOD9530940 Si02
#       5
#    16  16   8  16  16
#     4  10  21  41  69  99 128 172 221 264 334 382
#     4  11  22  46  67  94 136 176 211 282 326 387
#     4  10  20  40  60 100 126 168 212 266 320 392
#     4  10  25  41  67  99 132 171 222 262 339 386
#     4  10  21  42  68  96 131 169 223 267 316 403
#
# _framework density 20.390644999999999
#
# number of rings (size 3 to 8) (size 9 to 14) (size 15 to 20)
#    0.000    1.778    2.222    0.667    3.111    3.556 
#   16.000    0.000    0.000    0.000    0.000    0.000 
#    0.000    0.000    0.000    0.000    0.000    0.000 
#
# Total GULP energy -201042.305520 kJ/mol
# GULP energy per Si atom -5584.508487 kJ/mol
# Density = 2.034424 g / cm^3
# Si number density = 20.390645 Si / 1000 Ang^3
#
#
#
# Elastic Constant Matrix: (Units=GPa)
#
#
# Indices 1 2 3 4 5 6 
#
# 1 137.3149 52.0250 96.4344 0.0000 0.0000 0.0000
# 2 52.0250 44.3267 62.8905 0.0000 0.0000 0.0000
# 3 96.4344 62.8905 150.7567 0.0000 0.0000 0.0000
# 4 0.0000 0.0000 0.0000 30.1733 0.0000 0.0000
# 5 0.0000 0.0000 0.0000 0.0000 41.8960 0.0000
# 6 0.0000 0.0000 0.0000 0.0000 0.0000 27.4456
#
#
#
# Elastic Compliance Matrix: (Units=1/GPa)
#
#
# Indices 1 2 3 4 5 6 
#
# 1 0.014719 -0.009598 -0.005412 0.000000 0.000000 0.000000
# 2 -0.009598 0.061534 -0.019531 0.000000 0.000000 0.000000
# 3 -0.005412 -0.019531 0.018243 0.000000 0.000000 0.000000
# 4 0.000000 0.000000 0.000000 0.033142 0.000000 0.000000
# 5 0.000000 0.000000 0.000000 0.000000 0.023869 0.000000
# 6 0.000000 0.000000 0.000000 0.000000 0.000000 0.036436
#
#
# Mechanical properties :
#
#
# Convention : Reuss Voigt Hill
#
# Bulk Modulus (GPa) = 39.34516 83.89977 61.62247
# Shear Modulus (GPa) = 18.83276 27.97287 23.40282
#
# Velocity S-wave (km/s) = 3.04237 3.70787 3.39148
# Velocity P-wave (km/s) = 5.62841 7.71794 6.75446
#
# Compressibility (1/GPa) = 0.02541608
#
# Stress axis : x y z
#
# Youngs Moduli (GPa) = 67.93748 16.25108 54.81700
#
# Poissons Ratio (x) = 0.15597 0.29666
# Poissons Ratio (y) = 0.65203 1.07062
# Poissons Ratio (z) = 0.36766 0.31740
#
# Static dielectric constant tensor:
#      x y z
#    x 1.745400 0.000000 0.000000 
#    y 0.000000 1.740890 0.000000 
#    z 0.000000 0.000000 1.760840 
# 
# From -- ./inp_files/16777.got.cif
#   From: 2010.05.17/outbox.cif.g08.bks.cpg/sg73_9_cif.got.tgz:16777.got - 2010.06.03 17:35:07.
