data_PCOD9530974
_publ_section_title
;
Structure prediction by ZEFSAII (Michael W. Deem and Ramdas Pophale) SiO2 
 PCOD9530974
Probable space group: I B C A 
;
_chemical_formula_sum "Si O2"
_cell_formula_units_Z 72
_cell_length_a 11.059283
_cell_length_b 14.227016
_cell_length_c 17.830825
_cell_angle_alpha 90.000000
_cell_angle_beta 90.000000
_cell_angle_gamma 90.000000
_cell_volume 2805.512636
_symmetry_space_group_name_H-M "I B C A "
_symmetry_group_IT_number 73
_symmetry_cell_setting 'orthorhombic'
loop_
_space_group_symop_operation_xyz
x,y,z
-x,1/2-y,z
x,-y,1/2-z
1/2-x,y,-z
-x,-y,-z
x,1/2+y,-z
-x,y,1/2+z
1/2+x,-y,z
1/2+x,1/2+y,1/2+z
1/2-x,-y,1/2+z
1/2+x,1/2-y,-z
-x,1/2+y,1/2-z
1/2-x,1/2-y,1/2-z
1/2+x,y,1/2-z
1/2-x,1/2+y,z
x,1/2-y,1/2+z
loop_
_atom_site_type_symbol
_atom_site_label
_atom_site_fract_x
_atom_site_fract_y
_atom_site_fract_z
Si Si1 0.718273 0.000000 0.250000
Si Si2 0.105489 0.110501 0.661289
Si Si3 0.750000 0.117307 0.500000
Si Si4 0.576725 0.016933 0.094905
Si Si5 0.326932 0.282750 0.104272
Si Si6 0.500000 0.250000 0.739932
O O1 0.812243 0.917586 0.267779
O O2 0.639859 0.004875 0.175850
O O3 0.943397 0.475655 0.611589
O O4 0.190626 0.178278 0.613235
O O5 0.997794 0.163989 0.702284
O O6 0.651662 0.051413 0.459225
O O7 0.681515 0.189176 0.555790
O O8 0.596707 0.126473 0.074471
O O9 0.387447 0.258820 0.183951
#
# Coordination Sequence:
#
# PCOD9530974 Si02
#       6
#     8  16   8  16  16   8
#     4  10  20  40  66 100 130 170 228 288 348 410
#     4  11  21  40  67 100 135 176 230 292 351 412
#     4  12  26  48  66  98 142 192 238 288 352 430
#     4  11  24  44  72 101 141 188 233 293 358 421
#     4  11  26  43  67 102 139 183 235 289 353 428
#     4  12  22  40  68 102 136 178 228 294 354 414
#
# _framework density 25.663758999999999
#
# number of rings (size 3 to 8) (size 9 to 14) (size 15 to 20)
#    0.000    0.889    0.000    8.667    0.000    3.556 
#    0.000    6.667    0.000    0.000    0.000    0.000 
#    0.000    0.000    0.000    0.000    0.000    0.000 
#
# Total GULP energy -201452.808084 kJ/mol
# GULP energy per Si atom -5595.911336 kJ/mol
# Density = 2.560535 g / cm^3
# Si number density = 25.663759 Si / 1000 Ang^3
#
#
#
# Elastic Constant Matrix: (Units=GPa)
#
#
# Indices 1 2 3 4 5 6 
#
# 1 70.9240 15.7419 20.1452 0.0000 0.0000 0.0000
# 2 15.7419 136.5942 37.4096 0.0000 0.0000 0.0000
# 3 20.1452 37.4096 80.6369 0.0000 0.0000 0.0000
# 4 0.0000 0.0000 0.0000 60.1645 0.0000 0.0000
# 5 0.0000 0.0000 0.0000 0.0000 37.4134 0.0000
# 6 0.0000 0.0000 0.0000 0.0000 0.0000 42.8134
#
#
#
# Elastic Compliance Matrix: (Units=1/GPa)
#
#
# Indices 1 2 3 4 5 6 
#
# 1 0.015256 -0.000818 -0.003432 0.000000 0.000000 0.000000
# 2 -0.000818 0.008430 -0.003707 0.000000 0.000000 0.000000
# 3 -0.003432 -0.003707 0.014978 0.000000 0.000000 0.000000
# 4 0.000000 0.000000 0.000000 0.016621 0.000000 0.000000
# 5 0.000000 0.000000 0.000000 0.000000 0.026728 0.000000
# 6 0.000000 0.000000 0.000000 0.000000 0.000000 0.023357
#
#
# Mechanical properties :
#
#
# Convention : Reuss Voigt Hill
#
# Bulk Modulus (GPa) = 43.95362 48.30537 46.12950
# Shear Modulus (GPa) = 38.79928 42.40216 40.60072
#
# Velocity S-wave (km/s) = 3.89245 4.06916 3.98178
# Velocity P-wave (km/s) = 6.11273 6.39849 6.25724
#
# Compressibility (1/GPa) = 0.02275125
#
# Stress axis : x y z
#
# Youngs Moduli (GPa) = 65.54809 118.61808 66.76362
#
# Poissons Ratio (x) = 0.09707 0.22911
# Poissons Ratio (y) = 0.05364 0.24747
# Poissons Ratio (z) = 0.22494 0.43968
#
# Static dielectric constant tensor:
#      x y z
#    x 2.103900 0.000000 0.000000 
#    y 0.000000 2.088050 0.000000 
#    z 0.000000 0.000000 2.021770 
# 
# From -- ./inp_files/21841.got.cif
#   From: 2010.05.17/outbox.cif.g08.bks.cpg/sg73_11_cif.got.tgz:21841.got - 2010.06.03 17:35:07.
