data_PCOD9530727
_publ_section_title
;
Structure prediction by ZEFSAII (Michael W. Deem and Ramdas Pophale) SiO2 
 PCOD9530727
Probable space group: I B C A 
;
_chemical_formula_sum "Si O2"
_cell_formula_units_Z 112
_cell_length_a 14.287711
_cell_length_b 14.311797
_cell_length_c 23.356418
_cell_angle_alpha 90.000000
_cell_angle_beta 90.000000
_cell_angle_gamma 90.000000
_cell_volume 4775.986204
_symmetry_space_group_name_H-M "I B C A "
_symmetry_group_IT_number 73
_symmetry_cell_setting 'orthorhombic'
loop_
_space_group_symop_operation_xyz
x,y,z
-x,1/2-y,z
x,-y,1/2-z
1/2-x,y,-z
-x,-y,-z
x,1/2+y,-z
-x,y,1/2+z
1/2+x,-y,z
1/2+x,1/2+y,1/2+z
1/2-x,-y,1/2+z
1/2+x,1/2-y,-z
-x,1/2+y,1/2-z
1/2-x,1/2-y,1/2-z
1/2+x,y,1/2-z
1/2-x,1/2+y,z
x,1/2-y,1/2+z
loop_
_atom_site_type_symbol
_atom_site_label
_atom_site_fract_x
_atom_site_fract_y
_atom_site_fract_z
Si Si1 0.837729 0.105142 0.243643
Si Si2 0.465948 0.525173 0.562982
Si Si3 0.042552 0.853547 0.245843
Si Si4 0.467127 0.856594 0.882709
Si Si5 0.085698 0.189047 0.084407
Si Si6 0.784526 0.787685 0.820227
Si Si7 0.141094 0.824916 0.001884
O O1 0.948800 0.095507 0.231819
O O2 0.793461 0.179048 0.198489
O O3 0.811663 0.163728 0.301486
O O4 0.800064 0.000000 0.250000
O O5 0.500000 0.500000 0.500000
O O6 0.453588 0.432177 0.599332
O O7 0.551052 0.584226 0.589556
O O8 0.386394 0.600483 0.548241
O O9 0.000000 0.750000 0.242496
O O10 0.066850 0.883257 0.181017
O O11 0.133515 0.844137 0.285466
O O12 0.500000 0.750000 0.880725
O O13 0.394713 0.857141 0.935997
O O14 0.183455 0.204397 0.115148
O O15 0.095811 0.227264 0.019815
O O16 0.000000 0.250000 0.111105
O O17 0.250000 0.814549 0.000000
#
# Coordination Sequence:
#
# PCOD9530727 Si02
#       7
#    16  16  16  16  16  16  16
#     4  10  22  38  59  89 123 160 206 254 302 366
#     4   9  19  38  58  82 113 152 199 242 296 371
#     4   9  20  38  59  82 114 157 197 245 304 360
#     4  10  20  38  59  80 115 159 198 241 303 368
#     4  10  20  37  61  85 116 160 202 249 310 371
#     4  10  22  41  60  88 125 158 203 255 309 374
#     4  10  21  36  58  87 115 150 199 253 305 358
#
# _framework density 23.450654
#
# number of rings (size 3 to 8) (size 9 to 14) (size 15 to 20)
#    0.000    2.286    0.000    3.429    0.000    9.714 
#    0.000   10.714    0.000    0.000    0.000    0.000 
#    0.000    0.000    0.000    0.000    0.000    0.000 
#
# Total GULP energy -312292.019503 kJ/mol
# GULP energy per Si atom -5576.643205 kJ/mol
# Density = 2.339728 g / cm^3
# Si number density = 23.450654 Si / 1000 Ang^3
#
#
#
# Elastic Constant Matrix: (Units=GPa)
#
#
# Indices 1 2 3 4 5 6 
#
# 1 72.1351 3.7546 -2.1415 0.0000 0.0000 0.0000
# 2 3.7546 128.0245 0.0733 0.0000 0.0000 0.0000
# 3 -2.1415 0.0733 70.9092 0.0000 0.0000 0.0000
# 4 0.0000 0.0000 0.0000 15.7899 0.0000 0.0000
# 5 0.0000 0.0000 0.0000 0.0000 34.6190 0.0000
# 6 0.0000 0.0000 0.0000 0.0000 0.0000 17.4429
#
#
#
# Elastic Compliance Matrix: (Units=1/GPa)
#
#
# Indices 1 2 3 4 5 6 
#
# 1 0.013897 -0.000408 0.000420 0.000000 0.000000 0.000000
# 2 -0.000408 0.007823 -0.000020 0.000000 0.000000 0.000000
# 3 0.000420 -0.000020 0.014115 0.000000 0.000000 0.000000
# 4 0.000000 0.000000 0.000000 0.063332 0.000000 0.000000
# 5 0.000000 0.000000 0.000000 0.000000 0.028886 0.000000
# 6 0.000000 0.000000 0.000000 0.000000 0.000000 0.057330
#
#
# Mechanical properties :
#
#
# Convention : Reuss Voigt Hill
#
# Bulk Modulus (GPa) = 27.91843 30.49352 29.20598
# Shear Modulus (GPa) = 25.33726 31.52920 28.43323
#
# Velocity S-wave (km/s) = 3.29059 3.67071 3.48583
# Velocity P-wave (km/s) = 5.13501 5.56749 5.35562
#
# Compressibility (1/GPa) = 0.03581863
#
# Stress axis : x y z
#
# Youngs Moduli (GPa) = 71.96021 127.82863 70.84536
#
# Poissons Ratio (x) = 0.05213 -0.02976
# Poissons Ratio (y) = 0.02934 0.00145
# Poissons Ratio (z) = -0.03023 0.00261
#
# Static dielectric constant tensor:
#      x y z
#    x 1.884170 0.000000 0.000000 
#    y 0.000000 1.903540 0.000000 
#    z 0.000000 0.000000 1.942100 
# 
# From -- ./inp_files/32169.got.cif
#   From: 2010.05.17/outbox.cif.g08.bks.cpg/sg73_17_cif.got.tgz:32169.got - 2010.06.03 17:35:07.
