data_PCOD9530833
_publ_section_title
;
Structure prediction by ZEFSAII (Michael W. Deem and Ramdas Pophale) SiO2 
 PCOD9530833
Probable space group: I B C A 
;
_chemical_formula_sum "Si O2"
_cell_formula_units_Z 96
_cell_length_a 28.940083
_cell_length_b 19.500385
_cell_length_c 8.231648
_cell_angle_alpha 90.000000
_cell_angle_beta 90.000000
_cell_angle_gamma 90.000000
_cell_volume 4645.470955
_symmetry_space_group_name_H-M "I B C A "
_symmetry_group_IT_number 73
_symmetry_cell_setting 'orthorhombic'
loop_
_space_group_symop_operation_xyz
x,y,z
-x,1/2-y,z
x,-y,1/2-z
1/2-x,y,-z
-x,-y,-z
x,1/2+y,-z
-x,y,1/2+z
1/2+x,-y,z
1/2+x,1/2+y,1/2+z
1/2-x,-y,1/2+z
1/2+x,1/2-y,-z
-x,1/2+y,1/2-z
1/2-x,1/2-y,1/2-z
1/2+x,y,1/2-z
1/2-x,1/2+y,z
x,1/2-y,1/2+z
loop_
_atom_site_type_symbol
_atom_site_label
_atom_site_fract_x
_atom_site_fract_y
_atom_site_fract_z
Si Si1 0.879439 0.953866 0.592876
Si Si2 0.692926 0.345763 0.651975
Si Si3 0.342562 0.768110 0.538184
Si Si4 0.500000 0.750000 0.688980
Si Si5 0.717935 0.623058 0.346492
Si Si6 0.652798 0.500000 0.250000
Si Si7 0.933745 0.188076 0.949924
O O1 0.829180 0.920365 0.630595
O O2 0.911636 0.886709 0.571260
O O3 0.891942 0.000000 0.750000
O O4 0.875733 0.991631 0.418456
O O5 0.686042 0.301801 0.489653
O O6 0.663045 0.304391 0.788384
O O7 0.743753 0.349485 0.722660
O O8 0.317603 0.820652 0.415716
O O9 0.394205 0.743424 0.498835
O O10 0.460369 0.786075 0.792443
O O11 0.473662 0.692862 0.584378
O O12 0.750000 0.599591 0.500000
O O13 0.686532 0.564318 0.272626
#
# Coordination Sequence:
#
# PCOD9530833 Si02
#       7
#    16  16  16   8  16   8  16
#     4  11  25  47  66  98 137 187 227 281 324 402
#     4  10  22  38  63  92 138 174 228 279 332 374
#     4  10  20  38  63  96 128 173 217 281 336 395
#     4  10  22  42  72 108 130 162 210 280 364 426
#     4  10  23  39  58  94 135 181 234 280 316 385
#     4  12  28  40  70  90 128 202 234 264 330 394
#     4  10  22  42  72 102 135 167 214 281 350 415
#
# _framework density 20.665289000000001
#
# number of rings (size 3 to 8) (size 9 to 14) (size 15 to 20)
#    0.000    1.667    0.000    4.500   10.500    0.000 
#    3.000    0.833    0.000    0.000    0.000    0.000 
#    0.000    0.000    0.000    0.000    0.000    0.000 
#
# Total GULP energy -268107.164672 kJ/mol
# GULP energy per Si atom -5585.565931 kJ/mol
# Density = 2.061825 g / cm^3
# Si number density = 20.665289 Si / 1000 Ang^3
#
#
#
# Elastic Constant Matrix: (Units=GPa)
#
#
# Indices 1 2 3 4 5 6 
#
# 1 107.3662 40.9719 63.3823 0.0000 0.0000 0.0000
# 2 40.9719 82.9963 38.5585 0.0000 0.0000 0.0000
# 3 63.3823 38.5585 124.2732 0.0000 0.0000 0.0000
# 4 0.0000 0.0000 0.0000 20.3279 0.0000 0.0000
# 5 0.0000 0.0000 0.0000 0.0000 28.4238 0.0000
# 6 0.0000 0.0000 0.0000 0.0000 0.0000 15.9496
#
#
#
# Elastic Compliance Matrix: (Units=1/GPa)
#
#
# Indices 1 2 3 4 5 6 
#
# 1 0.014567 -0.004369 -0.006074 0.000000 0.000000 0.000000
# 2 -0.004369 0.015389 -0.002546 0.000000 0.000000 0.000000
# 3 -0.006074 -0.002546 0.011935 0.000000 0.000000 0.000000
# 4 0.000000 0.000000 0.000000 0.049194 0.000000 0.000000
# 5 0.000000 0.000000 0.000000 0.000000 0.035182 0.000000
# 6 0.000000 0.000000 0.000000 0.000000 0.000000 0.062698
#
#
# Mechanical properties :
#
#
# Convention : Reuss Voigt Hill
#
# Bulk Modulus (GPa) = 62.84777 66.71791 64.78284
# Shear Modulus (GPa) = 22.70195 24.38845 23.54520
#
# Velocity S-wave (km/s) = 3.31804 3.43908 3.37910
# Velocity P-wave (km/s) = 6.71993 6.93720 6.82943
#
# Compressibility (1/GPa) = 0.01591146
#
# Stress axis : x y z
#
# Youngs Moduli (GPa) = 68.64899 64.98320 83.79025
#
# Poissons Ratio (x) = 0.28393 0.50892
# Poissons Ratio (y) = 0.29995 0.21335
# Poissons Ratio (z) = 0.41696 0.16546
#
# Static dielectric constant tensor:
#      x y z
#    x 1.722310 0.000000 0.000000 
#    y 0.000000 1.763620 0.000000 
#    z 0.000000 0.000000 1.832430 
# 
# From -- ./inp_files/7861.got.cif
#   From: 2010.05.17/outbox.cif.g08.bks.cpg/sg73_4_cif.got.tgz:7861.got - 2010.06.03 17:35:07.
