data_PCOD9530724
_publ_section_title
;
Structure prediction by ZEFSAII (Michael W. Deem and Ramdas Pophale) SiO2 
 PCOD9530724
Probable space group: I B C A 
;
_chemical_formula_sum "Si O2"
_cell_formula_units_Z 88
_cell_length_a 18.987644
_cell_length_b 22.649217
_cell_length_c 8.053592
_cell_angle_alpha 90.000000
_cell_angle_beta 90.000000
_cell_angle_gamma 90.000000
_cell_volume 3463.489676
_symmetry_space_group_name_H-M "I B C A "
_symmetry_group_IT_number 73
_symmetry_cell_setting 'orthorhombic'
loop_
_space_group_symop_operation_xyz
x,y,z
-x,1/2-y,z
x,-y,1/2-z
1/2-x,y,-z
-x,-y,-z
x,1/2+y,-z
-x,y,1/2+z
1/2+x,-y,z
1/2+x,1/2+y,1/2+z
1/2-x,-y,1/2+z
1/2+x,1/2-y,-z
-x,1/2+y,1/2-z
1/2-x,1/2-y,1/2-z
1/2+x,y,1/2-z
1/2-x,1/2+y,z
x,1/2-y,1/2+z
loop_
_atom_site_type_symbol
_atom_site_label
_atom_site_fract_x
_atom_site_fract_y
_atom_site_fract_z
Si Si1 0.415399 0.235646 0.505438
Si Si2 0.151214 0.662031 0.207035
Si Si3 0.447124 0.576518 0.933717
Si Si4 0.909079 0.878703 0.699193
Si Si5 0.130375 0.015275 0.429307
Si Si6 0.250000 0.917489 0.500000
O O1 0.500000 0.250000 0.472314
O O2 0.373046 0.293273 0.561432
O O3 0.368805 0.200625 0.368322
O O4 0.412171 0.190221 0.661653
O O5 0.221650 0.627204 0.144584
O O6 0.096516 0.608298 0.209858
O O7 0.422180 0.606596 0.108306
O O8 0.425941 0.508300 0.939497
O O9 0.525568 0.594489 0.901243
O O10 0.848201 0.916999 0.603637
O O11 0.097667 0.000000 0.250000
O O12 0.191155 0.966009 0.450706
#
# Coordination Sequence:
#
# PCOD9530724 Si02
#       6
#    16  16  16  16  16   8
#     4  12  24  39  65 100 138 174 219 279 337 397
#     4  11  24  42  65  95 133 178 220 273 329 392
#     4  10  20  37  60  95 132 167 211 265 330 392
#     4  11  21  37  64  98 134 173 210 264 336 395
#     4   9  21  40  63  89 127 171 216 272 322 387
#     4  10  24  46  66  90 132 176 230 276 318 392
#
# _framework density 25.407900000000001
#
# number of rings (size 3 to 8) (size 9 to 14) (size 15 to 20)
#    0.000    1.455    1.818    3.273    0.000    2.182 
#    0.000    7.273    0.000    0.000    0.000    0.000 
#    0.000    0.000    0.000    0.000    0.000    0.000 
#
# Total GULP energy -244951.067209 kJ/mol
# GULP energy per Si atom -5567.069709 kJ/mol
# Density = 2.535007 g / cm^3
# Si number density = 25.407900 Si / 1000 Ang^3
#
#
#
# Elastic Constant Matrix: (Units=GPa)
#
#
# Indices 1 2 3 4 5 6 
#
# 1 75.5339 20.4621 9.1469 0.0000 0.0000 0.0000
# 2 20.4621 135.6553 12.2671 0.0000 0.0000 0.0000
# 3 9.1469 12.2671 90.4640 0.0000 0.0000 0.0000
# 4 0.0000 0.0000 0.0000 43.1304 0.0000 0.0000
# 5 0.0000 0.0000 0.0000 0.0000 21.3621 0.0000
# 6 0.0000 0.0000 0.0000 0.0000 0.0000 27.6194
#
#
#
# Elastic Compliance Matrix: (Units=1/GPa)
#
#
# Indices 1 2 3 4 5 6 
#
# 1 0.013918 -0.001997 -0.001136 0.000000 0.000000 0.000000
# 2 -0.001997 0.007750 -0.000849 0.000000 0.000000 0.000000
# 3 -0.001136 -0.000849 0.011284 0.000000 0.000000 0.000000
# 4 0.000000 0.000000 0.000000 0.023185 0.000000 0.000000
# 5 0.000000 0.000000 0.000000 0.000000 0.046812 0.000000
# 6 0.000000 0.000000 0.000000 0.000000 0.000000 0.036206
#
#
# Mechanical properties :
#
#
# Convention : Reuss Voigt Hill
#
# Bulk Modulus (GPa) = 40.02035 42.82279 41.42157
# Shear Modulus (GPa) = 32.16507 35.74087 33.95297
#
# Velocity S-wave (km/s) = 3.56188 3.75465 3.65953
# Velocity P-wave (km/s) = 5.71850 5.97388 5.84758
#
# Compressibility (1/GPa) = 0.02498729
#
# Stress axis : x y z
#
# Youngs Moduli (GPa) = 71.85159 129.03976 88.61984
#
# Poissons Ratio (x) = 0.25763 0.10071
# Poissons Ratio (y) = 0.14345 0.07524
# Poissons Ratio (z) = 0.08166 0.10955
#
# Static dielectric constant tensor:
#      x y z
#    x 2.201940 0.000000 0.000000 
#    y 0.000000 2.347690 0.000000 
#    z 0.000000 0.000000 2.061220 
# 
# From -- ./inp_files/6291.got.cif
#   From: 2010.05.17/outbox.cif.g08.bks.cpg/sg73_4_cif.got.tgz:6291.got - 2010.06.03 17:35:07.
