data_PCOD9530936
_publ_section_title
;
Structure prediction by ZEFSAII (Michael W. Deem and Ramdas Pophale) SiO2 
 PCOD9530936
Probable space group: I B C A 
;
_chemical_formula_sum "Si O2"
_cell_formula_units_Z 72
_cell_length_a 14.400944
_cell_length_b 9.738651
_cell_length_c 24.799658
_cell_angle_alpha 90.000000
_cell_angle_beta 90.000000
_cell_angle_gamma 90.000000
_cell_volume 3478.047075
_symmetry_space_group_name_H-M "I B C A "
_symmetry_group_IT_number 73
_symmetry_cell_setting 'orthorhombic'
loop_
_space_group_symop_operation_xyz
x,y,z
-x,1/2-y,z
x,-y,1/2-z
1/2-x,y,-z
-x,-y,-z
x,1/2+y,-z
-x,y,1/2+z
1/2+x,-y,z
1/2+x,1/2+y,1/2+z
1/2-x,-y,1/2+z
1/2+x,1/2-y,-z
-x,1/2+y,1/2-z
1/2-x,1/2-y,1/2-z
1/2+x,y,1/2-z
1/2-x,1/2+y,z
x,1/2-y,1/2+z
loop_
_atom_site_type_symbol
_atom_site_label
_atom_site_fract_x
_atom_site_fract_y
_atom_site_fract_z
Si Si1 0.845818 0.660968 0.250000
Si Si2 0.250000 0.750000 0.000000
Si Si3 0.638634 0.500000 0.523301
Si Si4 0.000000 0.250000 0.836622
Si Si5 0.500000 0.750000 0.663378
Si Si6 0.049614 0.000000 0.589266
O O1 0.821009 0.500000 0.250000
O O2 0.750000 0.750000 0.250000
O O3 0.915443 0.692434 0.199923
O O4 0.915443 0.692434 0.300077
O O5 0.188847 0.644069 0.965430
O O6 0.311153 0.855932 0.965430
O O7 0.625254 0.500000 0.458155
O O8 0.544441 0.500000 0.554951
O O9 0.045567 0.132739 0.873411
O O10 0.454433 0.632739 0.626589
#
# Coordination Sequence:
#
# PCOD9530936 Si02
#       6
#    16   8  16   8   8  16
#     4  11  26  48  69  99 131 171 217 287 338 394
#     4  10  20  40  56  94 124 182 204 282 300 368
#     4  10  22  40  64  88 144 166 218 258 324 374
#     4  11  24  45  70  96 136 169 228 269 336 394
#     4  11  24  45  70  96 136 169 228 269 336 394
#     4  11  22  43  64  96 124 189 208 261 322 404
#
# _framework density 20.701273
#
# number of rings (size 3 to 8) (size 9 to 14) (size 15 to 20)
#    0.000    1.333    2.222    2.667    3.111    3.556 
#   24.000    0.000    0.000    0.000    0.000    0.000 
#    0.000    0.000    0.000    0.000    0.000    0.000 
#
# Total GULP energy -200901.544722 kJ/mol
# GULP energy per Si atom -5580.598465 kJ/mol
# Density = 2.065416 g / cm^3
# Si number density = 20.701273 Si / 1000 Ang^3
#
#
#
# Elastic Constant Matrix: (Units=GPa)
#
#
# Indices 1 2 3 4 5 6 
#
# 1 107.7955 51.8337 20.1837 0.0000 0.0000 0.0000
# 2 51.8337 192.4003 54.9293 0.0000 0.0000 0.0000
# 3 20.1837 54.9293 104.0729 0.0000 0.0000 0.0000
# 4 0.0000 0.0000 0.0000 26.6032 0.0000 0.0000
# 5 0.0000 0.0000 0.0000 0.0000 4.6628 0.0000
# 6 0.0000 0.0000 0.0000 0.0000 0.0000 38.7523
#
#
#
# Elastic Compliance Matrix: (Units=1/GPa)
#
#
# Indices 1 2 3 4 5 6 
#
# 1 0.010695 -0.002695 -0.000652 0.000000 0.000000 0.000000
# 2 -0.002695 0.006799 -0.003066 0.000000 0.000000 0.000000
# 3 -0.000652 -0.003066 0.011353 0.000000 0.000000 0.000000
# 4 0.000000 0.000000 0.000000 0.037589 0.000000 0.000000
# 5 0.000000 0.000000 0.000000 0.000000 0.214465 0.000000
# 6 0.000000 0.000000 0.000000 0.000000 0.000000 0.025805
#
#
# Mechanical properties :
#
#
# Convention : Reuss Voigt Hill
#
# Bulk Modulus (GPa) = 62.41529 73.12911 67.77220
# Shear Modulus (GPa) = 15.39070 32.49179 23.94124
#
# Velocity S-wave (km/s) = 2.72962 3.96606 3.40444
# Velocity P-wave (km/s) = 6.33643 7.50836 6.94715
#
# Compressibility (1/GPa) = 0.01602172
#
# Stress axis : x y z
#
# Youngs Moduli (GPa) = 93.50303 147.08376 88.08179
#
# Poissons Ratio (x) = 0.39642 0.05739
# Poissons Ratio (y) = 0.25201 0.27003
# Poissons Ratio (z) = 0.06093 0.45091
#
# Static dielectric constant tensor:
#      x y z
#    x 1.749410 0.000000 0.000000 
#    y 0.000000 1.705220 0.000000 
#    z 0.000000 0.000000 1.747200 
# 
# From -- ./inp_files/19694.got.cif
#   From: 2010.05.17/outbox.cif.g08.bks.cpg/sg73_10_cif.got.tgz:19694.got - 2010.06.03 17:35:07.
