data_PCOD9530344
_publ_section_title
;
Structure prediction by ZEFSAII (Michael W. Deem and Ramdas Pophale) SiO2 
 PCOD9530344
Probable space group: I B C A 
;
_chemical_formula_sum "Si O2"
_cell_formula_units_Z 80
_cell_length_a 13.854218
_cell_length_b 23.415526
_cell_length_c 13.110224
_cell_angle_alpha 90.000000
_cell_angle_beta 90.000000
_cell_angle_gamma 90.000000
_cell_volume 4253.006508
_symmetry_space_group_name_H-M "I B C A "
_symmetry_group_IT_number 73
_symmetry_cell_setting 'orthorhombic'
loop_
_space_group_symop_operation_xyz
x,y,z
-x,1/2-y,z
x,-y,1/2-z
1/2-x,y,-z
-x,-y,-z
x,1/2+y,-z
-x,y,1/2+z
1/2+x,-y,z
1/2+x,1/2+y,1/2+z
1/2-x,-y,1/2+z
1/2+x,1/2-y,-z
-x,1/2+y,1/2-z
1/2-x,1/2-y,1/2-z
1/2+x,y,1/2-z
1/2-x,1/2+y,z
x,1/2-y,1/2+z
loop_
_atom_site_type_symbol
_atom_site_label
_atom_site_fract_x
_atom_site_fract_y
_atom_site_fract_z
Si Si1 0.989166 0.831769 0.333879
Si Si2 0.139475 0.328956 0.963520
Si Si3 0.141904 0.460981 0.963671
Si Si4 0.363439 0.745527 0.266003
Si Si5 0.498368 0.036256 0.844599
O O1 0.934454 0.824681 0.441907
O O2 0.915032 0.806400 0.249724
O O3 0.084741 0.793852 0.319559
O O4 0.013635 0.897623 0.317667
O O5 0.136454 0.395091 0.926516
O O6 0.117035 0.285047 0.873458
O O7 0.250000 0.318983 0.000000
O O8 0.098993 0.505129 0.882507
O O9 0.250000 0.472857 0.000000
O O10 0.073659 0.465291 0.062584
O O11 0.250000 0.750000 0.250000
O O12 0.536447 0.000000 0.750000
#
# Coordination Sequence:
#
# PCOD9530344 Si02
#       5
#    16  16  16  16  16
#     4  10  23  39  62  90 122 159 207 253 316 366
#     4  10  19  39  64  85 123 164 201 261 312 367
#     4   9  20  37  61  90 121 161 203 245 314 375
#     4  11  22  39  62  89 121 163 213 247 308 379
#     4  10  20  39  62  89 124 156 201 254 306 368
#
# _framework density 18.810222
#
# number of rings (size 3 to 8) (size 9 to 14) (size 15 to 20)
#    0.000    2.000    2.000    1.200    0.000    4.000 
#    3.600    0.000    0.000    0.000    0.000    0.000 
#    0.000    0.000    0.000    0.000    0.000    0.000 
#
# Total GULP energy -223214.305212 kJ/mol
# GULP energy per Si atom -5580.357630 kJ/mol
# Density = 1.876741 g / cm^3
# Si number density = 18.810222 Si / 1000 Ang^3
#
#
#
# Elastic Constant Matrix: (Units=GPa)
#
#
# Indices 1 2 3 4 5 6 
#
# 1 117.4600 40.6766 24.1913 0.0000 0.0000 0.0000
# 2 40.6766 132.9784 58.6189 0.0001 0.0000 0.0000
# 3 24.1913 58.6189 77.2563 0.0002 0.0000 0.0000
# 4 0.0000 0.0001 0.0002 36.7293 0.0000 0.0000
# 5 0.0000 0.0000 0.0000 0.0000 20.3936 0.0000
# 6 0.0000 0.0000 0.0000 0.0000 0.0000 29.0802
#
#
#
# Elastic Compliance Matrix: (Units=1/GPa)
#
#
# Indices 1 2 3 4 5 6 
#
# 1 0.009592 -0.002419 -0.001168 0.000000 0.000000 0.000000
# 2 -0.002419 0.011909 -0.008279 0.000000 0.000000 0.000000
# 3 -0.001168 -0.008279 0.019591 0.000000 0.000000 0.000000
# 4 0.000000 0.000000 0.000000 0.027226 0.000000 0.000000
# 5 0.000000 0.000000 0.000000 0.000000 0.049035 0.000000
# 6 0.000000 0.000000 0.000000 0.000000 0.000000 0.034388
#
#
# Mechanical properties :
#
#
# Convention : Reuss Voigt Hill
#
# Bulk Modulus (GPa) = 57.60162 63.85205 60.72684
# Shear Modulus (GPa) = 27.58463 30.85449 29.21956
#
# Velocity S-wave (km/s) = 3.83361 4.05446 3.94558
# Velocity P-wave (km/s) = 7.09115 7.47912 7.28772
#
# Compressibility (1/GPa) = 0.01736062
#
# Stress axis : x y z
#
# Youngs Moduli (GPa) = 104.25526 83.96669 51.04303
#
# Poissons Ratio (x) = 0.20313 0.05961
# Poissons Ratio (y) = 0.25221 0.42258
# Poissons Ratio (z) = 0.12176 0.69515
#
# Static dielectric constant tensor:
#      x y z
#    x 1.642590 0.000000 0.000000 
#    y 0.000000 1.669840 0.000000 
#    z 0.000000 0.000000 1.665570 
# 
# From -- ./inp_files/10832.got.cif
#   From: 2010.05.17/outbox.cif.g08.bks.cpg/sg73_6_cif.got.tgz:10832.got - 2010.06.03 17:35:07.
