data_PCOD9530203
_publ_section_title
;
Structure prediction by ZEFSAII (Michael W. Deem and Ramdas Pophale) SiO2 
 PCOD9530203
Probable space group: I B C A 
;
_chemical_formula_sum "Si O2"
_cell_formula_units_Z 120
_cell_length_a 18.185322
_cell_length_b 22.853725
_cell_length_c 15.147271
_cell_angle_alpha 90.000000
_cell_angle_beta 90.000000
_cell_angle_gamma 90.000000
_cell_volume 6295.241394
_symmetry_space_group_name_H-M "I B C A "
_symmetry_group_IT_number 73
_symmetry_cell_setting 'orthorhombic'
loop_
_space_group_symop_operation_xyz
x,y,z
-x,1/2-y,z
x,-y,1/2-z
1/2-x,y,-z
-x,-y,-z
x,1/2+y,-z
-x,y,1/2+z
1/2+x,-y,z
1/2+x,1/2+y,1/2+z
1/2-x,-y,1/2+z
1/2+x,1/2-y,-z
-x,1/2+y,1/2-z
1/2-x,1/2-y,1/2-z
1/2+x,y,1/2-z
1/2-x,1/2+y,z
x,1/2-y,1/2+z
loop_
_atom_site_type_symbol
_atom_site_label
_atom_site_fract_x
_atom_site_fract_y
_atom_site_fract_z
Si Si1 0.000000 0.250000 0.730043
Si Si2 0.987670 0.641430 0.136447
Si Si3 0.756339 0.371325 0.393776
Si Si4 0.138444 0.434377 0.781521
Si Si5 0.375624 0.217466 0.560848
Si Si6 0.359989 0.149545 0.069962
Si Si7 0.154516 0.276088 0.141965
Si Si8 0.302591 0.850644 0.630356
O O1 0.012311 0.308258 0.788250
O O2 0.072360 0.235127 0.674289
O O3 0.933180 0.590696 0.168432
O O4 0.949527 0.679313 0.057930
O O5 0.066906 0.618522 0.105664
O O6 0.750000 0.381275 0.500000
O O7 0.791355 0.427012 0.346598
O O8 0.818559 0.320933 0.384406
O O9 0.688473 0.340571 0.342414
O O10 0.128152 0.500000 0.750000
O O11 0.157629 0.392628 0.698976
O O12 0.379366 0.282950 0.595800
O O13 0.343466 0.223809 0.464012
O O14 0.282317 0.132949 0.112948
O O15 0.345106 0.146961 0.964420
O O16 0.197202 0.216467 0.165590
#
# Coordination Sequence:
#
# PCOD9530203 Si02
#       8
#     8  16  16  16  16  16  16  16
#     4  12  22  28  52  96 122 156 188 242 320 378
#     4  11  22  35  56  86 123 161 197 245 315 371
#     4   9  19  38  61  87 119 163 203 255 324 377
#     4  11  25  44  61  83 123 169 214 262 298 362
#     4   9  17  31  54  83 124 155 183 241 313 387
#     4  10  19  35  59  90 120 156 194 249 315 377
#     4  10  20  32  54  91 123 150 191 250 313 375
#     4  10  21  37  61  88 121 157 200 250 311 365
#
# _framework density 19.062017000000001
#
# number of rings (size 3 to 8) (size 9 to 14) (size 15 to 20)
#    0.000    1.867    4.000    0.000    5.600    0.533 
#    2.400    1.333    0.000    0.000    0.000    0.000 
#    0.000    0.000    0.000    0.000    0.000    0.000 
#
# Total GULP energy -334346.415547 kJ/mol
# GULP energy per Si atom -5572.440259 kJ/mol
# Density = 1.901863 g / cm^3
# Si number density = 19.062017 Si / 1000 Ang^3
#
#
#
# Elastic Constant Matrix: (Units=GPa)
#
#
# Indices 1 2 3 4 5 6 
#
# 1 121.7365 31.3861 26.8353 0.0000 0.0000 0.0000
# 2 31.3861 76.3456 28.6130 0.0000 0.0000 0.0000
# 3 26.8353 28.6130 53.6126 0.0000 0.0000 0.0000
# 4 0.0000 0.0000 0.0000 19.0292 0.0000 0.0000
# 5 0.0000 0.0000 0.0000 0.0000 20.7910 0.0000
# 6 0.0000 0.0000 0.0000 0.0000 0.0000 16.1272
#
#
#
# Elastic Compliance Matrix: (Units=1/GPa)
#
#
# Indices 1 2 3 4 5 6 
#
# 1 0.009658 -0.002699 -0.003394 0.000000 0.000000 0.000000
# 2 -0.002699 0.017127 -0.007790 0.000000 0.000000 0.000000
# 3 -0.003394 -0.007790 0.024509 0.000000 0.000000 0.000000
# 4 0.000000 0.000000 0.000000 0.052551 0.000000 0.000000
# 5 0.000000 0.000000 0.000000 0.000000 0.048098 0.000000
# 6 0.000000 0.000000 0.000000 0.000000 0.000000 0.062007
#
#
# Mechanical properties :
#
#
# Convention : Reuss Voigt Hill
#
# Bulk Modulus (GPa) = 42.50101 47.26261 44.88181
# Shear Modulus (GPa) = 20.03535 22.18017 21.10776
#
# Velocity S-wave (km/s) = 3.24552 3.41483 3.33125
# Velocity P-wave (km/s) = 6.03234 6.35579 6.19618
#
# Compressibility (1/GPa) = 0.02352885
#
# Stress axis : x y z
#
# Youngs Moduli (GPa) = 103.53670 58.38632 40.80158
#
# Poissons Ratio (x) = 0.15756 0.13849
# Poissons Ratio (y) = 0.27940 0.31785
# Poissons Ratio (z) = 0.35143 0.45484
#
# Static dielectric constant tensor:
#      x y z
#    x 1.770510 0.000000 0.000000 
#    y 0.000000 1.657980 0.000000 
#    z 0.000000 0.000000 1.714610 
# 
# From -- ./inp_files/18254.got.cif
#   From: 2010.05.17/outbox.cif.g08.bks.cpg/sg73_10_cif.got.tgz:18254.got - 2010.06.03 17:35:07.
