data_PCOD9530604
_publ_section_title
;
Structure prediction by ZEFSAII (Michael W. Deem and Ramdas Pophale) SiO2 
 PCOD9530604
Probable space group: I B C A 
;
_chemical_formula_sum "Si O2"
_cell_formula_units_Z 120
_cell_length_a 28.642078
_cell_length_b 27.465771
_cell_length_c 8.105693
_cell_angle_alpha 90.000000
_cell_angle_beta 90.000000
_cell_angle_gamma 90.000000
_cell_volume 6376.560269
_symmetry_space_group_name_H-M "I B C A "
_symmetry_group_IT_number 73
_symmetry_cell_setting 'orthorhombic'
loop_
_space_group_symop_operation_xyz
x,y,z
-x,1/2-y,z
x,-y,1/2-z
1/2-x,y,-z
-x,-y,-z
x,1/2+y,-z
-x,y,1/2+z
1/2+x,-y,z
1/2+x,1/2+y,1/2+z
1/2-x,-y,1/2+z
1/2+x,1/2-y,-z
-x,1/2+y,1/2-z
1/2-x,1/2-y,1/2-z
1/2+x,y,1/2-z
1/2-x,1/2+y,z
x,1/2-y,1/2+z
loop_
_atom_site_type_symbol
_atom_site_label
_atom_site_fract_x
_atom_site_fract_y
_atom_site_fract_z
Si Si1 0.189191 0.800037 0.201259
Si Si2 0.362173 0.365761 0.968671
Si Si3 0.952146 0.147506 0.808223
Si Si4 0.547999 0.771289 0.038274
Si Si5 0.885996 0.717510 0.751986
Si Si6 0.750000 0.777825 0.000000
Si Si7 0.926157 0.054153 0.196970
Si Si8 0.984122 0.410107 0.012362
O O1 0.179902 0.848523 0.092407
O O2 0.142640 0.767970 0.241772
O O3 0.216340 0.759268 0.095947
O O4 0.218968 0.807461 0.368166
O O5 0.404448 0.356156 0.095432
O O6 0.356181 0.327213 0.818932
O O7 0.382780 0.414580 0.877955
O O8 0.957737 0.194502 0.696263
O O9 0.957313 0.102655 0.679543
O O10 0.992964 0.139316 0.940248
O O11 0.500000 0.750000 0.971888
O O12 0.575381 0.724743 0.108180
O O13 0.584556 0.793884 0.910202
O O14 0.949733 0.073865 0.366785
O O15 0.912257 0.000000 0.250000
O O16 0.970287 0.057652 0.066246
#
# Coordination Sequence:
#
# PCOD9530604 Si02
#       8
#    16  16  16  16  16   8  16  16
#     4  11  20  39  56  84 112 155 183 239 288 367
#     4  11  22  37  52  77 109 148 188 239 301 352
#     4  10  21  34  46  70 102 144 195 239 286 343
#     4  12  24  29  45  69 106 155 207 240 272 336
#     4  12  22  36  49  73 111 157 193 235 293 332
#     4  10  22  36  62  84 112 148 194 222 292 384
#     4  10  20  36  57  79 108 151 203 256 305 347
#     4   9  20  34  53  73 103 146 204 260 299 325
#
# _framework density 18.818923000000002
#
# number of rings (size 3 to 8) (size 9 to 14) (size 15 to 20)
#    0.000    1.333    4.000    1.600    9.333    0.000 
#    0.000    0.000    0.000    0.000    0.000    0.000 
#    0.000    3.200    0.000    0.000    0.000    0.000 
#
# Total GULP energy -334038.258765 kJ/mol
# GULP energy per Si atom -5567.304313 kJ/mol
# Density = 1.877609 g / cm^3
# Si number density = 18.818923 Si / 1000 Ang^3
#
#
#
# Elastic Constant Matrix: (Units=GPa)
#
#
# Indices 1 2 3 4 5 6 
#
# 1 51.6159 23.7670 30.5845 0.0000 0.0000 0.0000
# 2 23.7670 84.7236 30.5662 0.0000 0.0000 0.0000
# 3 30.5845 30.5662 107.4171 0.0000 0.0000 0.0000
# 4 0.0000 0.0000 0.0000 12.5528 0.0000 0.0000
# 5 0.0000 0.0000 0.0000 0.0000 39.8039 0.0000
# 6 0.0000 0.0000 0.0000 0.0000 0.0000 14.2442
#
#
#
# Elastic Compliance Matrix: (Units=1/GPa)
#
#
# Indices 1 2 3 4 5 6 
#
# 1 0.025048 -0.004963 -0.005720 0.000000 0.000000 0.000000
# 2 -0.004963 0.014137 -0.002610 0.000000 0.000000 0.000000
# 3 -0.005720 -0.002610 0.011681 0.000000 0.000000 0.000000
# 4 0.000000 0.000000 0.000000 0.079664 0.000000 0.000000
# 5 0.000000 0.000000 0.000000 0.000000 0.025123 0.000000
# 6 0.000000 0.000000 0.000000 0.000000 0.000000 0.070204
#
#
# Mechanical properties :
#
#
# Convention : Reuss Voigt Hill
#
# Bulk Modulus (GPa) = 41.18440 45.95467 43.56954
# Shear Modulus (GPa) = 19.19127 23.90943 21.55035
#
# Velocity S-wave (km/s) = 3.19687 3.56827 3.38767
# Velocity P-wave (km/s) = 5.96312 6.43810 6.20516
#
# Compressibility (1/GPa) = 0.02428104
#
# Stress axis : x y z
#
# Youngs Moduli (GPa) = 39.92285 70.73713 85.61191
#
# Poissons Ratio (x) = 0.35108 0.48967
# Poissons Ratio (y) = 0.19814 0.22341
# Poissons Ratio (z) = 0.22834 0.18460
#
# Static dielectric constant tensor:
#      x y z
#    x 1.755410 0.000000 0.000000 
#    y 0.000000 1.708630 0.000000 
#    z 0.000000 0.000000 1.724480 
# 
# From -- ./inp_files/8117.got.cif
#   From: 2010.05.17/outbox.cif.g08.bks.cpg/sg73_5_cif.got.tgz:8117.got - 2010.06.03 17:35:07.
