data_PCOD9530680
_publ_section_title
;
Structure prediction by ZEFSAII (Michael W. Deem and Ramdas Pophale) SiO2 
 PCOD9530680
Probable space group: I B C A 
;
_chemical_formula_sum "Si O2"
_cell_formula_units_Z 112
_cell_length_a 16.058200
_cell_length_b 16.704278
_cell_length_c 20.313835
_cell_angle_alpha 90.000000
_cell_angle_beta 90.000000
_cell_angle_gamma 90.000000
_cell_volume 5448.996040
_symmetry_space_group_name_H-M "I B C A "
_symmetry_group_IT_number 73
_symmetry_cell_setting 'orthorhombic'
loop_
_space_group_symop_operation_xyz
x,y,z
-x,1/2-y,z
x,-y,1/2-z
1/2-x,y,-z
-x,-y,-z
x,1/2+y,-z
-x,y,1/2+z
1/2+x,-y,z
1/2+x,1/2+y,1/2+z
1/2-x,-y,1/2+z
1/2+x,1/2-y,-z
-x,1/2+y,1/2-z
1/2-x,1/2-y,1/2-z
1/2+x,y,1/2-z
1/2-x,1/2+y,z
x,1/2-y,1/2+z
loop_
_atom_site_type_symbol
_atom_site_label
_atom_site_fract_x
_atom_site_fract_y
_atom_site_fract_z
Si Si1 0.000000 0.750000 0.419813
Si Si2 0.488847 0.933018 0.557256
Si Si3 0.825652 0.516459 0.095598
Si Si4 0.284273 0.391018 0.642013
Si Si5 0.087238 0.499531 0.319817
Si Si6 0.748892 0.105258 0.210175
Si Si7 0.312379 0.763058 0.118948
Si Si8 0.250000 0.868727 0.000000
O O1 0.001487 0.837467 0.456869
O O2 0.911884 0.748104 0.379786
O O3 0.546843 0.957574 0.618449
O O4 0.500000 0.000000 0.500000
O O5 0.397697 0.953062 0.585968
O O6 0.741891 0.464103 0.095708
O O7 0.822359 0.567342 0.163569
O O8 0.819041 0.577975 0.036282
O O9 0.379733 0.410693 0.660286
O O10 0.234694 0.395478 0.712047
O O11 0.249544 0.311613 0.610081
O O12 0.038877 0.500000 0.250000
O O13 0.169617 0.551113 0.302879
O O14 0.777180 0.190823 0.182731
O O15 0.294848 0.818871 0.056365
#
# Coordination Sequence:
#
# PCOD9530680 Si02
#       8
#     8  16  16  16  16  16  16   8
#     4  12  24  42  60  96 130 172 214 264 340 394
#     4  12  25  41  65  93 130 175 213 271 329 392
#     4  10  21  37  59  88 116 163 213 256 310 384
#     4  10  20  36  64  92 115 166 215 258 318 390
#     4   9  20  39  62  89 126 164 206 260 329 378
#     4   9  19  38  63  89 124 158 209 266 317 379
#     4  11  21  39  61  90 129 160 212 265 325 383
#     4  10  24  40  60  84 126 172 212 268 316 372
#
# _framework density 20.554245000000002
#
# number of rings (size 3 to 8) (size 9 to 14) (size 15 to 20)
#    0.000    1.714    2.857    2.571    4.000    2.857 
#    0.000    0.000    0.000    0.857    0.000    0.000 
#    0.000    0.000    0.000    0.000    0.000    0.000 
#
# Total GULP energy -311763.051048 kJ/mol
# GULP energy per Si atom -5567.197340 kJ/mol
# Density = 2.050746 g / cm^3
# Si number density = 20.554245 Si / 1000 Ang^3
#
#
#
# Elastic Constant Matrix: (Units=GPa)
#
#
# Indices 1 2 3 4 5 6 
#
# 1 48.8644 17.4076 8.0733 0.0000 0.0000 0.0000
# 2 17.4076 128.6735 37.3510 0.0000 0.0000 0.0000
# 3 8.0733 37.3510 90.8072 0.0000 0.0000 0.0000
# 4 0.0000 0.0000 0.0000 24.4466 0.0000 0.0000
# 5 0.0000 0.0000 0.0000 0.0000 14.2754 0.0000
# 6 0.0000 0.0000 0.0000 0.0000 0.0000 28.7594
#
#
#
# Elastic Compliance Matrix: (Units=1/GPa)
#
#
# Indices 1 2 3 4 5 6 
#
# 1 0.021554 -0.002680 -0.000814 0.000000 0.000000 0.000000
# 2 -0.002680 0.009158 -0.003529 0.000000 0.000000 0.000000
# 3 -0.000814 -0.003529 0.012536 0.000000 0.000000 0.000000
# 4 0.000000 0.000000 0.000000 0.040905 0.000000 0.000000
# 5 0.000000 0.000000 0.000000 0.000000 0.070051 0.000000
# 6 0.000000 0.000000 0.000000 0.000000 0.000000 0.034771
#
#
# Mechanical properties :
#
#
# Convention : Reuss Voigt Hill
#
# Bulk Modulus (GPa) = 34.24250 43.77876 39.01063
# Shear Modulus (GPa) = 23.50115 27.19716 25.34916
#
# Velocity S-wave (km/s) = 3.38505 3.64151 3.51562
# Velocity P-wave (km/s) = 5.65454 6.24710 5.95819
#
# Compressibility (1/GPa) = 0.02920347
#
# Stress axis : x y z
#
# Youngs Moduli (GPa) = 46.39538 109.18867 79.76893
#
# Poissons Ratio (x) = 0.29258 0.06494
# Poissons Ratio (y) = 0.12432 0.28149
# Poissons Ratio (z) = 0.03777 0.38531
#
# Static dielectric constant tensor:
#      x y z
#    x 1.776720 0.000000 0.000000 
#    y 0.000000 1.837440 0.000000 
#    z 0.000000 0.000000 1.768050 
# 
# From -- ./inp_files/26643.got.cif
#   From: 2010.05.17/outbox.cif.g08.bks.cpg/sg73_14_cif.got.tgz:26643.got - 2010.06.03 17:35:07.
