data_PCOD9530178
_publ_section_title
;
Structure prediction by ZEFSAII (Michael W. Deem and Ramdas Pophale) SiO2 
 PCOD9530178
Probable space group: I B C A 
;
_chemical_formula_sum "Si O2"
_cell_formula_units_Z 80
_cell_length_a 22.140282
_cell_length_b 20.942428
_cell_length_c 9.183835
_cell_angle_alpha 90.000000
_cell_angle_beta 90.000000
_cell_angle_gamma 90.000000
_cell_volume 4258.280362
_symmetry_space_group_name_H-M "I B C A "
_symmetry_group_IT_number 73
_symmetry_cell_setting 'orthorhombic'
loop_
_space_group_symop_operation_xyz
x,y,z
-x,1/2-y,z
x,-y,1/2-z
1/2-x,y,-z
-x,-y,-z
x,1/2+y,-z
-x,y,1/2+z
1/2+x,-y,z
1/2+x,1/2+y,1/2+z
1/2-x,-y,1/2+z
1/2+x,1/2-y,-z
-x,1/2+y,1/2-z
1/2-x,1/2-y,1/2-z
1/2+x,y,1/2-z
1/2-x,1/2+y,z
x,1/2-y,1/2+z
loop_
_atom_site_type_symbol
_atom_site_label
_atom_site_fract_x
_atom_site_fract_y
_atom_site_fract_z
Si Si1 0.280848 0.056834 0.846098
Si Si2 0.794262 0.836880 0.248725
Si Si3 0.895492 0.000000 0.750000
Si Si4 0.981018 0.429140 0.452489
Si Si5 0.750000 0.251796 0.500000
Si Si6 0.085969 0.578444 0.253442
O O1 0.267411 0.121271 0.760013
O O2 0.252901 0.000000 0.750000
O O3 0.349848 0.034459 0.861804
O O4 0.250000 0.062153 0.000000
O O5 0.790662 0.795000 0.393724
O O6 0.850412 0.885288 0.244273
O O7 0.790329 0.791713 0.107300
O O8 0.934025 0.055134 0.823827
O O9 0.947397 0.402603 0.594398
O O10 0.000000 0.500000 0.500000
O O11 0.040906 0.401084 0.377942
O O12 0.092022 0.500000 0.250000
#
# Coordination Sequence:
#
# PCOD9530178 Si02
#       6
#    16  16   8  16   8  16
#     4  10  24  34  59  95 126 156 184 245 313 368
#     4  11  23  43  62  87 116 160 206 255 298 358
#     4  10  22  32  52  90 138 150 182 228 300 382
#     4  10  19  35  52  90 125 163 181 223 297 372
#     4  10  26  44  60  84 114 162 214 250 306 336
#     4  10  22  35  64  91 127 150 194 238 304 366
#
# _framework density 18.786926000000001
#
# number of rings (size 3 to 8) (size 9 to 14) (size 15 to 20)
#    0.600    1.200    4.000    0.600   12.600    0.000 
#    0.000    0.000    0.000    3.600    0.000    0.000 
#    0.000    0.000    0.000    0.000    0.000    0.000 
#
# Total GULP energy -222766.501409 kJ/mol
# GULP energy per Si atom -5569.162535 kJ/mol
# Density = 1.874417 g / cm^3
# Si number density = 18.786926 Si / 1000 Ang^3
#
#
#
# Elastic Constant Matrix: (Units=GPa)
#
#
# Indices 1 2 3 4 5 6 
#
# 1 93.9378 25.5860 25.4041 0.0000 0.0000 0.0000
# 2 25.5860 69.6040 33.0316 0.0000 0.0000 0.0000
# 3 25.4041 33.0316 95.1716 0.0000 0.0000 0.0000
# 4 0.0000 0.0000 0.0000 24.0422 0.0000 0.0000
# 5 0.0000 0.0000 0.0000 0.0000 14.3764 0.0000
# 6 0.0000 0.0000 0.0000 0.0000 0.0000 21.2840
#
#
#
# Elastic Compliance Matrix: (Units=1/GPa)
#
#
# Indices 1 2 3 4 5 6 
#
# 1 0.012148 -0.003504 -0.002027 0.000000 0.000000 0.000000
# 2 -0.003504 0.018211 -0.005385 0.000000 0.000000 0.000000
# 3 -0.002027 -0.005385 0.012917 0.000000 0.000000 0.000000
# 4 0.000000 0.000000 0.000000 0.041594 0.000000 0.000000
# 5 0.000000 0.000000 0.000000 0.000000 0.069559 0.000000
# 6 0.000000 0.000000 0.000000 0.000000 0.000000 0.046984
#
#
# Mechanical properties :
#
#
# Convention : Reuss Voigt Hill
#
# Bulk Modulus (GPa) = 46.63142 47.41743 47.02442
# Shear Modulus (GPa) = 21.70229 23.58662 22.64446
#
# Velocity S-wave (km/s) = 3.40248 3.54712 3.47555
# Velocity P-wave (km/s) = 6.34909 6.48617 6.41800
#
# Compressibility (1/GPa) = 0.02144477
#
# Stress axis : x y z
#
# Youngs Moduli (GPa) = 82.32015 54.91326 77.41537
#
# Poissons Ratio (x) = 0.19240 0.15689
# Poissons Ratio (y) = 0.28842 0.41689
# Poissons Ratio (z) = 0.16683 0.29572
#
# Static dielectric constant tensor:
#      x y z
#    x 1.244490 0.000000 0.000000 
#    y 0.000000 1.645420 0.000000 
#    z 0.000000 0.000000 1.703090 
# 
# From -- ./inp_files/7129.got.cif
#   From: 2010.05.17/outbox.cif.g08.bks.cpg/sg73_4_cif.got.tgz:7129.got - 2010.06.03 17:35:07.
