data_PCOD9530653
_publ_section_title
;
Structure prediction by ZEFSAII (Michael W. Deem and Ramdas Pophale) SiO2 
 PCOD9530653
Probable space group: I B C A 
;
_chemical_formula_sum "Si O2"
_cell_formula_units_Z 112
_cell_length_a 22.966960
_cell_length_b 14.988892
_cell_length_c 16.961678
_cell_angle_alpha 90.000000
_cell_angle_beta 90.000000
_cell_angle_gamma 90.000000
_cell_volume 5839.045490
_symmetry_space_group_name_H-M "I B C A "
_symmetry_group_IT_number 73
_symmetry_cell_setting 'orthorhombic'
loop_
_space_group_symop_operation_xyz
x,y,z
-x,1/2-y,z
x,-y,1/2-z
1/2-x,y,-z
-x,-y,-z
x,1/2+y,-z
-x,y,1/2+z
1/2+x,-y,z
1/2+x,1/2+y,1/2+z
1/2-x,-y,1/2+z
1/2+x,1/2-y,-z
-x,1/2+y,1/2-z
1/2-x,1/2-y,1/2-z
1/2+x,y,1/2-z
1/2-x,1/2+y,z
x,1/2-y,1/2+z
loop_
_atom_site_type_symbol
_atom_site_label
_atom_site_fract_x
_atom_site_fract_y
_atom_site_fract_z
Si Si1 0.094109 0.495954 0.619980
Si Si2 0.205380 0.910179 0.289709
Si Si3 0.648038 0.689428 0.849384
Si Si4 0.596111 0.536121 0.435467
Si Si5 0.546676 0.316925 0.178898
Si Si6 0.209750 0.653274 0.076315
Si Si7 0.531825 0.062796 0.817819
O O1 0.146110 0.441848 0.664278
O O2 0.112761 0.600421 0.624531
O O3 0.087111 0.469730 0.528631
O O4 0.032486 0.472931 0.660544
O O5 0.190484 0.845349 0.218094
O O6 0.249507 0.865308 0.349249
O O7 0.230045 0.000000 0.250000
O O8 0.605143 0.761322 0.811120
O O9 0.680140 0.748877 0.915588
O O10 0.557090 0.607313 0.386832
O O11 0.660891 0.575404 0.424994
O O12 0.574918 0.444986 0.392300
O O13 0.500000 0.250000 0.144428
O O14 0.526338 0.349181 0.265146
O O15 0.250000 0.647882 0.000000
O O16 0.559660 0.000000 0.750000
#
# Coordination Sequence:
#
# PCOD9530653 Si02
#       7
#    16  16  16  16  16  16  16
#     4  11  20  40  62  88 121 162 206 250 311 378
#     4  10  21  39  64  86 114 168 211 250 307 378
#     4  10  22  38  60  88 120 158 206 254 309 367
#     4  10  22  38  62  87 122 162 204 255 305 370
#     4  10  20  38  59  90 126 160 195 257 313 364
#     4  11  22  42  59  86 127 158 204 270 316 354
#     4  10  20  36  61  88 117 155 201 243 301 376
#
# _framework density 19.181217
#
# number of rings (size 3 to 8) (size 9 to 14) (size 15 to 20)
#    0.000    1.714    1.429    4.714    0.000    2.857 
#    7.714    3.571    0.000    0.000    0.000    0.000 
#    0.000    0.000    0.000    0.000    0.000    0.000 
#
# Total GULP energy -312012.281030 kJ/mol
# GULP energy per Si atom -5571.647876 kJ/mol
# Density = 1.913756 g / cm^3
# Si number density = 19.181217 Si / 1000 Ang^3
#
#
#
# Elastic Constant Matrix: (Units=GPa)
#
#
# Indices 1 2 3 4 5 6 
#
# 1 80.4673 30.5977 35.0555 0.0000 0.0000 0.0000
# 2 30.5977 68.2062 28.8752 0.0000 0.0000 0.0000
# 3 35.0555 28.8752 96.5172 0.0000 0.0000 0.0000
# 4 0.0000 0.0000 0.0000 7.1211 0.0000 0.0000
# 5 0.0000 0.0000 0.0000 0.0000 27.8201 0.0000
# 6 0.0000 0.0000 0.0000 0.0000 0.0000 9.0126
#
#
#
# Elastic Compliance Matrix: (Units=1/GPa)
#
#
# Indices 1 2 3 4 5 6 
#
# 1 0.016408 -0.005539 -0.004302 0.000000 0.000000 0.000000
# 2 -0.005539 0.018658 -0.003570 0.000000 0.000000 0.000000
# 3 -0.004302 -0.003570 0.012991 0.000000 0.000000 0.000000
# 4 0.000000 0.000000 0.000000 0.140429 0.000000 0.000000
# 5 0.000000 0.000000 0.000000 0.000000 0.035945 0.000000
# 6 0.000000 0.000000 0.000000 0.000000 0.000000 0.110955
#
#
# Mechanical properties :
#
#
# Convention : Reuss Voigt Hill
#
# Bulk Modulus (GPa) = 47.09403 48.24974 47.67189
# Shear Modulus (GPa) = 13.53958 18.83490 16.18724
#
# Velocity S-wave (km/s) = 2.65972 3.13700 2.90817
# Velocity P-wave (km/s) = 5.83417 6.19115 6.01531
#
# Compressibility (1/GPa) = 0.02123411
#
# Stress axis : x y z
#
# Youngs Moduli (GPa) = 60.94573 53.59697 76.97350
#
# Poissons Ratio (x) = 0.29689 0.33116
# Poissons Ratio (y) = 0.33760 0.27479
# Poissons Ratio (z) = 0.26220 0.19134
#
# Static dielectric constant tensor:
#      x y z
#    x 1.715690 0.000000 0.000000 
#    y 0.000000 1.745650 0.000000 
#    z 0.000000 0.000000 1.654940 
# 
# From -- ./inp_files/19394.got.cif
#   From: 2010.05.17/outbox.cif.g08.bks.cpg/sg73_10_cif.got.tgz:19394.got - 2010.06.03 17:35:07.
