data_PCOD9530442
_publ_section_title
;
Structure prediction by ZEFSAII (Michael W. Deem and Ramdas Pophale) SiO2 
 PCOD9530442
Probable space group: I B C A 
;
_chemical_formula_sum "Si O2"
_cell_formula_units_Z 48
_cell_length_a 24.415595
_cell_length_b 15.254794
_cell_length_c 5.475340
_cell_angle_alpha 90.000000
_cell_angle_beta 90.000000
_cell_angle_gamma 90.000000
_cell_volume 2039.317059
_symmetry_space_group_name_H-M "I B C A "
_symmetry_group_IT_number 73
_symmetry_cell_setting 'orthorhombic'
loop_
_space_group_symop_operation_xyz
x,y,z
-x,1/2-y,z
x,-y,1/2-z
1/2-x,y,-z
-x,-y,-z
x,1/2+y,-z
-x,y,1/2+z
1/2+x,-y,z
1/2+x,1/2+y,1/2+z
1/2-x,-y,1/2+z
1/2+x,1/2-y,-z
-x,1/2+y,1/2-z
1/2-x,1/2-y,1/2-z
1/2+x,y,1/2-z
1/2-x,1/2+y,z
x,1/2-y,1/2+z
loop_
_atom_site_type_symbol
_atom_site_label
_atom_site_fract_x
_atom_site_fract_y
_atom_site_fract_z
Si Si1 0.469734 0.107644 0.251769
Si Si2 0.250000 0.944070 0.000000
Si Si3 0.346334 0.104998 0.246766
Si Si4 0.750000 0.803550 0.000000
O O1 0.500360 0.134236 0.500824
O O2 0.407109 0.141810 0.253810
O O3 0.470028 0.000000 0.250000
O O4 0.194483 0.111650 0.522927
O O5 0.253615 0.000000 0.750000
O O6 0.355367 0.000000 0.250000
O O7 0.306881 0.141162 0.033113
O O8 0.750000 0.750000 0.250000
#
# Coordination Sequence:
#
# PCOD9530442 Si02
#       4
#    16   8  16   8
#     4   9  19  33  55  90 124 155 203 271 327 372
#     4  10  20  32  56  94 122 154 214 276 320 376
#     4  10  21  40  67  92 124 170 223 266 320 404
#     4  12  28  44  62  96 138 170 208 280 352 394
#
# _framework density 23.537292000000001
#
# number of rings (size 3 to 8) (size 9 to 14) (size 15 to 20)
#    0.000    2.000    0.000    5.000    0.000   14.667 
#    0.000    1.667    0.000    6.000    0.000    0.000 
#    0.000    0.000    0.000    0.000    0.000    0.000 
#
# Total GULP energy -133612.285891 kJ/mol
# GULP energy per Si atom -5567.178579 kJ/mol
# Density = 2.348372 g / cm^3
# Si number density = 23.537292 Si / 1000 Ang^3
#
#
#
# Elastic Constant Matrix: (Units=GPa)
#
#
# Indices 1 2 3 4 5 6 
#
# 1 290.0691 26.0278 127.5682 0.0000 0.0000 0.0000
# 2 26.0278 45.6245 49.4394 0.0000 0.0000 0.0000
# 3 127.5682 49.4394 240.9450 0.0000 0.0000 0.0000
# 4 0.0000 0.0000 0.0000 45.8935 0.0000 0.0000
# 5 0.0000 0.0000 0.0000 0.0000 26.4623 0.0000
# 6 0.0000 0.0000 0.0000 0.0000 0.0000 12.5298
#
#
#
# Elastic Compliance Matrix: (Units=1/GPa)
#
#
# Indices 1 2 3 4 5 6 
#
# 1 0.004494 0.000019 -0.002383 0.000000 0.000000 0.000000
# 2 0.000019 0.028185 -0.005793 0.000000 0.000000 0.000000
# 3 -0.002383 -0.005793 0.006601 0.000000 0.000000 0.000000
# 4 0.000000 0.000000 0.000000 0.021790 0.000000 0.000000
# 5 0.000000 0.000000 0.000000 0.000000 0.037790 0.000000
# 6 0.000000 0.000000 0.000000 0.000000 0.000000 0.079810
#
#
# Mechanical properties :
#
#
# Convention : Reuss Voigt Hill
#
# Bulk Modulus (GPa) = 43.54560 109.18994 76.36777
# Shear Modulus (GPa) = 24.67447 41.88399 33.27923
#
# Velocity S-wave (km/s) = 3.24128 4.22296 3.76426
# Velocity P-wave (km/s) = 5.70515 8.38264 7.16999
#
# Compressibility (1/GPa) = 0.02296443
#
# Stress axis : x y z
#
# Youngs Moduli (GPa) = 222.52756 35.47995 151.49789
#
# Poissons Ratio (x) = -0.00066 0.36103
# Poissons Ratio (y) = -0.00417 0.87765
# Poissons Ratio (z) = 0.53030 0.20554
#
# Static dielectric constant tensor:
#      x y z
#    x 1.912890 0.000000 0.000000 
#    y 0.000000 1.629240 0.000000 
#    z 0.000000 0.000000 1.873240 
# 
# From -- ./inp_files/1989.got.cif
#   From: 2010.05.17/outbox.cif.g08.bks.cpg/sg73_1_cif.got.tgz:1989.got - 2010.06.03 17:35:07.
