data_PCOD9530625
_publ_section_title
;
Structure prediction by ZEFSAII (Michael W. Deem and Ramdas Pophale) SiO2 
 PCOD9530625
Probable space group: I B C A 
;
_chemical_formula_sum "Si O2"
_cell_formula_units_Z 120
_cell_length_a 26.523229
_cell_length_b 12.283047
_cell_length_c 18.639081
_cell_angle_alpha 90.000000
_cell_angle_beta 90.000000
_cell_angle_gamma 90.000000
_cell_volume 6072.352918
_symmetry_space_group_name_H-M "I B C A "
_symmetry_group_IT_number 73
_symmetry_cell_setting 'orthorhombic'
loop_
_space_group_symop_operation_xyz
x,y,z
-x,1/2-y,z
x,-y,1/2-z
1/2-x,y,-z
-x,-y,-z
x,1/2+y,-z
-x,y,1/2+z
1/2+x,-y,z
1/2+x,1/2+y,1/2+z
1/2-x,-y,1/2+z
1/2+x,1/2-y,-z
-x,1/2+y,1/2-z
1/2-x,1/2-y,1/2-z
1/2+x,y,1/2-z
1/2-x,1/2+y,z
x,1/2-y,1/2+z
loop_
_atom_site_type_symbol
_atom_site_label
_atom_site_fract_x
_atom_site_fract_y
_atom_site_fract_z
Si Si1 0.475703 0.533716 0.099720
Si Si2 0.336017 0.273451 0.415777
Si Si3 0.750000 0.100813 0.500000
Si Si4 0.945746 0.203312 0.855097
Si Si5 0.084194 0.866661 0.519717
Si Si6 0.091377 0.190130 0.199268
Si Si7 0.923444 0.053510 0.176883
Si Si8 0.164133 0.518380 0.415789
O O1 0.453919 0.411885 0.105573
O O2 0.447732 0.607829 0.160758
O O3 0.534568 0.528521 0.117632
O O4 0.463789 0.592532 0.024775
O O5 0.289031 0.330558 0.452741
O O6 0.384823 0.289460 0.465922
O O7 0.354332 0.322827 0.339643
O O8 0.326414 0.145926 0.414691
O O9 0.784364 0.036041 0.442332
O O10 0.925530 0.295361 0.909528
O O11 0.912092 0.181037 0.784905
O O12 0.000000 0.250000 0.829485
O O13 0.122323 0.968143 0.530381
O O14 0.078661 0.316582 0.183330
O O15 0.868475 0.003746 0.157584
O O16 0.941647 0.000000 0.250000
#
# Coordination Sequence:
#
# PCOD9530625 Si02
#       8
#    16  16   8  16  16  16  16  16
#     4  11  22  37  58  85 126 169 203 245 291 349
#     4   9  20  37  60  84 113 152 197 250 307 366
#     4  10  20  38  62  86 110 146 202 260 318 374
#     4  12  23  35  56  86 123 164 206 248 294 357
#     4  10  22  36  54  87 122 157 201 244 294 356
#     4  10  21  37  57  85 120 161 205 246 295 356
#     4  11  21  36  59  86 119 162 205 244 295 358
#     4  10  20  36  59  82 112 147 191 250 307 362
#
# _framework density 19.761697999999999
#
# number of rings (size 3 to 8) (size 9 to 14) (size 15 to 20)
#    0.000    1.600    0.000    6.000    0.000    5.333 
#    0.000    0.000    0.000   19.200    0.000    0.000 
#    0.000    0.000    0.000    0.000    0.000    0.000 
#
# Total GULP energy -334687.432877 kJ/mol
# GULP energy per Si atom -5578.123881 kJ/mol
# Density = 1.971672 g / cm^3
# Si number density = 19.761698 Si / 1000 Ang^3
#
#
#
# Elastic Constant Matrix: (Units=GPa)
#
#
# Indices 1 2 3 4 5 6 
#
# 1 104.4471 35.7147 44.3375 0.0000 0.0000 0.0000
# 2 35.7147 84.4344 26.9513 0.0000 0.0000 0.0000
# 3 44.3375 26.9513 111.2470 0.0000 0.0000 0.0000
# 4 0.0000 0.0000 0.0000 29.2832 0.0000 0.0000
# 5 0.0000 0.0000 0.0000 0.0000 27.7881 0.0000
# 6 0.0000 0.0000 0.0000 0.0000 0.0000 18.3127
#
#
#
# Elastic Compliance Matrix: (Units=1/GPa)
#
#
# Indices 1 2 3 4 5 6 
#
# 1 0.012695 -0.004070 -0.004074 0.000000 0.000000 0.000000
# 2 -0.004070 0.014141 -0.001804 0.000000 0.000000 0.000000
# 3 -0.004074 -0.001804 0.011050 0.000000 0.000000 0.000000
# 4 0.000000 0.000000 0.000000 0.034149 0.000000 0.000000
# 5 0.000000 0.000000 0.000000 0.000000 0.035987 0.000000
# 6 0.000000 0.000000 0.000000 0.000000 0.000000 0.054607
#
#
# Mechanical properties :
#
#
# Convention : Reuss Voigt Hill
#
# Bulk Modulus (GPa) = 55.58309 57.12616 56.35462
# Shear Modulus (GPa) = 26.52251 27.95183 27.23717
#
# Velocity S-wave (km/s) = 3.66747 3.76499 3.71655
# Velocity P-wave (km/s) = 6.79128 6.91885 6.85536
#
# Compressibility (1/GPa) = 0.01799108
#
# Stress axis : x y z
#
# Youngs Moduli (GPa) = 78.77099 70.71802 90.50099
#
# Poissons Ratio (x) = 0.28779 0.36867
# Poissons Ratio (y) = 0.32056 0.16325
# Poissons Ratio (z) = 0.32089 0.12757
#
# Static dielectric constant tensor:
#      x y z
#    x 1.697770 0.000000 0.000000 
#    y 0.000000 1.705470 0.000000 
#    z 0.000000 0.000000 1.755990 
# 
# From -- ./inp_files/23985.got.cif
#   From: 2010.05.17/outbox.cif.g08.bks.cpg/sg73_12_cif.got.tgz:23985.got - 2010.06.03 17:35:07.
