data_PCOD9530253
_publ_section_title
;
Structure prediction by ZEFSAII (Michael W. Deem and Ramdas Pophale) SiO2 
 PCOD9530253
Probable space group: I B C A 
;
_chemical_formula_sum "Si O2"
_cell_formula_units_Z 96
_cell_length_a 24.230735
_cell_length_b 23.941226
_cell_length_c 8.549126
_cell_angle_alpha 90.000000
_cell_angle_beta 90.000000
_cell_angle_gamma 90.000000
_cell_volume 4959.463430
_symmetry_space_group_name_H-M "I B C A "
_symmetry_group_IT_number 73
_symmetry_cell_setting 'orthorhombic'
loop_
_space_group_symop_operation_xyz
x,y,z
-x,1/2-y,z
x,-y,1/2-z
1/2-x,y,-z
-x,-y,-z
x,1/2+y,-z
-x,y,1/2+z
1/2+x,-y,z
1/2+x,1/2+y,1/2+z
1/2-x,-y,1/2+z
1/2+x,1/2-y,-z
-x,1/2+y,1/2-z
1/2-x,1/2-y,1/2-z
1/2+x,y,1/2-z
1/2-x,1/2+y,z
x,1/2-y,1/2+z
loop_
_atom_site_type_symbol
_atom_site_label
_atom_site_fract_x
_atom_site_fract_y
_atom_site_fract_z
Si Si1 0.300135 0.550190 0.127144
Si Si2 0.005962 0.000000 0.750000
Si Si3 0.926673 0.560410 0.477144
Si Si4 0.000000 0.750000 0.828083
Si Si5 0.561595 0.687246 0.415302
Si Si6 0.712129 0.324759 0.772269
Si Si7 0.678117 0.276125 0.103853
O O1 0.293473 0.500000 0.250000
O O2 0.361789 0.547403 0.051685
O O3 0.297296 0.609644 0.217517
O O4 0.250000 0.549825 0.000000
O O5 0.964307 0.045140 0.673024
O O6 0.045586 0.974987 0.616869
O O7 0.933184 0.624893 0.523608
O O8 0.016000 0.801240 0.716088
O O9 0.047732 0.728400 0.941633
O O10 0.618385 0.707108 0.340444
O O11 0.776074 0.309433 0.797328
O O12 0.689889 0.289372 0.626776
O O13 0.684387 0.297030 0.926390
#
# Coordination Sequence:
#
# PCOD9530253 Si02
#       7
#    16   8  16   8  16  16  16
#     4  12  25  46  66  95 131 170 212 271 330 384
#     4  10  24  42  66  92 118 176 230 256 314 382
#     4  11  22  43  66  90 127 169 214 273 310 380
#     4  10  24  34  54  92 122 162 204 244 310 372
#     4  11  20  38  58  86 125 161 197 258 308 363
#     4  10  20  40  61  95 120 160 199 252 306 385
#     4  10  19  36  65  85 123 156 201 242 316 366
#
# _framework density 19.356933000000001
#
# number of rings (size 3 to 8) (size 9 to 14) (size 15 to 20)
#    0.000    1.333    4.167    2.000    1.167    0.000 
#    6.000    1.667    0.000    0.000    0.000    0.000 
#    0.000    0.000    0.000    0.000    0.000    0.000 
#
# Total GULP energy -267863.517744 kJ/mol
# GULP energy per Si atom -5580.489953 kJ/mol
# Density = 1.931288 g / cm^3
# Si number density = 19.356933 Si / 1000 Ang^3
#
#
#
# Elastic Constant Matrix: (Units=GPa)
#
#
# Indices 1 2 3 4 5 6 
#
# 1 111.7165 40.5565 7.0332 0.0000 0.0000 0.0000
# 2 40.5565 145.5134 38.7659 0.0000 0.0000 0.0000
# 3 7.0332 38.7659 29.6557 0.0000 0.0000 0.0000
# 4 0.0000 0.0000 0.0000 24.2795 0.0000 0.0000
# 5 0.0000 0.0000 0.0000 0.0000 19.8608 0.0000
# 6 0.0000 0.0000 0.0000 0.0000 0.0000 18.7062
#
#
#
# Elastic Compliance Matrix: (Units=1/GPa)
#
#
# Indices 1 2 3 4 5 6 
#
# 1 0.010032 -0.003318 0.001958 0.000000 0.000000 0.000000
# 2 -0.003318 0.011641 -0.014431 0.000000 0.000000 0.000000
# 3 0.001958 -0.014431 0.052120 0.000000 0.000000 0.000000
# 4 0.000000 0.000000 0.000000 0.041187 0.000000 0.000000
# 5 0.000000 0.000000 0.000000 0.000000 0.050350 0.000000
# 6 0.000000 0.000000 0.000000 0.000000 0.000000 0.053458
#
#
# Mechanical properties :
#
#
# Convention : Reuss Voigt Hill
#
# Bulk Modulus (GPa) = 23.68998 51.06632 37.37815
# Shear Modulus (GPa) = 18.90777 25.93798 22.42287
#
# Velocity S-wave (km/s) = 3.12876 3.66455 3.40720
# Velocity P-wave (km/s) = 5.03163 6.65912 5.90175
#
# Compressibility (1/GPa) = 0.04221194
#
# Stress axis : x y z
#
# Youngs Moduli (GPa) = 99.67699 85.90064 19.18654
#
# Poissons Ratio (x) = 0.28499 -0.03756
# Poissons Ratio (y) = 0.33070 0.27688
# Poissons Ratio (z) = -0.19512 1.23961
#
# Static dielectric constant tensor:
#      x y z
#    x 1.712350 0.000000 0.000000 
#    y 0.000000 1.655880 0.000000 
#    z 0.000000 0.000000 1.714020 
# 
# From -- ./inp_files/7204.got.cif
#   From: 2010.05.17/outbox.cif.g08.bks.cpg/sg73_4_cif.got.tgz:7204.got - 2010.06.03 17:35:07.
