data_PCOD9530210
_publ_section_title
;
Structure prediction by ZEFSAII (Michael W. Deem and Ramdas Pophale) SiO2 
 PCOD9530210
Probable space group: I B C A 
;
_chemical_formula_sum "Si O2"
_cell_formula_units_Z 72
_cell_length_a 14.225248
_cell_length_b 8.276511
_cell_length_c 25.021007
_cell_angle_alpha 90.000000
_cell_angle_beta 90.000000
_cell_angle_gamma 90.000000
_cell_volume 2945.858807
_symmetry_space_group_name_H-M "I B C A "
_symmetry_group_IT_number 73
_symmetry_cell_setting 'orthorhombic'
loop_
_space_group_symop_operation_xyz
x,y,z
-x,1/2-y,z
x,-y,1/2-z
1/2-x,y,-z
-x,-y,-z
x,1/2+y,-z
-x,y,1/2+z
1/2+x,-y,z
1/2+x,1/2+y,1/2+z
1/2-x,-y,1/2+z
1/2+x,1/2-y,-z
-x,1/2+y,1/2-z
1/2-x,1/2-y,1/2-z
1/2+x,y,1/2-z
1/2-x,1/2+y,z
x,1/2-y,1/2+z
loop_
_atom_site_type_symbol
_atom_site_label
_atom_site_fract_x
_atom_site_fract_y
_atom_site_fract_z
Si Si1 0.160446 0.858328 0.811503
Si Si2 0.396806 0.946666 0.479235
Si Si3 0.614383 0.242205 0.423473
Si Si4 0.500000 0.250000 0.109541
Si Si5 0.131915 0.739274 0.197412
O O1 0.140844 0.747705 0.862496
O O2 0.270730 0.835272 0.800728
O O3 0.106442 0.790718 0.759479
O O4 0.140735 0.049429 0.821419
O O5 0.351305 0.889409 0.534337
O O6 0.424316 0.822947 0.432070
O O7 0.500000 0.000000 0.500000
O O8 0.348846 0.094460 0.450571
O O9 0.500000 0.250000 0.424635
O O10 0.566165 0.166575 0.154827
#
# Coordination Sequence:
#
# PCOD9530210 Si02
#       5
#    16  16  16   8  16
#     4  10  22  45  60  92 125 162 205 259 308 364
#     4  10  19  35  61  90 122 159 199 254 300 360
#     4  10  20  36  64  87 125 159 205 251 306 367
#     4  12  20  38  66  90 122 160 204 252 304 370
#     4  10  24  41  66  89 129 160 206 256 313 361
#
# _framework density 24.441089999999999
#
# number of rings (size 3 to 8) (size 9 to 14) (size 15 to 20)
#    0.000    1.778    5.556    0.000    1.556    3.556 
#    0.000    3.333    4.889    0.000    0.000    0.000 
#    0.000    0.000    0.000    0.000    0.000    0.000 
#
# Total GULP energy -200519.804812 kJ/mol
# GULP energy per Si atom -5569.994578 kJ/mol
# Density = 2.438546 g / cm^3
# Si number density = 24.441090 Si / 1000 Ang^3
#
#
#
# Elastic Constant Matrix: (Units=GPa)
#
#
# Indices 1 2 3 4 5 6 
#
# 1 45.3797 0.9363 -3.4294 0.0000 0.0000 0.0000
# 2 0.9363 45.4945 27.7547 0.0000 0.0000 0.0000
# 3 -3.4294 27.7547 193.0123 0.0000 0.0000 0.0000
# 4 0.0000 0.0000 0.0000 -0.8055 0.0000 0.0000
# 5 0.0000 0.0000 0.0000 0.0000 70.8263 0.0000
# 6 0.0000 0.0000 0.0000 0.0000 0.0000 11.5317
#
#
#
# Elastic Compliance Matrix: (Units=1/GPa)
#
#
# Indices 1 2 3 4 5 6 
#
# 1 0.022090 -0.000761 0.000502 0.000000 0.000000 0.000000
# 2 -0.000761 0.024121 -0.003482 0.000000 0.000000 0.000000
# 3 0.000502 -0.003482 0.005691 0.000000 0.000000 0.000000
# 4 0.000000 0.000000 0.000000 -1.241506 0.000000 0.000000
# 5 0.000000 0.000000 0.000000 0.000000 0.014119 0.000000
# 6 0.000000 0.000000 0.000000 0.000000 0.000000 0.086717
#
#
# Mechanical properties :
#
#
# Convention : Reuss Voigt Hill
#
# Bulk Modulus (GPa) = 22.51270 37.15660 29.83465
# Shear Modulus (GPa) = -4.68832 33.55217 14.43192
#
# Velocity S-wave (km/s) = -1.38650 3.70912 2.43261
# Velocity P-wave (km/s) = 2.58221 5.79473 4.48591
#
# Compressibility (1/GPa) = 0.04441936
#
# Stress axis : x y z
#
# Youngs Moduli (GPa) = 45.26951 41.45835 175.72721
#
# Poissons Ratio (x) = 0.03154 -0.08820
# Poissons Ratio (y) = 0.03444 0.61188
# Poissons Ratio (z) = -0.02272 0.14436
#
# Static dielectric constant tensor:
#      x y z
#    x -9.218170 0.000000 0.000000 
#    y 0.000000 2.071320 0.000000 
#    z 0.000000 0.000000 2.014960 
# 
# From -- ./inp_files/26846.got.cif
#   From: 2010.05.17/outbox.cif.g08.bks.cpg/sg73_14_cif.got.tgz:26846.got - 2010.06.03 17:35:07.
