data_PCOD9530102
_publ_section_title
;
Structure prediction by ZEFSAII (Michael W. Deem and Ramdas Pophale) SiO2 
 PCOD9530102
Probable space group: I B C A 
;
_chemical_formula_sum "Si O2"
_cell_formula_units_Z 96
_cell_length_a 24.975509
_cell_length_b 22.990320
_cell_length_c 9.041604
_cell_angle_alpha 90.000000
_cell_angle_beta 90.000000
_cell_angle_gamma 90.000000
_cell_volume 5191.643303
_symmetry_space_group_name_H-M "I B C A "
_symmetry_group_IT_number 73
_symmetry_cell_setting 'orthorhombic'
loop_
_space_group_symop_operation_xyz
x,y,z
-x,1/2-y,z
x,-y,1/2-z
1/2-x,y,-z
-x,-y,-z
x,1/2+y,-z
-x,y,1/2+z
1/2+x,-y,z
1/2+x,1/2+y,1/2+z
1/2-x,-y,1/2+z
1/2+x,1/2-y,-z
-x,1/2+y,1/2-z
1/2-x,1/2-y,1/2-z
1/2+x,y,1/2-z
1/2-x,1/2+y,z
x,1/2-y,1/2+z
loop_
_atom_site_type_symbol
_atom_site_label
_atom_site_fract_x
_atom_site_fract_y
_atom_site_fract_z
Si Si1 0.161963 0.147391 0.116591
Si Si2 0.246163 0.555267 0.825139
Si Si3 0.207948 0.728273 0.369633
Si Si4 0.345428 0.381435 0.730065
Si Si5 0.044737 0.562418 0.172407
Si Si6 0.565476 0.563604 0.681088
O O1 0.212974 0.114931 0.188255
O O2 0.167801 0.216583 0.120402
O O3 0.111212 0.113035 0.182947
O O4 0.163866 0.133928 0.942120
O O5 0.218988 0.500000 0.750000
O O6 0.303444 0.566076 0.748179
O O7 0.250000 0.543283 0.000000
O O8 0.250000 0.716441 0.500000
O O9 0.250000 0.750000 0.250000
O O10 0.173622 0.672107 0.328274
O O11 0.407078 0.399029 0.737411
O O12 0.050557 0.500000 0.250000
O O13 0.986289 0.583099 0.224617
O O14 0.050487 0.556999 0.994111
O O15 0.580899 0.500000 0.750000
#
# Coordination Sequence:
#
# PCOD9530102 Si02
#       6
#    16  16  16  16  16  16
#     4  10  20  37  57  78 113 148 186 233 286 337
#     4  10  19  33  51  77 111 140 176 225 281 338
#     4  12  21  40  60  82 114 152 190 229 284 343
#     4  10  21  37  56  81 112 150 185 234 283 338
#     4  10  20  38  59  83 117 148 190 238 288 345
#     4  10  20  37  59  84 114 151 188 236 293 346
#
# _framework density 18.491256
#
# number of rings (size 3 to 8) (size 9 to 14) (size 15 to 20)
#    0.000    1.667    3.333    3.500    0.000    0.667 
#    6.000    0.833    0.000    4.000    0.000    0.000 
#    0.000    0.000    0.000    0.000    0.000    0.000 
#
# Total GULP energy -267423.929325 kJ/mol
# GULP energy per Si atom -5571.331861 kJ/mol
# Density = 1.844917 g / cm^3
# Si number density = 18.491256 Si / 1000 Ang^3
#
#
#
# Elastic Constant Matrix: (Units=GPa)
#
#
# Indices 1 2 3 4 5 6 
#
# 1 116.6303 55.0162 32.2308 0.0000 0.0000 0.0000
# 2 55.0162 115.0544 25.8646 0.0000 0.0000 0.0000
# 3 32.2308 25.8646 60.2777 0.0000 0.0000 0.0000
# 4 0.0000 0.0000 0.0000 24.6381 0.0000 0.0000
# 5 0.0000 0.0000 0.0000 0.0000 26.0871 0.0000
# 6 0.0000 0.0000 0.0000 0.0000 0.0000 32.9009
#
#
#
# Elastic Compliance Matrix: (Units=1/GPa)
#
#
# Indices 1 2 3 4 5 6 
#
# 1 0.012037 -0.004769 -0.004390 0.000000 0.000000 0.000000
# 2 -0.004769 0.011509 -0.002388 0.000000 0.000000 0.000000
# 3 -0.004390 -0.002388 0.019962 0.000000 0.000000 0.000000
# 4 0.000000 0.000000 0.000000 0.040588 0.000000 0.000000
# 5 0.000000 0.000000 0.000000 0.000000 0.038333 0.000000
# 6 0.000000 0.000000 0.000000 0.000000 0.000000 0.030394
#
#
# Mechanical properties :
#
#
# Convention : Reuss Voigt Hill
#
# Bulk Modulus (GPa) = 48.98747 57.57618 53.28182
# Shear Modulus (GPa) = 27.36410 28.64861 28.00636
#
# Velocity S-wave (km/s) = 3.85104 3.94039 3.89597
# Velocity P-wave (km/s) = 6.80616 7.20464 7.00823
#
# Compressibility (1/GPa) = 0.02041339
#
# Stress axis : x y z
#
# Youngs Moduli (GPa) = 83.07878 86.89000 50.09519
#
# Poissons Ratio (x) = 0.41436 0.21991
# Poissons Ratio (y) = 0.39619 0.11965
# Poissons Ratio (z) = 0.36470 0.20753
#
# Static dielectric constant tensor:
#      x y z
#    x 1.680260 0.000000 0.000000 
#    y 0.000000 1.624260 0.000000 
#    z 0.000000 0.000000 1.553790 
# 
# From -- ./inp_files/6464.got.cif
#   From: 2010.05.17/outbox.cif.g08.bks.cpg/sg73_4_cif.got.tgz:6464.got - 2010.06.03 17:35:07.
