data_PCOD9530913
_publ_section_title
;
Structure prediction by ZEFSAII (Michael W. Deem and Ramdas Pophale) SiO2 
 PCOD9530913
Probable space group: I B C A 
;
_chemical_formula_sum "Si O2"
_cell_formula_units_Z 120
_cell_length_a 16.999629
_cell_length_b 25.918558
_cell_length_c 14.325920
_cell_angle_alpha 90.000000
_cell_angle_beta 90.000000
_cell_angle_gamma 90.000000
_cell_volume 6312.084448
_symmetry_space_group_name_H-M "I B C A "
_symmetry_group_IT_number 73
_symmetry_cell_setting 'orthorhombic'
loop_
_space_group_symop_operation_xyz
x,y,z
-x,1/2-y,z
x,-y,1/2-z
1/2-x,y,-z
-x,-y,-z
x,1/2+y,-z
-x,y,1/2+z
1/2+x,-y,z
1/2+x,1/2+y,1/2+z
1/2-x,-y,1/2+z
1/2+x,1/2-y,-z
-x,1/2+y,1/2-z
1/2-x,1/2-y,1/2-z
1/2+x,y,1/2-z
1/2-x,1/2+y,z
x,1/2-y,1/2+z
loop_
_atom_site_type_symbol
_atom_site_label
_atom_site_fract_x
_atom_site_fract_y
_atom_site_fract_z
Si Si1 0.856011 0.271597 0.415997
Si Si2 0.088961 0.103609 0.696518
Si Si3 0.918214 0.779270 0.774197
Si Si4 0.325728 0.500000 0.750000
Si Si5 0.237721 0.930331 0.394471
Si Si6 0.175591 0.801228 0.881742
Si Si7 0.925733 0.878858 0.901359
Si Si8 0.878624 0.850991 0.107327
O O1 0.908611 0.295404 0.333605
O O2 0.767143 0.290652 0.397730
O O3 0.871376 0.286974 0.523070
O O4 0.865828 0.210024 0.404317
O O5 0.121607 0.046364 0.709983
O O6 0.152554 0.141145 0.647313
O O7 0.077444 0.130508 0.798605
O O8 0.009633 0.102966 0.636551
O O9 0.852201 0.737583 0.801163
O O10 0.911048 0.825636 0.846262
O O11 0.000000 0.750000 0.786699
O O12 0.271427 0.472904 0.673717
O O13 0.250000 0.948380 0.500000
O O14 0.147587 0.915751 0.377603
O O15 0.293386 0.879343 0.386355
O O16 0.920798 0.870034 0.012669
#
# Coordination Sequence:
#
# PCOD9530913 Si02
#       8
#    16  16  16   8  16  16  16  16
#     4  11  23  36  60  90 129 176 201 246 307 377
#     4  11  24  43  61  93 126 169 207 271 335 366
#     4  12  22  35  57  93 131 167 200 249 309 385
#     4  10  24  46  68  82 126 168 210 286 330 368
#     4   9  21  41  66  93 112 160 221 264 311 378
#     4  11  23  38  57  91 128 165 215 250 304 381
#     4  11  22  38  65  94 125 162 213 262 308 396
#     4  10  20  39  65  88 131 169 210 247 310 388
#
# _framework density 19.011153
#
# number of rings (size 3 to 8) (size 9 to 14) (size 15 to 20)
#    0.000    1.333    4.000    1.200    7.467    3.200 
#    2.400    7.333    0.000    0.000    0.000    0.000 
#    0.000    0.000    0.000    0.000    0.000    0.000 
#
# Total GULP energy -335146.502390 kJ/mol
# GULP energy per Si atom -5585.775040 kJ/mol
# Density = 1.896788 g / cm^3
# Si number density = 19.011153 Si / 1000 Ang^3
#
#
#
# Elastic Constant Matrix: (Units=GPa)
#
#
# Indices 1 2 3 4 5 6 
#
# 1 99.3274 45.6374 38.7085 0.0000 0.0000 0.0000
# 2 45.6374 115.0244 47.3266 0.0001 0.0000 0.0000
# 3 38.7085 47.3266 116.4016 0.0001 0.0000 0.0000
# 4 0.0000 0.0001 0.0001 28.3204 0.0000 0.0000
# 5 0.0000 0.0000 0.0000 0.0000 26.7963 0.0000
# 6 0.0000 0.0000 0.0000 0.0000 0.0000 11.4415
#
#
#
# Elastic Compliance Matrix: (Units=1/GPa)
#
#
# Indices 1 2 3 4 5 6 
#
# 1 0.012966 -0.004048 -0.002666 0.000000 0.000000 0.000000
# 2 -0.004048 0.011704 -0.003413 0.000000 0.000000 0.000000
# 3 -0.002666 -0.003413 0.010865 0.000000 0.000000 0.000000
# 4 0.000000 0.000000 0.000000 0.035310 0.000000 0.000000
# 5 0.000000 0.000000 0.000000 0.000000 0.037319 0.000000
# 6 0.000000 0.000000 0.000000 0.000000 0.000000 0.087401
#
#
# Mechanical properties :
#
#
# Convention : Reuss Voigt Hill
#
# Bulk Modulus (GPa) = 65.43385 66.01094 65.72240
# Shear Modulus (GPa) = 22.63344 26.58371 24.60858
#
# Velocity S-wave (km/s) = 3.45416 3.74347 3.60172
# Velocity P-wave (km/s) = 7.09941 7.31316 7.20708
#
# Compressibility (1/GPa) = 0.01528261
#
# Stress axis : x y z
#
# Youngs Moduli (GPa) = 77.12186 85.44215 92.03819
#
# Poissons Ratio (x) = 0.34584 0.24540
# Poissons Ratio (y) = 0.31216 0.31408
# Poissons Ratio (z) = 0.20563 0.29158
#
# Static dielectric constant tensor:
#      x y z
#    x 1.736670 0.000000 0.000000 
#    y 0.000000 1.637420 0.000000 
#    z 0.000000 0.000000 1.695820 
# 
# From -- ./inp_files/18276.got.cif
#   From: 2010.05.17/outbox.cif.g08.bks.cpg/sg73_10_cif.got.tgz:18276.got - 2010.06.03 17:35:07.
