data_PCOD9530525
_publ_section_title
;
Structure prediction by ZEFSAII (Michael W. Deem and Ramdas Pophale) SiO2 
 PCOD9530525
Probable space group: I B C A 
;
_chemical_formula_sum "Si O2"
_cell_formula_units_Z 80
_cell_length_a 27.261058
_cell_length_b 7.429850
_cell_length_c 14.315786
_cell_angle_alpha 90.000000
_cell_angle_beta 90.000000
_cell_angle_gamma 90.000000
_cell_volume 2899.599061
_symmetry_space_group_name_H-M "I B C A "
_symmetry_group_IT_number 73
_symmetry_cell_setting 'orthorhombic'
loop_
_space_group_symop_operation_xyz
x,y,z
-x,1/2-y,z
x,-y,1/2-z
1/2-x,y,-z
-x,-y,-z
x,1/2+y,-z
-x,y,1/2+z
1/2+x,-y,z
1/2+x,1/2+y,1/2+z
1/2-x,-y,1/2+z
1/2+x,1/2-y,-z
-x,1/2+y,1/2-z
1/2-x,1/2-y,1/2-z
1/2+x,y,1/2-z
1/2-x,1/2+y,z
x,1/2-y,1/2+z
loop_
_atom_site_type_symbol
_atom_site_label
_atom_site_fract_x
_atom_site_fract_y
_atom_site_fract_z
Si Si1 0.324589 0.061314 0.357427
Si Si2 0.626728 0.430757 0.649052
Si Si3 0.725543 0.448455 0.858096
Si Si4 0.952598 0.156789 0.373588
Si Si5 0.424817 0.215012 0.421334
O O1 0.297786 0.253050 0.355555
O O2 0.373536 0.101057 0.417863
O O3 0.336133 0.000000 0.250000
O O4 0.280154 0.944765 0.400624
O O5 0.639994 0.500000 0.750000
O O6 0.680523 0.429824 0.602503
O O7 0.597629 0.245589 0.663364
O O8 0.589991 0.587959 0.614986
O O9 0.736374 0.500000 0.750000
O O10 0.947525 0.235518 0.479154
O O11 0.000000 0.250000 0.329713
O O12 0.957294 0.940350 0.372013
#
# Coordination Sequence:
#
# PCOD9530525 Si02
#       5
#    16  16  16  16  16
#     4  10  20  34  62  97 126 172 214 265 326 397
#     4  10  24  44  67 105 135 167 222 290 331 400
#     4   9  18  33  59  92 135 166 207 256 334 401
#     4  12  26  47  71  91 128 187 225 278 345 410
#     4  11  25  42  72  93 132 175 228 268 339 408
#
# _framework density 27.590022000000001
#
# number of rings (size 3 to 8) (size 9 to 14) (size 15 to 20)
#    0.000    1.600    2.000    3.000   11.200    0.000 
#    3.600    1.000    0.000    0.000    0.000    0.000 
#    0.000    0.000    0.000    0.000    0.000    0.000 
#
# Total GULP energy -223345.575270 kJ/mol
# GULP energy per Si atom -5583.639382 kJ/mol
# Density = 2.752723 g / cm^3
# Si number density = 27.590022 Si / 1000 Ang^3
#
#
#
# Elastic Constant Matrix: (Units=GPa)
#
#
# Indices 1 2 3 4 5 6 
#
# 1 129.4454 39.1705 27.2628 0.0000 0.0000 0.0000
# 2 39.1705 176.5730 2.0178 0.0000 0.0000 0.0000
# 3 27.2628 2.0178 40.4328 0.0000 0.0000 0.0000
# 4 0.0000 0.0000 0.0000 27.3773 0.0000 0.0000
# 5 0.0000 0.0000 0.0000 0.0000 28.1415 0.0000
# 6 0.0000 0.0000 0.0000 0.0000 0.0000 38.9356
#
#
#
# Elastic Compliance Matrix: (Units=1/GPa)
#
#
# Indices 1 2 3 4 5 6 
#
# 1 0.009712 -0.002081 -0.006445 0.000000 0.000000 0.000000
# 2 -0.002081 0.006112 0.001098 0.000000 0.000000 0.000000
# 3 -0.006445 0.001098 0.029023 0.000000 0.000000 0.000000
# 4 0.000000 0.000000 0.000000 0.036527 0.000000 0.000000
# 5 0.000000 0.000000 0.000000 0.000000 0.035535 0.000000
# 6 0.000000 0.000000 0.000000 0.000000 0.000000 0.025683
#
#
# Mechanical properties :
#
#
# Convention : Reuss Voigt Hill
#
# Bulk Modulus (GPa) = 33.34166 53.70593 43.52380
# Shear Modulus (GPa) = 29.86040 37.42422 33.64231
#
# Velocity S-wave (km/s) = 3.29339 3.68698 3.49573
# Velocity P-wave (km/s) = 5.15488 6.13458 5.66595
#
# Compressibility (1/GPa) = 0.02999250
#
# Stress axis : x y z
#
# Youngs Moduli (GPa) = 102.96187 163.60034 34.45510
#
# Poissons Ratio (x) = 0.34044 0.22206
# Poissons Ratio (y) = 0.21425 -0.03783
# Poissons Ratio (z) = 0.66358 -0.17964
#
# Static dielectric constant tensor:
#      x y z
#    x 2.364960 0.000000 0.000000 
#    y 0.000000 2.090260 0.000000 
#    z 0.000000 0.000000 2.245470 
# 
# From -- ./inp_files/23817.got.cif
#   From: 2010.05.17/outbox.cif.g08.bks.cpg/sg73_12_cif.got.tgz:23817.got - 2010.06.03 17:35:07.
