data_PCOD9530251
_publ_section_title
;
Structure prediction by ZEFSAII (Michael W. Deem and Ramdas Pophale) SiO2 
 PCOD9530251
Probable space group: I B C A 
;
_chemical_formula_sum "Si O2"
_cell_formula_units_Z 80
_cell_length_a 16.875165
_cell_length_b 10.117916
_cell_length_c 21.400550
_cell_angle_alpha 90.000000
_cell_angle_beta 90.000000
_cell_angle_gamma 90.000000
_cell_volume 3653.962050
_symmetry_space_group_name_H-M "I B C A "
_symmetry_group_IT_number 73
_symmetry_cell_setting 'orthorhombic'
loop_
_space_group_symop_operation_xyz
x,y,z
-x,1/2-y,z
x,-y,1/2-z
1/2-x,y,-z
-x,-y,-z
x,1/2+y,-z
-x,y,1/2+z
1/2+x,-y,z
1/2+x,1/2+y,1/2+z
1/2-x,-y,1/2+z
1/2+x,1/2-y,-z
-x,1/2+y,1/2-z
1/2-x,1/2-y,1/2-z
1/2+x,y,1/2-z
1/2-x,1/2+y,z
x,1/2-y,1/2+z
loop_
_atom_site_type_symbol
_atom_site_label
_atom_site_fract_x
_atom_site_fract_y
_atom_site_fract_z
Si Si1 0.250000 0.845849 0.500000
Si Si2 0.629317 0.730799 0.087105
Si Si3 0.108149 0.063309 0.916375
Si Si4 0.664041 0.621723 0.290168
Si Si5 0.651870 0.882663 0.206849
Si Si6 0.000000 0.250000 0.481112
O O1 0.285173 0.759950 0.556961
O O2 0.176848 0.926048 0.530564
O O3 0.616377 0.583307 0.111401
O O4 0.613523 0.839575 0.140738
O O5 0.572794 0.729286 0.027217
O O6 0.125354 0.152866 0.856442
O O7 0.025630 0.119249 0.943181
O O8 0.630436 0.500000 0.250000
O O9 0.657007 0.750625 0.247884
O O10 0.755555 0.583926 0.305796
O O11 0.617707 0.000000 0.250000
#
# Coordination Sequence:
#
# PCOD9530251 Si02
#       6
#     8  16  16  16  16   8
#     4  10  22  34  62 102 120 166 216 270 344 396
#     4  11  21  42  63  91 132 169 215 279 332 406
#     4  11  21  41  64  92 128 170 218 274 328 410
#     4  10  19  36  64  94 125 164 211 271 335 389
#     4  10  21  36  62  99 128 160 208 274 334 390
#     4  10  26  42  60  92 130 178 224 266 338 394
#
# _framework density 21.894044000000001
#
# number of rings (size 3 to 8) (size 9 to 14) (size 15 to 20)
#    0.000    1.600    4.000    1.200    0.000    0.000 
#   18.000    1.000    0.000    0.000    0.000    0.000 
#    0.000    0.000    0.000    0.000    0.000    0.000 
#
# Total GULP energy -222914.221773 kJ/mol
# GULP energy per Si atom -5572.855544 kJ/mol
# Density = 2.184421 g / cm^3
# Si number density = 21.894044 Si / 1000 Ang^3
#
#
#
# Elastic Constant Matrix: (Units=GPa)
#
#
# Indices 1 2 3 4 5 6 
#
# 1 40.1271 21.7182 22.4970 0.0000 0.0000 0.0000
# 2 21.7182 90.2069 30.1738 0.0000 0.0000 0.0000
# 3 22.4970 30.1738 115.9459 0.0000 0.0000 0.0000
# 4 0.0000 0.0000 0.0000 34.9614 0.0000 0.0000
# 5 0.0000 0.0000 0.0000 0.0000 7.0973 0.0000
# 6 0.0000 0.0000 0.0000 0.0000 0.0000 9.7727
#
#
#
# Elastic Compliance Matrix: (Units=1/GPa)
#
#
# Indices 1 2 3 4 5 6 
#
# 1 0.030575 -0.005890 -0.004400 0.000000 0.000000 0.000000
# 2 -0.005890 0.013277 -0.002312 0.000000 0.000000 0.000000
# 3 -0.004400 -0.002312 0.010080 0.000000 0.000000 0.000000
# 4 0.000000 0.000000 0.000000 0.028603 0.000000 0.000000
# 5 0.000000 0.000000 0.000000 0.000000 0.140898 0.000000
# 6 0.000000 0.000000 0.000000 0.000000 0.000000 0.102326
#
#
# Mechanical properties :
#
#
# Convention : Reuss Voigt Hill
#
# Bulk Modulus (GPa) = 34.80830 43.89533 39.35181
# Shear Modulus (GPa) = 13.86814 21.82570 17.84692
#
# Velocity S-wave (km/s) = 2.51951 3.16076 2.85818
# Velocity P-wave (km/s) = 4.93933 5.78040 5.37634
#
# Compressibility (1/GPa) = 0.02872878
#
# Stress axis : x y z
#
# Youngs Moduli (GPa) = 32.70630 75.31757 99.20431
#
# Poissons Ratio (x) = 0.44359 0.43648
# Poissons Ratio (y) = 0.19263 0.22941
# Poissons Ratio (z) = 0.14390 0.17417
#
# Static dielectric constant tensor:
#      x y z
#    x 1.891390 0.000000 0.000000 
#    y 0.000000 1.880340 0.000000 
#    z 0.000000 0.000000 1.826810 
# 
# From -- ./inp_files/30034.got.cif
#   From: 2010.05.17/outbox.cif.g08.bks.cpg/sg73_16_cif.got.tgz:30034.got - 2010.06.03 17:35:07.
