data_PCOD9530777
_publ_section_title
;
Structure prediction by ZEFSAII (Michael W. Deem and Ramdas Pophale) SiO2 
 PCOD9530777
Probable space group: I B C A 
;
_chemical_formula_sum "Si O2"
_cell_formula_units_Z 72
_cell_length_a 5.123953
_cell_length_b 23.230195
_cell_length_c 26.408546
_cell_angle_alpha 90.000000
_cell_angle_beta 90.000000
_cell_angle_gamma 90.000000
_cell_volume 3143.420516
_symmetry_space_group_name_H-M "I B C A "
_symmetry_group_IT_number 73
_symmetry_cell_setting 'orthorhombic'
loop_
_space_group_symop_operation_xyz
x,y,z
-x,1/2-y,z
x,-y,1/2-z
1/2-x,y,-z
-x,-y,-z
x,1/2+y,-z
-x,y,1/2+z
1/2+x,-y,z
1/2+x,1/2+y,1/2+z
1/2-x,-y,1/2+z
1/2+x,1/2-y,-z
-x,1/2+y,1/2-z
1/2-x,1/2-y,1/2-z
1/2+x,y,1/2-z
1/2-x,1/2+y,z
x,1/2-y,1/2+z
loop_
_atom_site_type_symbol
_atom_site_label
_atom_site_fract_x
_atom_site_fract_y
_atom_site_fract_z
Si Si1 0.022055 0.474839 0.193883
Si Si2 0.258576 0.039700 0.943564
Si Si3 0.839597 0.868965 0.855880
Si Si4 0.250000 0.790956 0.000000
Si Si5 0.155716 0.810466 0.111698
O O1 0.064636 0.500000 0.250000
O O2 0.800840 0.514658 0.169028
O O3 0.926511 0.409831 0.190285
O O4 0.337296 0.088157 0.903771
O O5 0.478031 0.990388 0.939197
O O6 0.250000 0.065560 0.000000
O O7 0.543295 0.848148 0.855066
O O8 0.055358 0.819730 0.865703
O O9 0.500000 0.750000 0.011908
O O10 0.317162 0.824886 0.948390
O O11 0.000000 0.750000 0.111237
#
# Coordination Sequence:
#
# PCOD9530777 Si02
#       5
#    16  16  16   8  16
#     4  10  21  39  64  96 124 149 195 263 318 389
#     4  10  21  35  51  78 118 158 198 247 303 364
#     4  12  22  36  62  87 120 165 209 254 319 369
#     4  10  20  38  56  76 116 168 220 274 298 328
#     4  11  24  38  57  86 123 166 219 265 304 353
#
# _framework density 22.904986999999998
#
# number of rings (size 3 to 8) (size 9 to 14) (size 15 to 20)
#    0.000    1.333    0.000    7.333    3.111    0.000 
#    0.000    0.000    0.000    0.000    0.000   62.222 
#    0.000    0.000    0.000    0.000    0.000    0.000 
#
# Total GULP energy -200971.997349 kJ/mol
# GULP energy per Si atom -5582.555482 kJ/mol
# Density = 2.285285 g / cm^3
# Si number density = 22.904987 Si / 1000 Ang^3
#
#
#
# Elastic Constant Matrix: (Units=GPa)
#
#
# Indices 1 2 3 4 5 6 
#
# 1 123.7415 2.9944 11.8960 0.0000 0.0000 0.0000
# 2 2.9944 51.4614 17.1057 0.0000 0.0000 0.0000
# 3 11.8960 17.1057 68.7210 0.0000 0.0000 0.0000
# 4 0.0000 0.0000 0.0000 25.6433 0.0000 0.0000
# 5 0.0000 0.0000 0.0000 0.0000 18.8236 0.0000
# 6 0.0000 0.0000 0.0000 0.0000 0.0000 41.3757
#
#
#
# Elastic Compliance Matrix: (Units=1/GPa)
#
#
# Indices 1 2 3 4 5 6 
#
# 1 0.008218 -0.000006 -0.001421 0.000000 0.000000 0.000000
# 2 -0.000006 0.021185 -0.005272 0.000000 0.000000 0.000000
# 3 -0.001421 -0.005272 0.016110 0.000000 0.000000 0.000000
# 4 0.000000 0.000000 0.000000 0.038996 0.000000 0.000000
# 5 0.000000 0.000000 0.000000 0.000000 0.053125 0.000000
# 6 0.000000 0.000000 0.000000 0.000000 0.000000 0.024169
#
#
# Mechanical properties :
#
#
# Convention : Reuss Voigt Hill
#
# Bulk Modulus (GPa) = 31.13853 34.21290 32.67571
# Shear Modulus (GPa) = 26.89530 31.29705 29.09617
#
# Velocity S-wave (km/s) = 3.43039 3.70048 3.56799
# Velocity P-wave (km/s) = 5.41427 5.76432 5.59203
#
# Compressibility (1/GPa) = 0.03211455
#
# Stress axis : x y z
#
# Youngs Moduli (GPa) = 121.68221 47.20355 62.07349
#
# Poissons Ratio (x) = 0.00027 0.08822
# Poissons Ratio (y) = 0.00071 0.32727
# Poissons Ratio (z) = 0.17293 0.24887
#
# Static dielectric constant tensor:
#      x y z
#    x 1.911590 0.000000 0.000000 
#    y 0.000000 1.910550 0.000000 
#    z 0.000000 0.000000 2.485900 
# 
# From -- ./inp_files/24425.got.cif
#   From: 2010.05.17/outbox.cif.g08.bks.cpg/sg73_13_cif.got.tgz:24425.got - 2010.06.03 17:35:07.
