data_PCOD9530510
_publ_section_title
;
Structure prediction by ZEFSAII (Michael W. Deem and Ramdas Pophale) SiO2 
 PCOD9530510
Probable space group: I B C A 
;
_chemical_formula_sum "Si O2"
_cell_formula_units_Z 104
_cell_length_a 21.717627
_cell_length_b 9.862053
_cell_length_c 24.241655
_cell_angle_alpha 90.000000
_cell_angle_beta 90.000000
_cell_angle_gamma 90.000000
_cell_volume 5192.087086
_symmetry_space_group_name_H-M "I B C A "
_symmetry_group_IT_number 73
_symmetry_cell_setting 'orthorhombic'
loop_
_space_group_symop_operation_xyz
x,y,z
-x,1/2-y,z
x,-y,1/2-z
1/2-x,y,-z
-x,-y,-z
x,1/2+y,-z
-x,y,1/2+z
1/2+x,-y,z
1/2+x,1/2+y,1/2+z
1/2-x,-y,1/2+z
1/2+x,1/2-y,-z
-x,1/2+y,1/2-z
1/2-x,1/2-y,1/2-z
1/2+x,y,1/2-z
1/2-x,1/2+y,z
x,1/2-y,1/2+z
loop_
_atom_site_type_symbol
_atom_site_label
_atom_site_fract_x
_atom_site_fract_y
_atom_site_fract_z
Si Si1 0.936237 0.000000 0.750000
Si Si2 0.150083 0.938052 0.351043
Si Si3 0.652989 0.809573 0.573017
Si Si4 0.783140 0.947842 0.114411
Si Si5 0.457568 0.131501 0.493457
Si Si6 0.250000 0.834818 0.500000
Si Si7 0.000000 0.250000 0.309537
Si Si8 0.891951 0.729255 0.106586
O O1 0.890870 0.935904 0.796156
O O2 0.978552 0.880403 0.725317
O O3 0.130370 0.822396 0.394334
O O4 0.224481 0.924019 0.346379
O O5 0.136537 0.084811 0.376647
O O6 0.598088 0.897588 0.548029
O O7 0.694356 0.759145 0.521435
O O8 0.690963 0.900648 0.616000
O O9 0.759324 0.930637 0.051987
O O10 0.836917 0.836633 0.113277
O O11 0.500000 0.250000 0.469465
O O12 0.426894 0.197038 0.548755
O O13 0.500000 0.000000 0.500000
O O14 0.943052 0.222023 0.350056
#
# Coordination Sequence:
#
# PCOD9530510 Si02
#       8
#     8  16  16  16  16   8   8  16
#     4  10  24  50  72  92 122 168 220 282 340 376
#     4  10  23  43  66  92 127 162 214 280 330 380
#     4  11  23  37  60  96 129 174 215 255 309 396
#     4  11  22  37  62  96 129 169 215 259 324 392
#     4  12  24  38  57  91 135 179 212 252 306 380
#     4  10  20  34  58  86 134 174 206 252 314 378
#     4  10  24  46  72  90 124 172 218 274 330 394
#     4  11  22  42  63  92 133 173 210 266 328 389
#
# _framework density 20.030481000000002
#
# number of rings (size 3 to 8) (size 9 to 14) (size 15 to 20)
#    0.000    1.231    2.308    4.154    4.308    1.231 
#    4.154    7.692    0.000    0.000    0.000    0.000 
#    0.000    0.000    0.000    0.000    0.000    0.000 
#
# Total GULP energy -290126.655426 kJ/mol
# GULP energy per Si atom -5579.358758 kJ/mol
# Density = 1.998489 g / cm^3
# Si number density = 20.030481 Si / 1000 Ang^3
#
#
#
# Elastic Constant Matrix: (Units=GPa)
#
#
# Indices 1 2 3 4 5 6 
#
# 1 121.7218 51.6947 53.2769 0.0000 0.0000 0.0000
# 2 51.6947 88.7985 25.9323 0.0000 0.0000 0.0000
# 3 53.2769 25.9323 67.6892 0.0000 0.0000 0.0000
# 4 0.0000 0.0000 0.0000 20.0332 0.0000 0.0000
# 5 0.0000 0.0000 0.0000 0.0000 10.4324 0.0000
# 6 0.0000 0.0000 0.0000 0.0000 0.0000 34.8143
#
#
#
# Elastic Compliance Matrix: (Units=1/GPa)
#
#
# Indices 1 2 3 4 5 6 
#
# 1 0.014841 -0.005887 -0.009426 0.000000 0.000000 0.000000
# 2 -0.005887 0.015016 -0.001119 0.000000 0.000000 0.000000
# 3 -0.009426 -0.001119 0.022621 0.000000 0.000000 0.000000
# 4 0.000000 0.000000 0.000000 0.049917 0.000000 0.000000
# 5 0.000000 0.000000 0.000000 0.000000 0.095855 0.000000
# 6 0.000000 0.000000 0.000000 0.000000 0.000000 0.028724
#
#
# Mechanical properties :
#
#
# Convention : Reuss Voigt Hill
#
# Bulk Modulus (GPa) = 50.98427 60.00191 55.49309
# Shear Modulus (GPa) = 18.77047 22.87637 20.82342
#
# Velocity S-wave (km/s) = 3.06452 3.38313 3.22776
# Velocity P-wave (km/s) = 6.16687 6.72912 6.45412
#
# Compressibility (1/GPa) = 0.01961389
#
# Stress axis : x y z
#
# Youngs Moduli (GPa) = 67.37882 66.59767 44.20677
#
# Poissons Ratio (x) = 0.39208 0.41669
# Poissons Ratio (y) = 0.39668 0.04946
# Poissons Ratio (z) = 0.63511 0.07451
#
# Static dielectric constant tensor:
#      x y z
#    x 0.181060 0.000000 0.000000 
#    y 0.000000 1.711600 0.000000 
#    z 0.000000 0.000000 1.693450 
# 
# From -- ./inp_files/30501.got.cif
#   From: 2010.05.17/outbox.cif.g08.bks.cpg/sg73_16_cif.got.tgz:30501.got - 2010.06.03 17:35:07.
