data_PCOD9530961
_publ_section_title
;
Structure prediction by ZEFSAII (Michael W. Deem and Ramdas Pophale) SiO2 
 PCOD9530961
Probable space group: I B C A 
;
_chemical_formula_sum "Si O2"
_cell_formula_units_Z 120
_cell_length_a 11.736916
_cell_length_b 20.496097
_cell_length_c 24.079223
_cell_angle_alpha 90.000000
_cell_angle_beta 90.000000
_cell_angle_gamma 90.000000
_cell_volume 5792.521213
_symmetry_space_group_name_H-M "I B C A "
_symmetry_group_IT_number 73
_symmetry_cell_setting 'orthorhombic'
loop_
_space_group_symop_operation_xyz
x,y,z
-x,1/2-y,z
x,-y,1/2-z
1/2-x,y,-z
-x,-y,-z
x,1/2+y,-z
-x,y,1/2+z
1/2+x,-y,z
1/2+x,1/2+y,1/2+z
1/2-x,-y,1/2+z
1/2+x,1/2-y,-z
-x,1/2+y,1/2-z
1/2-x,1/2-y,1/2-z
1/2+x,y,1/2-z
1/2-x,1/2+y,z
x,1/2-y,1/2+z
loop_
_atom_site_type_symbol
_atom_site_label
_atom_site_fract_x
_atom_site_fract_y
_atom_site_fract_z
Si Si1 0.864044 0.638868 0.618661
Si Si2 0.877330 0.928709 0.013560
Si Si3 0.017238 0.967878 0.691832
Si Si4 0.663702 0.860136 0.277284
Si Si5 0.126911 0.332816 0.144702
Si Si6 0.000000 0.750000 0.672635
Si Si7 0.942901 0.051585 0.082127
Si Si8 0.141437 0.679174 0.845988
O O1 0.922912 0.619789 0.560925
O O2 0.899848 0.586421 0.665353
O O3 0.911552 0.708115 0.637386
O O4 0.727926 0.642280 0.613613
O O5 0.875326 0.997060 0.047330
O O6 0.750000 0.910428 0.000000
O O7 0.954173 0.932039 0.959294
O O8 0.901797 0.927696 0.707952
O O9 0.056241 0.000000 0.750000
O O10 0.013358 0.020151 0.640916
O O11 0.782244 0.856259 0.310011
O O12 0.575727 0.802187 0.294117
O O13 0.688040 0.842832 0.213789
O O14 0.133007 0.384743 0.094722
O O15 0.149223 0.255749 0.139091
O O16 0.991969 0.336947 0.157482
#
# Coordination Sequence:
#
# PCOD9530961 Si02
#       8
#    16  16  16  16  16   8  16  16
#     4  10  22  41  66  93 127 172 217 270 329 392
#     4  10  22  43  67  86 124 172 218 273 332 383
#     4  10  23  41  64  97 131 168 215 269 325 396
#     4  11  23  37  63  93 135 179 208 263 325 398
#     4  11  23  39  63  94 133 168 224 263 323 388
#     4  10  20  40  64  88 130 168 224 258 330 396
#     4  10  23  42  65  94 123 167 225 271 321 389
#     4  11  23  38  62  96 137 177 213 260 326 401
#
# _framework density 20.716367999999999
#
# number of rings (size 3 to 8) (size 9 to 14) (size 15 to 20)
#    0.000    1.600    1.333    2.800    7.467    0.000 
#    2.400    2.667    0.000    0.000    0.000    0.000 
#    0.000    0.000    0.000    0.000    0.000    0.000 
#
# Total GULP energy -334555.689865 kJ/mol
# GULP energy per Si atom -5575.928164 kJ/mol
# Density = 2.066922 g / cm^3
# Si number density = 20.716368 Si / 1000 Ang^3
#
#
#
# Elastic Constant Matrix: (Units=GPa)
#
#
# Indices 1 2 3 4 5 6 
#
# 1 66.8063 24.4373 27.0798 0.0000 0.0000 0.0000
# 2 24.4373 90.0435 42.2278 0.0000 0.0000 0.0000
# 3 27.0798 42.2278 123.7942 0.0000 0.0000 0.0000
# 4 0.0000 0.0000 0.0000 15.7176 0.0000 0.0000
# 5 0.0000 0.0000 0.0000 0.0000 17.6819 0.0000
# 6 0.0000 0.0000 0.0000 0.0000 0.0000 12.2501
#
#
#
# Elastic Compliance Matrix: (Units=1/GPa)
#
#
# Indices 1 2 3 4 5 6 
#
# 1 0.017293 -0.003475 -0.002597 0.000000 0.000000 0.000000
# 2 -0.003475 0.013919 -0.003988 0.000000 0.000000 0.000000
# 3 -0.002597 -0.003988 0.010006 0.000000 0.000000 0.000000
# 4 0.000000 0.000000 0.000000 0.063623 0.000000 0.000000
# 5 0.000000 0.000000 0.000000 0.000000 0.056555 0.000000
# 6 0.000000 0.000000 0.000000 0.000000 0.000000 0.081632
#
#
# Mechanical properties :
#
#
# Convention : Reuss Voigt Hill
#
# Bulk Modulus (GPa) = 47.39868 52.01487 49.70677
# Shear Modulus (GPa) = 18.50614 21.58987 20.04801
#
# Velocity S-wave (km/s) = 2.99207 3.23176 3.11422
# Velocity P-wave (km/s) = 5.90476 6.25206 6.08089
#
# Compressibility (1/GPa) = 0.02109764
#
# Stress axis : x y z
#
# Youngs Moduli (GPa) = 57.82816 71.84423 99.93620
#
# Poissons Ratio (x) = 0.24966 0.25957
# Poissons Ratio (y) = 0.20095 0.39853
# Poissons Ratio (z) = 0.15020 0.28650
#
# Static dielectric constant tensor:
#      x y z
#    x 1.756430 0.000000 0.000000 
#    y 0.000000 1.849640 0.000000 
#    z 0.000000 0.000000 1.744350 
# 
# From -- ./inp_files/29083.got.cif
#   From: 2010.05.17/outbox.cif.g08.bks.cpg/sg73_15_cif.got.tgz:29083.got - 2010.06.03 17:35:07.
