data_PCOD9530622
_publ_section_title
;
Structure prediction by ZEFSAII (Michael W. Deem and Ramdas Pophale) SiO2 
 PCOD9530622
Probable space group: I B C A 
;
_chemical_formula_sum "Si O2"
_cell_formula_units_Z 88
_cell_length_a 21.387202
_cell_length_b 22.095689
_cell_length_c 9.423001
_cell_angle_alpha 90.000000
_cell_angle_beta 90.000000
_cell_angle_gamma 90.000000
_cell_volume 4452.980128
_symmetry_space_group_name_H-M "I B C A "
_symmetry_group_IT_number 73
_symmetry_cell_setting 'orthorhombic'
loop_
_space_group_symop_operation_xyz
x,y,z
-x,1/2-y,z
x,-y,1/2-z
1/2-x,y,-z
-x,-y,-z
x,1/2+y,-z
-x,y,1/2+z
1/2+x,-y,z
1/2+x,1/2+y,1/2+z
1/2-x,-y,1/2+z
1/2+x,1/2-y,-z
-x,1/2+y,1/2-z
1/2-x,1/2-y,1/2-z
1/2+x,y,1/2-z
1/2-x,1/2+y,z
x,1/2-y,1/2+z
loop_
_atom_site_type_symbol
_atom_site_label
_atom_site_fract_x
_atom_site_fract_y
_atom_site_fract_z
Si Si1 0.000000 0.750000 0.471692
Si Si2 0.034593 0.332217 0.777232
Si Si3 0.646235 0.856961 0.426184
Si Si4 0.831475 0.000000 0.250000
Si Si5 0.107956 0.372990 0.251099
Si Si6 0.295379 0.226389 0.125641
Si Si7 0.750000 0.553409 0.000000
O O1 0.960766 0.708199 0.364262
O O2 0.962486 0.790602 0.582010
O O3 0.965234 0.359977 0.779293
O O4 0.095516 0.371717 0.804023
O O5 0.618726 0.867997 0.582566
O O6 0.670306 0.788134 0.420378
O O7 0.704543 0.901849 0.413340
O O8 0.872294 0.058980 0.288389
O O9 0.789340 0.015902 0.113732
O O10 0.153891 0.323447 0.323903
O O11 0.250000 0.250000 0.250000
O O12 0.250000 0.203596 0.000000
#
# Coordination Sequence:
#
# PCOD9530622 Si02
#       7
#     8  16  16   8  16  16   8
#     4  10  20  36  58  94 140 152 210 248 332 392
#     4  11  22  38  61  96 126 179 198 265 328 390
#     4  11  22  43  64  93 138 163 205 270 341 381
#     4  10  24  48  66  88 126 174 224 262 318 370
#     4  11  24  42  65  91 134 169 215 269 316 386
#     4  12  22  38  63  98 128 165 206 261 328 393
#     4  10  22  48  68  92 124 174 210 278 314 384
#
# _framework density 19.762046000000002
#
# number of rings (size 3 to 8) (size 9 to 14) (size 15 to 20)
#    0.000    1.091    4.545    3.273    1.273    1.455 
#    3.273    4.545    0.000    0.000    0.000    0.000 
#    0.000    0.000    0.000    0.000    0.000    0.000 
#
# Total GULP energy -245639.885765 kJ/mol
# GULP energy per Si atom -5582.724676 kJ/mol
# Density = 1.971707 g / cm^3
# Si number density = 19.762046 Si / 1000 Ang^3
#
#
#
# Elastic Constant Matrix: (Units=GPa)
#
#
# Indices 1 2 3 4 5 6 
#
# 1 122.2601 46.0539 13.3144 0.0000 0.0000 0.0000
# 2 46.0539 110.1032 11.6867 0.0000 0.0000 0.0000
# 3 13.3144 11.6867 63.8994 0.0000 0.0000 0.0000
# 4 0.0000 0.0000 0.0000 25.4764 0.0000 0.0000
# 5 0.0000 0.0000 0.0000 0.0000 29.4629 0.0000
# 6 0.0000 0.0000 0.0000 0.0000 0.0000 -11.4973
#
#
#
# Elastic Compliance Matrix: (Units=1/GPa)
#
#
# Indices 1 2 3 4 5 6 
#
# 1 0.009817 -0.003966 -0.001320 0.000000 0.000000 0.000000
# 2 -0.003966 0.010865 -0.001161 0.000000 0.000000 0.000000
# 3 -0.001320 -0.001161 0.016137 0.000000 0.000000 0.000000
# 4 0.000000 0.000000 0.000000 0.039252 0.000000 0.000000
# 5 0.000000 0.000000 0.000000 0.000000 0.033941 0.000000
# 6 0.000000 0.000000 0.000000 0.000000 0.000000 -0.086977
#
#
# Mechanical properties :
#
#
# Convention : Reuss Voigt Hill
#
# Bulk Modulus (GPa) = 41.79784 48.70806 45.25295
# Shear Modulus (GPa) = 113.88583 23.70224 68.79403
#
# Velocity S-wave (km/s) = 7.59958 3.46697 5.90650
# Velocity P-wave (km/s) = 9.90966 6.38179 8.33453
#
# Compressibility (1/GPa) = 0.02392468
#
# Stress axis : x y z
#
# Youngs Moduli (GPa) = 101.86363 92.04260 61.96959
#
# Poissons Ratio (x) = 0.36505 0.08181
# Poissons Ratio (y) = 0.40401 0.07192
# Poissons Ratio (z) = 0.13448 0.10683
#
# Static dielectric constant tensor:
#      x y z
#    x 1.873260 0.000000 0.000000 
#    y 0.000000 1.744500 0.000000 
#    z 0.000000 0.000000 1.696100 
# 
# From -- ./inp_files/6336.got.cif
#   From: 2010.05.17/outbox.cif.g08.bks.cpg/sg73_4_cif.got.tgz:6336.got - 2010.06.03 17:35:07.
