data_PCOD9530553
_publ_section_title
;
Structure prediction by ZEFSAII (Michael W. Deem and Ramdas Pophale) SiO2 
 PCOD9530553
Probable space group: I B C A 
;
_chemical_formula_sum "Si O2"
_cell_formula_units_Z 72
_cell_length_a 24.795975
_cell_length_b 13.447195
_cell_length_c 8.809319
_cell_angle_alpha 90.000000
_cell_angle_beta 90.000000
_cell_angle_gamma 90.000000
_cell_volume 2937.346830
_symmetry_space_group_name_H-M "I B C A "
_symmetry_group_IT_number 73
_symmetry_cell_setting 'orthorhombic'
loop_
_space_group_symop_operation_xyz
x,y,z
-x,1/2-y,z
x,-y,1/2-z
1/2-x,y,-z
-x,-y,-z
x,1/2+y,-z
-x,y,1/2+z
1/2+x,-y,z
1/2+x,1/2+y,1/2+z
1/2-x,-y,1/2+z
1/2+x,1/2-y,-z
-x,1/2+y,1/2-z
1/2-x,1/2-y,1/2-z
1/2+x,y,1/2-z
1/2-x,1/2+y,z
x,1/2-y,1/2+z
loop_
_atom_site_type_symbol
_atom_site_label
_atom_site_fract_x
_atom_site_fract_y
_atom_site_fract_z
Si Si1 0.097078 0.487883 0.581825
Si Si2 0.000000 0.250000 0.380348
Si Si3 0.700949 0.368644 0.602515
Si Si4 0.066094 0.641979 0.362862
Si Si5 0.842089 0.710988 0.389089
O O1 0.070859 0.500000 0.750000
O O2 0.150698 0.556709 0.590343
O O3 0.069497 0.531075 0.430669
O O4 0.115690 0.374941 0.569295
O O5 0.955776 0.299715 0.487932
O O6 0.974559 0.167450 0.270695
O O7 0.750000 0.407758 0.500000
O O8 0.701969 0.340789 0.779597
O O9 0.686176 0.263660 0.527545
O O10 0.122266 0.697368 0.320486
#
# Coordination Sequence:
#
# PCOD9530553 Si02
#       5
#    16   8  16  16  16
#     4   9  19  36  57  79 113 155 192 235 293 353
#     4  10  20  36  60  84 116 148 194 254 294 346
#     4  10  20  35  57  86 113 147 192 238 287 342
#     4  10  20  38  58  84 115 154 196 242 299 352
#     4  10  20  38  59  79 114 155 189 235 292 350
#
# _framework density 24.511918000000001
#
# number of rings (size 3 to 8) (size 9 to 14) (size 15 to 20)
#    0.000    2.222    0.000    4.667    0.000    0.889 
#    0.000   24.444    0.000    0.000    0.000    0.000 
#    0.000    0.000    0.000    0.000    0.000    0.000 
#
# Total GULP energy -201079.463168 kJ/mol
# GULP energy per Si atom -5585.540644 kJ/mol
# Density = 2.445613 g / cm^3
# Si number density = 24.511918 Si / 1000 Ang^3
#
#
#
# Elastic Constant Matrix: (Units=GPa)
#
#
# Indices 1 2 3 4 5 6 
#
# 1 50.1932 -0.8849 29.1247 0.0000 0.0000 0.0000
# 2 -0.8849 82.1187 14.3605 0.0000 0.0000 0.0000
# 3 29.1247 14.3605 105.0166 0.0000 0.0000 0.0000
# 4 0.0000 0.0000 0.0000 35.4371 0.0000 0.0000
# 5 0.0000 0.0000 0.0000 0.0000 41.0012 0.0000
# 6 0.0000 0.0000 0.0000 0.0000 0.0000 23.1646
#
#
#
# Elastic Compliance Matrix: (Units=1/GPa)
#
#
# Indices 1 2 3 4 5 6 
#
# 1 0.023912 0.001452 -0.006830 0.000000 0.000000 0.000000
# 2 0.001452 0.012564 -0.002121 0.000000 0.000000 0.000000
# 3 -0.006830 -0.002121 0.011707 0.000000 0.000000 0.000000
# 4 0.000000 0.000000 0.000000 0.028219 0.000000 0.000000
# 5 0.000000 0.000000 0.000000 0.000000 0.024390 0.000000
# 6 0.000000 0.000000 0.000000 0.000000 0.000000 0.043169
#
#
# Mechanical properties :
#
#
# Convention : Reuss Voigt Hill
#
# Bulk Modulus (GPa) = 30.13432 35.83655 32.98544
# Shear Modulus (GPa) = 29.40841 32.90247 31.15544
#
# Velocity S-wave (km/s) = 3.46751 3.66772 3.56902
# Velocity P-wave (km/s) = 5.32466 5.70859 5.51996
#
# Compressibility (1/GPa) = 0.03318475
#
# Stress axis : x y z
#
# Youngs Moduli (GPa) = 41.82030 79.59237 85.42236
#
# Poissons Ratio (x) = -0.11558 0.58345
# Poissons Ratio (y) = -0.06073 0.18116
# Poissons Ratio (z) = 0.28564 0.16880
#
# Static dielectric constant tensor:
#      x y z
#    x 2.002990 0.000000 0.000000 
#    y 0.000000 1.960850 0.000000 
#    z 0.000000 0.000000 1.957090 
# 
# From -- ./inp_files/4788.got.cif
#   From: 2010.05.17/outbox.cif.g08.bks.cpg/sg73_3_cif.got.tgz:4788.got - 2010.06.03 17:35:07.
