data_PCOD9530907
_publ_section_title
;
Structure prediction by ZEFSAII (Michael W. Deem and Ramdas Pophale) SiO2 
 PCOD9530907
Probable space group: I B C A 
;
_chemical_formula_sum "Si O2"
_cell_formula_units_Z 104
_cell_length_a 15.271482
_cell_length_b 16.907482
_cell_length_c 20.481210
_cell_angle_alpha 90.000000
_cell_angle_beta 90.000000
_cell_angle_gamma 90.000000
_cell_volume 5288.295673
_symmetry_space_group_name_H-M "I B C A "
_symmetry_group_IT_number 73
_symmetry_cell_setting 'orthorhombic'
loop_
_space_group_symop_operation_xyz
x,y,z
-x,1/2-y,z
x,-y,1/2-z
1/2-x,y,-z
-x,-y,-z
x,1/2+y,-z
-x,y,1/2+z
1/2+x,-y,z
1/2+x,1/2+y,1/2+z
1/2-x,-y,1/2+z
1/2+x,1/2-y,-z
-x,1/2+y,1/2-z
1/2-x,1/2-y,1/2-z
1/2+x,y,1/2-z
1/2-x,1/2+y,z
x,1/2-y,1/2+z
loop_
_atom_site_type_symbol
_atom_site_label
_atom_site_fract_x
_atom_site_fract_y
_atom_site_fract_z
Si Si1 0.086198 0.645741 0.279246
Si Si2 0.660832 0.422151 0.041034
Si Si3 0.750000 0.682957 0.000000
Si Si4 0.590847 0.293976 0.956719
Si Si5 0.281808 0.418031 0.679057
Si Si6 0.110389 0.175218 0.197884
Si Si7 0.808741 0.928044 0.392153
O O1 0.136420 0.592579 0.226814
O O2 0.111542 0.737899 0.269556
O O3 0.125266 0.623142 0.349694
O O4 0.981674 0.637418 0.280045
O O5 0.687186 0.380938 0.109625
O O6 0.638324 0.511751 0.060768
O O7 0.750000 0.426393 0.000000
O O8 0.592938 0.373999 0.998763
O O9 0.667423 0.738998 0.013779
O O10 0.753235 0.625930 0.063551
O O11 0.500000 0.250000 0.962965
O O12 0.605979 0.312137 0.880467
O O13 0.197400 0.375583 0.708848
O O14 0.263028 0.508584 0.656881
#
# Coordination Sequence:
#
# PCOD9530907 Si02
#       7
#    16  16   8  16  16  16  16
#     4  11  22  41  63  92 128 169 215 265 318 389
#     4  10  20  39  64  87 126 165 207 261 327 374
#     4  12  20  38  66  92 128 166 214 266 320 396
#     4  12  21  40  64  94 128 166 209 267 320 383
#     4  10  22  41  64  86 129 171 209 268 324 381
#     4  11  21  40  66  91 121 171 217 257 322 387
#     4  10  21  38  61  94 124 170 208 260 326 380
#
# _framework density 19.666072
#
# number of rings (size 3 to 8) (size 9 to 14) (size 15 to 20)
#    0.923    0.308    6.154    0.923    0.000    0.000 
#    5.538    4.615    0.000    0.000    0.000    0.000 
#    0.000    0.000    0.000    0.000    0.000    0.000 
#
# Total GULP energy -289923.485811 kJ/mol
# GULP energy per Si atom -5575.451650 kJ/mol
# Density = 1.962131 g / cm^3
# Si number density = 19.666072 Si / 1000 Ang^3
#
#
#
# Elastic Constant Matrix: (Units=GPa)
#
#
# Indices 1 2 3 4 5 6 
#
# 1 90.5491 31.5647 22.7696 0.0000 0.0000 0.0000
# 2 31.5647 63.1265 19.2521 0.0000 0.0000 0.0000
# 3 22.7696 19.2521 79.5090 0.0000 0.0000 0.0000
# 4 0.0000 0.0000 0.0000 69.6488 0.0000 0.0000
# 5 0.0000 0.0000 0.0000 0.0000 24.6136 0.0000
# 6 0.0000 0.0000 0.0000 0.0000 0.0000 6.2447
#
#
#
# Elastic Compliance Matrix: (Units=1/GPa)
#
#
# Indices 1 2 3 4 5 6 
#
# 1 0.013808 -0.006153 -0.002465 0.000000 0.000000 0.000000
# 2 -0.006153 0.019846 -0.003043 0.000000 0.000000 0.000000
# 3 -0.002465 -0.003043 0.014020 0.000000 0.000000 0.000000
# 4 0.000000 0.000000 0.000000 0.014358 0.000000 0.000000
# 5 0.000000 0.000000 0.000000 0.000000 0.040628 0.000000
# 6 0.000000 0.000000 0.000000 0.000000 0.000000 0.160136
#
#
# Mechanical properties :
#
#
# Convention : Reuss Voigt Hill
#
# Bulk Modulus (GPa) = 41.06347 42.26193 41.66270
# Shear Modulus (GPa) = 16.99323 30.74129 23.86726
#
# Velocity S-wave (km/s) = 2.94273 3.95798 3.48749
# Velocity P-wave (km/s) = 5.69841 6.51336 6.11947
#
# Compressibility (1/GPa) = 0.02435254
#
# Stress axis : x y z
#
# Youngs Moduli (GPa) = 72.42016 50.38812 71.32707
#
# Poissons Ratio (x) = 0.31003 0.17579
# Poissons Ratio (y) = 0.44559 0.21708
# Poissons Ratio (z) = 0.17848 0.15335
#
# Static dielectric constant tensor:
#      x y z
#    x 1.643080 0.000000 0.000000 
#    y 0.000000 1.737620 0.000000 
#    z 0.000000 0.000000 1.724760 
# 
# From -- ./inp_files/26134.got.cif
#   From: 2010.05.17/outbox.cif.g08.bks.cpg/sg73_14_cif.got.tgz:26134.got - 2010.06.03 17:35:07.
