data_PCOD9530774
_publ_section_title
;
Structure prediction by ZEFSAII (Michael W. Deem and Ramdas Pophale) SiO2 
 PCOD9530774
Probable space group: I B C A 
;
_chemical_formula_sum "Si O2"
_cell_formula_units_Z 88
_cell_length_a 20.615048
_cell_length_b 17.344075
_cell_length_c 11.232183
_cell_angle_alpha 90.000000
_cell_angle_beta 90.000000
_cell_angle_gamma 90.000000
_cell_volume 4016.055110
_symmetry_space_group_name_H-M "I B C A "
_symmetry_group_IT_number 73
_symmetry_cell_setting 'orthorhombic'
loop_
_space_group_symop_operation_xyz
x,y,z
-x,1/2-y,z
x,-y,1/2-z
1/2-x,y,-z
-x,-y,-z
x,1/2+y,-z
-x,y,1/2+z
1/2+x,-y,z
1/2+x,1/2+y,1/2+z
1/2-x,-y,1/2+z
1/2+x,1/2-y,-z
-x,1/2+y,1/2-z
1/2-x,1/2-y,1/2-z
1/2+x,y,1/2-z
1/2-x,1/2+y,z
x,1/2-y,1/2+z
loop_
_atom_site_type_symbol
_atom_site_label
_atom_site_fract_x
_atom_site_fract_y
_atom_site_fract_z
Si Si1 0.357592 0.391311 0.358409
Si Si2 0.170874 0.031247 0.496375
Si Si3 0.053934 0.190106 0.971748
Si Si4 0.750000 0.799911 0.000000
Si Si5 0.457824 0.972333 0.382979
Si Si6 0.838882 0.190468 0.889115
O O1 0.351486 0.481910 0.381006
O O2 0.422756 0.355512 0.411387
O O3 0.304813 0.354296 0.448089
O O4 0.344646 0.356386 0.231284
O O5 0.250000 0.021896 0.500000
O O6 0.118288 0.997175 0.591986
O O7 0.158972 0.122631 0.487309
O O8 0.035783 0.120376 0.884514
O O9 0.106892 0.245519 0.911295
O O10 0.000000 0.250000 0.006778
O O11 0.774335 0.741272 0.100885
O O12 0.477027 0.000000 0.250000
O O13 0.500000 0.000000 0.500000
#
# Coordination Sequence:
#
# PCOD9530774 Si02
#       6
#    16  16  16   8  16  16
#     4  10  22  39  63  89 132 177 223 279 345 420
#     4  11  23  44  66 101 139 183 238 289 354 430
#     4  10  24  43  65  98 134 173 228 291 346 417
#     4  10  20  38  54  90 128 164 220 276 340 400
#     4  11  27  49  75 104 143 190 242 295 361 437
#     4  11  22  38  64  96 128 175 224 281 349 409
#
# _framework density 21.912050000000001
#
# number of rings (size 3 to 8) (size 9 to 14) (size 15 to 20)
#    0.000    1.455    1.818    2.182    0.000   12.364 
#    0.000    0.000    0.000    0.000    0.000    0.000 
#    0.000    0.000    0.000    0.000    0.000    0.000 
#
# Total GULP energy -245205.311883 kJ/mol
# GULP energy per Si atom -5572.847997 kJ/mol
# Density = 2.186218 g / cm^3
# Si number density = 21.912050 Si / 1000 Ang^3
#
#
#
# Elastic Constant Matrix: (Units=GPa)
#
#
# Indices 1 2 3 4 5 6 
#
# 1 81.0168 35.3109 24.3984 0.0000 0.0000 0.0000
# 2 35.3109 162.8901 15.3393 0.0000 0.0000 0.0000
# 3 24.3984 15.3393 80.9245 0.0000 0.0000 0.0000
# 4 0.0000 0.0000 0.0000 26.0718 0.0000 0.0000
# 5 0.0000 0.0000 0.0000 0.0000 12.6343 0.0000
# 6 0.0000 0.0000 0.0000 0.0000 0.0000 33.6832
#
#
#
# Elastic Compliance Matrix: (Units=1/GPa)
#
#
# Indices 1 2 3 4 5 6 
#
# 1 0.014755 -0.002830 -0.003912 0.000000 0.000000 0.000000
# 2 -0.002830 0.006794 -0.000434 0.000000 0.000000 0.000000
# 3 -0.003912 -0.000434 0.013619 0.000000 0.000000 0.000000
# 4 0.000000 0.000000 0.000000 0.038356 0.000000 0.000000
# 5 0.000000 0.000000 0.000000 0.000000 0.079150 0.000000
# 6 0.000000 0.000000 0.000000 0.000000 0.000000 0.029688
#
#
# Mechanical properties :
#
#
# Convention : Reuss Voigt Hill
#
# Bulk Modulus (GPa) = 48.04441 52.76985 50.40713
# Shear Modulus (GPa) = 24.55165 31.13005 27.84085
#
# Velocity S-wave (km/s) = 3.35096 3.77328 3.56838
# Velocity P-wave (km/s) = 6.07829 6.56646 6.32708
#
# Compressibility (1/GPa) = 0.02081408
#
# Stress axis : x y z
#
# Youngs Moduli (GPa) = 67.77491 147.19904 73.42676
#
# Poissons Ratio (x) = 0.41659 0.28725
# Poissons Ratio (y) = 0.19181 0.03190
# Poissons Ratio (z) = 0.26514 0.06395
#
# Static dielectric constant tensor:
#      x y z
#    x 2.566040 0.000000 0.000000 
#    y 0.000000 1.769130 0.000000 
#    z 0.000000 0.000000 1.801820 
# 
# From -- ./inp_files/12740.got.cif
#   From: 2010.05.17/outbox.cif.g08.bks.cpg/sg73_7_cif.got.tgz:12740.got - 2010.06.03 17:35:07.
