data_PCOD9530454
_publ_section_title
;
Structure prediction by ZEFSAII (Michael W. Deem and Ramdas Pophale) SiO2 
 PCOD9530454
Probable space group: I B C A 
;
_chemical_formula_sum "Si O2"
_cell_formula_units_Z 72
_cell_length_a 27.180157
_cell_length_b 5.186101
_cell_length_c 27.231748
_cell_angle_alpha 90.000000
_cell_angle_beta 90.000000
_cell_angle_gamma 90.000000
_cell_volume 3838.561039
_symmetry_space_group_name_H-M "I B C A "
_symmetry_group_IT_number 73
_symmetry_cell_setting 'orthorhombic'
loop_
_space_group_symop_operation_xyz
x,y,z
-x,1/2-y,z
x,-y,1/2-z
1/2-x,y,-z
-x,-y,-z
x,1/2+y,-z
-x,y,1/2+z
1/2+x,-y,z
1/2+x,1/2+y,1/2+z
1/2-x,-y,1/2+z
1/2+x,1/2-y,-z
-x,1/2+y,1/2-z
1/2-x,1/2-y,1/2-z
1/2+x,y,1/2-z
1/2-x,1/2+y,z
x,1/2-y,1/2+z
loop_
_atom_site_type_symbol
_atom_site_label
_atom_site_fract_x
_atom_site_fract_y
_atom_site_fract_z
Si Si1 0.389889 0.948476 0.027651
Si Si2 0.133929 0.532660 0.364238
Si Si3 0.283291 0.097606 0.437508
Si Si4 0.000000 0.750000 0.217591
Si Si5 0.897078 0.956321 0.692124
O O1 0.329966 0.928651 0.026306
O O2 0.397791 0.001122 0.085372
O O3 0.407783 0.176991 0.992989
O O4 0.188397 0.590140 0.385133
O O5 0.133409 0.274703 0.332315
O O6 0.113243 0.776651 0.335134
O O7 0.246948 0.858301 0.442602
O O8 0.016438 0.500000 0.250000
O O9 0.046506 0.858491 0.188414
O O10 0.887863 0.000000 0.750000
#
# Coordination Sequence:
#
# PCOD9530454 Si02
#       5
#    16  16  16   8  16
#     4  10  20  33  51  79 107 140 181 225 270 314
#     4  10  22  34  53  80 109 146 179 208 280 313
#     4  10  20  33  51  75 110 139 182 230 266 307
#     4  10  20  34  58  90 110 126 162 224 282 324
#     4  11  20  37  58  82 110 136 169 217 271 332
#
# _framework density 18.75703
#
# number of rings (size 3 to 8) (size 9 to 14) (size 15 to 20)
#    1.333    0.444    0.000    7.333    0.000    2.667 
#    0.000    0.000    0.000   13.333    0.000   15.556 
#    0.000    0.000    0.000    0.000    0.000    0.000 
#
# Total GULP energy -200591.452378 kJ/mol
# GULP energy per Si atom -5571.984788 kJ/mol
# Density = 1.871434 g / cm^3
# Si number density = 18.757030 Si / 1000 Ang^3
#
#
#
# Elastic Constant Matrix: (Units=GPa)
#
#
# Indices 1 2 3 4 5 6 
#
# 1 13.8476 -7.7512 6.8339 0.0000 0.0000 0.0000
# 2 -7.7512 102.0959 34.6246 0.0000 0.0000 0.0000
# 3 6.8339 34.6246 94.6408 0.0000 0.0000 0.0000
# 4 0.0000 0.0000 0.0000 31.7438 0.0000 0.0000
# 5 0.0000 0.0000 0.0000 0.0000 94.8907 0.0000
# 6 0.0000 0.0000 0.0000 0.0000 0.0000 2.3817
#
#
#
# Elastic Compliance Matrix: (Units=1/GPa)
#
#
# Indices 1 2 3 4 5 6 
#
# 1 0.082109 0.009412 -0.009372 0.000000 0.000000 0.000000
# 2 0.009412 0.012261 -0.005165 0.000000 0.000000 0.000000
# 3 -0.009372 -0.005165 0.013133 0.000000 0.000000 0.000000
# 4 0.000000 0.000000 0.000000 0.031502 0.000000 0.000000
# 5 0.000000 0.000000 0.000000 0.000000 0.010538 0.000000
# 6 0.000000 0.000000 0.000000 0.000000 0.000000 0.419877
#
#
# Mechanical properties :
#
#
# Convention : Reuss Voigt Hill
#
# Bulk Modulus (GPa) = 10.28262 30.88875 20.58568
# Shear Modulus (GPa) = 8.16876 37.59504 22.88190
#
# Velocity S-wave (km/s) = 2.08914 4.48182 3.49651
# Velocity P-wave (km/s) = 3.36351 6.57920 5.22489
#
# Compressibility (1/GPa) = 0.09725152
#
# Stress axis : x y z
#
# Youngs Moduli (GPa) = 12.17898 81.55884 76.14510
#
# Poissons Ratio (x) = -0.76766 0.71367
# Poissons Ratio (y) = -0.11463 0.39332
# Poissons Ratio (z) = 0.11415 0.42128
#
# Static dielectric constant tensor:
#      x y z
#    x 1.654420 0.000000 0.000000 
#    y 0.000000 1.632410 0.000000 
#    z 0.000000 0.000000 1.679250 
# 
# From -- ./inp_files/30592.got.cif
#   From: 2010.05.17/outbox.cif.g08.bks.cpg/sg73_16_cif.got.tgz:30592.got - 2010.06.03 17:35:07.
