data_PCOD9530318
_publ_section_title
;
Structure prediction by ZEFSAII (Michael W. Deem and Ramdas Pophale) SiO2 
 PCOD9530318
Probable space group: I B C A 
;
_chemical_formula_sum "Si O2"
_cell_formula_units_Z 88
_cell_length_a 10.298272
_cell_length_b 22.187778
_cell_length_c 14.232531
_cell_angle_alpha 90.000000
_cell_angle_beta 90.000000
_cell_angle_gamma 90.000000
_cell_volume 3252.073171
_symmetry_space_group_name_H-M "I B C A "
_symmetry_group_IT_number 73
_symmetry_cell_setting 'orthorhombic'
loop_
_space_group_symop_operation_xyz
x,y,z
-x,1/2-y,z
x,-y,1/2-z
1/2-x,y,-z
-x,-y,-z
x,1/2+y,-z
-x,y,1/2+z
1/2+x,-y,z
1/2+x,1/2+y,1/2+z
1/2-x,-y,1/2+z
1/2+x,1/2-y,-z
-x,1/2+y,1/2-z
1/2-x,1/2-y,1/2-z
1/2+x,y,1/2-z
1/2-x,1/2+y,z
x,1/2-y,1/2+z
loop_
_atom_site_type_symbol
_atom_site_label
_atom_site_fract_x
_atom_site_fract_y
_atom_site_fract_z
Si Si1 0.617781 0.311546 0.317141
Si Si2 0.567471 0.391443 0.157919
Si Si3 0.112287 0.500319 0.854762
Si Si4 0.886157 0.782793 0.645152
Si Si5 0.250000 0.578462 0.500000
Si Si6 0.537794 0.875713 0.046673
O O1 0.643694 0.371872 0.251907
O O2 0.738826 0.293368 0.382719
O O3 0.619635 0.262075 0.234307
O O4 0.487957 0.322475 0.378491
O O5 0.519284 0.459558 0.148121
O O6 0.441069 0.348296 0.171056
O O7 0.613789 0.371708 0.052982
O O8 0.160318 0.500000 0.750000
O O9 0.087259 0.565804 0.897637
O O10 0.216053 0.465326 0.915368
O O11 0.000000 0.750000 0.584510
O O12 0.113589 0.611467 0.481273
#
# Coordination Sequence:
#
# PCOD9530318 Si02
#       6
#    16  16  16  16   8  16
#     4  10  19  38  65  92 126 174 221 280 347 399
#     4  10  20  39  61  90 134 170 229 281 340 416
#     4  11  22  41  61  95 138 176 232 292 347 420
#     4   9  20  38  62  93 126 167 220 277 335 412
#     4  10  22  38  60  96 130 184 234 278 356 426
#     4  11  22  40  64  98 129 182 227 287 347 415
#
# _framework density 27.059660999999998
#
# number of rings (size 3 to 8) (size 9 to 14) (size 15 to 20)
#    0.000    1.818    1.818    4.364    0.000    0.727 
#    9.818    8.182    0.000    4.364    0.000    0.000 
#    0.000    0.000    0.000    0.182    0.000    0.000 
#
# Total GULP energy -245595.927573 kJ/mol
# GULP energy per Si atom -5581.725627 kJ/mol
# Density = 2.699807 g / cm^3
# Si number density = 27.059661 Si / 1000 Ang^3
#
#
#
# Elastic Constant Matrix: (Units=GPa)
#
#
# Indices 1 2 3 4 5 6 
#
# 1 57.6039 1.3303 0.5196 0.0000 0.0000 0.0000
# 2 1.3303 84.4852 20.6228 0.0000 0.0000 0.0000
# 3 0.5196 20.6228 174.3539 0.0001 0.0000 0.0000
# 4 0.0000 0.0000 0.0001 34.2382 0.0000 0.0000
# 5 0.0000 0.0000 0.0000 0.0000 9.7703 0.0000
# 6 0.0000 0.0000 0.0000 0.0000 0.0000 7.8299
#
#
#
# Elastic Compliance Matrix: (Units=1/GPa)
#
#
# Indices 1 2 3 4 5 6 
#
# 1 0.017366 -0.000269 -0.000020 0.000000 0.000000 0.000000
# 2 -0.000269 0.012192 -0.001441 0.000000 0.000000 0.000000
# 3 -0.000020 -0.001441 0.005906 0.000000 0.000000 0.000000
# 4 0.000000 0.000000 0.000000 0.029207 0.000000 0.000000
# 5 0.000000 0.000000 0.000000 0.000000 0.102351 0.000000
# 6 0.000000 0.000000 0.000000 0.000000 0.000000 0.127715
#
#
# Mechanical properties :
#
#
# Convention : Reuss Voigt Hill
#
# Bulk Modulus (GPa) = 31.24515 40.15428 35.69971
# Shear Modulus (GPa) = 16.18828 29.96573 23.07700
#
# Velocity S-wave (km/s) = 2.44856 3.33136 2.92348
# Velocity P-wave (km/s) = 4.42332 5.44690 4.96157
#
# Compressibility (1/GPa) = 0.03200497
#
# Stress axis : x y z
#
# Youngs Moduli (GPa) = 57.58277 82.01800 169.31926
#
# Poissons Ratio (x) = 0.02203 0.00338
# Poissons Ratio (y) = 0.01546 0.24405
# Poissons Ratio (z) = 0.00115 0.11822
#
# Static dielectric constant tensor:
#      x y z
#    x 2.223390 0.000000 0.000000 
#    y 0.000000 2.143060 0.000000 
#    z 0.000000 0.000000 2.220730 
# 
# From -- ./inp_files/16113.got.cif
#   From: 2010.05.17/outbox.cif.g08.bks.cpg/sg73_9_cif.got.tgz:16113.got - 2010.06.03 17:35:07.
