data_PCOD9530125
_publ_section_title
;
Structure prediction by ZEFSAII (Michael W. Deem and Ramdas Pophale) SiO2 
 PCOD9530125
Probable space group: I B C A 
;
_chemical_formula_sum "Si O2"
_cell_formula_units_Z 112
_cell_length_a 19.926703
_cell_length_b 11.077499
_cell_length_c 24.799968
_cell_angle_alpha 90.000000
_cell_angle_beta 90.000000
_cell_angle_gamma 90.000000
_cell_volume 5474.296144
_symmetry_space_group_name_H-M "I B C A "
_symmetry_group_IT_number 73
_symmetry_cell_setting 'orthorhombic'
loop_
_space_group_symop_operation_xyz
x,y,z
-x,1/2-y,z
x,-y,1/2-z
1/2-x,y,-z
-x,-y,-z
x,1/2+y,-z
-x,y,1/2+z
1/2+x,-y,z
1/2+x,1/2+y,1/2+z
1/2-x,-y,1/2+z
1/2+x,1/2-y,-z
-x,1/2+y,1/2-z
1/2-x,1/2-y,1/2-z
1/2+x,y,1/2-z
1/2-x,1/2+y,z
x,1/2-y,1/2+z
loop_
_atom_site_type_symbol
_atom_site_label
_atom_site_fract_x
_atom_site_fract_y
_atom_site_fract_z
Si Si1 0.225816 0.974097 0.618072
Si Si2 0.642151 0.484373 0.813458
Si Si3 0.252974 0.276582 0.935811
Si Si4 0.584772 0.542426 0.099528
Si Si5 0.101112 0.801956 0.396872
Si Si6 0.958924 0.631821 0.118626
Si Si7 0.575550 0.516206 0.980516
O O1 0.258373 0.082739 0.581089
O O2 0.150525 0.013138 0.634626
O O3 0.281362 0.971330 0.665375
O O4 0.216816 0.841384 0.590569
O O5 0.639668 0.500000 0.750000
O O6 0.605501 0.367517 0.839451
O O7 0.599715 0.592907 0.841032
O O8 0.326676 0.250814 0.912939
O O9 0.250000 0.267314 0.000000
O O10 0.559558 0.679618 0.102534
O O11 0.519997 0.464087 0.114055
O O12 0.611743 0.522623 0.037723
O O13 0.091073 0.903826 0.442223
O O14 0.924227 0.632165 0.058872
O O15 0.000000 0.750000 0.132030
O O16 0.500000 0.500000 0.000000
#
# Coordination Sequence:
#
# PCOD9530125 Si02
#       7
#    16  16  16  16  16  16  16
#     4  10  22  38  62  92 123 172 210 261 310 382
#     4  10  23  46  65  84 119 165 211 273 336 366
#     4  10  19  33  57  89 131 162 201 245 310 375
#     4  10  21  37  61  93 132 162 206 252 303 388
#     4   9  20  37  55  88 119 164 209 247 308 370
#     4  10  23  39  61  96 127 164 211 257 315 381
#     4   9  19  31  56  88 128 168 194 239 306 370
#
# _framework density 20.459251999999999
#
# number of rings (size 3 to 8) (size 9 to 14) (size 15 to 20)
#    0.000    2.286    0.000    1.286    6.000   10.286 
#    2.571    7.143    0.000    0.000    0.000    0.000 
#    0.000    0.000    0.000    0.000    0.000    0.000 
#
# Total GULP energy -311825.456629 kJ/mol
# GULP energy per Si atom -5568.311726 kJ/mol
# Density = 2.041269 g / cm^3
# Si number density = 20.459252 Si / 1000 Ang^3
#
#
#
# Elastic Constant Matrix: (Units=GPa)
#
#
# Indices 1 2 3 4 5 6 
#
# 1 61.0048 7.1968 11.1598 0.0000 0.0000 0.0000
# 2 7.1968 91.6335 18.7853 0.0000 0.0000 0.0000
# 3 11.1598 18.7853 121.6050 0.0000 0.0000 0.0000
# 4 0.0000 0.0000 0.0000 2.3751 0.0000 0.0000
# 5 0.0000 0.0000 0.0000 0.0000 17.5333 0.0000
# 6 0.0000 0.0000 0.0000 0.0000 0.0000 31.0608
#
#
#
# Elastic Compliance Matrix: (Units=1/GPa)
#
#
# Indices 1 2 3 4 5 6 
#
# 1 0.016766 -0.001034 -0.001379 0.000000 0.000000 0.000000
# 2 -0.001034 0.011334 -0.001656 0.000000 0.000000 0.000000
# 3 -0.001379 -0.001656 0.008606 0.000000 0.000000 0.000000
# 4 0.000000 0.000000 0.000000 0.421035 0.000000 0.000000
# 5 0.000000 0.000000 0.000000 0.000000 0.057034 0.000000
# 6 0.000000 0.000000 0.000000 0.000000 0.000000 0.032195
#
#
# Mechanical properties :
#
#
# Convention : Reuss Voigt Hill
#
# Bulk Modulus (GPa) = 35.00432 38.72522 36.86477
# Shear Modulus (GPa) = 8.85535 26.00060 17.42797
#
# Velocity S-wave (km/s) = 2.08271 3.56876 2.92179
# Velocity P-wave (km/s) = 4.78853 5.99587 5.42589
#
# Compressibility (1/GPa) = 0.02856791
#
# Stress axis : x y z
#
# Youngs Moduli (GPa) = 59.64315 88.23220 116.20221
#
# Poissons Ratio (x) = 0.09124 0.16023
# Poissons Ratio (y) = 0.06168 0.19242
# Poissons Ratio (z) = 0.08224 0.14610
#
# Static dielectric constant tensor:
#      x y z
#    x 1.843330 0.000000 0.000000 
#    y 0.000000 1.876040 0.000000 
#    z 0.000000 0.000000 1.737690 
# 
# From -- ./inp_files/30126.got.cif
#   From: 2010.05.17/outbox.cif.g08.bks.cpg/sg73_16_cif.got.tgz:30126.got - 2010.06.03 17:35:07.
