data_PCOD9530022
_publ_section_title
;
Structure prediction by ZEFSAII (Michael W. Deem and Ramdas Pophale) SiO2 
 PCOD9530022
Probable space group: I B C A 
;
_chemical_formula_sum "Si O2"
_cell_formula_units_Z 96
_cell_length_a 19.282121
_cell_length_b 12.298038
_cell_length_c 20.202488
_cell_angle_alpha 90.000000
_cell_angle_beta 90.000000
_cell_angle_gamma 90.000000
_cell_volume 4790.661572
_symmetry_space_group_name_H-M "I B C A "
_symmetry_group_IT_number 73
_symmetry_cell_setting 'orthorhombic'
loop_
_space_group_symop_operation_xyz
x,y,z
-x,1/2-y,z
x,-y,1/2-z
1/2-x,y,-z
-x,-y,-z
x,1/2+y,-z
-x,y,1/2+z
1/2+x,-y,z
1/2+x,1/2+y,1/2+z
1/2-x,-y,1/2+z
1/2+x,1/2-y,-z
-x,1/2+y,1/2-z
1/2-x,1/2-y,1/2-z
1/2+x,y,1/2-z
1/2-x,1/2+y,z
x,1/2-y,1/2+z
loop_
_atom_site_type_symbol
_atom_site_label
_atom_site_fract_x
_atom_site_fract_y
_atom_site_fract_z
Si Si1 0.178530 0.615906 0.219053
Si Si2 0.441042 0.824520 0.495838
Si Si3 0.171327 0.317279 0.684229
Si Si4 0.100303 0.510947 0.109637
Si Si5 0.476164 0.869410 0.648390
Si Si6 0.184681 0.689618 0.451483
O O1 0.161278 0.500000 0.250000
O O2 0.158674 0.716177 0.265905
O O3 0.261179 0.621272 0.209672
O O4 0.138993 0.606339 0.149718
O O5 0.500000 0.750000 0.464187
O O6 0.464810 0.855569 0.569663
O O7 0.373347 0.750312 0.504892
O O8 0.430399 0.931906 0.454517
O O9 0.100683 0.386485 0.677627
O O10 0.193358 0.268335 0.612442
O O11 0.153109 0.418925 0.082530
O O12 0.038798 0.454821 0.152484
O O13 0.500000 0.750000 0.672766
O O14 0.250000 0.670904 0.500000
#
# Coordination Sequence:
#
# PCOD9530022 Si02
#       6
#    16  16  16  16  16  16
#     4  11  22  42  64  87 126 168 212 261 312 370
#     4  10  21  39  59  90 129 163 197 260 317 372
#     4  10  22  42  64  88 127 166 210 262 312 375
#     4  12  22  39  65  92 124 168 209 254 321 382
#     4  10  18  39  65  89 123 164 205 253 321 372
#     4  11  22  38  63  95 123 162 208 256 314 381
#
# _framework density 20.038985
#
# number of rings (size 3 to 8) (size 9 to 14) (size 15 to 20)
#    0.000    1.333    6.667    1.500    0.000    3.333 
#    0.000    5.000    0.000    0.000    0.000    0.000 
#    0.000    0.000    0.000    0.000    0.000    0.000 
#
# Total GULP energy -267737.481580 kJ/mol
# GULP energy per Si atom -5577.864200 kJ/mol
# Density = 1.999338 g / cm^3
# Si number density = 20.038985 Si / 1000 Ang^3
#
#
#
# Elastic Constant Matrix: (Units=GPa)
#
#
# Indices 1 2 3 4 5 6 
#
# 1 123.3024 29.7810 38.8913 0.0000 0.0000 0.0000
# 2 29.7810 38.6715 18.0836 0.0000 0.0000 0.0000
# 3 38.8913 18.0836 44.7538 0.0000 0.0000 0.0000
# 4 0.0000 0.0000 0.0000 20.3246 0.0000 0.0000
# 5 0.0000 0.0000 0.0000 0.0000 35.1751 0.0000
# 6 0.0000 0.0000 0.0000 0.0000 0.0000 19.4100
#
#
#
# Elastic Compliance Matrix: (Units=1/GPa)
#
#
# Indices 1 2 3 4 5 6 
#
# 1 0.012020 -0.005391 -0.008267 0.000000 0.000000 0.000000
# 2 -0.005391 0.034301 -0.009175 0.000000 0.000000 0.000000
# 3 -0.008267 -0.009175 0.033236 0.000000 0.000000 0.000000
# 4 0.000000 0.000000 0.000000 0.049202 0.000000 0.000000
# 5 0.000000 0.000000 0.000000 0.000000 0.028429 0.000000
# 6 0.000000 0.000000 0.000000 0.000000 0.000000 0.051520
#
#
# Mechanical properties :
#
#
# Convention : Reuss Voigt Hill
#
# Bulk Modulus (GPa) = 29.50678 42.24883 35.87781
# Shear Modulus (GPa) = 18.82036 22.98004 20.90020
#
# Velocity S-wave (km/s) = 3.06794 3.39007 3.23302
# Velocity P-wave (km/s) = 5.22555 6.03759 5.64619
#
# Compressibility (1/GPa) = 0.03389051
#
# Stress axis : x y z
#
# Youngs Moduli (GPa) = 83.19718 29.15391 30.08781
#
# Poissons Ratio (x) = 0.15716 0.24874
# Poissons Ratio (y) = 0.44848 0.27607
# Poissons Ratio (z) = 0.68779 0.26750
#
# Static dielectric constant tensor:
#      x y z
#    x 1.748200 0.000000 0.000000 
#    y 0.000000 1.751490 0.000000 
#    z 0.000000 0.000000 1.764560 
# 
# From -- ./inp_files/26908.got.cif
#   From: 2010.05.17/outbox.cif.g08.bks.cpg/sg73_14_cif.got.tgz:26908.got - 2010.06.03 17:35:07.
