data_PCOD9530743
_publ_section_title
;
Structure prediction by ZEFSAII (Michael W. Deem and Ramdas Pophale) SiO2 
 PCOD9530743
Probable space group: I B C A 
;
_chemical_formula_sum "Si O2"
_cell_formula_units_Z 88
_cell_length_a 19.025707
_cell_length_b 25.182793
_cell_length_c 8.709042
_cell_angle_alpha 90.000000
_cell_angle_beta 90.000000
_cell_angle_gamma 90.000000
_cell_volume 4172.680044
_symmetry_space_group_name_H-M "I B C A "
_symmetry_group_IT_number 73
_symmetry_cell_setting 'orthorhombic'
loop_
_space_group_symop_operation_xyz
x,y,z
-x,1/2-y,z
x,-y,1/2-z
1/2-x,y,-z
-x,-y,-z
x,1/2+y,-z
-x,y,1/2+z
1/2+x,-y,z
1/2+x,1/2+y,1/2+z
1/2-x,-y,1/2+z
1/2+x,1/2-y,-z
-x,1/2+y,1/2-z
1/2-x,1/2-y,1/2-z
1/2+x,y,1/2-z
1/2-x,1/2+y,z
x,1/2-y,1/2+z
loop_
_atom_site_type_symbol
_atom_site_label
_atom_site_fract_x
_atom_site_fract_y
_atom_site_fract_z
Si Si1 0.000000 0.750000 0.029647
Si Si2 0.056382 0.177192 0.708017
Si Si3 0.250000 0.740389 0.500000
Si Si4 0.597276 0.975362 0.982252
Si Si5 0.524791 0.565153 0.170462
Si Si6 0.207482 0.670767 0.208167
Si Si7 0.750000 0.578485 0.500000
O O1 0.027098 0.703982 0.139677
O O2 0.057501 0.776253 0.917874
O O3 0.012566 0.127520 0.650286
O O4 0.131361 0.152484 0.741530
O O5 0.236125 0.702159 0.355901
O O6 0.302618 0.784283 0.424999
O O7 0.555925 0.947153 0.839165
O O8 0.582266 0.037175 0.941945
O O9 0.550314 0.960055 0.128083
O O10 0.677971 0.955979 0.993043
O O11 0.249472 0.620315 0.143108
#
# Coordination Sequence:
#
# PCOD9530743 Si02
#       7
#     8  16   8  16  16  16   8
#     4  10  24  34  60 100 134 162 232 272 320 402
#     4  11  20  39  59  96 126 177 210 281 325 397
#     4   9  20  38  55  90 120 178 219 257 328 404
#     4  10  22  43  67 100 125 176 217 286 320 410
#     4  10  21  42  70  88 131 170 222 259 347 394
#     4  10  20  37  62  86 131 173 216 271 329 392
#     4  11  22  42  65  98 136 172 221 279 344 384
#
# _framework density 21.089565
#
# number of rings (size 3 to 8) (size 9 to 14) (size 15 to 20)
#    0.000    1.818    1.818    2.182    0.000    0.000 
#   13.091    8.182    0.000    0.000    0.000    0.000 
#    0.000    0.000    0.000    0.000    0.000    0.000 
#
# Total GULP energy -244969.609982 kJ/mol
# GULP energy per Si atom -5567.491136 kJ/mol
# Density = 2.104156 g / cm^3
# Si number density = 21.089565 Si / 1000 Ang^3
#
#
#
# Elastic Constant Matrix: (Units=GPa)
#
#
# Indices 1 2 3 4 5 6 
#
# 1 103.8813 26.0484 44.8686 0.0000 0.0000 0.0000
# 2 26.0484 80.8343 54.5226 0.0000 0.0000 0.0000
# 3 44.8686 54.5226 95.1766 0.0000 0.0000 0.0000
# 4 0.0000 0.0000 0.0000 31.7250 0.0000 0.0000
# 5 0.0000 0.0000 0.0000 0.0000 7.3170 0.0000
# 6 0.0000 0.0000 0.0000 0.0000 0.0000 30.0271
#
#
#
# Elastic Compliance Matrix: (Units=1/GPa)
#
#
# Indices 1 2 3 4 5 6 
#
# 1 0.012088 -0.000084 -0.005650 0.000000 0.000000 0.000000
# 2 -0.000084 0.020162 -0.011510 0.000000 0.000000 0.000000
# 3 -0.005650 -0.011510 0.019764 0.000000 0.000000 0.000000
# 4 0.000000 0.000000 0.000000 0.031521 0.000000 0.000000
# 5 0.000000 0.000000 0.000000 0.000000 0.136667 0.000000
# 6 0.000000 0.000000 0.000000 0.000000 0.000000 0.033303
#
#
# Mechanical properties :
#
#
# Convention : Reuss Voigt Hill
#
# Bulk Modulus (GPa) = 57.06264 58.97460 58.01862
# Shear Modulus (GPa) = 17.01630 24.11066 20.56348
#
# Velocity S-wave (km/s) = 2.84361 3.38487 3.12597
# Velocity P-wave (km/s) = 6.15609 6.58035 6.37175
#
# Compressibility (1/GPa) = 0.01752460
#
# Stress axis : x y z
#
# Youngs Moduli (GPa) = 82.72666 49.59919 50.59663
#
# Poissons Ratio (x) = 0.00417 0.28589
# Poissons Ratio (y) = 0.00696 0.58237
# Poissons Ratio (z) = 0.46744 0.57089
#
# Static dielectric constant tensor:
#      x y z
#    x 1.775290 0.000000 0.000000 
#    y 0.000000 1.840410 0.000000 
#    z 0.000000 0.000000 1.798250 
# 
# From -- ./inp_files/6333.got.cif
#   From: 2010.05.17/outbox.cif.g08.bks.cpg/sg73_4_cif.got.tgz:6333.got - 2010.06.03 17:35:07.
