data_PCOD9530635
_publ_section_title
;
Structure prediction by ZEFSAII (Michael W. Deem and Ramdas Pophale) SiO2 
 PCOD9530635
Probable space group: I B C A 
;
_chemical_formula_sum "Si O2"
_cell_formula_units_Z 80
_cell_length_a 11.778630
_cell_length_b 21.717700
_cell_length_c 15.125660
_cell_angle_alpha 90.000000
_cell_angle_beta 90.000000
_cell_angle_gamma 90.000000
_cell_volume 3869.215716
_symmetry_space_group_name_H-M "I B C A "
_symmetry_group_IT_number 73
_symmetry_cell_setting 'orthorhombic'
loop_
_space_group_symop_operation_xyz
x,y,z
-x,1/2-y,z
x,-y,1/2-z
1/2-x,y,-z
-x,-y,-z
x,1/2+y,-z
-x,y,1/2+z
1/2+x,-y,z
1/2+x,1/2+y,1/2+z
1/2-x,-y,1/2+z
1/2+x,1/2-y,-z
-x,1/2+y,1/2-z
1/2-x,1/2-y,1/2-z
1/2+x,y,1/2-z
1/2-x,1/2+y,z
x,1/2-y,1/2+z
loop_
_atom_site_type_symbol
_atom_site_label
_atom_site_fract_x
_atom_site_fract_y
_atom_site_fract_z
Si Si1 0.483552 0.677507 0.683239
Si Si2 0.479624 0.899705 0.859714
Si Si3 0.595288 0.000000 0.750000
Si Si4 0.711937 0.903992 0.637222
Si Si5 0.631440 0.385449 0.966173
Si Si6 0.750000 0.496265 0.500000
O O1 0.500000 0.750000 0.685076
O O2 0.491947 0.648261 0.780853
O O3 0.362282 0.657033 0.642579
O O4 0.575859 0.645758 0.618549
O O5 0.516683 0.966949 0.822924
O O6 0.344949 0.895196 0.871967
O O7 0.547388 0.886629 0.949860
O O8 0.677210 0.944781 0.720949
O O9 0.676635 0.950753 0.559329
O O10 0.750000 0.355558 0.000000
O O11 0.671523 0.455900 0.946442
#
# Coordination Sequence:
#
# PCOD9530635 Si02
#       6
#    16  16   8  16  16   8
#     4  11  28  48  67 102 142 193 249 285 342 422
#     4  11  24  41  70 104 139 186 229 296 355 420
#     4  10  20  36  60 104 140 170 218 282 360 430
#     4  11  23  38  68 100 140 177 228 287 361 413
#     4  10  24  46  71 101 145 185 225 297 363 415
#     4  10  22  40  68 104 142 168 236 286 364 428
#
# _framework density 20.676024999999999
#
# number of rings (size 3 to 8) (size 9 to 14) (size 15 to 20)
#    0.600    0.800    2.000    1.800   14.000    3.200 
#    5.400    0.000    0.000    0.000    0.000    0.000 
#    0.000    0.000    0.000    0.000    0.000    0.000 
#
# Total GULP energy -223168.427680 kJ/mol
# GULP energy per Si atom -5579.210692 kJ/mol
# Density = 2.062897 g / cm^3
# Si number density = 20.676025 Si / 1000 Ang^3
#
#
#
# Elastic Constant Matrix: (Units=GPa)
#
#
# Indices 1 2 3 4 5 6 
#
# 1 124.8262 38.7417 11.1605 -0.0001 0.0000 -0.0001
# 2 38.7417 132.8677 38.3910 -0.0002 0.0000 -0.0002
# 3 11.1605 38.3910 63.5266 -0.0003 0.0000 -0.0003
# 4 -0.0001 -0.0002 -0.0003 34.8376 0.0000 -0.0001
# 5 0.0000 0.0000 0.0000 0.0000 35.6803 0.0000
# 6 -0.0001 -0.0002 -0.0003 -0.0001 0.0000 32.6258
#
#
#
# Elastic Compliance Matrix: (Units=1/GPa)
#
#
# Indices 1 2 3 4 5 6 
#
# 1 0.008808 -0.002570 0.000006 0.000000 0.000000 0.000000
# 2 -0.002570 0.009868 -0.005512 0.000000 0.000000 0.000000
# 3 0.000006 -0.005512 0.019072 0.000000 0.000000 0.000000
# 4 0.000000 0.000000 0.000000 0.028705 0.000000 0.000000
# 5 0.000000 0.000000 0.000000 0.000000 0.028027 0.000000
# 6 0.000000 0.000000 0.000000 0.000000 0.000000 0.030651
#
#
# Mechanical properties :
#
#
# Convention : Reuss Voigt Hill
#
# Bulk Modulus (GPa) = 46.30666 55.31189 50.80927
# Shear Modulus (GPa) = 33.67419 36.15722 34.91570
#
# Velocity S-wave (km/s) = 4.04004 4.18634 4.11384
# Velocity P-wave (km/s) = 6.64887 7.08358 6.86966
#
# Compressibility (1/GPa) = 0.02159517
#
# Stress axis : x y z
#
# Youngs Moduli (GPa) = 113.52980 101.33409 52.43380
#
# Poissons Ratio (x) = 0.26042 -0.00030
# Poissons Ratio (y) = 0.29177 0.28903
# Poissons Ratio (z) = -0.00064 0.55858
#
# Static dielectric constant tensor:
#      x y z
#    x 1.765430 0.000000 0.000000 
#    y 0.000000 1.708540 0.000000 
#    z 0.000000 0.000000 1.870430 
# 
# From -- ./inp_files/21242.got.cif
#   From: 2010.05.17/outbox.cif.g08.bks.cpg/sg73_11_cif.got.tgz:21242.got - 2010.06.03 17:35:07.
