data_PCOD9530017
_publ_section_title
;
Structure prediction by ZEFSAII (Michael W. Deem and Ramdas Pophale) SiO2 
 PCOD9530017
Probable space group: I B C A 
;
_chemical_formula_sum "Si O2"
_cell_formula_units_Z 88
_cell_length_a 13.963078
_cell_length_b 21.303593
_cell_length_c 14.138242
_cell_angle_alpha 90.000000
_cell_angle_beta 90.000000
_cell_angle_gamma 90.000000
_cell_volume 4205.614211
_symmetry_space_group_name_H-M "I B C A "
_symmetry_group_IT_number 73
_symmetry_cell_setting 'orthorhombic'
loop_
_space_group_symop_operation_xyz
x,y,z
-x,1/2-y,z
x,-y,1/2-z
1/2-x,y,-z
-x,-y,-z
x,1/2+y,-z
-x,y,1/2+z
1/2+x,-y,z
1/2+x,1/2+y,1/2+z
1/2-x,-y,1/2+z
1/2+x,1/2-y,-z
-x,1/2+y,1/2-z
1/2-x,1/2-y,1/2-z
1/2+x,y,1/2-z
1/2-x,1/2+y,z
x,1/2-y,1/2+z
loop_
_atom_site_type_symbol
_atom_site_label
_atom_site_fract_x
_atom_site_fract_y
_atom_site_fract_z
Si Si1 0.622863 0.710450 0.812063
Si Si2 0.198848 0.160451 0.596405
Si Si3 0.250000 0.962627 0.000000
Si Si4 0.062345 0.169838 0.915447
Si Si5 0.580973 0.549722 0.523658
Si Si6 0.025811 0.669942 0.879852
O O1 0.728618 0.683625 0.823441
O O2 0.615999 0.782810 0.845824
O O3 0.548629 0.673314 0.882114
O O4 0.577453 0.698447 0.710052
O O5 0.250000 0.187168 0.500000
O O6 0.088910 0.175537 0.616682
O O7 0.205133 0.085651 0.575949
O O8 0.172827 0.008571 0.044676
O O9 0.093802 0.098235 0.934452
O O10 0.067752 0.196748 0.021873
O O11 0.500000 0.500000 0.500000
O O12 0.550617 0.596216 0.607868
#
# Coordination Sequence:
#
# PCOD9530017 Si02
#       6
#    16  16   8  16  16  16
#     4  11  21  42  67 102 140 181 244 283 360 442
#     4  10  19  42  73 101 135 195 233 289 370 427
#     4  10  18  38  78  94 136 186 244 284 368 436
#     4   9  22  41  63  97 142 183 227 296 356 414
#     4  10  18  42  72  99 134 186 232 293 359 426
#     4  10  22  42  70 100 142 190 233 303 359 423
#
# _framework density 20.924410000000002
#
# number of rings (size 3 to 8) (size 9 to 14) (size 15 to 20)
#    1.636    0.364    3.636    1.091    0.000    2.909 
#    4.909    9.091    0.000    0.000    0.000    0.000 
#    0.000    0.000    0.000    0.000    0.000    0.000 
#
# Total GULP energy -245179.977695 kJ/mol
# GULP energy per Si atom -5572.272220 kJ/mol
# Density = 2.087679 g / cm^3
# Si number density = 20.924410 Si / 1000 Ang^3
#
#
#
# Elastic Constant Matrix: (Units=GPa)
#
#
# Indices 1 2 3 4 5 6 
#
# 1 112.5657 40.1150 57.7677 0.0000 0.0000 0.0000
# 2 40.1150 149.9984 47.7498 0.0004 0.0000 0.0000
# 3 57.7677 47.7498 142.3788 0.0006 0.0000 0.0000
# 4 0.0000 0.0004 0.0006 16.1040 0.0000 0.0000
# 5 0.0000 0.0000 0.0000 0.0000 30.9233 0.0000
# 6 0.0000 0.0000 0.0000 0.0000 0.0000 24.3457
#
#
#
# Elastic Compliance Matrix: (Units=1/GPa)
#
#
# Indices 1 2 3 4 5 6 
#
# 1 0.011639 -0.001802 -0.004118 0.000000 0.000000 0.000000
# 2 -0.001802 0.007742 -0.001866 0.000000 0.000000 0.000000
# 3 -0.004118 -0.001866 0.009320 0.000000 0.000000 0.000000
# 4 0.000000 0.000000 0.000000 0.062096 0.000000 0.000000
# 5 0.000000 0.000000 0.000000 0.000000 0.032338 0.000000
# 6 0.000000 0.000000 0.000000 0.000000 0.000000 0.041075
#
#
# Mechanical properties :
#
#
# Convention : Reuss Voigt Hill
#
# Bulk Modulus (GPa) = 76.15717 77.35642 76.75680
# Shear Modulus (GPa) = 27.15048 31.56198 29.35623
#
# Velocity S-wave (km/s) = 3.60606 3.88800 3.74968
# Velocity P-wave (km/s) = 7.33577 7.56341 7.45046
#
# Compressibility (1/GPa) = 0.01313074
#
# Stress axis : x y z
#
# Youngs Moduli (GPa) = 85.91663 129.15768 107.29576
#
# Poissons Ratio (x) = 0.23272 0.44186
# Poissons Ratio (y) = 0.15480 0.20017
# Poissons Ratio (z) = 0.35382 0.24095
#
# Static dielectric constant tensor:
#      x y z
#    x 1.924130 0.000000 0.000000 
#    y 0.000000 1.761130 0.000000 
#    z 0.000000 0.000000 1.794200 
# 
# From -- ./inp_files/17162.got.cif
#   From: 2010.05.17/outbox.cif.g08.bks.cpg/sg73_9_cif.got.tgz:17162.got - 2010.06.03 17:35:07.
