data_PCOD9530412
_publ_section_title
;
Structure prediction by ZEFSAII (Michael W. Deem and Ramdas Pophale) SiO2 
 PCOD9530412
Probable space group: I B C A 
;
_chemical_formula_sum "Si O2"
_cell_formula_units_Z 96
_cell_length_a 17.823713
_cell_length_b 27.911918
_cell_length_c 8.837898
_cell_angle_alpha 90.000000
_cell_angle_beta 90.000000
_cell_angle_gamma 90.000000
_cell_volume 4396.801366
_symmetry_space_group_name_H-M "I B C A "
_symmetry_group_IT_number 73
_symmetry_cell_setting 'orthorhombic'
loop_
_space_group_symop_operation_xyz
x,y,z
-x,1/2-y,z
x,-y,1/2-z
1/2-x,y,-z
-x,-y,-z
x,1/2+y,-z
-x,y,1/2+z
1/2+x,-y,z
1/2+x,1/2+y,1/2+z
1/2-x,-y,1/2+z
1/2+x,1/2-y,-z
-x,1/2+y,1/2-z
1/2-x,1/2-y,1/2-z
1/2+x,y,1/2-z
1/2-x,1/2+y,z
x,1/2-y,1/2+z
loop_
_atom_site_type_symbol
_atom_site_label
_atom_site_fract_x
_atom_site_fract_y
_atom_site_fract_z
Si Si1 0.937908 0.179047 0.584659
Si Si2 0.500000 0.250000 0.663722
Si Si3 0.084048 0.380380 0.057136
Si Si4 0.208510 0.549673 0.336065
Si Si5 0.695439 0.694770 0.186461
Si Si6 0.675903 0.372298 0.734221
Si Si7 0.750000 0.279418 0.000000
O O1 0.860267 0.152016 0.620365
O O2 0.953128 0.214473 0.444466
O O3 0.953863 0.213667 0.729439
O O4 0.998023 0.135012 0.571381
O O5 0.127862 0.424453 0.138071
O O6 0.125302 0.334646 0.130422
O O7 0.109773 0.385224 0.882523
O O8 0.200619 0.500000 0.250000
O O9 0.250000 0.544860 0.500000
O O10 0.265709 0.584503 0.244624
O O11 0.773059 0.667203 0.150373
O O12 0.702079 0.696962 0.367098
O O13 0.697540 0.745101 0.102966
#
# Coordination Sequence:
#
# PCOD9530412 Si02
#       7
#    16   8  16  16  16  16   8
#     4  11  22  38  55  86 122 166 207 238 288 331
#     4  10  24  36  56  80 126 172 204 244 272 348
#     4  10  20  39  60  81 118 155 192 240 300 352
#     4   9  20  43  69  92 113 146 189 246 315 375
#     4  10  20  34  51  79 109 148 193 242 292 336
#     4  10  20  39  60  81 118 155 192 240 300 352
#     4  10  20  30  54  80 106 146 196 252 282 334
#
# _framework density 21.834053000000001
#
# number of rings (size 3 to 8) (size 9 to 14) (size 15 to 20)
#    0.000    2.000    3.333    1.000    0.000    9.333 
#    9.000    0.833    0.000    4.000    0.000    0.000 
#    0.000    0.000    0.000    0.000    0.000    0.000 
#
# Total GULP energy -268059.312902 kJ/mol
# GULP energy per Si atom -5584.569019 kJ/mol
# Density = 2.178436 g / cm^3
# Si number density = 21.834053 Si / 1000 Ang^3
#
#
#
# Elastic Constant Matrix: (Units=GPa)
#
#
# Indices 1 2 3 4 5 6 
#
# 1 75.4672 18.3723 11.0881 -0.0001 0.0000 0.0000
# 2 18.3723 107.7125 32.8637 -0.0001 0.0000 0.0000
# 3 11.0881 32.8637 108.3760 -0.0002 -0.0001 -0.0002
# 4 -0.0001 -0.0001 -0.0002 16.9369 -0.0001 0.0000
# 5 0.0000 0.0000 -0.0001 -0.0001 23.3503 0.0000
# 6 0.0000 0.0000 -0.0002 0.0000 0.0000 1.7428
#
#
#
# Elastic Compliance Matrix: (Units=1/GPa)
#
#
# Indices 1 2 3 4 5 6 
#
# 1 0.013884 -0.002132 -0.000774 0.000000 0.000000 0.000000
# 2 -0.002132 0.010558 -0.002983 0.000000 0.000000 0.000000
# 3 -0.000774 -0.002983 0.010211 0.000000 0.000000 0.000001
# 4 0.000000 0.000000 0.000000 0.059043 0.000000 0.000002
# 5 0.000000 0.000000 0.000000 0.000000 0.042826 0.000000
# 6 0.000000 0.000000 0.000001 0.000002 0.000000 0.573773
#
#
# Mechanical properties :
#
#
# Convention : Reuss Voigt Hill
#
# Bulk Modulus (GPa) = 43.71822 46.24486 44.98154
# Shear Modulus (GPa) = 6.85216 23.68813 15.27014
#
# Velocity S-wave (km/s) = 1.77344 3.29738 2.64743
# Velocity P-wave (km/s) = 4.92543 5.97688 5.47645
#
# Compressibility (1/GPa) = 0.02287376
#
# Stress axis : x y z
#
# Youngs Moduli (GPa) = 72.02785 94.71610 97.93354
#
# Poissons Ratio (x) = 0.20193 0.07580
# Poissons Ratio (y) = 0.15356 0.29218
# Poissons Ratio (z) = 0.05575 0.28258
#
# Static dielectric constant tensor:
#      x y z
#    x 1.876690 0.000000 0.000000 
#    y 0.000000 1.813570 0.000000 
#    z 0.000000 0.000000 1.846520 
# 
# From -- ./inp_files/6510.got.cif
#   From: 2010.05.17/outbox.cif.g08.bks.cpg/sg73_4_cif.got.tgz:6510.got - 2010.06.03 17:35:07.
