data_PCOD9530667
_publ_section_title
;
Structure prediction by ZEFSAII (Michael W. Deem and Ramdas Pophale) SiO2 
 PCOD9530667
Probable space group: I B C A 
;
_chemical_formula_sum "Si O2"
_cell_formula_units_Z 88
_cell_length_a 16.672698
_cell_length_b 18.625793
_cell_length_c 12.431695
_cell_angle_alpha 90.000000
_cell_angle_beta 90.000000
_cell_angle_gamma 90.000000
_cell_volume 3860.566185
_symmetry_space_group_name_H-M "I B C A "
_symmetry_group_IT_number 73
_symmetry_cell_setting 'orthorhombic'
loop_
_space_group_symop_operation_xyz
x,y,z
-x,1/2-y,z
x,-y,1/2-z
1/2-x,y,-z
-x,-y,-z
x,1/2+y,-z
-x,y,1/2+z
1/2+x,-y,z
1/2+x,1/2+y,1/2+z
1/2-x,-y,1/2+z
1/2+x,1/2-y,-z
-x,1/2+y,1/2-z
1/2-x,1/2-y,1/2-z
1/2+x,y,1/2-z
1/2-x,1/2+y,z
x,1/2-y,1/2+z
loop_
_atom_site_type_symbol
_atom_site_label
_atom_site_fract_x
_atom_site_fract_y
_atom_site_fract_z
Si Si1 0.272961 0.084043 0.232619
Si Si2 0.609678 0.638633 0.709388
Si Si3 0.500000 0.750000 0.811670
Si Si4 0.996551 0.500000 0.250000
Si Si5 0.750000 0.534537 0.500000
Si Si6 0.525038 0.830539 0.008528
Si Si7 0.390833 0.940740 0.079177
O O1 0.197532 0.133164 0.256198
O O2 0.342963 0.095290 0.319489
O O3 0.251219 0.000000 0.250000
O O4 0.274490 0.082492 0.102864
O O5 0.568383 0.710187 0.749012
O O6 0.558449 0.569987 0.746723
O O7 0.597310 0.640046 0.580299
O O8 0.540272 0.812215 0.885057
O O9 0.052570 0.502906 0.356338
O O10 0.827475 0.479741 0.500059
O O11 0.500000 0.750000 0.046339
O O12 0.449553 0.883466 0.024422
#
# Coordination Sequence:
#
# PCOD9530667 Si02
#       7
#    16  16   8   8   8  16  16
#     4  10  21  37  60  97 129 163 211 269 332 385
#     4  11  21  40  63  93 128 160 219 272 321 393
#     4  10  22  40  64  88 124 168 210 268 314 390
#     4  10  20  36  64  90 126 164 198 276 336 366
#     4  10  20  36  62  96 134 166 210 262 338 400
#     4   9  22  39  59  87 118 172 213 252 322 383
#     4  10  20  38  60  90 131 163 212 271 320 389
#
# _framework density 22.794584
#
# number of rings (size 3 to 8) (size 9 to 14) (size 15 to 20)
#    0.545    1.455    4.545    0.000    5.091    1.455 
#    0.000    4.545    0.000    1.091    0.000    0.000 
#    0.000    0.000    0.000    0.000    0.000    0.000 
#
# Total GULP energy -245274.816362 kJ/mol
# GULP energy per Si atom -5574.427645 kJ/mol
# Density = 2.274270 g / cm^3
# Si number density = 22.794584 Si / 1000 Ang^3
#
#
#
# Elastic Constant Matrix: (Units=GPa)
#
#
# Indices 1 2 3 4 5 6 
#
# 1 61.9237 17.1983 16.6665 0.0000 0.0000 0.0000
# 2 17.1983 60.4338 11.0059 0.0000 0.0000 0.0000
# 3 16.6665 11.0059 83.2336 0.0000 0.0000 0.0000
# 4 0.0000 0.0000 0.0000 29.3998 0.0000 0.0000
# 5 0.0000 0.0000 0.0000 0.0000 6.6359 0.0000
# 6 0.0000 0.0000 0.0000 0.0000 0.0000 21.4492
#
#
#
# Elastic Compliance Matrix: (Units=1/GPa)
#
#
# Indices 1 2 3 4 5 6 
#
# 1 0.018257 -0.004642 -0.003042 0.000000 0.000000 0.000000
# 2 -0.004642 0.018135 -0.001469 0.000000 0.000000 0.000000
# 3 -0.003042 -0.001469 0.012818 0.000000 0.000000 0.000000
# 4 0.000000 0.000000 0.000000 0.034014 0.000000 0.000000
# 5 0.000000 0.000000 0.000000 0.000000 0.150695 0.000000
# 6 0.000000 0.000000 0.000000 0.000000 0.000000 0.046622
#
#
# Mechanical properties :
#
#
# Convention : Reuss Voigt Hill
#
# Bulk Modulus (GPa) = 32.35655 32.81471 32.58563
# Shear Modulus (GPa) = 16.17354 22.21167 19.19261
#
# Velocity S-wave (km/s) = 2.66660 3.12497 2.90484
# Velocity P-wave (km/s) = 4.86895 5.23905 5.05739
#
# Compressibility (1/GPa) = 0.03090564
#
# Stress axis : x y z
#
# Youngs Moduli (GPa) = 54.77425 55.14082 78.01721
#
# Poissons Ratio (x) = 0.25594 0.23732
# Poissons Ratio (y) = 0.25424 0.11458
# Poissons Ratio (z) = 0.16662 0.08098
#
# Static dielectric constant tensor:
#      x y z
#    x 1.856600 0.000000 0.000000 
#    y 0.000000 1.459330 0.000000 
#    z 0.000000 0.000000 2.004230 
# 
# From -- ./inp_files/18105.got.cif
#   From: 2010.05.17/outbox.cif.g08.bks.cpg/sg73_10_cif.got.tgz:18105.got - 2010.06.03 17:35:07.
