data_PCOD9530771
_publ_section_title
;
Structure prediction by ZEFSAII (Michael W. Deem and Ramdas Pophale) SiO2 
 PCOD9530771
Probable space group: I B C A 
;
_chemical_formula_sum "Si O2"
_cell_formula_units_Z 96
_cell_length_a 8.646444
_cell_length_b 16.958623
_cell_length_c 27.520215
_cell_angle_alpha 90.000000
_cell_angle_beta 90.000000
_cell_angle_gamma 90.000000
_cell_volume 4035.338224
_symmetry_space_group_name_H-M "I B C A "
_symmetry_group_IT_number 73
_symmetry_cell_setting 'orthorhombic'
loop_
_space_group_symop_operation_xyz
x,y,z
-x,1/2-y,z
x,-y,1/2-z
1/2-x,y,-z
-x,-y,-z
x,1/2+y,-z
-x,y,1/2+z
1/2+x,-y,z
1/2+x,1/2+y,1/2+z
1/2-x,-y,1/2+z
1/2+x,1/2-y,-z
-x,1/2+y,1/2-z
1/2-x,1/2-y,1/2-z
1/2+x,y,1/2-z
1/2-x,1/2+y,z
x,1/2-y,1/2+z
loop_
_atom_site_type_symbol
_atom_site_label
_atom_site_fract_x
_atom_site_fract_y
_atom_site_fract_z
Si Si1 0.363468 0.309153 0.455017
Si Si2 0.784707 0.973732 0.946526
Si Si3 0.505051 0.915694 0.388819
Si Si4 0.714458 0.223439 0.135283
Si Si5 0.809808 0.627384 0.698242
Si Si6 0.461017 0.157465 0.298475
O O1 0.500000 0.250000 0.464593
O O2 0.250000 0.302911 0.500000
O O3 0.405078 0.401083 0.451335
O O4 0.287069 0.279716 0.405159
O O5 0.627689 0.932679 0.928064
O O6 0.853501 0.030526 0.906112
O O7 0.750000 0.008278 0.000000
O O8 0.577749 0.828679 0.386355
O O9 0.417561 0.924477 0.337184
O O10 0.671233 0.281768 0.179471
O O11 0.847320 0.164523 0.155528
O O12 0.625230 0.614522 0.693829
O O13 0.868628 0.622509 0.753041
O O14 0.500000 0.250000 0.287703
#
# Coordination Sequence:
#
# PCOD9530771 Si02
#       6
#    16  16  16  16  16  16
#     4  11  26  44  72 108 145 182 245 307 364 427
#     4  11  28  49  69 100 144 194 244 293 361 439
#     4  12  26  44  72  99 143 191 239 293 362 434
#     4  11  23  41  72 107 142 185 238 303 368 429
#     4  11  21  40  70 111 139 184 240 295 362 432
#     4  10  20  37  69 113 145 178 233 302 364 438
#
# _framework density 23.789826999999999
#
# number of rings (size 3 to 8) (size 9 to 14) (size 15 to 20)
#    0.000    1.000    1.667    6.500    7.000    0.667 
#    0.000    0.000    0.000   12.000    0.000    0.000 
#    0.000    0.000    0.000    0.000    0.000    0.000 
#
# Total GULP energy -268556.774809 kJ/mol
# GULP energy per Si atom -5594.932809 kJ/mol
# Density = 2.373568 g / cm^3
# Si number density = 23.789827 Si / 1000 Ang^3
#
#
#
# Elastic Constant Matrix: (Units=GPa)
#
#
# Indices 1 2 3 4 5 6 
#
# 1 103.8850 42.7776 42.3607 0.0000 0.0000 0.0000
# 2 42.7776 56.7288 23.4565 0.0000 0.0000 0.0000
# 3 42.3607 23.4565 122.4121 0.0000 0.0000 0.0000
# 4 0.0000 0.0000 0.0000 -2.7024 0.0000 0.0000
# 5 0.0000 0.0000 0.0000 0.0000 38.8461 0.0000
# 6 0.0000 0.0000 0.0000 0.0000 0.0000 30.1811
#
#
#
# Elastic Compliance Matrix: (Units=1/GPa)
#
#
# Indices 1 2 3 4 5 6 
#
# 1 0.015100 -0.010020 -0.003305 0.000000 0.000000 0.000000
# 2 -0.010020 0.025793 -0.001475 0.000000 0.000000 0.000000
# 3 -0.003305 -0.001475 0.009596 0.000000 0.000000 0.000000
# 4 0.000000 0.000000 0.000000 -0.370046 0.000000 0.000000
# 5 0.000000 0.000000 0.000000 0.000000 0.025743 0.000000
# 6 0.000000 0.000000 0.000000 0.000000 0.000000 0.033133
#
#
# Mechanical properties :
#
#
# Convention : Reuss Voigt Hill
#
# Bulk Modulus (GPa) = 47.87360 55.57950 51.72655
# Shear Modulus (GPa) = -22.30962 24.89370 1.29204
#
# Velocity S-wave (km/s) = -3.06564 3.23832 0.73776
# Velocity P-wave (km/s) = 2.76340 6.11521 4.74511
#
# Compressibility (1/GPa) = 0.02088834
#
# Stress axis : x y z
#
# Youngs Moduli (GPa) = 66.22673 38.77000 104.21439
#
# Poissons Ratio (x) = 0.38846 0.34446
# Poissons Ratio (y) = 0.66356 0.15374
# Poissons Ratio (z) = 0.21890 0.05719
#
# Static dielectric constant tensor:
#      x y z
#    x 2.132100 0.000000 0.000000 
#    y 0.000000 1.958360 0.000000 
#    z 0.000000 0.000000 1.921150 
# 
# From -- ./inp_files/31170.got.cif
#   From: 2010.05.17/outbox.cif.g08.bks.cpg/sg73_16_cif.got.tgz:31170.got - 2010.06.03 17:35:07.
