data_PCOD9530601
_publ_section_title
;
Structure prediction by ZEFSAII (Michael W. Deem and Ramdas Pophale) SiO2 
 PCOD9530601
Probable space group: I B C A 
;
_chemical_formula_sum "Si O2"
_cell_formula_units_Z 96
_cell_length_a 26.543614
_cell_length_b 19.234545
_cell_length_c 8.017282
_cell_angle_alpha 90.000000
_cell_angle_beta 90.000000
_cell_angle_gamma 90.000000
_cell_volume 4093.258104
_symmetry_space_group_name_H-M "I B C A "
_symmetry_group_IT_number 73
_symmetry_cell_setting 'orthorhombic'
loop_
_space_group_symop_operation_xyz
x,y,z
-x,1/2-y,z
x,-y,1/2-z
1/2-x,y,-z
-x,-y,-z
x,1/2+y,-z
-x,y,1/2+z
1/2+x,-y,z
1/2+x,1/2+y,1/2+z
1/2-x,-y,1/2+z
1/2+x,1/2-y,-z
-x,1/2+y,1/2-z
1/2-x,1/2-y,1/2-z
1/2+x,y,1/2-z
1/2-x,1/2+y,z
x,1/2-y,1/2+z
loop_
_atom_site_type_symbol
_atom_site_label
_atom_site_fract_x
_atom_site_fract_y
_atom_site_fract_z
Si Si1 0.945573 0.716898 0.482968
Si Si2 0.798709 0.822552 0.075769
Si Si3 0.119272 0.894934 0.346843
Si Si4 0.607841 0.827272 0.699804
Si Si5 0.736351 0.063666 0.829114
Si Si6 0.132632 0.037834 0.511278
O O1 0.928716 0.656317 0.355281
O O2 0.906072 0.779182 0.454402
O O3 0.935328 0.684845 0.663669
O O4 0.000000 0.750000 0.465047
O O5 0.840408 0.799892 0.214182
O O6 0.772805 0.884024 0.181328
O O7 0.750000 0.782429 0.000000
O O8 0.834548 0.853433 0.931236
O O9 0.133148 0.920022 0.162819
O O10 0.109939 0.963326 0.461902
O O11 0.609732 0.907254 0.643075
O O12 0.768031 0.000000 0.750000
O O13 0.750000 0.103156 0.000000
O O14 0.687230 0.025557 0.908043
#
# Coordination Sequence:
#
# PCOD9530601 Si02
#       6
#    16  16  16  16  16  16
#     4  11  23  43  69  94 122 170 225 278 339 412
#     4  10  20  36  56  90 132 177 223 271 324 388
#     4  10  21  38  65  95 133 174 217 273 334 397
#     4  10  23  40  65  94 130 171 221 273 329 400
#     4  11  20  28  51  88 134 180 225 264 309 386
#     4  10  21  37  60  96 135 171 211 276 333 383
#
# _framework density 23.453201
#
# number of rings (size 3 to 8) (size 9 to 14) (size 15 to 20)
#    0.000    1.667    1.667    3.000    2.333    0.000 
#    0.000    5.000    0.000   14.000    0.000    0.000 
#    0.000    0.000    0.000    0.000    0.000    0.000 
#
# Total GULP energy -267726.599811 kJ/mol
# GULP energy per Si atom -5577.637496 kJ/mol
# Density = 2.339982 g / cm^3
# Si number density = 23.453201 Si / 1000 Ang^3
#
#
#
# Elastic Constant Matrix: (Units=GPa)
#
#
# Indices 1 2 3 4 5 6 
#
# 1 118.9161 49.0969 42.4414 0.0000 0.0000 0.0000
# 2 49.0969 75.9422 23.8536 0.0000 0.0000 0.0000
# 3 42.4414 23.8536 126.1460 0.0000 0.0000 0.0000
# 4 0.0000 0.0000 0.0000 36.0585 0.0000 0.0000
# 5 0.0000 0.0000 0.0000 0.0000 19.5338 0.0000
# 6 0.0000 0.0000 0.0000 0.0000 0.0000 18.0828
#
#
#
# Elastic Compliance Matrix: (Units=1/GPa)
#
#
# Indices 1 2 3 4 5 6 
#
# 1 0.012342 -0.007097 -0.002811 0.000000 0.000000 0.000000
# 2 -0.007097 0.018080 -0.001031 0.000000 0.000000 0.000000
# 3 -0.002811 -0.001031 0.009068 0.000000 0.000000 0.000000
# 4 0.000000 0.000000 0.000000 0.027733 0.000000 0.000000
# 5 0.000000 0.000000 0.000000 0.000000 0.051193 0.000000
# 6 0.000000 0.000000 0.000000 0.000000 0.000000 0.055301
#
#
# Mechanical properties :
#
#
# Convention : Reuss Voigt Hill
#
# Bulk Modulus (GPa) = 56.77519 61.30981 59.04250
# Shear Modulus (GPa) = 24.81821 28.44252 26.63037
#
# Velocity S-wave (km/s) = 3.25653 3.48621 3.37333
# Velocity P-wave (km/s) = 6.19681 6.51176 6.35623
#
# Compressibility (1/GPa) = 0.01761333
#
# Stress axis : x y z
#
# Youngs Moduli (GPa) = 81.02176 55.31050 110.27872
#
# Poissons Ratio (x) = 0.39251 0.30995
# Poissons Ratio (y) = 0.57498 0.11372
# Poissons Ratio (z) = 0.22772 0.05703
#
# Static dielectric constant tensor:
#      x y z
#    x 1.970270 0.000000 0.000000 
#    y 0.000000 1.889730 0.000000 
#    z 0.000000 0.000000 1.978370 
# 
# From -- ./inp_files/7805.got.cif
#   From: 2010.05.17/outbox.cif.g08.bks.cpg/sg73_4_cif.got.tgz:7805.got - 2010.06.03 17:35:07.
