data_PCOD9530247
_publ_section_title
;
Structure prediction by ZEFSAII (Michael W. Deem and Ramdas Pophale) SiO2 
 PCOD9530247
Probable space group: I B C A 
;
_chemical_formula_sum "Si O2"
_cell_formula_units_Z 88
_cell_length_a 13.391662
_cell_length_b 18.864373
_cell_length_c 18.245609
_cell_angle_alpha 90.000000
_cell_angle_beta 90.000000
_cell_angle_gamma 90.000000
_cell_volume 4609.302576
_symmetry_space_group_name_H-M "I B C A "
_symmetry_group_IT_number 73
_symmetry_cell_setting 'orthorhombic'
loop_
_space_group_symop_operation_xyz
x,y,z
-x,1/2-y,z
x,-y,1/2-z
1/2-x,y,-z
-x,-y,-z
x,1/2+y,-z
-x,y,1/2+z
1/2+x,-y,z
1/2+x,1/2+y,1/2+z
1/2-x,-y,1/2+z
1/2+x,1/2-y,-z
-x,1/2+y,1/2-z
1/2-x,1/2-y,1/2-z
1/2+x,y,1/2-z
1/2-x,1/2+y,z
x,1/2-y,1/2+z
loop_
_atom_site_type_symbol
_atom_site_label
_atom_site_fract_x
_atom_site_fract_y
_atom_site_fract_z
Si Si1 0.867795 0.699032 0.655126
Si Si2 0.003057 0.404912 0.935989
Si Si3 0.852729 0.981236 0.960057
Si Si4 0.139548 0.791030 0.010238
Si Si5 0.145348 0.670127 0.884270
Si Si6 0.000000 0.250000 0.214937
O O1 0.873569 0.759060 0.591686
O O2 0.750727 0.681780 0.657059
O O3 0.940099 0.636973 0.624603
O O4 0.912870 0.722630 0.731837
O O5 0.096997 0.454390 0.915655
O O6 0.051718 0.348610 0.993572
O O7 0.925056 0.456693 0.974344
O O8 0.847005 0.909760 0.912746
O O9 0.750000 0.999697 0.000000
O O10 0.250000 0.823309 0.000000
O O11 0.139756 0.726067 0.952465
O O12 0.050546 0.689620 0.834804
#
# Coordination Sequence:
#
# PCOD9530247 Si02
#       6
#    16  16  16  16  16   8
#     4  11  21  39  62  87 119 159 200 260 307 361
#     4  11  20  34  61  89 122 148 201 247 316 356
#     4  11  21  36  59  92 121 157 194 258 312 367
#     4  10  19  36  63  89 115 150 204 260 304 354
#     4  11  22  39  61  91 122 159 203 254 310 371
#     4  12  24  36  64  88 124 162 212 244 304 380
#
# _framework density 19.091823999999999
#
# number of rings (size 3 to 8) (size 9 to 14) (size 15 to 20)
#    0.000    1.091    5.455    2.727    0.000    0.000 
#    0.000    0.909    0.000    2.182    0.000    0.000 
#    0.000    0.000    0.000    0.000    0.000    0.000 
#
# Total GULP energy -245383.207578 kJ/mol
# GULP energy per Si atom -5576.891081 kJ/mol
# Density = 1.904837 g / cm^3
# Si number density = 19.091824 Si / 1000 Ang^3
#
#
#
# Elastic Constant Matrix: (Units=GPa)
#
#
# Indices 1 2 3 4 5 6 
#
# 1 117.1818 28.8887 18.9534 0.0000 0.0000 0.0000
# 2 28.8887 65.1030 3.7363 0.0000 0.0000 0.0000
# 3 18.9534 3.7363 52.9605 0.0000 0.0000 0.0000
# 4 0.0000 0.0000 0.0000 6.9899 0.0000 0.0000
# 5 0.0000 0.0000 0.0000 0.0000 32.7856 0.0000
# 6 0.0000 0.0000 0.0000 0.0000 0.0000 32.9205
#
#
#
# Elastic Compliance Matrix: (Units=1/GPa)
#
#
# Indices 1 2 3 4 5 6 
#
# 1 0.010133 -0.004306 -0.003322 0.000000 0.000000 0.000000
# 2 -0.004306 0.017252 0.000324 0.000000 0.000000 0.000000
# 3 -0.003322 0.000324 0.020048 0.000000 0.000000 0.000000
# 4 0.000000 0.000000 0.000000 0.143063 0.000000 0.000000
# 5 0.000000 0.000000 0.000000 0.000000 0.030501 0.000000
# 6 0.000000 0.000000 0.000000 0.000000 0.000000 0.030376
#
#
# Mechanical properties :
#
#
# Convention : Reuss Voigt Hill
#
# Bulk Modulus (GPa) = 30.46509 37.60021 34.03265
# Shear Modulus (GPa) = 18.05552 26.78368 22.41960
#
# Velocity S-wave (km/s) = 3.07859 3.74958 3.43053
# Velocity P-wave (km/s) = 5.35058 6.20346 5.79274
#
# Compressibility (1/GPa) = 0.03282445
#
# Stress axis : x y z
#
# Youngs Moduli (GPa) = 98.69164 57.96354 49.87979
#
# Poissons Ratio (x) = 0.24956 0.16572
# Poissons Ratio (y) = 0.42492 -0.01615
# Poissons Ratio (z) = 0.32790 -0.01876
#
# Static dielectric constant tensor:
#      x y z
#    x 1.731270 0.000000 0.000000 
#    y 0.000000 1.688980 0.000000 
#    z 0.000000 0.000000 1.647120 
# 
# From -- ./inp_files/18576.got.cif
#   From: 2010.05.17/outbox.cif.g08.bks.cpg/sg73_10_cif.got.tgz:18576.got - 2010.06.03 17:35:07.
