data_PCOD9530297
_publ_section_title
;
Structure prediction by ZEFSAII (Michael W. Deem and Ramdas Pophale) SiO2 
 PCOD9530297
Probable space group: I B C A 
;
_chemical_formula_sum "Si O2"
_cell_formula_units_Z 96
_cell_length_a 8.166095
_cell_length_b 19.510643
_cell_length_c 29.538126
_cell_angle_alpha 90.000000
_cell_angle_beta 90.000000
_cell_angle_gamma 90.000000
_cell_volume 4706.184499
_symmetry_space_group_name_H-M "I B C A "
_symmetry_group_IT_number 73
_symmetry_cell_setting 'orthorhombic'
loop_
_space_group_symop_operation_xyz
x,y,z
-x,1/2-y,z
x,-y,1/2-z
1/2-x,y,-z
-x,-y,-z
x,1/2+y,-z
-x,y,1/2+z
1/2+x,-y,z
1/2+x,1/2+y,1/2+z
1/2-x,-y,1/2+z
1/2+x,1/2-y,-z
-x,1/2+y,1/2-z
1/2-x,1/2-y,1/2-z
1/2+x,y,1/2-z
1/2-x,1/2+y,z
x,1/2-y,1/2+z
loop_
_atom_site_type_symbol
_atom_site_label
_atom_site_fract_x
_atom_site_fract_y
_atom_site_fract_z
Si Si1 0.187400 0.740873 0.108476
Si Si2 0.603700 0.688061 0.034091
Si Si3 0.760027 0.100157 0.354107
Si Si4 0.845016 0.452409 0.546227
Si Si5 0.064910 0.468459 0.888877
Si Si6 0.812918 0.773666 0.798439
O O1 0.317194 0.782077 0.079455
O O2 0.237479 0.660617 0.108149
O O3 0.207427 0.760591 0.161199
O O4 0.000000 0.750000 0.094312
O O5 0.500000 0.750000 0.014794
O O6 0.534110 0.612211 0.039686
O O7 0.750000 0.674600 0.000000
O O8 0.709034 0.145042 0.310080
O O9 0.946872 0.072021 0.354640
O O10 0.640257 0.037273 0.366134
O O11 0.750000 0.470532 0.500000
O O12 0.714808 0.431504 0.585706
O O13 0.946272 0.512428 0.569191
O O14 0.750000 0.750000 0.750000
O O15 0.000000 0.750000 0.804060
#
# Coordination Sequence:
#
# PCOD9530297 Si02
#       6
#    16  16  16  16  16  16
#     4  10  20  36  60  91 118 156 199 250 310 358
#     4  11  22  35  53  84 120 158 203 258 310 358
#     4   9  22  36  62  90 118 161 206 235 318 353
#     4  10  21  34  55  82 119 163 213 252 300 343
#     4  10  19  38  57  84 122 164 205 248 288 373
#     4  10  22  41  66  98 118 147 199 250 311 371
#
# _framework density 20.398689999999998
#
# number of rings (size 3 to 8) (size 9 to 14) (size 15 to 20)
#    1.000    1.000    0.000    4.000    2.333    1.333 
#    0.000    4.167    0.000    3.000    0.000    0.000 
#    0.000    0.000    0.000    0.000    0.000    0.000 
#
# Total GULP energy -267268.235609 kJ/mol
# GULP energy per Si atom -5568.088242 kJ/mol
# Density = 2.035226 g / cm^3
# Si number density = 20.398690 Si / 1000 Ang^3
#
#
#
# Elastic Constant Matrix: (Units=GPa)
#
#
# Indices 1 2 3 4 5 6 
#
# 1 62.3304 12.9812 11.5072 0.0000 0.0000 0.0000
# 2 12.9812 89.2832 22.0417 0.0000 0.0000 0.0000
# 3 11.5072 22.0417 83.7353 0.0000 0.0000 0.0000
# 4 0.0000 0.0000 0.0000 -2.3916 0.0000 0.0000
# 5 0.0000 0.0000 0.0000 0.0000 19.3528 0.0000
# 6 0.0000 0.0000 0.0000 0.0000 0.0000 32.6595
#
#
#
# Elastic Compliance Matrix: (Units=1/GPa)
#
#
# Indices 1 2 3 4 5 6 
#
# 1 0.016789 -0.002001 -0.001780 0.000000 0.000000 0.000000
# 2 -0.002001 0.012217 -0.002941 0.000000 0.000000 0.000000
# 3 -0.001780 -0.002941 0.012961 0.000000 0.000000 0.000000
# 4 0.000000 0.000000 0.000000 -0.418127 0.000000 0.000000
# 5 0.000000 0.000000 0.000000 0.000000 0.051672 0.000000
# 6 0.000000 0.000000 0.000000 0.000000 0.000000 0.030619
#
#
# Mechanical properties :
#
#
# Convention : Reuss Voigt Hill
#
# Bulk Modulus (GPa) = 35.06059 36.48989 35.77524
# Shear Modulus (GPa) = -18.45594 22.51207 2.02806
#
# Velocity S-wave (km/s) = -3.01119 3.32566 0.99818
# Velocity P-wave (km/s) = 2.26612 5.71610 4.34794
#
# Compressibility (1/GPa) = 0.02852206
#
# Stress axis : x y z
#
# Youngs Moduli (GPa) = 59.56261 81.85079 77.15336
#
# Poissons Ratio (x) = 0.16382 0.13736
# Poissons Ratio (y) = 0.11921 0.22690
# Poissons Ratio (z) = 0.10604 0.24072
#
# Static dielectric constant tensor:
#      x y z
#    x 1.766830 0.000000 0.000000 
#    y 0.000000 1.885750 0.000000 
#    z 0.000000 0.000000 1.773760 
# 
# From -- ./inp_files/31188.got.cif
#   From: 2010.05.17/outbox.cif.g08.bks.cpg/sg73_16_cif.got.tgz:31188.got - 2010.06.03 17:35:07.
