data_PCOD9530841
_publ_section_title
;
Structure prediction by ZEFSAII (Michael W. Deem and Ramdas Pophale) SiO2 
 PCOD9530841
Probable space group: I B C A 
;
_chemical_formula_sum "Si O2"
_cell_formula_units_Z 72
_cell_length_a 13.972990
_cell_length_b 13.753818
_cell_length_c 17.267429
_cell_angle_alpha 90.000000
_cell_angle_beta 90.000000
_cell_angle_gamma 90.000000
_cell_volume 3318.488373
_symmetry_space_group_name_H-M "I B C A "
_symmetry_group_IT_number 73
_symmetry_cell_setting 'orthorhombic'
loop_
_space_group_symop_operation_xyz
x,y,z
-x,1/2-y,z
x,-y,1/2-z
1/2-x,y,-z
-x,-y,-z
x,1/2+y,-z
-x,y,1/2+z
1/2+x,-y,z
1/2+x,1/2+y,1/2+z
1/2-x,-y,1/2+z
1/2+x,1/2-y,-z
-x,1/2+y,1/2-z
1/2-x,1/2-y,1/2-z
1/2+x,y,1/2-z
1/2-x,1/2+y,z
x,1/2-y,1/2+z
loop_
_atom_site_type_symbol
_atom_site_label
_atom_site_fract_x
_atom_site_fract_y
_atom_site_fract_z
Si Si1 0.500000 0.750000 0.101989
Si Si2 0.395446 0.736543 0.447839
Si Si3 0.289164 0.041011 0.582799
Si Si4 0.143701 0.155512 0.691404
Si Si5 0.750138 0.851240 0.156879
O O1 0.536844 0.664243 0.157906
O O2 0.585609 0.762046 0.038353
O O3 0.500000 0.750000 0.410174
O O4 0.366335 0.624559 0.434893
O O5 0.314433 0.803329 0.410667
O O6 0.250000 0.009197 0.500000
O O7 0.206493 0.095131 0.631005
O O8 0.309961 0.944227 0.630470
O O9 0.172733 0.120429 0.776490
O O10 0.181026 0.267534 0.689350
#
# Coordination Sequence:
#
# PCOD9530841 Si02
#       5
#     8  16  16  16  16
#     4  10  20  38  64  90 134 170 216 284 342 390
#     4   9  21  40  60  97 127 170 222 281 340 394
#     4  11  20  37  65  92 127 170 220 275 328 413
#     4  10  22  42  59  91 134 173 215 275 343 406
#     4  10  23  38  67  88 126 180 225 263 344 412
#
# _framework density 21.696626999999999
#
# number of rings (size 3 to 8) (size 9 to 14) (size 15 to 20)
#    0.667    1.333    2.222    0.667    4.667    0.000 
#    4.000    3.333    0.000    0.000    0.000    0.000 
#    0.000    0.000    0.000    0.000    0.000    0.000 
#
# Total GULP energy -200618.858735 kJ/mol
# GULP energy per Si atom -5572.746076 kJ/mol
# Density = 2.164724 g / cm^3
# Si number density = 21.696627 Si / 1000 Ang^3
#
#
#
# Elastic Constant Matrix: (Units=GPa)
#
#
# Indices 1 2 3 4 5 6 
#
# 1 72.5303 26.5093 13.5845 0.0000 0.0000 0.0000
# 2 26.5093 107.4050 24.5738 0.0000 0.0000 0.0000
# 3 13.5845 24.5738 105.0258 0.0000 0.0000 0.0000
# 4 0.0000 0.0000 0.0000 31.2201 0.0000 0.0000
# 5 0.0000 0.0000 0.0000 0.0000 32.8719 0.0000
# 6 0.0000 0.0000 0.0000 0.0000 0.0000 11.7138
#
#
#
# Elastic Compliance Matrix: (Units=1/GPa)
#
#
# Indices 1 2 3 4 5 6 
#
# 1 0.015286 -0.003508 -0.001156 0.000000 0.000000 0.000000
# 2 -0.003508 0.010642 -0.002036 0.000000 0.000000 0.000000
# 3 -0.001156 -0.002036 0.010147 0.000000 0.000000 0.000000
# 4 0.000000 0.000000 0.000000 0.032031 0.000000 0.000000
# 5 0.000000 0.000000 0.000000 0.000000 0.030421 0.000000
# 6 0.000000 0.000000 0.000000 0.000000 0.000000 0.085369
#
#
# Mechanical properties :
#
#
# Convention : Reuss Voigt Hill
#
# Bulk Modulus (GPa) = 44.10307 46.03292 45.06799
# Shear Modulus (GPa) = 24.40729 29.84741 27.12735
#
# Velocity S-wave (km/s) = 3.35764 3.71303 3.53980
# Velocity P-wave (km/s) = 5.95004 6.29641 6.12567
#
# Compressibility (1/GPa) = 0.02267416
#
# Stress axis : x y z
#
# Youngs Moduli (GPa) = 65.41856 93.96415 98.54665
#
# Poissons Ratio (x) = 0.32966 0.11395
# Poissons Ratio (y) = 0.22951 0.20067
# Poissons Ratio (z) = 0.07564 0.19134
#
# Static dielectric constant tensor:
#      x y z
#    x 1.878160 0.000000 0.000000 
#    y 0.000000 1.785820 0.000000 
#    z 0.000000 0.000000 1.839930 
# 
# From -- ./inp_files/21820.got.cif
#   From: 2010.05.17/outbox.cif.g08.bks.cpg/sg73_11_cif.got.tgz:21820.got - 2010.06.03 17:35:07.
