data_PCOD9530512
_publ_section_title
;
Structure prediction by ZEFSAII (Michael W. Deem and Ramdas Pophale) SiO2 
 PCOD9530512
Probable space group: I B C A 
;
_chemical_formula_sum "Si O2"
_cell_formula_units_Z 80
_cell_length_a 12.150471
_cell_length_b 22.892457
_cell_length_c 12.242686
_cell_angle_alpha 90.000000
_cell_angle_beta 90.000000
_cell_angle_gamma 90.000000
_cell_volume 3405.353733
_symmetry_space_group_name_H-M "I B C A "
_symmetry_group_IT_number 73
_symmetry_cell_setting 'orthorhombic'
loop_
_space_group_symop_operation_xyz
x,y,z
-x,1/2-y,z
x,-y,1/2-z
1/2-x,y,-z
-x,-y,-z
x,1/2+y,-z
-x,y,1/2+z
1/2+x,-y,z
1/2+x,1/2+y,1/2+z
1/2-x,-y,1/2+z
1/2+x,1/2-y,-z
-x,1/2+y,1/2-z
1/2-x,1/2-y,1/2-z
1/2+x,y,1/2-z
1/2-x,1/2+y,z
x,1/2-y,1/2+z
loop_
_atom_site_type_symbol
_atom_site_label
_atom_site_fract_x
_atom_site_fract_y
_atom_site_fract_z
Si Si1 0.627794 0.764716 0.386854
Si Si2 0.271291 0.669261 0.782695
Si Si3 0.932468 0.560131 0.978164
Si Si4 0.445949 0.684892 0.596048
Si Si5 0.222349 0.444301 0.817782
O O1 0.500000 0.750000 0.374961
O O2 0.696294 0.704723 0.388889
O O3 0.673792 0.798241 0.281959
O O4 0.635083 0.802843 0.494701
O O5 0.378233 0.674752 0.705284
O O6 0.240595 0.602881 0.777481
O O7 0.869101 0.572504 0.092592
O O8 0.994519 0.620578 0.938530
O O9 0.836266 0.549157 0.887130
O O10 0.000000 0.500000 0.000000
O O11 0.500000 0.750000 0.605388
O O12 0.187899 0.500000 0.750000
#
# Coordination Sequence:
#
# PCOD9530512 Si02
#       5
#    16  16  16  16  16
#     4  10  20  34  59  88 118 154 199 245 297 365
#     4  10  20  39  59  85 124 157 196 249 306 361
#     4  10  22  43  65  90 123 165 212 258 303 375
#     4  10  20  38  64  89 121 163 197 247 312 364
#     4  10  22  42  65  86 123 167 207 252 319 366
#
# _framework density 23.492419999999999
#
# number of rings (size 3 to 8) (size 9 to 14) (size 15 to 20)
#    0.000    2.000    2.000    1.200    0.000    4.000 
#   14.400    0.000    0.000    0.000    0.000    0.000 
#    0.000    0.000    0.000    0.000    0.000    0.000 
#
# Total GULP energy -222980.171758 kJ/mol
# GULP energy per Si atom -5574.504294 kJ/mol
# Density = 2.343895 g / cm^3
# Si number density = 23.492420 Si / 1000 Ang^3
#
#
#
# Elastic Constant Matrix: (Units=GPa)
#
#
# Indices 1 2 3 4 5 6 
#
# 1 44.5437 20.7300 -8.9371 0.0000 0.0000 0.0000
# 2 20.7300 182.6901 22.3699 -0.0002 0.0000 -0.0001
# 3 -8.9371 22.3699 67.4497 -0.0003 0.0001 -0.0001
# 4 0.0000 -0.0002 -0.0003 35.2194 0.0000 -0.0001
# 5 0.0000 0.0000 0.0001 0.0000 9.3664 0.0000
# 6 0.0000 -0.0001 -0.0001 -0.0001 0.0000 27.2393
#
#
#
# Elastic Compliance Matrix: (Units=1/GPa)
#
#
# Indices 1 2 3 4 5 6 
#
# 1 0.024903 -0.003366 0.004416 0.000000 0.000000 0.000000
# 2 -0.003366 0.006161 -0.002489 0.000000 0.000000 0.000000
# 3 0.004416 -0.002489 0.016237 0.000000 0.000000 0.000000
# 4 0.000000 0.000000 0.000000 0.028393 0.000000 0.000000
# 5 0.000000 0.000000 0.000000 0.000000 0.106765 0.000000
# 6 0.000000 0.000000 0.000000 0.000000 0.000000 0.036712
#
#
# Mechanical properties :
#
#
# Convention : Reuss Voigt Hill
#
# Bulk Modulus (GPa) = 22.51211 40.33434 31.42322
# Shear Modulus (GPa) = 21.10989 31.73307 26.42148
#
# Velocity S-wave (km/s) = 3.00089 3.67928 3.35726
# Velocity P-wave (km/s) = 4.64872 5.93766 5.33228
#
# Compressibility (1/GPa) = 0.04442055
#
# Stress axis : x y z
#
# Youngs Moduli (GPa) = 40.15641 162.32333 61.58945
#
# Poissons Ratio (x) = 0.54646 -0.27198
# Poissons Ratio (y) = 0.13519 0.15331
# Poissons Ratio (z) = -0.17733 0.40406
#
# Static dielectric constant tensor:
#      x y z
#    x 1.965820 0.000000 0.000000 
#    y 0.000000 1.906300 0.000000 
#    z 0.000000 0.000000 1.895730 
# 
# From -- ./inp_files/16864.got.cif
#   From: 2010.05.17/outbox.cif.g08.bks.cpg/sg73_9_cif.got.tgz:16864.got - 2010.06.03 17:35:07.
