data_PCOD9530554
_publ_section_title
;
Structure prediction by ZEFSAII (Michael W. Deem and Ramdas Pophale) SiO2 
 PCOD9530554
Probable space group: I B C A 
;
_chemical_formula_sum "Si O2"
_cell_formula_units_Z 96
_cell_length_a 22.757675
_cell_length_b 8.476289
_cell_length_c 27.182408
_cell_angle_alpha 90.000000
_cell_angle_beta 90.000000
_cell_angle_gamma 90.000000
_cell_volume 5243.503635
_symmetry_space_group_name_H-M "I B C A "
_symmetry_group_IT_number 73
_symmetry_cell_setting 'orthorhombic'
loop_
_space_group_symop_operation_xyz
x,y,z
-x,1/2-y,z
x,-y,1/2-z
1/2-x,y,-z
-x,-y,-z
x,1/2+y,-z
-x,y,1/2+z
1/2+x,-y,z
1/2+x,1/2+y,1/2+z
1/2-x,-y,1/2+z
1/2+x,1/2-y,-z
-x,1/2+y,1/2-z
1/2-x,1/2-y,1/2-z
1/2+x,y,1/2-z
1/2-x,1/2+y,z
x,1/2-y,1/2+z
loop_
_atom_site_type_symbol
_atom_site_label
_atom_site_fract_x
_atom_site_fract_y
_atom_site_fract_z
Si Si1 0.838034 0.800019 0.337814
Si Si2 0.303184 0.772300 0.463486
Si Si3 0.388012 0.514864 0.492800
Si Si4 0.183570 0.686807 0.740236
Si Si5 0.433346 0.764223 0.075688
Si Si6 0.781873 0.354520 0.852428
O O1 0.856208 0.777763 0.280610
O O2 0.887433 0.781083 0.379412
O O3 0.787621 0.666045 0.342470
O O4 0.805234 0.967864 0.345089
O O5 0.250000 0.726675 0.500000
O O6 0.358572 0.655726 0.462910
O O7 0.284504 0.799511 0.408303
O O8 0.331150 0.931299 0.484191
O O9 0.418892 0.389886 0.457385
O O10 0.425249 0.589827 0.537396
O O11 0.179135 0.500000 0.750000
O O12 0.250000 0.750000 0.750000
O O13 0.178910 0.744181 0.683794
O O14 0.500000 0.750000 0.093309
#
# Coordination Sequence:
#
# PCOD9530554 Si02
#       6
#    16  16  16  16  16  16
#     4  11  22  36  59  90 118 154 198 250 308 361
#     4  11  22  33  56  88 129 153 185 238 312 370
#     4  10  22  38  54  84 114 159 207 239 289 363
#     4  10  20  35  57  86 118 153 198 239 297 368
#     4  11  23  41  61  83 118 165 213 252 292 353
#     4  11  21  35  58  88 126 155 189 243 310 375
#
# _framework density 18.308368000000002
#
# number of rings (size 3 to 8) (size 9 to 14) (size 15 to 20)
#    0.000    1.333    1.667    7.500    7.000    0.000 
#    0.000    0.000    0.000    2.000    0.000    0.000 
#    0.000    0.000    0.000    0.000    0.000    0.000 
#
# Total GULP energy -267486.221156 kJ/mol
# GULP energy per Si atom -5572.629607 kJ/mol
# Density = 1.826670 g / cm^3
# Si number density = 18.308368 Si / 1000 Ang^3
#
#
#
# Elastic Constant Matrix: (Units=GPa)
#
#
# Indices 1 2 3 4 5 6 
#
# 1 86.0932 35.2252 42.9049 0.0000 0.0000 0.0000
# 2 35.2252 92.9103 40.7298 0.0000 0.0000 0.0000
# 3 42.9049 40.7298 133.8864 0.0000 0.0000 0.0000
# 4 0.0000 0.0000 0.0000 -159.9926 0.0000 0.0000
# 5 0.0000 0.0000 0.0000 0.0000 11.0410 0.0000
# 6 0.0000 0.0000 0.0000 0.0000 0.0000 5.2524
#
#
#
# Elastic Compliance Matrix: (Units=1/GPa)
#
#
# Indices 1 2 3 4 5 6 
#
# 1 0.015097 -0.004157 -0.003573 0.000000 0.000000 0.000000
# 2 -0.004157 0.013564 -0.002794 0.000000 0.000000 0.000000
# 3 -0.003573 -0.002794 0.009464 0.000000 0.000000 0.000000
# 4 0.000000 0.000000 0.000000 -0.006250 0.000000 0.000000
# 5 0.000000 0.000000 0.000000 0.000000 0.090572 0.000000
# 6 0.000000 0.000000 0.000000 0.000000 0.000000 0.190388
#
#
# Mechanical properties :
#
#
# Convention : Reuss Voigt Hill
#
# Bulk Modulus (GPa) = 58.56216 61.17885 59.87050
# Shear Modulus (GPa) = 14.72423 -15.80451 -0.54014
#
# Velocity S-wave (km/s) = 2.83898 -2.94128 -0.54375
# Velocity P-wave (km/s) = 6.54235 4.68545 5.69016
#
# Compressibility (1/GPa) = 0.01707587
#
# Stress axis : x y z
#
# Youngs Moduli (GPa) = 66.23810 73.72390 105.66240
#
# Poissons Ratio (x) = 0.30649 0.37756
# Poissons Ratio (y) = 0.27537 0.29523
# Poissons Ratio (z) = 0.23669 0.20599
#
# Static dielectric constant tensor:
#      x y z
#    x 1.613120 0.000000 0.000000 
#    y 0.000000 1.683740 0.000000 
#    z 0.000000 0.000000 1.596270 
# 
# From -- ./inp_files/7800.got.cif
#   From: 2010.05.17/outbox.cif.g08.bks.cpg/sg73_4_cif.got.tgz:7800.got - 2010.06.03 17:35:07.
