data_PCOD9530857
_publ_section_title
;
Structure prediction by ZEFSAII (Michael W. Deem and Ramdas Pophale) SiO2 
 PCOD9530857
Probable space group: I B C A 
;
_chemical_formula_sum "Si O2"
_cell_formula_units_Z 120
_cell_length_a 24.453198
_cell_length_b 13.895668
_cell_length_c 15.194828
_cell_angle_alpha 90.000000
_cell_angle_beta 90.000000
_cell_angle_gamma 90.000000
_cell_volume 5163.104106
_symmetry_space_group_name_H-M "I B C A "
_symmetry_group_IT_number 73
_symmetry_cell_setting 'orthorhombic'
loop_
_space_group_symop_operation_xyz
x,y,z
-x,1/2-y,z
x,-y,1/2-z
1/2-x,y,-z
-x,-y,-z
x,1/2+y,-z
-x,y,1/2+z
1/2+x,-y,z
1/2+x,1/2+y,1/2+z
1/2-x,-y,1/2+z
1/2+x,1/2-y,-z
-x,1/2+y,1/2-z
1/2-x,1/2-y,1/2-z
1/2+x,y,1/2-z
1/2-x,1/2+y,z
x,1/2-y,1/2+z
loop_
_atom_site_type_symbol
_atom_site_label
_atom_site_fract_x
_atom_site_fract_y
_atom_site_fract_z
Si Si1 0.224747 0.333371 0.696101
Si Si2 0.815287 0.280865 0.021714
Si Si3 0.379904 0.394525 0.948307
Si Si4 0.840008 0.500000 0.250000
Si Si5 0.898539 0.558336 0.434243
Si Si6 0.462079 0.389080 0.281693
Si Si7 0.827956 0.058523 0.338122
Si Si8 0.417758 0.313940 0.760812
O O1 0.250000 0.250000 0.750000
O O2 0.184696 0.283934 0.627915
O O3 0.196801 0.406667 0.761480
O O4 0.272596 0.385613 0.641595
O O5 0.846905 0.184262 0.995631
O O6 0.857927 0.370976 0.009296
O O7 0.750000 0.276197 0.000000
O O8 0.340036 0.473810 0.905795
O O9 0.406533 0.344426 0.862871
O O10 0.415561 0.464656 0.010136
O O11 0.866043 0.522676 0.346248
O O12 0.950120 0.609758 0.387110
O O13 0.454549 0.500000 0.250000
O O14 0.521572 0.357660 0.249285
O O15 0.422281 0.302012 0.248996
O O16 0.875772 0.132606 0.305680
O O17 0.815942 0.000000 0.250000
#
# Coordination Sequence:
#
# PCOD9530857 Si02
#       8
#    16  16  16   8  16  16  16  16
#     4  11  22  35  61  87 126 169 218 262 320 393
#     4  11  25  41  59  94 135 174 219 274 332 385
#     4  11  23  42  66  92 133 177 219 278 332 399
#     4  10  24  40  58  94 128 174 218 272 326 394
#     4  11  24  43  65  94 135 173 227 270 335 396
#     4  11  22  44  73 101 133 176 216 283 341 396
#     4  10  20  38  65  96 127 169 222 272 329 401
#     4  10  23  44  71 101 136 170 222 277 342 400
#
# _framework density 23.241834000000001
#
# number of rings (size 3 to 8) (size 9 to 14) (size 15 to 20)
#    0.000    1.333    2.667    3.600    3.733    2.133 
#    2.400    0.000    0.000    1.600    0.000    0.000 
#    0.000    0.000    0.000    0.000    0.000    0.000 
#
# Total GULP energy -334055.384194 kJ/mol
# GULP energy per Si atom -5567.589737 kJ/mol
# Density = 2.318893 g / cm^3
# Si number density = 23.241834 Si / 1000 Ang^3
#
#
#
# Elastic Constant Matrix: (Units=GPa)
#
#
# Indices 1 2 3 4 5 6 
#
# 1 55.0705 19.0216 -6.4271 0.0000 0.0000 0.0000
# 2 19.0216 141.0678 20.8100 0.0000 0.0000 0.0000
# 3 -6.4271 20.8100 23.3429 0.0000 0.0000 0.0000
# 4 0.0000 0.0000 0.0000 30.5871 0.0000 0.0000
# 5 0.0000 0.0000 0.0000 0.0000 14.1790 0.0000
# 6 0.0000 0.0000 0.0000 0.0000 0.0000 34.9839
#
#
#
# Elastic Compliance Matrix: (Units=1/GPa)
#
#
# Indices 1 2 3 4 5 6 
#
# 1 0.020704 -0.004183 0.009429 0.000000 0.000000 0.000000
# 2 -0.004183 0.009007 -0.009181 0.000000 0.000000 0.000000
# 3 0.009429 -0.009181 0.053621 0.000000 0.000000 0.000000
# 4 0.000000 0.000000 0.000000 0.032694 0.000000 0.000000
# 5 0.000000 0.000000 0.000000 0.000000 0.070527 0.000000
# 6 0.000000 0.000000 0.000000 0.000000 0.000000 0.028585
#
#
# Mechanical properties :
#
#
# Convention : Reuss Voigt Hill
#
# Bulk Modulus (GPa) = 13.25169 31.81003 22.53086
# Shear Modulus (GPa) = 20.14823 28.35510 24.25167
#
# Velocity S-wave (km/s) = 2.94750 3.49664 3.23375
# Velocity P-wave (km/s) = 4.15905 5.47889 4.86395
#
# Compressibility (1/GPa) = 0.07546210
#
# Stress axis : x y z
#
# Youngs Moduli (GPa) = 48.30053 111.02211 18.64941
#
# Poissons Ratio (x) = 0.46437 -0.17585
# Poissons Ratio (y) = 0.20203 0.17123
# Poissons Ratio (z) = -0.45544 1.01935
#
# Static dielectric constant tensor:
#      x y z
#    x 1.938090 0.000000 0.000000 
#    y 0.000000 1.887060 0.000000 
#    z 0.000000 0.000000 1.904320 
# 
# From -- ./inp_files/23975.got.cif
#   From: 2010.05.17/outbox.cif.g08.bks.cpg/sg73_12_cif.got.tgz:23975.got - 2010.06.03 17:35:07.
