data_PCOD9530697
_publ_section_title
;
Structure prediction by ZEFSAII (Michael W. Deem and Ramdas Pophale) SiO2 
 PCOD9530697
Probable space group: I B C A 
;
_chemical_formula_sum "Si O2"
_cell_formula_units_Z 112
_cell_length_a 13.525850
_cell_length_b 15.251816
_cell_length_c 24.055587
_cell_angle_alpha 90.000000
_cell_angle_beta 90.000000
_cell_angle_gamma 90.000000
_cell_volume 4962.517863
_symmetry_space_group_name_H-M "I B C A "
_symmetry_group_IT_number 73
_symmetry_cell_setting 'orthorhombic'
loop_
_space_group_symop_operation_xyz
x,y,z
-x,1/2-y,z
x,-y,1/2-z
1/2-x,y,-z
-x,-y,-z
x,1/2+y,-z
-x,y,1/2+z
1/2+x,-y,z
1/2+x,1/2+y,1/2+z
1/2-x,-y,1/2+z
1/2+x,1/2-y,-z
-x,1/2+y,1/2-z
1/2-x,1/2-y,1/2-z
1/2+x,y,1/2-z
1/2-x,1/2+y,z
x,1/2-y,1/2+z
loop_
_atom_site_type_symbol
_atom_site_label
_atom_site_fract_x
_atom_site_fract_y
_atom_site_fract_z
Si Si1 0.250000 0.891854 0.000000
Si Si2 0.000000 0.250000 0.370546
Si Si3 0.454429 0.443332 0.435394
Si Si4 0.831912 0.988723 0.390454
Si Si5 0.945953 0.130681 0.968904
Si Si6 0.699516 0.828453 0.826792
Si Si7 0.601375 0.408257 0.278552
Si Si8 0.924293 0.320667 0.160125
O O1 0.343885 0.828504 0.988885
O O2 0.225098 0.945415 0.942611
O O3 0.017864 0.169155 0.411948
O O4 0.104568 0.266835 0.340213
O O5 0.556508 0.482088 0.412093
O O6 0.412011 0.529227 0.463629
O O7 0.473459 0.371681 0.482891
O O8 0.406340 0.399546 0.382720
O O9 0.807102 0.086948 0.369014
O O10 0.837983 0.929026 0.334850
O O11 0.672864 0.863119 0.765602
O O12 0.812248 0.791219 0.826595
O O13 0.571552 0.500000 0.250000
O O14 0.499144 0.356460 0.291925
O O15 0.000000 0.250000 0.133136
#
# Coordination Sequence:
#
# PCOD9530697 Si02
#       8
#     8   8  16  16  16  16  16  16
#     4  10  20  36  68 102 128 174 232 282 340 410
#     4  12  26  42  64 100 142 180 230 288 348 406
#     4   9  19  41  67  89 132 173 227 275 338 408
#     4   9  18  40  69 101 129 173 232 279 345 409
#     4  10  21  39  62  94 133 178 221 281 334 410
#     4  11  24  45  65  99 139 180 227 287 347 407
#     4   9  22  44  69  96 135 178 233 284 346 421
#     4  11  25  43  67 101 132 177 222 286 346 406
#
# _framework density 22.569188
#
# number of rings (size 3 to 8) (size 9 to 14) (size 15 to 20)
#    0.000    2.000    1.429    0.857    2.000    5.714 
#    2.571    0.000    0.000    0.000    0.000    0.000 
#    0.000    0.000    0.000    0.000    0.000    0.000 
#
# Total GULP energy -311832.120188 kJ/mol
# GULP energy per Si atom -5568.430718 kJ/mol
# Density = 2.251782 g / cm^3
# Si number density = 22.569188 Si / 1000 Ang^3
#
#
#
# Elastic Constant Matrix: (Units=GPa)
#
#
# Indices 1 2 3 4 5 6 
#
# 1 155.2677 18.3971 35.8102 0.0000 0.0001 0.0000
# 2 18.3971 53.4044 21.9805 0.0000 0.0024 0.0000
# 3 35.8102 21.9805 108.7673 0.0000 0.0023 0.0000
# 4 0.0000 0.0000 0.0000 28.9440 0.0019 0.0000
# 5 0.0001 0.0024 0.0023 0.0019********** 0.0005
# 6 0.0000 0.0000 0.0000 0.0000 0.0005 10.4577
#
#
#
# Elastic Compliance Matrix: (Units=1/GPa)
#
#
# Indices 1 2 3 4 5 6 
#
# 1 0.007096 -0.001617 -0.002009 0.000000 0.000000 0.000000
# 2 -0.001617 0.020792 -0.003669 0.000000 0.000000 0.000000
# 3 -0.002009 -0.003669 0.010597 0.000000 0.000000 0.000000
# 4 0.000000 0.000000 0.000000 0.034549 0.000000 0.000000
# 5 0.000000 0.000000 0.000000 0.000000 0.000002 0.000000
# 6 0.000000 0.000000 0.000000 0.000000 0.000000 0.095624
#
#
# Mechanical properties :
#
#
# Convention : Reuss Voigt Hill
#
# Bulk Modulus (GPa) = 41.85328 52.20169 47.02748
# Shear Modulus (GPa) = 26.14832 87983.97390 44005.06111
#
# Velocity S-wave (km/s) = 3.40749 197.65815 139.78618
# Velocity P-wave (km/s) = 5.83661 228.28674 161.47585
#
# Compressibility (1/GPa) = 0.02389299
#
# Stress axis : x y z
#
# Youngs Moduli (GPa) = 140.93383 48.09429 94.36629
#
# Poissons Ratio (x) = 0.07778 0.18961
# Poissons Ratio (y) = 0.22794 0.34627
# Poissons Ratio (z) = 0.28317 0.17648
#
# Static dielectric constant tensor:
#      x y z
#    x 1.890650 0.000000 0.000000 
#    y 0.000000 1.964780 0.000000 
#    z 0.000000 0.000000 1.847860 
# 
# From -- ./inp_files/29596.got.cif
#   From: 2010.05.17/outbox.cif.g08.bks.cpg/sg73_15_cif.got.tgz:29596.got - 2010.06.03 17:35:07.
