data_PCOD9530620
_publ_section_title
;
Structure prediction by ZEFSAII (Michael W. Deem and Ramdas Pophale) SiO2 
 PCOD9530620
Probable space group: I B C A 
;
_chemical_formula_sum "Si O2"
_cell_formula_units_Z 120
_cell_length_a 10.418738
_cell_length_b 30.138015
_cell_length_c 20.347741
_cell_angle_alpha 90.000000
_cell_angle_beta 90.000000
_cell_angle_gamma 90.000000
_cell_volume 6389.192345
_symmetry_space_group_name_H-M "I B C A "
_symmetry_group_IT_number 73
_symmetry_cell_setting 'orthorhombic'
loop_
_space_group_symop_operation_xyz
x,y,z
-x,1/2-y,z
x,-y,1/2-z
1/2-x,y,-z
-x,-y,-z
x,1/2+y,-z
-x,y,1/2+z
1/2+x,-y,z
1/2+x,1/2+y,1/2+z
1/2-x,-y,1/2+z
1/2+x,1/2-y,-z
-x,1/2+y,1/2-z
1/2-x,1/2-y,1/2-z
1/2+x,y,1/2-z
1/2-x,1/2+y,z
x,1/2-y,1/2+z
loop_
_atom_site_type_symbol
_atom_site_label
_atom_site_fract_x
_atom_site_fract_y
_atom_site_fract_z
Si Si1 0.388347 0.000000 0.750000
Si Si2 0.377637 0.778308 0.733414
Si Si3 0.689348 0.663039 0.849449
Si Si4 0.223245 0.559969 0.638554
Si Si5 0.400162 0.290590 0.017375
Si Si6 0.483331 0.568497 0.145053
Si Si7 0.874448 0.493638 0.041818
Si Si8 0.513703 0.828156 0.622435
O O1 0.303193 0.972391 0.800823
O O2 0.465314 0.961059 0.711182
O O3 0.500000 0.750000 0.754038
O O4 0.250000 0.750000 0.750000
O O5 0.370786 0.819628 0.782397
O O6 0.413699 0.795193 0.659523
O O7 0.685920 0.610231 0.849099
O O8 0.619717 0.682264 0.914590
O O9 0.840393 0.677234 0.850266
O O10 0.372421 0.559269 0.621475
O O11 0.143776 0.539613 0.579729
O O12 0.500000 0.250000 0.027242
O O13 0.250000 0.277887 0.000000
O O14 0.461795 0.318000 0.955269
O O15 0.388880 0.545782 0.093736
O O16 0.471301 0.621758 0.141929
O O17 0.750000 0.484876 0.000000
O O18 0.000000 0.500000 0.000000
#
# Coordination Sequence:
#
# PCOD9530620 Si02
#       8
#     8  16  16  16  16  16  16  16
#     4  10  20  36  58  94 126 164 204 256 324 370
#     4  12  23  41  67  96 130 167 213 265 325 383
#     4  10  22  39  63  95 120 169 217 261 311 393
#     4  10  21  37  62  88 124 165 208 255 316 378
#     4  10  22  40  65  88 125 165 212 264 325 380
#     4  10  21  38  62  88 127 165 205 261 311 377
#     4  11  22  38  62  90 124 163 212 254 313 373
#     4  10  22  40  64  93 127 169 210 263 320 381
#
# _framework density 18.781717
#
# number of rings (size 3 to 8) (size 9 to 14) (size 15 to 20)
#    0.000    1.600    2.667    2.000    3.733    0.533 
#    0.000    2.000    0.000    0.000    0.000    0.000 
#    0.000    0.000    0.000    0.000    0.000    0.000 
#
# Total GULP energy -334284.121492 kJ/mol
# GULP energy per Si atom -5571.402025 kJ/mol
# Density = 1.873897 g / cm^3
# Si number density = 18.781717 Si / 1000 Ang^3
#
#
#
# Elastic Constant Matrix: (Units=GPa)
#
#
# Indices 1 2 3 4 5 6 
#
# 1 93.8892 52.4139 42.1008 0.0000 0.0000 0.0000
# 2 52.4139 105.5884 39.3892 0.0000 0.0000 0.0000
# 3 42.1008 39.3892 95.1116 0.0000 0.0001 0.0000
# 4 0.0000 0.0000 0.0000 18.5592 0.0000 0.0000
# 5 0.0000 0.0000 0.0001 0.0000 40.6913 0.0000
# 6 0.0000 0.0000 0.0000 0.0000 0.0000 31.5950
#
#
#
# Elastic Compliance Matrix: (Units=1/GPa)
#
#
# Indices 1 2 3 4 5 6 
#
# 1 0.016247 -0.006366 -0.004556 0.000000 0.000000 0.000000
# 2 -0.006366 0.013695 -0.002854 0.000000 0.000000 0.000000
# 3 -0.004556 -0.002854 0.013712 0.000000 0.000000 0.000000
# 4 0.000000 0.000000 0.000000 0.053882 0.000000 0.000000
# 5 0.000000 0.000000 0.000000 0.000000 0.024575 0.000000
# 6 0.000000 0.000000 0.000000 0.000000 0.000000 0.031651
#
#
# Mechanical properties :
#
#
# Convention : Reuss Voigt Hill
#
# Bulk Modulus (GPa) = 62.09418 62.48855 62.29136
# Shear Modulus (GPa) = 26.78365 28.88146 27.83256
#
# Velocity S-wave (km/s) = 3.78040 3.92566 3.85372
# Velocity P-wave (km/s) = 7.22413 7.34104 7.28282
#
# Compressibility (1/GPa) = 0.01610457
#
# Stress axis : x y z
#
# Youngs Moduli (GPa) = 61.54889 73.01764 72.92670
#
# Poissons Ratio (x) = 0.46481 0.33222
# Poissons Ratio (y) = 0.39180 0.20813
# Poissons Ratio (z) = 0.28039 0.20839
#
# Static dielectric constant tensor:
#      x y z
#    x 1.631970 0.000000 0.000000 
#    y 0.000000 1.652400 0.000000 
#    z 0.000000 0.000000 1.682980 
# 
# From -- ./inp_files/25705.got.cif
#   From: 2010.05.17/outbox.cif.g08.bks.cpg/sg73_13_cif.got.tgz:25705.got - 2010.06.03 17:35:07.
