data_PCOD9530768
_publ_section_title
;
Structure prediction by ZEFSAII (Michael W. Deem and Ramdas Pophale) SiO2 
 PCOD9530768
Probable space group: I B C A 
;
_chemical_formula_sum "Si O2"
_cell_formula_units_Z 112
_cell_length_a 14.088565
_cell_length_b 30.205337
_cell_length_c 12.381963
_cell_angle_alpha 90.000000
_cell_angle_beta 90.000000
_cell_angle_gamma 90.000000
_cell_volume 5269.142543
_symmetry_space_group_name_H-M "I B C A "
_symmetry_group_IT_number 73
_symmetry_cell_setting 'orthorhombic'
loop_
_space_group_symop_operation_xyz
x,y,z
-x,1/2-y,z
x,-y,1/2-z
1/2-x,y,-z
-x,-y,-z
x,1/2+y,-z
-x,y,1/2+z
1/2+x,-y,z
1/2+x,1/2+y,1/2+z
1/2-x,-y,1/2+z
1/2+x,1/2-y,-z
-x,1/2+y,1/2-z
1/2-x,1/2-y,1/2-z
1/2+x,y,1/2-z
1/2-x,1/2+y,z
x,1/2-y,1/2+z
loop_
_atom_site_type_symbol
_atom_site_label
_atom_site_fract_x
_atom_site_fract_y
_atom_site_fract_z
Si Si1 0.631592 0.007102 0.407975
Si Si2 0.750426 0.417406 0.373244
Si Si3 0.079276 0.973664 0.853731
Si Si4 0.880945 0.783211 0.879039
Si Si5 0.228079 0.355314 0.314112
Si Si6 0.750000 0.917317 0.000000
Si Si7 0.500000 0.250000 0.067015
Si Si8 0.053806 0.697144 0.259234
O O1 0.534315 0.022997 0.353382
O O2 0.695410 0.050175 0.419517
O O3 0.686798 0.963227 0.365605
O O4 0.608073 0.995274 0.532567
O O5 0.750000 0.403345 0.500000
O O6 0.640032 0.429169 0.350379
O O7 0.780906 0.382636 0.281474
O O8 0.114038 0.000000 0.750000
O O9 0.791586 0.814506 0.859849
O O10 0.907913 0.760319 0.993044
O O11 0.890052 0.741762 0.796985
O O12 0.974966 0.811890 0.849425
O O13 0.197991 0.385125 0.416433
O O14 0.133097 0.337975 0.260278
O O15 0.499075 0.291634 0.147995
#
# Coordination Sequence:
#
# PCOD9530768 Si02
#       8
#    16  16  16  16  16   8   8  16
#     4  10  22  42  59  89 117 171 222 262 338 397
#     4  10  23  44  59  88 135 165 223 278 331 395
#     4  10  20  37  67  83 112 168 224 262 326 402
#     4   9  20  41  64  91 126 168 214 252 322 400
#     4  12  24  38  63 100 130 167 218 280 329 388
#     4  12  24  38  62  88 128 160 218 288 314 390
#     4   8  16  38  68  84 122 166 200 262 298 382
#     4   9  20  41  63  92 128 168 211 255 323 406
#
# _framework density 21.255831000000001
#
# number of rings (size 3 to 8) (size 9 to 14) (size 15 to 20)
#    0.000    2.286    2.143    2.143    2.000    1.143 
#   18.000    1.429    0.000    0.000    0.000    0.000 
#    0.000    0.000    0.000    0.000    0.000    0.000 
#
# Total GULP energy -311782.827548 kJ/mol
# GULP energy per Si atom -5567.550492 kJ/mol
# Density = 2.120745 g / cm^3
# Si number density = 21.255831 Si / 1000 Ang^3
#
#
#
# Elastic Constant Matrix: (Units=GPa)
#
#
# Indices 1 2 3 4 5 6 
#
# 1 63.6810 18.7840 5.5507 0.0000 0.0000 0.0000
# 2 18.7840 49.8922 26.1773 0.0001 0.0000 0.0000
# 3 5.5507 26.1773 86.2975 0.0005 0.0002 0.0001
# 4 0.0000 0.0001 0.0005 25.7007 0.0000 0.0000
# 5 0.0000 0.0000 0.0002 0.0000 20.6386 -0.0001
# 6 0.0000 0.0000 0.0001 0.0000 -0.0001 6.3726
#
#
#
# Elastic Compliance Matrix: (Units=1/GPa)
#
#
# Indices 1 2 3 4 5 6 
#
# 1 0.017745 -0.007233 0.001053 0.000000 0.000000 0.000000
# 2 -0.007233 0.026785 -0.007660 0.000000 0.000000 0.000000
# 3 0.001053 -0.007660 0.013844 0.000000 0.000000 0.000000
# 4 0.000000 0.000000 0.000000 0.038909 0.000000 0.000000
# 5 0.000000 0.000000 0.000000 0.000000 0.048453 0.000001
# 6 0.000000 0.000000 0.000000 0.000000 0.000001 0.156921
#
#
# Mechanical properties :
#
#
# Convention : Reuss Voigt Hill
#
# Bulk Modulus (GPa) = 32.58013 33.43273 33.00643
# Shear Modulus (GPa) = 14.68130 20.49964 17.59047
#
# Velocity S-wave (km/s) = 2.63096 3.10889 2.87985
# Velocity P-wave (km/s) = 4.95885 5.35255 5.15945
#
# Compressibility (1/GPa) = 0.03069355
#
# Stress axis : x y z
#
# Youngs Moduli (GPa) = 56.35352 37.33379 72.23548
#
# Poissons Ratio (x) = 0.27005 -0.07605
# Poissons Ratio (y) = 0.40762 0.55331
# Poissons Ratio (z) = -0.05933 0.28597
#
# Static dielectric constant tensor:
#      x y z
#    x 1.840340 0.000000 0.000000 
#    y 0.000000 1.799280 0.000000 
#    z 0.000000 0.000000 1.859580 
# 
# From -- ./inp_files/11290.got.cif
#   From: 2010.05.17/outbox.cif.g08.bks.cpg/sg73_6_cif.got.tgz:11290.got - 2010.06.03 17:35:07.
