data_PCOD9530719
_publ_section_title
;
Structure prediction by ZEFSAII (Michael W. Deem and Ramdas Pophale) SiO2 
 PCOD9530719
Probable space group: I B C A 
;
_chemical_formula_sum "Si O2"
_cell_formula_units_Z 88
_cell_length_a 9.046506
_cell_length_b 24.823215
_cell_length_c 20.106985
_cell_angle_alpha 90.000000
_cell_angle_beta 90.000000
_cell_angle_gamma 90.000000
_cell_volume 4515.292180
_symmetry_space_group_name_H-M "I B C A "
_symmetry_group_IT_number 73
_symmetry_cell_setting 'orthorhombic'
loop_
_space_group_symop_operation_xyz
x,y,z
-x,1/2-y,z
x,-y,1/2-z
1/2-x,y,-z
-x,-y,-z
x,1/2+y,-z
-x,y,1/2+z
1/2+x,-y,z
1/2+x,1/2+y,1/2+z
1/2-x,-y,1/2+z
1/2+x,1/2-y,-z
-x,1/2+y,1/2-z
1/2-x,1/2-y,1/2-z
1/2+x,y,1/2-z
1/2-x,1/2+y,z
x,1/2-y,1/2+z
loop_
_atom_site_type_symbol
_atom_site_label
_atom_site_fract_x
_atom_site_fract_y
_atom_site_fract_z
Si Si1 0.953256 0.583293 0.888130
Si Si2 0.757877 0.880470 0.139937
Si Si3 0.469593 0.026966 0.179730
Si Si4 0.295862 0.622310 0.293580
Si Si5 0.533693 0.687324 0.900373
Si Si6 0.250000 0.626374 0.500000
O O1 0.997693 0.522614 0.869291
O O2 0.862587 0.608937 0.826133
O O3 0.104794 0.615061 0.898513
O O4 0.842742 0.589893 0.949231
O O5 0.837188 0.938066 0.149936
O O6 0.721569 0.864599 0.216284
O O7 0.877345 0.842847 0.105560
O O8 0.603689 0.068636 0.193730
O O9 0.428839 0.000000 0.250000
O O10 0.376256 0.669867 0.333884
O O11 0.500000 0.750000 0.906068
O O12 0.635023 0.663118 0.959002
#
# Coordination Sequence:
#
# PCOD9530719 Si02
#       6
#    16  16  16  16  16   8
#     4  11  21  36  60  91 129 167 206 253 313 366
#     4  11  21  36  63  98 124 159 212 261 314 386
#     4  11  19  33  61  95 130 166 197 240 311 385
#     4  10  20  37  59  98 131 154 202 261 317 387
#     4  10  24  45  66  88 120 169 219 269 325 367
#     4  10  26  46  60  84 128 168 224 274 294 382
#
# _framework density 19.489325999999998
#
# number of rings (size 3 to 8) (size 9 to 14) (size 15 to 20)
#    0.000    1.455    3.636    2.182    0.000    2.909 
#    0.000   17.273    0.000    0.000    0.000    0.000 
#    0.000    0.000    0.000    0.000    0.000    0.000 
#
# Total GULP energy -245804.968504 kJ/mol
# GULP energy per Si atom -5586.476557 kJ/mol
# Density = 1.944497 g / cm^3
# Si number density = 19.489326 Si / 1000 Ang^3
#
#
#
# Elastic Constant Matrix: (Units=GPa)
#
#
# Indices 1 2 3 4 5 6 
#
# 1 140.3412 38.3864 38.2427 0.0000 0.0000 0.0000
# 2 38.3864 90.6824 41.9879 0.0000 0.0000 0.0000
# 3 38.2427 41.9879 82.4228 0.0000 0.0000 0.0000
# 4 0.0000 0.0000 0.0000 7.1080 0.0000 0.0000
# 5 0.0000 0.0000 0.0000 0.0000 10.1747 0.0000
# 6 0.0000 0.0000 0.0000 0.0000 0.0000 14.4801
#
#
#
# Elastic Compliance Matrix: (Units=1/GPa)
#
#
# Indices 1 2 3 4 5 6 
#
# 1 0.008515 -0.002323 -0.002767 0.000000 0.000000 0.000000
# 2 -0.002323 0.015065 -0.006597 0.000000 0.000000 0.000000
# 3 -0.002767 -0.006597 0.016777 0.000000 0.000000 0.000000
# 4 0.000000 0.000000 0.000000 0.140687 0.000000 0.000000
# 5 0.000000 0.000000 0.000000 0.000000 0.098283 0.000000
# 6 0.000000 0.000000 0.000000 0.000000 0.000000 0.069060
#
#
# Mechanical properties :
#
#
# Convention : Reuss Voigt Hill
#
# Bulk Modulus (GPa) = 58.88232 61.18672 60.03452
# Shear Modulus (GPa) = 13.24771 19.34118 16.29445
#
# Velocity S-wave (km/s) = 2.61001 3.15365 2.89463
# Velocity P-wave (km/s) = 6.27384 6.68759 6.48402
#
# Compressibility (1/GPa) = 0.01698303
#
# Stress axis : x y z
#
# Youngs Moduli (GPa) = 117.43967 66.37773 59.60515
#
# Poissons Ratio (x) = 0.15420 0.16495
# Poissons Ratio (y) = 0.27282 0.39320
# Poissons Ratio (z) = 0.32500 0.43787
#
# Static dielectric constant tensor:
#      x y z
#    x 1.703110 0.000000 0.000000 
#    y 0.000000 1.655690 0.000000 
#    z 0.000000 0.000000 1.694450 
# 
# From -- ./inp_files/24805.got.cif
#   From: 2010.05.17/outbox.cif.g08.bks.cpg/sg73_13_cif.got.tgz:24805.got - 2010.06.03 17:35:07.
