data_PCOD9530867
_publ_section_title
;
Structure prediction by ZEFSAII (Michael W. Deem and Ramdas Pophale) SiO2 
 PCOD9530867
Probable space group: I B C A 
;
_chemical_formula_sum "Si O2"
_cell_formula_units_Z 104
_cell_length_a 18.240310
_cell_length_b 11.539158
_cell_length_c 23.000659
_cell_angle_alpha 90.000000
_cell_angle_beta 90.000000
_cell_angle_gamma 90.000000
_cell_volume 4841.128543
_symmetry_space_group_name_H-M "I B C A "
_symmetry_group_IT_number 73
_symmetry_cell_setting 'orthorhombic'
loop_
_space_group_symop_operation_xyz
x,y,z
-x,1/2-y,z
x,-y,1/2-z
1/2-x,y,-z
-x,-y,-z
x,1/2+y,-z
-x,y,1/2+z
1/2+x,-y,z
1/2+x,1/2+y,1/2+z
1/2-x,-y,1/2+z
1/2+x,1/2-y,-z
-x,1/2+y,1/2-z
1/2-x,1/2-y,1/2-z
1/2+x,y,1/2-z
1/2-x,1/2+y,z
x,1/2-y,1/2+z
loop_
_atom_site_type_symbol
_atom_site_label
_atom_site_fract_x
_atom_site_fract_y
_atom_site_fract_z
Si Si1 0.888681 0.582028 0.433611
Si Si2 0.415960 0.000000 0.250000
Si Si3 0.167840 0.211714 0.625031
Si Si4 0.065936 0.834559 0.554828
Si Si5 0.662584 0.155850 0.124624
Si Si6 0.466377 0.051419 0.372902
Si Si7 0.337775 0.759505 0.254965
O O1 0.832442 0.684006 0.419946
O O2 0.906305 0.587201 0.501554
O O3 0.861467 0.462986 0.405577
O O4 0.963992 0.613062 0.400291
O O5 0.464316 0.042107 0.303664
O O6 0.364925 0.109183 0.232036
O O7 0.249317 0.161386 0.628198
O O8 0.108844 0.114360 0.609182
O O9 0.141136 0.261727 0.687862
O O10 0.128664 0.758032 0.585115
O O11 0.000000 0.750000 0.535040
O O12 0.033345 0.921808 0.602146
O O13 0.636879 0.178658 0.191618
O O14 0.250000 0.750000 0.250000
#
# Coordination Sequence:
#
# PCOD9530867 Si02
#       7
#    16   8  16  16  16  16  16
#     4  12  27  45  67  99 136 185 230 285 348 416
#     4  10  20  38  68 102 130 176 230 294 332 410
#     4  10  25  43  68 104 141 172 228 291 350 414
#     4  12  25  46  71  96 138 188 240 282 347 426
#     4  11  25  44  69 103 130 186 232 281 351 419
#     4  11  23  44  70  96 138 180 227 285 348 411
#     4   9  20  39  66  97 139 176 216 279 357 419
#
# _framework density 21.482593000000001
#
# number of rings (size 3 to 8) (size 9 to 14) (size 15 to 20)
#    0.000    1.231    3.077    1.846    4.308    6.154 
#    0.000    1.538    0.000    0.000    0.000    0.000 
#    0.000    0.000    0.000    0.000    0.000    0.000 
#
# Total GULP energy -290418.214843 kJ/mol
# GULP energy per Si atom -5584.965670 kJ/mol
# Density = 2.143370 g / cm^3
# Si number density = 21.482593 Si / 1000 Ang^3
#
#
#
# Elastic Constant Matrix: (Units=GPa)
#
#
# Indices 1 2 3 4 5 6 
#
# 1 74.0404 15.2289 29.7310 0.0000 0.0000 0.0000
# 2 15.2289 59.1618 23.2592 0.0000 0.0000 0.0000
# 3 29.7310 23.2592 106.2998 0.0000 0.0000 0.0000
# 4 0.0000 0.0000 0.0000 39.0927 0.0000 0.0000
# 5 0.0000 0.0000 0.0000 0.0000 21.1548 0.0000
# 6 0.0000 0.0000 0.0000 0.0000 0.0000 34.3044
#
#
#
# Elastic Compliance Matrix: (Units=1/GPa)
#
#
# Indices 1 2 3 4 5 6 
#
# 1 0.015548 -0.002508 -0.003800 0.000000 0.000000 0.000000
# 2 -0.002508 0.018898 -0.003434 0.000000 0.000000 0.000000
# 3 -0.003800 -0.003434 0.011221 0.000000 0.000000 0.000000
# 4 0.000000 0.000000 0.000000 0.025580 0.000000 0.000000
# 5 0.000000 0.000000 0.000000 0.000000 0.047271 0.000000
# 6 0.000000 0.000000 0.000000 0.000000 0.000000 0.029151
#
#
# Mechanical properties :
#
#
# Convention : Reuss Voigt Hill
#
# Bulk Modulus (GPa) = 38.19074 41.77113 39.98093
# Shear Modulus (GPa) = 28.42838 30.32924 29.37881
#
# Velocity S-wave (km/s) = 3.64170 3.76148 3.70207
# Velocity P-wave (km/s) = 5.95808 6.19284 6.07660
#
# Compressibility (1/GPa) = 0.02618436
#
# Stress axis : x y z
#
# Youngs Moduli (GPa) = 64.31752 52.91462 89.11553
#
# Poissons Ratio (x) = 0.13273 0.33862
# Poissons Ratio (y) = 0.16133 0.30598
# Poissons Ratio (z) = 0.24439 0.18168
#
# Static dielectric constant tensor:
#      x y z
#    x 1.783600 0.000000 0.000000 
#    y 0.000000 1.776690 0.000000 
#    z 0.000000 0.000000 1.804550 
# 
# From -- ./inp_files/32417.got.cif
#   From: 2010.05.17/outbox.cif.g08.bks.cpg/sg73_17_cif.got.tgz:32417.got - 2010.06.03 17:35:07.
