data_PCOD9530312
_publ_section_title
;
Structure prediction by ZEFSAII (Michael W. Deem and Ramdas Pophale) SiO2 
 PCOD9530312
Probable space group: I B C A 
;
_chemical_formula_sum "Si O2"
_cell_formula_units_Z 64
_cell_length_a 17.530193
_cell_length_b 9.873744
_cell_length_c 15.066413
_cell_angle_alpha 90.000000
_cell_angle_beta 90.000000
_cell_angle_gamma 90.000000
_cell_volume 2607.824905
_symmetry_space_group_name_H-M "I B C A "
_symmetry_group_IT_number 73
_symmetry_cell_setting 'orthorhombic'
loop_
_space_group_symop_operation_xyz
x,y,z
-x,1/2-y,z
x,-y,1/2-z
1/2-x,y,-z
-x,-y,-z
x,1/2+y,-z
-x,y,1/2+z
1/2+x,-y,z
1/2+x,1/2+y,1/2+z
1/2-x,-y,1/2+z
1/2+x,1/2-y,-z
-x,1/2+y,1/2-z
1/2-x,1/2-y,1/2-z
1/2+x,y,1/2-z
1/2-x,1/2+y,z
x,1/2-y,1/2+z
loop_
_atom_site_type_symbol
_atom_site_label
_atom_site_fract_x
_atom_site_fract_y
_atom_site_fract_z
Si Si1 0.043810 0.942468 0.912553
Si Si2 0.115124 0.609500 0.830167
Si Si3 0.589707 0.703281 0.314621
Si Si4 0.167468 0.388379 0.959507
O O1 0.973589 0.888507 0.856736
O O2 0.085175 0.052067 0.850626
O O3 0.108358 0.857774 0.960976
O O4 0.000000 0.000000 0.000000
O O5 0.123920 0.500000 0.750000
O O6 0.125419 0.753268 0.780105
O O7 0.157925 0.538426 0.913308
O O8 0.500000 0.750000 0.320458
O O9 0.641234 0.784649 0.384446
O O10 0.250000 0.373629 0.000000
#
# Coordination Sequence:
#
# PCOD9530312 Si02
#       4
#    16  16  16  16
#     4  10  19  38  63  96 123 170 227 275 319 387
#     4   9  18  36  61  92 124 166 213 282 321 379
#     4  11  19  38  68  94 126 164 234 276 324 384
#     4  10  22  40  62  96 138 171 210 265 338 401
#
# _framework density 24.541526000000001
#
# number of rings (size 3 to 8) (size 9 to 14) (size 15 to 20)
#    0.000    2.000    7.500    0.000    0.000    1.000 
#    9.000    5.000    0.000    0.000    0.000    0.000 
#    0.000    0.000    0.000    0.000    0.000    0.000 
#
# Total GULP energy -178666.919064 kJ/mol
# GULP energy per Si atom -5583.341221 kJ/mol
# Density = 2.448567 g / cm^3
# Si number density = 24.541526 Si / 1000 Ang^3
#
#
#
# Elastic Constant Matrix: (Units=GPa)
#
#
# Indices 1 2 3 4 5 6 
#
# 1 116.6591 1.3586 33.5104 0.0000 0.0000 0.0000
# 2 1.3586 84.3578 43.1953 0.0000 0.0000 0.0000
# 3 33.5104 43.1953 165.8585 0.0000 0.0000 0.0000
# 4 0.0000 0.0000 0.0000 49.3899 0.0000 0.0000
# 5 0.0000 0.0000 0.0000 0.0000 0.3304 0.0000
# 6 0.0000 0.0000 0.0000 0.0000 0.0000 16.5264
#
#
#
# Elastic Compliance Matrix: (Units=1/GPa)
#
#
# Indices 1 2 3 4 5 6 
#
# 1 0.009162 0.000923 -0.002092 0.000000 0.000000 0.000000
# 2 0.000923 0.013771 -0.003773 0.000000 0.000000 0.000000
# 3 -0.002092 -0.003773 0.007434 0.000000 0.000000 0.000000
# 4 0.000000 0.000000 0.000000 0.020247 0.000000 0.000000
# 5 0.000000 0.000000 0.000000 0.000000 3.026813 0.000000
# 6 0.000000 0.000000 0.000000 0.000000 0.000000 0.060509
#
#
# Mechanical properties :
#
#
# Convention : Reuss Voigt Hill
#
# Bulk Modulus (GPa) = 48.81535 58.11155 53.46345
# Shear Modulus (GPa) = 1.58496 32.50341 17.04419
#
# Velocity S-wave (km/s) = 0.80451 3.64321 2.63820
# Velocity P-wave (km/s) = 4.56038 6.43643 5.57784
#
# Compressibility (1/GPa) = 0.02048536
#
# Stress axis : x y z
#
# Youngs Moduli (GPa) = 109.14591 72.61418 134.50828
#
# Poissons Ratio (x) = -0.06706 0.28134
# Poissons Ratio (y) = -0.10079 0.50752
# Poissons Ratio (z) = 0.22829 0.27398
#
# Static dielectric constant tensor:
#      x y z
#    x 1.815800 0.000000 0.000000 
#    y 0.000000 2.097780 0.000000 
#    z 0.000000 0.000000 1.972970 
# 
# From -- ./inp_files/15878.got.cif
#   From: 2010.05.17/outbox.cif.g08.bks.cpg/sg73_8_cif.got.tgz:15878.got - 2010.06.03 17:35:07.
