data_PCOD9530208
_publ_section_title
;
Structure prediction by ZEFSAII (Michael W. Deem and Ramdas Pophale) SiO2 
 PCOD9530208
Probable space group: I B C A 
;
_chemical_formula_sum "Si O2"
_cell_formula_units_Z 96
_cell_length_a 18.917453
_cell_length_b 7.577132
_cell_length_c 24.129235
_cell_angle_alpha 90.000000
_cell_angle_beta 90.000000
_cell_angle_gamma 90.000000
_cell_volume 3458.685474
_symmetry_space_group_name_H-M "I B C A "
_symmetry_group_IT_number 73
_symmetry_cell_setting 'orthorhombic'
loop_
_space_group_symop_operation_xyz
x,y,z
-x,1/2-y,z
x,-y,1/2-z
1/2-x,y,-z
-x,-y,-z
x,1/2+y,-z
-x,y,1/2+z
1/2+x,-y,z
1/2+x,1/2+y,1/2+z
1/2-x,-y,1/2+z
1/2+x,1/2-y,-z
-x,1/2+y,1/2-z
1/2-x,1/2-y,1/2-z
1/2+x,y,1/2-z
1/2-x,1/2+y,z
x,1/2-y,1/2+z
loop_
_atom_site_type_symbol
_atom_site_label
_atom_site_fract_x
_atom_site_fract_y
_atom_site_fract_z
Si Si1 0.402866 0.100011 0.926078
Si Si2 0.333162 0.778875 0.986947
Si Si3 0.582622 0.528114 0.308813
Si Si4 0.456388 0.064697 0.070771
Si Si5 0.265008 0.640025 0.709628
Si Si6 0.378783 0.565875 0.313613
O O1 0.372516 0.276651 0.953063
O O2 0.479976 0.060949 0.951137
O O3 0.403847 0.067887 0.860490
O O4 0.348743 0.954332 0.951864
O O5 0.250000 0.752879 0.000000
O O6 0.381290 0.635588 0.953304
O O7 0.553837 0.482143 0.368183
O O8 0.655496 0.413946 0.302115
O O9 0.754564 0.637918 0.276731
O O10 0.588626 0.739838 0.313182
O O11 0.500000 0.250000 0.076195
O O12 0.455989 0.500000 0.750000
O O13 0.201759 0.615387 0.668372
O O14 0.383660 0.500000 0.250000
#
# Coordination Sequence:
#
# PCOD9530208 Si02
#       6
#    16  16  16  16  16  16
#     4  11  25  48  73 101 147 189 238 310 374 446
#     4  11  24  46  74 105 135 187 246 308 369 435
#     4  11  21  41  69 102 147 197 236 296 370 437
#     4  10  22  45  72  97 145 195 234 307 380 430
#     4  10  19  35  60  97 144 189 233 286 356 424
#     4  11  23  40  66 104 149 190 241 297 368 442
#
# _framework density 27.756209999999999
#
# number of rings (size 3 to 8) (size 9 to 14) (size 15 to 20)
#    0.000    1.333    6.667    1.000    2.333    0.667 
#    3.000    0.000    0.000    0.000    0.000    0.000 
#    0.000    0.000    0.000    0.000    0.000    0.000 
#
# Total GULP energy -267520.408538 kJ/mol
# GULP energy per Si atom -5573.341845 kJ/mol
# Density = 2.769304 g / cm^3
# Si number density = 27.756210 Si / 1000 Ang^3
#
#
#
# Elastic Constant Matrix: (Units=GPa)
#
#
# Indices 1 2 3 4 5 6 
#
# 1 196.4444 22.3518 44.0500 0.0000 0.0000 0.0000
# 2 22.3518 76.9484 20.5358 0.0000 0.0000 0.0000
# 3 44.0500 20.5358 162.1320 0.0000 0.0000 0.0000
# 4 0.0000 0.0000 0.0000 42.2230 0.0000 0.0000
# 5 0.0000 0.0000 0.0000 0.0000 3.3080 0.0000
# 6 0.0000 0.0000 0.0000 0.0000 0.0000 5.0224
#
#
#
# Elastic Compliance Matrix: (Units=1/GPa)
#
#
# Indices 1 2 3 4 5 6 
#
# 1 0.005534 -0.001249 -0.001345 0.000000 0.000000 0.000000
# 2 -0.001249 0.013732 -0.001400 0.000000 0.000000 0.000000
# 3 -0.001345 -0.001400 0.006711 0.000000 0.000000 0.000000
# 4 0.000000 0.000000 0.000000 0.023684 0.000000 0.000000
# 5 0.000000 0.000000 0.000000 0.000000 0.302298 0.000000
# 6 0.000000 0.000000 0.000000 0.000000 0.000000 0.199108
#
#
# Mechanical properties :
#
#
# Convention : Reuss Voigt Hill
#
# Bulk Modulus (GPa) = 55.59002 67.71111 61.65056
# Shear Modulus (GPa) = 8.84876 33.34982 21.09929
#
# Velocity S-wave (km/s) = 1.78744 3.47006 2.76010
# Velocity P-wave (km/s) = 4.93268 6.36420 5.69361
#
# Compressibility (1/GPa) = 0.01798884
#
# Stress axis : x y z
#
# Youngs Moduli (GPa) = 180.69257 72.82237 149.01559
#
# Poissons Ratio (x) = 0.09092 0.20050
# Poissons Ratio (y) = 0.22560 0.20864
# Poissons Ratio (z) = 0.24312 0.10196
#
# Static dielectric constant tensor:
#      x y z
#    x 2.095860 0.000000 0.000000 
#    y 0.000000 2.746860 0.000000 
#    z 0.000000 0.000000 2.207230 
# 
# From -- ./inp_files/27254.got.cif
#   From: 2010.05.17/outbox.cif.g08.bks.cpg/sg73_14_cif.got.tgz:27254.got - 2010.06.03 17:35:07.
