data_PCOD9530155
_publ_section_title
;
Structure prediction by ZEFSAII (Michael W. Deem and Ramdas Pophale) SiO2 
 PCOD9530155
Probable space group: I B C A 
;
_chemical_formula_sum "Si O2"
_cell_formula_units_Z 120
_cell_length_a 23.709900
_cell_length_b 25.491855
_cell_length_c 7.420865
_cell_angle_alpha 90.000000
_cell_angle_beta 90.000000
_cell_angle_gamma 90.000000
_cell_volume 4485.240064
_symmetry_space_group_name_H-M "I B C A "
_symmetry_group_IT_number 73
_symmetry_cell_setting 'orthorhombic'
loop_
_space_group_symop_operation_xyz
x,y,z
-x,1/2-y,z
x,-y,1/2-z
1/2-x,y,-z
-x,-y,-z
x,1/2+y,-z
-x,y,1/2+z
1/2+x,-y,z
1/2+x,1/2+y,1/2+z
1/2-x,-y,1/2+z
1/2+x,1/2-y,-z
-x,1/2+y,1/2-z
1/2-x,1/2-y,1/2-z
1/2+x,y,1/2-z
1/2-x,1/2+y,z
x,1/2-y,1/2+z
loop_
_atom_site_type_symbol
_atom_site_label
_atom_site_fract_x
_atom_site_fract_y
_atom_site_fract_z
Si Si1 0.845621 0.413260 0.997454
Si Si2 0.081147 0.490358 0.037434
Si Si3 0.933139 0.335553 0.835093
Si Si4 0.549513 0.882353 0.444899
Si Si5 0.836889 0.228417 0.264795
Si Si6 0.750000 0.342018 0.000000
Si Si7 0.838195 0.166496 0.893833
Si Si8 0.802539 0.065787 0.096507
O O1 0.892765 0.457007 0.053594
O O2 0.887231 0.367472 0.943375
O O3 0.794247 0.383769 0.100955
O O4 0.812844 0.432227 0.812538
O O5 0.066085 0.500000 0.250000
O O6 0.039925 0.446044 0.948426
O O7 0.139305 0.459081 0.036540
O O8 0.933430 0.365814 0.645358
O O9 0.902854 0.279245 0.826865
O O10 0.995034 0.347300 0.905209
O O11 0.602977 0.860718 0.334793
O O12 0.790707 0.192874 0.371086
O O13 0.841481 0.206762 0.063474
O O14 0.819665 0.288989 0.254541
O O15 0.804644 0.120932 0.993340
O O16 0.750000 0.037004 0.000000
#
# Coordination Sequence:
#
# PCOD9530155 Si02
#       8
#    16  16  16  16  16   8  16  16
#     4  10  19  39  58  83 122 156 195 240 299 361
#     4   9  17  36  58  84 116 157 192 241 300 355
#     4  10  20  39  60  84 119 154 199 246 299 357
#     4  10  20  38  62  86 119 156 196 250 306 348
#     4  10  22  38  59  84 117 160 196 242 305 353
#     4  10  20  36  60  82 116 160 190 234 302 360
#     4  10  21  40  56  86 120 151 199 249 294 360
#     4  10  19  34  58  85 114 152 196 243 290 350
#
# _framework density 26.754422999999999
#
# number of rings (size 3 to 8) (size 9 to 14) (size 15 to 20)
#    0.000    2.133    6.667    0.000    1.867    3.733 
#    0.000    6.667    0.000    1.600    0.000    0.000 
#    0.000    0.000    0.000    0.000    0.000    0.000 
#
# Total GULP energy -334310.702473 kJ/mol
# GULP energy per Si atom -5571.845041 kJ/mol
# Density = 2.669353 g / cm^3
# Si number density = 26.754423 Si / 1000 Ang^3
#
#
#
# Elastic Constant Matrix: (Units=GPa)
#
#
# Indices 1 2 3 4 5 6 
#
# 1 140.7643 10.9759 3.1389 0.0000 0.0000 0.0000
# 2 10.9759 115.0592 15.9012 0.0000 0.0000 0.0000
# 3 3.1389 15.9012 87.8080 0.0000 0.0000 0.0000
# 4 0.0000 0.0000 0.0000 27.6515 0.0000 0.0000
# 5 0.0000 0.0000 0.0000 0.0000 7.3701 0.0000
# 6 0.0000 0.0000 0.0000 0.0000 0.0000 25.8641
#
#
#
# Elastic Compliance Matrix: (Units=1/GPa)
#
#
# Indices 1 2 3 4 5 6 
#
# 1 0.007159 -0.000664 -0.000136 0.000000 0.000000 0.000000
# 2 -0.000664 0.008976 -0.001602 0.000000 0.000000 0.000000
# 3 -0.000136 -0.001602 0.011683 0.000000 0.000000 0.000000
# 4 0.000000 0.000000 0.000000 0.036164 0.000000 0.000000
# 5 0.000000 0.000000 0.000000 0.000000 0.135683 0.000000
# 6 0.000000 0.000000 0.000000 0.000000 0.000000 0.038664
#
#
# Mechanical properties :
#
#
# Convention : Reuss Voigt Hill
#
# Bulk Modulus (GPa) = 43.44965 44.85150 44.15058
# Shear Modulus (GPa) = 19.93592 33.08483 26.51038
#
# Velocity S-wave (km/s) = 2.73270 3.52036 3.15124
# Velocity P-wave (km/s) = 5.12174 5.77274 5.45696
#
# Compressibility (1/GPa) = 0.02301514
#
# Stress axis : x y z
#
# Youngs Moduli (GPa) = 139.68650 111.40953 85.59161
#
# Poissons Ratio (x) = 0.07399 0.01161
# Poissons Ratio (y) = 0.09278 0.13709
# Poissons Ratio (z) = 0.01895 0.17845
#
# Static dielectric constant tensor:
#      x y z
#    x 2.063500 0.000000 0.000000 
#    y 0.000000 2.244410 0.000000 
#    z 0.000000 0.000000 2.299010 
# 
# From -- ./inp_files/7389.got.cif
#   From: 2010.05.17/outbox.cif.g08.bks.cpg/sg73_4_cif.got.tgz:7389.got - 2010.06.03 17:35:07.
