data_PCOD9530618
_publ_section_title
;
Structure prediction by ZEFSAII (Michael W. Deem and Ramdas Pophale) SiO2 
 PCOD9530618
Probable space group: I B C A 
;
_chemical_formula_sum "Si O2"
_cell_formula_units_Z 88
_cell_length_a 11.617715
_cell_length_b 18.155583
_cell_length_c 22.773059
_cell_angle_alpha 90.000000
_cell_angle_beta 90.000000
_cell_angle_gamma 90.000000
_cell_volume 4803.439100
_symmetry_space_group_name_H-M "I B C A "
_symmetry_group_IT_number 73
_symmetry_cell_setting 'orthorhombic'
loop_
_space_group_symop_operation_xyz
x,y,z
-x,1/2-y,z
x,-y,1/2-z
1/2-x,y,-z
-x,-y,-z
x,1/2+y,-z
-x,y,1/2+z
1/2+x,-y,z
1/2+x,1/2+y,1/2+z
1/2-x,-y,1/2+z
1/2+x,1/2-y,-z
-x,1/2+y,1/2-z
1/2-x,1/2-y,1/2-z
1/2+x,y,1/2-z
1/2-x,1/2+y,z
x,1/2-y,1/2+z
loop_
_atom_site_type_symbol
_atom_site_label
_atom_site_fract_x
_atom_site_fract_y
_atom_site_fract_z
Si Si1 0.447535 0.566683 0.578283
Si Si2 0.690798 0.301185 0.129462
Si Si3 0.500000 0.750000 0.780065
Si Si4 0.534682 0.602458 0.452651
Si Si5 0.722411 0.657657 0.936738
Si Si6 0.558682 0.173114 0.334165
O O1 0.526584 0.595961 0.523612
O O2 0.449123 0.478998 0.573597
O O3 0.317073 0.594258 0.568952
O O4 0.491269 0.605126 0.637418
O O5 0.596512 0.287636 0.179805
O O6 0.628109 0.343008 0.075638
O O7 0.732531 0.220247 0.110987
O O8 0.808161 0.338409 0.150053
O O9 0.451375 0.811855 0.735366
O O10 0.407539 0.629614 0.435266
O O11 0.750000 0.692735 0.000000
O O12 0.500000 0.250000 0.358765
#
# Coordination Sequence:
#
# PCOD9530618 Si02
#       6
#    16  16   8  16  16  16
#     4  10  22  41  55  91 131 160 199 245 315 366
#     4  12  21  39  65  91 116 158 211 256 306 363
#     4  10  22  42  60  90 120 154 212 262 306 348
#     4  10  23  36  62  89 126 165 194 250 314 376
#     4  10  20  36  58  89 122 153 199 254 297 363
#     4  10  23  37  63  85 118 160 201 254 299 365
#
# _framework density 18.320208000000001
#
# number of rings (size 3 to 8) (size 9 to 14) (size 15 to 20)
#    0.545    1.091    3.636    0.545    5.091    0.000 
#    0.000    0.909    0.000    2.182    0.000    0.000 
#    0.000    0.000    0.000    0.000    0.000    0.000 
#
# Total GULP energy -245198.748023 kJ/mol
# GULP energy per Si atom -5572.698819 kJ/mol
# Density = 1.827851 g / cm^3
# Si number density = 18.320208 Si / 1000 Ang^3
#
#
#
# Elastic Constant Matrix: (Units=GPa)
#
#
# Indices 1 2 3 4 5 6 
#
# 1 93.9904 0.1668 13.1878 0.0000 0.0000 0.0000
# 2 0.1668 45.1421 10.0325 0.0000 0.0000 0.0000
# 3 13.1878 10.0325 35.3340 0.0000 0.0000 0.0000
# 4 0.0000 0.0000 0.0000 -47.2664 0.0000 0.0000
# 5 0.0000 0.0000 0.0000 0.0000 27.7921 0.0000
# 6 0.0000 0.0000 0.0000 0.0000 0.0000 -15.8018
#
#
#
# Elastic Compliance Matrix: (Units=1/GPa)
#
#
# Indices 1 2 3 4 5 6 
#
# 1 0.011266 0.000953 -0.004475 0.000000 0.000000 0.000000
# 2 0.000953 0.023725 -0.007092 0.000000 0.000000 0.000000
# 3 -0.004475 -0.007092 0.031985 0.000000 0.000000 0.000000
# 4 0.000000 0.000000 0.000000 -0.021157 0.000000 0.000000
# 5 0.000000 0.000000 0.000000 0.000000 0.035981 0.000000
# 6 0.000000 0.000000 0.000000 0.000000 0.000000 -0.063284
#
#
# Mechanical properties :
#
#
# Convention : Reuss Voigt Hill
#
# Bulk Modulus (GPa) = 21.85922 24.58230 23.22076
# Shear Modulus (GPa) = 90.91874 3.01675 46.96774
#
# Velocity S-wave (km/s) = 7.05233 1.28462 5.06880
# Velocity P-wave (km/s) = 8.84711 3.95571 6.85270
#
# Compressibility (1/GPa) = 0.04574729
#
# Stress axis : x y z
#
# Youngs Moduli (GPa) = 88.76568 42.14987 31.26435
#
# Poissons Ratio (x) = -0.04017 0.13992
# Poissons Ratio (y) = -0.08459 0.22172
# Poissons Ratio (z) = 0.39725 0.29892
#
# Static dielectric constant tensor:
#      x y z
#    x 1.604550 0.000000 0.000000 
#    y 0.000000 1.619120 0.000000 
#    z 0.000000 0.000000 1.638420 
# 
# From -- ./inp_files/13533.got.cif
#   From: 2010.05.17/outbox.cif.g08.bks.cpg/sg73_7_cif.got.tgz:13533.got - 2010.06.03 17:35:07.
