data_PCOD9530684
_publ_section_title
;
Structure prediction by ZEFSAII (Michael W. Deem and Ramdas Pophale) SiO2 
 PCOD9530684
Probable space group: I B C A 
;
_chemical_formula_sum "Si O2"
_cell_formula_units_Z 64
_cell_length_a 5.686812
_cell_length_b 23.276796
_cell_length_c 18.945127
_cell_angle_alpha 90.000000
_cell_angle_beta 90.000000
_cell_angle_gamma 90.000000
_cell_volume 2507.780913
_symmetry_space_group_name_H-M "I B C A "
_symmetry_group_IT_number 73
_symmetry_cell_setting 'orthorhombic'
loop_
_space_group_symop_operation_xyz
x,y,z
-x,1/2-y,z
x,-y,1/2-z
1/2-x,y,-z
-x,-y,-z
x,1/2+y,-z
-x,y,1/2+z
1/2+x,-y,z
1/2+x,1/2+y,1/2+z
1/2-x,-y,1/2+z
1/2+x,1/2-y,-z
-x,1/2+y,1/2-z
1/2-x,1/2-y,1/2-z
1/2+x,y,1/2-z
1/2-x,1/2+y,z
x,1/2-y,1/2+z
loop_
_atom_site_type_symbol
_atom_site_label
_atom_site_fract_x
_atom_site_fract_y
_atom_site_fract_z
Si Si1 0.744172 0.265811 0.358020
Si Si2 0.250000 0.812252 0.500000
Si Si3 0.675431 0.067057 0.722860
Si Si4 0.421437 0.383541 0.094221
Si Si5 0.250000 0.970506 0.000000
O O1 0.500000 0.250000 0.321701
O O2 0.728752 0.229026 0.431786
O O3 0.772424 0.333079 0.370842
O O4 0.000000 0.250000 0.328243
O O5 0.458677 0.853979 0.474421
O O6 0.934336 0.090138 0.741211
O O7 0.618779 0.086009 0.642594
O O8 0.684683 0.000000 0.750000
O O9 0.250548 0.433202 0.070676
O O10 0.500000 0.000000 0.000000
#
# Coordination Sequence:
#
# PCOD9530684 Si02
#       5
#    16   8  16  16   8
#     4  10  20  36  64  99 137 172 217 272 355 444
#     4  10  20  40  70 106 138 176 224 288 376 444
#     4  10  25  46  73  93 134 199 260 299 340 414
#     4  11  24  44  72 104 148 189 235 300 375 432
#     4  12  28  38  60 100 142 172 222 298 370 434
#
# _framework density 25.520571
#
# number of rings (size 3 to 8) (size 9 to 14) (size 15 to 20)
#    0.000    1.500    0.000    5.250    7.000    8.000 
#    0.000    0.000    0.000   19.500    0.000    0.000 
#    0.000    0.000    0.000    0.000    0.000    0.000 
#
# Total GULP energy -178646.379766 kJ/mol
# GULP energy per Si atom -5582.699368 kJ/mol
# Density = 2.546249 g / cm^3
# Si number density = 25.520571 Si / 1000 Ang^3
#
#
#
# Elastic Constant Matrix: (Units=GPa)
#
#
# Indices 1 2 3 4 5 6 
#
# 1 238.4319 60.7421 34.7604 0.0000 0.0000 0.0000
# 2 60.7421 124.2845 32.2121 0.0000 0.0000 0.0000
# 3 34.7604 32.2121 103.2211 0.0000 0.0000 0.0000
# 4 0.0000 0.0000 0.0000 36.7239 0.0000 0.0000
# 5 0.0000 0.0000 0.0000 0.0000 -142.5327 0.0000
# 6 0.0000 0.0000 0.0000 0.0000 0.0000 31.0667
#
#
#
# Elastic Compliance Matrix: (Units=1/GPa)
#
#
# Indices 1 2 3 4 5 6 
#
# 1 0.004880 -0.002131 -0.000978 0.000000 0.000000 0.000000
# 2 -0.002131 0.009685 -0.002305 0.000000 0.000000 0.000000
# 3 -0.000978 -0.002305 0.010737 0.000000 0.000000 0.000000
# 4 0.000000 0.000000 0.000000 0.027230 0.000000 0.000000
# 5 0.000000 0.000000 0.000000 0.000000 -0.007016 0.000000
# 6 0.000000 0.000000 0.000000 0.000000 0.000000 0.032189
#
#
# Mechanical properties :
#
#
# Convention : Reuss Voigt Hill
#
# Bulk Modulus (GPa) = 69.09426 80.15184 74.62305
# Shear Modulus (GPa) = 53.55794 7.59979 30.57886
#
# Velocity S-wave (km/s) = 4.58604 1.72753 3.46526
# Velocity P-wave (km/s) = 7.42799 5.95433 6.73161
#
# Compressibility (1/GPa) = 0.01447298
#
# Stress axis : x y z
#
# Youngs Moduli (GPa) = 204.93315 103.25204 93.13982
#
# Poissons Ratio (x) = 0.22006 0.09110
# Poissons Ratio (y) = 0.43678 0.21466
# Poissons Ratio (z) = 0.20045 0.23796
#
# Static dielectric constant tensor:
#      x y z
#    x 1.927210 0.000000 0.000000 
#    y 0.000000 2.057360 0.000000 
#    z 0.000000 0.000000 2.095810 
# 
# From -- ./inp_files/24363.got.cif
#   From: 2010.05.17/outbox.cif.g08.bks.cpg/sg73_13_cif.got.tgz:24363.got - 2010.06.03 17:35:07.
