data_PCOD9530691
_publ_section_title
;
Structure prediction by ZEFSAII (Michael W. Deem and Ramdas Pophale) SiO2 
 PCOD9530691
Probable space group: I B C A 
;
_chemical_formula_sum "Si O2"
_cell_formula_units_Z 88
_cell_length_a 13.628853
_cell_length_b 12.280775
_cell_length_c 21.288892
_cell_angle_alpha 90.000000
_cell_angle_beta 90.000000
_cell_angle_gamma 90.000000
_cell_volume 3563.183106
_symmetry_space_group_name_H-M "I B C A "
_symmetry_group_IT_number 73
_symmetry_cell_setting 'orthorhombic'
loop_
_space_group_symop_operation_xyz
x,y,z
-x,1/2-y,z
x,-y,1/2-z
1/2-x,y,-z
-x,-y,-z
x,1/2+y,-z
-x,y,1/2+z
1/2+x,-y,z
1/2+x,1/2+y,1/2+z
1/2-x,-y,1/2+z
1/2+x,1/2-y,-z
-x,1/2+y,1/2-z
1/2-x,1/2-y,1/2-z
1/2+x,y,1/2-z
1/2-x,1/2+y,z
x,1/2-y,1/2+z
loop_
_atom_site_type_symbol
_atom_site_label
_atom_site_fract_x
_atom_site_fract_y
_atom_site_fract_z
Si Si1 0.089466 0.317869 0.232488
Si Si2 0.077215 0.050781 0.379309
Si Si3 0.345087 0.811627 0.607741
Si Si4 0.269120 0.392452 0.932963
Si Si5 0.146979 0.087644 0.860533
Si Si6 0.453149 0.000000 0.750000
O O1 0.129789 0.243855 0.176048
O O2 0.153280 0.367567 0.288696
O O3 0.000000 0.250000 0.263505
O O4 0.026924 0.422976 0.211106
O O5 0.094977 0.924093 0.401299
O O6 0.107279 0.052616 0.305138
O O7 0.157240 0.126244 0.411504
O O8 0.965635 0.091795 0.383352
O O9 0.343226 0.709448 0.560666
O O10 0.231752 0.845159 0.605938
O O11 0.315593 0.467003 0.878501
O O12 0.250000 0.448176 0.000000
#
# Coordination Sequence:
#
# PCOD9530691 Si02
#       6
#    16  16  16  16  16   8
#     4  11  21  37  69 107 142 174 221 274 356 437
#     4  10  23  44  68  98 141 173 227 288 350 426
#     4  11  23  41  69 102 139 179 230 283 351 419
#     4  11  27  46  67  97 133 186 245 289 340 410
#     4  10  25  43  69  99 139 184 219 285 361 418
#     4  10  20  36  66 102 140 176 208 278 356 428
#
# _framework density 24.697016999999999
#
# number of rings (size 3 to 8) (size 9 to 14) (size 15 to 20)
#    0.000    1.455    1.818    2.727    5.091    6.545 
#    0.000    2.727    0.000    0.000    0.000    0.000 
#    0.000    0.000    0.000    0.000    0.000    0.000 
#
# Total GULP energy -244944.728325 kJ/mol
# GULP energy per Si atom -5566.925644 kJ/mol
# Density = 2.464081 g / cm^3
# Si number density = 24.697017 Si / 1000 Ang^3
#
#
#
# Elastic Constant Matrix: (Units=GPa)
#
#
# Indices 1 2 3 4 5 6 
#
# 1 112.3517 12.7187 21.3841 0.0000 0.0000 0.0000
# 2 12.7187 106.7656 -2.2977 0.0000 0.0000 0.0000
# 3 21.3841 -2.2977 52.4099 0.0000 0.0000 0.0000
# 4 0.0000 0.0000 0.0000 16.9233 0.0000 0.0000
# 5 0.0000 0.0000 0.0000 0.0000 0.4130 0.0000
# 6 0.0000 0.0000 0.0000 0.0000 0.0000 27.9116
#
#
#
# Elastic Compliance Matrix: (Units=1/GPa)
#
#
# Indices 1 2 3 4 5 6 
#
# 1 0.009816 -0.001257 -0.004060 0.000000 0.000000 0.000000
# 2 -0.001257 0.009536 0.000931 0.000000 0.000000 0.000000
# 3 -0.004060 0.000931 0.020778 0.000000 0.000000 0.000000
# 4 0.000000 0.000000 0.000000 0.059090 0.000000 0.000000
# 5 0.000000 0.000000 0.000000 0.000000 2.421032 0.000000
# 6 0.000000 0.000000 0.000000 0.000000 0.000000 0.035827
#
#
# Mechanical properties :
#
#
# Convention : Reuss Voigt Hill
#
# Bulk Modulus (GPa) = 31.89018 37.23749 34.56384
# Shear Modulus (GPa) = 1.94152 25.03107 13.48629
#
# Velocity S-wave (km/s) = 0.88760 3.18705 2.33935
# Velocity P-wave (km/s) = 3.74046 5.35289 4.61760
#
# Compressibility (1/GPa) = 0.03135762
#
# Stress axis : x y z
#
# Youngs Moduli (GPa) = 101.87830 104.86527 48.12841
#
# Poissons Ratio (x) = 0.13178 0.19540
# Poissons Ratio (y) = 0.12803 -0.04480
# Poissons Ratio (z) = 0.41363 -0.09761
#
# Static dielectric constant tensor:
#      x y z
#    x 1.946310 0.000000 0.000000 
#    y 0.000000 2.184280 0.000000 
#    z 0.000000 0.000000 2.008490 
# 
# From -- ./inp_files/29407.got.cif
#   From: 2010.05.17/outbox.cif.g08.bks.cpg/sg73_15_cif.got.tgz:29407.got - 2010.06.03 17:35:07.
