data_PCOD9530466
_publ_section_title
;
Structure prediction by ZEFSAII (Michael W. Deem and Ramdas Pophale) SiO2 
 PCOD9530466
Probable space group: I B C A 
;
_chemical_formula_sum "Si O2"
_cell_formula_units_Z 96
_cell_length_a 20.210486
_cell_length_b 20.797528
_cell_length_c 10.598661
_cell_angle_alpha 90.000000
_cell_angle_beta 90.000000
_cell_angle_gamma 90.000000
_cell_volume 4454.915554
_symmetry_space_group_name_H-M "I B C A "
_symmetry_group_IT_number 73
_symmetry_cell_setting 'orthorhombic'
loop_
_space_group_symop_operation_xyz
x,y,z
-x,1/2-y,z
x,-y,1/2-z
1/2-x,y,-z
-x,-y,-z
x,1/2+y,-z
-x,y,1/2+z
1/2+x,-y,z
1/2+x,1/2+y,1/2+z
1/2-x,-y,1/2+z
1/2+x,1/2-y,-z
-x,1/2+y,1/2-z
1/2-x,1/2-y,1/2-z
1/2+x,y,1/2-z
1/2-x,1/2+y,z
x,1/2-y,1/2+z
loop_
_atom_site_type_symbol
_atom_site_label
_atom_site_fract_x
_atom_site_fract_y
_atom_site_fract_z
Si Si1 0.427490 0.637535 0.544481
Si Si2 0.424606 0.621138 0.055163
Si Si3 0.212048 0.664126 0.377084
Si Si4 0.429581 0.736746 0.878631
Si Si5 0.559325 0.988069 0.399663
Si Si6 0.322193 0.296273 0.296513
O O1 0.499063 0.622682 0.604283
O O2 0.361370 0.634619 0.628179
O O3 0.432164 0.709975 0.490607
O O4 0.418924 0.584562 0.432217
O O5 0.397092 0.548721 0.055286
O O6 0.376749 0.659726 0.143790
O O7 0.427946 0.663631 0.927796
O O8 0.250000 0.638894 0.500000
O O9 0.262418 0.662514 0.260559
O O10 0.202864 0.741361 0.390188
O O11 0.500000 0.750000 0.809048
O O12 0.363086 0.755153 0.806727
O O13 0.546746 0.000000 0.250000
O O14 0.500000 0.000000 0.500000
#
# Coordination Sequence:
#
# PCOD9530466 Si02
#       6
#    16  16  16  16  16  16
#     4  10  20  39  59  92 130 168 218 279 336 407
#     4  10  21  38  62  96 125 168 224 278 333 400
#     4  11  22  36  56  89 128 171 210 266 339 403
#     4  10  20  33  58  94 121 152 213 279 323 384
#     4  10  22  41  65  96 132 174 220 279 344 402
#     4  11  21  35  61  91 126 173 214 274 337 404
#
# _framework density 21.549230000000001
#
# number of rings (size 3 to 8) (size 9 to 14) (size 15 to 20)
#    0.000    1.667    3.333    1.000    2.333    0.000 
#    6.000    0.000    0.000    7.000    0.000    0.000 
#    0.000    0.000    0.000    0.000    0.000    0.000 
#
# Total GULP energy -267316.003046 kJ/mol
# GULP energy per Si atom -5569.083397 kJ/mol
# Density = 2.150018 g / cm^3
# Si number density = 21.549230 Si / 1000 Ang^3
#
#
#
# Elastic Constant Matrix: (Units=GPa)
#
#
# Indices 1 2 3 4 5 6 
#
# 1 126.4516 -9.3153 25.0878 0.0000 0.0000 0.0000
# 2 -9.3153 74.0126 22.7437 0.0000 0.0000 0.0000
# 3 25.0878 22.7437 52.4188 0.0000 0.0000 0.0000
# 4 0.0000 0.0000 0.0000 32.4393 0.0000 0.0000
# 5 0.0000 0.0000 0.0000 0.0000 31.5891 0.0000
# 6 0.0000 0.0000 0.0000 0.0000 0.0000 7.7867
#
#
#
# Elastic Compliance Matrix: (Units=1/GPa)
#
#
# Indices 1 2 3 4 5 6 
#
# 1 0.009252 0.002914 -0.005692 0.000000 0.000000 0.000000
# 2 0.002914 0.016507 -0.008557 0.000000 0.000000 0.000000
# 3 -0.005692 -0.008557 0.025514 0.000000 0.000000 0.000000
# 4 0.000000 0.000000 0.000000 0.030827 0.000000 0.000000
# 5 0.000000 0.000000 0.000000 0.000000 0.031656 0.000000
# 6 0.000000 0.000000 0.000000 0.000000 0.000000 0.128424
#
#
# Mechanical properties :
#
#
# Convention : Reuss Voigt Hill
#
# Bulk Modulus (GPa) = 34.96155 36.65728 35.80942
# Shear Modulus (GPa) = 18.22251 28.65414 23.43832
#
# Velocity S-wave (km/s) = 2.91111 3.65047 3.30155
# Velocity P-wave (km/s) = 5.24964 5.90049 5.58455
#
# Compressibility (1/GPa) = 0.02860285
#
# Stress axis : x y z
#
# Youngs Moduli (GPa) = 108.08297 60.57894 39.19393
#
# Poissons Ratio (x) = -0.17651 0.22310
# Poissons Ratio (y) = -0.31492 0.33537
# Poissons Ratio (z) = 0.61524 0.51836
#
# Static dielectric constant tensor:
#      x y z
#    x 3.711510 0.000000 0.000000 
#    y 0.000000 1.910010 0.000000 
#    z 0.000000 0.000000 1.905820 
# 
# From -- ./inp_files/12855.got.cif
#   From: 2010.05.17/outbox.cif.g08.bks.cpg/sg73_7_cif.got.tgz:12855.got - 2010.06.03 17:35:07.
