data_PCOD9530193
_publ_section_title
;
Structure prediction by ZEFSAII (Michael W. Deem and Ramdas Pophale) SiO2 
 PCOD9530193
Probable space group: I B C A 
;
_chemical_formula_sum "Si O2"
_cell_formula_units_Z 104
_cell_length_a 18.344275
_cell_length_b 16.519801
_cell_length_c 19.091690
_cell_angle_alpha 90.000000
_cell_angle_beta 90.000000
_cell_angle_gamma 90.000000
_cell_volume 5785.617761
_symmetry_space_group_name_H-M "I B C A "
_symmetry_group_IT_number 73
_symmetry_cell_setting 'orthorhombic'
loop_
_space_group_symop_operation_xyz
x,y,z
-x,1/2-y,z
x,-y,1/2-z
1/2-x,y,-z
-x,-y,-z
x,1/2+y,-z
-x,y,1/2+z
1/2+x,-y,z
1/2+x,1/2+y,1/2+z
1/2-x,-y,1/2+z
1/2+x,1/2-y,-z
-x,1/2+y,1/2-z
1/2-x,1/2-y,1/2-z
1/2+x,y,1/2-z
1/2-x,1/2+y,z
x,1/2-y,1/2+z
loop_
_atom_site_type_symbol
_atom_site_label
_atom_site_fract_x
_atom_site_fract_y
_atom_site_fract_z
Si Si1 0.761114 0.042187 0.611882
Si Si2 0.104095 0.380868 0.408647
Si Si3 0.149105 0.500000 0.750000
Si Si4 0.250000 0.399633 0.000000
Si Si5 0.086520 0.403593 0.569855
Si Si6 0.000000 0.250000 0.071331
Si Si7 0.889507 0.803126 0.543148
Si Si8 0.456995 0.068552 0.647812
O O1 0.682474 0.083434 0.611428
O O2 0.797384 0.025172 0.687156
O O3 0.825337 0.095498 0.576327
O O4 0.751075 0.960201 0.566582
O O5 0.076268 0.410688 0.485726
O O6 0.113643 0.284899 0.421047
O O7 0.042047 0.407400 0.353194
O O8 0.091353 0.435259 0.781710
O O9 0.182603 0.340468 0.989318
O O10 0.049307 0.322765 0.602011
O O11 0.055371 0.481502 0.610293
O O12 0.944940 0.203281 0.020774
O O13 0.919740 0.865125 0.599289
#
# Coordination Sequence:
#
# PCOD9530193 Si02
#       8
#    16  16   8   8  16   8  16  16
#     4  11  22  40  61  91 125 162 208 267 317 387
#     4  11  21  34  62  93 121 154 208 260 318 373
#     4  10  24  42  62  80 124 168 224 258 316 378
#     4  12  22  34  66  94 124 168 208 258 336 380
#     4  10  19  35  58  91 124 154 199 259 316 365
#     4  10  22  32  58  94 130 152 196 262 312 370
#     4  11  21  35  58  97 124 160 202 261 311 384
#     4  11  20  40  62  81 121 172 209 251 311 382
#
# _framework density 17.975608999999999
#
# number of rings (size 3 to 8) (size 9 to 14) (size 15 to 20)
#    0.000    1.231    7.692    0.462    6.462    0.615 
#    0.000    0.769   13.538    0.000    0.000    0.000 
#    0.000    0.000    0.000    0.000    0.000    0.000 
#
# Total GULP energy -289606.239729 kJ/mol
# GULP energy per Si atom -5569.350764 kJ/mol
# Density = 1.793470 g / cm^3
# Si number density = 17.975609 Si / 1000 Ang^3
#
#
#
# Elastic Constant Matrix: (Units=GPa)
#
#
# Indices 1 2 3 4 5 6 
#
# 1 173.7032 63.4070 24.6557 0.0000 0.0000 0.0000
# 2 63.4070 90.9597 34.7806 0.0000 0.0000 0.0000
# 3 24.6557 34.7806 62.1661 0.0000 0.0000 0.0000
# 4 0.0000 0.0000 0.0000 13.4202 0.0000 0.0000
# 5 0.0000 0.0000 0.0000 0.0000 28.9282 0.0000
# 6 0.0000 0.0000 0.0000 0.0000 0.0000 39.5432
#
#
#
# Elastic Compliance Matrix: (Units=1/GPa)
#
#
# Indices 1 2 3 4 5 6 
#
# 1 0.007722 -0.005358 -0.000065 0.000000 0.000000 0.000000
# 2 -0.005358 0.017704 -0.007780 0.000000 0.000000 0.000000
# 3 -0.000065 -0.007780 0.020464 0.000000 0.000000 0.000000
# 4 0.000000 0.000000 0.000000 0.074514 0.000000 0.000000
# 5 0.000000 0.000000 0.000000 0.000000 0.034568 0.000000
# 6 0.000000 0.000000 0.000000 0.000000 0.000000 0.025289
#
#
# Mechanical properties :
#
#
# Convention : Reuss Voigt Hill
#
# Bulk Modulus (GPa) = 51.32285 63.61284 57.46784
# Shear Modulus (GPa) = 23.45632 29.97736 26.71684
#
# Velocity S-wave (km/s) = 3.61625 4.08814 3.85942
# Velocity P-wave (km/s) = 6.78600 7.59928 7.20413
#
# Compressibility (1/GPa) = 0.01948450
#
# Stress axis : x y z
#
# Youngs Moduli (GPa) = 129.49939 56.48515 48.86562
#
# Poissons Ratio (x) = 0.30266 0.00317
# Poissons Ratio (y) = 0.69388 0.38016
# Poissons Ratio (z) = 0.00840 0.43944
#
# Static dielectric constant tensor:
#      x y z
#    x 2.317320 0.000000 0.000000 
#    y 0.000000 1.632790 0.000000 
#    z 0.000000 0.000000 1.643960 
# 
# From -- ./inp_files/18841.got.cif
#   From: 2010.05.17/outbox.cif.g08.bks.cpg/sg73_10_cif.got.tgz:18841.got - 2010.06.03 17:35:07.
