data_PCOD9530159
_publ_section_title
;
Structure prediction by ZEFSAII (Michael W. Deem and Ramdas Pophale) SiO2 
 PCOD9530159
Probable space group: I B C A 
;
_chemical_formula_sum "Si O2"
_cell_formula_units_Z 72
_cell_length_a 16.397776
_cell_length_b 10.700619
_cell_length_c 20.929753
_cell_angle_alpha 90.000000
_cell_angle_beta 90.000000
_cell_angle_gamma 90.000000
_cell_volume 3672.467437
_symmetry_space_group_name_H-M "I B C A "
_symmetry_group_IT_number 73
_symmetry_cell_setting 'orthorhombic'
loop_
_space_group_symop_operation_xyz
x,y,z
-x,1/2-y,z
x,-y,1/2-z
1/2-x,y,-z
-x,-y,-z
x,1/2+y,-z
-x,y,1/2+z
1/2+x,-y,z
1/2+x,1/2+y,1/2+z
1/2-x,-y,1/2+z
1/2+x,1/2-y,-z
-x,1/2+y,1/2-z
1/2-x,1/2-y,1/2-z
1/2+x,y,1/2-z
1/2-x,1/2+y,z
x,1/2-y,1/2+z
loop_
_atom_site_type_symbol
_atom_site_label
_atom_site_fract_x
_atom_site_fract_y
_atom_site_fract_z
Si Si1 0.843182 0.128317 0.524310
Si Si2 0.852119 0.364620 0.766103
Si Si3 0.882137 0.643232 0.065330
Si Si4 0.767894 0.253768 0.142943
Si Si5 0.000000 0.750000 0.160611
O O1 0.750000 0.114273 0.500000
O O2 0.614921 0.233372 0.520124
O O3 0.832331 0.188626 0.594204
O O4 0.879284 0.989017 0.529003
O O5 0.882704 0.500000 0.750000
O O6 0.785675 0.361774 0.823096
O O7 0.811223 0.312583 0.702103
O O8 0.926636 0.288777 0.794171
O O9 0.797004 0.665785 0.104921
O O10 0.958293 0.648779 0.113603
#
# Coordination Sequence:
#
# PCOD9530159 Si02
#       5
#    16  16  16  16   8
#     4  10  19  34  59  85 109 140 186 236 282 329
#     4  10  20  36  57  80 113 150 187 232 281 333
#     4  10  21  37  57  83 114 147 185 231 280 332
#     4   9  19  35  59  86 106 139 190 238 283 331
#     4  10  24  38  50  78 118 154 186 226 272 332
#
# _framework density 19.605349
#
# number of rings (size 3 to 8) (size 9 to 14) (size 15 to 20)
#    0.000    2.222    0.000    3.333    0.000    6.222 
#    0.000    3.333    0.000    0.000    0.000    0.000 
#    0.000    0.000    0.000    0.000    0.000    0.000 
#
# Total GULP energy -200686.839958 kJ/mol
# GULP energy per Si atom -5574.634443 kJ/mol
# Density = 1.956073 g / cm^3
# Si number density = 19.605349 Si / 1000 Ang^3
#
#
#
# Elastic Constant Matrix: (Units=GPa)
#
#
# Indices 1 2 3 4 5 6 
#
# 1 36.9089 2.4259 20.2104 0.0000 0.0000 0.0000
# 2 2.4259 65.3342 34.7207 0.0000 0.0000 0.0000
# 3 20.2104 34.7207 100.6755 0.0000 0.0000 0.0000
# 4 0.0000 0.0000 0.0000 15.5754 0.0000 0.0000
# 5 0.0000 0.0000 0.0000 0.0000 -11.2094 0.0000
# 6 0.0000 0.0000 0.0000 0.0000 0.0000 -3.7032
#
#
#
# Elastic Compliance Matrix: (Units=1/GPa)
#
#
# Indices 1 2 3 4 5 6 
#
# 1 0.030803 0.002623 -0.007088 0.000000 0.000000 0.000000
# 2 0.002623 0.018964 -0.007067 0.000000 0.000000 0.000000
# 3 -0.007088 -0.007067 0.013793 0.000000 0.000000 0.000000
# 4 0.000000 0.000000 0.000000 0.064204 0.000000 0.000000
# 5 0.000000 0.000000 0.000000 0.000000 -0.089211 0.000000
# 6 0.000000 0.000000 0.000000 0.000000 0.000000 -0.270034
#
#
# Mechanical properties :
#
#
# Convention : Reuss Voigt Hill
#
# Bulk Modulus (GPa) = 24.69384 35.29253 29.99319
# Shear Modulus (GPa) = -25.65170 9.83666 -7.90752
#
# Velocity S-wave (km/s) = -3.62111 2.24237 -2.01050
# Velocity P-wave (km/s) = 2.20464 4.97442 3.15313
#
# Compressibility (1/GPa) = 0.04049592
#
# Stress axis : x y z
#
# Youngs Moduli (GPa) = 32.46472 52.73122 72.50010
#
# Poissons Ratio (x) = -0.13832 0.51390
# Poissons Ratio (y) = -0.08516 0.51235
# Poissons Ratio (z) = 0.23012 0.37265
#
# Static dielectric constant tensor:
#      x y z
#    x 1.701940 0.000000 0.000000 
#    y 0.000000 1.693780 0.000000 
#    z 0.000000 0.000000 1.715850 
# 
# From -- ./inp_files/29318.got.cif
#   From: 2010.05.17/outbox.cif.g08.bks.cpg/sg73_15_cif.got.tgz:29318.got - 2010.06.03 17:35:07.
