data_PCOD9530462
_publ_section_title
;
Structure prediction by ZEFSAII (Michael W. Deem and Ramdas Pophale) SiO2 
 PCOD9530462
Probable space group: I B C A 
;
_chemical_formula_sum "Si O2"
_cell_formula_units_Z 88
_cell_length_a 9.516033
_cell_length_b 21.419557
_cell_length_c 23.548584
_cell_angle_alpha 90.000000
_cell_angle_beta 90.000000
_cell_angle_gamma 90.000000
_cell_volume 4799.889303
_symmetry_space_group_name_H-M "I B C A "
_symmetry_group_IT_number 73
_symmetry_cell_setting 'orthorhombic'
loop_
_space_group_symop_operation_xyz
x,y,z
-x,1/2-y,z
x,-y,1/2-z
1/2-x,y,-z
-x,-y,-z
x,1/2+y,-z
-x,y,1/2+z
1/2+x,-y,z
1/2+x,1/2+y,1/2+z
1/2-x,-y,1/2+z
1/2+x,1/2-y,-z
-x,1/2+y,1/2-z
1/2-x,1/2-y,1/2-z
1/2+x,y,1/2-z
1/2-x,1/2+y,z
x,1/2-y,1/2+z
loop_
_atom_site_type_symbol
_atom_site_label
_atom_site_fract_x
_atom_site_fract_y
_atom_site_fract_z
Si Si1 0.250000 0.660083 0.500000
Si Si2 0.431029 0.475460 0.558841
Si Si3 0.260868 0.308300 0.178848
Si Si4 0.298690 0.573676 0.397175
Si Si5 0.500000 0.750000 0.746770
Si Si6 0.148298 0.260165 0.578089
Si Si7 0.750000 0.130329 0.500000
O O1 0.316761 0.617564 0.452441
O O2 0.143476 0.706662 0.469897
O O3 0.500000 0.500000 0.500000
O O4 0.323601 0.525493 0.585552
O O5 0.552947 0.461547 0.604452
O O6 0.348267 0.414387 0.537568
O O7 0.261996 0.378384 0.153208
O O8 0.399095 0.294739 0.215799
O O9 0.118586 0.291151 0.213503
O O10 0.261898 0.260572 0.124700
O O11 0.175752 0.324287 0.545913
O O12 0.000000 0.250000 0.607879
#
# Coordination Sequence:
#
# PCOD9530462 Si02
#       7
#     8  16  16  16   8  16   8
#     4   9  17  32  50  80 129 153 192 230 274 345
#     4  12  21  36  54  86 127 175 198 223 268 346
#     4  10  23  40  67  89 114 149 194 264 308 364
#     4  11  22  37  58  86 123 165 200 234 284 350
#     4  10  22  46  64  92 108 142 200 260 340 342
#     4  10  20  33  54  91 120 160 191 235 301 353
#     4  11  23  32  56  88 135 169 192 228 274 365
#
# _framework density 18.333756999999999
#
# number of rings (size 3 to 8) (size 9 to 14) (size 15 to 20)
#    0.000    1.455    4.545    1.091    5.091    0.000 
#    3.273    0.000    0.000    3.273    0.000    0.000 
#    0.000    0.000    0.000    0.000    0.000    0.000 
#
# Total GULP energy -245058.883119 kJ/mol
# GULP energy per Si atom -5569.520071 kJ/mol
# Density = 1.829203 g / cm^3
# Si number density = 18.333757 Si / 1000 Ang^3
#
#
#
# Elastic Constant Matrix: (Units=GPa)
#
#
# Indices 1 2 3 4 5 6 
#
# 1 134.8249 72.7449 54.9694 0.0000 0.0000 0.0000
# 2 72.7449 127.7048 54.3211 0.0000 0.0000 0.0000
# 3 54.9694 54.3211 74.2889 0.0000 0.0000 0.0000
# 4 0.0000 0.0000 0.0000 -59.1905 0.0000 0.0000
# 5 0.0000 0.0000 0.0000 0.0000 23.0615 0.0000
# 6 0.0000 0.0000 0.0000 0.0000 0.0000 6.9364
#
#
#
# Elastic Compliance Matrix: (Units=1/GPa)
#
#
# Indices 1 2 3 4 5 6 
#
# 1 0.012179 -0.004506 -0.005717 0.000000 0.000000 0.000000
# 2 -0.004506 0.013033 -0.006196 0.000000 0.000000 0.000000
# 3 -0.005717 -0.006196 0.022222 0.000000 0.000000 0.000000
# 4 0.000000 0.000000 0.000000 -0.016895 0.000000 0.000000
# 5 0.000000 0.000000 0.000000 0.000000 0.043362 0.000000
# 6 0.000000 0.000000 0.000000 0.000000 0.000000 0.144168
#
#
# Mechanical properties :
#
#
# Convention : Reuss Voigt Hill
#
# Bulk Modulus (GPa) = 68.51060 77.87661 73.19360
# Shear Modulus (GPa) = 19.54876 4.48037 12.01456
#
# Velocity S-wave (km/s) = 3.26892 1.56496 2.56271
# Velocity P-wave (km/s) = 7.19010 6.77014 6.98328
#
# Compressibility (1/GPa) = 0.01459628
#
# Stress axis : x y z
#
# Youngs Moduli (GPa) = 82.10859 76.73084 45.00123
#
# Poissons Ratio (x) = 0.34573 0.25728
# Poissons Ratio (y) = 0.36996 0.27881
# Poissons Ratio (z) = 0.46942 0.47540
#
# Static dielectric constant tensor:
#      x y z
#    x 5.595530 0.000000 0.000000 
#    y 0.000000 1.639300 0.000000 
#    z 0.000000 0.000000 1.664070 
# 
# From -- ./inp_files/6328.got.cif
#   From: 2010.05.17/outbox.cif.g08.bks.cpg/sg73_4_cif.got.tgz:6328.got - 2010.06.03 17:35:07.
