data_PCOD9530305
_publ_section_title
;
Structure prediction by ZEFSAII (Michael W. Deem and Ramdas Pophale) SiO2 
 PCOD9530305
Probable space group: I B C A 
;
_chemical_formula_sum "Si O2"
_cell_formula_units_Z 112
_cell_length_a 23.674548
_cell_length_b 14.267797
_cell_length_c 13.899762
_cell_angle_alpha 90.000000
_cell_angle_beta 90.000000
_cell_angle_gamma 90.000000
_cell_volume 4695.112272
_symmetry_space_group_name_H-M "I B C A "
_symmetry_group_IT_number 73
_symmetry_cell_setting 'orthorhombic'
loop_
_space_group_symop_operation_xyz
x,y,z
-x,1/2-y,z
x,-y,1/2-z
1/2-x,y,-z
-x,-y,-z
x,1/2+y,-z
-x,y,1/2+z
1/2+x,-y,z
1/2+x,1/2+y,1/2+z
1/2-x,-y,1/2+z
1/2+x,1/2-y,-z
-x,1/2+y,1/2-z
1/2-x,1/2-y,1/2-z
1/2+x,y,1/2-z
1/2-x,1/2+y,z
x,1/2-y,1/2+z
loop_
_atom_site_type_symbol
_atom_site_label
_atom_site_fract_x
_atom_site_fract_y
_atom_site_fract_z
Si Si1 0.035540 0.608396 0.575985
Si Si2 0.675207 0.718213 0.732294
Si Si3 0.547435 0.180988 0.270416
Si Si4 0.746111 0.429425 0.887476
Si Si5 0.338065 0.098406 0.582176
Si Si6 0.335992 0.915606 0.143523
Si Si7 0.466012 0.060029 0.369742
O O1 0.044611 0.687691 0.654715
O O2 0.097467 0.560749 0.587288
O O3 0.031200 0.626444 0.463699
O O4 0.981198 0.544905 0.597367
O O5 0.610967 0.695413 0.697172
O O6 0.719347 0.654250 0.674145
O O7 0.673626 0.684280 0.844206
O O8 0.683617 0.827412 0.707471
O O9 0.500000 0.250000 0.308224
O O10 0.517726 0.085601 0.301107
O O11 0.701748 0.515035 0.884075
O O12 0.802961 0.484746 0.854279
O O13 0.750000 0.401270 0.000000
O O14 0.328524 0.117137 0.468842
O O15 0.402310 0.930794 0.165944
#
# Coordination Sequence:
#
# PCOD9530305 Si02
#       7
#    16  16  16  16  16  16  16
#     4   9  20  36  63  88 129 170 214 261 334 397
#     4  11  22  42  69  96 131 178 224 272 346 402
#     4  11  21  37  63  98 129 167 211 269 331 407
#     4  10  22  40  66  93 127 173 223 272 332 394
#     4   9  20  41  66  93 129 176 221 278 332 403
#     4  10  22  41  64  96 136 167 226 285 328 396
#     4  10  19  38  61  93 127 172 209 271 335 395
#
# _framework density 23.854596000000001
#
# number of rings (size 3 to 8) (size 9 to 14) (size 15 to 20)
#    0.000    2.000    1.429    1.714    0.000    6.286 
#    2.571    5.714    6.286    0.000    0.000    0.000 
#    0.000    0.000    0.000    0.000    0.000    0.000 
#
# Total GULP energy -312392.186338 kJ/mol
# GULP energy per Si atom -5578.431899 kJ/mol
# Density = 2.380030 g / cm^3
# Si number density = 23.854596 Si / 1000 Ang^3
#
#
#
# Elastic Constant Matrix: (Units=GPa)
#
#
# Indices 1 2 3 4 5 6 
#
# 1 164.3346 52.8107 40.1119 0.0000 0.0000 0.0000
# 2 52.8107 104.8438 55.7411 0.0000 0.0000 0.0000
# 3 40.1119 55.7411 116.4509 0.0000 0.0000 0.0000
# 4 0.0000 0.0000 0.0000 0.5515 0.0000 0.0000
# 5 0.0000 0.0000 0.0000 0.0000 15.4329 0.0000
# 6 0.0000 0.0000 0.0000 0.0000 0.0000 31.0931
#
#
#
# Elastic Compliance Matrix: (Units=1/GPa)
#
#
# Indices 1 2 3 4 5 6 
#
# 1 0.007349 -0.003160 -0.001019 0.000000 0.000000 0.000000
# 2 -0.003160 0.014153 -0.005686 0.000000 0.000000 0.000000
# 3 -0.001019 -0.005686 0.011660 0.000000 0.000000 0.000000
# 4 0.000000 0.000000 0.000000 1.813080 0.000000 0.000000
# 5 0.000000 0.000000 0.000000 0.000000 0.064797 0.000000
# 6 0.000000 0.000000 0.000000 0.000000 0.000000 0.032161
#
#
# Mechanical properties :
#
#
# Convention : Reuss Voigt Hill
#
# Bulk Modulus (GPa) = 74.44842 75.88408 75.16625
# Shear Modulus (GPa) = 2.54142 25.21321 13.87731
#
# Velocity S-wave (km/s) = 1.03329 3.25461 2.41456
# Velocity P-wave (km/s) = 5.71844 6.78259 6.27312
#
# Compressibility (1/GPa) = 0.01343212
#
# Stress axis : x y z
#
# Youngs Moduli (GPa) = 136.06512 70.65724 85.76414
#
# Poissons Ratio (x) = 0.22330 0.08738
# Poissons Ratio (y) = 0.43001 0.48765
# Poissons Ratio (z) = 0.13862 0.40175
#
# Static dielectric constant tensor:
#      x y z
#    x 1.919530 0.000000 0.000000 
#    y 0.000000 -1.120970 0.000000 
#    z 0.000000 0.000000 2.002020 
# 
# From -- ./inp_files/19416.got.cif
#   From: 2010.05.17/outbox.cif.g08.bks.cpg/sg73_10_cif.got.tgz:19416.got - 2010.06.03 17:35:07.
