data_PCOD9530714
_publ_section_title
;
Structure prediction by ZEFSAII (Michael W. Deem and Ramdas Pophale) SiO2 
 PCOD9530714
Probable space group: I B C A 
;
_chemical_formula_sum "Si O2"
_cell_formula_units_Z 104
_cell_length_a 20.993976
_cell_length_b 18.148037
_cell_length_c 13.649078
_cell_angle_alpha 90.000000
_cell_angle_beta 90.000000
_cell_angle_gamma 90.000000
_cell_volume 5200.291255
_symmetry_space_group_name_H-M "I B C A "
_symmetry_group_IT_number 73
_symmetry_cell_setting 'orthorhombic'
loop_
_space_group_symop_operation_xyz
x,y,z
-x,1/2-y,z
x,-y,1/2-z
1/2-x,y,-z
-x,-y,-z
x,1/2+y,-z
-x,y,1/2+z
1/2+x,-y,z
1/2+x,1/2+y,1/2+z
1/2-x,-y,1/2+z
1/2+x,1/2-y,-z
-x,1/2+y,1/2-z
1/2-x,1/2-y,1/2-z
1/2+x,y,1/2-z
1/2-x,1/2+y,z
x,1/2-y,1/2+z
loop_
_atom_site_type_symbol
_atom_site_label
_atom_site_fract_x
_atom_site_fract_y
_atom_site_fract_z
Si Si1 0.375737 0.000000 0.750000
Si Si2 0.572375 0.228239 0.420424
Si Si3 0.901618 0.645592 0.784401
Si Si4 0.132181 0.759994 0.610437
Si Si5 0.730617 0.564044 0.606349
Si Si6 0.164433 0.500000 0.250000
Si Si7 0.250000 0.211283 0.000000
Si Si8 0.050107 0.356048 0.775669
O O1 0.330131 0.968330 0.663751
O O2 0.421671 0.063595 0.709878
O O3 0.500000 0.250000 0.438530
O O4 0.602583 0.304843 0.381730
O O5 0.600011 0.197253 0.520071
O O6 0.574952 0.174085 0.328880
O O7 0.859725 0.687981 0.703482
O O8 0.879239 0.562650 0.798662
O O9 0.973655 0.648417 0.738479
O O10 0.199484 0.740691 0.560683
O O11 0.083280 0.696613 0.644037
O O12 0.750000 0.531478 0.500000
O O13 0.789860 0.543166 0.675277
O O14 0.723339 0.651436 0.580270
#
# Coordination Sequence:
#
# PCOD9530714 Si02
#       8
#     8  16  16  16  16   8   8  16
#     4  11  21  40  58  84 121 153 196 242 308 349
#     4   9  19  36  57  82 116 152 191 242 296 348
#     4  10  20  37  59  88 121 149 204 244 301 366
#     4  11  20  39  59  84 119 156 200 245 298 350
#     4   9  21  39  58  77 118 158 194 239 295 351
#     4  11  19  36  62  86 115 167 196 244 308 369
#     4  10  20  40  58  84 114 160 194 248 286 362
#     4  10  22  36  59  90 116 157 193 254 301 356
#
# _framework density 19.99888
#
# number of rings (size 3 to 8) (size 9 to 14) (size 15 to 20)
#    0.462    1.538    1.538    3.692    0.000    1.231 
#    6.923    2.308    0.000    8.308    0.000    0.000 
#    0.000    0.000    0.000    0.000    0.000    0.000 
#
# Total GULP energy -289523.669233 kJ/mol
# GULP energy per Si atom -5567.762870 kJ/mol
# Density = 1.995336 g / cm^3
# Si number density = 19.998880 Si / 1000 Ang^3
#
#
#
# Elastic Constant Matrix: (Units=GPa)
#
#
# Indices 1 2 3 4 5 6 
#
# 1 52.1389 0.7697 0.3623 0.0000 0.0000 0.0000
# 2 0.7697 53.8137 -20.8729 0.0000 0.0000 0.0000
# 3 0.3623 -20.8729 59.4571 0.0000 0.0000 0.0000
# 4 0.0000 0.0000 0.0000 7.7241 0.0000 0.0000
# 5 0.0000 0.0000 0.0000 0.0000 11.6514 0.0000
# 6 0.0000 0.0000 0.0000 0.0000 0.0000 13.2784
#
#
#
# Elastic Compliance Matrix: (Units=1/GPa)
#
#
# Indices 1 2 3 4 5 6 
#
# 1 0.019187 -0.000370 -0.000247 0.000000 0.000000 0.000000
# 2 -0.000370 0.021519 0.007557 0.000000 0.000000 0.000000
# 3 -0.000247 0.007557 0.019473 0.000000 0.000000 0.000000
# 4 0.000000 0.000000 0.000000 0.129465 0.000000 0.000000
# 5 0.000000 0.000000 0.000000 0.000000 0.085826 0.000000
# 6 0.000000 0.000000 0.000000 0.000000 0.000000 0.075310
#
#
# Mechanical properties :
#
#
# Convention : Reuss Voigt Hill
#
# Bulk Modulus (GPa) = 13.50291 13.99198 13.74745
# Shear Modulus (GPa) = 13.82790 18.87415 16.35102
#
# Velocity S-wave (km/s) = 2.63237 3.07540 2.86247
# Velocity P-wave (km/s) = 4.00070 4.42971 4.22066
#
# Compressibility (1/GPa) = 0.07405809
#
# Stress axis : x y z
#
# Youngs Moduli (GPa) = 52.11935 46.47069 51.35270
#
# Poissons Ratio (x) = 0.01720 0.01268
# Poissons Ratio (y) = 0.01929 -0.38805
# Poissons Ratio (z) = 0.01287 -0.35116
#
# Static dielectric constant tensor:
#      x y z
#    x 1.787860 0.000000 0.000000 
#    y 0.000000 1.712170 0.000000 
#    z 0.000000 0.000000 1.712210 
# 
# From -- ./inp_files/18849.got.cif
#   From: 2010.05.17/outbox.cif.g08.bks.cpg/sg73_10_cif.got.tgz:18849.got - 2010.06.03 17:35:07.
