data_PCOD9530948
_publ_section_title
;
Structure prediction by ZEFSAII (Michael W. Deem and Ramdas Pophale) SiO2 
 PCOD9530948
Probable space group: I B C A 
;
_chemical_formula_sum "Si O2"
_cell_formula_units_Z 120
_cell_length_a 16.578802
_cell_length_b 16.848187
_cell_length_c 22.773708
_cell_angle_alpha 90.000000
_cell_angle_beta 90.000000
_cell_angle_gamma 90.000000
_cell_volume 6361.214890
_symmetry_space_group_name_H-M "I B C A "
_symmetry_group_IT_number 73
_symmetry_cell_setting 'orthorhombic'
loop_
_space_group_symop_operation_xyz
x,y,z
-x,1/2-y,z
x,-y,1/2-z
1/2-x,y,-z
-x,-y,-z
x,1/2+y,-z
-x,y,1/2+z
1/2+x,-y,z
1/2+x,1/2+y,1/2+z
1/2-x,-y,1/2+z
1/2+x,1/2-y,-z
-x,1/2+y,1/2-z
1/2-x,1/2-y,1/2-z
1/2+x,y,1/2-z
1/2-x,1/2+y,z
x,1/2-y,1/2+z
loop_
_atom_site_type_symbol
_atom_site_label
_atom_site_fract_x
_atom_site_fract_y
_atom_site_fract_z
Si Si1 0.154455 0.888672 0.017918
Si Si2 0.466346 0.661274 0.578348
Si Si3 0.664628 0.381566 0.333394
Si Si4 0.198021 0.316012 0.284490
Si Si5 0.710799 0.025298 0.316225
Si Si6 0.196310 0.777150 0.108184
Si Si7 0.377884 0.055579 0.937073
Si Si8 0.750000 0.330979 0.000000
O O1 0.147340 0.850125 0.082088
O O2 0.122462 0.977571 0.022597
O O3 0.250000 0.889805 0.000000
O O4 0.100076 0.838786 0.973402
O O5 0.500000 0.750000 0.589926
O O6 0.417753 0.621150 0.631583
O O7 0.539736 0.603776 0.563312
O O8 0.647114 0.356863 0.266544
O O9 0.717807 0.462218 0.332369
O O10 0.721979 0.315532 0.364917
O O11 0.250000 0.250000 0.250000
O O12 0.253879 0.386103 0.309529
O O13 0.157521 0.272629 0.339305
O O14 0.649708 0.030405 0.371024
O O15 0.682081 0.000000 0.250000
O O16 0.212873 0.723328 0.051391
O O17 0.312650 0.113869 0.965970
#
# Coordination Sequence:
#
# PCOD9530948 Si02
#       8
#    16  16  16  16  16  16  16   8
#     4  12  22  41  64  90 132 172 215 264 325 396
#     4  12  26  42  62  94 134 171 217 275 335 386
#     4  10  20  40  62  89 126 167 212 273 322 384
#     4   9  20  33  63  97 122 156 220 274 316 372
#     4  10  20  40  67  96 126 168 224 266 318 392
#     4  11  18  34  61  93 122 162 216 261 312 376
#     4  12  24  40  63  96 129 169 218 263 326 395
#     4  12  22  34  64  96 126 170 214 264 318 404
#
# _framework density 18.864319999999999
#
# number of rings (size 3 to 8) (size 9 to 14) (size 15 to 20)
#    0.000    1.067    5.333    2.000    1.867    0.000 
#    0.000    2.000    0.000    2.400    0.000    0.000 
#    0.000    0.000    0.000    0.000    0.000    0.000 
#
# Total GULP energy -334559.318301 kJ/mol
# GULP energy per Si atom -5575.988638 kJ/mol
# Density = 1.882138 g / cm^3
# Si number density = 18.864320 Si / 1000 Ang^3
#
#
#
# Elastic Constant Matrix: (Units=GPa)
#
#
# Indices 1 2 3 4 5 6 
#
# 1 72.9028 14.3379 25.9977 0.0000 0.0000 0.0000
# 2 14.3379 88.6265 20.2995 0.0000 0.0000 0.0000
# 3 25.9977 20.2995 97.3536 0.0000 0.0000 0.0000
# 4 0.0000 0.0000 0.0000 38.8198 0.0000 0.0000
# 5 0.0000 0.0000 0.0000 0.0000 17.4275 0.0000
# 6 0.0000 0.0000 0.0000 0.0000 0.0000 6.8786
#
#
#
# Elastic Compliance Matrix: (Units=1/GPa)
#
#
# Indices 1 2 3 4 5 6 
#
# 1 0.015380 -0.001625 -0.003768 0.000000 0.000000 0.000000
# 2 -0.001625 0.012021 -0.002073 0.000000 0.000000 0.000000
# 3 -0.003768 -0.002073 0.011710 0.000000 0.000000 0.000000
# 4 0.000000 0.000000 0.000000 0.025760 0.000000 0.000000
# 5 0.000000 0.000000 0.000000 0.000000 0.057381 0.000000
# 6 0.000000 0.000000 0.000000 0.000000 0.000000 0.145379
#
#
# Mechanical properties :
#
#
# Convention : Reuss Voigt Hill
#
# Bulk Modulus (GPa) = 41.35726 42.23922 41.79824
# Shear Modulus (GPa) = 17.20440 25.84169 21.52305
#
# Velocity S-wave (km/s) = 3.02322 3.70519 3.38144
# Velocity P-wave (km/s) = 5.84445 6.38312 6.11972
#
# Compressibility (1/GPa) = 0.02417955
#
# Stress axis : x y z
#
# Youngs Moduli (GPa) = 65.01805 83.18833 85.39482
#
# Poissons Ratio (x) = 0.13519 0.32180
# Poissons Ratio (y) = 0.10566 0.17698
# Poissons Ratio (z) = 0.24501 0.17241
#
# Static dielectric constant tensor:
#      x y z
#    x 1.626610 0.000000 0.000000 
#    y 0.000000 1.682810 0.000000 
#    z 0.000000 0.000000 1.555750 
# 
# From -- ./inp_files/29657.got.cif
#   From: 2010.05.17/outbox.cif.g08.bks.cpg/sg73_15_cif.got.tgz:29657.got - 2010.06.03 17:35:07.
