data_PCOD9530417
_publ_section_title
;
Structure prediction by ZEFSAII (Michael W. Deem and Ramdas Pophale) SiO2 
 PCOD9530417
Probable space group: I B C A 
;
_chemical_formula_sum "Si O2"
_cell_formula_units_Z 112
_cell_length_a 24.078602
_cell_length_b 11.120541
_cell_length_c 19.474417
_cell_angle_alpha 90.000000
_cell_angle_beta 90.000000
_cell_angle_gamma 90.000000
_cell_volume 5214.607790
_symmetry_space_group_name_H-M "I B C A "
_symmetry_group_IT_number 73
_symmetry_cell_setting 'orthorhombic'
loop_
_space_group_symop_operation_xyz
x,y,z
-x,1/2-y,z
x,-y,1/2-z
1/2-x,y,-z
-x,-y,-z
x,1/2+y,-z
-x,y,1/2+z
1/2+x,-y,z
1/2+x,1/2+y,1/2+z
1/2-x,-y,1/2+z
1/2+x,1/2-y,-z
-x,1/2+y,1/2-z
1/2-x,1/2-y,1/2-z
1/2+x,y,1/2-z
1/2-x,1/2+y,z
x,1/2-y,1/2+z
loop_
_atom_site_type_symbol
_atom_site_label
_atom_site_fract_x
_atom_site_fract_y
_atom_site_fract_z
Si Si1 0.527172 0.620051 0.797339
Si Si2 0.190800 0.445366 0.962563
Si Si3 0.638253 0.760185 0.301505
Si Si4 0.817035 0.805391 0.991252
Si Si5 0.264798 0.074820 0.681172
Si Si6 0.647958 0.186360 0.851189
Si Si7 0.418834 0.972473 0.332830
O O1 0.500000 0.750000 0.769838
O O2 0.533816 0.500000 0.750000
O O3 0.588317 0.652157 0.823797
O O4 0.479307 0.578664 0.850080
O O5 0.161615 0.557850 0.999747
O O6 0.207085 0.483349 0.885575
O O7 0.250000 0.426994 0.000000
O O8 0.164898 0.311602 0.964604
O O9 0.700568 0.802357 0.312252
O O10 0.631382 0.753015 0.218673
O O11 0.626070 0.633177 0.336445
O O12 0.833882 0.765452 0.914778
O O13 0.750000 0.817397 0.000000
O O14 0.201116 0.104694 0.668321
O O15 0.272121 0.000000 0.750000
O O16 0.599062 0.093770 0.868956
O O17 0.420220 0.000000 0.250000
#
# Coordination Sequence:
#
# PCOD9530417 Si02
#       7
#    16  16  16  16  16  16  16
#     4   9  17  33  53  76 112 154 197 244 300 366
#     4  10  21  39  55  75 113 166 213 254 299 368
#     4  10  20  31  50  82 119 156 196 245 304 364
#     4  10  20  37  56  75 108 160 217 256 298 366
#     4  12  22  33  51  85 123 162 196 251 313 377
#     4  11  20  35  52  83 120 164 201 247 307 384
#     4   8  17  32  51  75 111 157 199 242 303 367
#
# _framework density 21.478124999999999
#
# number of rings (size 3 to 8) (size 9 to 14) (size 15 to 20)
#    0.000    2.000    2.857    3.857    0.000    2.286 
#    0.000    0.000    0.000    0.000    0.000    1.000 
#    0.000   21.714    0.000    4.286    0.000    0.000 
#
# Total GULP energy -311988.955256 kJ/mol
# GULP energy per Si atom -5571.231344 kJ/mol
# Density = 2.142924 g / cm^3
# Si number density = 21.478125 Si / 1000 Ang^3
#
#
#
# Elastic Constant Matrix: (Units=GPa)
#
#
# Indices 1 2 3 4 5 6 
#
# 1 66.8628 16.2623 -5.0133 0.0000 0.0000 0.0000
# 2 16.2623 107.4980 -0.0756 0.0000 0.0000 0.0000
# 3 -5.0133 -0.0756 57.9493 0.0000 0.0000 0.0000
# 4 0.0000 0.0000 0.0000 13.4402 0.0000 0.0000
# 5 0.0000 0.0000 0.0000 0.0000 4.5600 0.0000
# 6 0.0000 0.0000 0.0000 0.0000 0.0000 -1.0955
#
#
#
# Elastic Compliance Matrix: (Units=1/GPa)
#
#
# Indices 1 2 3 4 5 6 
#
# 1 0.015632 -0.002364 0.001349 0.000000 0.000000 0.000000
# 2 -0.002364 0.009660 -0.000192 0.000000 0.000000 0.000000
# 3 0.001349 -0.000192 0.017373 0.000000 0.000000 0.000000
# 4 0.000000 0.000000 0.000000 0.074403 0.000000 0.000000
# 5 0.000000 0.000000 0.000000 0.000000 0.219300 0.000000
# 6 0.000000 0.000000 0.000000 0.000000 0.000000 -0.912818
#
#
# Mechanical properties :
#
#
# Convention : Reuss Voigt Hill
#
# Bulk Modulus (GPa) = 24.84346 28.29520 26.56933
# Shear Modulus (GPa) = -8.91871 18.12338 4.60233
#
# Velocity S-wave (km/s) = -2.03997 2.90799 1.46542
# Velocity P-wave (km/s) = 2.45832 4.94750 3.90647
#
# Compressibility (1/GPa) = 0.04025204
#
# Stress axis : x y z
#
# Youngs Moduli (GPa) = 63.97086 103.51995 57.56073
#
# Poissons Ratio (x) = 0.24471 -0.07767
# Poissons Ratio (y) = 0.15122 0.01105
# Poissons Ratio (z) = -0.08631 0.01986
#
# Static dielectric constant tensor:
#      x y z
#    x 1.756400 0.000000 0.000000 
#    y 0.000000 1.876070 0.000000 
#    z 0.000000 0.000000 1.853450 
# 
# From -- ./inp_files/27312.got.cif
#   From: 2010.05.17/outbox.cif.g08.bks.cpg/sg73_14_cif.got.tgz:27312.got - 2010.06.03 17:35:07.
