data_PCOD9530351
_publ_section_title
;
Structure prediction by ZEFSAII (Michael W. Deem and Ramdas Pophale) SiO2 
 PCOD9530351
Probable space group: I B C A 
;
_chemical_formula_sum "Si O2"
_cell_formula_units_Z 88
_cell_length_a 9.497377
_cell_length_b 26.909090
_cell_length_c 13.681447
_cell_angle_alpha 90.000000
_cell_angle_beta 90.000000
_cell_angle_gamma 90.000000
_cell_volume 3496.509571
_symmetry_space_group_name_H-M "I B C A "
_symmetry_group_IT_number 73
_symmetry_cell_setting 'orthorhombic'
loop_
_space_group_symop_operation_xyz
x,y,z
-x,1/2-y,z
x,-y,1/2-z
1/2-x,y,-z
-x,-y,-z
x,1/2+y,-z
-x,y,1/2+z
1/2+x,-y,z
1/2+x,1/2+y,1/2+z
1/2-x,-y,1/2+z
1/2+x,1/2-y,-z
-x,1/2+y,1/2-z
1/2-x,1/2-y,1/2-z
1/2+x,y,1/2-z
1/2-x,1/2+y,z
x,1/2-y,1/2+z
loop_
_atom_site_type_symbol
_atom_site_label
_atom_site_fract_x
_atom_site_fract_y
_atom_site_fract_z
Si Si1 0.427208 0.697278 0.225984
Si Si2 0.510948 0.395037 0.164417
Si Si3 0.526780 0.137608 0.455380
Si Si4 0.381833 0.500000 0.750000
Si Si5 0.712854 0.071581 0.889351
Si Si6 0.858451 0.780427 0.570505
O O1 0.500000 0.750000 0.200752
O O2 0.532739 0.656764 0.277694
O O3 0.386438 0.669262 0.124810
O O4 0.319824 0.708180 0.316871
O O5 0.549941 0.448456 0.210527
O O6 0.340141 0.397841 0.157357
O O7 0.579988 0.387731 0.056177
O O8 0.439830 0.096879 0.394364
O O9 0.406452 0.173715 0.501703
O O10 0.289830 0.481002 0.838567
O O11 0.750000 0.064367 0.000000
O O12 0.750000 0.753123 0.500000
O O13 0.000000 0.750000 0.582360
#
# Coordination Sequence:
#
# PCOD9530351 Si02
#       6
#    16  16  16   8  16  16
#     4  10  20  39  68 102 136 184 237 289 359 431
#     4  10  22  40  66 101 132 181 231 291 353 436
#     4  10  19  39  65  95 135 180 230 285 359 429
#     4  12  22  42  68  94 140 166 236 288 360 426
#     4  10  22  40  65  95 130 180 224 279 362 428
#     4  10  21  40  67  96 138 188 242 298 362 434
#
# _framework density 25.167957000000001
#
# number of rings (size 3 to 8) (size 9 to 14) (size 15 to 20)
#    0.000    1.818    1.818    3.818    0.000    3.636 
#    3.273   16.364    0.000    1.091    0.000    0.000 
#    0.000    0.000    0.000    0.000    0.000    0.000 
#
# Total GULP energy -245187.992398 kJ/mol
# GULP energy per Si atom -5572.454373 kJ/mol
# Density = 2.511067 g / cm^3
# Si number density = 25.167957 Si / 1000 Ang^3
#
#
#
# Elastic Constant Matrix: (Units=GPa)
#
#
# Indices 1 2 3 4 5 6 
#
# 1 33.1235 26.4015 25.5099 0.0000 0.0000 0.0000
# 2 26.4015 157.3138 76.2597 0.0000 0.0000 0.0000
# 3 25.5099 76.2597 148.1040 0.0000 -0.0001 -0.0001
# 4 0.0000 0.0000 0.0000 75.5811 0.0000 0.0000
# 5 0.0000 0.0000 -0.0001 0.0000 9.8915 -0.0001
# 6 0.0000 0.0000 -0.0001 0.0000 -0.0001 15.9284
#
#
#
# Elastic Compliance Matrix: (Units=1/GPa)
#
#
# Indices 1 2 3 4 5 6 
#
# 1 0.036712 -0.004126 -0.004199 0.000000 0.000000 0.000000
# 2 -0.004126 0.008935 -0.003890 0.000000 0.000000 0.000000
# 3 -0.004199 -0.003890 0.009478 0.000000 0.000000 0.000000
# 4 0.000000 0.000000 0.000000 0.013231 0.000000 0.000000
# 5 0.000000 0.000000 0.000000 0.000000 0.101097 0.000000
# 6 0.000000 0.000000 0.000000 0.000000 0.000000 0.062781
#
#
# Mechanical properties :
#
#
# Convention : Reuss Voigt Hill
#
# Bulk Modulus (GPa) = 32.57767 66.09817 49.33792
# Shear Modulus (GPa) = 18.73391 34.30488 26.51940
#
# Velocity S-wave (km/s) = 2.73125 3.69594 3.24959
# Velocity P-wave (km/s) = 4.78733 6.67331 5.80739
#
# Compressibility (1/GPa) = 0.03069588
#
# Stress axis : x y z
#
# Youngs Moduli (GPa) = 27.23873 111.92127 105.50471
#
# Poissons Ratio (x) = 0.46176 0.44302
# Poissons Ratio (y) = 0.11238 0.41041
# Poissons Ratio (z) = 0.11438 0.43537
#
# Static dielectric constant tensor:
#      x y z
#    x 2.143330 0.000000 0.000000 
#    y 0.000000 1.984170 0.000000 
#    z 0.000000 0.000000 2.228210 
# 
# From -- ./inp_files/16119.got.cif
#   From: 2010.05.17/outbox.cif.g08.bks.cpg/sg73_9_cif.got.tgz:16119.got - 2010.06.03 17:35:07.
