data_PCOD9530470
_publ_section_title
;
Structure prediction by ZEFSAII (Michael W. Deem and Ramdas Pophale) SiO2 
 PCOD9530470
Probable space group: I B C A 
;
_chemical_formula_sum "Si O2"
_cell_formula_units_Z 120
_cell_length_a 28.642367
_cell_length_b 26.405323
_cell_length_c 8.871149
_cell_angle_alpha 90.000000
_cell_angle_beta 90.000000
_cell_angle_gamma 90.000000
_cell_volume 6709.347147
_symmetry_space_group_name_H-M "I B C A "
_symmetry_group_IT_number 73
_symmetry_cell_setting 'orthorhombic'
loop_
_space_group_symop_operation_xyz
x,y,z
-x,1/2-y,z
x,-y,1/2-z
1/2-x,y,-z
-x,-y,-z
x,1/2+y,-z
-x,y,1/2+z
1/2+x,-y,z
1/2+x,1/2+y,1/2+z
1/2-x,-y,1/2+z
1/2+x,1/2-y,-z
-x,1/2+y,1/2-z
1/2-x,1/2-y,1/2-z
1/2+x,y,1/2-z
1/2-x,1/2+y,z
x,1/2-y,1/2+z
loop_
_atom_site_type_symbol
_atom_site_label
_atom_site_fract_x
_atom_site_fract_y
_atom_site_fract_z
Si Si1 0.250000 0.773710 0.000000
Si Si2 0.060256 0.045102 0.978655
Si Si3 0.119470 0.856969 0.467394
Si Si4 0.460433 0.198110 0.778592
Si Si5 0.189963 0.297250 0.721544
Si Si6 0.550251 0.830291 0.538412
Si Si7 0.107954 0.718817 0.236760
Si Si8 0.460250 0.441781 0.873733
O O1 0.221112 0.805218 0.127361
O O2 0.281760 0.735867 0.099279
O O3 0.045228 0.052342 0.804819
O O4 0.066994 0.984209 0.972803
O O5 0.101267 0.085137 0.016945
O O6 0.014888 0.055538 0.081107
O O7 0.079246 0.825802 0.381587
O O8 0.165626 0.844219 0.367487
O O9 0.119900 0.828106 0.628870
O O10 0.506485 0.195322 0.877461
O O11 0.465208 0.163874 0.632471
O O12 0.439261 0.249025 0.700597
O O13 0.148943 0.259040 0.771005
O O14 0.595852 0.799573 0.593275
O O15 0.558101 0.886427 0.594392
#
# Coordination Sequence:
#
# PCOD9530470 Si02
#       8
#     8  16  16  16  16  16  16  16
#     4  10  20  38  58  80 108 148 176 212 276 366
#     4  10  20  35  51  70  98 144 195 243 274 314
#     4  11  20  36  52  75 106 143 185 237 278 327
#     4  11  23  32  47  70 104 150 190 228 266 319
#     4  10  21  36  57  80 110 146 176 219 278 341
#     4  12  21  34  48  70 103 147 193 232 275 316
#     4  11  22  35  49  74 110 146 180 227 268 325
#     4  10  20  34  51  69  97 145 199 234 278 309
#
# _framework density 17.885496
#
# number of rings (size 3 to 8) (size 9 to 14) (size 15 to 20)
#    0.000    1.333    4.000    3.600    1.867    1.067 
#    0.000    0.000    0.000    0.000    0.000    0.000 
#    0.000    1.067   18.133    0.400    0.000    0.000 
#
# Total GULP energy -334070.624013 kJ/mol
# GULP energy per Si atom -5567.843734 kJ/mol
# Density = 1.784479 g / cm^3
# Si number density = 17.885496 Si / 1000 Ang^3
#
#
#
# Elastic Constant Matrix: (Units=GPa)
#
#
# Indices 1 2 3 4 5 6 
#
# 1 58.5425 22.5787 25.3357 0.0000 0.0000 0.0000
# 2 22.5787 82.3183 1.1558 0.0000 0.0000 0.0000
# 3 25.3357 1.1558 76.6029 0.0000 0.0000 0.0000
# 4 0.0000 0.0000 0.0000 24.2397 0.0000 0.0000
# 5 0.0000 0.0000 0.0000 0.0000 37.9436 0.0000
# 6 0.0000 0.0000 0.0000 0.0000 0.0000 29.7096
#
#
#
# Elastic Compliance Matrix: (Units=1/GPa)
#
#
# Indices 1 2 3 4 5 6 
#
# 1 0.022636 -0.006105 -0.007395 0.000000 0.000000 0.000000
# 2 -0.006105 0.013797 0.001811 0.000000 0.000000 0.000000
# 3 -0.007395 0.001811 0.015473 0.000000 0.000000 0.000000
# 4 0.000000 0.000000 0.000000 0.041255 0.000000 0.000000
# 5 0.000000 0.000000 0.000000 0.000000 0.026355 0.000000
# 6 0.000000 0.000000 0.000000 0.000000 0.000000 0.033659
#
#
# Mechanical properties :
#
#
# Convention : Reuss Voigt Hill
#
# Bulk Modulus (GPa) = 35.05226 35.06713 35.05970
# Shear Modulus (GPa) = 26.87276 29.60481 28.23879
#
# Velocity S-wave (km/s) = 3.88040 4.07288 3.97780
# Velocity P-wave (km/s) = 6.30217 6.46273 6.38295
#
# Compressibility (1/GPa) = 0.02852883
#
# Stress axis : x y z
#
# Youngs Moduli (GPa) = 44.17655 72.47921 64.62980
#
# Poissons Ratio (x) = 0.44249 0.47792
# Poissons Ratio (y) = 0.26970 -0.11705
# Poissons Ratio (z) = 0.32667 -0.13126
#
# Static dielectric constant tensor:
#      x y z
#    x 1.744020 0.000000 0.000000 
#    y 0.000000 1.719200 0.000000 
#    z 0.000000 0.000000 1.719940 
# 
# From -- ./inp_files/8601.got.cif
#   From: 2010.05.17/outbox.cif.g08.bks.cpg/sg73_5_cif.got.tgz:8601.got - 2010.06.03 17:35:07.
