data_PCOD9530694
_publ_section_title
;
Structure prediction by ZEFSAII (Michael W. Deem and Ramdas Pophale) SiO2 
 PCOD9530694
Probable space group: I B C A 
;
_chemical_formula_sum "Si O2"
_cell_formula_units_Z 80
_cell_length_a 17.942938
_cell_length_b 11.905081
_cell_length_c 13.676735
_cell_angle_alpha 90.000000
_cell_angle_beta 90.000000
_cell_angle_gamma 90.000000
_cell_volume 2921.516498
_symmetry_space_group_name_H-M "I B C A "
_symmetry_group_IT_number 73
_symmetry_cell_setting 'orthorhombic'
loop_
_space_group_symop_operation_xyz
x,y,z
-x,1/2-y,z
x,-y,1/2-z
1/2-x,y,-z
-x,-y,-z
x,1/2+y,-z
-x,y,1/2+z
1/2+x,-y,z
1/2+x,1/2+y,1/2+z
1/2-x,-y,1/2+z
1/2+x,1/2-y,-z
-x,1/2+y,1/2-z
1/2-x,1/2-y,1/2-z
1/2+x,y,1/2-z
1/2-x,1/2+y,z
x,1/2-y,1/2+z
loop_
_atom_site_type_symbol
_atom_site_label
_atom_site_fract_x
_atom_site_fract_y
_atom_site_fract_z
Si Si1 0.467656 0.639844 0.813038
Si Si2 0.367465 0.717184 0.162523
Si Si3 0.750000 0.733435 0.500000
Si Si4 0.166976 0.027107 0.912593
Si Si5 0.433866 0.008238 0.923617
Si Si6 0.717518 0.000000 0.250000
O O1 0.500000 0.750000 0.868187
O O2 0.580104 0.801243 0.724869
O O3 0.406920 0.553337 0.852768
O O4 0.542063 0.564493 0.830786
O O5 0.423767 0.637711 0.103041
O O6 0.323769 0.618590 0.224207
O O7 0.308961 0.772575 0.085366
O O8 0.696620 0.651148 0.438738
O O9 0.229545 0.979073 0.842665
O O10 0.141076 0.974735 0.016581
O O11 0.500000 0.000000 0.000000
#
# Coordination Sequence:
#
# PCOD9530694 Si02
#       6
#    16  16   8  16  16   8
#     4  11  23  38  64 101 137 179 234 292 362 444
#     4  10  20  39  66 100 140 181 240 310 366 442
#     4   8  18  38  62  88 132 182 228 288 360 424
#     4   9  20  40  64  93 131 180 237 295 360 433
#     4   9  20  42  67  95 140 189 232 291 367 441
#     4  10  20  36  66  98 134 184 238 300 370 430
#
# _framework density 27.383040000000001
#
# number of rings (size 3 to 8) (size 9 to 14) (size 15 to 20)
#    0.000    2.400    0.000    1.200    0.000    6.400 
#    0.000   17.000    0.000    4.800    0.000    0.000 
#    0.000    9.600    0.000    0.000    0.000    0.600 
#
# Total GULP energy -222670.892289 kJ/mol
# GULP energy per Si atom -5566.772307 kJ/mol
# Density = 2.732071 g / cm^3
# Si number density = 27.383040 Si / 1000 Ang^3
#
#
#
# Elastic Constant Matrix: (Units=GPa)
#
#
# Indices 1 2 3 4 5 6 
#
# 1 152.1603 42.7814 107.9473 0.0000 0.0000 0.0000
# 2 42.7814 127.2367 80.6893 0.0000 0.0000 0.0000
# 3 107.9473 80.6893 164.3440 0.0000 0.0000 0.0000
# 4 0.0000 0.0000 0.0000 60.3322 0.0000 0.0000
# 5 0.0000 0.0000 0.0000 0.0000 85.6133 0.0000
# 6 0.0000 0.0000 0.0000 0.0000 0.0000 -1.5636
#
#
#
# Elastic Compliance Matrix: (Units=1/GPa)
#
#
# Indices 1 2 3 4 5 6 
#
# 1 0.012490 0.001457 -0.008919 0.000000 0.000000 0.000000
# 2 0.001457 0.011583 -0.006644 0.000000 0.000000 0.000000
# 3 -0.008919 -0.006644 0.015205 0.000000 0.000000 0.000000
# 4 0.000000 0.000000 0.000000 0.016575 0.000000 0.000000
# 5 0.000000 0.000000 0.000000 0.000000 0.011680 0.000000
# 6 0.000000 0.000000 0.000000 0.000000 0.000000 -0.639555
#
#
# Mechanical properties :
#
#
# Convention : Reuss Voigt Hill
#
# Bulk Modulus (GPa) = 90.37001 100.73078 95.55040
# Shear Modulus (GPa) = -9.25718 43.03125 16.88704
#
# Velocity S-wave (km/s) = -1.84064 3.96846 2.48603
# Velocity P-wave (km/s) = 5.34383 7.60683 6.57345
#
# Compressibility (1/GPa) = 0.01106562
#
# Stress axis : x y z
#
# Youngs Moduli (GPa) = 80.06477 86.33497 65.76785
#
# Poissons Ratio (x) = -0.12575 0.58658
# Poissons Ratio (y) = -0.11662 0.43694
# Poissons Ratio (z) = 0.71410 0.57358
#
# Static dielectric constant tensor:
#      x y z
#    x 0.186980 0.000000 0.000000 
#    y 0.000000 1.468110 0.000000 
#    z 0.000000 0.000000 2.665470 
# 
# From -- ./inp_files/17885.got.cif
#   From: 2010.05.17/outbox.cif.g08.bks.cpg/sg73_9_cif.got.tgz:17885.got - 2010.06.03 17:35:07.
