data_PCOD9530064
_publ_section_title
;
Structure prediction by ZEFSAII (Michael W. Deem and Ramdas Pophale) SiO2 
 PCOD9530064
Probable space group: I B C A 
;
_chemical_formula_sum "Si O2"
_cell_formula_units_Z 112
_cell_length_a 26.928805
_cell_length_b 32.244188
_cell_length_c 5.472324
_cell_angle_alpha 90.000000
_cell_angle_beta 90.000000
_cell_angle_gamma 90.000000
_cell_volume 4751.604980
_symmetry_space_group_name_H-M "I B C A "
_symmetry_group_IT_number 73
_symmetry_cell_setting 'orthorhombic'
loop_
_space_group_symop_operation_xyz
x,y,z
-x,1/2-y,z
x,-y,1/2-z
1/2-x,y,-z
-x,-y,-z
x,1/2+y,-z
-x,y,1/2+z
1/2+x,-y,z
1/2+x,1/2+y,1/2+z
1/2-x,-y,1/2+z
1/2+x,1/2-y,-z
-x,1/2+y,1/2-z
1/2-x,1/2-y,1/2-z
1/2+x,y,1/2-z
1/2-x,1/2+y,z
x,1/2-y,1/2+z
loop_
_atom_site_type_symbol
_atom_site_label
_atom_site_fract_x
_atom_site_fract_y
_atom_site_fract_z
Si Si1 0.429519 0.270898 0.342897
Si Si2 0.467587 0.636562 0.200606
Si Si3 0.531621 0.954141 0.277865
Si Si4 0.693679 0.640299 0.493866
Si Si5 0.192841 0.485411 0.000328
Si Si6 0.187876 0.733938 0.895665
Si Si7 0.807322 0.887309 0.503524
O O1 0.448198 0.255295 0.608381
O O2 0.438050 0.319867 0.297837
O O3 0.370979 0.261814 0.363317
O O4 0.504237 0.637406 0.437557
O O5 0.442253 0.590692 0.232760
O O6 0.508936 0.953680 0.553945
O O7 0.555851 0.000000 0.250000
O O8 0.750000 0.621274 0.500000
O O9 0.697650 0.689122 0.493002
O O10 0.669233 0.627693 0.746673
O O11 0.667794 0.626654 0.246480
O O12 0.168407 0.500000 0.250000
O O13 0.169473 0.500000 0.750000
O O14 0.250000 0.502758 0.000000
O O15 0.195394 0.436380 0.998339
O O16 0.205525 0.736696 0.616456
O O17 0.750000 0.870553 0.500000
#
# Coordination Sequence:
#
# PCOD9530064 Si02
#       7
#    16  16  16  16  16  16  16
#     4  10  21  35  49  68  98 131 162 200 241 285
#     4  10  19  30  48  74 100 129 165 199 235 282
#     4   8  14  25  41  64  95 124 151 191 235 270
#     4  10  19  31  48  68  90 116 150 197 246 289
#     4   9  15  23  37  58  86 118 146 173 214 272
#     4  10  21  36  51  67  90 121 157 195 239 291
#     4   9  17  28  42  65  93 115 142 184 233 280
#
# _framework density 23.570983999999999
#
# number of rings (size 3 to 8) (size 9 to 14) (size 15 to 20)
#    0.000    2.571    0.000    2.571    0.000    5.714 
#    0.000    0.000    0.000    0.000    0.000    3.000 
#    0.000    9.143    0.000    0.000    0.000    0.000 
#
# Total GULP energy -312146.140352 kJ/mol
# GULP energy per Si atom -5574.038221 kJ/mol
# Density = 2.351734 g / cm^3
# Si number density = 23.570984 Si / 1000 Ang^3
#
#
#
# Elastic Constant Matrix: (Units=GPa)
#
#
# Indices 1 2 3 4 5 6 
#
# 1 46.1255 -17.8211 17.2293 0.0000 0.0000 0.0000
# 2 -17.8211 115.9082 46.6715 0.0000 0.0000 0.0000
# 3 17.2293 46.6715 211.6421 0.0000 0.0000 0.0000
# 4 0.0000 0.0000 0.0000 54.5448 0.0000 0.0000
# 5 0.0000 0.0000 0.0000 0.0000 -39.4523 0.0000
# 6 0.0000 0.0000 0.0000 0.0000 0.0000 17.3559
#
#
#
# Elastic Compliance Matrix: (Units=1/GPa)
#
#
# Indices 1 2 3 4 5 6 
#
# 1 0.024816 0.005080 -0.003140 0.000000 0.000000 0.000000
# 2 0.005080 0.010508 -0.002731 0.000000 0.000000 0.000000
# 3 -0.003140 -0.002731 0.005583 0.000000 0.000000 0.000000
# 4 0.000000 0.000000 0.000000 0.018334 0.000000 0.000000
# 5 0.000000 0.000000 0.000000 0.000000 -0.025347 0.000000
# 6 0.000000 0.000000 0.000000 0.000000 0.000000 0.057617
#
#
# Mechanical properties :
#
#
# Convention : Reuss Voigt Hill
#
# Bulk Modulus (GPa) = 25.42963 51.75947 38.59455
# Shear Modulus (GPa) = 47.08049 28.32940 37.70495
#
# Velocity S-wave (km/s) = 4.47407 3.47057 4.00388
# Velocity P-wave (km/s) = 6.12386 6.16980 6.14687
#
# Compressibility (1/GPa) = 0.03932421
#
# Stress axis : x y z
#
# Youngs Moduli (GPa) = 40.29698 95.16404 179.12097
#
# Poissons Ratio (x) = -0.48343 0.56252
# Poissons Ratio (y) = -0.20471 0.48915
# Poissons Ratio (z) = 0.12655 0.25988
#
# Static dielectric constant tensor:
#      x y z
#    x 1.838570 0.000000 0.000000 
#    y 0.000000 1.982460 0.000000 
#    z 0.000000 0.000000 1.916990 
# 
# From -- ./inp_files/3253.got.cif
#   From: 2010.05.17/outbox.cif.g08.bks.cpg/sg73_2_cif.got.tgz:3253.got - 2010.06.03 17:35:07.
