data_PCOD9530431
_publ_section_title
;
Structure prediction by ZEFSAII (Michael W. Deem and Ramdas Pophale) SiO2 
 PCOD9530431
Probable space group: I B C A 
;
_chemical_formula_sum "Si O2"
_cell_formula_units_Z 88
_cell_length_a 5.266654
_cell_length_b 31.846276
_cell_length_c 22.280854
_cell_angle_alpha 90.000000
_cell_angle_beta 90.000000
_cell_angle_gamma 90.000000
_cell_volume 3737.018736
_symmetry_space_group_name_H-M "I B C A "
_symmetry_group_IT_number 73
_symmetry_cell_setting 'orthorhombic'
loop_
_space_group_symop_operation_xyz
x,y,z
-x,1/2-y,z
x,-y,1/2-z
1/2-x,y,-z
-x,-y,-z
x,1/2+y,-z
-x,y,1/2+z
1/2+x,-y,z
1/2+x,1/2+y,1/2+z
1/2-x,-y,1/2+z
1/2+x,1/2-y,-z
-x,1/2+y,1/2-z
1/2-x,1/2-y,1/2-z
1/2+x,y,1/2-z
1/2-x,1/2+y,z
x,1/2-y,1/2+z
loop_
_atom_site_type_symbol
_atom_site_label
_atom_site_fract_x
_atom_site_fract_y
_atom_site_fract_z
Si Si1 0.500000 0.250000 0.792193
Si Si2 0.049529 0.203815 0.086300
Si Si3 0.999890 0.440894 0.463445
Si Si4 0.008332 0.621755 0.714571
Si Si5 0.052142 0.153248 0.420802
Si Si6 0.997342 0.473097 0.827801
O O1 0.750000 0.250000 0.750000
O O2 0.477508 0.212043 0.841180
O O3 0.323697 0.185865 0.070144
O O4 0.000000 0.250000 0.060155
O O5 0.827341 0.172576 0.066947
O O6 0.750000 0.452396 0.500000
O O7 0.995231 0.390527 0.453887
O O8 0.999907 0.461614 0.398327
O O9 0.250000 0.451824 0.500000
O O10 0.241645 0.633756 0.756615
O O11 0.042868 0.641859 0.649753
O O12 0.010528 0.571271 0.705905
O O13 0.239913 0.501900 0.815447
#
# Coordination Sequence:
#
# PCOD9530431 Si02
#       6
#     8  16  16  16  16  16
#     4  10  20  32  50  84 116 148 198 238 288 348
#     4  10  22  36  59  84 118 163 191 251 307 349
#     4  11  24  42  66  92 119 155 200 251 309 365
#     4  11  24  39  59  88 122 166 207 239 288 354
#     4  11  22  41  61  87 121 162 203 249 302 361
#     4  11  24  41  63  92 124 156 198 248 299 359
#
# _framework density 23.548185
#
# number of rings (size 3 to 8) (size 9 to 14) (size 15 to 20)
#    0.545    0.727    0.000    6.000    0.000   14.545 
#    0.000    0.000    0.000   10.909    0.000    0.000 
#    0.000    0.000    0.000    0.000    0.000    0.000 
#
# Total GULP energy -246745.612979 kJ/mol
# GULP energy per Si atom -5607.854840 kJ/mol
# Density = 2.349459 g / cm^3
# Si number density = 23.548185 Si / 1000 Ang^3
#
#
#
# Elastic Constant Matrix: (Units=GPa)
#
#
# Indices 1 2 3 4 5 6 
#
# 1 143.8477 7.2658 17.8133 0.0000 0.0000 0.0000
# 2 7.2658 80.8976 5.1649 0.0000 0.0000 0.0000
# 3 17.8133 5.1649 99.6484 0.0000 0.0000 0.0000
# 4 0.0000 0.0000 0.0000 28.6080 0.0000 0.0000
# 5 0.0000 0.0000 0.0000 0.0000 61.5599 0.0000
# 6 0.0000 0.0000 0.0000 0.0000 0.0000 8.4942
#
#
#
# Elastic Compliance Matrix: (Units=1/GPa)
#
#
# Indices 1 2 3 4 5 6 
#
# 1 0.007134 -0.000561 -0.001246 0.000000 0.000000 0.000000
# 2 -0.000561 0.012446 -0.000545 0.000000 0.000000 0.000000
# 3 -0.001246 -0.000545 0.010286 0.000000 0.000000 0.000000
# 4 0.000000 0.000000 0.000000 0.034955 0.000000 0.000000
# 5 0.000000 0.000000 0.000000 0.000000 0.016244 0.000000
# 6 0.000000 0.000000 0.000000 0.000000 0.000000 0.117728
#
#
# Mechanical properties :
#
#
# Convention : Reuss Voigt Hill
#
# Bulk Modulus (GPa) = 39.74134 42.76462 41.25298
# Shear Modulus (GPa) = 23.59748 39.34240 31.46994
#
# Velocity S-wave (km/s) = 3.16902 4.09188 3.65966
# Velocity P-wave (km/s) = 5.50486 6.36589 5.95097
#
# Compressibility (1/GPa) = 0.02516271
#
# Stress axis : x y z
#
# Youngs Moduli (GPa) = 140.16442 80.34396 97.21655
#
# Poissons Ratio (x) = 0.04509 0.12116
# Poissons Ratio (y) = 0.07866 0.05296
# Poissons Ratio (z) = 0.17468 0.04377
#
# Static dielectric constant tensor:
#      x y z
#    x 1.792900 0.000000 0.000000 
#    y 0.000000 1.871840 0.000000 
#    z 0.000000 0.000000 1.888240 
# 
# From -- ./inp_files/28083.got.cif
#   From: 2010.05.17/outbox.cif.g08.bks.cpg/sg73_15_cif.got.tgz:28083.got - 2010.06.03 17:35:07.
