data_PCOD9530089
_publ_section_title
;
Structure prediction by ZEFSAII (Michael W. Deem and Ramdas Pophale) SiO2 
 PCOD9530089
Probable space group: I B C A 
;
_chemical_formula_sum "Si O2"
_cell_formula_units_Z 64
_cell_length_a 13.263566
_cell_length_b 5.298283
_cell_length_c 34.921220
_cell_angle_alpha 90.000000
_cell_angle_beta 90.000000
_cell_angle_gamma 90.000000
_cell_volume 2454.058223
_symmetry_space_group_name_H-M "I B C A "
_symmetry_group_IT_number 73
_symmetry_cell_setting 'orthorhombic'
loop_
_space_group_symop_operation_xyz
x,y,z
-x,1/2-y,z
x,-y,1/2-z
1/2-x,y,-z
-x,-y,-z
x,1/2+y,-z
-x,y,1/2+z
1/2+x,-y,z
1/2+x,1/2+y,1/2+z
1/2-x,-y,1/2+z
1/2+x,1/2-y,-z
-x,1/2+y,1/2-z
1/2-x,1/2-y,1/2-z
1/2+x,y,1/2-z
1/2-x,1/2+y,z
x,1/2-y,1/2+z
loop_
_atom_site_type_symbol
_atom_site_label
_atom_site_fract_x
_atom_site_fract_y
_atom_site_fract_z
Si Si1 0.931317 0.502351 0.903311
Si Si2 0.368877 0.615848 0.207907
Si Si3 0.359798 0.119018 0.177612
Si Si4 0.120296 0.708414 0.482319
O O1 0.862298 0.464559 0.866172
O O2 0.869414 0.574274 0.941322
O O3 0.000000 0.250000 0.909158
O O4 0.000000 0.750000 0.896326
O O5 0.374508 0.500000 0.250000
O O6 0.407056 0.396652 0.179942
O O7 0.251865 0.655357 0.195102
O O8 0.409216 0.898033 0.203139
O O9 0.155122 0.498359 0.513181
O O10 0.000000 0.750000 0.487144
#
# Coordination Sequence:
#
# PCOD9530089 Si02
#       4
#    16  16  16  16
#     4  11  21  32  48  74 108 135 154 191 248 304
#     4  10  19  35  59  75  88 120 172 222 240 263
#     4  10  19  32  52  77  98 123 160 207 251 283
#     4   9  16  28  46  67  93 128 168 199 224 268
#
# _framework density 26.079249999999998
#
# number of rings (size 3 to 8) (size 9 to 14) (size 15 to 20)
#    0.000    2.000    0.000    9.000    0.000    0.000 
#    0.000    0.000    0.000   25.500    0.000   21.000 
#    0.000    0.000    0.000    0.000    0.000    0.000 
#
# Total GULP energy -178945.660011 kJ/mol
# GULP energy per Si atom -5592.051875 kJ/mol
# Density = 2.601989 g / cm^3
# Si number density = 26.079250 Si / 1000 Ang^3
#
#
#
# Elastic Constant Matrix: (Units=GPa)
#
#
# Indices 1 2 3 4 5 6 
#
# 1 68.2736 1.6697 -4.4349 0.0000 0.0000 0.0000
# 2 1.6697 194.3943 47.9848 0.0000 0.0000 0.0000
# 3 -4.4349 47.9848 152.5404 0.0000 0.0000 0.0000
# 4 0.0000 0.0000 0.0000 45.4159 0.0000 0.0000
# 5 0.0000 0.0000 0.0000 0.0000 44.5507 0.0000
# 6 0.0000 0.0000 0.0000 0.0000 0.0000 8.6771
#
#
#
# Elastic Compliance Matrix: (Units=1/GPa)
#
#
# Indices 1 2 3 4 5 6 
#
# 1 0.014686 -0.000251 0.000506 0.000000 0.000000 0.000000
# 2 -0.000251 0.005582 -0.001763 0.000000 0.000000 0.000000
# 3 0.000506 -0.001763 0.007125 0.000000 0.000000 0.000000
# 4 0.000000 0.000000 0.000000 0.022019 0.000000 0.000000
# 5 0.000000 0.000000 0.000000 0.000000 0.022446 0.000000
# 6 0.000000 0.000000 0.000000 0.000000 0.000000 0.115246
#
#
# Mechanical properties :
#
#
# Convention : Reuss Voigt Hill
#
# Bulk Modulus (GPa) = 41.02378 56.18306 48.60342
# Shear Modulus (GPa) = 25.22127 44.39464 34.80796
#
# Velocity S-wave (km/s) = 3.11320 4.13037 3.65732
# Velocity P-wave (km/s) = 5.35605 6.65857 6.04251
#
# Compressibility (1/GPa) = 0.02437611
#
# Stress axis : x y z
#
# Youngs Moduli (GPa) = 68.09225 179.16180 140.35149
#
# Poissons Ratio (x) = 0.04498 -0.07101
# Poissons Ratio (y) = 0.01709 0.24745
# Poissons Ratio (z) = -0.03445 0.31588
#
# Static dielectric constant tensor:
#      x y z
#    x -0.931580 0.000000 0.000000 
#    y 0.000000 2.104270 0.000000 
#    z 0.000000 0.000000 2.000720 
# 
# From -- ./inp_files/34449.got.cif
#   From: 2010.05.17/outbox.cif.g08.bks.cpg/sg73_18_cif.got.tgz:34449.got - 2010.06.03 17:35:07.
