data_PCOD9530443
_publ_section_title
;
Structure prediction by ZEFSAII (Michael W. Deem and Ramdas Pophale) SiO2 
 PCOD9530443
Probable space group: I B C A 
;
_chemical_formula_sum "Si O2"
_cell_formula_units_Z 120
_cell_length_a 17.924564
_cell_length_b 16.950383
_cell_length_c 17.616487
_cell_angle_alpha 90.000000
_cell_angle_beta 90.000000
_cell_angle_gamma 90.000000
_cell_volume 5352.385974
_symmetry_space_group_name_H-M "I B C A "
_symmetry_group_IT_number 73
_symmetry_cell_setting 'orthorhombic'
loop_
_space_group_symop_operation_xyz
x,y,z
-x,1/2-y,z
x,-y,1/2-z
1/2-x,y,-z
-x,-y,-z
x,1/2+y,-z
-x,y,1/2+z
1/2+x,-y,z
1/2+x,1/2+y,1/2+z
1/2-x,-y,1/2+z
1/2+x,1/2-y,-z
-x,1/2+y,1/2-z
1/2-x,1/2-y,1/2-z
1/2+x,y,1/2-z
1/2-x,1/2+y,z
x,1/2-y,1/2+z
loop_
_atom_site_type_symbol
_atom_site_label
_atom_site_fract_x
_atom_site_fract_y
_atom_site_fract_z
Si Si1 0.438015 0.500000 0.750000
Si Si2 0.546918 0.112914 0.536683
Si Si3 0.668457 0.008552 0.009798
Si Si4 0.978635 0.155228 0.803472
Si Si5 0.058183 0.190759 0.589754
Si Si6 0.834291 0.919012 0.351365
Si Si7 0.829773 0.736602 0.532990
Si Si8 0.323792 0.120760 0.650250
O O1 0.483993 0.418891 0.741667
O O2 0.380498 0.492707 0.820326
O O3 0.591806 0.036038 0.509320
O O4 0.494260 0.126556 0.609169
O O5 0.495192 0.138435 0.465054
O O6 0.618161 0.166470 0.561527
O O7 0.661123 0.048087 0.092099
O O8 0.750000 0.966218 0.000000
O O9 0.677066 0.071817 0.941797
O O10 0.890076 0.142225 0.793336
O O11 0.000000 0.250000 0.798557
O O12 0.108474 0.152163 0.653369
O O13 0.116480 0.231858 0.533636
O O14 0.000000 0.250000 0.626452
O O15 0.755805 0.900984 0.313603
O O16 0.750000 0.713944 0.500000
O O17 0.816373 0.803164 0.595793
#
# Coordination Sequence:
#
# PCOD9530443 Si02
#       8
#     8  16  16  16  16  16  16  16
#     4  12  30  44  70  90 124 192 234 286 320 382
#     4  11  20  33  61  99 134 159 210 266 341 398
#     4  10  20  35  59  97 129 165 201 266 345 407
#     4  12  24  46  69  96 129 177 234 281 330 397
#     4  10  20  32  57  95 128 159 199 266 331 396
#     4  11  22  42  61  89 131 168 219 265 328 393
#     4  11  17  32  57  99 128 164 198 248 347 410
#     4  11  21  38  70  95 128 169 206 275 348 403
#
# _framework density 22.419906000000001
#
# number of rings (size 3 to 8) (size 9 to 14) (size 15 to 20)
#    0.000    1.067    6.667    1.200    1.867    2.133 
#    0.000    0.667    0.000    0.000    0.000    0.000 
#    0.000    0.000    0.000    0.000    0.000    0.000 
#
# Total GULP energy -334184.417616 kJ/mol
# GULP energy per Si atom -5569.740294 kJ/mol
# Density = 2.236888 g / cm^3
# Si number density = 22.419906 Si / 1000 Ang^3
#
#
#
# Elastic Constant Matrix: (Units=GPa)
#
#
# Indices 1 2 3 4 5 6 
#
# 1 180.9117 51.9650 11.5485 0.0000 0.0000 0.0000
# 2 51.9650 91.5678 5.6656 0.0000 0.0000 0.0000
# 3 11.5485 5.6656 26.4757 0.0000 0.0000 0.0000
# 4 0.0000 0.0000 0.0000 -1.3113 0.0000 0.0000
# 5 0.0000 0.0000 0.0000 0.0000 7.5121 0.0000
# 6 0.0000 0.0000 0.0000 0.0000 0.0000 167.2867
#
#
#
# Elastic Compliance Matrix: (Units=1/GPa)
#
#
# Indices 1 2 3 4 5 6 
#
# 1 0.006722 -0.003682 -0.002144 0.000000 0.000000 0.000000
# 2 -0.003682 0.013084 -0.001194 0.000000 0.000000 0.000000
# 3 -0.002144 -0.001194 0.038961 0.000000 0.000000 0.000000
# 4 0.000000 0.000000 0.000000 -0.762586 0.000000 0.000000
# 5 0.000000 0.000000 0.000000 0.000000 0.133118 0.000000
# 6 0.000000 0.000000 0.000000 0.000000 0.000000 0.005978
#
#
# Mechanical properties :
#
#
# Convention : Reuss Voigt Hill
#
# Bulk Modulus (GPa) = 22.35765 48.59037 35.47401
# Shear Modulus (GPa) = -9.33231 50.01592 20.34180
#
# Velocity S-wave (km/s) = -2.04244 4.72833 3.01543
# Velocity P-wave (km/s) = 2.10519 7.17840 5.28967
#
# Compressibility (1/GPa) = 0.04472742
#
# Stress axis : x y z
#
# Youngs Moduli (GPa) = 148.76335 76.42713 25.66651
#
# Poissons Ratio (x) = 0.28142 0.05503
# Poissons Ratio (y) = 0.54777 0.03064
# Poissons Ratio (z) = 0.31897 0.09124
#
# Static dielectric constant tensor:
#      x y z
#    x 1.914680 0.000000 0.000000 
#    y 0.000000 1.947900 0.000000 
#    z 0.000000 0.000000 1.852320 
# 
# From -- ./inp_files/22663.got.cif
#   From: 2010.05.17/outbox.cif.g08.bks.cpg/sg73_12_cif.got.tgz:22663.got - 2010.06.03 17:35:07.
