data_PCOD9530059
_publ_section_title
;
Structure prediction by ZEFSAII (Michael W. Deem and Ramdas Pophale) SiO2 
 PCOD9530059
Probable space group: I B C A 
;
_chemical_formula_sum "Si O2"
_cell_formula_units_Z 72
_cell_length_a 13.782314
_cell_length_b 7.840527
_cell_length_c 28.147981
_cell_angle_alpha 90.000000
_cell_angle_beta 90.000000
_cell_angle_gamma 90.000000
_cell_volume 3041.687857
_symmetry_space_group_name_H-M "I B C A "
_symmetry_group_IT_number 73
_symmetry_cell_setting 'orthorhombic'
loop_
_space_group_symop_operation_xyz
x,y,z
-x,1/2-y,z
x,-y,1/2-z
1/2-x,y,-z
-x,-y,-z
x,1/2+y,-z
-x,y,1/2+z
1/2+x,-y,z
1/2+x,1/2+y,1/2+z
1/2-x,-y,1/2+z
1/2+x,1/2-y,-z
-x,1/2+y,1/2-z
1/2-x,1/2-y,1/2-z
1/2+x,y,1/2-z
1/2-x,1/2+y,z
x,1/2-y,1/2+z
loop_
_atom_site_type_symbol
_atom_site_label
_atom_site_fract_x
_atom_site_fract_y
_atom_site_fract_z
Si Si1 0.114327 0.043334 0.940062
Si Si2 0.881077 0.580180 0.044823
Si Si3 0.868677 0.639496 0.287236
Si Si4 0.822419 0.000000 0.250000
Si Si5 0.391456 0.779324 0.606559
O O1 0.152495 0.235475 0.938241
O O2 0.997359 0.071836 0.945259
O O3 0.144977 0.914831 0.897991
O O4 0.139185 0.949052 0.989442
O O5 0.841743 0.419945 0.073962
O O6 0.910616 0.500000 0.250000
O O7 0.754324 0.584985 0.287108
O O8 0.902062 0.642703 0.341142
O O9 0.877940 0.834752 0.269308
O O10 0.500000 0.750000 0.586870
#
# Coordination Sequence:
#
# PCOD9530059 Si02
#       5
#    16  16  16   8  16
#     4   9  15  25  41  65 100 140 167 189 227 284
#     4   9  15  25  42  64 101 139 166 194 220 286
#     4   9  18  36  56  73  95 122 172 221 246 294
#     4   8  18  38  60  70  84 122 184 218 252 276
#     4  10  19  29  46  78 108 132 159 191 256 311
#
# _framework density 23.671066
#
# number of rings (size 3 to 8) (size 9 to 14) (size 15 to 20)
#    0.667    2.222    2.222    0.000    0.000    1.778 
#    2.000    0.000    0.000    0.000    0.000    4.667 
#    0.000    0.000    0.000    0.000    0.000    0.000 
#
# Total GULP energy -200661.232430 kJ/mol
# GULP energy per Si atom -5573.923123 kJ/mol
# Density = 2.361719 g / cm^3
# Si number density = 23.671066 Si / 1000 Ang^3
#
#
#
# Elastic Constant Matrix: (Units=GPa)
#
#
# Indices 1 2 3 4 5 6 
#
# 1 66.1560 14.7573 -8.3938 0.0000 0.0000 0.0000
# 2 14.7573 226.2251 69.5507 0.0000 0.0000 0.0000
# 3 -8.3938 69.5507 82.5191 0.0000 0.0000 0.0000
# 4 0.0000 0.0000 0.0000 30.5480 0.0000 0.0000
# 5 0.0000 0.0000 0.0000 0.0000 62.5009 0.0000
# 6 0.0000 0.0000 0.0000 0.0000 0.0000 21.5673
#
#
#
# Elastic Compliance Matrix: (Units=1/GPa)
#
#
# Indices 1 2 3 4 5 6 
#
# 1 0.016011 -0.002086 0.003386 0.000000 0.000000 0.000000
# 2 -0.002086 0.006238 -0.005470 0.000000 0.000000 0.000000
# 3 0.003386 -0.005470 0.017073 0.000000 0.000000 0.000000
# 4 0.000000 0.000000 0.000000 0.032735 0.000000 0.000000
# 5 0.000000 0.000000 0.000000 0.000000 0.016000 0.000000
# 6 0.000000 0.000000 0.000000 0.000000 0.000000 0.046366
#
#
# Mechanical properties :
#
#
# Convention : Reuss Voigt Hill
#
# Bulk Modulus (GPa) = 32.27488 58.52539 45.40014
# Shear Modulus (GPa) = 32.66065 42.85564 37.75815
#
# Velocity S-wave (km/s) = 3.71856 4.25957 3.99823
# Velocity P-wave (km/s) = 5.66579 6.99786 6.36676
#
# Compressibility (1/GPa) = 0.03098384
#
# Stress axis : x y z
#
# Youngs Moduli (GPa) = 62.45832 160.30586 58.57163
#
# Poissons Ratio (x) = 0.33432 -0.19835
# Poissons Ratio (y) = 0.13026 0.32038
# Poissons Ratio (z) = -0.21151 0.87685
#
# Static dielectric constant tensor:
#      x y z
#    x 2.021800 0.000000 0.000000 
#    y 0.000000 1.935530 0.000000 
#    z 0.000000 0.000000 1.846410 
# 
# From -- ./inp_files/30020.got.cif
#   From: 2010.05.17/outbox.cif.g08.bks.cpg/sg73_16_cif.got.tgz:30020.got - 2010.06.03 17:35:07.
