data_PCOD9530398
_publ_section_title
;
Structure prediction by ZEFSAII (Michael W. Deem and Ramdas Pophale) SiO2 
 PCOD9530398
Probable space group: I B C A 
;
_chemical_formula_sum "Si O2"
_cell_formula_units_Z 88
_cell_length_a 24.528756
_cell_length_b 14.048772
_cell_length_c 12.145086
_cell_angle_alpha 90.000000
_cell_angle_beta 90.000000
_cell_angle_gamma 90.000000
_cell_volume 4185.183282
_symmetry_space_group_name_H-M "I B C A "
_symmetry_group_IT_number 73
_symmetry_cell_setting 'orthorhombic'
loop_
_space_group_symop_operation_xyz
x,y,z
-x,1/2-y,z
x,-y,1/2-z
1/2-x,y,-z
-x,-y,-z
x,1/2+y,-z
-x,y,1/2+z
1/2+x,-y,z
1/2+x,1/2+y,1/2+z
1/2-x,-y,1/2+z
1/2+x,1/2-y,-z
-x,1/2+y,1/2-z
1/2-x,1/2-y,1/2-z
1/2+x,y,1/2-z
1/2-x,1/2+y,z
x,1/2-y,1/2+z
loop_
_atom_site_type_symbol
_atom_site_label
_atom_site_fract_x
_atom_site_fract_y
_atom_site_fract_z
Si Si1 0.621159 0.400990 0.682586
Si Si2 0.287727 0.995962 0.409055
Si Si3 0.594038 0.023330 0.515814
Si Si4 0.460956 0.662169 0.159826
Si Si5 0.744351 0.860971 0.261006
Si Si6 0.035840 0.000000 0.750000
O O1 0.615056 0.500000 0.750000
O O2 0.597146 0.428894 0.562816
O O3 0.589413 0.321932 0.754942
O O4 0.685470 0.380709 0.685313
O O5 0.250000 0.041690 0.500000
O O6 0.342960 0.955127 0.457543
O O7 0.250160 0.914380 0.355244
O O8 0.293228 0.083599 0.324216
O O9 0.562925 0.104692 0.445626
O O10 0.567838 0.008916 0.635216
O O11 0.500000 0.750000 0.130364
O O12 0.498215 0.591129 0.231068
O O13 0.750000 0.750000 0.250000
#
# Coordination Sequence:
#
# PCOD9530398 Si02
#       6
#    16  16  16  16  16   8
#     4  10  19  44  71  94 139 191 232 291 378 429
#     4  11  21  42  68  96 141 188 226 286 366 441
#     4  11  23  44  71 100 140 196 241 299 377 444
#     4  11  25  44  73 101 137 191 251 308 364 434
#     4  11  23  40  68 105 141 182 237 297 350 436
#     4  12  24  44  66 100 140 182 244 302 362 424
#
# _framework density 21.026558999999999
#
# number of rings (size 3 to 8) (size 9 to 14) (size 15 to 20)
#    0.000    1.091    6.364    2.727    0.000    4.364 
#    3.273    0.000    0.000    0.000    0.000    0.000 
#    0.000    0.000    0.000    0.000    0.000    0.000 
#
# Total GULP energy -245220.439297 kJ/mol
# GULP energy per Si atom -5573.191802 kJ/mol
# Density = 2.097870 g / cm^3
# Si number density = 21.026559 Si / 1000 Ang^3
#
#
#
# Elastic Constant Matrix: (Units=GPa)
#
#
# Indices 1 2 3 4 5 6 
#
# 1 112.1632 27.8551 53.9027 0.0000 0.0000 0.0000
# 2 27.8551 88.8743 20.4008 0.0000 0.0000 0.0000
# 3 53.9027 20.4008 130.4159 0.0000 0.0000 0.0000
# 4 0.0000 0.0000 0.0000 9.3581 0.0000 0.0000
# 5 0.0000 0.0000 0.0000 0.0000 33.7138 0.0000
# 6 0.0000 0.0000 0.0000 0.0000 0.0000 90.9777
#
#
#
# Elastic Compliance Matrix: (Units=1/GPa)
#
#
# Indices 1 2 3 4 5 6 
#
# 1 0.011698 -0.002652 -0.004420 0.000000 0.000000 0.000000
# 2 -0.002652 0.012272 -0.000824 0.000000 0.000000 0.000000
# 3 -0.004420 -0.000824 0.009624 0.000000 0.000000 0.000000
# 4 0.000000 0.000000 0.000000 0.106859 0.000000 0.000000
# 5 0.000000 0.000000 0.000000 0.000000 0.029661 0.000000
# 6 0.000000 0.000000 0.000000 0.000000 0.000000 0.010992
#
#
# Mechanical properties :
#
#
# Convention : Reuss Voigt Hill
#
# Bulk Modulus (GPa) = 56.17203 59.53007 57.85105
# Shear Modulus (GPa) = 24.65096 42.09624 33.37360
#
# Velocity S-wave (km/s) = 3.42771 4.47928 3.98830
# Velocity P-wave (km/s) = 6.51447 7.42464 6.98440
#
# Compressibility (1/GPa) = 0.01780246
#
# Stress axis : x y z
#
# Youngs Moduli (GPa) = 85.48148 81.48587 103.91132
#
# Poissons Ratio (x) = 0.21609 0.45932
# Poissons Ratio (y) = 0.22669 0.08559
# Poissons Ratio (z) = 0.37785 0.06712
#
# Static dielectric constant tensor:
#      x y z
#    x 1.819200 0.000000 0.000000 
#    y 0.000000 1.739890 0.000000 
#    z 0.000000 0.000000 2.000750 
# 
# From -- ./inp_files/13539.got.cif
#   From: 2010.05.17/outbox.cif.g08.bks.cpg/sg73_7_cif.got.tgz:13539.got - 2010.06.03 17:35:07.
