data_PCOD9530110
_publ_section_title
;
Structure prediction by ZEFSAII (Michael W. Deem and Ramdas Pophale) SiO2 
 PCOD9530110
Probable space group: I B C A 
;
_chemical_formula_sum "Si O2"
_cell_formula_units_Z 120
_cell_length_a 8.642928
_cell_length_b 30.278359
_cell_length_c 23.216921
_cell_angle_alpha 90.000000
_cell_angle_beta 90.000000
_cell_angle_gamma 90.000000
_cell_volume 6075.721420
_symmetry_space_group_name_H-M "I B C A "
_symmetry_group_IT_number 73
_symmetry_cell_setting 'orthorhombic'
loop_
_space_group_symop_operation_xyz
x,y,z
-x,1/2-y,z
x,-y,1/2-z
1/2-x,y,-z
-x,-y,-z
x,1/2+y,-z
-x,y,1/2+z
1/2+x,-y,z
1/2+x,1/2+y,1/2+z
1/2-x,-y,1/2+z
1/2+x,1/2-y,-z
-x,1/2+y,1/2-z
1/2-x,1/2-y,1/2-z
1/2+x,y,1/2-z
1/2-x,1/2+y,z
x,1/2-y,1/2+z
loop_
_atom_site_type_symbol
_atom_site_label
_atom_site_fract_x
_atom_site_fract_y
_atom_site_fract_z
Si Si1 0.000000 0.750000 0.740747
Si Si2 0.006412 0.320939 0.160572
Si Si3 0.313187 0.097138 0.292869
Si Si4 0.322481 0.217457 0.144942
Si Si5 0.535147 0.862809 0.367104
Si Si6 0.820747 0.067529 0.338845
Si Si7 0.233477 0.797677 0.067779
Si Si8 0.019342 0.015325 0.185507
O O1 0.979962 0.709175 0.783151
O O2 0.850026 0.749544 0.699189
O O3 0.059512 0.368833 0.182261
O O4 0.115783 0.305277 0.108206
O O5 0.832121 0.311004 0.142071
O O6 0.152914 0.113967 0.321656
O O7 0.307468 0.092701 0.223475
O O8 0.374432 0.048890 0.310493
O O9 0.455857 0.181706 0.155523
O O10 0.330396 0.250720 0.091361
O O11 0.394237 0.895871 0.380617
O O12 0.632812 0.841692 0.418935
O O13 0.658631 0.041692 0.344864
O O14 0.950948 0.029389 0.339788
O O15 0.250000 0.794156 0.000000
O O16 0.070590 0.000000 0.250000
#
# Coordination Sequence:
#
# PCOD9530110 Si02
#       8
#     8  16  16  16  16  16  16  16
#     4  12  22  36  56  88 126 156 208 250 328 406
#     4  11  24  38  61  86 121 171 206 268 328 382
#     4  10  21  34  50  82 122 163 206 251 309 389
#     4  12  23  39  59  88 121 165 209 271 325 386
#     4  11  23  37  57  89 116 166 212 265 327 369
#     4  11  20  34  56  85 126 164 206 253 315 391
#     4  11  25  47  64  85 120 169 227 277 327 385
#     4  10  19  33  54  84 124 172 206 245 308 392
#
# _framework density 19.750741999999999
#
# number of rings (size 3 to 8) (size 9 to 14) (size 15 to 20)
#    0.000    1.067    2.667    5.600    0.000    4.267 
#    0.000    0.000    0.000    0.000    0.000    8.400 
#    0.000    4.267    0.000    1.067    0.000    0.000 
#
# Total GULP energy -334507.587697 kJ/mol
# GULP energy per Si atom -5575.126462 kJ/mol
# Density = 1.970579 g / cm^3
# Si number density = 19.750742 Si / 1000 Ang^3
#
#
#
# Elastic Constant Matrix: (Units=GPa)
#
#
# Indices 1 2 3 4 5 6 
#
# 1 111.1339 44.4318 30.8715 0.0000 0.0000 0.0000
# 2 44.4318 121.8540 35.0011 0.0000 0.0000 0.0000
# 3 30.8715 35.0011 98.3771 0.0000 0.0000 0.0000
# 4 0.0000 0.0000 0.0000 0.2565 0.0000 0.0000
# 5 0.0000 0.0000 0.0000 0.0000 11.1281 0.0000
# 6 0.0000 0.0000 0.0000 0.0000 0.0000 49.2028
#
#
#
# Elastic Compliance Matrix: (Units=1/GPa)
#
#
# Indices 1 2 3 4 5 6 
#
# 1 0.010963 -0.003352 -0.002248 0.000000 0.000000 0.000000
# 2 -0.003352 0.010165 -0.002565 0.000000 0.000000 0.000000
# 3 -0.002248 -0.002565 0.011783 -0.000001 0.000000 0.000000
# 4 0.000000 0.000000 -0.000001 3.898748 -0.000003 0.000000
# 5 0.000000 0.000000 0.000000 -0.000003 0.089862 0.000000
# 6 0.000000 0.000000 0.000000 0.000000 0.000000 0.020324
#
#
# Mechanical properties :
#
#
# Convention : Reuss Voigt Hill
#
# Bulk Modulus (GPa) = 60.30523 61.33043 60.81783
# Shear Modulus (GPa) = 1.23041 26.85486 14.04263
#
# Velocity S-wave (km/s) = 0.79014 3.69140 2.66934
# Velocity P-wave (km/s) = 5.60641 7.02055 6.35295
#
# Compressibility (1/GPa) = 0.01658231
#
# Stress axis : x y z
#
# Youngs Moduli (GPa) = 91.21978 98.37281 84.86904
#
# Poissons Ratio (x) = 0.32971 0.19076
# Poissons Ratio (y) = 0.30574 0.21768
# Poissons Ratio (z) = 0.20503 0.25232
#
# Static dielectric constant tensor:
#      x y z
#    x 1.817870 0.000000 0.000000 
#    y 0.000000 1.726590 0.000000 
#    z 0.000000 0.000000 1.651200 
# 
# From -- ./inp_files/28606.got.cif
#   From: 2010.05.17/outbox.cif.g08.bks.cpg/sg73_15_cif.got.tgz:28606.got - 2010.06.03 17:35:07.
