data_PCOD9530634
_publ_section_title
;
Structure prediction by ZEFSAII (Michael W. Deem and Ramdas Pophale) SiO2 
 PCOD9530634
Probable space group: I B C A 
;
_chemical_formula_sum "Si O2"
_cell_formula_units_Z 72
_cell_length_a 16.521776
_cell_length_b 9.205597
_cell_length_c 22.732260
_cell_angle_alpha 90.000000
_cell_angle_beta 90.000000
_cell_angle_gamma 90.000000
_cell_volume 3457.413337
_symmetry_space_group_name_H-M "I B C A "
_symmetry_group_IT_number 73
_symmetry_cell_setting 'orthorhombic'
loop_
_space_group_symop_operation_xyz
x,y,z
-x,1/2-y,z
x,-y,1/2-z
1/2-x,y,-z
-x,-y,-z
x,1/2+y,-z
-x,y,1/2+z
1/2+x,-y,z
1/2+x,1/2+y,1/2+z
1/2-x,-y,1/2+z
1/2+x,1/2-y,-z
-x,1/2+y,1/2-z
1/2-x,1/2-y,1/2-z
1/2+x,y,1/2-z
1/2-x,1/2+y,z
x,1/2-y,1/2+z
loop_
_atom_site_type_symbol
_atom_site_label
_atom_site_fract_x
_atom_site_fract_y
_atom_site_fract_z
Si Si1 0.506332 0.423372 0.437390
Si Si2 0.567937 0.861389 0.355761
Si Si3 0.521095 0.000000 0.750000
Si Si4 0.643344 0.910954 0.654227
Si Si5 0.269128 0.796328 0.317749
O O1 0.500000 0.250000 0.441713
O O2 0.500000 0.500000 0.500000
O O3 0.437543 0.497800 0.396743
O O4 0.590861 0.451877 0.402687
O O5 0.500000 0.750000 0.380443
O O6 0.653107 0.786864 0.344364
O O7 0.533834 0.906651 0.292422
O O8 0.579196 0.906364 0.707789
O O9 0.690780 0.761376 0.648170
O O10 0.707422 0.035934 0.673001
O O11 0.250000 0.750000 0.250000
#
# Coordination Sequence:
#
# PCOD9530634 Si02
#       5
#    16  16   8  16  16
#     4  11  26  48  76  97 127 177 248 299 344 403
#     4  11  22  41  66  96 139 185 229 283 337 414
#     4  10  20  36  60 102 132 182 234 268 332 424
#     4  11  24  42  64 103 139 182 228 276 352 413
#     4  12  23  40  64 102 149 183 213 278 353 419
#
# _framework density 20.824818
#
# number of rings (size 3 to 8) (size 9 to 14) (size 15 to 20)
#    0.000    0.889    6.667    0.667    6.222    5.333 
#    0.000    1.111    0.000    0.000    0.000    0.000 
#    0.000    0.000    0.000    0.000    0.000    0.000 
#
# Total GULP energy -201190.708063 kJ/mol
# GULP energy per Si atom -5588.630780 kJ/mol
# Density = 2.077742 g / cm^3
# Si number density = 20.824818 Si / 1000 Ang^3
#
#
#
# Elastic Constant Matrix: (Units=GPa)
#
#
# Indices 1 2 3 4 5 6 
#
# 1 57.7576 4.7454 30.0267 0.0000 0.0000 0.0000
# 2 4.7454 108.9672 44.9448 0.0000 0.0000 0.0000
# 3 30.0267 44.9448 115.3203 0.0000 0.0000 0.0000
# 4 0.0000 0.0000 0.0000 37.0276 0.0000 0.0000
# 5 0.0000 0.0000 0.0000 0.0000 14.5318 0.0000
# 6 0.0000 0.0000 0.0000 0.0000 0.0000 42.7915
#
#
#
# Elastic Compliance Matrix: (Units=1/GPa)
#
#
# Indices 1 2 3 4 5 6 
#
# 1 0.020239 0.001540 -0.005870 0.000000 0.000000 0.000000
# 2 0.001540 0.011052 -0.004708 0.000000 0.000000 0.000000
# 3 -0.005870 -0.004708 0.012035 0.000000 0.000000 0.000000
# 4 0.000000 0.000000 0.000000 0.027007 0.000000 0.000000
# 5 0.000000 0.000000 0.000000 0.000000 0.068815 0.000000
# 6 0.000000 0.000000 0.000000 0.000000 0.000000 0.023369
#
#
# Mechanical properties :
#
#
# Convention : Reuss Voigt Hill
#
# Bulk Modulus (GPa) = 39.60575 49.05321 44.32948
# Shear Modulus (GPa) = 26.45370 32.35871 29.40620
#
# Velocity S-wave (km/s) = 3.56799 3.94617 3.76184
# Velocity P-wave (km/s) = 6.00282 6.66103 6.34047
#
# Compressibility (1/GPa) = 0.02524886
#
# Stress axis : x y z
#
# Youngs Moduli (GPa) = 49.41013 90.48128 83.09202
#
# Poissons Ratio (x) = -0.13931 0.48773
# Poissons Ratio (y) = -0.07608 0.39122
# Poissons Ratio (z) = 0.29003 0.42601
#
# Static dielectric constant tensor:
#      x y z
#    x 1.750970 0.000000 0.000000 
#    y 0.000000 1.893550 0.000000 
#    z 0.000000 0.000000 1.741390 
# 
# From -- ./inp_files/5318.got.cif
#   From: 2010.05.17/outbox.cif.g08.bks.cpg/sg73_3_cif.got.tgz:5318.got - 2010.06.03 17:35:07.
