data_PCOD9530666
_publ_section_title
;
Structure prediction by ZEFSAII (Michael W. Deem and Ramdas Pophale) SiO2 
 PCOD9530666
Probable space group: I B C A 
;
_chemical_formula_sum "Si O2"
_cell_formula_units_Z 96
_cell_length_a 19.042955
_cell_length_b 10.366264
_cell_length_c 25.656227
_cell_angle_alpha 90.000000
_cell_angle_beta 90.000000
_cell_angle_gamma 90.000000
_cell_volume 5064.649503
_symmetry_space_group_name_H-M "I B C A "
_symmetry_group_IT_number 73
_symmetry_cell_setting 'orthorhombic'
loop_
_space_group_symop_operation_xyz
x,y,z
-x,1/2-y,z
x,-y,1/2-z
1/2-x,y,-z
-x,-y,-z
x,1/2+y,-z
-x,y,1/2+z
1/2+x,-y,z
1/2+x,1/2+y,1/2+z
1/2-x,-y,1/2+z
1/2+x,1/2-y,-z
-x,1/2+y,1/2-z
1/2-x,1/2-y,1/2-z
1/2+x,y,1/2-z
1/2-x,1/2+y,z
x,1/2-y,1/2+z
loop_
_atom_site_type_symbol
_atom_site_label
_atom_site_fract_x
_atom_site_fract_y
_atom_site_fract_z
Si Si1 0.234139 0.624821 0.284595
Si Si2 0.838714 0.458700 0.372347
Si Si3 0.267381 0.898459 0.440040
Si Si4 0.838482 0.748343 0.376291
Si Si5 0.909283 0.453517 0.553721
Si Si6 0.041923 0.118517 0.439904
O O1 0.216896 0.500000 0.250000
O O2 0.250000 0.750000 0.250000
O O3 0.300826 0.411193 0.179429
O O4 0.366317 0.605590 0.136605
O O5 0.780458 0.484394 0.417747
O O6 0.674482 0.334793 0.325825
O O7 0.901016 0.372973 0.394496
O O8 0.250000 0.870306 0.500000
O O9 0.237536 0.785806 0.402922
O O10 0.347631 0.941935 0.436694
O O11 0.885911 0.824296 0.417020
O O12 0.918127 0.424309 0.492488
O O13 0.983279 0.510777 0.571817
O O14 0.000000 0.250000 0.449470
#
# Coordination Sequence:
#
# PCOD9530666 Si02
#       6
#    16  16  16  16  16  16
#     4  12  23  42  70 102 128 163 225 299 352 389
#     4  10  23  41  59  99 130 171 220 278 337 387
#     4  10  20  36  62  96 130 166 216 273 324 392
#     4  10  22  37  68  96 126 167 215 279 335 395
#     4  11  23  40  59  96 134 182 218 256 330 403
#     4  11  27  38  60  91 143 188 220 260 317 420
#
# _framework density 18.954915
#
# number of rings (size 3 to 8) (size 9 to 14) (size 15 to 20)
#    1.000    0.333    5.000    0.000    9.333    0.667 
#    0.000    0.000    0.000    3.000    0.000    0.000 
#    0.000    0.000    0.000    0.000    0.000    0.000 
#
# Total GULP energy -267744.247959 kJ/mol
# GULP energy per Si atom -5578.005166 kJ/mol
# Density = 1.891177 g / cm^3
# Si number density = 18.954915 Si / 1000 Ang^3
#
#
#
# Elastic Constant Matrix: (Units=GPa)
#
#
# Indices 1 2 3 4 5 6 
#
# 1 72.7240 20.8813 31.7307 0.0000 0.0000 0.0000
# 2 20.8813 84.2689 18.7091 0.0000 0.0000 0.0000
# 3 31.7307 18.7091 69.4478 0.0000 0.0000 0.0000
# 4 0.0000 0.0000 0.0000 37.6105 0.0000 0.0000
# 5 0.0000 0.0000 0.0000 0.0000 9.5912 0.0000
# 6 0.0000 0.0000 0.0000 0.0000 0.0000 31.3059
#
#
#
# Elastic Compliance Matrix: (Units=1/GPa)
#
#
# Indices 1 2 3 4 5 6 
#
# 1 0.017760 -0.002765 -0.007370 0.000000 0.000000 0.000000
# 2 -0.002765 0.013052 -0.002253 0.000000 0.000000 0.000000
# 3 -0.007370 -0.002253 0.018374 0.000000 0.000000 0.000000
# 4 0.000000 0.000000 0.000000 0.026588 0.000000 0.000000
# 5 0.000000 0.000000 0.000000 0.000000 0.104262 0.000000
# 6 0.000000 0.000000 0.000000 0.000000 0.000000 0.031943
#
#
# Mechanical properties :
#
#
# Convention : Reuss Voigt Hill
#
# Bulk Modulus (GPa) = 40.96562 41.00922 40.98742
# Shear Modulus (GPa) = 20.41726 26.04283 23.23004
#
# Velocity S-wave (km/s) = 3.28555 3.71068 3.50457
# Velocity P-wave (km/s) = 6.00435 6.32780 6.16819
#
# Compressibility (1/GPa) = 0.02441071
#
# Stress axis : x y z
#
# Youngs Moduli (GPa) = 56.30644 76.61641 54.42615
#
# Poissons Ratio (x) = 0.21181 0.40111
# Poissons Ratio (y) = 0.15566 0.12263
# Poissons Ratio (z) = 0.41496 0.17262
#
# Static dielectric constant tensor:
#      x y z
#    x 1.652650 0.000000 0.000000 
#    y 0.000000 1.713090 0.000000 
#    z 0.000000 0.000000 1.636470 
# 
# From -- ./inp_files/29797.got.cif
#   From: 2010.05.17/outbox.cif.g08.bks.cpg/sg73_15_cif.got.tgz:29797.got - 2010.06.03 17:35:07.
