data_PCOD9530163
_publ_section_title
;
Structure prediction by ZEFSAII (Michael W. Deem and Ramdas Pophale) SiO2 
 PCOD9530163
Probable space group: I B C A 
;
_chemical_formula_sum "Si O2"
_cell_formula_units_Z 112
_cell_length_a 11.143093
_cell_length_b 27.467142
_cell_length_c 19.361254
_cell_angle_alpha 90.000000
_cell_angle_beta 90.000000
_cell_angle_gamma 90.000000
_cell_volume 5925.878058
_symmetry_space_group_name_H-M "I B C A "
_symmetry_group_IT_number 73
_symmetry_cell_setting 'orthorhombic'
loop_
_space_group_symop_operation_xyz
x,y,z
-x,1/2-y,z
x,-y,1/2-z
1/2-x,y,-z
-x,-y,-z
x,1/2+y,-z
-x,y,1/2+z
1/2+x,-y,z
1/2+x,1/2+y,1/2+z
1/2-x,-y,1/2+z
1/2+x,1/2-y,-z
-x,1/2+y,1/2-z
1/2-x,1/2-y,1/2-z
1/2+x,y,1/2-z
1/2-x,1/2+y,z
x,1/2-y,1/2+z
loop_
_atom_site_type_symbol
_atom_site_label
_atom_site_fract_x
_atom_site_fract_y
_atom_site_fract_z
Si Si1 0.512009 0.023377 0.923449
Si Si2 0.743795 0.466118 0.084811
Si Si3 0.396181 0.214570 0.306611
Si Si4 0.611240 0.283068 0.518812
Si Si5 0.148569 0.234683 0.846022
Si Si6 0.535950 0.860904 0.586683
Si Si7 0.242581 0.855929 0.418101
O O1 0.377682 0.017743 0.891962
O O2 0.538955 0.081157 0.923568
O O3 0.629314 0.997350 0.892274
O O4 0.500000 0.000000 0.000000
O O5 0.723861 0.410084 0.106010
O O6 0.750000 0.467232 0.000000
O O7 0.500000 0.250000 0.333878
O O8 0.411327 0.214222 0.223835
O O9 0.272950 0.241460 0.322433
O O10 0.398997 0.163667 0.347506
O O11 0.500000 0.250000 0.492157
O O12 0.750000 0.268795 0.500000
O O13 0.600552 0.276576 0.601614
O O14 0.587231 0.334349 0.481700
O O15 0.175929 0.187133 0.890921
O O16 0.396565 0.847958 0.598722
O O17 0.250000 0.856340 0.500000
#
# Coordination Sequence:
#
# PCOD9530163 Si02
#       7
#    16  16  16  16  16  16  16
#     4   9  18  33  54  83 117 150 182 242 298 358
#     4   8  16  31  52  81 113 146 183 232 302 347
#     4  11  22  38  55  79 116 163 198 240 295 358
#     4  12  23  36  55  87 119 153 197 247 295 348
#     4  11  22  36  56  80 116 155 202 244 287 354
#     4  11  21  36  58  84 121 157 196 242 312 360
#     4  10  19  34  60  86 113 155 198 247 301 363
#
# _framework density 18.900151000000001
#
# number of rings (size 3 to 8) (size 9 to 14) (size 15 to 20)
#    0.000    1.714    2.857    3.857    0.000    1.714 
#    0.000    0.000    0.000    0.857    0.000    4.000 
#    0.000    0.000    0.000    0.000    0.000    0.000 
#
# Total GULP energy -311791.499771 kJ/mol
# GULP energy per Si atom -5567.705353 kJ/mol
# Density = 1.885713 g / cm^3
# Si number density = 18.900151 Si / 1000 Ang^3
#
#
#
# Elastic Constant Matrix: (Units=GPa)
#
#
# Indices 1 2 3 4 5 6 
#
# 1 108.9811 59.3867 9.7623 0.0000 0.0000 0.0000
# 2 59.3867 119.9595 40.3386 0.0000 0.0000 0.0000
# 3 9.7623 40.3386 86.5711 0.0000 0.0000 0.0000
# 4 0.0000 0.0000 0.0000 7.5038 0.0000 0.0000
# 5 0.0000 0.0000 0.0000 0.0000 20.2325 0.0000
# 6 0.0000 0.0000 0.0000 0.0000 0.0000 30.4839
#
#
#
# Elastic Compliance Matrix: (Units=1/GPa)
#
#
# Indices 1 2 3 4 5 6 
#
# 1 0.012795 -0.006936 0.001789 0.000000 0.000000 0.000000
# 2 -0.006936 0.013645 -0.005576 0.000000 0.000000 0.000000
# 3 0.001789 -0.005576 0.013948 0.000000 0.000000 0.000000
# 4 0.000000 0.000000 0.000000 0.133266 0.000000 0.000000
# 5 0.000000 0.000000 0.000000 0.000000 0.049425 0.000000
# 6 0.000000 0.000000 0.000000 0.000000 0.000000 0.032804
#
#
# Mechanical properties :
#
#
# Convention : Reuss Voigt Hill
#
# Bulk Modulus (GPa) = 52.79240 59.38743 56.08992
# Shear Modulus (GPa) = 17.62780 25.37899 21.50339
#
# Velocity S-wave (km/s) = 3.05730 3.66839 3.37669
# Velocity P-wave (km/s) = 6.36047 7.03084 6.70404
#
# Compressibility (1/GPa) = 0.01894212
#
# Stress axis : x y z
#
# Youngs Moduli (GPa) = 78.15411 73.28806 71.69723
#
# Poissons Ratio (x) = 0.50832 -0.12827
# Poissons Ratio (y) = 0.54207 0.39977
# Poissons Ratio (z) = -0.13982 0.40864
#
# Static dielectric constant tensor:
#      x y z
#    x 1.763740 0.000000 0.000000 
#    y 0.000000 1.641200 0.000000 
#    z 0.000000 0.000000 1.653000 
# 
# From -- ./inp_files/25581.got.cif
#   From: 2010.05.17/outbox.cif.g08.bks.cpg/sg73_13_cif.got.tgz:25581.got - 2010.06.03 17:35:07.
