data_PCOD9530015
_publ_section_title
;
Structure prediction by ZEFSAII (Michael W. Deem and Ramdas Pophale) SiO2 
 PCOD9530015
Probable space group: I B C A 
;
_chemical_formula_sum "Si O2"
_cell_formula_units_Z 88
_cell_length_a 11.736757
_cell_length_b 14.147787
_cell_length_c 20.272294
_cell_angle_alpha 90.000000
_cell_angle_beta 90.000000
_cell_angle_gamma 90.000000
_cell_volume 3366.196946
_symmetry_space_group_name_H-M "I B C A "
_symmetry_group_IT_number 73
_symmetry_cell_setting 'orthorhombic'
loop_
_space_group_symop_operation_xyz
x,y,z
-x,1/2-y,z
x,-y,1/2-z
1/2-x,y,-z
-x,-y,-z
x,1/2+y,-z
-x,y,1/2+z
1/2+x,-y,z
1/2+x,1/2+y,1/2+z
1/2-x,-y,1/2+z
1/2+x,1/2-y,-z
-x,1/2+y,1/2-z
1/2-x,1/2-y,1/2-z
1/2+x,y,1/2-z
1/2-x,1/2+y,z
x,1/2-y,1/2+z
loop_
_atom_site_type_symbol
_atom_site_label
_atom_site_fract_x
_atom_site_fract_y
_atom_site_fract_z
Si Si1 0.235868 0.249977 0.142869
Si Si2 0.996261 0.636844 0.494648
Si Si3 0.381834 0.069996 0.121943
Si Si4 0.750000 0.158202 0.000000
Si Si5 0.534424 0.878195 0.651875
Si Si6 0.566612 0.651440 0.786573
O O1 0.286953 0.144157 0.147133
O O2 0.107942 0.281824 0.158533
O O3 0.309343 0.317070 0.191143
O O4 0.248340 0.279903 0.066443
O O5 0.128478 0.605702 0.503634
O O6 0.000000 0.750000 0.506820
O O7 0.909610 0.590688 0.545556
O O8 0.968752 0.620322 0.417949
O O9 0.502407 0.094206 0.156795
O O10 0.370017 0.961194 0.142044
O O11 0.458331 0.894784 0.716091
O O12 0.500000 0.750000 0.787462
#
# Coordination Sequence:
#
# PCOD9530015 Si02
#       6
#    16  16  16   8  16  16
#     4  10  22  43  72  99 142 187 241 297 368 443
#     4  11  20  40  72  99 146 186 239 306 366 441
#     4  11  21  43  70 101 143 192 236 304 372 427
#     4  10  18  38  72 102 126 190 244 284 368 444
#     4  11  25  40  69 109 141 184 250 299 365 453
#     4  10  21  43  68  94 139 191 231 297 369 426
#
# _framework density 26.142261999999999
#
# number of rings (size 3 to 8) (size 9 to 14) (size 15 to 20)
#    0.000    1.455    3.636    2.182    0.000    2.909 
#    0.000   16.364    0.000    0.000    0.000    0.000 
#    0.000    0.000    0.000    0.000    0.000    0.000 
#
# Total GULP energy -246259.176632 kJ/mol
# GULP energy per Si atom -5596.799469 kJ/mol
# Density = 2.608276 g / cm^3
# Si number density = 26.142262 Si / 1000 Ang^3
#
#
#
# Elastic Constant Matrix: (Units=GPa)
#
#
# Indices 1 2 3 4 5 6 
#
# 1 140.5239 31.7869 59.1107 0.0000 0.0000 0.0000
# 2 31.7869 130.9354 30.1484 0.0000 0.0000 0.0000
# 3 59.1107 30.1484 145.4831 0.0000 0.0000 0.0000
# 4 0.0000 0.0000 0.0000 24.0583 0.0000 0.0000
# 5 0.0000 0.0000 0.0000 0.0000 43.7195 0.0000
# 6 0.0000 0.0000 0.0000 0.0000 0.0000 23.9638
#
#
#
# Elastic Compliance Matrix: (Units=1/GPa)
#
#
# Indices 1 2 3 4 5 6 
#
# 1 0.008815 -0.001381 -0.003295 0.000000 0.000000 0.000000
# 2 -0.001381 0.008236 -0.001146 0.000000 0.000000 0.000000
# 3 -0.003295 -0.001146 0.008450 0.000000 0.000000 0.000000
# 4 0.000000 0.000000 0.000000 0.041566 0.000000 0.000000
# 5 0.000000 0.000000 0.000000 0.000000 0.022873 0.000000
# 6 0.000000 0.000000 0.000000 0.000000 0.000000 0.041730
#
#
# Mechanical properties :
#
#
# Convention : Reuss Voigt Hill
#
# Bulk Modulus (GPa) = 72.16594 73.22606 72.69600
# Shear Modulus (GPa) = 33.79911 38.07475 35.93693
#
# Velocity S-wave (km/s) = 3.59958 3.82048 3.71167
# Velocity P-wave (km/s) = 6.70380 6.89441 6.79977
#
# Compressibility (1/GPa) = 0.01385695
#
# Stress axis : x y z
#
# Youngs Moduli (GPa) = 113.44554 121.41146 118.34382
#
# Poissons Ratio (x) = 0.16769 0.38998
# Poissons Ratio (y) = 0.15669 0.13558
# Poissons Ratio (z) = 0.37384 0.13909
#
# Static dielectric constant tensor:
#      x y z
#    x 2.097360 0.000000 0.000000 
#    y 0.000000 2.182700 0.000000 
#    z 0.000000 0.000000 2.034880 
# 
# From -- ./inp_files/25364.got.cif
#   From: 2010.05.17/outbox.cif.g08.bks.cpg/sg73_13_cif.got.tgz:25364.got - 2010.06.03 17:35:07.
