data_PCOD9530908
_publ_section_title
;
Structure prediction by ZEFSAII (Michael W. Deem and Ramdas Pophale) SiO2 
 PCOD9530908
Probable space group: I B C A 
;
_chemical_formula_sum "Si O2"
_cell_formula_units_Z 104
_cell_length_a 28.265359
_cell_length_b 22.683174
_cell_length_c 8.040269
_cell_angle_alpha 90.000000
_cell_angle_beta 90.000000
_cell_angle_gamma 90.000000
_cell_volume 5155.002842
_symmetry_space_group_name_H-M "I B C A "
_symmetry_group_IT_number 73
_symmetry_cell_setting 'orthorhombic'
loop_
_space_group_symop_operation_xyz
x,y,z
-x,1/2-y,z
x,-y,1/2-z
1/2-x,y,-z
-x,-y,-z
x,1/2+y,-z
-x,y,1/2+z
1/2+x,-y,z
1/2+x,1/2+y,1/2+z
1/2-x,-y,1/2+z
1/2+x,1/2-y,-z
-x,1/2+y,1/2-z
1/2-x,1/2-y,1/2-z
1/2+x,y,1/2-z
1/2-x,1/2+y,z
x,1/2-y,1/2+z
loop_
_atom_site_type_symbol
_atom_site_label
_atom_site_fract_x
_atom_site_fract_y
_atom_site_fract_z
Si Si1 0.795239 0.324949 0.315413
Si Si2 0.932411 0.944761 0.042990
Si Si3 0.150807 0.500000 0.250000
Si Si4 0.310238 0.122976 0.350006
Si Si5 0.000000 0.750000 0.721859
Si Si6 0.492212 0.000000 0.750000
Si Si7 0.432943 0.689678 0.023319
Si Si8 0.668802 0.296212 0.050090
O O1 0.743453 0.354020 0.323518
O O2 0.823800 0.360079 0.460244
O O3 0.799184 0.257730 0.383399
O O4 0.811482 0.323236 0.122962
O O5 0.884612 0.974544 0.109362
O O6 0.922760 0.879462 0.977645
O O7 0.958280 0.981007 0.898693
O O8 0.971429 0.948548 0.191870
O O9 0.181652 0.445775 0.182198
O O10 0.336639 0.158847 0.204166
O O11 0.029338 0.797043 0.618584
O O12 0.039848 0.714366 0.819340
O O13 0.384092 0.724121 0.994354
#
# Coordination Sequence:
#
# PCOD9530908 Si02
#       8
#    16  16   8  16   8   8  16  16
#     4  11  25  42  72 100 131 174 227 285 350 403
#     4  10  20  39  64  89 129 172 224 275 331 396
#     4  11  24  46  62  91 142 182 222 281 338 401
#     4  11  25  45  65  97 138 173 222 291 337 404
#     4  10  24  38  60  94 140 166 214 268 338 412
#     4   9  20  36  64  95 116 170 230 273 318 395
#     4  11  22  40  60  95 132 174 210 272 337 393
#     4  12  22  42  72 103 129 173 230 281 337 411
#
# _framework density 20.174575999999998
#
# number of rings (size 3 to 8) (size 9 to 14) (size 15 to 20)
#    0.000    1.231    3.077    2.769    2.154    1.231 
#    5.538    0.000    0.000    0.000    0.000    0.000 
#    0.000    0.000    0.000    0.000    0.000    0.000 
#
# Total GULP energy -290072.026887 kJ/mol
# GULP energy per Si atom -5578.308209 kJ/mol
# Density = 2.012866 g / cm^3
# Si number density = 20.174576 Si / 1000 Ang^3
#
#
#
# Elastic Constant Matrix: (Units=GPa)
#
#
# Indices 1 2 3 4 5 6 
#
# 1 83.3657 7.6870 3.5934 0.0000 0.0000 0.0000
# 2 7.6870 103.1814 -0.2667 0.0000 0.0000 0.0000
# 3 3.5934 -0.2667 72.5421 0.0000 0.0000 0.0000
# 4 0.0000 0.0000 0.0000 22.1975 0.0000 0.0000
# 5 0.0000 0.0000 0.0000 0.0000 27.7730 0.0000
# 6 0.0000 0.0000 0.0000 0.0000 0.0000 25.1478
#
#
#
# Elastic Compliance Matrix: (Units=1/GPa)
#
#
# Indices 1 2 3 4 5 6 
#
# 1 0.012105 -0.000903 -0.000603 0.000000 0.000000 0.000000
# 2 -0.000903 0.009759 0.000081 0.000000 0.000000 0.000000
# 3 -0.000603 0.000081 0.013815 0.000000 0.000000 0.000000
# 4 0.000000 0.000000 0.000000 0.045050 0.000000 0.000000
# 5 0.000000 0.000000 0.000000 0.000000 0.036006 0.000000
# 6 0.000000 0.000000 0.000000 0.000000 0.000000 0.039765
#
#
# Mechanical properties :
#
#
# Convention : Reuss Voigt Hill
#
# Bulk Modulus (GPa) = 30.46202 31.23517 30.84860
# Shear Modulus (GPa) = 29.36095 31.56202 30.46149
#
# Velocity S-wave (km/s) = 3.81904 3.95960 3.88995
# Velocity P-wave (km/s) = 5.88037 6.03495 5.95816
#
# Compressibility (1/GPa) = 0.03282777
#
# Stress axis : x y z
#
# Youngs Moduli (GPa) = 82.61304 102.46765 72.38372
#
# Poissons Ratio (x) = 0.09256 0.04364
# Poissons Ratio (y) = 0.07463 -0.00584
# Poissons Ratio (z) = 0.04981 -0.00826
#
# Static dielectric constant tensor:
#      x y z
#    x 1.717320 0.000000 0.000000 
#    y 0.000000 1.687940 0.000000 
#    z 0.000000 0.000000 1.812350 
# 
# From -- ./inp_files/7911.got.cif
#   From: 2010.05.17/outbox.cif.g08.bks.cpg/sg73_4_cif.got.tgz:7911.got - 2010.06.03 17:35:07.
