data_PCOD9530100
_publ_section_title
;
Structure prediction by ZEFSAII (Michael W. Deem and Ramdas Pophale) SiO2 
 PCOD9530100
Probable space group: I B C A 
;
_chemical_formula_sum "Si O2"
_cell_formula_units_Z 80
_cell_length_a 24.179039
_cell_length_b 8.728655
_cell_length_c 14.021831
_cell_angle_alpha 90.000000
_cell_angle_beta 90.000000
_cell_angle_gamma 90.000000
_cell_volume 2959.314299
_symmetry_space_group_name_H-M "I B C A "
_symmetry_group_IT_number 73
_symmetry_cell_setting 'orthorhombic'
loop_
_space_group_symop_operation_xyz
x,y,z
-x,1/2-y,z
x,-y,1/2-z
1/2-x,y,-z
-x,-y,-z
x,1/2+y,-z
-x,y,1/2+z
1/2+x,-y,z
1/2+x,1/2+y,1/2+z
1/2-x,-y,1/2+z
1/2+x,1/2-y,-z
-x,1/2+y,1/2-z
1/2-x,1/2-y,1/2-z
1/2+x,y,1/2-z
1/2-x,1/2+y,z
x,1/2-y,1/2+z
loop_
_atom_site_type_symbol
_atom_site_label
_atom_site_fract_x
_atom_site_fract_y
_atom_site_fract_z
Si Si1 0.061046 0.954491 0.528080
Si Si2 0.943492 0.322072 0.776925
Si Si3 0.735796 0.569527 0.613273
Si Si4 0.635564 0.740984 0.060180
Si Si5 0.330389 0.226775 0.662381
O O1 0.099823 0.087679 0.573189
O O2 0.052262 0.827529 0.608684
O O3 0.093431 0.884270 0.438327
O O4 0.000000 0.000000 0.500000
O O5 0.942516 0.500000 0.750000
O O6 0.883493 0.240973 0.767804
O O7 0.000000 0.250000 0.736515
O O8 0.750000 0.536335 0.500000
O O9 0.692308 0.711966 0.610740
O O10 0.705481 0.426921 0.661305
O O11 0.790133 0.627022 0.667157
O O12 0.651942 0.732108 0.948752
#
# Coordination Sequence:
#
# PCOD9530100 Si02
#       5
#    16  16  16  16  16
#     4  11  21  37  63 102 135 170 226 290 336 407
#     4  11  27  50  68  92 134 180 234 287 353 426
#     4  10  19  33  63 100 143 178 213 273 348 402
#     4  10  19  32  58  97 140 171 210 274 345 394
#     4  10  21  38  62  98 134 175 226 270 333 414
#
# _framework density 27.033290000000001
#
# number of rings (size 3 to 8) (size 9 to 14) (size 15 to 20)
#    0.000    1.600    2.000    4.800    5.600    1.600 
#    0.000    1.000    0.000    0.000    0.000    0.000 
#    0.000    0.000    0.000    0.000    0.000    0.000 
#
# Total GULP energy -223826.049894 kJ/mol
# GULP energy per Si atom -5595.651247 kJ/mol
# Density = 2.697176 g / cm^3
# Si number density = 27.033290 Si / 1000 Ang^3
#
#
#
# Elastic Constant Matrix: (Units=GPa)
#
#
# Indices 1 2 3 4 5 6 
#
# 1 212.3848 96.7778 46.3061 0.0000 0.0000 0.0000
# 2 96.7778 138.3275 18.2672 0.0000 0.0000 0.0000
# 3 46.3061 18.2672 48.5985 0.0000 0.0000 0.0000
# 4 0.0000 0.0000 0.0000 35.5566 0.0000 0.0000
# 5 0.0000 0.0000 0.0000 0.0000 34.5428 0.0000
# 6 0.0000 0.0000 0.0000 0.0000 0.0000 80.7774
#
#
#
# Elastic Compliance Matrix: (Units=1/GPa)
#
#
# Indices 1 2 3 4 5 6 
#
# 1 0.008310 -0.005017 -0.006032 0.000000 0.000000 0.000000
# 2 -0.005017 0.010636 0.000783 0.000000 0.000000 0.000000
# 3 -0.006032 0.000783 0.026030 0.000000 0.000000 0.000000
# 4 0.000000 0.000000 0.000000 0.028124 0.000000 0.000000
# 5 0.000000 0.000000 0.000000 0.000000 0.028950 0.000000
# 6 0.000000 0.000000 0.000000 0.000000 0.000000 0.012380
#
#
# Mechanical properties :
#
#
# Convention : Reuss Voigt Hill
#
# Bulk Modulus (GPa) = 40.91178 80.22368 60.56773
# Shear Modulus (GPa) = 34.93823 46.03935 40.48879
#
# Velocity S-wave (km/s) = 3.59892 4.13129 3.87426
# Velocity P-wave (km/s) = 5.69529 7.24549 6.51665
#
# Compressibility (1/GPa) = 0.02444284
#
# Stress axis : x y z
#
# Youngs Moduli (GPa) = 120.34050 94.02011 38.41727
#
# Poissons Ratio (x) = 0.47172 0.23173
# Poissons Ratio (y) = 0.60377 -0.03007
# Poissons Ratio (z) = 0.72588 -0.07358
#
# Static dielectric constant tensor:
#      x y z
#    x 2.268460 0.000000 0.000000 
#    y 0.000000 2.158530 0.000000 
#    z 0.000000 0.000000 2.170810 
# 
# From -- ./inp_files/23796.got.cif
#   From: 2010.05.17/outbox.cif.g08.bks.cpg/sg73_12_cif.got.tgz:23796.got - 2010.06.03 17:35:07.
