data_PCOD9530845
_publ_section_title
;
Structure prediction by ZEFSAII (Michael W. Deem and Ramdas Pophale) SiO2 
 PCOD9530845
Probable space group: I B C A 
;
_chemical_formula_sum "Si O2"
_cell_formula_units_Z 88
_cell_length_a 23.864478
_cell_length_b 16.866348
_cell_length_c 9.502679
_cell_angle_alpha 90.000000
_cell_angle_beta 90.000000
_cell_angle_gamma 90.000000
_cell_volume 3824.890928
_symmetry_space_group_name_H-M "I B C A "
_symmetry_group_IT_number 73
_symmetry_cell_setting 'orthorhombic'
loop_
_space_group_symop_operation_xyz
x,y,z
-x,1/2-y,z
x,-y,1/2-z
1/2-x,y,-z
-x,-y,-z
x,1/2+y,-z
-x,y,1/2+z
1/2+x,-y,z
1/2+x,1/2+y,1/2+z
1/2-x,-y,1/2+z
1/2+x,1/2-y,-z
-x,1/2+y,1/2-z
1/2-x,1/2-y,1/2-z
1/2+x,y,1/2-z
1/2-x,1/2+y,z
x,1/2-y,1/2+z
loop_
_atom_site_type_symbol
_atom_site_label
_atom_site_fract_x
_atom_site_fract_y
_atom_site_fract_z
Si Si1 0.678822 0.638430 0.741399
Si Si2 0.448491 0.701241 0.992950
Si Si3 0.931032 0.454013 0.119790
Si Si4 0.250000 0.566986 0.000000
Si Si5 0.843319 0.556998 0.967936
Si Si6 0.376510 0.200469 0.279987
O O1 0.622363 0.594682 0.683462
O O2 0.725789 0.615993 0.629969
O O3 0.669653 0.731840 0.743848
O O4 0.683080 0.602519 0.896632
O O5 0.500000 0.750000 0.931763
O O6 0.466942 0.615801 0.052175
O O7 0.420382 0.757161 0.112017
O O8 0.404612 0.685223 0.869807
O O9 0.958367 0.500000 0.250000
O O10 0.902120 0.516412 0.014718
O O11 0.200362 0.512417 0.060734
O O12 0.853748 0.621078 0.848915
#
# Coordination Sequence:
#
# PCOD9530845 Si02
#       6
#    16  16  16   8  16  16
#     4   9  19  40  62  93 136 177 222 277 345 417
#     4  11  23  42  71 101 133 180 235 285 340 416
#     4   8  18  39  69  95 135 182 212 279 355 403
#     4  10  20  38  64  96 126 182 232 288 334 412
#     4  10  20  41  64  95 137 179 233 275 345 424
#     4  11  22  42  68  96 138 185 222 287 357 400
#
# _framework density 23.007192
#
# number of rings (size 3 to 8) (size 9 to 14) (size 15 to 20)
#    0.000    2.182    1.818    2.182    0.000    1.455 
#   19.636    2.727    0.000    0.000    0.000    0.000 
#    0.000    0.000    0.000    0.000    0.000    0.000 
#
# Total GULP energy -246245.946354 kJ/mol
# GULP energy per Si atom -5596.498781 kJ/mol
# Density = 2.295483 g / cm^3
# Si number density = 23.007192 Si / 1000 Ang^3
#
#
#
# Elastic Constant Matrix: (Units=GPa)
#
#
# Indices 1 2 3 4 5 6 
#
# 1 34.3591 38.2039 15.2865 0.0000 0.0000 0.0000
# 2 38.2039 146.0877 58.0691 0.0000 0.0000 0.0000
# 3 15.2865 58.0691 83.7866 0.0000 0.0000 0.0000
# 4 0.0000 0.0000 0.0000 -82.9647 0.0000 0.0000
# 5 0.0000 0.0000 0.0000 0.0000 34.1461 0.0000
# 6 0.0000 0.0000 0.0000 0.0000 0.0000 24.1628
#
#
#
# Elastic Compliance Matrix: (Units=1/GPa)
#
#
# Indices 1 2 3 4 5 6 
#
# 1 0.041037 -0.010705 -0.000068 0.000000 0.000000 0.000000
# 2 -0.010705 0.012240 -0.006530 0.000000 0.000000 0.000000
# 3 -0.000068 -0.006530 0.016473 0.000000 0.000000 0.000000
# 4 0.000000 0.000000 0.000000 -0.012053 0.000000 0.000000
# 5 0.000000 0.000000 0.000000 0.000000 0.029286 0.000000
# 6 0.000000 0.000000 0.000000 0.000000 0.000000 0.041386
#
#
# Mechanical properties :
#
#
# Convention : Reuss Voigt Hill
#
# Bulk Modulus (GPa) = 28.45366 54.15026 41.30196
# Shear Modulus (GPa) = 28.62205 5.24712 16.93458
#
# Velocity S-wave (km/s) = 3.53093 1.51182 2.71598
# Velocity P-wave (km/s) = 5.38678 5.16089 5.27505
#
# Compressibility (1/GPa) = 0.03514486
#
# Stress axis : x y z
#
# Youngs Moduli (GPa) = 24.36813 81.69670 60.70399
#
# Poissons Ratio (x) = 0.87454 0.00413
# Poissons Ratio (y) = 0.26085 0.39642
# Poissons Ratio (z) = 0.00166 0.53350
#
# Static dielectric constant tensor:
#      x y z
#    x 1.879510 0.000000 0.000000 
#    y 0.000000 1.840780 0.000000 
#    z 0.000000 0.000000 1.926950 
# 
# From -- ./inp_files/8380.got.cif
#   From: 2010.05.17/outbox.cif.g08.bks.cpg/sg73_5_cif.got.tgz:8380.got - 2010.06.03 17:35:07.
