data_PCOD9530515
_publ_section_title
;
Structure prediction by ZEFSAII (Michael W. Deem and Ramdas Pophale) SiO2 
 PCOD9530515
Probable space group: I B C A 
;
_chemical_formula_sum "Si O2"
_cell_formula_units_Z 64
_cell_length_a 8.263270
_cell_length_b 16.166568
_cell_length_c 20.994254
_cell_angle_alpha 90.000000
_cell_angle_beta 90.000000
_cell_angle_gamma 90.000000
_cell_volume 2804.595443
_symmetry_space_group_name_H-M "I B C A "
_symmetry_group_IT_number 73
_symmetry_cell_setting 'orthorhombic'
loop_
_space_group_symop_operation_xyz
x,y,z
-x,1/2-y,z
x,-y,1/2-z
1/2-x,y,-z
-x,-y,-z
x,1/2+y,-z
-x,y,1/2+z
1/2+x,-y,z
1/2+x,1/2+y,1/2+z
1/2-x,-y,1/2+z
1/2+x,1/2-y,-z
-x,1/2+y,1/2-z
1/2-x,1/2-y,1/2-z
1/2+x,y,1/2-z
1/2-x,1/2+y,z
x,1/2-y,1/2+z
loop_
_atom_site_type_symbol
_atom_site_label
_atom_site_fract_x
_atom_site_fract_y
_atom_site_fract_z
Si Si1 0.378827 0.326098 0.697766
Si Si2 0.208230 0.624149 0.065379
Si Si3 0.658964 0.945486 0.435620
Si Si4 0.809038 0.920103 0.705183
O O1 0.500000 0.250000 0.697715
O O2 0.281145 0.327792 0.631697
O O3 0.269394 0.342732 0.758564
O O4 0.499542 0.405022 0.699708
O O5 0.328651 0.545421 0.065727
O O6 0.250000 0.671239 0.000000
O O7 0.023429 0.589385 0.062568
O O8 0.750000 0.918843 0.500000
O O9 0.744178 0.923304 0.368376
O O10 0.784986 0.000000 0.750000
#
# Coordination Sequence:
#
# PCOD9530515 Si02
#       4
#    16  16  16  16
#     4  11  24  40  60  92 130 167 207 258 323 380
#     4  10  20  36  59  88 122 159 203 256 312 373
#     4  10  20  34  59  93 118 154 206 264 312 359
#     4  11  22  39  64  90 120 164 214 261 312 379
#
# _framework density 22.819690999999999
#
# number of rings (size 3 to 8) (size 9 to 14) (size 15 to 20)
#    0.000    1.500    2.500    4.500    3.500    2.000 
#    0.000    5.000    0.000    3.000    0.000    0.000 
#    0.000    0.000    0.000    0.000    0.000    0.000 
#
# Total GULP energy -178593.087994 kJ/mol
# GULP energy per Si atom -5581.034000 kJ/mol
# Density = 2.276775 g / cm^3
# Si number density = 22.819691 Si / 1000 Ang^3
#
#
#
# Elastic Constant Matrix: (Units=GPa)
#
#
# Indices 1 2 3 4 5 6 
#
# 1 40.9983 2.1204 44.4588 0.0000 0.0000 0.0000
# 2 2.1204 44.6323 44.4296 0.0000 0.0000 0.0000
# 3 44.4588 44.4296 261.0605 0.0000 0.0000 0.0000
# 4 0.0000 0.0000 0.0000 9.1826 0.0000 0.0000
# 5 0.0000 0.0000 0.0000 0.0000 39.2327 0.0000
# 6 0.0000 0.0000 0.0000 0.0000 0.0000 26.9815
#
#
#
# Elastic Compliance Matrix: (Units=1/GPa)
#
#
# Indices 1 2 3 4 5 6 
#
# 1 0.030650 0.004503 -0.005986 0.000000 0.000000 0.000000
# 2 0.004503 0.027637 -0.005470 0.000000 0.000000 0.000000
# 3 -0.005986 -0.005470 0.005781 0.000000 0.000000 0.000000
# 4 0.000000 0.000000 0.000000 0.108902 0.000000 0.000000
# 5 0.000000 0.000000 0.000000 0.000000 0.025489 0.000000
# 6 0.000000 0.000000 0.000000 0.000000 0.000000 0.037062
#
#
# Mechanical properties :
#
#
# Convention : Reuss Voigt Hill
#
# Bulk Modulus (GPa) = 19.93617 58.74542 39.34079
# Shear Modulus (GPa) = 18.78654 32.12483 25.45569
#
# Velocity S-wave (km/s) = 2.87236 3.75609 3.34355
# Velocity P-wave (km/s) = 4.44477 6.67909 5.67301
#
# Compressibility (1/GPa) = 0.05016009
#
# Stress axis : x y z
#
# Youngs Moduli (GPa) = 32.62693 36.18362 172.98284
#
# Poissons Ratio (x) = -0.16292 1.03546
# Poissons Ratio (y) = -0.14691 0.94627
# Poissons Ratio (z) = 0.19530 0.19793
#
# Static dielectric constant tensor:
#      x y z
#    x 1.846090 0.000000 0.000000 
#    y 0.000000 1.920020 0.000000 
#    z 0.000000 0.000000 1.941890 
# 
# From -- ./inp_files/24601.got.cif
#   From: 2010.05.17/outbox.cif.g08.bks.cpg/sg73_13_cif.got.tgz:24601.got - 2010.06.03 17:35:07.
