data_PCOD9530699
_publ_section_title
;
Structure prediction by ZEFSAII (Michael W. Deem and Ramdas Pophale) SiO2 
 PCOD9530699
Probable space group: I B C A 
;
_chemical_formula_sum "Si O2"
_cell_formula_units_Z 88
_cell_length_a 32.395825
_cell_length_b 23.521807
_cell_length_c 5.336486
_cell_angle_alpha 90.000000
_cell_angle_beta 90.000000
_cell_angle_gamma 90.000000
_cell_volume 4066.446856
_symmetry_space_group_name_H-M "I B C A "
_symmetry_group_IT_number 73
_symmetry_cell_setting 'orthorhombic'
loop_
_space_group_symop_operation_xyz
x,y,z
-x,1/2-y,z
x,-y,1/2-z
1/2-x,y,-z
-x,-y,-z
x,1/2+y,-z
-x,y,1/2+z
1/2+x,-y,z
1/2+x,1/2+y,1/2+z
1/2-x,-y,1/2+z
1/2+x,1/2-y,-z
-x,1/2+y,1/2-z
1/2-x,1/2-y,1/2-z
1/2+x,y,1/2-z
1/2-x,1/2+y,z
x,1/2-y,1/2+z
loop_
_atom_site_type_symbol
_atom_site_label
_atom_site_fract_x
_atom_site_fract_y
_atom_site_fract_z
Si Si1 0.687585 0.444235 0.353448
Si Si2 0.371404 0.500000 0.250000
Si Si3 0.866722 0.281843 0.848071
Si Si4 0.606078 0.092720 0.583487
Si Si5 0.477983 0.068093 0.280298
Si Si6 0.725078 0.676372 0.240550
O O1 0.711041 0.500000 0.250000
O O2 0.661161 0.461234 0.594746
O O3 0.650435 0.431772 0.162141
O O4 0.712288 0.386314 0.359468
O O5 0.402377 0.452644 0.365386
O O6 0.877710 0.263431 0.564452
O O7 0.886601 0.340661 0.944376
O O8 0.817355 0.292241 0.816858
O O9 0.570071 0.084099 0.782902
O O10 0.501434 0.090067 0.524082
O O11 0.480597 0.000000 0.250000
O O12 0.750000 0.669757 0.500000
O O13 0.750000 0.702053 0.000000
#
# Coordination Sequence:
#
# PCOD9530699 Si02
#       6
#    16   8  16  16  16  16
#     4   9  21  36  58  88 123 166 212 251 316 384
#     4  10  20  36  68  92 124 170 204 270 310 378
#     4  11  26  45  69  91 119 166 221 269 314 375
#     4  10  23  39  65  93 129 166 218 261 316 377
#     4  10  22  36  59  97 138 169 198 245 313 377
#     4  11  25  40  63  89 124 159 205 267 331 382
#
# _framework density 21.640514
#
# number of rings (size 3 to 8) (size 9 to 14) (size 15 to 20)
#    0.000    1.818    0.000    2.727   19.091    2.909 
#    0.000    0.000    0.000    3.273    0.000    0.000 
#    0.000    0.000    0.000    0.000    0.000    0.000 
#
# Total GULP energy -245295.671462 kJ/mol
# GULP energy per Si atom -5574.901624 kJ/mol
# Density = 2.159126 g / cm^3
# Si number density = 21.640514 Si / 1000 Ang^3
#
#
#
# Elastic Constant Matrix: (Units=GPa)
#
#
# Indices 1 2 3 4 5 6 
#
# 1 37.1696 6.3925 14.9584 0.0000 0.0000 0.0000
# 2 6.3925 93.7067 28.0411 0.0000 0.0000 0.0000
# 3 14.9584 28.0411 87.7947 0.0000 0.0000 0.0000
# 4 0.0000 0.0000 0.0000 13.8540 0.0000 0.0000
# 5 0.0000 0.0000 0.0000 0.0000 31.3590 0.0000
# 6 0.0000 0.0000 0.0000 0.0000 0.0000 15.5759
#
#
#
# Elastic Compliance Matrix: (Units=1/GPa)
#
#
# Indices 1 2 3 4 5 6 
#
# 1 0.028910 -0.000551 -0.004750 0.000000 0.000000 0.000000
# 2 -0.000551 0.011810 -0.003678 0.000000 0.000000 0.000000
# 3 -0.004750 -0.003678 0.013374 0.000000 0.000000 0.000000
# 4 0.000000 0.000000 0.000000 0.072181 0.000000 0.000000
# 5 0.000000 0.000000 0.000000 0.000000 0.031889 0.000000
# 6 0.000000 0.000000 0.000000 0.000000 0.000000 0.064202
#
#
# Mechanical properties :
#
#
# Convention : Reuss Voigt Hill
#
# Bulk Modulus (GPa) = 27.67280 35.27277 31.47279
# Shear Modulus (GPa) = 19.81229 23.44305 21.62767
#
# Velocity S-wave (km/s) = 3.02904 3.29491 3.16477
# Velocity P-wave (km/s) = 5.00486 5.55068 5.28483
#
# Compressibility (1/GPa) = 0.03613657
#
# Stress axis : x y z
#
# Youngs Moduli (GPa) = 34.59020 84.67527 74.77062
#
# Poissons Ratio (x) = 0.04664 0.35514
# Poissons Ratio (y) = 0.01905 0.27502
# Poissons Ratio (z) = 0.16429 0.31145
#
# Static dielectric constant tensor:
#      x y z
#    x 1.768640 0.000000 0.000000 
#    y 0.000000 1.838330 0.000000 
#    z 0.000000 0.000000 2.061310 
# 
# From -- ./inp_files/3109.got.cif
#   From: 2010.05.17/outbox.cif.g08.bks.cpg/sg73_2_cif.got.tgz:3109.got - 2010.06.03 17:35:07.
