data_PCOD9530751
_publ_section_title
;
Structure prediction by ZEFSAII (Michael W. Deem and Ramdas Pophale) SiO2 
 PCOD9530751
Probable space group: I B C A 
;
_chemical_formula_sum "Si O2"
_cell_formula_units_Z 112
_cell_length_a 15.079078
_cell_length_b 23.066986
_cell_length_c 13.632846
_cell_angle_alpha 90.000000
_cell_angle_beta 90.000000
_cell_angle_gamma 90.000000
_cell_volume 4741.897571
_symmetry_space_group_name_H-M "I B C A "
_symmetry_group_IT_number 73
_symmetry_cell_setting 'orthorhombic'
loop_
_space_group_symop_operation_xyz
x,y,z
-x,1/2-y,z
x,-y,1/2-z
1/2-x,y,-z
-x,-y,-z
x,1/2+y,-z
-x,y,1/2+z
1/2+x,-y,z
1/2+x,1/2+y,1/2+z
1/2-x,-y,1/2+z
1/2+x,1/2-y,-z
-x,1/2+y,1/2-z
1/2-x,1/2-y,1/2-z
1/2+x,y,1/2-z
1/2-x,1/2+y,z
x,1/2-y,1/2+z
loop_
_atom_site_type_symbol
_atom_site_label
_atom_site_fract_x
_atom_site_fract_y
_atom_site_fract_z
Si Si1 0.324059 0.475424 0.417204
Si Si2 0.653069 0.755379 0.050789
Si Si3 0.181680 0.061462 0.760537
Si Si4 0.546803 0.372629 0.938781
Si Si5 0.052216 0.682854 0.613001
Si Si6 0.414924 0.830497 0.221975
Si Si7 0.798151 0.397157 0.404520
O O1 0.250000 0.468647 0.500000
O O2 0.269678 0.453996 0.321969
O O3 0.404589 0.433198 0.435009
O O4 0.350846 0.542878 0.419690
O O5 0.616628 0.819521 0.074510
O O6 0.637852 0.715261 0.150100
O O7 0.750000 0.757836 0.000000
O O8 0.589693 0.730650 0.963536
O O9 0.138482 0.122643 0.788322
O O10 0.214903 0.079045 0.654002
O O11 0.130500 0.000000 0.750000
O O12 0.473914 0.366858 0.854264
O O13 0.497231 0.361434 0.040396
O O14 0.141206 0.649682 0.648462
O O15 0.985474 0.695072 0.701211
O O16 0.750000 0.371400 0.500000
#
# Coordination Sequence:
#
# PCOD9530751 Si02
#       7
#    16  16  16  16  16  16  16
#     4  10  21  38  58  87 124 162 204 245 296 363
#     4  11  25  45  66  87 121 167 210 253 307 370
#     4  10  21  38  60  88 123 160 200 247 299 365
#     4  11  24  40  60  89 125 158 202 260 309 357
#     4  11  22  39  63  92 124 156 202 260 312 362
#     4  11  23  39  63  92 121 157 204 253 308 365
#     4  10  20  37  63  89 121 164 204 244 299 370
#
# _framework density 23.619236999999998
#
# number of rings (size 3 to 8) (size 9 to 14) (size 15 to 20)
#    0.000    1.429    0.000    6.857    0.000    4.000 
#    0.000    2.143    0.000    0.000    0.000    0.000 
#    0.000    0.000    0.000    0.000    0.000    0.000 
#
# Total GULP energy -312494.987279 kJ/mol
# GULP energy per Si atom -5580.267630 kJ/mol
# Density = 2.356548 g / cm^3
# Si number density = 23.619237 Si / 1000 Ang^3
#
#
#
# Elastic Constant Matrix: (Units=GPa)
#
#
# Indices 1 2 3 4 5 6 
#
# 1 84.0312 28.7174 6.5126 0.0000 0.0000 0.0000
# 2 28.7174 96.9174 -20.5885 0.0000 0.0000 0.0000
# 3 6.5126 -20.5885 75.9420 0.0001 0.0000 0.0000
# 4 0.0000 0.0000 0.0001 -19.0088 0.0000 0.0000
# 5 0.0000 0.0000 0.0000 0.0000 30.8719 0.0000
# 6 0.0000 0.0000 0.0000 0.0000 0.0000 20.0568
#
#
#
# Elastic Compliance Matrix: (Units=1/GPa)
#
#
# Indices 1 2 3 4 5 6 
#
# 1 0.013643 -0.004553 -0.002404 0.000000 0.000000 0.000000
# 2 -0.004553 0.012468 0.003771 0.000000 0.000000 0.000000
# 3 -0.002404 0.003771 0.014396 0.000000 0.000000 0.000000
# 4 0.000000 0.000000 0.000000 -0.052607 0.000000 0.000000
# 5 0.000000 0.000000 0.000000 0.000000 0.032392 0.000000
# 6 0.000000 0.000000 0.000000 0.000000 0.000000 0.049858
#
#
# Mechanical properties :
#
#
# Convention : Reuss Voigt Hill
#
# Bulk Modulus (GPa) = 29.29661 31.79704 30.54683
# Shear Modulus (GPa) = 56.88157 22.53394 39.70776
#
# Velocity S-wave (km/s) = 4.91274 3.09212 4.10465
# Velocity P-wave (km/s) = 6.67912 5.12249 5.95191
#
# Compressibility (1/GPa) = 0.03413364
#
# Stress axis : x y z
#
# Youngs Moduli (GPa) = 73.29905 80.20377 69.46172
#
# Poissons Ratio (x) = 0.36519 0.16701
# Poissons Ratio (y) = 0.33375 -0.26192
# Poissons Ratio (z) = 0.17624 -0.30243
#
# Static dielectric constant tensor:
#      x y z
#    x 1.985760 0.000000 0.000000 
#    y 0.000000 2.018480 0.000000 
#    z 0.000000 0.000000 1.951430 
# 
# From -- ./inp_files/17245.got.cif
#   From: 2010.05.17/outbox.cif.g08.bks.cpg/sg73_9_cif.got.tgz:17245.got - 2010.06.03 17:35:07.
