data_PCOD9530735
_publ_section_title
;
Structure prediction by ZEFSAII (Michael W. Deem and Ramdas Pophale) SiO2 
 PCOD9530735
Probable space group: I B C A 
;
_chemical_formula_sum "Si O2"
_cell_formula_units_Z 88
_cell_length_a 15.935268
_cell_length_b 18.775161
_cell_length_c 13.481309
_cell_angle_alpha 90.000000
_cell_angle_beta 90.000000
_cell_angle_gamma 90.000000
_cell_volume 4033.435392
_symmetry_space_group_name_H-M "I B C A "
_symmetry_group_IT_number 73
_symmetry_cell_setting 'orthorhombic'
loop_
_space_group_symop_operation_xyz
x,y,z
-x,1/2-y,z
x,-y,1/2-z
1/2-x,y,-z
-x,-y,-z
x,1/2+y,-z
-x,y,1/2+z
1/2+x,-y,z
1/2+x,1/2+y,1/2+z
1/2-x,-y,1/2+z
1/2+x,1/2-y,-z
-x,1/2+y,1/2-z
1/2-x,1/2-y,1/2-z
1/2+x,y,1/2-z
1/2-x,1/2+y,z
x,1/2-y,1/2+z
loop_
_atom_site_type_symbol
_atom_site_label
_atom_site_fract_x
_atom_site_fract_y
_atom_site_fract_z
Si Si1 0.954066 0.392619 0.934487
Si Si2 0.000000 0.250000 0.020871
Si Si3 0.903291 0.933112 0.684610
Si Si4 0.774142 0.325923 0.387110
Si Si5 0.384267 0.650742 0.129177
Si Si6 0.191736 0.326280 0.312009
O O1 0.879884 0.373441 0.859522
O O2 0.017271 0.447323 0.884994
O O3 0.009798 0.320746 0.955090
O O4 0.910005 0.403181 0.040753
O O5 0.922303 0.274826 0.089273
O O6 0.828744 0.897120 0.623586
O O7 0.926095 0.874468 0.769066
O O8 0.875761 0.000000 0.750000
O O9 0.750000 0.313939 0.500000
O O10 0.821630 0.255231 0.346634
O O11 0.699816 0.332820 0.306134
O O12 0.284746 0.654488 0.146102
#
# Coordination Sequence:
#
# PCOD9530735 Si02
#       6
#    16   8  16  16  16  16
#     4  10  20  37  61  91 122 166 208 267 329 381
#     4   8  20  34  60  96 114 158 198 272 340 376
#     4  11  25  42  58  88 134 179 225 255 307 403
#     4  10  22  38  64  94 126 169 208 273 337 394
#     4   9  21  39  61  94 127 159 208 275 330 387
#     4  10  20  37  64  99 130 149 213 284 341 389
#
# _framework density 21.817630999999999
#
# number of rings (size 3 to 8) (size 9 to 14) (size 15 to 20)
#    1.091    1.091    0.000    2.727    2.545    7.273 
#    0.000    7.273    0.000    0.000    0.000    0.000 
#    0.000    0.000    0.000    0.000    0.000    0.000 
#
# Total GULP energy -245368.639714 kJ/mol
# GULP energy per Si atom -5576.559994 kJ/mol
# Density = 2.176797 g / cm^3
# Si number density = 21.817631 Si / 1000 Ang^3
#
#
#
# Elastic Constant Matrix: (Units=GPa)
#
#
# Indices 1 2 3 4 5 6 
#
# 1 72.9603 31.0907 40.8001 0.0000 0.0000 0.0000
# 2 31.0907 45.9447 13.8733 0.0000 0.0000 0.0000
# 3 40.8001 13.8733 143.9453 0.0000 0.0000 0.0000
# 4 0.0000 0.0000 0.0000 18.2985 0.0000 0.0000
# 5 0.0000 0.0000 0.0000 0.0000 17.0440 0.0000
# 6 0.0000 0.0000 0.0000 0.0000 0.0000 13.0548
#
#
#
# Elastic Compliance Matrix: (Units=1/GPa)
#
#
# Indices 1 2 3 4 5 6 
#
# 1 0.022291 -0.013571 -0.005010 0.000000 0.000000 0.000000
# 2 -0.013571 0.030680 0.000890 0.000000 0.000000 0.000000
# 3 -0.005010 0.000890 0.008281 0.000000 0.000000 0.000000
# 4 0.000000 0.000000 0.000000 0.054649 0.000000 0.000000
# 5 0.000000 0.000000 0.000000 0.000000 0.058672 0.000000
# 6 0.000000 0.000000 0.000000 0.000000 0.000000 0.076600
#
#
# Mechanical properties :
#
#
# Convention : Reuss Voigt Hill
#
# Bulk Modulus (GPa) = 38.65617 48.26427 43.46022
# Shear Modulus (GPa) = 16.93878 21.48523 19.21200
#
# Velocity S-wave (km/s) = 2.78938 3.14150 2.97066
# Velocity P-wave (km/s) = 5.30382 5.94377 5.63289
#
# Compressibility (1/GPa) = 0.02586909
#
# Stress axis : x y z
#
# Youngs Moduli (GPa) = 44.86105 32.59414 120.75215
#
# Poissons Ratio (x) = 0.44235 0.60499
# Poissons Ratio (y) = 0.60883 -0.10744
# Poissons Ratio (z) = 0.22476 -0.02900
#
# Static dielectric constant tensor:
#      x y z
#    x 1.811240 0.000000 0.000000 
#    y 0.000000 1.840710 0.000000 
#    z 0.000000 0.000000 1.835610 
# 
# From -- ./inp_files/17939.got.cif
#   From: 2010.05.17/outbox.cif.g08.bks.cpg/sg73_9_cif.got.tgz:17939.got - 2010.06.03 17:35:07.
