data_PCOD9530105
_publ_section_title
;
Structure prediction by ZEFSAII (Michael W. Deem and Ramdas Pophale) SiO2 
 PCOD9530105
Probable space group: I B C A 
;
_chemical_formula_sum "Si O2"
_cell_formula_units_Z 104
_cell_length_a 28.547271
_cell_length_b 8.887303
_cell_length_c 18.568933
_cell_angle_alpha 90.000000
_cell_angle_beta 90.000000
_cell_angle_gamma 90.000000
_cell_volume 4711.091444
_symmetry_space_group_name_H-M "I B C A "
_symmetry_group_IT_number 73
_symmetry_cell_setting 'orthorhombic'
loop_
_space_group_symop_operation_xyz
x,y,z
-x,1/2-y,z
x,-y,1/2-z
1/2-x,y,-z
-x,-y,-z
x,1/2+y,-z
-x,y,1/2+z
1/2+x,-y,z
1/2+x,1/2+y,1/2+z
1/2-x,-y,1/2+z
1/2+x,1/2-y,-z
-x,1/2+y,1/2-z
1/2-x,1/2-y,1/2-z
1/2+x,y,1/2-z
1/2-x,1/2+y,z
x,1/2-y,1/2+z
loop_
_atom_site_type_symbol
_atom_site_label
_atom_site_fract_x
_atom_site_fract_y
_atom_site_fract_z
Si Si1 0.452827 0.000000 0.750000
Si Si2 0.791404 0.889977 0.092810
Si Si3 0.300329 0.968902 0.933481
Si Si4 0.891519 0.566991 0.632981
Si Si5 0.099245 0.071611 0.039815
Si Si6 0.057023 0.765247 0.849507
Si Si7 0.542071 0.330232 0.618744
O O1 0.427073 0.869593 0.704369
O O2 0.480337 0.913067 0.812099
O O3 0.794785 0.710969 0.076210
O O4 0.835331 0.931221 0.143717
O O5 0.738828 0.941692 0.112512
O O6 0.796202 0.983996 0.017955
O O7 0.352621 0.027064 0.919967
O O8 0.895453 0.570764 0.545362
O O9 0.919616 0.426318 0.665884
O O10 0.918124 0.721573 0.649999
O O11 0.078897 0.224114 0.072745
O O12 0.062996 0.947743 0.064735
O O13 0.000000 0.750000 0.849714
O O14 0.500000 0.250000 0.579776
#
# Coordination Sequence:
#
# PCOD9530105 Si02
#       7
#     8  16  16  16  16  16  16
#     4  10  24  44  60  80 110 152 204 272 290 322
#     4  10  20  31  55  84 120 164 198 233 279 349
#     4  10  19  33  52  83 121 165 196 233 283 338
#     4  11  22  35  58  92 124 155 198 230 294 370
#     4  10  22  36  55  88 133 157 184 236 293 364
#     4  11  24  39  60  87 114 161 200 243 300 342
#     4  11  22  39  60  83 116 155 196 245 293 347
#
# _framework density 22.075565000000001
#
# number of rings (size 3 to 8) (size 9 to 14) (size 15 to 20)
#    0.000    1.538    1.538    5.077    8.615    4.308 
#    0.000    0.000    0.000    0.000    0.000   17.231 
#    0.000    0.000    0.000    0.000    0.000    0.000 
#
# Total GULP energy -289899.019416 kJ/mol
# GULP energy per Si atom -5574.981143 kJ/mol
# Density = 2.202532 g / cm^3
# Si number density = 22.075565 Si / 1000 Ang^3
#
#
#
# Elastic Constant Matrix: (Units=GPa)
#
#
# Indices 1 2 3 4 5 6 
#
# 1 118.7288 20.1985 11.0680 0.0000 0.0000 0.0000
# 2 20.1985 110.7344 14.8681 0.0000 0.0000 0.0000
# 3 11.0680 14.8681 41.7215 0.0000 0.0000 0.0000
# 4 0.0000 0.0000 0.0000 35.7902 0.0000 0.0000
# 5 0.0000 0.0000 0.0000 0.0000 1.5514 0.0000
# 6 0.0000 0.0000 0.0000 0.0000 0.0000 26.8651
#
#
#
# Elastic Compliance Matrix: (Units=1/GPa)
#
#
# Indices 1 2 3 4 5 6 
#
# 1 0.008827 -0.001361 -0.001857 0.000000 0.000000 0.000000
# 2 -0.001361 0.009694 -0.003094 0.000000 0.000000 0.000000
# 3 -0.001857 -0.003094 0.025563 0.000000 0.000000 0.000000
# 4 0.000000 0.000000 0.000000 0.027941 0.000000 0.000000
# 5 0.000000 0.000000 0.000000 0.000000 0.644579 0.000000
# 6 0.000000 0.000000 0.000000 0.000000 0.000000 0.037223
#
#
# Mechanical properties :
#
#
# Convention : Reuss Voigt Hill
#
# Bulk Modulus (GPa) = 31.78402 40.38380 36.08391
# Shear Modulus (GPa) = 6.43552 27.84467 17.14010
#
# Velocity S-wave (km/s) = 1.70926 3.55538 2.78947
# Velocity P-wave (km/s) = 4.28071 5.93190 5.17262
#
# Compressibility (1/GPa) = 0.03146235
#
# Stress axis : x y z
#
# Youngs Moduli (GPa) = 113.28687 103.15423 39.11828
#
# Poissons Ratio (x) = 0.14037 0.07263
# Poissons Ratio (y) = 0.15416 0.12102
# Poissons Ratio (z) = 0.21035 0.31913
#
# Static dielectric constant tensor:
#      x y z
#    x 1.931180 0.000000 0.000000 
#    y 0.000000 1.852730 0.000000 
#    z 0.000000 0.000000 1.893160 
# 
# From -- ./inp_files/24963.got.cif
#   From: 2010.05.17/outbox.cif.g08.bks.cpg/sg73_13_cif.got.tgz:24963.got - 2010.06.03 17:35:07.
