data_PCOD9530664
_publ_section_title
;
Structure prediction by ZEFSAII (Michael W. Deem and Ramdas Pophale) SiO2 
 PCOD9530664
Probable space group: I B C A 
;
_chemical_formula_sum "Si O2"
_cell_formula_units_Z 120
_cell_length_a 13.341643
_cell_length_b 23.535152
_cell_length_c 18.591610
_cell_angle_alpha 90.000000
_cell_angle_beta 90.000000
_cell_angle_gamma 90.000000
_cell_volume 5837.720845
_symmetry_space_group_name_H-M "I B C A "
_symmetry_group_IT_number 73
_symmetry_cell_setting 'orthorhombic'
loop_
_space_group_symop_operation_xyz
x,y,z
-x,1/2-y,z
x,-y,1/2-z
1/2-x,y,-z
-x,-y,-z
x,1/2+y,-z
-x,y,1/2+z
1/2+x,-y,z
1/2+x,1/2+y,1/2+z
1/2-x,-y,1/2+z
1/2+x,1/2-y,-z
-x,1/2+y,1/2-z
1/2-x,1/2-y,1/2-z
1/2+x,y,1/2-z
1/2-x,1/2+y,z
x,1/2-y,1/2+z
loop_
_atom_site_type_symbol
_atom_site_label
_atom_site_fract_x
_atom_site_fract_y
_atom_site_fract_z
Si Si1 0.506601 0.334735 0.141432
Si Si2 0.587878 0.000000 0.750000
Si Si3 0.960566 0.810155 0.851202
Si Si4 0.866326 0.322554 0.001164
Si Si5 0.682423 0.804050 0.272765
Si Si6 0.861838 0.542217 0.484444
Si Si7 0.521297 0.038212 0.109627
Si Si8 0.129660 0.876083 0.783170
O O1 0.574134 0.314253 0.073881
O O2 0.412654 0.298330 0.172829
O O3 0.458069 0.394580 0.114389
O O4 0.581093 0.350818 0.208331
O O5 0.517966 0.980060 0.813996
O O6 0.644436 0.943207 0.725662
O O7 0.868191 0.827321 0.800438
O O8 0.000000 0.750000 0.820513
O O9 0.047222 0.856949 0.842173
O O10 0.923663 0.797181 0.930953
O O11 0.750000 0.303744 0.000000
O O12 0.865426 0.389714 0.021758
O O13 0.750000 0.750000 0.250000
O O14 0.765146 0.847517 0.300859
O O15 0.750000 0.525228 0.500000
O O16 0.895977 0.505384 0.417094
O O17 0.931951 0.529812 0.552382
#
# Coordination Sequence:
#
# PCOD9530664 Si02
#       8
#    16   8  16  16  16  16  16  16
#     4   9  21  38  60  89 122 164 210 259 312 376
#     4  10  20  36  62  92 124 156 198 264 312 368
#     4  11  22  40  61  90 119 162 211 258 310 371
#     4  10  20  39  59  88 125 157 209 262 316 372
#     4  11  22  41  65  86 120 169 214 254 317 385
#     4   9  18  33  58  79 115 171 200 240 307 385
#     4   9  18  35  53  87 122 153 208 252 306 366
#     4  10  21  40  62  90 125 162 208 253 315 376
#
# _framework density 20.555966999999999
#
# number of rings (size 3 to 8) (size 9 to 14) (size 15 to 20)
#    0.000    2.133    1.333    1.600    0.000    2.133 
#    4.800    7.333    0.000    0.000    0.000    0.000 
#    0.000    0.000    0.000    0.000    0.000    0.000 
#
# Total GULP energy -334679.058510 kJ/mol
# GULP energy per Si atom -5577.984308 kJ/mol
# Density = 2.050918 g / cm^3
# Si number density = 20.555967 Si / 1000 Ang^3
#
#
#
# Elastic Constant Matrix: (Units=GPa)
#
#
# Indices 1 2 3 4 5 6 
#
# 1 120.5582 36.4290 29.3983 0.0000 0.0000 0.0000
# 2 36.4290 71.4604 10.1050 0.0001 0.0000 0.0000
# 3 29.3983 10.1050 81.7923 0.0001 0.0000 0.0000
# 4 0.0000 0.0001 0.0001 25.1877 0.0000 0.0000
# 5 0.0000 0.0000 0.0000 0.0000 -4.2323 0.0001
# 6 0.0000 0.0000 0.0000 0.0000 0.0001 29.4245
#
#
#
# Elastic Compliance Matrix: (Units=1/GPa)
#
#
# Indices 1 2 3 4 5 6 
#
# 1 0.010563 -0.004934 -0.003187 0.000000 0.000000 0.000000
# 2 -0.004934 0.016547 -0.000271 0.000000 0.000000 0.000000
# 3 -0.003187 -0.000271 0.013405 0.000000 0.000000 0.000000
# 4 0.000000 0.000000 0.000000 0.039702 0.000000 0.000000
# 5 0.000000 0.000000 0.000000 0.000000 -0.236276 0.000000
# 6 0.000000 0.000000 0.000000 0.000000 0.000000 0.033985
#
#
# Mechanical properties :
#
#
# Convention : Reuss Voigt Hill
#
# Bulk Modulus (GPa) = 42.13838 47.29729 44.71783
# Shear Modulus (GPa) = -51.34553 23.26787 -14.03883
#
# Velocity S-wave (km/s) = -5.00326 3.36806 -2.61618
# Velocity P-wave (km/s) = 3.58232 6.17933 3.56028
#
# Compressibility (1/GPa) = 0.02373133
#
# Stress axis : x y z
#
# Youngs Moduli (GPa) = 94.67172 60.43261 74.59882
#
# Poissons Ratio (x) = 0.29818 0.23774
# Poissons Ratio (y) = 0.46711 0.02021
# Poissons Ratio (z) = 0.30172 0.01637
#
# Static dielectric constant tensor:
#      x y z
#    x 1.715160 0.000000 0.000000 
#    y 0.000000 1.797760 0.000000 
#    z 0.000000 0.000000 1.662170 
# 
# From -- ./inp_files/21518.got.cif
#   From: 2010.05.17/outbox.cif.g08.bks.cpg/sg73_11_cif.got.tgz:21518.got - 2010.06.03 17:35:07.
