data_PCOD9530612
_publ_section_title
;
Structure prediction by ZEFSAII (Michael W. Deem and Ramdas Pophale) SiO2 
 PCOD9530612
Probable space group: I B C A 
;
_chemical_formula_sum "Si O2"
_cell_formula_units_Z 120
_cell_length_a 27.648497
_cell_length_b 8.457247
_cell_length_c 19.425462
_cell_angle_alpha 90.000000
_cell_angle_beta 90.000000
_cell_angle_gamma 90.000000
_cell_volume 4542.259049
_symmetry_space_group_name_H-M "I B C A "
_symmetry_group_IT_number 73
_symmetry_cell_setting 'orthorhombic'
loop_
_space_group_symop_operation_xyz
x,y,z
-x,1/2-y,z
x,-y,1/2-z
1/2-x,y,-z
-x,-y,-z
x,1/2+y,-z
-x,y,1/2+z
1/2+x,-y,z
1/2+x,1/2+y,1/2+z
1/2-x,-y,1/2+z
1/2+x,1/2-y,-z
-x,1/2+y,1/2-z
1/2-x,1/2-y,1/2-z
1/2+x,y,1/2-z
1/2-x,1/2+y,z
x,1/2-y,1/2+z
loop_
_atom_site_type_symbol
_atom_site_label
_atom_site_fract_x
_atom_site_fract_y
_atom_site_fract_z
Si Si1 0.248871 0.767662 0.388137
Si Si2 0.656293 0.605666 0.361158
Si Si3 0.334945 0.726500 0.707658
Si Si4 0.798429 0.981641 0.538840
Si Si5 0.073863 0.351888 0.650307
Si Si6 0.599674 0.636015 0.949994
Si Si7 0.971815 0.030814 0.173611
Si Si8 0.500000 0.750000 0.930352
O O1 0.291968 0.894283 0.398695
O O2 0.218228 0.768563 0.318823
O O3 0.284516 0.615694 0.391741
O O4 0.207906 0.834812 0.441631
O O5 0.649479 0.424455 0.339431
O O6 0.663625 0.684525 0.286905
O O7 0.619646 0.714839 0.404480
O O8 0.376915 0.850686 0.692972
O O9 0.750000 0.928366 0.500000
O O10 0.850990 0.926401 0.512894
O O11 0.084687 0.476333 0.590486
O O12 0.056893 0.171794 0.635956
O O13 0.026147 0.411227 0.688525
O O14 0.546591 0.694239 0.974475
O O15 0.949323 0.000000 0.250000
O O16 0.979850 0.884599 0.122129
#
# Coordination Sequence:
#
# PCOD9530612 Si02
#       8
#    16  16  16  16  16  16  16   8
#     4  11  21  42  58  88 121 154 211 264 321 392
#     4  10  23  35  55  84 127 174 213 247 316 377
#     4  11  21  35  55  82 124 171 210 256 306 380
#     4  11  23  42  67  91 117 157 210 281 338 391
#     4  10  21  33  52  80 119 169 220 264 301 362
#     4  10  22  39  58  92 126 166 219 267 321 391
#     4  10  21  33  50  81 124 175 229 263 300 365
#     4  10  20  36  58  82 130 178 210 268 328 382
#
# _framework density 26.418572999999999
#
# number of rings (size 3 to 8) (size 9 to 14) (size 15 to 20)
#    0.000    1.600    2.667    2.400    7.467    0.000 
#    0.000    0.000    0.000    0.000    0.000   10.267 
#    0.000    0.000    0.000    0.000    0.000    0.000 
#
# Total GULP energy -334452.984207 kJ/mol
# GULP energy per Si atom -5574.216403 kJ/mol
# Density = 2.635844 g / cm^3
# Si number density = 26.418573 Si / 1000 Ang^3
#
#
#
# Elastic Constant Matrix: (Units=GPa)
#
#
# Indices 1 2 3 4 5 6 
#
# 1 213.7918 36.9739 28.5421 0.0000 0.0000 0.0000
# 2 36.9739 112.3025 24.2354 0.0000 0.0000 0.0000
# 3 28.5421 24.2354 48.1175 0.0000 0.0000 0.0000
# 4 0.0000 0.0000 0.0000 16.7233 0.0000 0.0000
# 5 0.0000 0.0000 0.0000 0.0000 22.2957 0.0000
# 6 0.0000 0.0000 0.0000 0.0000 0.0000 47.8166
#
#
#
# Elastic Compliance Matrix: (Units=1/GPa)
#
#
# Indices 1 2 3 4 5 6 
#
# 1 0.005215 -0.001177 -0.002500 0.000000 0.000000 0.000000
# 2 -0.001177 0.010256 -0.004467 0.000000 0.000000 0.000000
# 3 -0.002500 -0.004467 0.024516 0.000000 0.000000 0.000000
# 4 0.000000 0.000000 0.000000 0.059797 0.000000 0.000000
# 5 0.000000 0.000000 0.000000 0.000000 0.044852 0.000000
# 6 0.000000 0.000000 0.000000 0.000000 0.000000 0.020913
#
#
# Mechanical properties :
#
#
# Convention : Reuss Voigt Hill
#
# Bulk Modulus (GPa) = 42.20008 61.52384 51.86196
# Shear Modulus (GPa) = 26.35219 36.33115 31.34167
#
# Velocity S-wave (km/s) = 3.16173 3.71241 3.44808
# Velocity P-wave (km/s) = 5.41637 6.45869 5.96035
#
# Compressibility (1/GPa) = 0.02369664
#
# Stress axis : x y z
#
# Youngs Moduli (GPa) = 191.75951 97.50175 40.79021
#
# Poissons Ratio (x) = 0.11479 0.10199
# Poissons Ratio (y) = 0.22576 0.18223
# Poissons Ratio (z) = 0.47946 0.43558
#
# Static dielectric constant tensor:
#      x y z
#    x 2.078090 0.000000 0.000000 
#    y 0.000000 2.243240 0.000000 
#    z 0.000000 0.000000 2.255820 
# 
# From -- ./inp_files/28552.got.cif
#   From: 2010.05.17/outbox.cif.g08.bks.cpg/sg73_15_cif.got.tgz:28552.got - 2010.06.03 17:35:07.
