data_PCOD9530136
_publ_section_title
;
Structure prediction by ZEFSAII (Michael W. Deem and Ramdas Pophale) SiO2 
 PCOD9530136
Probable space group: I B C A 
;
_chemical_formula_sum "Si O2"
_cell_formula_units_Z 120
_cell_length_a 26.257390
_cell_length_b 9.113966
_cell_length_c 28.068974
_cell_angle_alpha 90.000000
_cell_angle_beta 90.000000
_cell_angle_gamma 90.000000
_cell_volume 6717.156968
_symmetry_space_group_name_H-M "I B C A "
_symmetry_group_IT_number 73
_symmetry_cell_setting 'orthorhombic'
loop_
_space_group_symop_operation_xyz
x,y,z
-x,1/2-y,z
x,-y,1/2-z
1/2-x,y,-z
-x,-y,-z
x,1/2+y,-z
-x,y,1/2+z
1/2+x,-y,z
1/2+x,1/2+y,1/2+z
1/2-x,-y,1/2+z
1/2+x,1/2-y,-z
-x,1/2+y,1/2-z
1/2-x,1/2-y,1/2-z
1/2+x,y,1/2-z
1/2-x,1/2+y,z
x,1/2-y,1/2+z
loop_
_atom_site_type_symbol
_atom_site_label
_atom_site_fract_x
_atom_site_fract_y
_atom_site_fract_z
Si Si1 0.295581 0.614677 0.709383
Si Si2 0.178979 0.373866 0.780153
Si Si3 0.861895 0.923372 0.623832
Si Si4 0.820431 0.253682 0.609679
Si Si5 0.210809 0.736134 0.057684
Si Si6 0.335616 0.933873 0.023345
Si Si7 0.932499 0.011758 0.957219
Si Si8 0.500000 0.750000 0.011177
O O1 0.313442 0.500000 0.750000
O O2 0.235469 0.583054 0.700206
O O3 0.305810 0.758904 0.740030
O O4 0.318487 0.645131 0.657126
O O5 0.153718 0.500000 0.750000
O O6 0.141982 0.351766 0.824204
O O7 0.828826 0.809440 0.593574
O O8 0.914122 0.946068 0.595514
O O9 0.837703 0.088531 0.622865
O O10 0.764826 0.242304 0.584543
O O11 0.852775 0.333657 0.568120
O O12 0.196534 0.570144 0.043773
O O13 0.198856 0.833326 0.010930
O O14 0.382298 0.994260 0.991421
O O15 0.966283 0.142141 0.978804
O O16 0.963431 0.860099 0.959792
#
# Coordination Sequence:
#
# PCOD9530136 Si02
#       8
#    16  16  16  16  16  16  16   8
#     4  10  22  34  50  74 108 155 206 231 257 294
#     4  10  19  34  52  73 109 151 190 235 261 303
#     4  11  21  35  56  81 112 143 193 233 272 316
#     4  12  22  34  51  76 113 161 195 226 264 307
#     4  11  23  35  49  73 111 162 195 222 261 313
#     4  11  23  36  52  78 114 143 189 234 267 325
#     4  10  21  38  58  85 107 139 173 227 285 349
#     4  10  20  40  64  78 108 136 170 222 300 366
#
# _framework density 17.864701
#
# number of rings (size 3 to 8) (size 9 to 14) (size 15 to 20)
#    0.000    1.333    2.667    5.200    1.867    2.133 
#    0.000    0.000    0.000    0.000    0.000    0.933 
#    0.000    0.000    0.000    0.000    0.000    0.000 
#
# Total GULP energy -334242.197616 kJ/mol
# GULP energy per Si atom -5570.703294 kJ/mol
# Density = 1.782404 g / cm^3
# Si number density = 17.864701 Si / 1000 Ang^3
#
#
#
# Elastic Constant Matrix: (Units=GPa)
#
#
# Indices 1 2 3 4 5 6 
#
# 1 51.6054 6.1862 16.1224 0.0000 0.0000 0.0000
# 2 6.1862 52.0522 2.2693 0.0000 0.0000 0.0000
# 3 16.1224 2.2693 109.2719 0.0000 0.0000 0.0000
# 4 0.0000 0.0000 0.0000 27.9388 0.0000 0.0000
# 5 0.0000 0.0000 0.0000 0.0000 19.4441 0.0000
# 6 0.0000 0.0000 0.0000 0.0000 0.0000 -3.0867
#
#
#
# Elastic Compliance Matrix: (Units=1/GPa)
#
#
# Indices 1 2 3 4 5 6 
#
# 1 0.020590 -0.002317 -0.002990 0.000000 0.000000 0.000000
# 2 -0.002317 0.019490 -0.000063 0.000000 0.000000 0.000000
# 3 -0.002990 -0.000063 0.009594 0.000000 0.000000 0.000000
# 4 0.000000 0.000000 0.000000 0.035793 0.000000 0.000000
# 5 0.000000 0.000000 0.000000 0.000000 0.051430 0.000000
# 6 0.000000 0.000000 0.000000 0.000000 0.000000 -0.323966
#
#
# Mechanical properties :
#
#
# Convention : Reuss Voigt Hill
#
# Bulk Modulus (GPa) = 25.68428 29.12061 27.40245
# Shear Modulus (GPa) = -30.60833 21.41600 -4.59616
#
# Velocity S-wave (km/s) = -4.14374 3.46611 -1.60572
# Velocity P-wave (km/s) = 2.91304 5.68811 3.45462
#
# Compressibility (1/GPa) = 0.03893432
#
# Stress axis : x y z
#
# Youngs Moduli (GPa) = 48.56831 51.30959 104.23281
#
# Poissons Ratio (x) = 0.11887 0.31163
# Poissons Ratio (y) = 0.11252 0.00656
# Poissons Ratio (z) = 0.14521 0.00323
#
# Static dielectric constant tensor:
#      x y z
#    x 1.616110 0.000000 0.000000 
#    y 0.000000 1.618630 0.000000 
#    z 0.000000 0.000000 1.672890 
# 
# From -- ./inp_files/31500.got.cif
#   From: 2010.05.17/outbox.cif.g08.bks.cpg/sg73_16_cif.got.tgz:31500.got - 2010.06.03 17:35:07.
