data_PCOD9530401
_publ_section_title
;
Structure prediction by ZEFSAII (Michael W. Deem and Ramdas Pophale) SiO2 
 PCOD9530401
Probable space group: I B C A 
;
_chemical_formula_sum "Si O2"
_cell_formula_units_Z 128
_cell_length_a 20.682922
_cell_length_b 14.204853
_cell_length_c 26.135596
_cell_angle_alpha 90.000000
_cell_angle_beta 90.000000
_cell_angle_gamma 90.000000
_cell_volume 7678.582348
_symmetry_space_group_name_H-M "I B C A "
_symmetry_group_IT_number 73
_symmetry_cell_setting 'orthorhombic'
loop_
_space_group_symop_operation_xyz
x,y,z
-x,1/2-y,z
x,-y,1/2-z
1/2-x,y,-z
-x,-y,-z
x,1/2+y,-z
-x,y,1/2+z
1/2+x,-y,z
1/2+x,1/2+y,1/2+z
1/2-x,-y,1/2+z
1/2+x,1/2-y,-z
-x,1/2+y,1/2-z
1/2-x,1/2-y,1/2-z
1/2+x,y,1/2-z
1/2-x,1/2+y,z
x,1/2-y,1/2+z
loop_
_atom_site_type_symbol
_atom_site_label
_atom_site_fract_x
_atom_site_fract_y
_atom_site_fract_z
Si Si1 0.852307 0.163543 0.034890
Si Si2 0.943122 0.365255 0.896099
Si Si3 0.484201 0.504427 0.690397
Si Si4 0.196070 0.139276 0.065969
Si Si5 0.670707 0.048474 0.541424
Si Si6 0.473106 0.353189 0.890042
Si Si7 0.595106 0.033898 0.377822
Si Si8 0.086247 0.164191 0.424340
O O1 0.810161 0.250153 0.055386
O O2 0.916574 0.156209 0.069446
O O3 0.817809 0.062852 0.038178
O O4 0.877176 0.181099 0.977337
O O5 0.962645 0.413156 0.842450
O O6 0.892953 0.429961 0.926220
O O7 0.913094 0.260908 0.892197
O O8 0.009220 0.356405 0.928914
O O9 0.471728 0.500000 0.750000
O O10 0.451017 0.592597 0.661288
O O11 0.560447 0.520859 0.677050
O O12 0.268925 0.102456 0.066408
O O13 0.154439 0.103760 0.114004
O O14 0.164703 0.088838 0.015954
O O15 0.500000 0.250000 0.878450
O O16 0.466107 0.081852 0.907992
O O17 0.612492 0.930837 0.398550
#
# Coordination Sequence:
#
# PCOD9530401 Si02
#       8
#    16  16  16  16  16  16  16  16
#     4  12  20  33  56  78 111 148 188 221 275 333
#     4  10  20  34  50  82 107 140 187 217 288 331
#     4   9  19  37  57  81 109 137 183 242 293 324
#     4  11  23  34  51  75 111 156 189 217 262 330
#     4  11  23  35  49  75 113 154 189 222 258 334
#     4  10  20  32  55  84 108 136 179 230 284 335
#     4   9  19  35  48  78 109 135 181 223 283 320
#     4  10  20  29  55  76 111 141 169 227 276 333
#
# _framework density 16.669744999999999
#
# number of rings (size 3 to 8) (size 9 to 14) (size 15 to 20)
#    0.750    1.000    5.000    0.000    3.500    4.000 
#    4.500    0.000    0.000    0.750    0.000    0.875 
#    0.000    0.000    0.000    0.000    0.000    0.000 
#
# Total GULP energy -356353.791257 kJ/mol
# GULP energy per Si atom -5568.027988 kJ/mol
# Density = 1.663180 g / cm^3
# Si number density = 16.669745 Si / 1000 Ang^3
#
#
#
# Elastic Constant Matrix: (Units=GPa)
#
#
# Indices 1 2 3 4 5 6 
#
# 1 44.6094 12.7342 11.3100 0.0000 0.0000 0.0000
# 2 12.7342 139.5964 12.2725 0.0000 0.0000 0.0000
# 3 11.3100 12.2725 47.2783 0.0000 0.0000 0.0000
# 4 0.0000 0.0000 0.0000 11.3073 0.0000 0.0000
# 5 0.0000 0.0000 0.0000 0.0000 7.8742 0.0000
# 6 0.0000 0.0000 0.0000 0.0000 0.0000 16.6057
#
#
#
# Elastic Compliance Matrix: (Units=1/GPa)
#
#
# Indices 1 2 3 4 5 6 
#
# 1 0.024272 -0.001743 -0.005354 0.000000 0.000000 0.000000
# 2 -0.001743 0.007456 -0.001518 0.000000 0.000000 0.000000
# 3 -0.005354 -0.001518 0.022826 0.000000 0.000000 0.000000
# 4 0.000000 0.000000 0.000000 0.088439 0.000000 0.000000
# 5 0.000000 0.000000 0.000000 0.000000 0.126997 0.000000
# 6 0.000000 0.000000 0.000000 0.000000 0.000000 0.060220
#
#
# Mechanical properties :
#
#
# Convention : Reuss Voigt Hill
#
# Bulk Modulus (GPa) = 26.79320 33.79084 30.29202
# Shear Modulus (GPa) = 13.89344 20.16861 17.03102
#
# Velocity S-wave (km/s) = 2.89009 3.48212 3.19983
# Velocity P-wave (km/s) = 5.21964 6.04001 5.64475
#
# Compressibility (1/GPa) = 0.03732291
#
# Stress axis : x y z
#
# Youngs Moduli (GPa) = 41.19999 134.11955 43.80927
#
# Poissons Ratio (x) = 0.23383 0.23455
# Poissons Ratio (y) = 0.07183 0.06652
# Poissons Ratio (z) = 0.22058 0.20364
#
# Static dielectric constant tensor:
#      x y z
#    x 1.574310 0.000000 0.000000 
#    y 0.000000 1.615170 0.000000 
#    z 0.000000 0.000000 1.532900 
# 
# From -- ./inp_files/30394.got.cif
#   From: 2010.05.17/outbox.cif.g08.bks.cpg/sg73_16_cif.got.tgz:30394.got - 2010.06.03 17:35:07.
