data_PCOD9530306
_publ_section_title
;
Structure prediction by ZEFSAII (Michael W. Deem and Ramdas Pophale) SiO2 
 PCOD9530306
Probable space group: I B C A 
;
_chemical_formula_sum "Si O2"
_cell_formula_units_Z 88
_cell_length_a 21.523765
_cell_length_b 14.017521
_cell_length_c 13.456275
_cell_angle_alpha 90.000000
_cell_angle_beta 90.000000
_cell_angle_gamma 90.000000
_cell_volume 4059.890414
_symmetry_space_group_name_H-M "I B C A "
_symmetry_group_IT_number 73
_symmetry_cell_setting 'orthorhombic'
loop_
_space_group_symop_operation_xyz
x,y,z
-x,1/2-y,z
x,-y,1/2-z
1/2-x,y,-z
-x,-y,-z
x,1/2+y,-z
-x,y,1/2+z
1/2+x,-y,z
1/2+x,1/2+y,1/2+z
1/2-x,-y,1/2+z
1/2+x,1/2-y,-z
-x,1/2+y,1/2-z
1/2-x,1/2-y,1/2-z
1/2+x,y,1/2-z
1/2-x,1/2+y,z
x,1/2-y,1/2+z
loop_
_atom_site_type_symbol
_atom_site_label
_atom_site_fract_x
_atom_site_fract_y
_atom_site_fract_z
Si Si1 0.750000 0.857234 0.500000
Si Si2 0.958718 0.973441 0.355723
Si Si3 0.795654 0.217837 0.663922
Si Si4 0.571949 0.230689 0.848064
Si Si5 0.683789 0.014942 0.367152
Si Si6 0.429311 0.105992 0.984331
O O1 0.790719 0.788510 0.429787
O O2 0.713551 0.925775 0.423355
O O3 0.914703 0.881839 0.342840
O O4 0.008299 0.929067 0.430616
O O5 0.986873 0.000000 0.250000
O O6 0.930614 0.068508 0.403908
O O7 0.750000 0.250000 0.750000
O O8 0.867868 0.219037 0.701222
O O9 0.775812 0.111896 0.630664
O O10 0.500000 0.250000 0.811202
O O11 0.573947 0.282523 0.956766
O O12 0.623694 0.046803 0.428640
O O13 0.671658 0.000000 0.250000
#
# Coordination Sequence:
#
# PCOD9530306 Si02
#       6
#     8  16  16  16  16  16
#     4  12  24  42  66  96 130 168 220 278 322 396
#     4  10  19  38  61  96 126 166 215 267 318 381
#     4  11  23  44  66  98 132 171 220 274 329 395
#     4   9  20  41  63  91 132 167 213 268 322 389
#     4  11  22  42  65  90 124 175 215 264 330 390
#     4   9  20  38  62  88 129 167 213 262 322 392
#
# _framework density 21.675462
#
# number of rings (size 3 to 8) (size 9 to 14) (size 15 to 20)
#    0.000    1.818    1.818    2.182    0.000    0.000 
#   13.091   15.455    0.000    0.000    0.000    0.000 
#    0.000    0.000    0.000    0.000    0.000    0.000 
#
# Total GULP energy -245018.172239 kJ/mol
# GULP energy per Si atom -5568.594824 kJ/mol
# Density = 2.162613 g / cm^3
# Si number density = 21.675462 Si / 1000 Ang^3
#
#
#
# Elastic Constant Matrix: (Units=GPa)
#
#
# Indices 1 2 3 4 5 6 
#
# 1 67.9966 -2.4597 13.8221 0.0000 0.0000 0.0000
# 2 -2.4597 85.4384 5.4053 0.0000 0.0000 0.0000
# 3 13.8221 5.4053 84.1637 0.0000 0.0000 0.0000
# 4 0.0000 0.0000 0.0000 23.7691 0.0000 0.0000
# 5 0.0000 0.0000 0.0000 0.0000 17.0402 0.0000
# 6 0.0000 0.0000 0.0000 0.0000 0.0000 43.4274
#
#
#
# Elastic Compliance Matrix: (Units=1/GPa)
#
#
# Indices 1 2 3 4 5 6 
#
# 1 0.015245 0.000600 -0.002542 0.000000 0.000000 0.000000
# 2 0.000600 0.011776 -0.000855 0.000000 0.000000 0.000000
# 3 -0.002542 -0.000855 0.012354 0.000000 0.000000 0.000000
# 4 0.000000 0.000000 0.000000 0.042071 0.000000 0.000000
# 5 0.000000 0.000000 0.000000 0.000000 0.058685 0.000000
# 6 0.000000 0.000000 0.000000 0.000000 0.000000 0.023027
#
#
# Mechanical properties :
#
#
# Convention : Reuss Voigt Hill
#
# Bulk Modulus (GPa) = 29.60305 30.12600 29.86452
# Shear Modulus (GPa) = 27.77587 31.56942 29.67264
#
# Velocity S-wave (km/s) = 3.58361 3.82050 3.70395
# Velocity P-wave (km/s) = 5.55068 5.77845 5.66571
#
# Compressibility (1/GPa) = 0.03378030
#
# Stress axis : x y z
#
# Youngs Moduli (GPa) = 65.59490 84.92073 80.94538
#
# Poissons Ratio (x) = -0.05093 0.20578
# Poissons Ratio (y) = -0.03934 0.06919
# Poissons Ratio (z) = 0.16676 0.07259
#
# Static dielectric constant tensor:
#      x y z
#    x 1.855390 0.000000 0.000000 
#    y 0.000000 1.895310 0.000000 
#    z 0.000000 0.000000 1.838730 
# 
# From -- ./inp_files/10943.got.cif
#   From: 2010.05.17/outbox.cif.g08.bks.cpg/sg73_6_cif.got.tgz:10943.got - 2010.06.03 17:35:07.
