data_PCOD9530322
_publ_section_title
;
Structure prediction by ZEFSAII (Michael W. Deem and Ramdas Pophale) SiO2 
 PCOD9530322
Probable space group: I B C A 
;
_chemical_formula_sum "Si O2"
_cell_formula_units_Z 104
_cell_length_a 26.707427
_cell_length_b 17.553143
_cell_length_c 9.313702
_cell_angle_alpha 90.000000
_cell_angle_beta 90.000000
_cell_angle_gamma 90.000000
_cell_volume 4366.256841
_symmetry_space_group_name_H-M "I B C A "
_symmetry_group_IT_number 73
_symmetry_cell_setting 'orthorhombic'
loop_
_space_group_symop_operation_xyz
x,y,z
-x,1/2-y,z
x,-y,1/2-z
1/2-x,y,-z
-x,-y,-z
x,1/2+y,-z
-x,y,1/2+z
1/2+x,-y,z
1/2+x,1/2+y,1/2+z
1/2-x,-y,1/2+z
1/2+x,1/2-y,-z
-x,1/2+y,1/2-z
1/2-x,1/2-y,1/2-z
1/2+x,y,1/2-z
1/2-x,1/2+y,z
x,1/2-y,1/2+z
loop_
_atom_site_type_symbol
_atom_site_label
_atom_site_fract_x
_atom_site_fract_y
_atom_site_fract_z
Si Si1 0.876898 0.214208 0.199644
Si Si2 0.595354 0.482760 0.946728
Si Si3 0.179254 0.866662 0.386378
Si Si4 0.964299 0.898763 0.750088
Si Si5 0.940894 0.000000 0.250000
Si Si6 0.278167 0.828029 0.299863
Si Si7 0.055343 0.240362 0.434763
O O1 0.854325 0.301370 0.191478
O O2 0.826895 0.162983 0.201350
O O3 0.908598 0.202160 0.346107
O O4 0.910603 0.205432 0.059745
O O5 0.647055 0.442464 0.908688
O O6 0.573448 0.552228 0.852130
O O7 0.554429 0.416427 0.909726
O O8 0.591797 0.505770 0.109753
O O9 0.230804 0.883821 0.302594
O O10 0.197918 0.830405 0.539012
O O11 0.958616 0.815182 0.696490
O O12 0.019759 0.930702 0.737333
O O13 0.250000 0.750000 0.250000
O O14 0.000000 0.250000 0.500070
#
# Coordination Sequence:
#
# PCOD9530322 Si02
#       7
#    16  16  16  16   8  16  16
#     4  11  22  40  60  97 133 176 215 279 349 408
#     4  10  21  38  65  88 125 174 230 282 330 394
#     4  10  19  38  66  94 123 169 225 285 342 410
#     4  10  22  41  58  88 131 188 229 270 336 409
#     4  10  22  36  64  90 124 182 232 264 322 402
#     4   9  20  37  65  94 125 166 220 271 351 419
#     4  12  26  38  61  98 142 178 226 283 345 415
#
# _framework density 23.819030000000001
#
# number of rings (size 3 to 8) (size 9 to 14) (size 15 to 20)
#    0.000    1.846    3.077    2.308    2.154    4.923 
#    0.000    0.000    0.000   14.769    0.000    0.000 
#    0.000    0.000    0.000    0.000    0.000    0.000 
#
# Total GULP energy -290181.254960 kJ/mol
# GULP energy per Si atom -5580.408749 kJ/mol
# Density = 2.376482 g / cm^3
# Si number density = 23.819030 Si / 1000 Ang^3
#
#
#
# Elastic Constant Matrix: (Units=GPa)
#
#
# Indices 1 2 3 4 5 6 
#
# 1 181.0564 46.9799 41.1680 0.0000 0.0000 0.0000
# 2 46.9799 41.9887 12.7568 0.0000 0.0000 0.0000
# 3 41.1680 12.7568 112.8432 0.0000 0.0000 0.0000
# 4 0.0000 0.0000 0.0000 6.0763 0.0000 0.0000
# 5 0.0000 0.0000 0.0000 0.0000 46.5482 0.0000
# 6 0.0000 0.0000 0.0000 0.0000 0.0000 10.1222
#
#
#
# Elastic Compliance Matrix: (Units=1/GPa)
#
#
# Indices 1 2 3 4 5 6 
#
# 1 0.008207 -0.008567 -0.002025 0.000000 0.000000 0.000000
# 2 -0.008567 0.033606 -0.000674 0.000000 0.000000 0.000000
# 3 -0.002025 -0.000674 0.009677 0.000000 0.000000 0.000000
# 4 0.000000 0.000000 0.000000 0.164575 0.000000 0.000000
# 5 0.000000 0.000000 0.000000 0.000000 0.021483 0.000000
# 6 0.000000 0.000000 0.000000 0.000000 0.000000 0.098793
#
#
# Mechanical properties :
#
#
# Convention : Reuss Voigt Hill
#
# Bulk Modulus (GPa) = 34.53359 59.74417 47.13888
# Shear Modulus (GPa) = 13.56765 28.21492 20.89129
#
# Velocity S-wave (km/s) = 2.38925 3.44547 2.96477
# Velocity P-wave (km/s) = 4.70544 6.40042 5.61723
#
# Compressibility (1/GPa) = 0.02895732
#
# Stress axis : x y z
#
# Youngs Moduli (GPa) = 121.85389 29.75690 103.33811
#
# Poissons Ratio (x) = 0.25492 0.20931
# Poissons Ratio (y) = 1.04388 0.06962
# Poissons Ratio (z) = 0.24681 0.02005
#
# Static dielectric constant tensor:
#      x y z
#    x 1.955170 0.000000 0.000000 
#    y 0.000000 1.968260 0.000000 
#    z 0.000000 0.000000 1.952430 
# 
# From -- ./inp_files/7908.got.cif
#   From: 2010.05.17/outbox.cif.g08.bks.cpg/sg73_4_cif.got.tgz:7908.got - 2010.06.03 17:35:07.
