data_PCOD9530027
_publ_section_title
;
Structure prediction by ZEFSAII (Michael W. Deem and Ramdas Pophale) SiO2 
 PCOD9530027
Probable space group: I B C A 
;
_chemical_formula_sum "Si O2"
_cell_formula_units_Z 104
_cell_length_a 14.555357
_cell_length_b 22.261629
_cell_length_c 17.211137
_cell_angle_alpha 90.000000
_cell_angle_beta 90.000000
_cell_angle_gamma 90.000000
_cell_volume 5576.855146
_symmetry_space_group_name_H-M "I B C A "
_symmetry_group_IT_number 73
_symmetry_cell_setting 'orthorhombic'
loop_
_space_group_symop_operation_xyz
x,y,z
-x,1/2-y,z
x,-y,1/2-z
1/2-x,y,-z
-x,-y,-z
x,1/2+y,-z
-x,y,1/2+z
1/2+x,-y,z
1/2+x,1/2+y,1/2+z
1/2-x,-y,1/2+z
1/2+x,1/2-y,-z
-x,1/2+y,1/2-z
1/2-x,1/2-y,1/2-z
1/2+x,y,1/2-z
1/2-x,1/2+y,z
x,1/2-y,1/2+z
loop_
_atom_site_type_symbol
_atom_site_label
_atom_site_fract_x
_atom_site_fract_y
_atom_site_fract_z
Si Si1 0.184032 0.167070 0.732951
Si Si2 0.991630 0.990274 0.874414
Si Si3 0.500000 0.750000 0.084524
Si Si4 0.007748 0.598956 0.240263
Si Si5 0.118265 0.199976 0.222904
Si Si6 0.161231 0.165925 0.545934
Si Si7 0.144282 0.973246 0.991263
O O1 0.114507 0.116280 0.761053
O O2 0.283329 0.167155 0.772856
O O3 0.139631 0.232431 0.750671
O O4 0.186543 0.162501 0.638323
O O5 0.984688 0.929492 0.824592
O O6 0.983007 0.047282 0.819090
O O7 0.092046 0.992232 0.913249
O O8 0.915156 0.997829 0.940053
O O9 0.565307 0.789870 0.141382
O O10 0.570900 0.707300 0.039713
O O11 0.949734 0.659034 0.227466
O O12 0.250000 0.190186 0.500000
O O13 0.141398 0.099652 0.511791
O O14 0.250000 0.990564 0.000000
#
# Coordination Sequence:
#
# PCOD9530027 Si02
#       7
#    16  16   8  16  16  16  16
#     4  10  20  36  57  89 115 150 192 239 296 354
#     4  10  23  36  58  87 114 154 201 235 294 349
#     4  10  18  40  58  84 120 154 184 250 296 350
#     4  11  20  37  58  88 120 149 191 249 292 352
#     4  10  19  34  61  83 114 148 184 235 301 341
#     4  10  20  36  60  82 115 160 197 235 296 359
#     4  10  21  40  57  79 116 159 196 242 286 349
#
# _framework density 18.648502000000001
#
# number of rings (size 3 to 8) (size 9 to 14) (size 15 to 20)
#    0.000    1.846    4.615    0.000    4.308    1.231 
#    0.000    8.462    0.000    4.615    0.000    0.000 
#    0.000    0.000    0.000    0.000    0.000    0.000 
#
# Total GULP energy -289840.016358 kJ/mol
# GULP energy per Si atom -5573.846468 kJ/mol
# Density = 1.860606 g / cm^3
# Si number density = 18.648502 Si / 1000 Ang^3
#
#
#
# Elastic Constant Matrix: (Units=GPa)
#
#
# Indices 1 2 3 4 5 6 
#
# 1 113.0304 14.5896 12.8064 0.0000 0.0000 0.0000
# 2 14.5896 27.4183 -1.0531 0.0001 0.0000 0.0000
# 3 12.8064 -1.0531 27.1939 0.0003 0.0000 0.0000
# 4 0.0000 0.0001 0.0003 19.2421 0.0000 0.0000
# 5 0.0000 0.0000 0.0000 0.0000 26.5284 0.0000
# 6 0.0000 0.0000 0.0000 0.0000 0.0000 28.1708
#
#
#
# Elastic Compliance Matrix: (Units=1/GPa)
#
#
# Indices 1 2 3 4 5 6 
#
# 1 0.010133 -0.005584 -0.004988 0.000000 0.000000 0.000000
# 2 -0.005584 0.039603 0.004163 0.000000 0.000000 0.000000
# 3 -0.004988 0.004163 0.039283 -0.000001 0.000000 0.000000
# 4 0.000000 0.000000 -0.000001 0.051969 0.000000 0.000000
# 5 0.000000 0.000000 0.000000 0.000000 0.037695 0.000000
# 6 0.000000 0.000000 0.000000 0.000000 0.000000 0.035498
#
#
# Mechanical properties :
#
#
# Convention : Reuss Voigt Hill
#
# Bulk Modulus (GPa) = 13.12301 24.48094 18.80197
# Shear Modulus (GPa) = 19.80985 24.20824 22.00904
#
# Velocity S-wave (km/s) = 3.26279 3.60687 3.43914
# Velocity P-wave (km/s) = 4.60942 5.52287 5.08669
#
# Compressibility (1/GPa) = 0.07620206
#
# Stress axis : x y z
#
# Youngs Moduli (GPa) = 98.68702 25.25066 25.45611
#
# Poissons Ratio (x) = 0.14099 0.12698
# Poissons Ratio (y) = 0.55102 -0.10598
# Poissons Ratio (z) = 0.49227 -0.10512
#
# Static dielectric constant tensor:
#      x y z
#    x 1.654960 0.000000 0.000000 
#    y 0.000000 1.650330 0.000000 
#    z 0.000000 0.000000 1.655050 
# 
# From -- ./inp_files/22054.got.cif
#   From: 2010.05.17/outbox.cif.g08.bks.cpg/sg73_12_cif.got.tgz:22054.got - 2010.06.03 17:35:07.
