data_PCOD9530014
_publ_section_title
;
Structure prediction by ZEFSAII (Michael W. Deem and Ramdas Pophale) SiO2 
 PCOD9530014
Probable space group: I B C A 
;
_chemical_formula_sum "Si O2"
_cell_formula_units_Z 104
_cell_length_a 13.503049
_cell_length_b 13.150098
_cell_length_c 24.850928
_cell_angle_alpha 90.000000
_cell_angle_beta 90.000000
_cell_angle_gamma 90.000000
_cell_volume 4412.690260
_symmetry_space_group_name_H-M "I B C A "
_symmetry_group_IT_number 73
_symmetry_cell_setting 'orthorhombic'
loop_
_space_group_symop_operation_xyz
x,y,z
-x,1/2-y,z
x,-y,1/2-z
1/2-x,y,-z
-x,-y,-z
x,1/2+y,-z
-x,y,1/2+z
1/2+x,-y,z
1/2+x,1/2+y,1/2+z
1/2-x,-y,1/2+z
1/2+x,1/2-y,-z
-x,1/2+y,1/2-z
1/2-x,1/2-y,1/2-z
1/2+x,y,1/2-z
1/2-x,1/2+y,z
x,1/2-y,1/2+z
loop_
_atom_site_type_symbol
_atom_site_label
_atom_site_fract_x
_atom_site_fract_y
_atom_site_fract_z
Si Si1 0.750000 0.301545 0.000000
Si Si2 0.126587 0.657336 0.431422
Si Si3 0.922822 0.672007 0.148706
Si Si4 0.411120 0.890528 0.735537
Si Si5 0.495934 0.028092 0.873335
Si Si6 0.297314 0.048041 0.095870
Si Si7 0.786312 0.283751 0.161452
O O1 0.660793 0.230844 0.978449
O O2 0.792590 0.372131 0.952812
O O3 0.019284 0.603834 0.423413
O O4 0.205847 0.564486 0.429114
O O5 0.141354 0.720795 0.376805
O O6 0.961066 0.642817 0.208907
O O7 0.817689 0.726440 0.156031
O O8 0.000000 0.750000 0.123074
O O9 0.918726 0.563567 0.118752
O O10 0.477403 0.913513 0.682767
O O11 0.334894 0.803509 0.718568
O O12 0.362976 0.000000 0.750000
O O13 0.599550 0.965546 0.871953
O O14 0.223915 0.101827 0.137558
#
# Coordination Sequence:
#
# PCOD9530014 Si02
#       7
#     8  16  16  16  16  16  16
#     4  10  18  38  70 100 124 168 232 264 334 388
#     4   9  21  37  66  95 128 174 209 273 330 398
#     4  11  21  39  59  89 126 170 215 264 311 379
#     4  10  24  39  59  94 130 172 219 271 305 381
#     4   9  21  39  58  90 132 169 199 266 338 359
#     4   9  20  38  62  93 129 166 208 275 322 397
#     4  11  22  39  65  93 122 179 222 253 327 391
#
# _framework density 23.568389
#
# number of rings (size 3 to 8) (size 9 to 14) (size 15 to 20)
#    0.923    1.231    1.538    0.923    6.462    0.000 
#    2.769    0.000    0.000   22.154    0.000    0.000 
#    0.000    0.000    0.000    0.000    0.000    0.000 
#
# Total GULP energy -289686.468003 kJ/mol
# GULP energy per Si atom -5570.893615 kJ/mol
# Density = 2.351475 g / cm^3
# Si number density = 23.568389 Si / 1000 Ang^3
#
#
#
# Elastic Constant Matrix: (Units=GPa)
#
#
# Indices 1 2 3 4 5 6 
#
# 1 63.3018 35.2727 25.3320 0.0000 0.0000 0.0000
# 2 35.2727 103.3240 15.0737 0.0000 0.0000 0.0000
# 3 25.3320 15.0737 67.9327 0.0000 0.0000 0.0000
# 4 0.0000 0.0000 0.0000 26.2087 0.0000 0.0000
# 5 0.0000 0.0000 0.0000 0.0000 26.4509 0.0000
# 6 0.0000 0.0000 0.0000 0.0000 0.0000 45.5397
#
#
#
# Elastic Compliance Matrix: (Units=1/GPa)
#
#
# Indices 1 2 3 4 5 6 
#
# 1 0.022192 -0.006582 -0.006815 0.000000 0.000000 0.000000
# 2 -0.006582 0.011954 -0.000198 0.000000 0.000000 0.000000
# 3 -0.006815 -0.000198 0.017306 0.000000 0.000000 0.000000
# 4 0.000000 0.000000 0.000000 0.038155 0.000000 0.000000
# 5 0.000000 0.000000 0.000000 0.000000 0.037806 0.000000
# 6 0.000000 0.000000 0.000000 0.000000 0.000000 0.021959
#
#
# Mechanical properties :
#
#
# Convention : Reuss Voigt Hill
#
# Bulk Modulus (GPa) = 41.21654 42.87948 42.04801
# Shear Modulus (GPa) = 27.07847 30.23188 28.65517
#
# Velocity S-wave (km/s) = 3.39327 3.58541 3.49066
# Velocity P-wave (km/s) = 5.73397 5.94755 5.84173
#
# Compressibility (1/GPa) = 0.02426210
#
# Stress axis : x y z
#
# Youngs Moduli (GPa) = 45.06148 83.65362 57.78443
#
# Poissons Ratio (x) = 0.55058 0.39380
# Poissons Ratio (y) = 0.29658 0.01145
# Poissons Ratio (z) = 0.30709 0.01658
#
# Static dielectric constant tensor:
#      x y z
#    x 1.919870 0.000000 0.000000 
#    y 0.000000 1.974000 0.000000 
#    z 0.000000 0.000000 1.863970 
# 
# From -- ./inp_files/34558.got.cif
#   From: 2010.05.17/outbox.cif.g08.bks.cpg/sg73_18_cif.got.tgz:34558.got - 2010.06.03 17:35:07.
