data_PCOD9530508
_publ_section_title
;
Structure prediction by ZEFSAII (Michael W. Deem and Ramdas Pophale) SiO2 
 PCOD9530508
Probable space group: I B C A 
;
_chemical_formula_sum "Si O2"
_cell_formula_units_Z 96
_cell_length_a 15.013414
_cell_length_b 25.047771
_cell_length_c 10.455939
_cell_angle_alpha 90.000000
_cell_angle_beta 90.000000
_cell_angle_gamma 90.000000
_cell_volume 3931.982584
_symmetry_space_group_name_H-M "I B C A "
_symmetry_group_IT_number 73
_symmetry_cell_setting 'orthorhombic'
loop_
_space_group_symop_operation_xyz
x,y,z
-x,1/2-y,z
x,-y,1/2-z
1/2-x,y,-z
-x,-y,-z
x,1/2+y,-z
-x,y,1/2+z
1/2+x,-y,z
1/2+x,1/2+y,1/2+z
1/2-x,-y,1/2+z
1/2+x,1/2-y,-z
-x,1/2+y,1/2-z
1/2-x,1/2-y,1/2-z
1/2+x,y,1/2-z
1/2-x,1/2+y,z
x,1/2-y,1/2+z
loop_
_atom_site_type_symbol
_atom_site_label
_atom_site_fract_x
_atom_site_fract_y
_atom_site_fract_z
Si Si1 0.250000 0.227768 0.500000
Si Si2 0.342273 0.684483 0.138280
Si Si3 0.619800 0.482648 0.609375
Si Si4 0.867513 0.136143 0.907657
Si Si5 0.923702 0.846313 0.113816
Si Si6 0.906524 0.960340 0.143196
Si Si7 0.000000 0.750000 0.259113
O O1 0.271892 0.268382 0.385201
O O2 0.169918 0.186165 0.485801
O O3 0.332974 0.648706 0.263340
O O4 0.437828 0.712496 0.158828
O O5 0.357735 0.654616 0.005685
O O6 0.652299 0.500000 0.750000
O O7 0.655801 0.424908 0.565227
O O8 0.512705 0.472898 0.627817
O O9 0.632063 0.525580 0.496668
O O10 0.973764 0.141134 0.920738
O O11 0.895695 0.899357 0.189956
O O12 0.934463 0.788588 0.178547
O O13 0.870924 0.000000 0.250000
#
# Coordination Sequence:
#
# PCOD9530508 Si02
#       7
#     8  16  16  16  16  16   8
#     4  12  24  38  54  80 118 162 208 246 296 364
#     4  11  21  37  56  81 115 153 197 242 298 358
#     4   9  17  33  56  83 113 148 190 239 300 361
#     4  10  22  36  58  85 115 155 196 249 303 359
#     4  10  20  36  59  89 117 149 195 249 307 363
#     4   9  18  31  54  89 120 145 184 243 305 362
#     4  10  20  34  58  86 116 150 190 246 300 356
#
# _framework density 24.415163
#
# number of rings (size 3 to 8) (size 9 to 14) (size 15 to 20)
#    0.000    2.000    0.000    5.000    0.000    9.333 
#    0.000    0.000    0.000    7.000    0.000    0.000 
#    0.000    0.000    0.000    0.000    0.000    0.000 
#
# Total GULP energy -268059.827888 kJ/mol
# GULP energy per Si atom -5584.579748 kJ/mol
# Density = 2.435959 g / cm^3
# Si number density = 24.415163 Si / 1000 Ang^3
#
#
#
# Elastic Constant Matrix: (Units=GPa)
#
#
# Indices 1 2 3 4 5 6 
#
# 1 62.5896 18.2418 8.0481 -0.0001 -0.0001 0.0000
# 2 18.2418 145.1981 30.3425 -0.0001 0.0005 0.0000
# 3 8.0481 30.3425 67.8836 -0.0008 0.0029 0.0001
# 4 -0.0001 -0.0001 -0.0008 34.3442 0.0012 0.0000
# 5 -0.0001 0.0005 0.0029 0.0012 34.8516 -0.0003
# 6 0.0000 0.0000 0.0001 0.0000 -0.0003 4.7405
#
#
#
# Elastic Compliance Matrix: (Units=1/GPa)
#
#
# Indices 1 2 3 4 5 6 
#
# 1 0.016665 -0.001854 -0.001147 0.000000 0.000000 0.000000
# 2 -0.001854 0.007803 -0.003268 0.000000 0.000000 0.000000
# 3 -0.001147 -0.003268 0.016328 0.000000 -0.000001 0.000000
# 4 0.000000 0.000000 0.000000 0.029117 -0.000001 0.000000
# 5 0.000000 0.000000 -0.000001 -0.000001 0.028693 0.000002
# 6 0.000000 0.000000 0.000000 0.000000 0.000002 0.210950
#
#
# Mechanical properties :
#
#
# Convention : Reuss Voigt Hill
#
# Bulk Modulus (GPa) = 35.38859 43.21513 39.30186
# Shear Modulus (GPa) = 15.08237 29.38984 22.23611
#
# Velocity S-wave (km/s) = 2.48815 3.47328 3.02114
# Velocity P-wave (km/s) = 4.77289 5.81579 5.31996
#
# Compressibility (1/GPa) = 0.02825769
#
# Stress axis : x y z
#
# Youngs Moduli (GPa) = 60.00624 128.15616 61.24528
#
# Poissons Ratio (x) = 0.23760 0.07025
# Poissons Ratio (y) = 0.11125 0.20015
# Poissons Ratio (z) = 0.06883 0.41881
#
# Static dielectric constant tensor:
#      x y z
#    x 1.989060 0.000000 0.000000 
#    y 0.000000 1.869000 0.000000 
#    z 0.000000 0.000000 1.975700 
# 
# From -- ./inp_files/6502.got.cif
#   From: 2010.05.17/outbox.cif.g08.bks.cpg/sg73_4_cif.got.tgz:6502.got - 2010.06.03 17:35:07.
