data_PCOD9530254
_publ_section_title
;
Structure prediction by ZEFSAII (Michael W. Deem and Ramdas Pophale) SiO2 
 PCOD9530254
Probable space group: I B C A 
;
_chemical_formula_sum "Si O2"
_cell_formula_units_Z 96
_cell_length_a 20.112257
_cell_length_b 13.932652
_cell_length_c 13.821621
_cell_angle_alpha 90.000000
_cell_angle_beta 90.000000
_cell_angle_gamma 90.000000
_cell_volume 3873.054246
_symmetry_space_group_name_H-M "I B C A "
_symmetry_group_IT_number 73
_symmetry_cell_setting 'orthorhombic'
loop_
_space_group_symop_operation_xyz
x,y,z
-x,1/2-y,z
x,-y,1/2-z
1/2-x,y,-z
-x,-y,-z
x,1/2+y,-z
-x,y,1/2+z
1/2+x,-y,z
1/2+x,1/2+y,1/2+z
1/2-x,-y,1/2+z
1/2+x,1/2-y,-z
-x,1/2+y,1/2-z
1/2-x,1/2-y,1/2-z
1/2+x,y,1/2-z
1/2-x,1/2+y,z
x,1/2-y,1/2+z
loop_
_atom_site_type_symbol
_atom_site_label
_atom_site_fract_x
_atom_site_fract_y
_atom_site_fract_z
Si Si1 0.300239 0.162911 0.826715
Si Si2 0.166569 0.793523 0.999015
Si Si3 0.443903 0.943134 0.396880
Si Si4 0.976016 0.647802 0.930024
Si Si5 0.650946 0.684134 0.308702
Si Si6 0.321346 0.495034 0.461703
O O1 0.347595 0.219747 0.754165
O O2 0.225369 0.142877 0.788841
O O3 0.332827 0.066594 0.866171
O O4 0.292055 0.238608 0.916342
O O5 0.147944 0.718689 0.080820
O O6 0.188969 0.891745 0.050351
O O7 0.100931 0.828660 0.944675
O O8 0.489431 0.874449 0.464824
O O9 0.409913 0.889747 0.305666
O O10 0.380497 0.973956 0.463898
O O11 0.482378 0.043579 0.379377
O O12 0.000000 0.750000 0.888478
O O13 0.250000 0.458501 0.500000
#
# Coordination Sequence:
#
# PCOD9530254 Si02
#       6
#    16  16  16  16  16  16
#     4  11  22  37  61  93 132 178 224 285 362 422
#     4  11  22  38  63  92 128 174 230 292 347 427
#     4  10  20  35  62  92 124 170 221 281 340 417
#     4  10  19  36  65  91 119 174 223 273 354 411
#     4  11  21  38  61  90 136 175 224 289 355 426
#     4  11  19  35  63  90 127 175 224 284 355 423
#
# _framework density 24.786639999999998
#
# number of rings (size 3 to 8) (size 9 to 14) (size 15 to 20)
#    0.000    1.333    5.000    1.500    0.000    0.667 
#    0.000    3.333   11.000    0.000    4.333    0.000 
#    0.000    0.000    0.000    0.000    0.000    0.000 
#
# Total GULP energy -267967.461425 kJ/mol
# GULP energy per Si atom -5582.655446 kJ/mol
# Density = 2.473022 g / cm^3
# Si number density = 24.786640 Si / 1000 Ang^3
#
#
#
# Elastic Constant Matrix: (Units=GPa)
#
#
# Indices 1 2 3 4 5 6 
#
# 1 55.0980 23.2989 -17.9771 0.0000 0.0000 0.0000
# 2 23.2989 167.8636 11.2533 0.0000 0.0000 0.0000
# 3 -17.9771 11.2533 35.8358 0.0000 0.0000 0.0000
# 4 0.0000 0.0000 0.0000 23.7871 0.0000 0.0000
# 5 0.0000 0.0000 0.0000 0.0000 27.5499 0.0000
# 6 0.0000 0.0000 0.0000 0.0000 0.0000 44.7815
#
#
#
# Elastic Compliance Matrix: (Units=1/GPa)
#
#
# Indices 1 2 3 4 5 6 
#
# 1 0.024401 -0.004298 0.013591 0.000000 0.000000 0.000000
# 2 -0.004298 0.006842 -0.004305 0.000000 0.000000 0.000000
# 3 0.013591 -0.004305 0.036075 0.000000 0.000000 0.000000
# 4 0.000000 0.000000 0.000000 0.042040 0.000000 0.000000
# 5 0.000000 0.000000 0.000000 0.000000 0.036298 0.000000
# 6 0.000000 0.000000 0.000000 0.000000 0.000000 0.022331
#
#
# Mechanical properties :
#
#
# Convention : Reuss Voigt Hill
#
# Bulk Modulus (GPa) = 12.93763 32.43861 22.68812
# Shear Modulus (GPa) = 27.20723 35.37186 31.28955
#
# Velocity S-wave (km/s) = 3.31668 3.78173 3.55682
# Velocity P-wave (km/s) = 4.46073 5.67311 5.10306
#
# Compressibility (1/GPa) = 0.07729390
#
# Stress axis : x y z
#
# Youngs Moduli (GPa) = 40.98170 146.14921 27.72040
#
# Poissons Ratio (x) = 0.62813 -0.37673
# Poissons Ratio (y) = 0.17613 0.11933
# Poissons Ratio (z) = -0.55696 0.62913
#
# Static dielectric constant tensor:
#      x y z
#    x 2.038550 0.000000 0.000000 
#    y 0.000000 2.046480 0.000000 
#    z 0.000000 0.000000 2.021570 
# 
# From -- ./inp_files/18636.got.cif
#   From: 2010.05.17/outbox.cif.g08.bks.cpg/sg73_10_cif.got.tgz:18636.got - 2010.06.03 17:35:07.
