data_PCOD9530291
_publ_section_title
;
Structure prediction by ZEFSAII (Michael W. Deem and Ramdas Pophale) SiO2 
 PCOD9530291
Probable space group: I B C A 
;
_chemical_formula_sum "Si O2"
_cell_formula_units_Z 96
_cell_length_a 22.024941
_cell_length_b 14.133217
_cell_length_c 11.919482
_cell_angle_alpha 90.000000
_cell_angle_beta 90.000000
_cell_angle_gamma 90.000000
_cell_volume 3710.335340
_symmetry_space_group_name_H-M "I B C A "
_symmetry_group_IT_number 73
_symmetry_cell_setting 'orthorhombic'
loop_
_space_group_symop_operation_xyz
x,y,z
-x,1/2-y,z
x,-y,1/2-z
1/2-x,y,-z
-x,-y,-z
x,1/2+y,-z
-x,y,1/2+z
1/2+x,-y,z
1/2+x,1/2+y,1/2+z
1/2-x,-y,1/2+z
1/2+x,1/2-y,-z
-x,1/2+y,1/2-z
1/2-x,1/2-y,1/2-z
1/2+x,y,1/2-z
1/2-x,1/2+y,z
x,1/2-y,1/2+z
loop_
_atom_site_type_symbol
_atom_site_label
_atom_site_fract_x
_atom_site_fract_y
_atom_site_fract_z
Si Si1 0.651459 0.584157 0.394008
Si Si2 0.172244 0.621935 0.365571
Si Si3 0.026275 0.904036 0.676416
Si Si4 0.107382 0.894368 0.215069
Si Si5 0.783083 0.276752 0.388961
Si Si6 0.562667 0.260581 0.374262
O O1 0.678661 0.481482 0.423101
O O2 0.650535 0.592574 0.259197
O O3 0.579053 0.591958 0.417685
O O4 0.692002 0.674621 0.426515
O O5 0.222088 0.697997 0.321532
O O6 0.117814 0.679405 0.423896
O O7 0.041941 0.819937 0.763187
O O8 0.955407 0.896281 0.644098
O O9 0.028408 0.000000 0.750000
O O10 0.162188 0.838619 0.158139
O O11 0.089734 0.836724 0.327656
O O12 0.125397 0.000000 0.250000
O O13 0.750000 0.322565 0.500000
O O14 0.500000 0.250000 0.441559
#
# Coordination Sequence:
#
# PCOD9530291 Si02
#       6
#    16  16  16  16  16  16
#     4  10  19  37  66  90 112 160 213 265 321 382
#     4  10  20  36  63  86 121 158 214 259 313 378
#     4   9  14  31  59  97 117 147 206 273 323 368
#     4  10  21  32  58  94 125 161 219 265 306 378
#     4  12  26  39  55  88 134 174 206 255 325 389
#     4   9  16  30  57  91 119 147 203 274 314 357
#
# _framework density 25.873671000000002
#
# number of rings (size 3 to 8) (size 9 to 14) (size 15 to 20)
#    0.000    2.000    6.667    0.500    2.333    0.667 
#    0.000    0.000    3.667    1.000    0.000    0.000 
#    0.000    0.000    0.000    0.000    0.000    0.000 
#
# Total GULP energy -267602.938559 kJ/mol
# GULP energy per Si atom -5575.061220 kJ/mol
# Density = 2.581478 g / cm^3
# Si number density = 25.873671 Si / 1000 Ang^3
#
#
#
# Elastic Constant Matrix: (Units=GPa)
#
#
# Indices 1 2 3 4 5 6 
#
# 1 236.1990 108.6332 12.3959 0.0000 0.0000 0.0000
# 2 108.6332 238.5129 19.1422 0.0000 0.0000 0.0000
# 3 12.3959 19.1422 16.3868 0.0000 0.0000 0.0000
# 4 0.0000 0.0000 0.0000 14.2438 0.0000 0.0000
# 5 0.0000 0.0000 0.0000 0.0000 22.3063 0.0000
# 6 0.0000 0.0000 0.0000 0.0000 0.0000 46.6551
#
#
#
# Elastic Compliance Matrix: (Units=1/GPa)
#
#
# Indices 1 2 3 4 5 6 
#
# 1 0.005382 -0.002344 -0.001333 0.000000 0.000000 0.000000
# 2 -0.002344 0.005647 -0.004824 0.000000 0.000000 0.000000
# 3 -0.001333 -0.004824 0.067668 0.000000 0.000000 0.000000
# 4 0.000000 0.000000 0.000000 0.070206 0.000000 0.000000
# 5 0.000000 0.000000 0.000000 0.000000 0.044830 0.000000
# 6 0.000000 0.000000 0.000000 0.000000 0.000000 0.021434
#
#
# Mechanical properties :
#
#
# Convention : Reuss Voigt Hill
#
# Bulk Modulus (GPa) = 16.20859 85.71569 50.96214
# Shear Modulus (GPa) = 19.78364 40.03620 29.90992
#
# Velocity S-wave (km/s) = 2.76818 3.93793 3.40369
# Velocity P-wave (km/s) = 4.06143 7.34009 5.93178
#
# Compressibility (1/GPa) = 0.06169568
#
# Stress axis : x y z
#
# Youngs Moduli (GPa) = 185.81029 177.06953 14.77807
#
# Poissons Ratio (x) = 0.41510 0.01969
# Poissons Ratio (y) = 0.43559 0.07129
# Poissons Ratio (z) = 0.24763 0.85414
#
# Static dielectric constant tensor:
#      x y z
#    x 1.699600 0.000000 0.000000 
#    y 0.000000 2.117720 0.000000 
#    z 0.000000 0.000000 1.595570 
# 
# From -- ./inp_files/18608.got.cif
#   From: 2010.05.17/outbox.cif.g08.bks.cpg/sg73_10_cif.got.tgz:18608.got - 2010.06.03 17:35:07.
