data_PCOD9530707
_publ_section_title
;
Structure prediction by ZEFSAII (Michael W. Deem and Ramdas Pophale) SiO2 
 PCOD9530707
Probable space group: I B C A 
;
_chemical_formula_sum "Si O2"
_cell_formula_units_Z 96
_cell_length_a 23.397736
_cell_length_b 16.179625
_cell_length_c 11.904285
_cell_angle_alpha 90.000000
_cell_angle_beta 90.000000
_cell_angle_gamma 90.000000
_cell_volume 4506.564630
_symmetry_space_group_name_H-M "I B C A "
_symmetry_group_IT_number 73
_symmetry_cell_setting 'orthorhombic'
loop_
_space_group_symop_operation_xyz
x,y,z
-x,1/2-y,z
x,-y,1/2-z
1/2-x,y,-z
-x,-y,-z
x,1/2+y,-z
-x,y,1/2+z
1/2+x,-y,z
1/2+x,1/2+y,1/2+z
1/2-x,-y,1/2+z
1/2+x,1/2-y,-z
-x,1/2+y,1/2-z
1/2-x,1/2-y,1/2-z
1/2+x,y,1/2-z
1/2-x,1/2+y,z
x,1/2-y,1/2+z
loop_
_atom_site_type_symbol
_atom_site_label
_atom_site_fract_x
_atom_site_fract_y
_atom_site_fract_z
Si Si1 0.000000 0.250000 0.525975
Si Si2 0.930137 0.015326 0.620312
Si Si3 0.792813 0.229191 0.095666
Si Si4 0.611823 0.319458 0.004710
Si Si5 0.148363 0.500000 0.250000
Si Si6 0.944101 0.585931 0.903592
Si Si7 0.289769 0.360141 0.670700
O O1 0.049360 0.293391 0.455429
O O2 0.030653 0.178333 0.597094
O O3 0.898731 0.095829 0.565082
O O4 0.998563 0.032604 0.621978
O O5 0.912026 0.000000 0.750000
O O6 0.923374 0.941211 0.529300
O O7 0.858085 0.247343 0.067485
O O8 0.767182 0.321430 0.119526
O O9 0.787979 0.171738 0.202592
O O10 0.750000 0.196275 0.000000
O O11 0.656203 0.322933 0.105760
O O12 0.105754 0.438967 0.183056
O O13 0.192510 0.454822 0.332995
#
# Coordination Sequence:
#
# PCOD9530707 Si02
#       7
#     8  16  16  16   8  16  16
#     4  10  22  36  62  94 134 170 224 260 332 418
#     4  10  20  37  57  83 126 173 211 267 334 397
#     4   9  20  41  64  87 126 166 216 273 338 402
#     4  10  20  39  59  92 128 167 218 271 332 404
#     4  12  20  38  66  92 128 166 224 280 332 398
#     4  10  21  36  57  90 124 173 218 270 326 404
#     4  10  21  38  64  89 120 171 213 279 337 390
#
# _framework density 21.302258999999999
#
# number of rings (size 3 to 8) (size 9 to 14) (size 15 to 20)
#    0.000    2.000    2.500    1.000    0.000    1.333 
#    1.500   10.833    0.000    0.000    0.000    0.000 
#    0.000    0.000    0.000    0.000    0.000    0.000 
#
# Total GULP energy -267226.932450 kJ/mol
# GULP energy per Si atom -5567.227759 kJ/mol
# Density = 2.125377 g / cm^3
# Si number density = 21.302259 Si / 1000 Ang^3
#
#
#
# Elastic Constant Matrix: (Units=GPa)
#
#
# Indices 1 2 3 4 5 6 
#
# 1 103.4723 6.6375 10.7784 0.0000 0.0000 0.0000
# 2 6.6375 49.7929 7.6411 0.0000 0.0000 0.0000
# 3 10.7784 7.6411 90.7600 0.0000 0.0000 0.0000
# 4 0.0000 0.0000 0.0000 6.5420 0.0000 0.0000
# 5 0.0000 0.0000 0.0000 0.0000 -2.5285 0.0000
# 6 0.0000 0.0000 0.0000 0.0000 0.0000 29.1863
#
#
#
# Elastic Compliance Matrix: (Units=1/GPa)
#
#
# Indices 1 2 3 4 5 6 
#
# 1 0.009850 -0.001148 -0.001073 0.000000 0.000000 0.000000
# 2 -0.001148 0.020480 -0.001588 0.000000 0.000000 0.000000
# 3 -0.001073 -0.001588 0.011279 0.000000 0.000000 0.000000
# 4 0.000000 0.000000 0.000000 0.152857 0.000000 0.000000
# 5 0.000000 0.000000 0.000000 0.000000 -0.395487 0.000000
# 6 0.000000 0.000000 0.000000 0.000000 0.000000 0.034263
#
#
# Mechanical properties :
#
#
# Convention : Reuss Voigt Hill
#
# Bulk Modulus (GPa) = 29.42000 32.68214 31.05107
# Shear Modulus (GPa) = -33.82744 21.23783 -6.29481
#
# Velocity S-wave (km/s) = -3.98926 3.16092 -1.72087
# Velocity P-wave (km/s) = 2.71629 5.35698 3.26489
#
# Compressibility (1/GPa) = 0.03399049
#
# Stress axis : x y z
#
# Youngs Moduli (GPa) = 101.52422 48.82830 88.65886
#
# Poissons Ratio (x) = 0.05607 0.09514
# Poissons Ratio (y) = 0.11658 0.14078
# Poissons Ratio (z) = 0.10894 0.07753
#
# Static dielectric constant tensor:
#      x y z
#    x 1.734320 0.000000 0.000000 
#    y 0.000000 1.889060 0.000000 
#    z 0.000000 0.000000 1.827430 
# 
# From -- ./inp_files/13674.got.cif
#   From: 2010.05.17/outbox.cif.g08.bks.cpg/sg73_7_cif.got.tgz:13674.got - 2010.06.03 17:35:07.
