data_PCOD9530904
_publ_section_title
;
Structure prediction by ZEFSAII (Michael W. Deem and Ramdas Pophale) SiO2 
 PCOD9530904
Probable space group: I B C A 
;
_chemical_formula_sum "Si O2"
_cell_formula_units_Z 88
_cell_length_a 20.880588
_cell_length_b 10.188000
_cell_length_c 17.756089
_cell_angle_alpha 90.000000
_cell_angle_beta 90.000000
_cell_angle_gamma 90.000000
_cell_volume 3777.278214
_symmetry_space_group_name_H-M "I B C A "
_symmetry_group_IT_number 73
_symmetry_cell_setting 'orthorhombic'
loop_
_space_group_symop_operation_xyz
x,y,z
-x,1/2-y,z
x,-y,1/2-z
1/2-x,y,-z
-x,-y,-z
x,1/2+y,-z
-x,y,1/2+z
1/2+x,-y,z
1/2+x,1/2+y,1/2+z
1/2-x,-y,1/2+z
1/2+x,1/2-y,-z
-x,1/2+y,1/2-z
1/2-x,1/2-y,1/2-z
1/2+x,y,1/2-z
1/2-x,1/2+y,z
x,1/2-y,1/2+z
loop_
_atom_site_type_symbol
_atom_site_label
_atom_site_fract_x
_atom_site_fract_y
_atom_site_fract_z
Si Si1 0.374315 0.359113 0.513602
Si Si2 0.274466 0.920828 0.589024
Si Si3 0.500000 0.250000 0.462959
Si Si4 0.927634 0.299180 0.771211
Si Si5 0.413488 0.948769 0.129020
Si Si6 0.313839 0.196747 0.633662
O O1 0.347424 0.379661 0.430347
O O2 0.448662 0.328144 0.511228
O O3 0.365869 0.485221 0.568410
O O4 0.342335 0.231709 0.551001
O O5 0.250000 0.923178 0.500000
O O6 0.278009 0.060115 0.628773
O O7 0.236733 0.816182 0.639436
O O8 0.463921 0.139731 0.414960
O O9 0.892457 0.354826 0.696940
O O10 0.938271 0.422512 0.827120
O O11 0.875292 0.206075 0.811786
O O12 0.000000 0.250000 0.754430
#
# Coordination Sequence:
#
# PCOD9530904 Si02
#       6
#    16  16   8  16  16  16
#     4  10  22  35  63  96 138 168 219 277 349 404
#     4  10  20  39  63  98 130 178 221 283 336 401
#     4  12  22  36  60 106 134 168 208 288 334 422
#     4  10  22  41  65  91 131 184 223 272 333 398
#     4  10  22  38  60  95 134 174 215 272 336 406
#     4  10  22  38  68  92 131 178 229 271 337 405
#
# _framework density 23.297198999999999
#
# number of rings (size 3 to 8) (size 9 to 14) (size 15 to 20)
#    0.000    1.818    0.909    3.273    7.636    2.909 
#    0.000    0.000    0.000   45.818    0.000    0.000 
#    0.000    0.000    0.000    0.000    0.000    0.000 
#
# Total GULP energy -245395.071680 kJ/mol
# GULP energy per Si atom -5577.160720 kJ/mol
# Density = 2.324417 g / cm^3
# Si number density = 23.297199 Si / 1000 Ang^3
#
#
#
# Elastic Constant Matrix: (Units=GPa)
#
#
# Indices 1 2 3 4 5 6 
#
# 1 83.3796 32.4998 23.2789 0.0000 0.0000 0.0000
# 2 32.4998 59.2888 23.3120 0.0000 0.0000 0.0000
# 3 23.2789 23.3120 52.4784 0.0000 0.0000 0.0000
# 4 0.0000 0.0000 0.0000 9.3005 0.0000 0.0000
# 5 0.0000 0.0000 0.0000 0.0000 6.4850 0.0000
# 6 0.0000 0.0000 0.0000 0.0000 0.0000 37.5918
#
#
#
# Elastic Compliance Matrix: (Units=1/GPa)
#
#
# Indices 1 2 3 4 5 6 
#
# 1 0.015868 -0.007186 -0.003847 0.000000 0.000000 0.000000
# 2 -0.007186 0.023690 -0.007336 0.000000 0.000000 0.000000
# 3 -0.003847 -0.007336 0.024021 0.000000 0.000000 0.000000
# 4 0.000000 0.000000 0.000000 0.107521 0.000000 0.000000
# 5 0.000000 0.000000 0.000000 0.000000 0.154203 0.000000
# 6 0.000000 0.000000 0.000000 0.000000 0.000000 0.026602
#
#
# Mechanical properties :
#
#
# Convention : Reuss Voigt Hill
#
# Bulk Modulus (GPa) = 37.25574 39.25869 38.25721
# Shear Modulus (GPa) = 12.57580 18.41252 15.49416
#
# Velocity S-wave (km/s) = 2.32588 2.81433 2.58168
# Velocity P-wave (km/s) = 4.82070 5.23913 5.03426
#
# Compressibility (1/GPa) = 0.02684150
#
# Stress axis : x y z
#
# Youngs Moduli (GPa) = 63.01891 42.21186 41.63066
#
# Poissons Ratio (x) = 0.30332 0.16015
# Poissons Ratio (y) = 0.45284 0.30541
# Poissons Ratio (z) = 0.24243 0.30967
#
# Static dielectric constant tensor:
#      x y z
#    x 2.042840 0.000000 0.000000 
#    y 0.000000 1.880630 0.000000 
#    z 0.000000 0.000000 1.895480 
# 
# From -- ./inp_files/26441.got.cif
#   From: 2010.05.17/outbox.cif.g08.bks.cpg/sg73_14_cif.got.tgz:26441.got - 2010.06.03 17:35:07.
