data_PCOD9530209
_publ_section_title
;
Structure prediction by ZEFSAII (Michael W. Deem and Ramdas Pophale) SiO2 
 PCOD9530209
Probable space group: I B C A 
;
_chemical_formula_sum "Si O2"
_cell_formula_units_Z 112
_cell_length_a 23.974770
_cell_length_b 15.482221
_cell_length_c 14.882019
_cell_angle_alpha 90.000000
_cell_angle_beta 90.000000
_cell_angle_gamma 90.000000
_cell_volume 5523.947809
_symmetry_space_group_name_H-M "I B C A "
_symmetry_group_IT_number 73
_symmetry_cell_setting 'orthorhombic'
loop_
_space_group_symop_operation_xyz
x,y,z
-x,1/2-y,z
x,-y,1/2-z
1/2-x,y,-z
-x,-y,-z
x,1/2+y,-z
-x,y,1/2+z
1/2+x,-y,z
1/2+x,1/2+y,1/2+z
1/2-x,-y,1/2+z
1/2+x,1/2-y,-z
-x,1/2+y,1/2-z
1/2-x,1/2-y,1/2-z
1/2+x,y,1/2-z
1/2-x,1/2+y,z
x,1/2-y,1/2+z
loop_
_atom_site_type_symbol
_atom_site_label
_atom_site_fract_x
_atom_site_fract_y
_atom_site_fract_z
Si Si1 0.338192 0.399557 0.012381
Si Si2 0.796766 0.833212 0.802329
Si Si3 0.525704 0.948063 0.328676
Si Si4 0.384013 0.430880 0.421658
Si Si5 0.104096 0.203786 0.334379
Si Si6 0.734465 0.650147 0.138211
Si Si7 0.542737 0.671036 0.446133
O O1 0.359782 0.496671 0.012159
O O2 0.380161 0.338670 0.068434
O O3 0.283401 0.387498 0.075395
O O4 0.322275 0.373355 0.912060
O O5 0.832103 0.894682 0.865671
O O6 0.843144 0.796139 0.731521
O O7 0.768170 0.754560 0.855186
O O8 0.750432 0.877516 0.739013
O O9 0.557318 0.860993 0.295579
O O10 0.489778 0.913866 0.411989
O O11 0.494719 0.000000 0.250000
O O12 0.573635 0.014353 0.360176
O O13 0.417276 0.356119 0.472879
O O14 0.078232 0.294772 0.360864
O O15 0.500000 0.750000 0.467157
#
# Coordination Sequence:
#
# PCOD9530209 Si02
#       7
#    16  16  16  16  16  16  16
#     4   9  19  36  58  80 119 149 190 236 298 341
#     4  10  19  35  61  83 111 149 202 230 293 354
#     4  10  19  37  58  82 116 154 195 244 297 350
#     4  11  21  37  62  86 110 160 197 238 295 363
#     4   9  18  35  58  81 116 157 188 246 289 354
#     4   9  19  36  55  85 111 147 186 245 281 346
#     4  10  22  39  55  84 120 150 198 246 294 348
#
# _framework density 20.275352999999999
#
# number of rings (size 3 to 8) (size 9 to 14) (size 15 to 20)
#    0.000    2.286    1.429    1.286    0.000    0.000 
#    5.143   12.857    0.000    0.000    0.000    0.000 
#    0.000    0.000    0.000    0.000    0.000    0.000 
#
# Total GULP energy -311942.494797 kJ/mol
# GULP energy per Si atom -5570.401693 kJ/mol
# Density = 2.022921 g / cm^3
# Si number density = 20.275353 Si / 1000 Ang^3
#
#
#
# Elastic Constant Matrix: (Units=GPa)
#
#
# Indices 1 2 3 4 5 6 
#
# 1 35.0811 15.5189 16.4692 0.0000 0.0000 0.0000
# 2 15.5189 65.4804 29.1253 0.0000 0.0000 0.0000
# 3 16.4692 29.1253 57.1514 0.0000 0.0000 0.0000
# 4 0.0000 0.0000 0.0000 35.5685 0.0000 0.0000
# 5 0.0000 0.0000 0.0000 0.0000 23.6235 0.0000
# 6 0.0000 0.0000 0.0000 0.0000 0.0000 -57.0868
#
#
#
# Elastic Compliance Matrix: (Units=1/GPa)
#
#
# Indices 1 2 3 4 5 6 
#
# 1 0.034092 -0.004798 -0.007379 0.000000 0.000000 0.000000
# 2 -0.004798 0.020423 -0.009026 0.000000 0.000000 0.000000
# 3 -0.007379 -0.009026 0.024223 0.000000 0.000000 0.000000
# 4 0.000000 0.000000 0.000000 0.028115 0.000000 0.000000
# 5 0.000000 0.000000 0.000000 0.000000 0.042331 0.000000
# 6 0.000000 0.000000 0.000000 0.000000 0.000000 -0.017517
#
#
# Mechanical properties :
#
#
# Convention : Reuss Voigt Hill
#
# Bulk Modulus (GPa) = 27.52251 31.10441 29.31346
# Shear Modulus (GPa) = 26.85529 6.86101 16.85815
#
# Velocity S-wave (km/s) = 3.64336 1.84154 2.88663
# Velocity P-wave (km/s) = 5.59487 4.46049 5.05957
#
# Compressibility (1/GPa) = 0.03633389
#
# Stress axis : x y z
#
# Youngs Moduli (GPa) = 29.33244 48.96371 41.28232
#
# Poissons Ratio (x) = 0.23491 0.30463
# Poissons Ratio (y) = 0.14072 0.37260
# Poissons Ratio (z) = 0.21645 0.44193
#
# Static dielectric constant tensor:
#      x y z
#    x 1.772320 0.000000 0.000000 
#    y 0.000000 1.712650 0.000000 
#    z 0.000000 0.000000 1.758830 
# 
# From -- ./inp_files/19821.got.cif
#   From: 2010.05.17/outbox.cif.g08.bks.cpg/sg73_10_cif.got.tgz:19821.got - 2010.06.03 17:35:07.
