data_PCOD9530770
_publ_section_title
;
Structure prediction by ZEFSAII (Michael W. Deem and Ramdas Pophale) SiO2 
 PCOD9530770
Probable space group: I B C A 
;
_chemical_formula_sum "Si O2"
_cell_formula_units_Z 120
_cell_length_a 25.503460
_cell_length_b 12.745208
_cell_length_c 14.846890
_cell_angle_alpha 90.000000
_cell_angle_beta 90.000000
_cell_angle_gamma 90.000000
_cell_volume 4825.935605
_symmetry_space_group_name_H-M "I B C A "
_symmetry_group_IT_number 73
_symmetry_cell_setting 'orthorhombic'
loop_
_space_group_symop_operation_xyz
x,y,z
-x,1/2-y,z
x,-y,1/2-z
1/2-x,y,-z
-x,-y,-z
x,1/2+y,-z
-x,y,1/2+z
1/2+x,-y,z
1/2+x,1/2+y,1/2+z
1/2-x,-y,1/2+z
1/2+x,1/2-y,-z
-x,1/2+y,1/2-z
1/2-x,1/2-y,1/2-z
1/2+x,y,1/2-z
1/2-x,1/2+y,z
x,1/2-y,1/2+z
loop_
_atom_site_type_symbol
_atom_site_label
_atom_site_fract_x
_atom_site_fract_y
_atom_site_fract_z
Si Si1 0.797021 0.272935 0.322924
Si Si2 0.670791 0.010321 0.346121
Si Si3 0.426304 0.360981 0.358958
Si Si4 0.406526 0.678566 0.762397
Si Si5 0.500000 0.250000 0.007009
Si Si6 0.224521 0.926085 0.592907
Si Si7 0.454360 0.050517 0.558541
Si Si8 0.608834 0.503930 0.111888
O O1 0.750000 0.250000 0.250000
O O2 0.814884 0.386877 0.362009
O O3 0.847868 0.221707 0.276497
O O4 0.786353 0.197130 0.407474
O O5 0.643770 0.000000 0.250000
O O6 0.633912 0.104623 0.385961
O O7 0.728635 0.056925 0.337772
O O8 0.433890 0.283800 0.274995
O O9 0.457242 0.304660 0.441174
O O10 0.450678 0.477357 0.355702
O O11 0.417234 0.604346 0.849679
O O12 0.407582 0.596676 0.679059
O O13 0.532151 0.170157 0.068370
O O14 0.250000 0.963195 0.500000
O O15 0.171232 0.985553 0.615848
O O16 0.405804 0.036423 0.489585
O O17 0.500000 0.000000 0.500000
#
# Coordination Sequence:
#
# PCOD9530770 Si02
#       8
#    16  16  16  16   8  16  16  16
#     4  11  21  39  64  92 137 187 228 279 352 419
#     4  12  23  40  65  99 139 181 233 285 350 422
#     4  11  22  43  69  98 133 178 235 292 360 423
#     4  10  20  37  68  97 130 181 225 288 350 417
#     4  10  22  46  70  98 138 182 226 300 374 428
#     4  11  24  40  61 100 140 180 235 281 342 425
#     4  10  22  43  70 101 132 180 235 291 366 439
#     4  10  21  39  67 100 135 181 237 278 351 439
#
# _framework density 24.865644
#
# number of rings (size 3 to 8) (size 9 to 14) (size 15 to 20)
#    0.000    1.333    4.000    1.600    1.867    0.533 
#   12.000    2.667    0.000    0.000    0.000    0.000 
#    0.000    0.000    0.000    0.000    0.000    0.000 
#
# Total GULP energy -334114.163209 kJ/mol
# GULP energy per Si atom -5568.569387 kJ/mol
# Density = 2.480905 g / cm^3
# Si number density = 24.865644 Si / 1000 Ang^3
#
#
#
# Elastic Constant Matrix: (Units=GPa)
#
#
# Indices 1 2 3 4 5 6 
#
# 1 93.2680 39.8331 11.6096 0.0000 0.0000 0.0000
# 2 39.8331 195.8470 48.8051 0.0000 0.0000 0.0000
# 3 11.6096 48.8051 75.1699 0.0000 0.0000 0.0000
# 4 0.0000 0.0000 0.0000 29.5184 0.0000 0.0000
# 5 0.0000 0.0000 0.0000 0.0000 17.7624 0.0000
# 6 0.0000 0.0000 0.0000 0.0000 0.0000 33.4746
#
#
#
# Elastic Compliance Matrix: (Units=1/GPa)
#
#
# Indices 1 2 3 4 5 6 
#
# 1 0.011748 -0.002311 -0.000314 0.000000 0.000000 0.000000
# 2 -0.002311 0.006546 -0.003893 0.000000 0.000000 0.000000
# 3 -0.000314 -0.003893 0.015879 0.000000 0.000000 0.000000
# 4 0.000000 0.000000 0.000000 0.033877 0.000000 0.000000
# 5 0.000000 0.000000 0.000000 0.000000 0.056299 0.000000
# 6 0.000000 0.000000 0.000000 0.000000 0.000000 0.029873
#
#
# Mechanical properties :
#
#
# Convention : Reuss Voigt Hill
#
# Bulk Modulus (GPa) = 47.31042 62.75338 55.03190
# Shear Modulus (GPa) = 28.68529 33.75354 31.21942
#
# Velocity S-wave (km/s) = 3.40017 3.68834 3.54718
# Velocity P-wave (km/s) = 5.87219 6.59016 6.24151
#
# Compressibility (1/GPa) = 0.02113699
#
# Stress axis : x y z
#
# Youngs Moduli (GPa) = 85.12137 152.75764 62.97439
#
# Poissons Ratio (x) = 0.35305 0.01976
# Poissons Ratio (y) = 0.19673 0.24518
# Poissons Ratio (z) = 0.02671 0.59474
#
# Static dielectric constant tensor:
#      x y z
#    x 2.316000 0.000000 0.000000 
#    y 0.000000 2.061720 0.000000 
#    z 0.000000 0.000000 0.662900 
# 
# From -- ./inp_files/23962.got.cif
#   From: 2010.05.17/outbox.cif.g08.bks.cpg/sg73_12_cif.got.tgz:23962.got - 2010.06.03 17:35:07.
