data_PCOD9530233
_publ_section_title
;
Structure prediction by ZEFSAII (Michael W. Deem and Ramdas Pophale) SiO2 
 PCOD9530233
Probable space group: I B C A 
;
_chemical_formula_sum "Si O2"
_cell_formula_units_Z 96
_cell_length_a 22.127313
_cell_length_b 18.485176
_cell_length_c 11.154658
_cell_angle_alpha 90.000000
_cell_angle_beta 90.000000
_cell_angle_gamma 90.000000
_cell_volume 4562.559368
_symmetry_space_group_name_H-M "I B C A "
_symmetry_group_IT_number 73
_symmetry_cell_setting 'orthorhombic'
loop_
_space_group_symop_operation_xyz
x,y,z
-x,1/2-y,z
x,-y,1/2-z
1/2-x,y,-z
-x,-y,-z
x,1/2+y,-z
-x,y,1/2+z
1/2+x,-y,z
1/2+x,1/2+y,1/2+z
1/2-x,-y,1/2+z
1/2+x,1/2-y,-z
-x,1/2+y,1/2-z
1/2-x,1/2-y,1/2-z
1/2+x,y,1/2-z
1/2-x,1/2+y,z
x,1/2-y,1/2+z
loop_
_atom_site_type_symbol
_atom_site_label
_atom_site_fract_x
_atom_site_fract_y
_atom_site_fract_z
Si Si1 0.126703 0.707013 0.374538
Si Si2 0.342067 0.114646 0.083866
Si Si3 0.928749 0.739368 0.622148
Si Si4 0.713615 0.829892 0.152267
Si Si5 0.307673 0.063235 0.659902
Si Si6 0.165134 0.450462 0.106460
O O1 0.098131 0.716478 0.507261
O O2 0.092144 0.745481 0.262616
O O3 0.190933 0.749840 0.378064
O O4 0.133778 0.622119 0.345584
O O5 0.402913 0.159913 0.090003
O O6 0.285359 0.157095 0.145151
O O7 0.350901 0.033794 0.131472
O O8 0.316879 0.117383 0.947268
O O9 0.000000 0.750000 0.619335
O O10 0.689145 0.858964 0.277697
O O11 0.341798 0.058024 0.536378
O O12 0.236417 0.052590 0.634672
O O13 0.326646 0.000000 0.750000
#
# Coordination Sequence:
#
# PCOD9530233 Si02
#       6
#    16  16  16  16  16  16
#     4  11  25  41  68  96 130 164 219 270 323 393
#     4  10  20  36  61  91 128 165 211 258 321 381
#     4  11  25  46  66  88 121 173 218 272 326 383
#     4  10  19  36  58  93 132 170 197 257 328 379
#     4  11  18  31  56  87 141 177 203 246 310 405
#     4  11  22  34  57  98 125 176 214 256 317 383
#
# _framework density 21.040823
#
# number of rings (size 3 to 8) (size 9 to 14) (size 15 to 20)
#    0.000    1.333    3.333    3.500    0.000    8.000 
#    0.000    0.833    0.000    4.000    0.000    0.000 
#    0.000    0.000    0.000    0.000    0.000    0.000 
#
# Total GULP energy -267771.135699 kJ/mol
# GULP energy per Si atom -5578.565327 kJ/mol
# Density = 2.099293 g / cm^3
# Si number density = 21.040823 Si / 1000 Ang^3
#
#
#
# Elastic Constant Matrix: (Units=GPa)
#
#
# Indices 1 2 3 4 5 6 
#
# 1 100.2335 70.6842 33.2782 0.0000 0.0000 0.0000
# 2 70.6842 142.3384 30.0312 0.0000 0.0000 0.0000
# 3 33.2782 30.0312 117.5141 0.0000 0.0000 0.0000
# 4 0.0000 0.0000 0.0000 38.8899 0.0000 0.0000
# 5 0.0000 0.0000 0.0000 0.0000 25.0294 0.0000
# 6 0.0000 0.0000 0.0000 0.0000 0.0000 10.9711
#
#
#
# Elastic Compliance Matrix: (Units=1/GPa)
#
#
# Indices 1 2 3 4 5 6 
#
# 1 0.016103 -0.007436 -0.002660 0.000000 0.000000 0.000000
# 2 -0.007436 0.010859 -0.000669 0.000000 0.000000 0.000000
# 3 -0.002660 -0.000669 0.009434 0.000000 0.000000 0.000000
# 4 0.000000 0.000000 0.000000 0.025714 0.000000 0.000000
# 5 0.000000 0.000000 0.000000 0.000000 0.039953 0.000000
# 6 0.000000 0.000000 0.000000 0.000000 0.000000 0.091149
#
#
# Mechanical properties :
#
#
# Convention : Reuss Voigt Hill
#
# Bulk Modulus (GPa) = 67.26584 69.78592 68.52588
# Shear Modulus (GPa) = 22.75856 30.05091 26.40473
#
# Velocity S-wave (km/s) = 3.29239 3.78328 3.54634
# Velocity P-wave (km/s) = 6.81849 7.23348 7.02904
#
# Compressibility (1/GPa) = 0.01486639
#
# Stress axis : x y z
#
# Youngs Moduli (GPa) = 62.09869 92.08760 105.99968
#
# Poissons Ratio (x) = 0.68473 0.28196
# Poissons Ratio (y) = 0.46174 0.07096
# Poissons Ratio (z) = 0.16519 0.06165
#
# Static dielectric constant tensor:
#      x y z
#    x 1.685790 0.000000 0.000000 
#    y 0.000000 1.797930 0.000000 
#    z 0.000000 0.000000 1.902490 
# 
# From -- ./inp_files/13657.got.cif
#   From: 2010.05.17/outbox.cif.g08.bks.cpg/sg73_7_cif.got.tgz:13657.got - 2010.06.03 17:35:07.
