data_PCOD9530071
_publ_section_title
;
Structure prediction by ZEFSAII (Michael W. Deem and Ramdas Pophale) SiO2 
 PCOD9530071
Probable space group: I B C A 
;
_chemical_formula_sum "Si O2"
_cell_formula_units_Z 96
_cell_length_a 26.417112
_cell_length_b 9.425905
_cell_length_c 18.271821
_cell_angle_alpha 90.000000
_cell_angle_beta 90.000000
_cell_angle_gamma 90.000000
_cell_volume 4549.778225
_symmetry_space_group_name_H-M "I B C A "
_symmetry_group_IT_number 73
_symmetry_cell_setting 'orthorhombic'
loop_
_space_group_symop_operation_xyz
x,y,z
-x,1/2-y,z
x,-y,1/2-z
1/2-x,y,-z
-x,-y,-z
x,1/2+y,-z
-x,y,1/2+z
1/2+x,-y,z
1/2+x,1/2+y,1/2+z
1/2-x,-y,1/2+z
1/2+x,1/2-y,-z
-x,1/2+y,1/2-z
1/2-x,1/2-y,1/2-z
1/2+x,y,1/2-z
1/2-x,1/2+y,z
x,1/2-y,1/2+z
loop_
_atom_site_type_symbol
_atom_site_label
_atom_site_fract_x
_atom_site_fract_y
_atom_site_fract_z
Si Si1 0.466405 0.883528 0.308106
Si Si2 0.811928 0.552512 0.912238
Si Si3 0.125492 0.294670 0.567497
Si Si4 0.981424 0.915663 0.926980
Si Si5 0.627700 0.770301 0.897856
Si Si6 0.801122 0.961250 0.585411
O O1 0.500000 0.750000 0.279758
O O2 0.419690 0.813566 0.350348
O O3 0.448581 0.000000 0.250000
O O4 0.497820 0.982243 0.363933
O O5 0.859952 0.650489 0.890833
O O6 0.830831 0.394578 0.899607
O O7 0.754746 0.563415 0.883497
O O8 0.804162 0.582541 0.999323
O O9 0.078576 0.394844 0.586286
O O10 0.112061 0.257048 0.483200
O O11 0.177966 0.379751 0.579301
O O12 0.000000 0.750000 0.927755
O O13 0.000000 0.000000 0.000000
O O14 0.657339 0.631323 0.873358
#
# Coordination Sequence:
#
# PCOD9530071 Si02
#       6
#    16  16  16  16  16  16
#     4  12  26  44  62  85 119 160 207 253 303 363
#     4   9  17  29  49  81 118 150 187 236 291 352
#     4  10  19  30  53  83 118 152 193 235 295 351
#     4  12  24  38  62  91 123 160 202 253 299 357
#     4  10  19  33  55  78 114 153 191 238 293 350
#     4   9  17  29  49  81 117 152 186 235 292 350
#
# _framework density 21.099930000000001
#
# number of rings (size 3 to 8) (size 9 to 14) (size 15 to 20)
#    0.000    1.667    1.667    4.000    4.667    4.000 
#    0.000    0.000    0.000    1.000    0.000    2.333 
#    0.000    0.000    0.000    0.000    0.000    0.000 
#
# Total GULP energy -267380.298915 kJ/mol
# GULP energy per Si atom -5570.422894 kJ/mol
# Density = 2.105191 g / cm^3
# Si number density = 21.099930 Si / 1000 Ang^3
#
#
#
# Elastic Constant Matrix: (Units=GPa)
#
#
# Indices 1 2 3 4 5 6 
#
# 1 97.6181 6.6114 -0.4157 0.0000 0.0000 0.0000
# 2 6.6114 88.9575 2.5344 0.0000 0.0000 0.0000
# 3 -0.4157 2.5344 9.3987 0.0000 0.0000 0.0000
# 4 0.0000 0.0000 0.0000 5.0226 0.0000 0.0000
# 5 0.0000 0.0000 0.0000 0.0000 5.1702 0.0000
# 6 0.0000 0.0000 0.0000 0.0000 0.0000 -35.3651
#
#
#
# Elastic Compliance Matrix: (Units=1/GPa)
#
#
# Indices 1 2 3 4 5 6 
#
# 1 0.010300 -0.000785 0.000667 0.000000 0.000000 0.000000
# 2 -0.000785 0.011388 -0.003106 0.000000 0.000000 0.000000
# 3 0.000667 -0.003106 0.107265 0.000000 0.000000 0.000000
# 4 0.000000 0.000000 0.000000 0.199101 0.000000 0.000000
# 5 0.000000 0.000000 0.000000 0.000000 0.193417 0.000000
# 6 0.000000 0.000000 0.000000 0.000000 0.000000 -0.028276
#
#
# Mechanical properties :
#
#
# Convention : Reuss Voigt Hill
#
# Bulk Modulus (GPa) = 8.16280 23.71495 15.93888
# Shear Modulus (GPa) = 9.25111 7.44848 8.34979
#
# Velocity S-wave (km/s) = 2.09617 1.88089 1.99144
# Velocity P-wave (km/s) = 3.12020 3.99759 3.58583
#
# Compressibility (1/GPa) = 0.12250700
#
# Stress axis : x y z
#
# Youngs Moduli (GPa) = 97.08766 87.81096 9.32272
#
# Poissons Ratio (x) = 0.06889 -0.00622
# Poissons Ratio (y) = 0.07617 0.02895
# Poissons Ratio (z) = -0.06477 0.27270
#
# Static dielectric constant tensor:
#      x y z
#    x 1.759370 0.000000 0.000000 
#    y 0.000000 1.819030 0.000000 
#    z 0.000000 0.000000 1.766470 
# 
# From -- ./inp_files/27505.got.cif
#   From: 2010.05.17/outbox.cif.g08.bks.cpg/sg73_14_cif.got.tgz:27505.got - 2010.06.03 17:35:07.
