data_PCOD9530588
_publ_section_title
;
Structure prediction by ZEFSAII (Michael W. Deem and Ramdas Pophale) SiO2 
 PCOD9530588
Probable space group: I B C A 
;
_chemical_formula_sum "Si O2"
_cell_formula_units_Z 80
_cell_length_a 18.890662
_cell_length_b 20.947582
_cell_length_c 7.942528
_cell_angle_alpha 90.000000
_cell_angle_beta 90.000000
_cell_angle_gamma 90.000000
_cell_volume 3142.967073
_symmetry_space_group_name_H-M "I B C A "
_symmetry_group_IT_number 73
_symmetry_cell_setting 'orthorhombic'
loop_
_space_group_symop_operation_xyz
x,y,z
-x,1/2-y,z
x,-y,1/2-z
1/2-x,y,-z
-x,-y,-z
x,1/2+y,-z
-x,y,1/2+z
1/2+x,-y,z
1/2+x,1/2+y,1/2+z
1/2-x,-y,1/2+z
1/2+x,1/2-y,-z
-x,1/2+y,1/2-z
1/2-x,1/2-y,1/2-z
1/2+x,y,1/2-z
1/2-x,1/2+y,z
x,1/2-y,1/2+z
loop_
_atom_site_type_symbol
_atom_site_label
_atom_site_fract_x
_atom_site_fract_y
_atom_site_fract_z
Si Si1 0.443992 0.589025 0.542620
Si Si2 0.166159 0.325265 0.519205
Si Si3 0.890840 0.792811 0.615113
Si Si4 0.750000 0.347925 0.500000
Si Si5 0.551555 0.000000 0.250000
Si Si6 0.188635 0.927188 0.722304
O O1 0.450555 0.661083 0.466877
O O2 0.414471 0.546005 0.387995
O O3 0.507810 0.551008 0.632292
O O4 0.384399 0.585884 0.682472
O O5 0.250000 0.305712 0.500000
O O6 0.114490 0.283813 0.395853
O O7 0.129390 0.313901 0.697597
O O8 0.172756 0.398823 0.460801
O O9 0.821889 0.809293 0.503652
O O10 0.746273 0.387758 0.328132
O O11 0.206454 0.000000 0.750000
#
# Coordination Sequence:
#
# PCOD9530588 Si02
#       6
#    16  16  16   8   8  16
#     4  10  23  41  70  96 122 175 217 284 327 412
#     4  12  23  40  65  95 142 189 214 267 320 402
#     4  11  22  39  65  95 132 177 227 259 334 394
#     4  10  20  36  54  88 138 166 218 258 308 398
#     4  10  22  46  68  94 130 166 232 278 362 378
#     4  11  24  38  59  97 137 173 224 263 330 396
#
# _framework density 25.453655000000001
#
# number of rings (size 3 to 8) (size 9 to 14) (size 15 to 20)
#    0.000    1.200    4.000    3.000    4.200    0.000 
#    3.600    0.000    0.000   14.400    0.000    0.000 
#    0.000    0.000    0.000    0.000    0.000    0.000 
#
# Total GULP energy -223112.240471 kJ/mol
# GULP energy per Si atom -5577.806012 kJ/mol
# Density = 2.539572 g / cm^3
# Si number density = 25.453655 Si / 1000 Ang^3
#
#
#
# Elastic Constant Matrix: (Units=GPa)
#
#
# Indices 1 2 3 4 5 6 
#
# 1 39.2022 14.5081 5.6134 0.0000 0.0000 0.0000
# 2 14.5081 117.2091 21.7227 0.0000 0.0000 0.0000
# 3 5.6134 21.7227 120.6966 0.0000 0.0000 0.0000
# 4 0.0000 0.0000 0.0000 51.9359 0.0000 0.0000
# 5 0.0000 0.0000 0.0000 0.0000 17.4243 0.0000
# 6 0.0000 0.0000 0.0000 0.0000 0.0000 29.8437
#
#
#
# Elastic Compliance Matrix: (Units=1/GPa)
#
#
# Indices 1 2 3 4 5 6 
#
# 1 0.026786 -0.003191 -0.000671 0.000000 0.000000 0.000000
# 2 -0.003191 0.009206 -0.001509 0.000000 0.000000 0.000000
# 3 -0.000671 -0.001509 0.008588 0.000000 0.000000 0.000000
# 4 0.000000 0.000000 0.000000 0.019254 0.000000 0.000000
# 5 0.000000 0.000000 0.000000 0.000000 0.057391 0.000000
# 6 0.000000 0.000000 0.000000 0.000000 0.000000 0.033508
#
#
# Mechanical properties :
#
#
# Convention : Reuss Voigt Hill
#
# Bulk Modulus (GPa) = 29.55252 40.08847 34.82049
# Shear Modulus (GPa) = 28.28772 35.52504 31.90638
#
# Velocity S-wave (km/s) = 3.33730 3.73993 3.54433
# Velocity P-wave (km/s) = 5.14642 5.86798 5.51900
#
# Compressibility (1/GPa) = 0.03383807
#
# Stress axis : x y z
#
# Youngs Moduli (GPa) = 37.33306 108.62089 116.44202
#
# Poissons Ratio (x) = 0.34662 0.07818
# Poissons Ratio (y) = 0.11913 0.17565
# Poissons Ratio (z) = 0.02507 0.16386
#
# Static dielectric constant tensor:
#      x y z
#    x 2.012550 0.000000 0.000000 
#    y 0.000000 2.221770 0.000000 
#    z 0.000000 0.000000 2.021270 
# 
# From -- ./inp_files/7015.got.cif
#   From: 2010.05.17/outbox.cif.g08.bks.cpg/sg73_4_cif.got.tgz:7015.got - 2010.06.03 17:35:07.
