data_PCOD9530981
_publ_section_title
;
Structure prediction by ZEFSAII (Michael W. Deem and Ramdas Pophale) SiO2 
 PCOD9530981
Probable space group: I B C A 
;
_chemical_formula_sum "Si O2"
_cell_formula_units_Z 120
_cell_length_a 12.605141
_cell_length_b 24.566948
_cell_length_c 16.094096
_cell_angle_alpha 90.000000
_cell_angle_beta 90.000000
_cell_angle_gamma 90.000000
_cell_volume 4983.856189
_symmetry_space_group_name_H-M "I B C A "
_symmetry_group_IT_number 73
_symmetry_cell_setting 'orthorhombic'
loop_
_space_group_symop_operation_xyz
x,y,z
-x,1/2-y,z
x,-y,1/2-z
1/2-x,y,-z
-x,-y,-z
x,1/2+y,-z
-x,y,1/2+z
1/2+x,-y,z
1/2+x,1/2+y,1/2+z
1/2-x,-y,1/2+z
1/2+x,1/2-y,-z
-x,1/2+y,1/2-z
1/2-x,1/2-y,1/2-z
1/2+x,y,1/2-z
1/2-x,1/2+y,z
x,1/2-y,1/2+z
loop_
_atom_site_type_symbol
_atom_site_label
_atom_site_fract_x
_atom_site_fract_y
_atom_site_fract_z
Si Si1 0.858511 0.552978 0.421640
Si Si2 0.490211 0.863788 0.470921
Si Si3 0.500000 0.250000 0.064795
Si Si4 0.672389 0.129150 0.822909
Si Si5 0.987361 0.558376 0.258306
Si Si6 0.291695 0.140360 0.134552
Si Si7 0.230637 0.241520 0.349332
Si Si8 0.154919 0.932998 0.093932
O O1 0.938193 0.590664 0.472170
O O2 0.753211 0.588420 0.412670
O O3 0.851343 0.491045 0.450563
O O4 0.899728 0.547593 0.327813
O O5 0.485542 0.801426 0.495477
O O6 0.415621 0.859352 0.388650
O O7 0.609132 0.883763 0.459485
O O8 0.394500 0.263508 0.121928
O O9 0.556723 0.107613 0.796277
O O10 0.726708 0.133270 0.731977
O O11 0.699566 0.187304 0.865870
O O12 0.729858 0.081602 0.873398
O O13 0.049001 0.500000 0.250000
O O14 0.926810 0.568086 0.172133
O O15 0.242341 0.199126 0.110922
O O16 0.250000 0.250000 0.250000
#
# Coordination Sequence:
#
# PCOD9530981 Si02
#       8
#    16  16   8  16  16  16  16  16
#     4  11  24  40  60  95 128 171 212 260 321 388
#     4  11  22  42  65  93 128 173 216 258 325 393
#     4  10  20  40  66  88 130 182 210 260 330 382
#     4  11  20  37  64  95 123 163 210 270 329 368
#     4  10  23  38  60  92 127 164 210 263 320 382
#     4  10  21  38  64  94 125 162 216 265 316 384
#     4   9  20  36  61  95 124 157 216 263 313 377
#     4  11  22  39  67  91 128 164 212 269 315 385
#
# _framework density 24.077742000000001
#
# number of rings (size 3 to 8) (size 9 to 14) (size 15 to 20)
#    0.000    1.600    4.000    0.800    1.867    0.000 
#    2.400    2.000    0.000    0.000    0.000    0.000 
#    0.000    0.000    0.000    0.000    0.000    0.000 
#
# Total GULP energy -334482.169702 kJ/mol
# GULP energy per Si atom -5574.702828 kJ/mol
# Density = 2.402294 g / cm^3
# Si number density = 24.077742 Si / 1000 Ang^3
#
#
#
# Elastic Constant Matrix: (Units=GPa)
#
#
# Indices 1 2 3 4 5 6 
#
# 1 63.1850 30.9650 12.0599 0.0000 0.0000 0.0000
# 2 30.9650 177.6731 32.9831 0.0001 0.0000 0.0000
# 3 12.0599 32.9831 40.4525 0.0001 0.0000 0.0000
# 4 0.0000 0.0001 0.0001 9.1143 0.0000 0.0000
# 5 0.0000 0.0000 0.0000 0.0000 30.8917 0.0000
# 6 0.0000 0.0000 0.0000 0.0000 0.0000 32.5570
#
#
#
# Elastic Compliance Matrix: (Units=1/GPa)
#
#
# Indices 1 2 3 4 5 6 
#
# 1 0.017659 -0.002475 -0.003247 0.000000 0.000000 0.000000
# 2 -0.002475 0.006979 -0.004953 0.000000 0.000000 0.000000
# 3 -0.003247 -0.004953 0.029726 0.000000 0.000000 0.000000
# 4 0.000000 0.000000 0.000000 0.109718 0.000000 0.000000
# 5 0.000000 0.000000 0.000000 0.000000 0.032371 0.000000
# 6 0.000000 0.000000 0.000000 0.000000 0.000000 0.030715
#
#
# Mechanical properties :
#
#
# Convention : Reuss Voigt Hill
#
# Bulk Modulus (GPa) = 30.28817 48.14740 39.21778
# Shear Modulus (GPa) = 19.26614 28.19944 23.73279
#
# Velocity S-wave (km/s) = 2.83179 3.42597 3.14295
# Velocity P-wave (km/s) = 4.82687 5.97409 5.43085
#
# Compressibility (1/GPa) = 0.03301620
#
# Stress axis : x y z
#
# Youngs Moduli (GPa) = 56.62799 143.28633 33.64016
#
# Poissons Ratio (x) = 0.35462 0.10922
# Poissons Ratio (y) = 0.14015 0.16660
# Poissons Ratio (z) = 0.18385 0.70963
#
# Static dielectric constant tensor:
#      x y z
#    x 1.960610 0.000000 0.000000 
#    y 0.000000 2.031280 0.000000 
#    z 0.000000 0.000000 1.940150 
# 
# From -- ./inp_files/22154.got.cif
#   From: 2010.05.17/outbox.cif.g08.bks.cpg/sg73_12_cif.got.tgz:22154.got - 2010.06.03 17:35:07.
