data_PCOD9530890
_publ_section_title
;
Structure prediction by ZEFSAII (Michael W. Deem and Ramdas Pophale) SiO2 
 PCOD9530890
Probable space group: I B C A 
;
_chemical_formula_sum "Si O2"
_cell_formula_units_Z 88
_cell_length_a 10.804680
_cell_length_b 21.657200
_cell_length_c 17.811226
_cell_angle_alpha 90.000000
_cell_angle_beta 90.000000
_cell_angle_gamma 90.000000
_cell_volume 4167.811133
_symmetry_space_group_name_H-M "I B C A "
_symmetry_group_IT_number 73
_symmetry_cell_setting 'orthorhombic'
loop_
_space_group_symop_operation_xyz
x,y,z
-x,1/2-y,z
x,-y,1/2-z
1/2-x,y,-z
-x,-y,-z
x,1/2+y,-z
-x,y,1/2+z
1/2+x,-y,z
1/2+x,1/2+y,1/2+z
1/2-x,-y,1/2+z
1/2+x,1/2-y,-z
-x,1/2+y,1/2-z
1/2-x,1/2-y,1/2-z
1/2+x,y,1/2-z
1/2-x,1/2+y,z
x,1/2-y,1/2+z
loop_
_atom_site_type_symbol
_atom_site_label
_atom_site_fract_x
_atom_site_fract_y
_atom_site_fract_z
Si Si1 0.865521 0.450664 0.549525
Si Si2 0.328438 0.688705 0.228206
Si Si3 0.781651 0.936795 0.699736
Si Si4 0.500000 0.250000 0.167341
Si Si5 0.494605 0.075390 0.086983
Si Si6 0.208529 0.820858 0.584516
O O1 0.750000 0.475332 0.500000
O O2 0.812426 0.430773 0.629694
O O3 0.955087 0.505831 0.570979
O O4 0.931882 0.405036 0.489772
O O5 0.250000 0.750000 0.250000
O O6 0.265661 0.624785 0.251995
O O7 0.453573 0.697246 0.275410
O O8 0.327522 0.684084 0.138683
O O9 0.914688 0.929727 0.658039
O O10 0.772077 0.000000 0.750000
O O11 0.612339 0.269550 0.114340
O O12 0.373157 0.117050 0.094815
O O13 0.250000 0.814147 0.500000
#
# Coordination Sequence:
#
# PCOD9530890 Si02
#       6
#    16  16  16   8  16  16
#     4   9  20  37  59  92 126 169 208 269 338 390
#     4  10  23  44  67  91 137 176 212 274 330 390
#     4  11  22  39  64  96 126 173 232 271 319 399
#     4  10  22  48  64  92 134 168 224 272 334 388
#     4  10  20  39  61  91 135 165 208 282 335 387
#     4  11  23  42  66  96 127 174 220 271 325 410
#
# _framework density 21.114201000000001
#
# number of rings (size 3 to 8) (size 9 to 14) (size 15 to 20)
#    0.000    1.818    1.818    1.636    0.000    5.818 
#   13.091    0.000    0.000    0.000    0.000    0.000 
#    0.000    0.000    0.000    0.000    0.000    0.000 
#
# Total GULP energy -245047.821154 kJ/mol
# GULP energy per Si atom -5569.268663 kJ/mol
# Density = 2.106614 g / cm^3
# Si number density = 21.114201 Si / 1000 Ang^3
#
#
#
# Elastic Constant Matrix: (Units=GPa)
#
#
# Indices 1 2 3 4 5 6 
#
# 1 43.0344 4.1186 23.8393 0.0000 0.0000 0.0000
# 2 4.1186 81.8855 41.6077 0.0000 0.0000 0.0000
# 3 23.8393 41.6077 158.4147 0.0000 0.0000 0.0000
# 4 0.0000 0.0000 0.0000 25.8847 0.0000 0.0000
# 5 0.0000 0.0000 0.0000 0.0000 23.4571 0.0000
# 6 0.0000 0.0000 0.0000 0.0000 0.0000 19.1981
#
#
#
# Elastic Compliance Matrix: (Units=1/GPa)
#
#
# Indices 1 2 3 4 5 6 
#
# 1 0.025392 0.000767 -0.004023 0.000000 0.000000 0.000000
# 2 0.000767 0.014116 -0.003823 0.000000 0.000000 0.000000
# 3 -0.004023 -0.003823 0.007922 0.000000 0.000000 0.000000
# 4 0.000000 0.000000 0.000000 0.038633 0.000000 0.000000
# 5 0.000000 0.000000 0.000000 0.000000 0.042631 0.000000
# 6 0.000000 0.000000 0.000000 0.000000 0.000000 0.052089
#
#
# Mechanical properties :
#
#
# Convention : Reuss Voigt Hill
#
# Bulk Modulus (GPa) = 30.05462 46.94066 38.49764
# Shear Modulus (GPa) = 24.26815 27.95923 26.11369
#
# Velocity S-wave (km/s) = 3.39392 3.64289 3.52061
# Velocity P-wave (km/s) = 5.44275 6.32252 5.89906
#
# Compressibility (1/GPa) = 0.03327276
#
# Stress axis : x y z
#
# Youngs Moduli (GPa) = 39.38217 70.84079 126.23058
#
# Poissons Ratio (x) = -0.05432 0.50777
# Poissons Ratio (y) = -0.03020 0.48258
# Poissons Ratio (z) = 0.15842 0.27083
#
# Static dielectric constant tensor:
#      x y z
#    x 1.828270 0.000000 0.000000 
#    y 0.000000 1.767900 0.000000 
#    z 0.000000 0.000000 1.820260 
# 
# From -- ./inp_files/10976.got.cif
#   From: 2010.05.17/outbox.cif.g08.bks.cpg/sg73_6_cif.got.tgz:10976.got - 2010.06.03 17:35:07.
