data_PCOD9530746
_publ_section_title
;
Structure prediction by ZEFSAII (Michael W. Deem and Ramdas Pophale) SiO2 
 PCOD9530746
Probable space group: I B C A 
;
_chemical_formula_sum "Si O2"
_cell_formula_units_Z 72
_cell_length_a 21.670438
_cell_length_b 12.441036
_cell_length_c 13.265008
_cell_angle_alpha 90.000000
_cell_angle_beta 90.000000
_cell_angle_gamma 90.000000
_cell_volume 3576.281963
_symmetry_space_group_name_H-M "I B C A "
_symmetry_group_IT_number 73
_symmetry_cell_setting 'orthorhombic'
loop_
_space_group_symop_operation_xyz
x,y,z
-x,1/2-y,z
x,-y,1/2-z
1/2-x,y,-z
-x,-y,-z
x,1/2+y,-z
-x,y,1/2+z
1/2+x,-y,z
1/2+x,1/2+y,1/2+z
1/2-x,-y,1/2+z
1/2+x,1/2-y,-z
-x,1/2+y,1/2-z
1/2-x,1/2-y,1/2-z
1/2+x,y,1/2-z
1/2-x,1/2+y,z
x,1/2-y,1/2+z
loop_
_atom_site_type_symbol
_atom_site_label
_atom_site_fract_x
_atom_site_fract_y
_atom_site_fract_z
Si Si1 0.170082 0.973722 0.634611
Si Si2 0.556927 0.136395 0.537050
Si Si3 0.363931 0.322891 0.000256
Si Si4 0.437988 0.955387 0.863219
Si Si5 0.750000 0.661539 0.500000
O O1 0.149843 0.081980 0.577181
O O2 0.176706 0.000000 0.750000
O O3 0.114571 0.891786 0.609872
O O4 0.231479 0.918735 0.590060
O O5 0.574356 0.250909 0.487423
O O6 0.498020 0.115746 0.607944
O O7 0.557696 0.052389 0.444343
O O8 0.377986 0.384552 0.105878
O O9 0.307829 0.240483 0.988191
O O10 0.437859 0.000000 0.750000
#
# Coordination Sequence:
#
# PCOD9530746 Si02
#       5
#    16  16  16  16   8
#     4  10  21  38  60  85 119 164 213 266 316 370
#     4   9  20  37  58  89 124 154 197 253 313 386
#     4  10  21  39  59  85 121 160 206 256 314 372
#     4  10  20  37  62  91 123 156 196 253 316 381
#     4  10  22  40  58  84 120 160 212 266 308 364
#
# _framework density 20.132639999999999
#
# number of rings (size 3 to 8) (size 9 to 14) (size 15 to 20)
#    0.000    2.222    0.000    2.000    0.000    4.444 
#    0.000   22.222    0.000    0.000    0.000    1.556 
#    0.000    0.000    0.000    0.000    0.000    0.000 
#
# Total GULP energy -200488.372424 kJ/mol
# GULP energy per Si atom -5569.121456 kJ/mol
# Density = 2.008682 g / cm^3
# Si number density = 20.132640 Si / 1000 Ang^3
#
#
#
# Elastic Constant Matrix: (Units=GPa)
#
#
# Indices 1 2 3 4 5 6 
#
# 1 95.4735 41.4309 63.1147 0.0000 0.0000 0.0000
# 2 41.4309 112.0125 44.9780 0.0000 0.0000 0.0000
# 3 63.1147 44.9780 150.1997 0.0000 0.0000 0.0000
# 4 0.0000 0.0000 0.0000 6.0278 0.0000 0.0000
# 5 0.0000 0.0000 0.0000 0.0000 21.6408 0.0000
# 6 0.0000 0.0000 0.0000 0.0000 0.0000 47.5849
#
#
#
# Elastic Compliance Matrix: (Units=1/GPa)
#
#
# Indices 1 2 3 4 5 6 
#
# 1 0.015674 -0.003584 -0.005513 0.000000 0.000000 0.000000
# 2 -0.003584 0.010967 -0.001778 0.000000 0.000000 0.000000
# 3 -0.005513 -0.001778 0.009507 0.000000 0.000000 0.000000
# 4 0.000000 0.000000 0.000000 0.165897 0.000000 0.000000
# 5 0.000000 0.000000 0.000000 0.000000 0.046209 0.000000
# 6 0.000000 0.000000 0.000000 0.000000 0.000000 0.021015
#
#
# Mechanical properties :
#
#
# Convention : Reuss Voigt Hill
#
# Bulk Modulus (GPa) = 69.45478 72.97034 71.21256
# Shear Modulus (GPa) = 16.90227 28.92818 22.91522
#
# Velocity S-wave (km/s) = 2.90063 3.79473 3.37740
# Velocity P-wave (km/s) = 6.76696 7.45141 7.11742
#
# Compressibility (1/GPa) = 0.01439786
#
# Stress axis : x y z
#
# Youngs Moduli (GPa) = 63.80096 91.18147 105.18633
#
# Poissons Ratio (x) = 0.32676 0.57990
# Poissons Ratio (y) = 0.22864 0.18705
# Poissons Ratio (z) = 0.35174 0.16215
#
# Static dielectric constant tensor:
#      x y z
#    x 1.800360 0.000000 0.000000 
#    y 0.000000 1.787020 0.000000 
#    z 0.000000 0.000000 1.644970 
# 
# From -- ./inp_files/19124.got.cif
#   From: 2010.05.17/outbox.cif.g08.bks.cpg/sg73_10_cif.got.tgz:19124.got - 2010.06.03 17:35:07.
