data_PCOD9530557
_publ_section_title
;
Structure prediction by ZEFSAII (Michael W. Deem and Ramdas Pophale) SiO2 
 PCOD9530557
Probable space group: I B C A 
;
_chemical_formula_sum "Si O2"
_cell_formula_units_Z 96
_cell_length_a 28.568985
_cell_length_b 7.349346
_cell_length_c 20.239995
_cell_angle_alpha 90.000000
_cell_angle_beta 90.000000
_cell_angle_gamma 90.000000
_cell_volume 4249.657268
_symmetry_space_group_name_H-M "I B C A "
_symmetry_group_IT_number 73
_symmetry_cell_setting 'orthorhombic'
loop_
_space_group_symop_operation_xyz
x,y,z
-x,1/2-y,z
x,-y,1/2-z
1/2-x,y,-z
-x,-y,-z
x,1/2+y,-z
-x,y,1/2+z
1/2+x,-y,z
1/2+x,1/2+y,1/2+z
1/2-x,-y,1/2+z
1/2+x,1/2-y,-z
-x,1/2+y,1/2-z
1/2-x,1/2-y,1/2-z
1/2+x,y,1/2-z
1/2-x,1/2+y,z
x,1/2-y,1/2+z
loop_
_atom_site_type_symbol
_atom_site_label
_atom_site_fract_x
_atom_site_fract_y
_atom_site_fract_z
Si Si1 0.302198 0.754718 0.313618
Si Si2 0.102971 0.704739 0.135830
Si Si3 0.039156 0.128814 0.970263
Si Si4 0.945556 0.789712 0.767888
Si Si5 0.803572 0.324446 0.165058
Si Si6 0.102687 0.860101 0.401997
O O1 0.343360 0.844966 0.354467
O O2 0.308702 0.786716 0.234608
O O3 0.251980 0.799738 0.344679
O O4 0.309479 0.538121 0.319217
O O5 0.076293 0.579938 0.084407
O O6 0.078798 0.689869 0.206975
O O7 0.099973 0.915954 0.107855
O O8 0.000000 0.250000 0.931801
O O9 0.072381 0.184916 0.032374
O O10 0.000000 0.000000 0.000000
O O11 0.922086 0.771926 0.838619
O O12 0.000000 0.750000 0.771278
O O13 0.938717 0.000000 0.750000
O O14 0.842869 0.298119 0.108333
#
# Coordination Sequence:
#
# PCOD9530557 Si02
#       6
#    16  16  16  16  16  16
#     4   9  17  34  59  86 117 150 190 245 304 355
#     4  10  20  38  61  85 116 159 199 241 299 359
#     4  12  24  41  61  85 121 168 200 241 297 364
#     4  10  20  35  58  84 115 151 199 252 294 346
#     4   9  17  34  59  87 116 150 190 244 305 355
#     4  10  20  38  60  85 114 159 201 238 299 360
#
# _framework density 22.590056000000001
#
# number of rings (size 3 to 8) (size 9 to 14) (size 15 to 20)
#    0.000    2.000    3.333    1.000    2.333    0.000 
#    3.000    0.833    0.000    4.000    0.000    0.000 
#    0.000    0.000    0.000    0.000    0.000    0.000 
#
# Total GULP energy -267517.663892 kJ/mol
# GULP energy per Si atom -5573.284664 kJ/mol
# Density = 2.253864 g / cm^3
# Si number density = 22.590056 Si / 1000 Ang^3
#
#
#
# Elastic Constant Matrix: (Units=GPa)
#
#
# Indices 1 2 3 4 5 6 
#
# 1 222.5629 5.4520 83.1899 0.0000 0.0000 0.0000
# 2 5.4520 41.7621 15.1569 0.0000 0.0000 0.0000
# 3 83.1899 15.1569 123.3362 0.0000 0.0000 0.0000
# 4 0.0000 0.0000 0.0000 15.2539 0.0000 0.0000
# 5 0.0000 0.0000 0.0000 0.0000 22.1552 0.0000
# 6 0.0000 0.0000 0.0000 0.0000 0.0000 19.6059
#
#
#
# Elastic Compliance Matrix: (Units=1/GPa)
#
#
# Indices 1 2 3 4 5 6 
#
# 1 0.006028 0.000721 -0.004155 0.000000 0.000000 0.000000
# 2 0.000721 0.025149 -0.003577 0.000000 0.000000 0.000000
# 3 -0.004155 -0.003577 0.011350 0.000000 0.000000 0.000000
# 4 0.000000 0.000000 0.000000 0.065557 0.000000 0.000000
# 5 0.000000 0.000000 0.000000 0.000000 0.045136 0.000000
# 6 0.000000 0.000000 0.000000 0.000000 0.000000 0.051005
#
#
# Mechanical properties :
#
#
# Convention : Reuss Voigt Hill
#
# Bulk Modulus (GPa) = 35.08027 66.13987 50.61007
# Shear Modulus (GPa) = 21.95400 30.32717 26.14058
#
# Velocity S-wave (km/s) = 3.12082 3.66799 3.40541
# Velocity P-wave (km/s) = 5.34311 6.87610 6.15750
#
# Compressibility (1/GPa) = 0.02850605
#
# Stress axis : x y z
#
# Youngs Moduli (GPa) = 165.88095 39.76274 88.10697
#
# Poissons Ratio (x) = -0.02866 0.36606
# Poissons Ratio (y) = -0.11958 0.31514
# Poissons Ratio (z) = 0.68919 0.14222
#
# Static dielectric constant tensor:
#      x y z
#    x 1.815040 0.000000 0.000000 
#    y 0.000000 1.999950 0.000000 
#    z 0.000000 0.000000 1.792390 
# 
# From -- ./inp_files/27497.got.cif
#   From: 2010.05.17/outbox.cif.g08.bks.cpg/sg73_14_cif.got.tgz:27497.got - 2010.06.03 17:35:07.
