data_PCOD9530271
_publ_section_title
;
Structure prediction by ZEFSAII (Michael W. Deem and Ramdas Pophale) SiO2 
 PCOD9530271
Probable space group: I B C A 
;
_chemical_formula_sum "Si O2"
_cell_formula_units_Z 72
_cell_length_a 13.937716
_cell_length_b 17.361196
_cell_length_c 11.826340
_cell_angle_alpha 90.000000
_cell_angle_beta 90.000000
_cell_angle_gamma 90.000000
_cell_volume 2861.683580
_symmetry_space_group_name_H-M "I B C A "
_symmetry_group_IT_number 73
_symmetry_cell_setting 'orthorhombic'
loop_
_space_group_symop_operation_xyz
x,y,z
-x,1/2-y,z
x,-y,1/2-z
1/2-x,y,-z
-x,-y,-z
x,1/2+y,-z
-x,y,1/2+z
1/2+x,-y,z
1/2+x,1/2+y,1/2+z
1/2-x,-y,1/2+z
1/2+x,1/2-y,-z
-x,1/2+y,1/2-z
1/2-x,1/2-y,1/2-z
1/2+x,y,1/2-z
1/2-x,1/2+y,z
x,1/2-y,1/2+z
loop_
_atom_site_type_symbol
_atom_site_label
_atom_site_fract_x
_atom_site_fract_y
_atom_site_fract_z
Si Si1 0.196469 0.414399 0.190374
Si Si2 0.034056 0.084877 0.533569
Si Si3 0.925144 0.188391 0.359043
Si Si4 0.872740 0.084502 0.699698
Si Si5 0.750000 0.344216 0.000000
O O1 0.193435 0.500000 0.250000
O O2 0.144029 0.418147 0.070813
O O3 0.132977 0.357474 0.265349
O O4 0.305251 0.383433 0.200095
O O5 0.998049 0.136647 0.432100
O O6 0.971318 0.109907 0.643493
O O7 0.000000 0.000000 0.500000
O O8 0.836579 0.205949 0.446280
O O9 0.000000 0.250000 0.311908
O O10 0.800431 0.100071 0.593017
O O11 0.893898 0.000000 0.750000
#
# Coordination Sequence:
#
# PCOD9530271 Si02
#       5
#    16  16  16  16   8
#     4  10  19  37  60  89 120 159 204 254 308 364
#     4  11  21  36  62  92 122 158 207 256 305 368
#     4  10  21  38  62  87 122 166 204 256 309 366
#     4   9  19  32  57  90 119 158 198 249 312 359
#     4   8  18  38  58  84 126 164 198 256 312 356
#
# _framework density 25.160012999999999
#
# number of rings (size 3 to 8) (size 9 to 14) (size 15 to 20)
#    0.000    2.222    2.222    0.667    3.111    0.889 
#    0.000    2.222    0.000    8.000    0.000    0.000 
#    0.000    0.000    0.000    0.000    0.000    0.000 
#
# Total GULP energy -200665.931882 kJ/mol
# GULP energy per Si atom -5574.053663 kJ/mol
# Density = 2.510275 g / cm^3
# Si number density = 25.160013 Si / 1000 Ang^3
#
#
#
# Elastic Constant Matrix: (Units=GPa)
#
#
# Indices 1 2 3 4 5 6 
#
# 1 142.4962 19.4459 24.9693 0.0000 0.0000 0.0000
# 2 19.4459 55.7644 11.4668 0.0000 0.0000 0.0000
# 3 24.9693 11.4668 48.6269 0.0000 0.0000 0.0000
# 4 0.0000 0.0000 0.0000 27.7584 0.0000 0.0000
# 5 0.0000 0.0000 0.0000 0.0000 88.2777 0.0000
# 6 0.0000 0.0000 0.0000 0.0000 0.0000 23.1549
#
#
#
# Elastic Compliance Matrix: (Units=1/GPa)
#
#
# Indices 1 2 3 4 5 6 
#
# 1 0.007923 -0.002025 -0.003591 0.000000 0.000000 0.000000
# 2 -0.002025 0.019364 -0.003527 0.000000 0.000000 0.000000
# 3 -0.003591 -0.003527 0.023240 0.000000 0.000000 0.000000
# 4 0.000000 0.000000 0.000000 0.036025 0.000000 0.000000
# 5 0.000000 0.000000 0.000000 0.000000 0.011328 0.000000
# 6 0.000000 0.000000 0.000000 0.000000 0.000000 0.043187
#
#
# Mechanical properties :
#
#
# Convention : Reuss Voigt Hill
#
# Bulk Modulus (GPa) = 31.01461 39.85016 35.43239
# Shear Modulus (GPa) = 29.39449 40.57191 34.98320
#
# Velocity S-wave (km/s) = 3.42175 4.02002 3.73289
# Velocity P-wave (km/s) = 5.28818 6.11723 5.71775
#
# Compressibility (1/GPa) = 0.03224287
#
# Stress axis : x y z
#
# Youngs Moduli (GPa) = 126.21048 51.64288 43.02859
#
# Poissons Ratio (x) = 0.10455 0.15452
# Poissons Ratio (y) = 0.25552 0.15175
# Poissons Ratio (z) = 0.45323 0.18213
#
# Static dielectric constant tensor:
#      x y z
#    x 2.012310 0.000000 0.000000 
#    y 0.000000 1.707430 0.000000 
#    z 0.000000 0.000000 2.074980 
# 
# From -- ./inp_files/10594.got.cif
#   From: 2010.05.17/outbox.cif.g08.bks.cpg/sg73_6_cif.got.tgz:10594.got - 2010.06.03 17:35:07.
