data_PCOD9530731
_publ_section_title
;
Structure prediction by ZEFSAII (Michael W. Deem and Ramdas Pophale) SiO2 
 PCOD9530731
Probable space group: I B C A 
;
_chemical_formula_sum "Si O2"
_cell_formula_units_Z 112
_cell_length_a 13.719321
_cell_length_b 25.804834
_cell_length_c 14.251557
_cell_angle_alpha 90.000000
_cell_angle_beta 90.000000
_cell_angle_gamma 90.000000
_cell_volume 5045.404631
_symmetry_space_group_name_H-M "I B C A "
_symmetry_group_IT_number 73
_symmetry_cell_setting 'orthorhombic'
loop_
_space_group_symop_operation_xyz
x,y,z
-x,1/2-y,z
x,-y,1/2-z
1/2-x,y,-z
-x,-y,-z
x,1/2+y,-z
-x,y,1/2+z
1/2+x,-y,z
1/2+x,1/2+y,1/2+z
1/2-x,-y,1/2+z
1/2+x,1/2-y,-z
-x,1/2+y,1/2-z
1/2-x,1/2-y,1/2-z
1/2+x,y,1/2-z
1/2-x,1/2+y,z
x,1/2-y,1/2+z
loop_
_atom_site_type_symbol
_atom_site_label
_atom_site_fract_x
_atom_site_fract_y
_atom_site_fract_z
Si Si1 0.690855 0.952265 0.313255
Si Si2 0.353794 0.364453 0.049473
Si Si3 0.098388 0.881898 0.670555
Si Si4 0.930579 0.700484 0.200450
Si Si5 0.310196 0.640471 0.160801
Si Si6 0.462628 0.090736 0.977359
Si Si7 0.590648 0.461429 0.331944
O O1 0.639734 0.920754 0.396894
O O2 0.695332 0.905620 0.237870
O O3 0.795391 0.972068 0.354402
O O4 0.653249 0.000000 0.250000
O O5 0.449171 0.367384 0.984772
O O6 0.250000 0.365192 0.000000
O O7 0.358287 0.313137 0.114327
O O8 0.195987 0.850596 0.643847
O O9 0.076595 0.920108 0.582565
O O10 0.101899 0.908719 0.771595
O O11 0.006953 0.845312 0.682070
O O12 0.868161 0.688331 0.293336
O O13 0.000000 0.750000 0.202047
O O14 0.372599 0.616314 0.077191
O O15 0.513518 0.046173 0.914759
O O16 0.559114 0.500000 0.250000
#
# Coordination Sequence:
#
# PCOD9530731 Si02
#       7
#    16  16  16  16  16  16  16
#     4   9  19  38  59  88 124 167 216 263 311 391
#     4  10  20  39  65  91 129 174 216 280 336 386
#     4  10  22  41  61  88 131 170 211 275 338 389
#     4  10  22  41  65  94 123 166 226 275 335 418
#     4  10  21  39  62  86 128 171 202 268 335 386
#     4  11  21  38  60  91 127 168 219 261 326 395
#     4  10  20  37  61  90 126 169 216 263 319 396
#
# _framework density 22.198418
#
# number of rings (size 3 to 8) (size 9 to 14) (size 15 to 20)
#    0.000    2.000    2.857    0.429    0.000    1.714 
#    2.571    5.714    0.000    0.000    0.000    1.000 
#    0.000    0.000    0.000    0.000    0.000    0.000 
#
# Total GULP energy -311881.313347 kJ/mol
# GULP energy per Si atom -5569.309167 kJ/mol
# Density = 2.214789 g / cm^3
# Si number density = 22.198418 Si / 1000 Ang^3
#
#
#
# Elastic Constant Matrix: (Units=GPa)
#
#
# Indices 1 2 3 4 5 6 
#
# 1 125.3205 -0.2192 23.5764 0.0001 0.0000 0.0000
# 2 -0.2192 51.4110 2.7168 -0.0004 -0.0001 0.0001
# 3 23.5764 2.7168 65.8094 -0.0001 -0.0001 0.0000
# 4 0.0001 -0.0004 -0.0001 12.6643 -0.0001 0.0001
# 5 0.0000 -0.0001 -0.0001 -0.0001 16.2645 0.0000
# 6 0.0000 0.0001 0.0000 0.0001 0.0000 20.1284
#
#
#
# Elastic Compliance Matrix: (Units=1/GPa)
#
#
# Indices 1 2 3 4 5 6 
#
# 1 0.008558 0.000199 -0.003074 0.000000 0.000000 0.000000
# 2 0.000199 0.019498 -0.000876 0.000001 0.000000 0.000000
# 3 -0.003074 -0.000876 0.016333 0.000000 0.000000 0.000000
# 4 0.000000 0.000001 0.000000 0.078962 0.000000 0.000000
# 5 0.000000 0.000000 0.000000 0.000000 0.061484 0.000000
# 6 0.000000 0.000000 0.000000 0.000000 0.000000 0.049681
#
#
# Mechanical properties :
#
#
# Convention : Reuss Voigt Hill
#
# Bulk Modulus (GPa) = 27.11025 32.74321 29.92673
# Shear Modulus (GPa) = 19.66067 24.24255 21.95161
#
# Velocity S-wave (km/s) = 2.97926 3.30826 3.14806
# Velocity P-wave (km/s) = 4.90652 5.41987 5.16957
#
# Compressibility (1/GPa) = 0.03688641
#
# Stress axis : x y z
#
# Youngs Moduli (GPa) = 116.84647 51.28664 61.22605
#
# Poissons Ratio (x) = -0.01020 0.18822
# Poissons Ratio (y) = -0.02325 0.05365
# Poissons Ratio (z) = 0.35921 0.04494
#
# Static dielectric constant tensor:
#      x y z
#    x 1.902060 0.000000 0.000000 
#    y 0.000000 1.845630 0.000000 
#    z 0.000000 0.000000 1.926580 
# 
# From -- ./inp_files/17360.got.cif
#   From: 2010.05.17/outbox.cif.g08.bks.cpg/sg73_9_cif.got.tgz:17360.got - 2010.06.03 17:35:07.
