data_PCOD9530187
_publ_section_title
;
Structure prediction by ZEFSAII (Michael W. Deem and Ramdas Pophale) SiO2 
 PCOD9530187
Probable space group: I B C A 
;
_chemical_formula_sum "Si O2"
_cell_formula_units_Z 128
_cell_length_a 11.263988
_cell_length_b 24.428553
_cell_length_c 25.339279
_cell_angle_alpha 90.000000
_cell_angle_beta 90.000000
_cell_angle_gamma 90.000000
_cell_volume 6972.430199
_symmetry_space_group_name_H-M "I B C A "
_symmetry_group_IT_number 73
_symmetry_cell_setting 'orthorhombic'
loop_
_space_group_symop_operation_xyz
x,y,z
-x,1/2-y,z
x,-y,1/2-z
1/2-x,y,-z
-x,-y,-z
x,1/2+y,-z
-x,y,1/2+z
1/2+x,-y,z
1/2+x,1/2+y,1/2+z
1/2-x,-y,1/2+z
1/2+x,1/2-y,-z
-x,1/2+y,1/2-z
1/2-x,1/2-y,1/2-z
1/2+x,y,1/2-z
1/2-x,1/2+y,z
x,1/2-y,1/2+z
loop_
_atom_site_type_symbol
_atom_site_label
_atom_site_fract_x
_atom_site_fract_y
_atom_site_fract_z
Si Si1 0.622741 0.935266 0.894358
Si Si2 0.223334 0.843742 0.437318
Si Si3 0.700287 0.444343 0.395872
Si Si4 0.096799 0.620878 0.549084
Si Si5 0.713749 0.059893 0.222632
Si Si6 0.946995 0.850053 0.427339
Si Si7 0.767186 0.725062 0.063595
Si Si8 0.049732 0.562251 0.227731
O O1 0.733489 0.895453 0.904129
O O2 0.518484 0.907123 0.927362
O O3 0.581525 0.939148 0.833960
O O4 0.654786 0.996327 0.912186
O O5 0.250000 0.852980 0.500000
O O6 0.288067 0.787407 0.420459
O O7 0.084027 0.834853 0.427493
O O8 0.793160 0.418020 0.436541
O O9 0.767043 0.447876 0.339791
O O10 0.590807 0.401948 0.392154
O O11 0.079580 0.630977 0.487401
O O12 0.130945 0.680238 0.573501
O O13 0.834396 0.087950 0.244081
O O14 0.583982 0.085526 0.233776
O O15 0.711676 0.000000 0.250000
O O16 0.855357 0.801074 0.415148
O O17 0.750000 0.727531 0.000000
O O18 0.042691 0.500000 0.250000
#
# Coordination Sequence:
#
# PCOD9530187 Si02
#       8
#    16  16  16  16  16  16  16  16
#     4  12  23  34  55  86 123 152 194 241 292 356
#     4  11  22  35  55  87 116 152 202 251 287 334
#     4  11  22  35  56  81 118 162 189 233 289 367
#     4  10  21  39  54  81 120 162 197 234 292 346
#     4  10  19  35  57  79 107 148 200 242 293 342
#     4  10  21  38  56  80 117 164 203 230 287 346
#     4   8  18  37  60  77 108 155 206 249 282 332
#     4  10  20  36  57  80 111 151 193 250 291 353
#
# _framework density 18.358018000000001
#
# number of rings (size 3 to 8) (size 9 to 14) (size 15 to 20)
#    0.000    1.750    5.000    1.500    1.750    3.000 
#    0.000    0.000    0.000    0.000    0.000    3.500 
#    7.500    0.000    0.000    0.000    0.000    0.000 
#
# Total GULP energy -356715.954676 kJ/mol
# GULP energy per Si atom -5573.686792 kJ/mol
# Density = 1.831623 g / cm^3
# Si number density = 18.358018 Si / 1000 Ang^3
#
#
#
# Elastic Constant Matrix: (Units=GPa)
#
#
# Indices 1 2 3 4 5 6 
#
# 1 92.3112 7.5297 4.4607 0.0000 0.0000 0.0000
# 2 7.5297 83.6224 10.3082 0.0000 0.0000 0.0000
# 3 4.4607 10.3082 48.6436 0.0000 0.0000 0.0000
# 4 0.0000 0.0000 0.0000 -6.7698 0.0000 0.0000
# 5 0.0000 0.0000 0.0000 0.0000 106.0148 0.0000
# 6 0.0000 0.0000 0.0000 0.0000 0.0000 9.8510
#
#
#
# Elastic Compliance Matrix: (Units=1/GPa)
#
#
# Indices 1 2 3 4 5 6 
#
# 1 0.010945 -0.000885 -0.000816 0.000000 0.000000 0.000000
# 2 -0.000885 0.012351 -0.002536 0.000000 0.000000 0.000000
# 3 -0.000816 -0.002536 0.021170 0.000000 0.000000 0.000000
# 4 0.000000 0.000000 0.000000 -0.147715 0.000000 0.000000
# 5 0.000000 0.000000 0.000000 0.000000 0.009433 0.000000
# 6 0.000000 0.000000 0.000000 0.000000 0.000000 0.101513
#
#
# Mechanical properties :
#
#
# Convention : Reuss Voigt Hill
#
# Bulk Modulus (GPa) = 27.78467 29.90824 28.84645
# Shear Modulus (GPa) = 177.51418 35.30443 106.40931
#
# Velocity S-wave (km/s) = 9.84407 4.39008 7.62163
# Velocity P-wave (km/s) = 12.01563 6.48260 9.65400
#
# Compressibility (1/GPa) = 0.03599107
#
# Stress axis : x y z
#
# Youngs Moduli (GPa) = 91.36974 80.96624 47.23669
#
# Poissons Ratio (x) = 0.07165 0.03855
# Poissons Ratio (y) = 0.08085 0.11980
# Poissons Ratio (z) = 0.07457 0.20534
#
# Static dielectric constant tensor:
#      x y z
#    x 1.712880 0.000000 0.000000 
#    y 0.000000 1.626860 0.000000 
#    z 0.000000 0.000000 1.623050 
# 
# From -- ./inp_files/29135.got.cif
#   From: 2010.05.17/outbox.cif.g08.bks.cpg/sg73_15_cif.got.tgz:29135.got - 2010.06.03 17:35:07.
