data_PCOD9530436
_publ_section_title
;
Structure prediction by ZEFSAII (Michael W. Deem and Ramdas Pophale) SiO2 
 PCOD9530436
Probable space group: I B C A 
;
_chemical_formula_sum "Si O2"
_cell_formula_units_Z 88
_cell_length_a 18.412610
_cell_length_b 23.726131
_cell_length_c 9.760604
_cell_angle_alpha 90.000000
_cell_angle_beta 90.000000
_cell_angle_gamma 90.000000
_cell_volume 4264.017433
_symmetry_space_group_name_H-M "I B C A "
_symmetry_group_IT_number 73
_symmetry_cell_setting 'orthorhombic'
loop_
_space_group_symop_operation_xyz
x,y,z
-x,1/2-y,z
x,-y,1/2-z
1/2-x,y,-z
-x,-y,-z
x,1/2+y,-z
-x,y,1/2+z
1/2+x,-y,z
1/2+x,1/2+y,1/2+z
1/2-x,-y,1/2+z
1/2+x,1/2-y,-z
-x,1/2+y,1/2-z
1/2-x,1/2-y,1/2-z
1/2+x,y,1/2-z
1/2-x,1/2+y,z
x,1/2-y,1/2+z
loop_
_atom_site_type_symbol
_atom_site_label
_atom_site_fract_x
_atom_site_fract_y
_atom_site_fract_z
Si Si1 0.116033 0.049363 0.856942
Si Si2 0.750000 0.990644 0.500000
Si Si3 0.955181 0.195294 0.201220
Si Si4 0.675093 0.388844 0.622580
Si Si5 0.187135 0.652388 0.309054
Si Si6 0.985676 0.877945 0.562606
O O1 0.149927 0.102314 0.776232
O O2 0.045095 0.072449 0.934540
O O3 0.096320 0.000000 0.750000
O O4 0.181519 0.025575 0.948410
O O5 0.716800 0.948660 0.384503
O O6 0.867982 0.204060 0.211055
O O7 0.000000 0.250000 0.161894
O O8 0.982861 0.172915 0.346528
O O9 0.970630 0.146521 0.088408
O O10 0.726274 0.349234 0.716516
O O11 0.679778 0.363291 0.469169
O O12 0.589358 0.395243 0.638964
#
# Coordination Sequence:
#
# PCOD9530436 Si02
#       6
#    16   8  16  16  16  16
#     4  11  19  36  51  82 122 153 190 236 287 334
#     4  10  20  32  56  74 110 172 184 220 282 354
#     4  10  20  40  61  82 110 151 193 245 307 344
#     4   9  16  34  52  78 109 151 195 217 287 345
#     4   8  17  33  55  75 109 149 184 238 280 341
#     4  10  23  36  58  89 117 147 194 254 281 348
#
# _framework density 20.637813000000001
#
# number of rings (size 3 to 8) (size 9 to 14) (size 15 to 20)
#    0.000    2.545    3.636    0.545    0.000    2.182 
#    3.273    0.909    0.000   10.909    0.000    0.000 
#    0.000    0.000    0.000    0.000    0.000    0.000 
#
# Total GULP energy -244938.609323 kJ/mol
# GULP energy per Si atom -5566.786576 kJ/mol
# Density = 2.059084 g / cm^3
# Si number density = 20.637813 Si / 1000 Ang^3
#
#
#
# Elastic Constant Matrix: (Units=GPa)
#
#
# Indices 1 2 3 4 5 6 
#
# 1 163.2714 39.5704 0.4761 0.0000 0.0000 0.0000
# 2 39.5704 49.6452 -9.8738 0.0000 0.0000 0.0000
# 3 0.4761 -9.8738 28.2013 0.0000 0.0000 0.0000
# 4 0.0000 0.0000 0.0000 18.7982 0.0000 0.0000
# 5 0.0000 0.0000 0.0000 0.0000 18.1063 0.0000
# 6 0.0000 0.0000 0.0000 0.0000 0.0000 29.9148
#
#
#
# Elastic Compliance Matrix: (Units=1/GPa)
#
#
# Indices 1 2 3 4 5 6 
#
# 1 0.007747 -0.006665 -0.002464 0.000000 0.000000 0.000000
# 2 -0.006665 0.027385 0.009700 0.000000 0.000000 0.000000
# 3 -0.002464 0.009700 0.038897 0.000000 0.000000 0.000000
# 4 0.000000 0.000000 0.000000 0.053197 0.000000 0.000000
# 5 0.000000 0.000000 0.000000 0.000000 0.055229 0.000000
# 6 0.000000 0.000000 0.000000 0.000000 0.000000 0.033428
#
#
# Mechanical properties :
#
#
# Convention : Reuss Voigt Hill
#
# Bulk Modulus (GPa) = 13.30301 33.49593 23.39947
# Shear Modulus (GPa) = 20.85078 27.42687 24.13883
#
# Velocity S-wave (km/s) = 3.18200 3.64945 3.42371
# Velocity P-wave (km/s) = 4.46767 5.83297 5.19537
#
# Compressibility (1/GPa) = 0.07517094
#
# Stress axis : x y z
#
# Youngs Moduli (GPa) = 129.07639 36.51652 25.70877
#
# Poissons Ratio (x) = 0.24339 0.06336
# Poissons Ratio (y) = 0.86033 -0.24939
# Poissons Ratio (z) = 0.31810 -0.35423
#
# Static dielectric constant tensor:
#      x y z
#    x 1.883000 0.000000 0.000000 
#    y 0.000000 1.778300 0.000000 
#    z 0.000000 0.000000 1.732980 
# 
# From -- ./inp_files/11884.got.cif
#   From: 2010.05.17/outbox.cif.g08.bks.cpg/sg73_6_cif.got.tgz:11884.got - 2010.06.03 17:35:07.
