data_PCOD9530395
_publ_section_title
;
Structure prediction by ZEFSAII (Michael W. Deem and Ramdas Pophale) SiO2 
 PCOD9530395
Probable space group: I B C A 
;
_chemical_formula_sum "Si O2"
_cell_formula_units_Z 88
_cell_length_a 9.969015
_cell_length_b 20.932101
_cell_length_c 14.991687
_cell_angle_alpha 90.000000
_cell_angle_beta 90.000000
_cell_angle_gamma 90.000000
_cell_volume 3128.351739
_symmetry_space_group_name_H-M "I B C A "
_symmetry_group_IT_number 73
_symmetry_cell_setting 'orthorhombic'
loop_
_space_group_symop_operation_xyz
x,y,z
-x,1/2-y,z
x,-y,1/2-z
1/2-x,y,-z
-x,-y,-z
x,1/2+y,-z
-x,y,1/2+z
1/2+x,-y,z
1/2+x,1/2+y,1/2+z
1/2-x,-y,1/2+z
1/2+x,1/2-y,-z
-x,1/2+y,1/2-z
1/2-x,1/2-y,1/2-z
1/2+x,y,1/2-z
1/2-x,1/2+y,z
x,1/2-y,1/2+z
loop_
_atom_site_type_symbol
_atom_site_label
_atom_site_fract_x
_atom_site_fract_y
_atom_site_fract_z
Si Si1 0.003761 0.531711 0.608361
Si Si2 0.000000 0.250000 0.937195
Si Si3 0.750000 0.405745 0.500000
Si Si4 0.750000 0.079356 0.500000
Si Si5 0.772797 0.178740 0.842564
Si Si6 0.361897 0.806333 0.605940
Si Si7 0.937853 0.599026 0.284174
O O1 0.129640 0.559124 0.552166
O O2 0.128158 0.458987 0.452465
O O3 0.041986 0.461570 0.648245
O O4 0.985716 0.573409 0.697381
O O5 0.077693 0.301741 0.879205
O O6 0.099333 0.218168 0.008324
O O7 0.799283 0.359125 0.577429
O O8 0.707010 0.126942 0.420194
O O9 0.711202 0.250164 0.841533
O O10 0.799696 0.127445 0.763657
O O11 0.478660 0.834236 0.669683
#
# Coordination Sequence:
#
# PCOD9530395 Si02
#       7
#    16   8   8   8  16  16  16
#     4  10  25  52  86 121 167 240 289 367 433 525
#     4  12  22  44  76 124 166 218 288 348 456 532
#     4  10  19  43  82 124 168 224 300 348 428 541
#     4  12  25  49  86 124 176 230 312 354 436 547
#     4  11  22  43  79 119 171 224 287 369 448 545
#     4  12  24  43  77 127 164 229 285 377 448 537
#     4  10  25  49  76 118 174 224 289 358 453 523
#
# _framework density 28.129829999999998
#
# number of rings (size 3 to 8) (size 9 to 14) (size 15 to 20)
#    0.000    1.091    3.636    2.727    0.000    2.182 
#    3.273    5.455    4.000    8.727    0.000    0.000 
#    0.000    0.000    0.000    0.000    0.000    0.000 
#
# Total GULP energy -245592.754407 kJ/mol
# GULP energy per Si atom -5581.653509 kJ/mol
# Density = 2.806580 g / cm^3
# Si number density = 28.129830 Si / 1000 Ang^3
#
#
#
# Elastic Constant Matrix: (Units=GPa)
#
#
# Indices 1 2 3 4 5 6 
#
# 1 134.2640 96.1507 82.2284 0.0000 0.0000 0.0000
# 2 96.1507 203.5150 112.5751 0.0000 0.0000 0.0000
# 3 82.2284 112.5751 216.9717 0.0000 0.0000 0.0000
# 4 0.0000 0.0000 0.0000 65.0172 0.0000 0.0000
# 5 0.0000 0.0000 0.0000 0.0000 44.9844 0.0000
# 6 0.0000 0.0000 0.0000 0.0000 0.0000 18.0071
#
#
#
# Elastic Compliance Matrix: (Units=1/GPa)
#
#
# Indices 1 2 3 4 5 6 
#
# 1 0.011993 -0.004421 -0.002251 0.000000 0.000000 0.000000
# 2 -0.004421 0.008521 -0.002746 0.000000 0.000000 0.000000
# 3 -0.002251 -0.002746 0.006887 0.000000 0.000000 0.000000
# 4 0.000000 0.000000 0.000000 0.015381 0.000000 0.000000
# 5 0.000000 0.000000 0.000000 0.000000 0.022230 0.000000
# 6 0.000000 0.000000 0.000000 0.000000 0.000000 0.055534
#
#
# Mechanical properties :
#
#
# Convention : Reuss Voigt Hill
#
# Bulk Modulus (GPa) = 116.75556 126.29543 121.52550
# Shear Modulus (GPa) = 35.15320 43.18818 39.17069
#
# Velocity S-wave (km/s) = 3.53891 3.92256 3.73567
# Velocity P-wave (km/s) = 7.63509 8.09383 7.86781
#
# Compressibility (1/GPa) = 0.00856490
#
# Stress axis : x y z
#
# Youngs Moduli (GPa) = 83.38541 117.35784 145.20599
#
# Poissons Ratio (x) = 0.51878 0.32691
# Poissons Ratio (y) = 0.36861 0.39870
# Poissons Ratio (z) = 0.18773 0.32224
#
# Static dielectric constant tensor:
#      x y z
#    x 2.653580 0.000000 0.000000 
#    y 0.000000 2.207140 0.000000 
#    z 0.000000 0.000000 2.376180 
# 
# From -- ./inp_files/21296.got.cif
#   From: 2010.05.17/outbox.cif.g08.bks.cpg/sg73_11_cif.got.tgz:21296.got - 2010.06.03 17:35:07.
