data_PCOD9530611
_publ_section_title
;
Structure prediction by ZEFSAII (Michael W. Deem and Ramdas Pophale) SiO2 
 PCOD9530611
Probable space group: I B C A 
;
_chemical_formula_sum "Si O2"
_cell_formula_units_Z 104
_cell_length_a 8.729769
_cell_length_b 26.227554
_cell_length_c 23.024118
_cell_angle_alpha 90.000000
_cell_angle_beta 90.000000
_cell_angle_gamma 90.000000
_cell_volume 5271.613290
_symmetry_space_group_name_H-M "I B C A "
_symmetry_group_IT_number 73
_symmetry_cell_setting 'orthorhombic'
loop_
_space_group_symop_operation_xyz
x,y,z
-x,1/2-y,z
x,-y,1/2-z
1/2-x,y,-z
-x,-y,-z
x,1/2+y,-z
-x,y,1/2+z
1/2+x,-y,z
1/2+x,1/2+y,1/2+z
1/2-x,-y,1/2+z
1/2+x,1/2-y,-z
-x,1/2+y,1/2-z
1/2-x,1/2-y,1/2-z
1/2+x,y,1/2-z
1/2-x,1/2+y,z
x,1/2-y,1/2+z
loop_
_atom_site_type_symbol
_atom_site_label
_atom_site_fract_x
_atom_site_fract_y
_atom_site_fract_z
Si Si1 0.734914 0.847919 0.625132
Si Si2 0.370919 0.640270 0.117894
Si Si3 0.266614 0.454801 0.679625
Si Si4 0.000000 0.750000 0.510006
Si Si5 0.750000 0.174590 0.000000
Si Si6 0.628185 0.440783 0.692865
Si Si7 0.683508 0.756873 0.185211
Si Si8 0.750000 0.822534 0.000000
O O1 0.553668 0.860655 0.628602
O O2 0.793286 0.853777 0.558667
O O3 0.825669 0.887148 0.665242
O O4 0.752121 0.789598 0.646962
O O5 0.292738 0.587982 0.136368
O O6 0.300138 0.687616 0.155172
O O7 0.338911 0.648329 0.049780
O O8 0.447882 0.450765 0.688574
O O9 0.217340 0.512026 0.663058
O O10 0.182906 0.442565 0.740595
O O11 0.112657 0.711187 0.477721
O O12 0.126570 0.787741 0.535469
O O13 0.500000 0.750000 0.187944
O O14 0.750000 0.750000 0.250000
#
# Coordination Sequence:
#
# PCOD9530611 Si02
#       8
#    16  16  16   8   8  16  16   8
#     4  11  23  40  61  89 128 166 207 259 310 371
#     4  11  23  40  61  89 128 166 207 259 310 371
#     4  11  23  42  68  94 122 162 209 258 312 373
#     4  10  20  36  58  82 120 170 212 250 290 364
#     4  11  22  38  61  88 124 168 219 255 310 366
#     4  11  23  42  68  94 122 162 209 258 312 373
#     4  10  22  38  55  84 122 161 197 248 309 362
#     4  11  22  38  61  88 124 168 219 255 310 366
#
# _framework density 19.728304999999999
#
# number of rings (size 3 to 8) (size 9 to 14) (size 15 to 20)
#    0.000    1.231    1.538    6.462    4.308    3.692 
#    2.769    0.769    0.000    3.692    0.000    0.000 
#    0.000    0.000    0.000    0.000    0.000    0.000 
#
# Total GULP energy -290048.427773 kJ/mol
# GULP energy per Si atom -5577.854380 kJ/mol
# Density = 1.968340 g / cm^3
# Si number density = 19.728305 Si / 1000 Ang^3
#
#
#
# Elastic Constant Matrix: (Units=GPa)
#
#
# Indices 1 2 3 4 5 6 
#
# 1 94.3419 19.1415 1.8404 0.0000 0.0000 0.0000
# 2 19.1415 83.0098 20.5087 0.0000 0.0000 0.0000
# 3 1.8404 20.5087 78.0142 0.0000 0.0000 0.0000
# 4 0.0000 0.0000 0.0000 12.8190 0.0000 0.0000
# 5 0.0000 0.0000 0.0000 0.0000 26.1001 0.0000
# 6 0.0000 0.0000 0.0000 0.0000 0.0000 29.1024
#
#
#
# Elastic Compliance Matrix: (Units=1/GPa)
#
#
# Indices 1 2 3 4 5 6 
#
# 1 0.011134 -0.002676 0.000441 0.000000 0.000000 0.000000
# 2 -0.002676 0.013527 -0.003493 0.000000 0.000000 0.000000
# 3 0.000441 -0.003493 0.013726 0.000000 0.000000 0.000000
# 4 0.000000 0.000000 0.000000 0.078009 0.000000 0.000000
# 5 0.000000 0.000000 0.000000 0.000000 0.038314 0.000000
# 6 0.000000 0.000000 0.000000 0.000000 0.000000 0.034361
#
#
# Mechanical properties :
#
#
# Convention : Reuss Voigt Hill
#
# Bulk Modulus (GPa) = 37.13282 37.59413 37.36347
# Shear Modulus (GPa) = 23.86579 27.86267 25.86423
#
# Velocity S-wave (km/s) = 3.48188 3.76216 3.62473
# Velocity P-wave (km/s) = 5.91841 6.16191 6.04139
#
# Compressibility (1/GPa) = 0.02693036
#
# Stress axis : x y z
#
# Youngs Moduli (GPa) = 89.81366 73.92685 72.85447
#
# Poissons Ratio (x) = 0.19786 -0.03212
# Poissons Ratio (y) = 0.24038 0.25447
# Poissons Ratio (z) = -0.03960 0.25822
#
# Static dielectric constant tensor:
#      x y z
#    x 1.720760 0.000000 0.000000 
#    y 0.000000 1.709910 0.000000 
#    z 0.000000 0.000000 1.688710 
# 
# From -- ./inp_files/25007.got.cif
#   From: 2010.05.17/outbox.cif.g08.bks.cpg/sg73_13_cif.got.tgz:25007.got - 2010.06.03 17:35:07.
