data_PCOD9530278
_publ_section_title
;
Structure prediction by ZEFSAII (Michael W. Deem and Ramdas Pophale) SiO2 
 PCOD9530278
Probable space group: I B C A 
;
_chemical_formula_sum "Si O2"
_cell_formula_units_Z 80
_cell_length_a 21.348382
_cell_length_b 13.587617
_cell_length_c 12.380651
_cell_angle_alpha 90.000000
_cell_angle_beta 90.000000
_cell_angle_gamma 90.000000
_cell_volume 3591.300479
_symmetry_space_group_name_H-M "I B C A "
_symmetry_group_IT_number 73
_symmetry_cell_setting 'orthorhombic'
loop_
_space_group_symop_operation_xyz
x,y,z
-x,1/2-y,z
x,-y,1/2-z
1/2-x,y,-z
-x,-y,-z
x,1/2+y,-z
-x,y,1/2+z
1/2+x,-y,z
1/2+x,1/2+y,1/2+z
1/2-x,-y,1/2+z
1/2+x,1/2-y,-z
-x,1/2+y,1/2-z
1/2-x,1/2-y,1/2-z
1/2+x,y,1/2-z
1/2-x,1/2+y,z
x,1/2-y,1/2+z
loop_
_atom_site_type_symbol
_atom_site_label
_atom_site_fract_x
_atom_site_fract_y
_atom_site_fract_z
Si Si1 0.816004 0.434102 0.029079
Si Si2 0.193389 0.276144 0.087021
Si Si3 0.479001 0.065443 0.157049
Si Si4 0.913922 0.409905 0.491376
Si Si5 0.348336 0.887385 0.288062
O O1 0.832257 0.383458 0.913781
O O2 0.750000 0.483445 0.000000
O O3 0.810904 0.340771 0.105331
O O4 0.865332 0.514674 0.064268
O O5 0.193088 0.325738 0.205249
O O6 0.250000 0.291702 0.000000
O O7 0.129306 0.323557 0.037909
O O8 0.530140 0.121092 0.086618
O O9 0.423599 0.129899 0.210094
O O10 0.510303 0.000000 0.250000
O O11 0.445002 0.982755 0.081075
O O12 0.340220 0.000000 0.250000
#
# Coordination Sequence:
#
# PCOD9530278 Si02
#       5
#    16  16  16  16  16
#     4  10  22  38  60  92 126 157 210 259 302 375
#     4  11  22  38  64  90 124 164 205 254 317 377
#     4   9  17  36  62  81 112 164 197 253 300 361
#     4  10  19  37  62  85 120 157 208 248 312 362
#     4  10  19  40  66  77 122 171 195 249 325 356
#
# _framework density 22.276053999999998
#
# number of rings (size 3 to 8) (size 9 to 14) (size 15 to 20)
#    0.000    2.000    6.000    0.600    0.000    3.200 
#    7.200    9.000    4.400    0.000    0.000    0.000 
#    0.000    0.000    0.000    0.000    0.000    0.000 
#
# Total GULP energy -222906.473025 kJ/mol
# GULP energy per Si atom -5572.661826 kJ/mol
# Density = 2.222535 g / cm^3
# Si number density = 22.276054 Si / 1000 Ang^3
#
#
#
# Elastic Constant Matrix: (Units=GPa)
#
#
# Indices 1 2 3 4 5 6 
#
# 1 92.8885 7.6988 14.1475 0.0000 0.0000 0.0000
# 2 7.6988 62.4442 -17.8268 0.0000 0.0000 0.0000
# 3 14.1475 -17.8268 42.8366 0.0000 0.0000 0.0000
# 4 0.0000 0.0000 0.0000 26.1928 0.0000 0.0000
# 5 0.0000 0.0000 0.0000 0.0000 42.9750 0.0000
# 6 0.0000 0.0000 0.0000 0.0000 0.0000 -18.0053
#
#
#
# Elastic Compliance Matrix: (Units=1/GPa)
#
#
# Indices 1 2 3 4 5 6 
#
# 1 0.011784 -0.002910 -0.005103 0.000000 0.000000 0.000000
# 2 -0.002910 0.018892 0.008823 0.000000 0.000000 0.000000
# 3 -0.005103 0.008823 0.028702 0.000000 0.000000 0.000000
# 4 0.000000 0.000000 0.000000 0.038178 0.000000 0.000000
# 5 0.000000 0.000000 0.000000 0.000000 0.023269 0.000000
# 6 0.000000 0.000000 0.000000 0.000000 0.000000 -0.055539
#
#
# Mechanical properties :
#
#
# Convention : Reuss Voigt Hill
#
# Bulk Modulus (GPa) = 16.39383 22.91205 19.65294
# Shear Modulus (GPa) = 59.52566 23.17580 41.35073
#
# Velocity S-wave (km/s) = 5.17492 3.22901 4.31314
# Velocity P-wave (km/s) = 6.56367 4.92035 5.80050
#
# Compressibility (1/GPa) = 0.06099856
#
# Stress axis : x y z
#
# Youngs Moduli (GPa) = 84.86134 52.93291 34.84135
#
# Poissons Ratio (x) = 0.15401 0.17779
# Poissons Ratio (y) = 0.24691 -0.30740
# Poissons Ratio (z) = 0.43302 -0.46702
#
# Static dielectric constant tensor:
#      x y z
#    x 1.909420 0.000000 0.000000 
#    y 0.000000 1.822120 0.000000 
#    z 0.000000 0.000000 1.926290 
# 
# From -- ./inp_files/10780.got.cif
#   From: 2010.05.17/outbox.cif.g08.bks.cpg/sg73_6_cif.got.tgz:10780.got - 2010.06.03 17:35:07.
