data_PCOD9530646
_publ_section_title
;
Structure prediction by ZEFSAII (Michael W. Deem and Ramdas Pophale) SiO2 
 PCOD9530646
Probable space group: I B C A 
;
_chemical_formula_sum "Si O2"
_cell_formula_units_Z 120
_cell_length_a 26.066652
_cell_length_b 9.354510
_cell_length_c 24.336724
_cell_angle_alpha 90.000000
_cell_angle_beta 90.000000
_cell_angle_gamma 90.000000
_cell_volume 5934.285198
_symmetry_space_group_name_H-M "I B C A "
_symmetry_group_IT_number 73
_symmetry_cell_setting 'orthorhombic'
loop_
_space_group_symop_operation_xyz
x,y,z
-x,1/2-y,z
x,-y,1/2-z
1/2-x,y,-z
-x,-y,-z
x,1/2+y,-z
-x,y,1/2+z
1/2+x,-y,z
1/2+x,1/2+y,1/2+z
1/2-x,-y,1/2+z
1/2+x,1/2-y,-z
-x,1/2+y,1/2-z
1/2-x,1/2-y,1/2-z
1/2+x,y,1/2-z
1/2-x,1/2+y,z
x,1/2-y,1/2+z
loop_
_atom_site_type_symbol
_atom_site_label
_atom_site_fract_x
_atom_site_fract_y
_atom_site_fract_z
Si Si1 0.650690 0.916810 0.317932
Si Si2 0.197760 0.531009 0.565918
Si Si3 0.606833 0.500000 0.250000
Si Si4 0.444432 0.323964 0.539817
Si Si5 0.882946 0.103493 0.028234
Si Si6 0.204058 0.795681 0.901937
Si Si7 0.941332 0.286746 0.830563
Si Si8 0.825687 0.730272 0.284716
O O1 0.668992 0.907455 0.380265
O O2 0.596917 0.837317 0.310696
O O3 0.689183 0.835141 0.275276
O O4 0.646369 0.085813 0.306403
O O5 0.161323 0.554195 0.514061
O O6 0.206177 0.362442 0.572947
O O7 0.252244 0.609763 0.569686
O O8 0.573956 0.430617 0.201172
O O9 0.641470 0.629279 0.227537
O O10 0.500000 0.250000 0.529915
O O11 0.429622 0.490487 0.532255
O O12 0.406264 0.244917 0.498471
O O13 0.433811 0.297368 0.604086
O O14 0.851741 0.136889 0.083970
O O15 0.209719 0.774588 0.836217
O O16 0.000000 0.250000 0.819448
#
# Coordination Sequence:
#
# PCOD9530646 Si02
#       8
#    16  16   8  16  16  16  16  16
#     4   9  19  40  61  81 123 165 204 261 320 384
#     4  11  24  39  61  89 122 165 211 259 324 379
#     4  10  20  36  60  92 122 160 206 262 318 370
#     4  11  24  42  66  94 124 172 212 260 319 384
#     4  12  23  42  64  90 131 162 210 267 313 373
#     4  11  25  40  62  94 123 165 213 258 320 380
#     4  10  21  37  61  90 125 163 213 260 326 382
#     4   9  20  38  60  87 120 164 206 256 316 380
#
# _framework density 20.221475000000002
#
# number of rings (size 3 to 8) (size 9 to 14) (size 15 to 20)
#    0.000    1.600    2.667    1.600    1.867    5.867 
#    0.000    1.333    0.000    4.000    0.000    0.000 
#    0.000    0.000    0.000    0.000    0.000    0.000 
#
# Total GULP energy -334415.680740 kJ/mol
# GULP energy per Si atom -5573.594679 kJ/mol
# Density = 2.017545 g / cm^3
# Si number density = 20.221475 Si / 1000 Ang^3
#
#
#
# Elastic Constant Matrix: (Units=GPa)
#
#
# Indices 1 2 3 4 5 6 
#
# 1 53.4697 31.1742 23.3847 0.0000 0.0000 0.0000
# 2 31.1742 95.6567 18.1631 0.0000 0.0000 0.0000
# 3 23.3847 18.1631 76.7306 0.0000 0.0000 0.0000
# 4 0.0000 0.0000 0.0000 19.0675 0.0000 0.0000
# 5 0.0000 0.0000 0.0000 0.0000 10.5813 0.0000
# 6 0.0000 0.0000 0.0000 0.0000 0.0000 14.4789
#
#
#
# Elastic Compliance Matrix: (Units=1/GPa)
#
#
# Indices 1 2 3 4 5 6 
#
# 1 0.025544 -0.007169 -0.006088 0.000000 0.000000 0.000000
# 2 -0.007169 0.012958 -0.000882 0.000000 0.000000 0.000000
# 3 -0.006088 -0.000882 0.015097 0.000000 0.000000 0.000000
# 4 0.000000 0.000000 0.000000 0.052445 0.000000 0.000000
# 5 0.000000 0.000000 0.000000 0.000000 0.094507 0.000000
# 6 0.000000 0.000000 0.000000 0.000000 0.000000 0.069066
#
#
# Mechanical properties :
#
#
# Convention : Reuss Voigt Hill
#
# Bulk Modulus (GPa) = 39.49379 41.25569 40.37474
# Shear Modulus (GPa) = 16.32194 19.03453 17.67824
#
# Velocity S-wave (km/s) = 2.84414 3.07139 2.95995
# Velocity P-wave (km/s) = 5.50985 5.74667 5.62951
#
# Compressibility (1/GPa) = 0.02532043
#
# Stress axis : x y z
#
# Youngs Moduli (GPa) = 39.14749 77.17280 66.23865
#
# Poissons Ratio (x) = 0.55324 0.40326
# Poissons Ratio (y) = 0.28064 0.05846
# Poissons Ratio (z) = 0.23833 0.06810
#
# Static dielectric constant tensor:
#      x y z
#    x 1.716840 0.000000 0.000000 
#    y 0.000000 1.687370 0.000000 
#    z 0.000000 0.000000 1.752770 
# 
# From -- ./inp_files/33009.got.cif
#   From: 2010.05.17/outbox.cif.g08.bks.cpg/sg73_17_cif.got.tgz:33009.got - 2010.06.03 17:35:07.
