data_PCOD9530269
_publ_section_title
;
Structure prediction by ZEFSAII (Michael W. Deem and Ramdas Pophale) SiO2 
 PCOD9530269
Probable space group: I B C A 
;
_chemical_formula_sum "Si O2"
_cell_formula_units_Z 88
_cell_length_a 10.498282
_cell_length_b 18.500845
_cell_length_c 21.719301
_cell_angle_alpha 90.000000
_cell_angle_beta 90.000000
_cell_angle_gamma 90.000000
_cell_volume 4218.476588
_symmetry_space_group_name_H-M "I B C A "
_symmetry_group_IT_number 73
_symmetry_cell_setting 'orthorhombic'
loop_
_space_group_symop_operation_xyz
x,y,z
-x,1/2-y,z
x,-y,1/2-z
1/2-x,y,-z
-x,-y,-z
x,1/2+y,-z
-x,y,1/2+z
1/2+x,-y,z
1/2+x,1/2+y,1/2+z
1/2-x,-y,1/2+z
1/2+x,1/2-y,-z
-x,1/2+y,1/2-z
1/2-x,1/2-y,1/2-z
1/2+x,y,1/2-z
1/2-x,1/2+y,z
x,1/2-y,1/2+z
loop_
_atom_site_type_symbol
_atom_site_label
_atom_site_fract_x
_atom_site_fract_y
_atom_site_fract_z
Si Si1 0.117041 0.129160 0.465671
Si Si2 0.272377 0.675389 0.069820
Si Si3 0.099261 0.515985 0.179558
Si Si4 0.500000 0.750000 0.551928
Si Si5 0.018346 0.673794 0.149659
Si Si6 0.359440 0.481852 0.398730
O O1 0.250000 0.133127 0.500000
O O2 0.028714 0.179555 0.509264
O O3 0.101303 0.043872 0.448305
O O4 0.098795 0.162659 0.397694
O O5 0.380019 0.729421 0.093120
O O6 0.143251 0.679080 0.106856
O O7 0.325829 0.594156 0.070438
O O8 0.250000 0.698777 0.000000
O O9 0.128211 0.500000 0.250000
O O10 0.046691 0.598746 0.182479
O O11 0.227521 0.502647 0.139020
O O12 0.980349 0.475239 0.147127
O O13 0.000000 0.750000 0.183423
#
# Coordination Sequence:
#
# PCOD9530269 Si02
#       6
#    16  16  16   8  16  16
#     4  11  21  34  55  87 120 159 191 222 284 349
#     4  11  21  36  55  87 126 159 193 230 279 352
#     4  10  22  42  66  87 111 148 202 260 303 340
#     4  12  22  32  56  80 130 162 188 230 280 348
#     4  10  19  37  60  86 119 158 191 233 297 356
#     4  10  24  38  63  88 114 156 199 246 293 350
#
# _framework density 20.860610000000001
#
# number of rings (size 3 to 8) (size 9 to 14) (size 15 to 20)
#    0.000    1.455    2.727    2.727    2.545    0.727 
#    0.000    0.000    2.000    6.545    0.000    0.000 
#    0.000    0.000    0.000    0.000    0.000    0.000 
#
# Total GULP energy -245114.990708 kJ/mol
# GULP energy per Si atom -5570.795243 kJ/mol
# Density = 2.081313 g / cm^3
# Si number density = 20.860610 Si / 1000 Ang^3
#
#
#
# Elastic Constant Matrix: (Units=GPa)
#
#
# Indices 1 2 3 4 5 6 
#
# 1 88.7172 -6.0236 18.2167 0.0000 0.0000 0.0000
# 2 -6.0236 97.5875 8.5751 0.0000 0.0000 0.0000
# 3 18.2167 8.5751 38.1520 0.0000 0.0000 0.0000
# 4 0.0000 0.0000 0.0000 8.0402 0.0000 0.0000
# 5 0.0000 0.0000 0.0000 0.0000 10.4182 0.0000
# 6 0.0000 0.0000 0.0000 0.0000 0.0000 32.1305
#
#
#
# Elastic Compliance Matrix: (Units=1/GPa)
#
#
# Indices 1 2 3 4 5 6 
#
# 1 0.012666 0.001340 -0.006349 0.000000 0.000000 0.000000
# 2 0.001340 0.010595 -0.003021 0.000000 0.000000 0.000000
# 3 -0.006349 -0.003021 0.029921 0.000000 0.000000 0.000000
# 4 0.000000 0.000000 0.000000 0.124375 0.000000 0.000000
# 5 0.000000 0.000000 0.000000 0.000000 0.095986 0.000000
# 6 0.000000 0.000000 0.000000 0.000000 0.000000 0.031123
#
#
# Mechanical properties :
#
#
# Convention : Reuss Voigt Hill
#
# Bulk Modulus (GPa) = 26.93790 29.55478 28.24634
# Shear Modulus (GPa) = 15.01042 23.69701 19.35371
#
# Velocity S-wave (km/s) = 2.68537 3.37407 3.04923
# Velocity P-wave (km/s) = 4.74934 5.42011 5.09578
#
# Compressibility (1/GPa) = 0.03712241
#
# Stress axis : x y z
#
# Youngs Moduli (GPa) = 78.94898 94.38076 33.42085
#
# Poissons Ratio (x) = -0.12645 0.21219
# Poissons Ratio (y) = -0.10577 0.10097
# Poissons Ratio (z) = 0.50125 0.28514
#
# Static dielectric constant tensor:
#      x y z
#    x 1.803390 0.000000 0.000000 
#    y 0.000000 1.832570 0.000000 
#    z 0.000000 0.000000 1.719680 
# 
# From -- ./inp_files/12723.got.cif
#   From: 2010.05.17/outbox.cif.g08.bks.cpg/sg73_7_cif.got.tgz:12723.got - 2010.06.03 17:35:07.
