data_PCOD9530315
_publ_section_title
;
Structure prediction by ZEFSAII (Michael W. Deem and Ramdas Pophale) SiO2 
 PCOD9530315
Probable space group: I B C A 
;
_chemical_formula_sum "Si O2"
_cell_formula_units_Z 112
_cell_length_a 26.695143
_cell_length_b 13.713496
_cell_length_c 13.202083
_cell_angle_alpha 90.000000
_cell_angle_beta 90.000000
_cell_angle_gamma 90.000000
_cell_volume 4833.067878
_symmetry_space_group_name_H-M "I B C A "
_symmetry_group_IT_number 73
_symmetry_cell_setting 'orthorhombic'
loop_
_space_group_symop_operation_xyz
x,y,z
-x,1/2-y,z
x,-y,1/2-z
1/2-x,y,-z
-x,-y,-z
x,1/2+y,-z
-x,y,1/2+z
1/2+x,-y,z
1/2+x,1/2+y,1/2+z
1/2-x,-y,1/2+z
1/2+x,1/2-y,-z
-x,1/2+y,1/2-z
1/2-x,1/2-y,1/2-z
1/2+x,y,1/2-z
1/2-x,1/2+y,z
x,1/2-y,1/2+z
loop_
_atom_site_type_symbol
_atom_site_label
_atom_site_fract_x
_atom_site_fract_y
_atom_site_fract_z
Si Si1 0.608102 0.229361 0.211428
Si Si2 0.811663 0.529774 0.445541
Si Si3 0.084079 0.526105 0.631822
Si Si4 0.366307 0.553623 0.856427
Si Si5 0.790266 0.282438 0.165519
Si Si6 0.750000 0.856592 0.500000
Si Si7 0.523496 0.536787 0.367024
Si Si8 0.500000 0.750000 0.295769
O O1 0.599356 0.141034 0.132106
O O2 0.621831 0.332795 0.161698
O O3 0.654772 0.213281 0.285055
O O4 0.552570 0.235192 0.262758
O O5 0.868178 0.530205 0.406827
O O6 0.821338 0.542614 0.565272
O O7 0.782364 0.613061 0.386535
O O8 0.784561 0.426948 0.432412
O O9 0.080553 0.500000 0.750000
O O10 0.029295 0.498487 0.589068
O O11 0.355763 0.500000 0.750000
O O12 0.419706 0.512359 0.898820
O O13 0.750000 0.250000 0.250000
O O14 0.784552 0.207129 0.073075
O O15 0.524722 0.500000 0.250000
O O16 0.512389 0.653242 0.360611
#
# Coordination Sequence:
#
# PCOD9530315 Si02
#       8
#    16  16  16  16  16   8  16   8
#     4  10  20  40  71  95 137 176 224 280 352 410
#     4  12  27  45  69 101 132 179 240 287 361 426
#     4  10  19  38  65 101 136 176 224 284 345 425
#     4  10  22  42  67 100 139 182 226 283 346 431
#     4  12  28  48  74 102 135 188 237 301 362 424
#     4  12  30  48  68  98 138 174 232 306 356 434
#     4   8  16  32  61  95 135 177 217 272 347 411
#     4   8  16  32  62 100 126 174 218 270 342 424
#
# _framework density 23.173686
#
# number of rings (size 3 to 8) (size 9 to 14) (size 15 to 20)
#    0.000    1.714    1.429    2.143    6.000    0.571 
#    0.000    0.000    3.143    0.000    0.000    0.000 
#    0.000    0.000    0.000    0.000    0.000    0.000 
#
# Total GULP energy -312417.602721 kJ/mol
# GULP energy per Si atom -5578.885763 kJ/mol
# Density = 2.312094 g / cm^3
# Si number density = 23.173686 Si / 1000 Ang^3
#
#
#
# Elastic Constant Matrix: (Units=GPa)
#
#
# Indices 1 2 3 4 5 6 
#
# 1 175.1561 -1.9932 33.2870 0.0000 0.0000 0.0000
# 2 -1.9932 63.9621 -5.2412 0.0000 0.0000 0.0000
# 3 33.2870 -5.2412 51.9546 0.0000 0.0000 0.0000
# 4 0.0000 0.0000 0.0000 13.7441 0.0000 0.0000
# 5 0.0000 0.0000 0.0000 0.0000 51.0830 0.0000
# 6 0.0000 0.0000 0.0000 0.0000 0.0000 33.8570
#
#
#
# Elastic Compliance Matrix: (Units=1/GPa)
#
#
# Indices 1 2 3 4 5 6 
#
# 1 0.006502 -0.000140 -0.004180 0.000000 0.000000 0.000000
# 2 -0.000140 0.015768 0.001680 0.000000 0.000000 0.000000
# 3 -0.004180 0.001680 0.022095 0.000000 0.000000 0.000000
# 4 0.000000 0.000000 0.000000 0.072759 0.000000 0.000000
# 5 0.000000 0.000000 0.000000 0.000000 0.019576 0.000000
# 6 0.000000 0.000000 0.000000 0.000000 0.000000 0.029536
#
#
# Mechanical properties :
#
#
# Convention : Reuss Voigt Hill
#
# Bulk Modulus (GPa) = 25.58486 38.13091 31.85788
# Shear Modulus (GPa) = 27.09398 37.40482 32.24940
#
# Velocity S-wave (km/s) = 3.42302 4.02195 3.73451
# Velocity P-wave (km/s) = 5.16597 6.16914 5.68971
#
# Compressibility (1/GPa) = 0.03908562
#
# Stress axis : x y z
#
# Youngs Moduli (GPa) = 153.79988 63.42124 45.25891
#
# Poissons Ratio (x) = 0.00887 0.18918
# Poissons Ratio (y) = 0.02152 -0.07605
# Poissons Ratio (z) = 0.64287 -0.10656
#
# Static dielectric constant tensor:
#      x y z
#    x 1.934810 0.000000 0.000000 
#    y 0.000000 1.909210 0.000000 
#    z 0.000000 0.000000 1.946790 
# 
# From -- ./inp_files/19857.got.cif
#   From: 2010.05.17/outbox.cif.g08.bks.cpg/sg73_10_cif.got.tgz:19857.got - 2010.06.03 17:35:07.
