data_PCOD9530145
_publ_section_title
;
Structure prediction by ZEFSAII (Michael W. Deem and Ramdas Pophale) SiO2 
 PCOD9530145
Probable space group: I B C A 
;
_chemical_formula_sum "Si O2"
_cell_formula_units_Z 72
_cell_length_a 5.318853
_cell_length_b 24.774025
_cell_length_c 29.673809
_cell_angle_alpha 90.000000
_cell_angle_beta 90.000000
_cell_angle_gamma 90.000000
_cell_volume 3910.099924
_symmetry_space_group_name_H-M "I B C A "
_symmetry_group_IT_number 73
_symmetry_cell_setting 'orthorhombic'
loop_
_space_group_symop_operation_xyz
x,y,z
-x,1/2-y,z
x,-y,1/2-z
1/2-x,y,-z
-x,-y,-z
x,1/2+y,-z
-x,y,1/2+z
1/2+x,-y,z
1/2+x,1/2+y,1/2+z
1/2-x,-y,1/2+z
1/2+x,1/2-y,-z
-x,1/2+y,1/2-z
1/2-x,1/2-y,1/2-z
1/2+x,y,1/2-z
1/2-x,1/2+y,z
x,1/2-y,1/2+z
loop_
_atom_site_type_symbol
_atom_site_label
_atom_site_fract_x
_atom_site_fract_y
_atom_site_fract_z
Si Si1 0.055963 0.187044 0.127627
Si Si2 0.750000 0.281286 0.500000
Si Si3 0.509243 0.523134 0.948108
Si Si4 0.569839 0.145413 0.081585
Si Si5 0.285759 0.688255 0.231764
O O1 0.300853 0.164405 0.101328
O O2 0.128728 0.186687 0.180309
O O3 0.000000 0.250000 0.116973
O O4 0.802552 0.153283 0.116409
O O5 0.500000 0.250000 0.484972
O O6 0.850589 0.316071 0.458920
O O7 0.745095 0.492863 0.927025
O O8 0.549830 0.586251 0.940683
O O9 0.500000 0.500000 0.000000
O O10 0.250000 0.750000 0.250000
O O11 0.511620 0.663310 0.260809
#
# Coordination Sequence:
#
# PCOD9530145 Si02
#       5
#    16   8  16  16  16
#     4  12  23  37  57  89 132 163 193 242 290 347
#     4  12  24  40  50  74 120 170 206 222 278 362
#     4  10  21  40  62  80 103 145 201 267 316 332
#     4  12  25  38  58  86 115 158 212 250 297 353
#     4  10  19  34  56  83 117 168 199 222 281 346
#
# _framework density 18.413853
#
# number of rings (size 3 to 8) (size 9 to 14) (size 15 to 20)
#    0.000    0.889    2.222    8.000    3.111    3.556 
#    0.000    0.000    0.000    0.000    0.000    0.000 
#    0.000   62.222    0.000    0.000    0.000    0.000 
#
# Total GULP energy -200742.515572 kJ/mol
# GULP energy per Si atom -5576.180988 kJ/mol
# Density = 1.837194 g / cm^3
# Si number density = 18.413853 Si / 1000 Ang^3
#
#
#
# Elastic Constant Matrix: (Units=GPa)
#
#
# Indices 1 2 3 4 5 6 
#
# 1 193.1181 56.7715 37.0875 0.0000 0.0000 0.0000
# 2 56.7715 111.1265 39.7104 0.0000 0.0000 0.0000
# 3 37.0875 39.7104 100.2491 0.0000 0.0000 0.0000
# 4 0.0000 0.0000 0.0000 93.4528 0.0000 0.0000
# 5 0.0000 0.0000 0.0000 0.0000 25.1498 0.0000
# 6 0.0000 0.0000 0.0000 0.0000 0.0000 35.5465
#
#
#
# Elastic Compliance Matrix: (Units=1/GPa)
#
#
# Indices 1 2 3 4 5 6 
#
# 1 0.006218 -0.002743 -0.001214 0.000000 0.000000 0.000000
# 2 -0.002743 0.011692 -0.003617 0.000000 0.000000 0.000000
# 3 -0.001214 -0.003617 0.011857 0.000000 0.000000 0.000000
# 4 0.000000 0.000000 0.000000 0.010701 0.000000 0.000000
# 5 0.000000 0.000000 0.000000 0.000000 0.039762 0.000000
# 6 0.000000 0.000000 0.000000 0.000000 0.000000 0.028132
#
#
# Mechanical properties :
#
#
# Convention : Reuss Voigt Hill
#
# Bulk Modulus (GPa) = 68.39865 74.62581 71.51223
# Shear Modulus (GPa) = 38.94645 48.89144 43.91895
#
# Velocity S-wave (km/s) = 4.60397 5.15840 4.88905
# Velocity P-wave (km/s) = 8.09246 8.72317 8.41373
#
# Compressibility (1/GPa) = 0.01462017
#
# Stress axis : x y z
#
# Youngs Moduli (GPa) = 160.83529 85.52587 84.33893
#
# Poissons Ratio (x) = 0.23457 0.10237
# Poissons Ratio (y) = 0.44111 0.30505
# Poissons Ratio (z) = 0.19522 0.30934
#
# Static dielectric constant tensor:
#      x y z
#    x 1.648710 0.000000 0.000000 
#    y 0.000000 1.299220 0.000000 
#    z 0.000000 0.000000 1.635320 
# 
# From -- ./inp_files/24420.got.cif
#   From: 2010.05.17/outbox.cif.g08.bks.cpg/sg73_13_cif.got.tgz:24420.got - 2010.06.03 17:35:07.
