data_PCOD9530001
_publ_section_title
;
Structure prediction by ZEFSAII (Michael W. Deem and Ramdas Pophale) SiO2 
 PCOD9530001
Probable space group: I B C A 
;
_chemical_formula_sum "Si O2"
_cell_formula_units_Z 80
_cell_length_a 15.438132
_cell_length_b 22.403132
_cell_length_c 11.954675
_cell_angle_alpha 90.000000
_cell_angle_beta 90.000000
_cell_angle_gamma 90.000000
_cell_volume 4134.673890
_symmetry_space_group_name_H-M "I B C A "
_symmetry_group_IT_number 73
_symmetry_cell_setting 'orthorhombic'
loop_
_space_group_symop_operation_xyz
x,y,z
-x,1/2-y,z
x,-y,1/2-z
1/2-x,y,-z
-x,-y,-z
x,1/2+y,-z
-x,y,1/2+z
1/2+x,-y,z
1/2+x,1/2+y,1/2+z
1/2-x,-y,1/2+z
1/2+x,1/2-y,-z
-x,1/2+y,1/2-z
1/2-x,1/2-y,1/2-z
1/2+x,y,1/2-z
1/2-x,1/2+y,z
x,1/2-y,1/2+z
loop_
_atom_site_type_symbol
_atom_site_label
_atom_site_fract_x
_atom_site_fract_y
_atom_site_fract_z
Si Si1 0.250000 0.389425 0.500000
Si Si2 0.931813 0.645678 0.917587
Si Si3 0.500000 0.250000 0.056433
Si Si4 0.050657 0.939261 0.112793
Si Si5 0.094019 0.071797 0.141620
Si Si6 0.392901 0.146425 0.167959
O O1 0.318248 0.426028 0.426769
O O2 0.191898 0.354861 0.408925
O O3 0.938340 0.709179 0.978667
O O4 0.880359 0.644864 0.801462
O O5 0.031104 0.626980 0.886616
O O6 0.907728 0.595147 0.008311
O O7 0.446956 0.204665 0.133521
O O8 0.105414 0.927557 0.225471
O O9 0.956407 0.909290 0.135606
O O10 0.045802 0.010589 0.107853
#
# Coordination Sequence:
#
# PCOD9530001 Si02
#       6
#     8  16   8  16  16  16
#     4  12  22  40  56  96 124 154 184 274 306 342
#     4  10  19  37  65  87 112 165 210 237 281 385
#     4  10  18  38  64  88 112 162 210 244 284 376
#     4   9  19  39  60  88 116 167 203 236 278 391
#     4  10  20  37  61  89 124 154 202 244 302 349
#     4  10  22  37  65  88 121 156 208 244 308 346
#
# _framework density 19.348562999999999
#
# number of rings (size 3 to 8) (size 9 to 14) (size 15 to 20)
#    0.000    2.000    4.000    1.200    0.000    0.000 
#    7.200    1.000    0.000    0.000    0.000    0.000 
#    0.000    0.000    0.000    0.000    0.000    0.000 
#
# Total GULP energy -223012.360173 kJ/mol
# GULP energy per Si atom -5575.309004 kJ/mol
# Density = 1.930452 g / cm^3
# Si number density = 19.348563 Si / 1000 Ang^3
#
#
#
# Elastic Constant Matrix: (Units=GPa)
#
#
# Indices 1 2 3 4 5 6 
#
# 1 56.9470 24.1505 37.6762 0.0000 0.0000 0.0000
# 2 24.1505 91.0657 28.2916 0.0000 0.0000 0.0000
# 3 37.6762 28.2916 177.0610 0.0001 0.0000 0.0000
# 4 0.0000 0.0000 0.0001 29.7378 0.0000 0.0000
# 5 0.0000 0.0000 0.0000 0.0000 33.1067 0.0000
# 6 0.0000 0.0000 0.0000 0.0000 0.0000 7.6399
#
#
#
# Elastic Compliance Matrix: (Units=1/GPa)
#
#
# Indices 1 2 3 4 5 6 
#
# 1 0.022157 -0.004642 -0.003973 0.000000 0.000000 0.000000
# 2 -0.004642 0.012527 -0.001014 0.000000 0.000000 0.000000
# 3 -0.003973 -0.001014 0.006655 0.000000 0.000000 0.000000
# 4 0.000000 0.000000 0.000000 0.033627 0.000000 0.000000
# 5 0.000000 0.000000 0.000000 0.000000 0.030205 0.000000
# 6 0.000000 0.000000 0.000000 0.000000 0.000000 0.130891
#
#
# Mechanical properties :
#
#
# Convention : Reuss Voigt Hill
#
# Bulk Modulus (GPa) = 45.28572 56.14559 50.71566
# Shear Modulus (GPa) = 19.03445 29.76057 24.39751
#
# Velocity S-wave (km/s) = 3.13991 3.92615 3.55483
# Velocity P-wave (km/s) = 6.04991 7.04513 6.56640
#
# Compressibility (1/GPa) = 0.02208202
#
# Stress axis : x y z
#
# Youngs Moduli (GPa) = 45.13180 79.82714 150.25833
#
# Poissons Ratio (x) = 0.37054 0.59699
# Poissons Ratio (y) = 0.20949 0.15235
# Poissons Ratio (z) = 0.17931 0.08094
#
# Static dielectric constant tensor:
#      x y z
#    x 1.660550 0.000000 0.000000 
#    y 0.000000 1.661180 0.000000 
#    z 0.000000 0.000000 1.754030 
# 
# From -- ./inp_files/10862.got.cif
#   From: 2010.05.17/outbox.cif.g08.bks.cpg/sg73_6_cif.got.tgz:10862.got - 2010.06.03 17:35:07.
