data_PCOD9530944
_publ_section_title
;
Structure prediction by ZEFSAII (Michael W. Deem and Ramdas Pophale) SiO2 
 PCOD9530944
Probable space group: I B C A 
;
_chemical_formula_sum "Si O2"
_cell_formula_units_Z 96
_cell_length_a 21.198725
_cell_length_b 16.672678
_cell_length_c 14.387485
_cell_angle_alpha 90.000000
_cell_angle_beta 90.000000
_cell_angle_gamma 90.000000
_cell_volume 5085.105734
_symmetry_space_group_name_H-M "I B C A "
_symmetry_group_IT_number 73
_symmetry_cell_setting 'orthorhombic'
loop_
_space_group_symop_operation_xyz
x,y,z
-x,1/2-y,z
x,-y,1/2-z
1/2-x,y,-z
-x,-y,-z
x,1/2+y,-z
-x,y,1/2+z
1/2+x,-y,z
1/2+x,1/2+y,1/2+z
1/2-x,-y,1/2+z
1/2+x,1/2-y,-z
-x,1/2+y,1/2-z
1/2-x,1/2-y,1/2-z
1/2+x,y,1/2-z
1/2-x,1/2+y,z
x,1/2-y,1/2+z
loop_
_atom_site_type_symbol
_atom_site_label
_atom_site_fract_x
_atom_site_fract_y
_atom_site_fract_z
Si Si1 0.199656 0.576451 0.307056
Si Si2 0.493834 0.500000 0.250000
Si Si3 0.590948 0.000153 0.917760
Si Si4 0.794596 0.314150 0.409424
Si Si5 0.876467 0.167109 0.346502
Si Si6 0.927810 0.901899 0.594690
Si Si7 0.500000 0.250000 0.124626
O O1 0.225850 0.500000 0.250000
O O2 0.157954 0.541282 0.391438
O O3 0.250819 0.641630 0.334642
O O4 0.150536 0.620803 0.240827
O O5 0.541565 0.522109 0.165091
O O6 0.449964 0.434791 0.196038
O O7 0.602754 0.904615 0.915139
O O8 0.567381 0.030557 0.016512
O O9 0.750000 0.310000 0.500000
O O10 0.823359 0.227091 0.385157
O O11 0.856794 0.369519 0.412544
O O12 0.939134 0.217062 0.321411
O O13 0.971921 0.825812 0.570117
#
# Coordination Sequence:
#
# PCOD9530944 Si02
#       7
#    16   8  16  16  16  16   8
#     4  10  20  40  65  89 120 171 215 255 317 384
#     4  12  22  40  66  96 124 162 210 268 330 384
#     4  11  20  42  68  91 126 168 212 267 325 391
#     4  11  23  42  61  90 133 171 212 270 326 376
#     4  10  21  39  63  90 125 168 210 262 323 383
#     4  11  24  40  67  93 131 164 216 267 322 392
#     4  10  20  40  60  92 126 160 200 272 320 374
#
# _framework density 18.878664000000001
#
# number of rings (size 3 to 8) (size 9 to 14) (size 15 to 20)
#    0.000    1.333    5.833    1.000    1.167    0.000 
#    6.000    8.333    0.000    0.000    0.000    0.000 
#    0.000    0.000    0.000    0.000    0.000    0.000 
#
# Total GULP energy -267316.841159 kJ/mol
# GULP energy per Si atom -5569.100857 kJ/mol
# Density = 1.883569 g / cm^3
# Si number density = 18.878664 Si / 1000 Ang^3
#
#
#
# Elastic Constant Matrix: (Units=GPa)
#
#
# Indices 1 2 3 4 5 6 
#
# 1 96.8032 53.2873 17.5392 0.0000 0.0000 0.0000
# 2 53.2873 137.5027 46.6423 0.0000 0.0000 0.0000
# 3 17.5392 46.6423 53.7188 0.0000 0.0000 0.0000
# 4 0.0000 0.0000 0.0000 17.9015 0.0000 0.0000
# 5 0.0000 0.0000 0.0000 0.0000 7.5356 0.0000
# 6 0.0000 0.0000 0.0000 0.0000 0.0000 27.9279
#
#
#
# Elastic Compliance Matrix: (Units=1/GPa)
#
#
# Indices 1 2 3 4 5 6 
#
# 1 0.013133 -0.005153 0.000186 0.000000 0.000000 0.000000
# 2 -0.005153 0.012330 -0.009024 0.000000 0.000000 0.000000
# 3 0.000186 -0.009024 0.026390 0.000000 0.000000 0.000000
# 4 0.000000 0.000000 0.000000 0.055861 0.000000 0.000000
# 5 0.000000 0.000000 0.000000 0.000000 0.132704 0.000000
# 6 0.000000 0.000000 0.000000 0.000000 0.000000 0.035807
#
#
# Mechanical properties :
#
#
# Convention : Reuss Voigt Hill
#
# Bulk Modulus (GPa) = 41.88961 58.10692 49.99826
# Shear Modulus (GPa) = 16.01726 22.04337 19.03031
#
# Velocity S-wave (km/s) = 2.91595 3.42077 3.17840
# Velocity P-wave (km/s) = 5.79431 6.81529 6.32543
#
# Compressibility (1/GPa) = 0.02387227
#
# Stress axis : x y z
#
# Youngs Moduli (GPa) = 76.14482 81.10089 37.89344
#
# Poissons Ratio (x) = 0.41787 -0.00704
# Poissons Ratio (y) = 0.39234 0.34194
# Poissons Ratio (z) = -0.01416 0.73183
#
# Static dielectric constant tensor:
#      x y z
#    x 1.699250 0.000000 0.000000 
#    y 0.000000 1.701330 0.000000 
#    z 0.000000 0.000000 1.646700 
# 
# From -- ./inp_files/17107.got.cif
#   From: 2010.05.17/outbox.cif.g08.bks.cpg/sg73_9_cif.got.tgz:17107.got - 2010.06.03 17:35:07.
