data_PCOD9530206
_publ_section_title
;
Structure prediction by ZEFSAII (Michael W. Deem and Ramdas Pophale) SiO2 
 PCOD9530206
Probable space group: I B C A 
;
_chemical_formula_sum "Si O2"
_cell_formula_units_Z 80
_cell_length_a 13.525723
_cell_length_b 11.009986
_cell_length_c 24.915903
_cell_angle_alpha 90.000000
_cell_angle_beta 90.000000
_cell_angle_gamma 90.000000
_cell_volume 3710.426963
_symmetry_space_group_name_H-M "I B C A "
_symmetry_group_IT_number 73
_symmetry_cell_setting 'orthorhombic'
loop_
_space_group_symop_operation_xyz
x,y,z
-x,1/2-y,z
x,-y,1/2-z
1/2-x,y,-z
-x,-y,-z
x,1/2+y,-z
-x,y,1/2+z
1/2+x,-y,z
1/2+x,1/2+y,1/2+z
1/2-x,-y,1/2+z
1/2+x,1/2-y,-z
-x,1/2+y,1/2-z
1/2-x,1/2-y,1/2-z
1/2+x,y,1/2-z
1/2-x,1/2+y,z
x,1/2-y,1/2+z
loop_
_atom_site_type_symbol
_atom_site_label
_atom_site_fract_x
_atom_site_fract_y
_atom_site_fract_z
Si Si1 0.287849 0.811192 0.830176
Si Si2 0.891928 0.204647 0.717423
Si Si3 0.562622 0.624480 0.511766
Si Si4 0.084840 0.854953 0.605163
Si Si5 0.595933 0.520715 0.622096
O O1 0.340563 0.829577 0.773004
O O2 0.173742 0.803177 0.814870
O O3 0.329754 0.684013 0.854117
O O4 0.325116 0.912009 0.871687
O O5 0.897370 0.095291 0.676217
O O6 0.000000 0.250000 0.730452
O O7 0.500000 0.750000 0.517273
O O8 0.500000 0.500000 0.500000
O O9 0.622148 0.639807 0.456167
O O10 0.614179 0.597744 0.568289
O O11 0.000000 0.750000 0.607416
O O12 0.016929 0.970471 0.618548
#
# Coordination Sequence:
#
# PCOD9530206 Si02
#       5
#    16  16  16  16  16
#     4  10  22  39  59  87 121 160 206 257 318 388
#     4  11  23  38  58  86 121 159 205 259 318 381
#     4   9  17  32  60  96 131 169 208 256 319 381
#     4   8  16  34  60  87 121 160 199 247 310 379
#     4  10  19  35  60  89 120 160 207 257 315 377
#
# _framework density 21.560860000000002
#
# number of rings (size 3 to 8) (size 9 to 14) (size 15 to 20)
#    0.000    2.400    0.000    4.200    0.000    1.600 
#    0.000    5.000    0.000    9.600    0.000    0.000 
#    0.000    0.000    0.000    0.000    0.000    0.000 
#
# Total GULP energy -223091.082037 kJ/mol
# GULP energy per Si atom -5577.277051 kJ/mol
# Density = 2.151179 g / cm^3
# Si number density = 21.560860 Si / 1000 Ang^3
#
#
#
# Elastic Constant Matrix: (Units=GPa)
#
#
# Indices 1 2 3 4 5 6 
#
# 1 49.9492 18.4393 10.1459 0.0000 0.0000 0.0000
# 2 18.4393 73.3915 32.3058 0.0000 0.0000 0.0000
# 3 10.1459 32.3058 138.7604 0.0000 0.0000 0.0000
# 4 0.0000 0.0000 0.0000 35.0672 0.0000 0.0000
# 5 0.0000 0.0000 0.0000 0.0000 9.7460 0.0000
# 6 0.0000 0.0000 0.0000 0.0000 0.0000 14.4450
#
#
#
# Elastic Compliance Matrix: (Units=1/GPa)
#
#
# Indices 1 2 3 4 5 6 
#
# 1 0.022083 -0.005390 -0.000360 0.000000 0.000000 0.000000
# 2 -0.005390 0.016497 -0.003447 0.000000 0.000000 0.000000
# 3 -0.000360 -0.003447 0.008035 0.000000 0.000000 0.000000
# 4 0.000000 0.000000 0.000000 0.028517 0.000000 0.000000
# 5 0.000000 0.000000 0.000000 0.000000 0.102606 0.000000
# 6 0.000000 0.000000 0.000000 0.000000 0.000000 0.069228
#
#
# Mechanical properties :
#
#
# Convention : Reuss Voigt Hill
#
# Bulk Modulus (GPa) = 35.43246 42.65370 39.04308
# Shear Modulus (GPa) = 18.19723 25.26563 21.73143
#
# Velocity S-wave (km/s) = 2.90831 3.42691 3.17821
# Velocity P-wave (km/s) = 5.26755 5.95686 5.62278
#
# Compressibility (1/GPa) = 0.02822271
#
# Stress axis : x y z
#
# Youngs Moduli (GPa) = 45.28329 60.61737 124.44901
#
# Poissons Ratio (x) = 0.32672 0.04478
# Poissons Ratio (y) = 0.24407 0.42893
# Poissons Ratio (z) = 0.01629 0.20893
#
# Static dielectric constant tensor:
#      x y z
#    x 1.808080 0.000000 0.000000 
#    y 0.000000 1.872150 0.000000 
#    z 0.000000 0.000000 1.760800 
# 
# From -- ./inp_files/16190.got.cif
#   From: 2010.05.17/outbox.cif.g08.bks.cpg/sg73_9_cif.got.tgz:16190.got - 2010.06.03 17:35:07.
