data_PCOD9530589
_publ_section_title
;
Structure prediction by ZEFSAII (Michael W. Deem and Ramdas Pophale) SiO2 
 PCOD9530589
Probable space group: I B C A 
;
_chemical_formula_sum "Si O2"
_cell_formula_units_Z 72
_cell_length_a 19.486387
_cell_length_b 8.689157
_cell_length_c 20.414690
_cell_angle_alpha 90.000000
_cell_angle_beta 90.000000
_cell_angle_gamma 90.000000
_cell_volume 3456.620945
_symmetry_space_group_name_H-M "I B C A "
_symmetry_group_IT_number 73
_symmetry_cell_setting 'orthorhombic'
loop_
_space_group_symop_operation_xyz
x,y,z
-x,1/2-y,z
x,-y,1/2-z
1/2-x,y,-z
-x,-y,-z
x,1/2+y,-z
-x,y,1/2+z
1/2+x,-y,z
1/2+x,1/2+y,1/2+z
1/2-x,-y,1/2+z
1/2+x,1/2-y,-z
-x,1/2+y,1/2-z
1/2-x,1/2-y,1/2-z
1/2+x,y,1/2-z
1/2-x,1/2+y,z
x,1/2-y,1/2+z
loop_
_atom_site_type_symbol
_atom_site_label
_atom_site_fract_x
_atom_site_fract_y
_atom_site_fract_z
Si Si1 0.451588 0.606870 0.956543
Si Si2 0.840199 0.910062 0.940954
Si Si3 0.590510 0.932237 0.317668
Si Si4 0.924336 0.076468 0.318235
Si Si5 0.750000 0.324369 0.500000
O O1 0.500000 0.750000 0.934925
O O2 0.416151 0.523485 0.894090
O O3 0.500000 0.500000 0.000000
O O4 0.393696 0.658045 0.006789
O O5 0.879375 0.964454 0.876004
O O6 0.779651 0.784441 0.942170
O O7 0.807360 0.063842 0.970894
O O8 0.507439 0.937517 0.314784
O O9 0.604173 0.750236 0.320979
O O10 0.617565 0.000000 0.250000
O O11 0.899289 0.000000 0.250000
#
# Coordination Sequence:
#
# PCOD9530589 Si02
#       5
#    16  16  16  16   8
#     4  12  21  36  60  93 122 152 192 247 304 366
#     4  11  22  42  61  89 122 157 212 252 300 361
#     4  10  20  37  58  84 122 157 195 244 298 364
#     4  10  20  36  54  89 129 158 186 233 306 378
#     4  10  24  40  64  82 116 168 206 260 298 342
#
# _framework density 20.829592000000002
#
# number of rings (size 3 to 8) (size 9 to 14) (size 15 to 20)
#    0.000    1.333    4.444    2.667    0.000    3.556 
#    0.000    1.111    0.000    5.333    0.000    0.000 
#    0.000    0.000    0.000    0.000    0.000    0.000 
#
# Total GULP energy -200557.891578 kJ/mol
# GULP energy per Si atom -5571.052544 kJ/mol
# Density = 2.078218 g / cm^3
# Si number density = 20.829592 Si / 1000 Ang^3
#
#
#
# Elastic Constant Matrix: (Units=GPa)
#
#
# Indices 1 2 3 4 5 6 
#
# 1 39.4692 21.1254 14.8941 0.0000 0.0000 0.0000
# 2 21.1254 62.6268 29.8896 0.0000 0.0000 0.0000
# 3 14.8941 29.8896 164.8159 0.0000 0.0000 0.0000
# 4 0.0000 0.0000 0.0000 31.1145 0.0000 0.0000
# 5 0.0000 0.0000 0.0000 0.0000 9.8979 0.0000
# 6 0.0000 0.0000 0.0000 0.0000 0.0000 28.4186
#
#
#
# Elastic Compliance Matrix: (Units=1/GPa)
#
#
# Indices 1 2 3 4 5 6 
#
# 1 0.031066 -0.010005 -0.000993 0.000000 0.000000 0.000000
# 2 -0.010005 0.020703 -0.002850 0.000000 0.000000 0.000000
# 3 -0.000993 -0.002850 0.006674 0.000000 0.000000 0.000000
# 4 0.000000 0.000000 0.000000 0.032139 0.000000 0.000000
# 5 0.000000 0.000000 0.000000 0.000000 0.101032 0.000000
# 6 0.000000 0.000000 0.000000 0.000000 0.000000 0.035188
#
#
# Mechanical properties :
#
#
# Convention : Reuss Voigt Hill
#
# Bulk Modulus (GPa) = 32.52469 44.30335 38.41402
# Shear Modulus (GPa) = 18.88582 27.28638 23.08610
#
# Velocity S-wave (km/s) = 3.01438 3.62329 3.33277
# Velocity P-wave (km/s) = 5.26915 6.23057 5.76991
#
# Compressibility (1/GPa) = 0.03074587
#
# Stress axis : x y z
#
# Youngs Moduli (GPa) = 32.18929 48.30202 149.83485
#
# Poissons Ratio (x) = 0.48329 0.14877
# Poissons Ratio (y) = 0.32207 0.42708
# Poissons Ratio (z) = 0.03196 0.13768
#
# Static dielectric constant tensor:
#      x y z
#    x 1.793420 0.000000 0.000000 
#    y 0.000000 1.875080 0.000000 
#    z 0.000000 0.000000 1.829090 
# 
# From -- ./inp_files/26842.got.cif
#   From: 2010.05.17/outbox.cif.g08.bks.cpg/sg73_14_cif.got.tgz:26842.got - 2010.06.03 17:35:07.
