data_PCOD9530150
_publ_section_title
;
Structure prediction by ZEFSAII (Michael W. Deem and Ramdas Pophale) SiO2 
 PCOD9530150
Probable space group: I B C A 
;
_chemical_formula_sum "Si O2"
_cell_formula_units_Z 104
_cell_length_a 29.575992
_cell_length_b 16.677340
_cell_length_c 10.590653
_cell_angle_alpha 90.000000
_cell_angle_beta 90.000000
_cell_angle_gamma 90.000000
_cell_volume 5223.827672
_symmetry_space_group_name_H-M "I B C A "
_symmetry_group_IT_number 73
_symmetry_cell_setting 'orthorhombic'
loop_
_space_group_symop_operation_xyz
x,y,z
-x,1/2-y,z
x,-y,1/2-z
1/2-x,y,-z
-x,-y,-z
x,1/2+y,-z
-x,y,1/2+z
1/2+x,-y,z
1/2+x,1/2+y,1/2+z
1/2-x,-y,1/2+z
1/2+x,1/2-y,-z
-x,1/2+y,1/2-z
1/2-x,1/2-y,1/2-z
1/2+x,y,1/2-z
1/2-x,1/2+y,z
x,1/2-y,1/2+z
loop_
_atom_site_type_symbol
_atom_site_label
_atom_site_fract_x
_atom_site_fract_y
_atom_site_fract_z
Si Si1 0.490170 0.945730 0.376181
Si Si2 0.760554 0.406050 0.242259
Si Si3 0.817122 0.807779 0.119473
Si Si4 0.145585 0.833527 0.271445
Si Si5 0.090917 0.943056 0.127726
Si Si6 0.750000 0.192504 0.000000
Si Si7 0.401353 0.395907 0.508996
O O1 0.540133 0.908731 0.361388
O O2 0.448760 0.888567 0.415935
O O3 0.481156 0.000000 0.250000
O O4 0.500000 0.000000 0.500000
O O5 0.753876 0.500000 0.250000
O O6 0.724298 0.363867 0.154854
O O7 0.811138 0.387614 0.193841
O O8 0.753011 0.362797 0.376831
O O9 0.834614 0.752230 0.234681
O O10 0.794773 0.748453 0.014841
O O11 0.859153 0.862701 0.084583
O O12 0.125699 0.871435 0.142210
O O13 0.106761 0.846818 0.377139
O O14 0.096614 0.000000 0.250000
O O15 0.099911 0.007957 0.018295
#
# Coordination Sequence:
#
# PCOD9530150 Si02
#       7
#    16  16  16  16  16   8  16
#     4   9  18  35  60  90 118 149 194 250 306 357
#     4  11  23  37  57  86 114 151 202 245 289 358
#     4  11  22  36  56  83 119 153 194 244 302 359
#     4  10  20  37  57  81 113 157 196 233 300 374
#     4   8  16  33  60  84 107 145 195 239 286 356
#     4  10  22  40  58  78 114 158 192 242 306 358
#     4  10  19  34  57  83 113 150 191 242 296 354
#
# _framework density 19.908774000000001
#
# number of rings (size 3 to 8) (size 9 to 14) (size 15 to 20)
#    0.000    2.154    0.000    6.000    0.000    4.923 
#    0.000    6.923    0.000    5.538    0.000    0.000 
#    0.000    0.000    0.000    0.000    0.000    0.000 
#
# Total GULP energy -289523.838775 kJ/mol
# GULP energy per Si atom -5567.766130 kJ/mol
# Density = 1.986346 g / cm^3
# Si number density = 19.908774 Si / 1000 Ang^3
#
#
#
# Elastic Constant Matrix: (Units=GPa)
#
#
# Indices 1 2 3 4 5 6 
#
# 1 145.0646 67.8015 31.4266 0.0000 0.0000 0.0000
# 2 67.8015 82.0835 30.4694 0.0000 0.0000 0.0000
# 3 31.4266 30.4694 70.6998 0.0000 0.0000 0.0000
# 4 0.0000 0.0000 0.0000 -54.1673 0.0000 0.0000
# 5 0.0000 0.0000 0.0000 0.0000 33.8371 0.0000
# 6 0.0000 0.0000 0.0000 0.0000 0.0000 -13.0906
#
#
#
# Elastic Compliance Matrix: (Units=1/GPa)
#
#
# Indices 1 2 3 4 5 6 
#
# 1 0.011312 -0.008901 -0.001192 0.000000 0.000000 0.000000
# 2 -0.008901 0.021507 -0.005312 0.000000 0.000000 0.000000
# 3 -0.001192 -0.005312 0.016964 0.000000 0.000000 0.000000
# 4 0.000000 0.000000 0.000000 -0.018461 0.000000 0.000000
# 5 0.000000 0.000000 0.000000 0.000000 0.029553 0.000000
# 6 0.000000 0.000000 0.000000 0.000000 0.000000 -0.076391
#
#
# Mechanical properties :
#
#
# Convention : Reuss Voigt Hill
#
# Bulk Modulus (GPa) = 52.71049 61.91588 57.31319
# Shear Modulus (GPa) = 231.27224 4.52588 117.89906
#
# Velocity S-wave (km/s) = 10.78973 1.50938 7.70378
# Velocity P-wave (km/s) = 13.48176 5.84850 10.39141
#
# Compressibility (1/GPa) = 0.01897155
#
# Stress axis : x y z
#
# Youngs Moduli (GPa) = 88.40057 46.49604 58.94970
#
# Poissons Ratio (x) = 0.41388 0.07027
# Poissons Ratio (y) = 0.78689 0.31315
# Poissons Ratio (z) = 0.10538 0.24700
#
# Static dielectric constant tensor:
#      x y z
#    x 1.735150 0.000000 0.000000 
#    y 0.000000 1.697290 0.000000 
#    z 0.000000 0.000000 1.787380 
# 
# From -- ./inp_files/14317.got.cif
#   From: 2010.05.17/outbox.cif.g08.bks.cpg/sg73_8_cif.got.tgz:14317.got - 2010.06.03 17:35:07.
