data_PCOD9530372
_publ_section_title
;
Structure prediction by ZEFSAII (Michael W. Deem and Ramdas Pophale) SiO2 
 PCOD9530372
Probable space group: I B C A 
;
_chemical_formula_sum "Si O2"
_cell_formula_units_Z 112
_cell_length_a 14.711439
_cell_length_b 32.345080
_cell_length_c 10.420074
_cell_angle_alpha 90.000000
_cell_angle_beta 90.000000
_cell_angle_gamma 90.000000
_cell_volume 4958.315848
_symmetry_space_group_name_H-M "I B C A "
_symmetry_group_IT_number 73
_symmetry_cell_setting 'orthorhombic'
loop_
_space_group_symop_operation_xyz
x,y,z
-x,1/2-y,z
x,-y,1/2-z
1/2-x,y,-z
-x,-y,-z
x,1/2+y,-z
-x,y,1/2+z
1/2+x,-y,z
1/2+x,1/2+y,1/2+z
1/2-x,-y,1/2+z
1/2+x,1/2-y,-z
-x,1/2+y,1/2-z
1/2-x,1/2-y,1/2-z
1/2+x,y,1/2-z
1/2-x,1/2+y,z
x,1/2-y,1/2+z
loop_
_atom_site_type_symbol
_atom_site_label
_atom_site_fract_x
_atom_site_fract_y
_atom_site_fract_z
Si Si1 0.792332 0.463084 0.145903
Si Si2 0.950461 0.399498 0.198792
Si Si3 0.885986 0.334305 0.985511
Si Si4 0.931668 0.831394 0.617744
Si Si5 0.818107 0.685172 0.888939
Si Si6 0.894631 0.264746 0.178899
Si Si7 0.163310 0.108806 0.770873
O O1 0.799856 0.500000 0.250000
O O2 0.890599 0.438743 0.152000
O O3 0.720385 0.431813 0.208631
O O4 0.750000 0.471973 0.000000
O O5 0.914281 0.377411 0.329752
O O6 0.059274 0.402963 0.227757
O O7 0.929765 0.364409 0.092774
O O8 0.824350 0.364890 0.902946
O O9 0.960945 0.324185 0.876933
O O10 0.862395 0.291750 0.055754
O O11 0.908028 0.823482 0.471543
O O12 0.887172 0.796848 0.705592
O O13 0.835748 0.723977 0.800356
O O14 0.795184 0.641553 0.828115
O O15 0.750000 0.696722 0.000000
O O16 0.000000 0.250000 0.162903
#
# Coordination Sequence:
#
# PCOD9530372 Si02
#       7
#    16  16  16  16  16  16  16
#     4  12  28  52  78 115 148 186 234 306 382 462
#     4  10  21  45  75 103 134 185 239 287 361 442
#     4  10  19  40  69  94 133 182 245 291 350 418
#     4  10  21  37  61  93 129 183 237 292 348 411
#     4  12  25  39  58  96 141 186 247 299 355 418
#     4  11  22  36  59  90 134 188 237 294 342 403
#     4  11  24  46  76 103 142 194 237 299 368 438
#
# _framework density 22.588315000000001
#
# number of rings (size 3 to 8) (size 9 to 14) (size 15 to 20)
#    0.000    1.143    4.286    2.571    4.000    2.857 
#    5.143    1.429    0.000    0.000    0.000    0.000 
#    0.000    0.000    0.000    0.000    0.000    0.000 
#
# Total GULP energy -312285.004322 kJ/mol
# GULP energy per Si atom -5576.517934 kJ/mol
# Density = 2.253690 g / cm^3
# Si number density = 22.588315 Si / 1000 Ang^3
#
#
#
# Elastic Constant Matrix: (Units=GPa)
#
#
# Indices 1 2 3 4 5 6 
#
# 1 61.0666 14.2672 -6.1875 -0.0001 0.0004 -0.0017
# 2 14.2672 90.8259 20.3352 0.0000 0.0005 -0.0017
# 3 -6.1875 20.3352 65.8457 0.0004 0.0022 -0.0057
# 4 -0.0001 0.0000 0.0004 37.3714 0.0002 -0.0009
# 5 0.0004 0.0005 0.0022 0.0002 30.8055 0.0017
# 6 -0.0017 -0.0017 -0.0057 -0.0009 0.0017 17.3270
#
#
#
# Elastic Compliance Matrix: (Units=1/GPa)
#
#
# Indices 1 2 3 4 5 6 
#
# 1 0.017425 -0.003334 0.002667 0.000000 0.000000 0.000002
# 2 -0.003334 0.012466 -0.004163 0.000000 0.000000 0.000000
# 3 0.002667 -0.004163 0.016723 0.000000 -0.000001 0.000005
# 4 0.000000 0.000000 0.000000 0.026758 0.000000 0.000001
# 5 0.000000 0.000000 -0.000001 0.000000 0.032462 -0.000003
# 6 0.000002 0.000000 0.000005 0.000001 -0.000003 0.057713
#
#
# Mechanical properties :
#
#
# Convention : Reuss Voigt Hill
#
# Bulk Modulus (GPa) = 27.06107 30.50754 28.78431
# Shear Modulus (GPa) = 26.95040 29.72236 28.33638
#
# Velocity S-wave (km/s) = 3.45789 3.63137 3.54569
# Velocity P-wave (km/s) = 5.28667 5.57832 5.43445
#
# Compressibility (1/GPa) = 0.03695345
#
# Stress axis : x y z
#
# Youngs Moduli (GPa) = 57.38946 80.21866 59.79657
#
# Poissons Ratio (x) = 0.26747 -0.15949
# Poissons Ratio (y) = 0.19135 0.24894
# Poissons Ratio (z) = -0.15307 0.33396
#
# Static dielectric constant tensor:
#      x y z
#    x 1.905450 0.000000 0.000000 
#    y 0.000000 1.799680 0.000000 
#    z 0.000000 0.000000 1.921300 
# 
# From -- ./inp_files/11244.got.cif
#   From: 2010.05.17/outbox.cif.g08.bks.cpg/sg73_6_cif.got.tgz:11244.got - 2010.06.03 17:35:07.
