data_PCOD9530122
_publ_section_title
;
Structure prediction by ZEFSAII (Michael W. Deem and Ramdas Pophale) SiO2 
 PCOD9530122
Probable space group: I B C A 
;
_chemical_formula_sum "Si O2"
_cell_formula_units_Z 96
_cell_length_a 24.341515
_cell_length_b 9.137228
_cell_length_c 20.232515
_cell_angle_alpha 90.000000
_cell_angle_beta 90.000000
_cell_angle_gamma 90.000000
_cell_volume 4499.994033
_symmetry_space_group_name_H-M "I B C A "
_symmetry_group_IT_number 73
_symmetry_cell_setting 'orthorhombic'
loop_
_space_group_symop_operation_xyz
x,y,z
-x,1/2-y,z
x,-y,1/2-z
1/2-x,y,-z
-x,-y,-z
x,1/2+y,-z
-x,y,1/2+z
1/2+x,-y,z
1/2+x,1/2+y,1/2+z
1/2-x,-y,1/2+z
1/2+x,1/2-y,-z
-x,1/2+y,1/2-z
1/2-x,1/2-y,1/2-z
1/2+x,y,1/2-z
1/2-x,1/2+y,z
x,1/2-y,1/2+z
loop_
_atom_site_type_symbol
_atom_site_label
_atom_site_fract_x
_atom_site_fract_y
_atom_site_fract_z
Si Si1 0.057232 0.460539 0.581114
Si Si2 0.685897 0.636781 0.055400
Si Si3 0.054606 0.656721 0.782204
Si Si4 0.103822 0.751210 0.150662
Si Si5 0.928794 0.516500 0.933746
Si Si6 0.712879 0.703345 0.418246
O O1 0.076537 0.368718 0.644311
O O2 0.073051 0.624193 0.606609
O O3 0.079448 0.444176 0.506784
O O4 0.991676 0.433717 0.572235
O O5 0.621464 0.628703 0.070445
O O6 0.707170 0.468843 0.064336
O O7 0.725427 0.744306 0.096898
O O8 0.694072 0.700417 0.981762
O O9 0.040360 0.500000 0.750000
O O10 0.093528 0.727440 0.727711
O O11 0.000000 0.750000 0.786596
O O12 0.079374 0.600585 0.123672
O O13 0.168318 0.745150 0.136115
#
# Coordination Sequence:
#
# PCOD9530122 Si02
#       6
#    16  16  16  16  16  16
#     4  10  20  35  54  87 119 157 198 240 297 368
#     4  10  19  34  52  86 117 152 188 252 304 354
#     4  10  21  38  57  82 117 161 202 233 294 365
#     4  10  19  35  56  82 118 155 195 244 298 354
#     4  10  20  33  57  87 126 149 194 252 308 345
#     4  10  19  33  56  81 118 150 194 242 308 354
#
# _framework density 21.333362000000001
#
# number of rings (size 3 to 8) (size 9 to 14) (size 15 to 20)
#    0.000    2.000    1.667    4.500    0.000    2.667 
#    0.000    1.667    0.000    0.000    0.000   77.000 
#    0.000    0.000    0.000    0.000    0.000    0.000 
#
# Total GULP energy -267922.413464 kJ/mol
# GULP energy per Si atom -5581.716947 kJ/mol
# Density = 2.128481 g / cm^3
# Si number density = 21.333362 Si / 1000 Ang^3
#
#
#
# Elastic Constant Matrix: (Units=GPa)
#
#
# Indices 1 2 3 4 5 6 
#
# 1 58.2404 13.8649 -3.5820 0.0000 0.0000 0.0000
# 2 13.8649 72.7653 40.1650 0.0000 0.0000 0.0000
# 3 -3.5820 40.1650 97.2391 0.0000 0.0000 0.0000
# 4 0.0000 0.0000 0.0000 16.0935 0.0000 0.0000
# 5 0.0000 0.0000 0.0000 0.0000 -17.6406 0.0000
# 6 0.0000 0.0000 0.0000 0.0000 0.0000 29.4293
#
#
#
# Elastic Compliance Matrix: (Units=1/GPa)
#
#
# Indices 1 2 3 4 5 6 
#
# 1 0.018547 -0.005066 0.002776 0.000000 0.000000 0.000000
# 2 -0.005066 0.019185 -0.008111 0.000000 0.000000 0.000000
# 3 0.002776 -0.008111 0.013737 0.000000 0.000000 0.000000
# 4 0.000000 0.000000 0.000000 0.062137 0.000000 0.000000
# 5 0.000000 0.000000 0.000000 0.000000 -0.056687 0.000000
# 6 0.000000 0.000000 0.000000 0.000000 0.000000 0.033980
#
#
# Mechanical properties :
#
#
# Convention : Reuss Voigt Hill
#
# Bulk Modulus (GPa) = 32.60966 36.57117 34.59042
# Shear Modulus (GPa) = 41.00938 17.42956 29.21947
#
# Velocity S-wave (km/s) = 4.38917 2.86144 3.70491
# Velocity P-wave (km/s) = 6.40355 5.30066 5.87803
#
# Compressibility (1/GPa) = 0.03066576
#
# Stress axis : x y z
#
# Youngs Moduli (GPa) = 53.91705 52.12305 72.79850
#
# Poissons Ratio (x) = 0.26407 -0.20208
# Poissons Ratio (y) = 0.27315 0.59048
# Poissons Ratio (z) = -0.14966 0.42278
#
# Static dielectric constant tensor:
#      x y z
#    x 1.811370 0.000000 0.000000 
#    y 0.000000 1.832690 0.000000 
#    z 0.000000 0.000000 1.761470 
# 
# From -- ./inp_files/27503.got.cif
#   From: 2010.05.17/outbox.cif.g08.bks.cpg/sg73_14_cif.got.tgz:27503.got - 2010.06.03 17:35:07.
