data_PCOD9530049
_publ_section_title
;
Structure prediction by ZEFSAII (Michael W. Deem and Ramdas Pophale) SiO2 
 PCOD9530049
Probable space group: I B C A 
;
_chemical_formula_sum "Si O2"
_cell_formula_units_Z 56
_cell_length_a 19.316668
_cell_length_b 10.708948
_cell_length_c 10.254843
_cell_angle_alpha 90.000000
_cell_angle_beta 90.000000
_cell_angle_gamma 90.000000
_cell_volume 2121.329058
_symmetry_space_group_name_H-M "I B C A "
_symmetry_group_IT_number 73
_symmetry_cell_setting 'orthorhombic'
loop_
_space_group_symop_operation_xyz
x,y,z
-x,1/2-y,z
x,-y,1/2-z
1/2-x,y,-z
-x,-y,-z
x,1/2+y,-z
-x,y,1/2+z
1/2+x,-y,z
1/2+x,1/2+y,1/2+z
1/2-x,-y,1/2+z
1/2+x,1/2-y,-z
-x,1/2+y,1/2-z
1/2-x,1/2-y,1/2-z
1/2+x,y,1/2-z
1/2-x,1/2+y,z
x,1/2-y,1/2+z
loop_
_atom_site_type_symbol
_atom_site_label
_atom_site_fract_x
_atom_site_fract_y
_atom_site_fract_z
Si Si1 0.859748 0.267288 0.688301
Si Si2 0.035112 0.875836 0.622295
Si Si3 0.181642 0.859310 0.554204
Si Si4 0.416307 0.000000 0.750000
O O1 0.931856 0.332120 0.735647
O O2 0.833063 0.260710 0.540596
O O3 0.808296 0.325975 0.794600
O O4 0.871946 0.122078 0.723668
O O5 0.106160 0.921664 0.557191
O O6 0.000000 0.750000 0.565204
O O7 0.972145 0.967586 0.638438
O O8 0.250000 0.923256 0.500000
#
# Coordination Sequence:
#
# PCOD9530049 Si02
#       4
#    16  16  16   8
#     4   9  21  38  60  88 118 165 201 255 309 366
#     4   8  19  35  59  91 115 157 201 254 310 362
#     4  10  20  40  61  85 122 164 203 249 313 376
#     4  10  18  42  58  94 124 160 204 268 302 372
#
# _framework density 26.398544999999999
#
# number of rings (size 3 to 8) (size 9 to 14) (size 15 to 20)
#    1.714    1.143    0.000    0.857    0.000    4.571 
#    5.143    2.857    0.000    0.000    0.000    0.000 
#    0.000    0.000    0.000    0.000    0.000    0.000 
#
# Total GULP energy -155903.315632 kJ/mol
# GULP energy per Si atom -5567.975558 kJ/mol
# Density = 2.633846 g / cm^3
# Si number density = 26.398545 Si / 1000 Ang^3
#
#
#
# Elastic Constant Matrix: (Units=GPa)
#
#
# Indices 1 2 3 4 5 6 
#
# 1 131.4177 23.5296 -9.3954 0.0000 0.0000 0.0000
# 2 23.5296 57.7251 -19.2960 0.0000 0.0000 0.0000
# 3 -9.3954 -19.2960 63.4903 0.0000 0.0000 0.0000
# 4 0.0000 0.0000 0.0000 -22.3681 0.0000 0.0000
# 5 0.0000 0.0000 0.0000 0.0000 56.3040 0.0000
# 6 0.0000 0.0000 0.0000 0.0000 0.0000 27.8392
#
#
#
# Elastic Compliance Matrix: (Units=1/GPa)
#
#
# Indices 1 2 3 4 5 6 
#
# 1 0.008211 -0.003273 0.000220 0.000000 0.000000 0.000000
# 2 -0.003273 0.020587 0.005773 0.000000 0.000000 0.000000
# 3 0.000220 0.005773 0.017537 0.000000 0.000000 0.000000
# 4 0.000000 0.000000 0.000000 -0.044707 0.000000 0.000000
# 5 0.000000 0.000000 0.000000 0.000000 0.017761 0.000000
# 6 0.000000 0.000000 0.000000 0.000000 0.000000 0.035921
#
#
# Mechanical properties :
#
#
# Convention : Reuss Voigt Hill
#
# Bulk Modulus (GPa) = 19.31441 26.92328 23.11885
# Shear Modulus (GPa) = 74.48223 29.54134 52.01179
#
# Velocity S-wave (km/s) = 5.31750 3.34885 4.44357
# Velocity P-wave (km/s) = 6.71069 5.01737 5.92484
#
# Compressibility (1/GPa) = 0.05177480
#
# Stress axis : x y z
#
# Youngs Moduli (GPa) = 121.78559 48.57344 57.02090
#
# Poissons Ratio (x) = 0.15900 -0.01256
# Poissons Ratio (y) = 0.39865 -0.32916
# Poissons Ratio (z) = -0.02682 -0.28039
#
# Static dielectric constant tensor:
#      x y z
#    x 2.034220 0.000000 0.000000 
#    y 0.000000 2.030180 0.000000 
#    z 0.000000 0.000000 2.309680 
# 
# From -- ./inp_files/9540.got.cif
#   From: 2010.05.17/outbox.cif.g08.bks.cpg/sg73_5_cif.got.tgz:9540.got - 2010.06.03 17:35:07.
