data_PCOD9530084
_publ_section_title
;
Structure prediction by ZEFSAII (Michael W. Deem and Ramdas Pophale) SiO2 
 PCOD9530084
Probable space group: I B C A 
;
_chemical_formula_sum "Si O2"
_cell_formula_units_Z 104
_cell_length_a 9.124095
_cell_length_b 27.287940
_cell_length_c 24.197339
_cell_angle_alpha 90.000000
_cell_angle_beta 90.000000
_cell_angle_gamma 90.000000
_cell_volume 6024.599188
_symmetry_space_group_name_H-M "I B C A "
_symmetry_group_IT_number 73
_symmetry_cell_setting 'orthorhombic'
loop_
_space_group_symop_operation_xyz
x,y,z
-x,1/2-y,z
x,-y,1/2-z
1/2-x,y,-z
-x,-y,-z
x,1/2+y,-z
-x,y,1/2+z
1/2+x,-y,z
1/2+x,1/2+y,1/2+z
1/2-x,-y,1/2+z
1/2+x,1/2-y,-z
-x,1/2+y,1/2-z
1/2-x,1/2-y,1/2-z
1/2+x,y,1/2-z
1/2-x,1/2+y,z
x,1/2-y,1/2+z
loop_
_atom_site_type_symbol
_atom_site_label
_atom_site_fract_x
_atom_site_fract_y
_atom_site_fract_z
Si Si1 0.191015 0.068254 0.287138
Si Si2 0.437944 0.500000 0.750000
Si Si3 0.979029 0.192096 0.105462
Si Si4 0.654274 0.155214 0.127594
Si Si5 0.645558 0.148636 0.300438
Si Si6 0.055821 0.802679 0.718895
Si Si7 0.583697 0.298679 0.517900
O O1 0.331950 0.033288 0.287571
O O2 0.177623 0.104814 0.338927
O O3 0.199669 0.098854 0.228870
O O4 0.045842 0.035347 0.283730
O O5 0.814258 0.179724 0.124702
O O6 0.000000 0.250000 0.117203
O O7 0.093224 0.157172 0.137315
O O8 0.990331 0.185427 0.039506
O O9 0.536727 0.184514 0.164349
O O10 0.595697 0.159870 0.064886
O O11 0.773357 0.188387 0.289431
O O12 0.500650 0.160508 0.265427
O O13 0.000000 0.750000 0.736993
O O14 0.500000 0.250000 0.538717
O O15 0.750000 0.284984 0.500000
#
# Coordination Sequence:
#
# PCOD9530084 Si02
#       7
#    16   8  16  16  16  16  16
#     4  10  20  34  53  76  97 125 161 208 266 318
#     4  10  20  36  54  74  98 120 156 210 274 330
#     4  10  19  32  49  73 107 145 177 203 232 277
#     4  10  19  33  50  73 101 132 174 211 244 295
#     4  11  20  32  48  73 103 132 171 208 244 300
#     4  11  20  29  45  69 103 141 166 200 243 286
#     4   9  19  33  50  73 105 145 180 206 235 274
#
# _framework density 17.262557999999999
#
# number of rings (size 3 to 8) (size 9 to 14) (size 15 to 20)
#    0.000    1.846    0.000    6.923    0.000    2.462 
#    0.000    0.000    0.000    0.000    0.000   29.077 
#    0.000    0.000    0.000    0.000    0.000    0.000 
#
# Total GULP energy -289784.016159 kJ/mol
# GULP energy per Si atom -5572.769542 kJ/mol
# Density = 1.722327 g / cm^3
# Si number density = 17.262558 Si / 1000 Ang^3
#
#
#
# Elastic Constant Matrix: (Units=GPa)
#
#
# Indices 1 2 3 4 5 6 
#
# 1 78.2129 34.8204 35.0713 0.0000 0.0000 0.0000
# 2 34.8204 86.8298 49.5462 0.0000 0.0000 0.0000
# 3 35.0713 49.5462 93.0574 0.0000 0.0000 0.0000
# 4 0.0000 0.0000 0.0000 15.0394 0.0000 0.0000
# 5 0.0000 0.0000 0.0000 0.0000 19.7944 0.0000
# 6 0.0000 0.0000 0.0000 0.0000 0.0000 29.9897
#
#
#
# Elastic Compliance Matrix: (Units=1/GPa)
#
#
# Indices 1 2 3 4 5 6 
#
# 1 0.016479 -0.004402 -0.003867 0.000000 0.000000 0.000000
# 2 -0.004402 0.017718 -0.007775 0.000000 0.000000 0.000000
# 3 -0.003867 -0.007775 0.016343 0.000000 0.000000 0.000000
# 4 0.000000 0.000000 0.000000 0.066492 0.000000 0.000000
# 5 0.000000 0.000000 0.000000 0.000000 0.050519 0.000000
# 6 0.000000 0.000000 0.000000 0.000000 0.000000 0.033345
#
#
# Mechanical properties :
#
#
# Convention : Reuss Voigt Hill
#
# Bulk Modulus (GPa) = 54.19090 55.21956 54.70523
# Shear Modulus (GPa) = 20.90865 22.20885 21.55875
#
# Velocity S-wave (km/s) = 3.48403 3.59072 3.53777
# Velocity P-wave (km/s) = 6.90253 7.01773 6.96037
#
# Compressibility (1/GPa) = 0.01845328
#
# Stress axis : x y z
#
# Youngs Moduli (GPa) = 60.68194 56.43842 61.18868
#
# Poissons Ratio (x) = 0.24844 0.23662
# Poissons Ratio (y) = 0.26712 0.47573
# Poissons Ratio (z) = 0.23466 0.43879
#
# Static dielectric constant tensor:
#      x y z
#    x 1.596100 0.000000 0.000000 
#    y 0.000000 1.609680 0.000000 
#    z 0.000000 0.000000 1.624390 
# 
# From -- ./inp_files/7328.got.cif
#   From: 2010.05.17/outbox.cif.g08.bks.cpg/sg73_4_cif.got.tgz:7328.got - 2010.06.03 17:35:07.
