data_PCOD9530657
_publ_section_title
;
Structure prediction by ZEFSAII (Michael W. Deem and Ramdas Pophale) SiO2 
 PCOD9530657
Probable space group: I B C A 
;
_chemical_formula_sum "Si O2"
_cell_formula_units_Z 96
_cell_length_a 18.479290
_cell_length_b 25.229347
_cell_length_c 9.978494
_cell_angle_alpha 90.000000
_cell_angle_beta 90.000000
_cell_angle_gamma 90.000000
_cell_volume 4652.177661
_symmetry_space_group_name_H-M "I B C A "
_symmetry_group_IT_number 73
_symmetry_cell_setting 'orthorhombic'
loop_
_space_group_symop_operation_xyz
x,y,z
-x,1/2-y,z
x,-y,1/2-z
1/2-x,y,-z
-x,-y,-z
x,1/2+y,-z
-x,y,1/2+z
1/2+x,-y,z
1/2+x,1/2+y,1/2+z
1/2-x,-y,1/2+z
1/2+x,1/2-y,-z
-x,1/2+y,1/2-z
1/2-x,1/2-y,1/2-z
1/2+x,y,1/2-z
1/2-x,1/2+y,z
x,1/2-y,1/2+z
loop_
_atom_site_type_symbol
_atom_site_label
_atom_site_fract_x
_atom_site_fract_y
_atom_site_fract_z
Si Si1 0.169800 0.873788 0.287188
Si Si2 0.594047 0.425878 0.528386
Si Si3 0.835079 0.392830 0.751978
Si Si4 0.457066 0.196911 0.843922
Si Si5 0.668423 0.532848 0.489684
Si Si6 0.469959 0.141566 0.108958
O O1 0.254871 0.869343 0.255248
O O2 0.127980 0.818904 0.325479
O O3 0.163185 0.916904 0.408646
O O4 0.135043 0.899865 0.154681
O O5 0.629560 0.401792 0.392984
O O6 0.611183 0.487979 0.525518
O O7 0.509700 0.409901 0.546096
O O8 0.887774 0.358888 0.845373
O O9 0.836281 0.447184 0.837296
O O10 0.500000 0.250000 0.803664
O O11 0.490066 0.153064 0.746523
O O12 0.478826 0.185583 0.996095
O O13 0.750000 0.509825 0.500000
#
# Coordination Sequence:
#
# PCOD9530657 Si02
#       6
#    16  16  16  16  16  16
#     4  10  22  39  65  93 127 170 217 275 313 385
#     4  11  22  37  62  91 136 176 212 259 323 382
#     4  11  21  39  62  93 133 168 219 259 320 374
#     4  11  23  44  67  90 119 166 213 266 340 384
#     4  10  20  36  61  94 130 178 221 260 314 380
#     4  11  23  41  64  92 128 165 208 267 320 394
#
# _framework density 20.635497000000001
#
# number of rings (size 3 to 8) (size 9 to 14) (size 15 to 20)
#    0.000    1.333    3.333    3.000    0.000    3.333 
#    0.000    2.500    0.000    2.000    0.000    0.000 
#    0.000    0.000    0.000    0.000    0.000    0.000 
#
# Total GULP energy -267403.036025 kJ/mol
# GULP energy per Si atom -5570.896584 kJ/mol
# Density = 2.058853 g / cm^3
# Si number density = 20.635497 Si / 1000 Ang^3
#
#
#
# Elastic Constant Matrix: (Units=GPa)
#
#
# Indices 1 2 3 4 5 6 
#
# 1 106.3509 37.7262 23.4233 0.0000 0.0000 0.0000
# 2 37.7262 63.9552 7.0655 0.0000 0.0000 0.0000
# 3 23.4233 7.0655 115.5529 0.0000 0.0000 0.0000
# 4 0.0000 0.0000 0.0000 26.4948 0.0000 0.0000
# 5 0.0000 0.0000 0.0000 0.0000 24.8103 0.0000
# 6 0.0000 0.0000 0.0000 0.0000 0.0000 18.5020
#
#
#
# Elastic Compliance Matrix: (Units=1/GPa)
#
#
# Indices 1 2 3 4 5 6 
#
# 1 0.012366 -0.007065 -0.002075 0.000000 0.000000 0.000000
# 2 -0.007065 0.019779 0.000223 0.000000 0.000000 0.000000
# 3 -0.002075 0.000223 0.009061 0.000000 0.000000 0.000000
# 4 0.000000 0.000000 0.000000 0.037743 0.000000 0.000000
# 5 0.000000 0.000000 0.000000 0.000000 0.040306 0.000000
# 6 0.000000 0.000000 0.000000 0.000000 0.000000 0.054048
#
#
# Mechanical properties :
#
#
# Convention : Reuss Voigt Hill
#
# Bulk Modulus (GPa) = 42.78687 46.92100 44.85393
# Shear Modulus (GPa) = 25.13465 28.47102 26.80283
#
# Velocity S-wave (km/s) = 3.49381 3.71848 3.60789
# Velocity P-wave (km/s) = 6.08730 6.42055 6.25615
#
# Compressibility (1/GPa) = 0.02337166
#
# Stress axis : x y z
#
# Youngs Moduli (GPa) = 80.86635 50.55849 110.36348
#
# Poissons Ratio (x) = 0.35721 0.22897
# Poissons Ratio (y) = 0.57135 -0.02459
# Poissons Ratio (z) = 0.16777 -0.01126
#
# Static dielectric constant tensor:
#      x y z
#    x 1.800700 0.000000 0.000000 
#    y 0.000000 1.781850 0.000000 
#    z 0.000000 0.000000 1.713360 
# 
# From -- ./inp_files/6428.got.cif
#   From: 2010.05.17/outbox.cif.g08.bks.cpg/sg73_4_cif.got.tgz:6428.got - 2010.06.03 17:35:07.
