data_PCOD9530289
_publ_section_title
;
Structure prediction by ZEFSAII (Michael W. Deem and Ramdas Pophale) SiO2 
 PCOD9530289
Probable space group: I B C A 
;
_chemical_formula_sum "Si O2"
_cell_formula_units_Z 96
_cell_length_a 9.449812
_cell_length_b 25.986856
_cell_length_c 17.762127
_cell_angle_alpha 90.000000
_cell_angle_beta 90.000000
_cell_angle_gamma 90.000000
_cell_volume 4361.861579
_symmetry_space_group_name_H-M "I B C A "
_symmetry_group_IT_number 73
_symmetry_cell_setting 'orthorhombic'
loop_
_space_group_symop_operation_xyz
x,y,z
-x,1/2-y,z
x,-y,1/2-z
1/2-x,y,-z
-x,-y,-z
x,1/2+y,-z
-x,y,1/2+z
1/2+x,-y,z
1/2+x,1/2+y,1/2+z
1/2-x,-y,1/2+z
1/2+x,1/2-y,-z
-x,1/2+y,1/2-z
1/2-x,1/2-y,1/2-z
1/2+x,y,1/2-z
1/2-x,1/2+y,z
x,1/2-y,1/2+z
loop_
_atom_site_type_symbol
_atom_site_label
_atom_site_fract_x
_atom_site_fract_y
_atom_site_fract_z
Si Si1 0.607061 0.474816 0.171700
Si Si2 0.614625 0.442108 0.887296
Si Si3 0.977962 0.623372 0.252136
Si Si4 0.413499 0.797584 0.140721
Si Si5 0.417710 0.149602 0.991331
Si Si6 0.907547 0.301404 0.375514
O O1 0.664987 0.500000 0.250000
O O2 0.729736 0.465309 0.111814
O O3 0.495145 0.514103 0.136359
O O4 0.536881 0.421929 0.199653
O O5 0.618750 0.402974 0.815706
O O6 0.571593 0.408545 0.959181
O O7 0.908149 0.666203 0.200845
O O8 0.092327 0.654690 0.301440
O O9 0.500000 0.750000 0.176098
O O10 0.514424 0.814692 0.072655
O O11 0.256262 0.787113 0.110292
O O12 0.250000 0.159861 0.000000
O O13 0.512340 0.162612 0.063638
O O14 0.000000 0.250000 0.370528
#
# Coordination Sequence:
#
# PCOD9530289 Si02
#       6
#    16  16  16  16  16  16
#     4  10  19  37  65  97 128 163 207 259 320 376
#     4  10  22  40  65  94 127 165 210 262 315 379
#     4  10  22  39  67  98 128 167 212 259 310 377
#     4  11  24  42  65  96 131 169 216 263 314 380
#     4  11  24  44  65  89 127 173 217 265 320 378
#     4  12  25  42  67  96 130 171 214 264 321 378
#
# _framework density 22.008952000000001
#
# number of rings (size 3 to 8) (size 9 to 14) (size 15 to 20)
#    0.000    1.333    0.000    6.000    0.000    8.000 
#    0.000    5.000    0.000    6.000    0.000    0.000 
#    0.000    0.000    0.000    0.000    0.000    0.000 
#
# Total GULP energy -268238.998809 kJ/mol
# GULP energy per Si atom -5588.312475 kJ/mol
# Density = 2.195886 g / cm^3
# Si number density = 22.008952 Si / 1000 Ang^3
#
#
#
# Elastic Constant Matrix: (Units=GPa)
#
#
# Indices 1 2 3 4 5 6 
#
# 1 153.7283 54.3592 50.4088 0.0000 0.0000 0.0000
# 2 54.3592 104.3104 52.2171 0.0000 0.0000 0.0000
# 3 50.4088 52.2171 70.5998 0.0000 0.0001 0.0000
# 4 0.0000 0.0000 0.0000 27.8105 0.0000 0.0000
# 5 0.0000 0.0000 0.0001 0.0000 19.8713 0.0000
# 6 0.0000 0.0000 0.0000 0.0000 0.0000 17.7948
#
#
#
# Elastic Compliance Matrix: (Units=1/GPa)
#
#
# Indices 1 2 3 4 5 6 
#
# 1 0.008826 -0.002294 -0.004605 0.000000 0.000000 0.000000
# 2 -0.002294 0.015820 -0.010062 0.000000 0.000000 0.000000
# 3 -0.004605 -0.010062 0.024895 0.000000 0.000000 0.000000
# 4 0.000000 0.000000 0.000000 0.035958 0.000000 0.000000
# 5 0.000000 0.000000 0.000000 0.000000 0.050324 0.000000
# 6 0.000000 0.000000 0.000000 0.000000 0.000000 0.056196
#
#
# Mechanical properties :
#
#
# Convention : Reuss Voigt Hill
#
# Bulk Modulus (GPa) = 64.03246 71.40096 67.71671
# Shear Modulus (GPa) = 21.63121 24.53888 23.08505
#
# Velocity S-wave (km/s) = 3.13842 3.34271 3.24218
# Velocity P-wave (km/s) = 6.50307 6.88553 6.69703
#
# Compressibility (1/GPa) = 0.01561708
#
# Stress axis : x y z
#
# Youngs Moduli (GPa) = 113.29728 63.21296 40.16922
#
# Poissons Ratio (x) = 0.14503 0.18498
# Poissons Ratio (y) = 0.25995 0.40419
# Poissons Ratio (z) = 0.52175 0.63607
#
# Static dielectric constant tensor:
#      x y z
#    x 1.790300 0.000000 0.000000 
#    y 0.000000 1.823890 0.000000 
#    z 0.000000 0.000000 1.825930 
# 
# From -- ./inp_files/24880.got.cif
#   From: 2010.05.17/outbox.cif.g08.bks.cpg/sg73_13_cif.got.tgz:24880.got - 2010.06.03 17:35:07.
