data_PCOD9530099
_publ_section_title
;
Structure prediction by ZEFSAII (Michael W. Deem and Ramdas Pophale) SiO2 
 PCOD9530099
Probable space group: I B C A 
;
_chemical_formula_sum "Si O2"
_cell_formula_units_Z 88
_cell_length_a 18.891555
_cell_length_b 9.377782
_cell_length_c 20.734579
_cell_angle_alpha 90.000000
_cell_angle_beta 90.000000
_cell_angle_gamma 90.000000
_cell_volume 3673.356354
_symmetry_space_group_name_H-M "I B C A "
_symmetry_group_IT_number 73
_symmetry_cell_setting 'orthorhombic'
loop_
_space_group_symop_operation_xyz
x,y,z
-x,1/2-y,z
x,-y,1/2-z
1/2-x,y,-z
-x,-y,-z
x,1/2+y,-z
-x,y,1/2+z
1/2+x,-y,z
1/2+x,1/2+y,1/2+z
1/2-x,-y,1/2+z
1/2+x,1/2-y,-z
-x,1/2+y,1/2-z
1/2-x,1/2-y,1/2-z
1/2+x,y,1/2-z
1/2-x,1/2+y,z
x,1/2-y,1/2+z
loop_
_atom_site_type_symbol
_atom_site_label
_atom_site_fract_x
_atom_site_fract_y
_atom_site_fract_z
Si Si1 0.078377 0.500000 0.750000
Si Si2 0.682140 0.359287 0.536829
Si Si3 0.161132 0.250846 0.212728
Si Si4 0.123210 0.080895 0.935155
Si Si5 0.972478 0.106060 0.140179
Si Si6 0.252694 0.004129 0.340551
O O1 0.124130 0.644117 0.735051
O O2 0.029076 0.542519 0.809951
O O3 0.750000 0.291753 0.500000
O O4 0.655313 0.488800 0.493490
O O5 0.621834 0.243239 0.544754
O O6 0.712792 0.406375 0.604822
O O7 0.095072 0.333647 0.180536
O O8 0.219228 0.379548 0.213218
O O9 0.199693 0.126270 0.172756
O O10 0.052077 0.010967 0.909883
O O11 0.178563 0.063335 0.875454
O O12 0.000000 0.250000 0.107213
#
# Coordination Sequence:
#
# PCOD9530099 Si02
#       6
#     8  16  16  16  16  16
#     4  10  22  46  66  86 118 194 228 280 324 378
#     4  10  19  32  58  95 135 170 201 258 352 418
#     4  10  21  39  66  97 129 168 219 282 345 409
#     4  10  20  34  61  95 130 175 213 269 336 411
#     4   9  21  43  66  86 127 179 234 280 320 390
#     4  10  19  36  60 100 137 161 206 279 355 409
#
# _framework density 23.956292000000001
#
# number of rings (size 3 to 8) (size 9 to 14) (size 15 to 20)
#    0.000    2.182    1.818    1.636    5.091    0.727 
#    9.818    4.545    0.000    0.000    0.000    0.000 
#    0.000    0.000    0.000    0.000    0.000    0.000 
#
# Total GULP energy -245648.376330 kJ/mol
# GULP energy per Si atom -5582.917644 kJ/mol
# Density = 2.390177 g / cm^3
# Si number density = 23.956292 Si / 1000 Ang^3
#
#
#
# Elastic Constant Matrix: (Units=GPa)
#
#
# Indices 1 2 3 4 5 6 
#
# 1 89.6270 40.2146 23.8014 0.0000 0.0000 0.0000
# 2 40.2146 149.5056 27.7012 0.0000 0.0000 0.0000
# 3 23.8014 27.7012 33.7319 0.0000 0.0000 0.0000
# 4 0.0000 0.0000 0.0000 -11.3034 0.0000 0.0000
# 5 0.0000 0.0000 0.0000 0.0000 20.5111 0.0000
# 6 0.0000 0.0000 0.0000 0.0000 0.0000 38.4139
#
#
#
# Elastic Compliance Matrix: (Units=1/GPa)
#
#
# Indices 1 2 3 4 5 6 
#
# 1 0.014396 -0.002347 -0.008230 0.000000 0.000000 0.000000
# 2 -0.002347 0.008272 -0.005137 0.000000 0.000000 0.000000
# 3 -0.008230 -0.005137 0.039671 0.000000 0.000000 0.000000
# 4 0.000000 0.000000 0.000000 -0.088469 0.000000 0.000000
# 5 0.000000 0.000000 0.000000 0.000000 0.048754 0.000000
# 6 0.000000 0.000000 0.000000 0.000000 0.000000 0.026032
#
#
# Mechanical properties :
#
#
# Convention : Reuss Voigt Hill
#
# Bulk Modulus (GPa) = 32.35144 50.69986 41.52565
# Shear Modulus (GPa) = 55.31663 21.60082 38.45872
#
# Velocity S-wave (km/s) = 4.81049 3.00605 4.01105
# Velocity P-wave (km/s) = 6.66244 5.76696 6.23081
#
# Compressibility (1/GPa) = 0.03091052
#
# Stress axis : x y z
#
# Youngs Moduli (GPa) = 69.46254 120.89162 25.20722
#
# Poissons Ratio (x) = 0.28378 0.20746
# Poissons Ratio (y) = 0.16306 0.12948
# Poissons Ratio (z) = 0.57170 0.62098
#
# Static dielectric constant tensor:
#      x y z
#    x 1.974390 0.000000 0.000000 
#    y 0.000000 1.903520 0.000000 
#    z 0.000000 0.000000 1.923170 
# 
# From -- ./inp_files/7066.got.cif
#   From: 2010.05.17/outbox.cif.g08.bks.cpg/sg73_4_cif.got.tgz:7066.got - 2010.06.03 17:35:07.
