data_PCOD9530541
_publ_section_title
;
Structure prediction by ZEFSAII (Michael W. Deem and Ramdas Pophale) SiO2 
 PCOD9530541
Probable space group: I B C A 
;
_chemical_formula_sum "Si O2"
_cell_formula_units_Z 72
_cell_length_a 13.012367
_cell_length_b 16.943785
_cell_length_c 12.838794
_cell_angle_alpha 90.000000
_cell_angle_beta 90.000000
_cell_angle_gamma 90.000000
_cell_volume 2830.681237
_symmetry_space_group_name_H-M "I B C A "
_symmetry_group_IT_number 73
_symmetry_cell_setting 'orthorhombic'
loop_
_space_group_symop_operation_xyz
x,y,z
-x,1/2-y,z
x,-y,1/2-z
1/2-x,y,-z
-x,-y,-z
x,1/2+y,-z
-x,y,1/2+z
1/2+x,-y,z
1/2+x,1/2+y,1/2+z
1/2-x,-y,1/2+z
1/2+x,1/2-y,-z
-x,1/2+y,1/2-z
1/2-x,1/2-y,1/2-z
1/2+x,y,1/2-z
1/2-x,1/2+y,z
x,1/2-y,1/2+z
loop_
_atom_site_type_symbol
_atom_site_label
_atom_site_fract_x
_atom_site_fract_y
_atom_site_fract_z
Si Si1 0.683500 0.454120 0.605228
Si Si2 0.722006 0.287246 0.621491
Si Si3 0.975277 0.418042 0.809120
Si Si4 0.246971 0.879323 0.375584
Si Si5 0.500000 0.250000 0.702711
O O1 0.750000 0.462235 0.500000
O O2 0.736099 0.377673 0.661669
O O3 0.564877 0.426300 0.603508
O O4 0.681243 0.542798 0.650251
O O5 0.750000 0.296004 0.500000
O O6 0.782598 0.209619 0.662449
O O7 0.603530 0.260245 0.634599
O O8 0.976226 0.500000 0.750000
O O9 0.992655 0.336250 0.744445
O O10 0.862403 0.406649 0.852410
O O11 0.250000 0.868407 0.500000
#
# Coordination Sequence:
#
# PCOD9530541 Si02
#       5
#    16  16  16  16   8
#     4   9  18  32  53  78 106 139 178 220 267 319
#     4   8  14  28  49  74 101 133 172 219 267 316
#     4  10  20  35  55  79 109 142 178 221 269 320
#     4   9  18  32  53  78 106 139 178 220 267 319
#     4   8  16  32  52  74 102 138 176 216 266 320
#
# _framework density 25.435573999999999
#
# number of rings (size 3 to 8) (size 9 to 14) (size 15 to 20)
#    0.000    3.111    0.000    0.000    0.000    4.444 
#    0.000    4.444    0.000    8.000    0.000    0.000 
#    0.000    0.000    0.000    0.000    0.000    0.000 
#
# Total GULP energy -200586.444883 kJ/mol
# GULP energy per Si atom -5571.845691 kJ/mol
# Density = 2.537768 g / cm^3
# Si number density = 25.435574 Si / 1000 Ang^3
#
#
#
# Elastic Constant Matrix: (Units=GPa)
#
#
# Indices 1 2 3 4 5 6 
#
# 1 121.4584 7.0859 19.4722 0.0000 0.0000 0.0000
# 2 7.0859 310.2549 32.1341 0.0000 0.0000 0.0000
# 3 19.4722 32.1341 47.9924 0.0000 0.0000 0.0000
# 4 0.0000 0.0000 0.0000 46.1792 0.0000 0.0000
# 5 0.0000 0.0000 0.0000 0.0000 17.8816 0.0000
# 6 0.0000 0.0000 0.0000 0.0000 0.0000 28.8052
#
#
#
# Elastic Compliance Matrix: (Units=1/GPa)
#
#
# Indices 1 2 3 4 5 6 
#
# 1 0.008816 0.000182 -0.003698 0.000000 0.000000 0.000000
# 2 0.000182 0.003467 -0.002395 0.000000 0.000000 0.000000
# 3 -0.003698 -0.002395 0.023941 0.000000 0.000000 0.000000
# 4 0.000000 0.000000 0.000000 0.021655 0.000000 0.000000
# 5 0.000000 0.000000 0.000000 0.000000 0.055923 0.000000
# 6 0.000000 0.000000 0.000000 0.000000 0.000000 0.034716
#
#
# Mechanical properties :
#
#
# Convention : Reuss Voigt Hill
#
# Bulk Modulus (GPa) = 40.98391 66.34331 53.66361
# Shear Modulus (GPa) = 29.67800 46.64075 38.15938
#
# Velocity S-wave (km/s) = 3.41954 4.28680 3.87749
# Velocity P-wave (km/s) = 5.63372 7.11630 6.41796
#
# Compressibility (1/GPa) = 0.02439982
#
# Stress axis : x y z
#
# Youngs Moduli (GPa) = 113.43514 288.42701 41.76940
#
# Poissons Ratio (x) = -0.05241 0.15448
# Poissons Ratio (y) = -0.02061 0.10004
# Poissons Ratio (z) = 0.41954 0.69083
#
# Static dielectric constant tensor:
#      x y z
#    x 1.935960 0.000000 0.000000 
#    y 0.000000 2.165170 0.000000 
#    z 0.000000 0.000000 2.139580 
# 
# From -- ./inp_files/11649.got.cif
#   From: 2010.05.17/outbox.cif.g08.bks.cpg/sg73_6_cif.got.tgz:11649.got - 2010.06.03 17:35:07.
