data_PCOD9530807
_publ_section_title
;
Structure prediction by ZEFSAII (Michael W. Deem and Ramdas Pophale) SiO2 
 PCOD9530807
Probable space group: I B C A 
;
_chemical_formula_sum "Si O2"
_cell_formula_units_Z 88
_cell_length_a 16.729126
_cell_length_b 24.924426
_cell_length_c 9.158004
_cell_angle_alpha 90.000000
_cell_angle_beta 90.000000
_cell_angle_gamma 90.000000
_cell_volume 3818.556725
_symmetry_space_group_name_H-M "I B C A "
_symmetry_group_IT_number 73
_symmetry_cell_setting 'orthorhombic'
loop_
_space_group_symop_operation_xyz
x,y,z
-x,1/2-y,z
x,-y,1/2-z
1/2-x,y,-z
-x,-y,-z
x,1/2+y,-z
-x,y,1/2+z
1/2+x,-y,z
1/2+x,1/2+y,1/2+z
1/2-x,-y,1/2+z
1/2+x,1/2-y,-z
-x,1/2+y,1/2-z
1/2-x,1/2-y,1/2-z
1/2+x,y,1/2-z
1/2-x,1/2+y,z
x,1/2-y,1/2+z
loop_
_atom_site_type_symbol
_atom_site_label
_atom_site_fract_x
_atom_site_fract_y
_atom_site_fract_z
Si Si1 0.823327 0.125302 0.306918
Si Si2 0.439725 0.158567 0.956978
Si Si3 0.878951 0.363671 0.483520
Si Si4 0.750000 0.959217 0.000000
Si Si5 0.390518 0.053017 0.780223
Si Si6 0.313124 0.297435 0.260166
O O1 0.892564 0.157408 0.389866
O O2 0.810544 0.069960 0.387592
O O3 0.738685 0.154638 0.331151
O O4 0.840322 0.121095 0.136873
O O5 0.427600 0.100939 0.876928
O O6 0.394850 0.202369 0.854220
O O7 0.532998 0.159687 0.987448
O O8 0.875700 0.413768 0.370569
O O9 0.833463 0.315937 0.402077
O O10 0.682051 0.973326 0.122823
O O11 0.443292 0.000000 0.750000
O O12 0.250000 0.250000 0.250000
#
# Coordination Sequence:
#
# PCOD9530807 Si02
#       6
#    16  16  16   8  16  16
#     4  11  19  39  65  91 131 178 223 273 344 398
#     4  10  22  44  64  94 143 182 215 289 348 398
#     4  11  23  40  68  98 134 180 229 276 350 408
#     4  10  20  38  60  92 138 182 220 292 338 384
#     4  10  22  40  63 100 139 185 235 278 330 406
#     4  11  23  42  67  98 128 175 226 280 341 421
#
# _framework density 23.045356000000002
#
# number of rings (size 3 to 8) (size 9 to 14) (size 15 to 20)
#    0.000    1.455    5.455    2.727    0.000    5.091 
#    0.000    8.182    0.000    0.000    0.000    0.000 
#    0.000    0.000    0.000    0.000    0.000    0.000 
#
# Total GULP energy -245096.290714 kJ/mol
# GULP energy per Si atom -5570.370243 kJ/mol
# Density = 2.299290 g / cm^3
# Si number density = 23.045356 Si / 1000 Ang^3
#
#
#
# Elastic Constant Matrix: (Units=GPa)
#
#
# Indices 1 2 3 4 5 6 
#
# 1 117.8725 31.4720 42.1974 0.0000 0.0000 0.0000
# 2 31.4720 76.8003 40.5163 0.0000 0.0000 0.0000
# 3 42.1974 40.5163 180.9505 0.0000 0.0000 0.0000
# 4 0.0000 0.0000 0.0000 14.3124 0.0000 0.0000
# 5 0.0000 0.0000 0.0000 0.0000 33.4427 0.0000
# 6 0.0000 0.0000 0.0000 0.0000 0.0000 3.0833
#
#
#
# Elastic Compliance Matrix: (Units=1/GPa)
#
#
# Indices 1 2 3 4 5 6 
#
# 1 0.009914 -0.003224 -0.001590 0.000000 0.000000 0.000000
# 2 -0.003224 0.015813 -0.002789 0.000000 0.000000 0.000000
# 3 -0.001590 -0.002789 0.006522 0.000000 0.000000 0.000000
# 4 0.000000 0.000000 0.000000 0.069869 0.000000 0.000000
# 5 0.000000 0.000000 0.000000 0.000000 0.029902 0.000000
# 6 0.000000 0.000000 0.000000 0.000000 0.000000 0.324328
#
#
# Mechanical properties :
#
#
# Convention : Reuss Voigt Hill
#
# Bulk Modulus (GPa) = 58.67475 67.11053 62.89264
# Shear Modulus (GPa) = 10.47703 27.59687 19.03695
#
# Velocity S-wave (km/s) = 2.13451 3.46425 2.87725
# Velocity P-wave (km/s) = 5.62056 6.72203 6.19582
#
# Compressibility (1/GPa) = 0.01704311
#
# Stress axis : x y z
#
# Youngs Moduli (GPa) = 100.87055 63.23860 153.33582
#
# Poissons Ratio (x) = 0.20386 0.24381
# Poissons Ratio (y) = 0.32518 0.42764
# Poissons Ratio (z) = 0.16039 0.17637
#
# Static dielectric constant tensor:
#      x y z
#    x 1.940910 0.000000 0.000000 
#    y 0.000000 2.066920 0.000000 
#    z 0.000000 0.000000 1.927250 
# 
# From -- ./inp_files/5745.got.cif
#   From: 2010.05.17/outbox.cif.g08.bks.cpg/sg73_3_cif.got.tgz:5745.got - 2010.06.03 17:35:07.
