data_PCOD9530741
_publ_section_title
;
Structure prediction by ZEFSAII (Michael W. Deem and Ramdas Pophale) SiO2 
 PCOD9530741
Probable space group: I B C A 
;
_chemical_formula_sum "Si O2"
_cell_formula_units_Z 64
_cell_length_a 5.250232
_cell_length_b 23.940161
_cell_length_c 19.852423
_cell_angle_alpha 90.000000
_cell_angle_beta 90.000000
_cell_angle_gamma 90.000000
_cell_volume 2495.278828
_symmetry_space_group_name_H-M "I B C A "
_symmetry_group_IT_number 73
_symmetry_cell_setting 'orthorhombic'
loop_
_space_group_symop_operation_xyz
x,y,z
-x,1/2-y,z
x,-y,1/2-z
1/2-x,y,-z
-x,-y,-z
x,1/2+y,-z
-x,y,1/2+z
1/2+x,-y,z
1/2+x,1/2+y,1/2+z
1/2-x,-y,1/2+z
1/2+x,1/2-y,-z
-x,1/2+y,1/2-z
1/2-x,1/2-y,1/2-z
1/2+x,y,1/2-z
1/2-x,1/2+y,z
x,1/2-y,1/2+z
loop_
_atom_site_type_symbol
_atom_site_label
_atom_site_fract_x
_atom_site_fract_y
_atom_site_fract_z
Si Si1 0.487874 0.872810 0.401985
Si Si2 0.250000 0.447773 0.500000
Si Si3 0.699047 0.330719 0.294447
Si Si4 0.326217 0.971448 0.645929
Si Si5 0.000000 0.250000 0.873182
O O1 0.465266 0.905345 0.471344
O O2 0.748567 0.870340 0.359425
O O3 0.295193 0.909606 0.355734
O O4 0.423051 0.807189 0.410207
O O5 0.351386 0.480607 0.435462
O O6 0.940978 0.338370 0.244918
O O7 0.766586 0.270296 0.326724
O O8 0.599818 0.988914 0.673392
#
# Coordination Sequence:
#
# PCOD9530741 Si02
#       5
#    16   8  16  16   8
#     4   8  20  34  62  85 122 150 198 244 304 343
#     4   8  18  38  56  94 110 164 186 256 284 372
#     4  10  20  37  62  85 114 155 204 243 283 352
#     4  10  20  37  62  85 114 155 204 243 283 352
#     4   8  18  38  56  94 110 164 186 256 284 372
#
# _framework density 25.648437000000001
#
# number of rings (size 3 to 8) (size 9 to 14) (size 15 to 20)
#    3.000    0.000    0.000    1.500    0.000    2.000 
#    0.000    0.000   11.000    4.500    0.000    0.000 
#    0.000    0.000    0.000    0.000    0.000    0.000 
#
# Total GULP energy -178141.735499 kJ/mol
# GULP energy per Si atom -5566.929234 kJ/mol
# Density = 2.559006 g / cm^3
# Si number density = 25.648437 Si / 1000 Ang^3
#
#
#
# Elastic Constant Matrix: (Units=GPa)
#
#
# Indices 1 2 3 4 5 6 
#
# 1 116.3915 33.5393 13.2224 0.0000 0.0000 0.0000
# 2 33.5393 151.2482 3.0518 0.0000 0.0000 0.0000
# 3 13.2224 3.0518 59.4411 0.0000 0.0000 0.0000
# 4 0.0000 0.0000 0.0000 -7.2792 0.0000 0.0000
# 5 0.0000 0.0000 0.0000 0.0000 9.5115 0.0000
# 6 0.0000 0.0000 0.0000 0.0000 0.0000 34.0763
#
#
#
# Elastic Compliance Matrix: (Units=1/GPa)
#
#
# Indices 1 2 3 4 5 6 
#
# 1 0.009407 -0.002046 -0.001988 0.000000 0.000000 0.000000
# 2 -0.002046 0.007063 0.000092 0.000000 0.000000 0.000000
# 3 -0.001988 0.000092 0.017261 0.000000 0.000000 0.000000
# 4 0.000000 0.000000 0.000000 -0.137378 0.000000 0.000000
# 5 0.000000 0.000000 0.000000 0.000000 0.105136 0.000000
# 6 0.000000 0.000000 0.000000 0.000000 0.000000 0.029346
#
#
# Mechanical properties :
#
#
# Convention : Reuss Voigt Hill
#
# Bulk Modulus (GPa) = 38.68577 47.41199 43.04888
# Shear Modulus (GPa) = 105.63368 25.74622 65.68995
#
# Velocity S-wave (km/s) = 6.42453 3.17174 5.06629
# Velocity P-wave (km/s) = 8.37548 5.65143 7.14449
#
# Compressibility (1/GPa) = 0.02584930
#
# Stress axis : x y z
#
# Youngs Moduli (GPa) = 106.30355 141.57365 57.93497
#
# Poissons Ratio (x) = 0.28965 0.11515
# Poissons Ratio (y) = 0.21749 -0.00536
# Poissons Ratio (z) = 0.21128 -0.01309
#
# Static dielectric constant tensor:
#      x y z
#    x 2.056310 0.000000 0.000000 
#    y 0.000000 2.123010 0.000000 
#    z 0.000000 0.000000 2.081240 
# 
# From -- ./inp_files/30907.got.cif
#   From: 2010.05.17/outbox.cif.g08.bks.cpg/sg73_16_cif.got.tgz:30907.got - 2010.06.03 17:35:07.
