data_PCOD9530101
_publ_section_title
;
Structure prediction by ZEFSAII (Michael W. Deem and Ramdas Pophale) SiO2 
 PCOD9530101
Probable space group: I B C A 
;
_chemical_formula_sum "Si O2"
_cell_formula_units_Z 80
_cell_length_a 23.778445
_cell_length_b 13.666285
_cell_length_c 13.415176
_cell_angle_alpha 90.000000
_cell_angle_beta 90.000000
_cell_angle_gamma 90.000000
_cell_volume 4359.435922
_symmetry_space_group_name_H-M "I B C A "
_symmetry_group_IT_number 73
_symmetry_cell_setting 'orthorhombic'
loop_
_space_group_symop_operation_xyz
x,y,z
-x,1/2-y,z
x,-y,1/2-z
1/2-x,y,-z
-x,-y,-z
x,1/2+y,-z
-x,y,1/2+z
1/2+x,-y,z
1/2+x,1/2+y,1/2+z
1/2-x,-y,1/2+z
1/2+x,1/2-y,-z
-x,1/2+y,1/2-z
1/2-x,1/2-y,1/2-z
1/2+x,y,1/2-z
1/2-x,1/2+y,z
x,1/2-y,1/2+z
loop_
_atom_site_type_symbol
_atom_site_label
_atom_site_fract_x
_atom_site_fract_y
_atom_site_fract_z
Si Si1 0.331507 0.470496 0.864366
Si Si2 0.170417 0.265541 0.218299
Si Si3 0.746695 0.150235 0.613112
Si Si4 0.045384 0.333579 0.252339
Si Si5 0.953227 0.500846 0.913628
O O1 0.350305 0.500000 0.750000
O O2 0.315156 0.357389 0.854850
O O3 0.279694 0.541666 0.886027
O O4 0.385720 0.487862 0.934582
O O5 0.193722 0.167874 0.167258
O O6 0.203788 0.285908 0.320403
O O7 0.105148 0.280028 0.238779
O O8 0.750000 0.182921 0.500000
O O9 0.035809 0.407386 0.159903
O O10 0.043106 0.400972 0.350351
O O11 0.000000 0.250000 0.256151
O O12 0.000000 0.500000 0.000000
#
# Coordination Sequence:
#
# PCOD9530101 Si02
#       5
#    16  16  16  16  16
#     4   9  16  37  59  73 111 155 177 225 298 337
#     4   9  19  38  57  79 115 153 181 230 297 341
#     4  10  19  32  59  83 107 144 198 233 269 347
#     4  10  20  39  60  81 120 154 185 241 297 338
#     4  10  19  36  60  84 109 152 198 227 282 357
#
# _framework density 18.350998000000001
#
# number of rings (size 3 to 8) (size 9 to 14) (size 15 to 20)
#    0.000    2.400    6.000    0.000    0.000    3.200 
#    7.200    0.000   22.000    0.000    0.000    0.000 
#    0.000    0.000    0.000    0.000    0.000    0.000 
#
# Total GULP energy -222739.054241 kJ/mol
# GULP energy per Si atom -5568.476356 kJ/mol
# Density = 1.830923 g / cm^3
# Si number density = 18.350998 Si / 1000 Ang^3
#
#
#
# Elastic Constant Matrix: (Units=GPa)
#
#
# Indices 1 2 3 4 5 6 
#
# 1 137.9713 71.2431 65.3003 0.0000 0.0000 0.0000
# 2 71.2431 82.3174 18.6766 0.0000 0.0000 0.0000
# 3 65.3003 18.6766 82.7353 0.0000 0.0000 0.0000
# 4 0.0000 0.0000 0.0000 0.7904 0.0000 0.0000
# 5 0.0000 0.0000 0.0000 0.0000 28.9613 0.0000
# 6 0.0000 0.0000 0.0000 0.0000 0.0000 33.9132
#
#
#
# Elastic Compliance Matrix: (Units=1/GPa)
#
#
# Indices 1 2 3 4 5 6 
#
# 1 0.021951 -0.015881 -0.013741 0.000000 0.000000 0.000000
# 2 -0.015881 0.024293 0.007050 0.000000 0.000000 0.000000
# 3 -0.013741 0.007050 0.021340 0.000000 0.000000 0.000000
# 4 0.000000 0.000000 0.000000 1.265244 0.000000 0.000000
# 5 0.000000 0.000000 0.000000 0.000000 0.034529 0.000000
# 6 0.000000 0.000000 0.000000 0.000000 0.000000 0.029487
#
#
# Mechanical properties :
#
#
# Convention : Reuss Voigt Hill
#
# Bulk Modulus (GPa) = 44.55864 68.16265 56.36065
# Shear Modulus (GPa) = 3.44954 22.58658 13.01806
#
# Velocity S-wave (km/s) = 1.37253 3.51210 2.66633
# Velocity P-wave (km/s) = 5.18129 7.32604 6.34495
#
# Compressibility (1/GPa) = 0.02244233
#
# Stress axis : x y z
#
# Youngs Moduli (GPa) = 45.55535 41.16461 46.85986
#
# Poissons Ratio (x) = 0.65372 0.64388
# Poissons Ratio (y) = 0.72345 -0.33038
# Poissons Ratio (z) = 0.62596 -0.29022
#
# Static dielectric constant tensor:
#      x y z
#    x 1.665330 0.000000 0.000000 
#    y 0.000000 1.655610 0.000000 
#    z 0.000000 0.000000 1.645770 
# 
# From -- ./inp_files/13434.got.cif
#   From: 2010.05.17/outbox.cif.g08.bks.cpg/sg73_7_cif.got.tgz:13434.got - 2010.06.03 17:35:07.
