data_PCOD9530439
_publ_section_title
;
Structure prediction by ZEFSAII (Michael W. Deem and Ramdas Pophale) SiO2 
 PCOD9530439
Probable space group: I B C A 
;
_chemical_formula_sum "Si O2"
_cell_formula_units_Z 88
_cell_length_a 22.627409
_cell_length_b 9.725984
_cell_length_c 21.383631
_cell_angle_alpha 90.000000
_cell_angle_beta 90.000000
_cell_angle_gamma 90.000000
_cell_volume 4705.977315
_symmetry_space_group_name_H-M "I B C A "
_symmetry_group_IT_number 73
_symmetry_cell_setting 'orthorhombic'
loop_
_space_group_symop_operation_xyz
x,y,z
-x,1/2-y,z
x,-y,1/2-z
1/2-x,y,-z
-x,-y,-z
x,1/2+y,-z
-x,y,1/2+z
1/2+x,-y,z
1/2+x,1/2+y,1/2+z
1/2-x,-y,1/2+z
1/2+x,1/2-y,-z
-x,1/2+y,1/2-z
1/2-x,1/2-y,1/2-z
1/2+x,y,1/2-z
1/2-x,1/2+y,z
x,1/2-y,1/2+z
loop_
_atom_site_type_symbol
_atom_site_label
_atom_site_fract_x
_atom_site_fract_y
_atom_site_fract_z
Si Si1 0.311017 0.167677 0.747668
Si Si2 0.091336 0.822503 0.347254
Si Si3 0.064810 0.938427 0.068080
Si Si4 0.000000 0.750000 0.750651
Si Si5 0.069513 0.450332 0.076528
Si Si6 0.901877 0.306169 0.845920
O O1 0.250000 0.250000 0.750000
O O2 0.350473 0.207438 0.807746
O O3 0.348698 0.226933 0.688772
O O4 0.305486 0.000000 0.750000
O O5 0.039581 0.845359 0.295718
O O6 0.071455 0.696812 0.390540
O O7 0.100360 0.953247 0.390415
O O8 0.072666 0.792533 0.100346
O O9 0.085141 0.938427 0.996426
O O10 0.996992 0.988647 0.074490
O O11 0.953043 0.673975 0.706342
O O12 0.109280 0.551001 0.118949
#
# Coordination Sequence:
#
# PCOD9530439 Si02
#       6
#    16  16  16   8  16  16
#     4  11  26  44  66  88 116 157 202 260 314 360
#     4  11  22  37  60  88 125 158 199 253 299 363
#     4  11  20  38  56  91 133 165 199 239 292 359
#     4  10  20  32  56  86 124 154 196 232 314 350
#     4  11  22  34  60  93 127 167 201 235 292 369
#     4  11  22  37  60  88 125 158 199 253 299 363
#
# _framework density 18.699622999999999
#
# number of rings (size 3 to 8) (size 9 to 14) (size 15 to 20)
#    0.000    1.091    5.455    1.091    2.545    6.545 
#    0.000    0.000    0.000    6.545    0.000    0.000 
#    0.000    0.000    0.000    0.000    0.000    0.000 
#
# Total GULP energy -245664.344690 kJ/mol
# GULP energy per Si atom -5583.280561 kJ/mol
# Density = 1.865706 g / cm^3
# Si number density = 18.699623 Si / 1000 Ang^3
#
#
#
# Elastic Constant Matrix: (Units=GPa)
#
#
# Indices 1 2 3 4 5 6 
#
# 1 89.9040 13.5299 36.5808 0.0000 0.0000 0.0000
# 2 13.5299 83.4939 37.3656 0.0000 0.0000 0.0000
# 3 36.5808 37.3656 137.9685 0.0000 0.0000 0.0000
# 4 0.0000 0.0000 0.0000 20.6425 0.0000 0.0000
# 5 0.0000 0.0000 0.0000 0.0000 1.8494 0.0000
# 6 0.0000 0.0000 0.0000 0.0000 0.0000 24.4369
#
#
#
# Elastic Compliance Matrix: (Units=1/GPa)
#
#
# Indices 1 2 3 4 5 6 
#
# 1 0.012496 -0.000617 -0.003146 0.000000 0.000000 0.000000
# 2 -0.000617 0.013659 -0.003536 0.000000 0.000000 0.000000
# 3 -0.003146 -0.003536 0.009040 0.000000 0.000000 0.000000
# 4 0.000000 0.000000 0.000000 0.048444 0.000000 0.000000
# 5 0.000000 0.000000 0.000000 0.000000 0.540703 0.000000
# 6 0.000000 0.000000 0.000000 0.000000 0.000000 0.040922
#
#
# Mechanical properties :
#
#
# Convention : Reuss Voigt Hill
#
# Bulk Modulus (GPa) = 48.54982 54.03542 51.29262
# Shear Modulus (GPa) = 7.28092 24.31179 15.79635
#
# Velocity S-wave (km/s) = 1.97537 3.60963 2.90960
# Velocity P-wave (km/s) = 5.58768 6.80675 6.22712
#
# Compressibility (1/GPa) = 0.02059740
#
# Stress axis : x y z
#
# Youngs Moduli (GPa) = 80.02614 73.21070 110.62271
#
# Poissons Ratio (x) = 0.04517 0.34803
# Poissons Ratio (y) = 0.04937 0.39113
# Poissons Ratio (z) = 0.25177 0.25885
#
# Static dielectric constant tensor:
#      x y z
#    x 1.645190 0.000000 0.000000 
#    y 0.000000 1.727130 0.000000 
#    z 0.000000 0.000000 1.654830 
# 
# From -- ./inp_files/6263.got.cif
#   From: 2010.05.17/outbox.cif.g08.bks.cpg/sg73_4_cif.got.tgz:6263.got - 2010.06.03 17:35:07.
