data_PCOD9530104
_publ_section_title
;
Structure prediction by ZEFSAII (Michael W. Deem and Ramdas Pophale) SiO2 
 PCOD9530104
Probable space group: I B C A 
;
_chemical_formula_sum "Si O2"
_cell_formula_units_Z 72
_cell_length_a 19.017335
_cell_length_b 9.007839
_cell_length_c 16.129039
_cell_angle_alpha 90.000000
_cell_angle_beta 90.000000
_cell_angle_gamma 90.000000
_cell_volume 2762.986508
_symmetry_space_group_name_H-M "I B C A "
_symmetry_group_IT_number 73
_symmetry_cell_setting 'orthorhombic'
loop_
_space_group_symop_operation_xyz
x,y,z
-x,1/2-y,z
x,-y,1/2-z
1/2-x,y,-z
-x,-y,-z
x,1/2+y,-z
-x,y,1/2+z
1/2+x,-y,z
1/2+x,1/2+y,1/2+z
1/2-x,-y,1/2+z
1/2+x,1/2-y,-z
-x,1/2+y,1/2-z
1/2-x,1/2-y,1/2-z
1/2+x,y,1/2-z
1/2-x,1/2+y,z
x,1/2-y,1/2+z
loop_
_atom_site_type_symbol
_atom_site_label
_atom_site_fract_x
_atom_site_fract_y
_atom_site_fract_z
Si Si1 0.846224 0.222946 0.469662
Si Si2 0.712560 0.500000 0.250000
Si Si3 0.000000 0.250000 0.511138
Si Si4 0.831340 0.300050 0.166185
Si Si5 0.250000 0.036963 0.500000
Si Si6 0.482404 0.409263 0.325425
O O1 0.836302 0.234290 0.568795
O O2 0.798372 0.360031 0.440254
O O3 0.807068 0.068112 0.454238
O O4 0.929308 0.236898 0.456957
O O5 0.765425 0.396670 0.195657
O O6 0.668249 0.363921 0.291446
O O7 0.995173 0.389940 0.577116
O O8 0.898342 0.408245 0.175887
O O9 0.500000 0.250000 0.292206
O O10 0.513233 0.500000 0.250000
#
# Coordination Sequence:
#
# PCOD9530104 Si02
#       6
#    16   8   8  16   8  16
#     4  10  20  39  55  85 103 152 179 245 274 333
#     4  10  20  30  50  84 106 150 164 224 260 346
#     4   8  20  34  62  74 118 140 186 226 280 322
#     4  10  19  33  52  76 114 135 183 210 274 321
#     4  10  22  36  64  76 110 140 198 234 294 320
#     4   9  18  32  51  72 104 148 174 212 255 328
#
# _framework density 26.058758000000001
#
# number of rings (size 3 to 8) (size 9 to 14) (size 15 to 20)
#    0.667    1.778    1.111    1.333    1.556    0.889 
#    0.000    0.000    9.778    0.000    0.000    0.000 
#    0.000    0.000    0.000    0.000    0.000    0.000 
#
# Total GULP energy -200425.028524 kJ/mol
# GULP energy per Si atom -5567.361903 kJ/mol
# Density = 2.599945 g / cm^3
# Si number density = 26.058758 Si / 1000 Ang^3
#
#
#
# Elastic Constant Matrix: (Units=GPa)
#
#
# Indices 1 2 3 4 5 6 
#
# 1 156.1244 20.3086 -6.1724 0.0000 0.0000 0.0000
# 2 20.3086 127.2822 15.5545 0.0000 0.0000 0.0000
# 3 -6.1724 15.5545 42.1748 0.0000 0.0000 0.0000
# 4 0.0000 0.0000 0.0000 26.0139 0.0000 0.0000
# 5 0.0000 0.0000 0.0000 0.0000 4.9288 0.0000
# 6 0.0000 0.0000 0.0000 0.0000 0.0000 24.2066
#
#
#
# Elastic Compliance Matrix: (Units=1/GPa)
#
#
# Indices 1 2 3 4 5 6 
#
# 1 0.006621 -0.001230 0.001423 0.000000 0.000000 0.000000
# 2 -0.001230 0.008456 -0.003299 0.000000 0.000000 0.000000
# 3 0.001423 -0.003299 0.025136 0.000000 0.000000 0.000000
# 4 0.000000 0.000000 0.000000 0.038441 0.000000 0.000000
# 5 0.000000 0.000000 0.000000 0.000000 0.202890 0.000000
# 6 0.000000 0.000000 0.000000 0.000000 0.000000 0.041311
#
#
# Mechanical properties :
#
#
# Convention : Reuss Voigt Hill
#
# Bulk Modulus (GPa) = 29.41123 42.77364 36.09243
# Shear Modulus (GPa) = 14.68854 30.75590 22.72222
#
# Velocity S-wave (km/s) = 2.37675 3.43921 2.95610
# Velocity P-wave (km/s) = 4.34084 5.67634 5.05291
#
# Compressibility (1/GPa) = 0.03400062
#
# Stress axis : x y z
#
# Youngs Moduli (GPa) = 151.02447 118.25933 39.78406
#
# Poissons Ratio (x) = 0.14550 -0.05661
# Poissons Ratio (y) = 0.18582 0.13124
# Poissons Ratio (z) = -0.21488 0.39011
#
# Static dielectric constant tensor:
#      x y z
#    x 1.407170 0.000000 0.000000 
#    y 0.000000 2.112420 0.000000 
#    z 0.000000 0.000000 2.090180 
# 
# From -- ./inp_files/5486.got.cif
#   From: 2010.05.17/outbox.cif.g08.bks.cpg/sg73_3_cif.got.tgz:5486.got - 2010.06.03 17:35:07.
