data_PCOD9530790
_publ_section_title
;
Structure prediction by ZEFSAII (Michael W. Deem and Ramdas Pophale) SiO2 
 PCOD9530790
Probable space group: I B C A 
;
_chemical_formula_sum "Si O2"
_cell_formula_units_Z 96
_cell_length_a 16.755710
_cell_length_b 16.329345
_cell_length_c 18.316997
_cell_angle_alpha 90.000000
_cell_angle_beta 90.000000
_cell_angle_gamma 90.000000
_cell_volume 5011.709324
_symmetry_space_group_name_H-M "I B C A "
_symmetry_group_IT_number 73
_symmetry_cell_setting 'orthorhombic'
loop_
_space_group_symop_operation_xyz
x,y,z
-x,1/2-y,z
x,-y,1/2-z
1/2-x,y,-z
-x,-y,-z
x,1/2+y,-z
-x,y,1/2+z
1/2+x,-y,z
1/2+x,1/2+y,1/2+z
1/2-x,-y,1/2+z
1/2+x,1/2-y,-z
-x,1/2+y,1/2-z
1/2-x,1/2-y,1/2-z
1/2+x,y,1/2-z
1/2-x,1/2+y,z
x,1/2-y,1/2+z
loop_
_atom_site_type_symbol
_atom_site_label
_atom_site_fract_x
_atom_site_fract_y
_atom_site_fract_z
Si Si1 0.588448 0.581034 0.197505
Si Si2 0.360038 0.392388 0.183283
Si Si3 0.263635 0.626931 0.079442
Si Si4 0.218990 0.436263 0.080467
Si Si5 0.907041 0.933018 0.840509
Si Si6 0.327825 0.218848 0.206175
O O1 0.597782 0.500000 0.250000
O O2 0.633354 0.576317 0.118907
O O3 0.495369 0.593529 0.179955
O O4 0.623989 0.655521 0.244181
O O5 0.277943 0.397737 0.139981
O O6 0.353942 0.416396 0.268233
O O7 0.409870 0.468057 0.148621
O O8 0.381931 0.297110 0.183941
O O9 0.232415 0.533659 0.080081
O O10 0.357533 0.615661 0.098749
O O11 0.210986 0.675744 0.136622
O O12 0.250000 0.663125 0.000000
O O13 0.250000 0.407985 0.000000
O O14 0.250000 0.250000 0.250000
#
# Coordination Sequence:
#
# PCOD9530790 Si02
#       6
#    16  16  16  16  16  16
#     4  12  22  39  65  94 122 164 211 258 314 374
#     4  10  20  38  59  88 123 160 201 259 303 356
#     4  10  21  39  61  89 124 168 210 255 313 377
#     4  10  21  38  62  88 121 167 216 245 302 389
#     4  10  21  40  62  90 126 160 205 260 314 364
#     4  12  22  36  63  97 118 162 216 262 296 376
#
# _framework density 19.155142000000001
#
# number of rings (size 3 to 8) (size 9 to 14) (size 15 to 20)
#    0.000    1.333    6.667    0.000    2.333    1.333 
#    0.000    9.167    0.000    0.000    8.667    0.000 
#    0.000    0.000    0.000    0.000    0.000    0.000 
#
# Total GULP energy -267308.703522 kJ/mol
# GULP energy per Si atom -5568.931323 kJ/mol
# Density = 1.911154 g / cm^3
# Si number density = 19.155142 Si / 1000 Ang^3
#
#
#
# Elastic Constant Matrix: (Units=GPa)
#
#
# Indices 1 2 3 4 5 6 
#
# 1 101.2416 40.8000 62.4521 0.0000 0.0000 0.0000
# 2 40.8000 100.1341 32.3935 0.0000 0.0000 0.0000
# 3 62.4521 32.3935 125.0433 0.0000 0.0000 0.0000
# 4 0.0000 0.0000 0.0000 12.0717 0.0000 0.0000
# 5 0.0000 0.0000 0.0000 0.0000 17.2248 0.0000
# 6 0.0000 0.0000 0.0000 0.0000 0.0000 13.8751
#
#
#
# Elastic Compliance Matrix: (Units=1/GPa)
#
#
# Indices 1 2 3 4 5 6 
#
# 1 0.015762 -0.004230 -0.006777 0.000000 0.000000 0.000000
# 2 -0.004230 0.012035 -0.001005 0.000000 0.000000 0.000000
# 3 -0.006777 -0.001005 0.011642 0.000000 0.000000 0.000000
# 4 0.000000 0.000000 0.000000 0.082838 0.000000 0.000000
# 5 0.000000 0.000000 0.000000 0.000000 0.058056 0.000000
# 6 0.000000 0.000000 0.000000 0.000000 0.000000 0.072072
#
#
# Mechanical properties :
#
#
# Convention : Reuss Voigt Hill
#
# Bulk Modulus (GPa) = 64.86720 66.41226 65.63973
# Shear Modulus (GPa) = 17.75771 21.35254 19.55513
#
# Velocity S-wave (km/s) = 3.04805 3.34236 3.19859
# Velocity P-wave (km/s) = 6.80625 7.04565 6.92698
#
# Compressibility (1/GPa) = 0.01541611
#
# Stress axis : x y z
#
# Youngs Moduli (GPa) = 63.44248 83.08836 85.89513
#
# Poissons Ratio (x) = 0.35148 0.58207
# Poissons Ratio (y) = 0.26837 0.08633
# Poissons Ratio (z) = 0.42992 0.08351
#
# Static dielectric constant tensor:
#      x y z
#    x 1.692970 0.000000 0.000000 
#    y 0.000000 1.730370 0.000000 
#    z 0.000000 0.000000 1.700330 
# 
# From -- ./inp_files/22556.got.cif
#   From: 2010.05.17/outbox.cif.g08.bks.cpg/sg73_12_cif.got.tgz:22556.got - 2010.06.03 17:35:07.
