data_PCOD9530914
_publ_section_title
;
Structure prediction by ZEFSAII (Michael W. Deem and Ramdas Pophale) SiO2 
 PCOD9530914
Probable space group: I B C A 
;
_chemical_formula_sum "Si O2"
_cell_formula_units_Z 112
_cell_length_a 31.769186
_cell_length_b 13.854883
_cell_length_c 11.158224
_cell_angle_alpha 90.000000
_cell_angle_beta 90.000000
_cell_angle_gamma 90.000000
_cell_volume 4911.385521
_symmetry_space_group_name_H-M "I B C A "
_symmetry_group_IT_number 73
_symmetry_cell_setting 'orthorhombic'
loop_
_space_group_symop_operation_xyz
x,y,z
-x,1/2-y,z
x,-y,1/2-z
1/2-x,y,-z
-x,-y,-z
x,1/2+y,-z
-x,y,1/2+z
1/2+x,-y,z
1/2+x,1/2+y,1/2+z
1/2-x,-y,1/2+z
1/2+x,1/2-y,-z
-x,1/2+y,1/2-z
1/2-x,1/2-y,1/2-z
1/2+x,y,1/2-z
1/2-x,1/2+y,z
x,1/2-y,1/2+z
loop_
_atom_site_type_symbol
_atom_site_label
_atom_site_fract_x
_atom_site_fract_y
_atom_site_fract_z
Si Si1 0.131818 0.737247 0.650991
Si Si2 0.726379 0.752658 0.878307
Si Si3 0.997369 0.896510 0.207138
Si Si4 0.440314 0.749969 0.199089
Si Si5 0.565671 0.395026 0.512341
Si Si6 0.280452 0.519296 0.891706
Si Si7 0.375297 0.464509 0.614738
O O1 0.180233 0.707697 0.641473
O O2 0.109389 0.736997 0.781607
O O3 0.101653 0.663236 0.583610
O O4 0.127883 0.848653 0.608224
O O5 0.750000 0.750000 0.750000
O O6 0.719351 0.865606 0.900074
O O7 0.750000 0.718429 0.000000
O O8 0.032221 0.846542 0.295757
O O9 0.024829 0.914072 0.090123
O O10 0.960757 0.816914 0.194785
O O11 0.981858 0.000000 0.250000
O O12 0.447323 0.820201 0.089673
O O13 0.588106 0.490817 0.465029
O O14 0.269346 0.500000 0.750000
O O15 0.329067 0.489898 0.912906
O O16 0.250000 0.485985 0.000000
O O17 0.383492 0.500000 0.750000
#
# Coordination Sequence:
#
# PCOD9530914 Si02
#       7
#    16  16  16  16  16  16  16
#     4  10  23  40  64  97 131 169 228 271 321 412
#     4  10  23  40  64  98 134 174 220 274 335 394
#     4  10  25  44  64 101 129 165 222 275 333 396
#     4  10  23  43  65  93 135 168 219 270 331 410
#     4  11  24  41  68  93 128 176 215 272 348 389
#     4   9  20  38  59  91 128 170 222 275 326 397
#     4  10  20  39  65  92 124 173 225 263 332 408
#
# _framework density 22.804155000000002
#
# number of rings (size 3 to 8) (size 9 to 14) (size 15 to 20)
#    0.000    2.000    1.429    0.000    6.000    6.857 
#    0.000    0.714    0.000    0.000    0.000    0.000 
#    0.000    0.000    0.000    0.000    0.000    0.000 
#
# Total GULP energy -312557.225149 kJ/mol
# GULP energy per Si atom -5581.379021 kJ/mol
# Density = 2.275225 g / cm^3
# Si number density = 22.804155 Si / 1000 Ang^3
#
#
#
# Elastic Constant Matrix: (Units=GPa)
#
#
# Indices 1 2 3 4 5 6 
#
# 1 146.4446 -6.5773 56.6129 0.0000 0.0000 0.0000
# 2 -6.5773 59.7558 -12.6072 0.0000 0.0000 0.0000
# 3 56.6129 -12.6072 76.5013 0.0000 0.0000 0.0000
# 4 0.0000 0.0000 0.0000 23.8982 0.0000 0.0000
# 5 0.0000 0.0000 0.0000 0.0000 23.9946 0.0000
# 6 0.0000 0.0000 0.0000 0.0000 0.0000 18.3322
#
#
#
# Elastic Compliance Matrix: (Units=1/GPa)
#
#
# Indices 1 2 3 4 5 6 
#
# 1 0.009577 -0.000457 -0.007162 0.000000 0.000000 0.000000
# 2 -0.000457 0.017359 0.003199 0.000000 0.000000 0.000000
# 3 -0.007162 0.003199 0.018899 0.000000 0.000000 0.000000
# 4 0.000000 0.000000 0.000000 0.041844 0.000000 0.000000
# 5 0.000000 0.000000 0.000000 0.000000 0.041676 0.000000
# 6 0.000000 0.000000 0.000000 0.000000 0.000000 0.054549
#
#
# Mechanical properties :
#
#
# Convention : Reuss Voigt Hill
#
# Bulk Modulus (GPa) = 27.03101 39.72872 33.37986
# Shear Modulus (GPa) = 24.38109 29.59655 26.98882
#
# Velocity S-wave (km/s) = 3.27334 3.60649 3.44394
# Velocity P-wave (km/s) = 5.11523 5.89931 5.52121
#
# Compressibility (1/GPa) = 0.03699455
#
# Stress axis : x y z
#
# Youngs Moduli (GPa) = 104.41833 57.60574 52.91220
#
# Poissons Ratio (x) = 0.02633 0.37898
# Poissons Ratio (y) = 0.04772 -0.16926
# Poissons Ratio (z) = 0.74789 -0.18428
#
# Static dielectric constant tensor:
#      x y z
#    x 1.871030 0.000000 0.000000 
#    y 0.000000 1.841280 0.000000 
#    z 0.000000 0.000000 1.947270 
# 
# From -- ./inp_files/14788.got.cif
#   From: 2010.05.17/outbox.cif.g08.bks.cpg/sg73_8_cif.got.tgz:14788.got - 2010.06.03 17:35:07.
