data_PCOD9530024
_publ_section_title
;
Structure prediction by ZEFSAII (Michael W. Deem and Ramdas Pophale) SiO2 
 PCOD9530024
Probable space group: I B C A 
;
_chemical_formula_sum "Si O2"
_cell_formula_units_Z 96
_cell_length_a 16.005532
_cell_length_b 19.476611
_cell_length_c 15.185487
_cell_angle_alpha 90.000000
_cell_angle_beta 90.000000
_cell_angle_gamma 90.000000
_cell_volume 4733.825325
_symmetry_space_group_name_H-M "I B C A "
_symmetry_group_IT_number 73
_symmetry_cell_setting 'orthorhombic'
loop_
_space_group_symop_operation_xyz
x,y,z
-x,1/2-y,z
x,-y,1/2-z
1/2-x,y,-z
-x,-y,-z
x,1/2+y,-z
-x,y,1/2+z
1/2+x,-y,z
1/2+x,1/2+y,1/2+z
1/2-x,-y,1/2+z
1/2+x,1/2-y,-z
-x,1/2+y,1/2-z
1/2-x,1/2-y,1/2-z
1/2+x,y,1/2-z
1/2-x,1/2+y,z
x,1/2-y,1/2+z
loop_
_atom_site_type_symbol
_atom_site_label
_atom_site_fract_x
_atom_site_fract_y
_atom_site_fract_z
Si Si1 0.150999 0.234740 0.245524
Si Si2 0.234945 0.930077 0.617146
Si Si3 0.074879 0.163776 0.882780
Si Si4 0.390407 0.889788 0.874439
Si Si5 0.250000 0.060693 0.500000
Si Si6 0.838044 0.000000 0.750000
Si Si7 0.167146 0.799100 0.452485
O O1 0.250000 0.250000 0.250000
O O2 0.093128 0.289788 0.296797
O O3 0.137627 0.166173 0.302353
O O4 0.136615 0.229529 0.140767
O O5 0.146895 0.893386 0.622717
O O6 0.276852 0.943415 0.710215
O O7 0.300874 0.877422 0.570361
O O8 0.223258 0.004938 0.574036
O O9 0.984318 0.132261 0.894905
O O10 0.098429 0.204165 0.971869
O O11 0.390129 0.964218 0.826797
O O12 0.325236 0.896449 0.955629
O O13 0.250000 0.767624 0.500000
#
# Coordination Sequence:
#
# PCOD9530024 Si02
#       7
#    16  16  16  16   8   8  16
#     4  12  22  43  70  94 128 182 226 280 346 418
#     4  10  18  39  66  93 122 183 218 266 340 405
#     4  11  23  41  67 100 137 168 231 288 339 412
#     4  11  25  41  64 102 137 178 228 286 336 407
#     4  10  22  42  64  92 140 178 228 266 340 422
#     4  10  20  40  64  88 138 178 224 270 328 424
#     4  10  19  39  68  94 124 175 217 263 354 400
#
# _framework density 20.279582000000001
#
# number of rings (size 3 to 8) (size 9 to 14) (size 15 to 20)
#    0.000    1.333    7.500    0.500    0.000    2.667 
#    0.000   10.000    0.000    0.000    0.000    0.000 
#    0.000    0.000    0.000    0.000    0.000    0.000 
#
# Total GULP energy -267518.894735 kJ/mol
# GULP energy per Si atom -5573.310307 kJ/mol
# Density = 2.023342 g / cm^3
# Si number density = 20.279582 Si / 1000 Ang^3
#
#
#
# Elastic Constant Matrix: (Units=GPa)
#
#
# Indices 1 2 3 4 5 6 
#
# 1 134.0505 48.2313 68.9920 0.0000 0.0000 0.0000
# 2 48.2313 54.0216 32.5484 0.0000 0.0000 0.0000
# 3 68.9920 32.5484 153.8811 0.0000 0.0000 0.0000
# 4 0.0000 0.0000 0.0000 23.2363 0.0000 0.0000
# 5 0.0000 0.0000 0.0000 0.0000 17.4284 0.0000
# 6 0.0000 0.0000 0.0000 0.0000 0.0000 26.1294
#
#
#
# Elastic Compliance Matrix: (Units=1/GPa)
#
#
# Indices 1 2 3 4 5 6 
#
# 1 0.012640 -0.009020 -0.003759 0.000000 0.000000 0.000000
# 2 -0.009020 0.027652 -0.001805 0.000000 0.000000 0.000000
# 3 -0.003759 -0.001805 0.008566 0.000000 0.000000 0.000000
# 4 0.000000 0.000000 0.000000 0.043036 0.000000 0.000000
# 5 0.000000 0.000000 0.000000 0.000000 0.057378 0.000000
# 6 0.000000 0.000000 0.000000 0.000000 0.000000 0.038271
#
#
# Mechanical properties :
#
#
# Convention : Reuss Voigt Hill
#
# Bulk Modulus (GPa) = 50.78881 71.27741 61.03311
# Shear Modulus (GPa) = 22.39403 26.17094 24.28248
#
# Velocity S-wave (km/s) = 3.32665 3.59626 3.46408
# Velocity P-wave (km/s) = 6.31302 7.24347 6.79419
#
# Compressibility (1/GPa) = 0.01968938
#
# Stress axis : x y z
#
# Youngs Moduli (GPa) = 79.11297 36.16387 116.74541
#
# Poissons Ratio (x) = 0.32621 0.43887
# Poissons Ratio (y) = 0.71363 0.21068
# Poissons Ratio (z) = 0.29740 0.06526
#
# Static dielectric constant tensor:
#      x y z
#    x 1.744640 0.000000 0.000000 
#    y 0.000000 1.780250 0.000000 
#    z 0.000000 0.000000 1.791600 
# 
# From -- ./inp_files/17105.got.cif
#   From: 2010.05.17/outbox.cif.g08.bks.cpg/sg73_9_cif.got.tgz:17105.got - 2010.06.03 17:35:07.
