data_PCOD9530763
_publ_section_title
;
Structure prediction by ZEFSAII (Michael W. Deem and Ramdas Pophale) SiO2 
 PCOD9530763
Probable space group: I B C A 
;
_chemical_formula_sum "Si O2"
_cell_formula_units_Z 64
_cell_length_a 14.911236
_cell_length_b 8.633708
_cell_length_c 18.883705
_cell_angle_alpha 90.000000
_cell_angle_beta 90.000000
_cell_angle_gamma 90.000000
_cell_volume 2431.074161
_symmetry_space_group_name_H-M "I B C A "
_symmetry_group_IT_number 73
_symmetry_cell_setting 'orthorhombic'
loop_
_space_group_symop_operation_xyz
x,y,z
-x,1/2-y,z
x,-y,1/2-z
1/2-x,y,-z
-x,-y,-z
x,1/2+y,-z
-x,y,1/2+z
1/2+x,-y,z
1/2+x,1/2+y,1/2+z
1/2-x,-y,1/2+z
1/2+x,1/2-y,-z
-x,1/2+y,1/2-z
1/2-x,1/2-y,1/2-z
1/2+x,y,1/2-z
1/2-x,1/2+y,z
x,1/2-y,1/2+z
loop_
_atom_site_type_symbol
_atom_site_label
_atom_site_fract_x
_atom_site_fract_y
_atom_site_fract_z
Si Si1 0.722619 0.399358 0.322753
Si Si2 0.076814 0.367965 0.692100
Si Si3 0.161567 0.588023 0.041695
Si Si4 0.902722 0.112628 0.913322
O O1 0.717962 0.500000 0.250000
O O2 0.664580 0.240789 0.317160
O O3 0.685218 0.503684 0.385939
O O4 0.820933 0.363802 0.355381
O O5 0.085143 0.500000 0.750000
O O6 0.047010 0.468104 0.623636
O O7 0.000000 0.250000 0.713955
O O8 0.085408 0.710248 0.062939
O O9 0.250000 0.657584 0.000000
O O10 0.128736 0.463817 0.985929
#
# Coordination Sequence:
#
# PCOD9530763 Si02
#       4
#    16  16  16  16
#     4  11  22  40  67 100 133 176 236 287 340 415
#     4  12  27  46  68  99 142 186 227 286 358 414
#     4  10  20  37  65 102 141 175 221 290 348 394
#     4  11  22  40  68  99 134 182 232 279 336 412
#
# _framework density 26.325811999999999
#
# number of rings (size 3 to 8) (size 9 to 14) (size 15 to 20)
#    0.000    1.000    0.000    9.750    0.000    3.000 
#    0.000    5.000    0.000    1.500    0.000    0.000 
#    0.000    0.000    0.000    0.000    0.000    0.000 
#
# Total GULP energy -178839.223030 kJ/mol
# GULP energy per Si atom -5588.725720 kJ/mol
# Density = 2.626589 g / cm^3
# Si number density = 26.325812 Si / 1000 Ang^3
#
#
#
# Elastic Constant Matrix: (Units=GPa)
#
#
# Indices 1 2 3 4 5 6 
#
# 1 39.8047 16.3920 -1.2684 0.0000 0.0000 0.0000
# 2 16.3920 178.2594 58.9514 0.0000 0.0000 0.0000
# 3 -1.2684 58.9514 199.2868 0.0000 0.0000 0.0000
# 4 0.0000 0.0000 0.0000 40.4831 0.0000 0.0000
# 5 0.0000 0.0000 0.0000 0.0000 -6.9968 0.0000
# 6 0.0000 0.0000 0.0000 0.0000 0.0000 23.3193
#
#
#
# Elastic Compliance Matrix: (Units=1/GPa)
#
#
# Indices 1 2 3 4 5 6 
#
# 1 0.026282 -0.002740 0.000978 0.000000 0.000000 0.000000
# 2 -0.002740 0.006504 -0.001941 0.000000 0.000000 0.000000
# 3 0.000978 -0.001941 0.005598 0.000000 0.000000 0.000000
# 4 0.000000 0.000000 0.000000 0.024702 0.000000 0.000000
# 5 0.000000 0.000000 0.000000 0.000000 -0.142922 0.000000
# 6 0.000000 0.000000 0.000000 0.000000 0.000000 0.042883
#
#
# Mechanical properties :
#
#
# Convention : Reuss Voigt Hill
#
# Bulk Modulus (GPa) = 32.28192 62.83342 47.55767
# Shear Modulus (GPa) = -260.14595 34.24617 -112.94989
#
# Velocity S-wave (km/s) = -9.95150 3.61066 -6.55727
# Velocity P-wave (km/s) = 10.94322 6.42665 6.26307
#
# Compressibility (1/GPa) = 0.03097709
#
# Stress axis : x y z
#
# Youngs Moduli (GPa) = 38.04849 153.75644 178.62278
#
# Poissons Ratio (x) = 0.42132 -0.17467
# Poissons Ratio (y) = 0.10426 0.34677
# Poissons Ratio (z) = -0.03721 0.29849
#
# Static dielectric constant tensor:
#      x y z
#    x 2.243980 0.000000 0.000000 
#    y 0.000000 2.095100 0.000000 
#    z 0.000000 0.000000 2.058720 
# 
# From -- ./inp_files/5211.got.cif
#   From: 2010.05.17/outbox.cif.g08.bks.cpg/sg73_3_cif.got.tgz:5211.got - 2010.06.03 17:35:07.
