data_PCOD9530026
_publ_section_title
;
Structure prediction by ZEFSAII (Michael W. Deem and Ramdas Pophale) SiO2 
 PCOD9530026
Probable space group: I B C A 
;
_chemical_formula_sum "Si O2"
_cell_formula_units_Z 88
_cell_length_a 18.568210
_cell_length_b 11.096742
_cell_length_c 20.331790
_cell_angle_alpha 90.000000
_cell_angle_beta 90.000000
_cell_angle_gamma 90.000000
_cell_volume 4189.296929
_symmetry_space_group_name_H-M "I B C A "
_symmetry_group_IT_number 73
_symmetry_cell_setting 'orthorhombic'
loop_
_space_group_symop_operation_xyz
x,y,z
-x,1/2-y,z
x,-y,1/2-z
1/2-x,y,-z
-x,-y,-z
x,1/2+y,-z
-x,y,1/2+z
1/2+x,-y,z
1/2+x,1/2+y,1/2+z
1/2-x,-y,1/2+z
1/2+x,1/2-y,-z
-x,1/2+y,1/2-z
1/2-x,1/2-y,1/2-z
1/2+x,y,1/2-z
1/2-x,1/2+y,z
x,1/2-y,1/2+z
loop_
_atom_site_type_symbol
_atom_site_label
_atom_site_fract_x
_atom_site_fract_y
_atom_site_fract_z
Si Si1 0.389084 0.317372 0.920361
Si Si2 0.052629 0.000000 0.250000
Si Si3 0.196902 0.889151 0.798655
Si Si4 0.421524 0.809909 0.938971
Si Si5 0.645740 0.718936 0.804719
Si Si6 0.537108 0.927236 0.111009
O O1 0.339136 0.393222 0.870835
O O2 0.406413 0.183647 0.891615
O O3 0.465544 0.385497 0.925346
O O4 0.370854 0.300070 0.997069
O O5 0.102336 0.895137 0.221497
O O6 0.012837 0.950622 0.313789
O O7 0.270779 0.816793 0.810820
O O8 0.141725 0.817679 0.751821
O O9 0.215887 0.000000 0.750000
O O10 0.500000 0.750000 0.949797
O O11 0.386845 0.746784 0.874969
O O12 0.431982 0.950441 0.919670
#
# Coordination Sequence:
#
# PCOD9530026 Si02
#       6
#    16   8  16  16  16  16
#     4  11  23  39  62  94 124 162 206 265 315 377
#     4  10  18  40  58  82 118 162 202 254 320 362
#     4  11  24  40  65  90 127 162 217 262 308 378
#     4  11  24  39  63  90 128 166 207 257 326 378
#     4  10  23  40  61  88 121 164 208 255 316 368
#     4  10  22  38  62  86 130 156 206 259 321 373
#
# _framework density 21.005911000000001
#
# number of rings (size 3 to 8) (size 9 to 14) (size 15 to 20)
#    0.000    1.455    4.545    0.545    3.818    2.182 
#    0.000    0.000    0.000    4.364    0.000    0.000 
#    0.000    0.000    0.000    0.000    0.000    0.000 
#
# Total GULP energy -245405.379646 kJ/mol
# GULP energy per Si atom -5577.394992 kJ/mol
# Density = 2.095810 g / cm^3
# Si number density = 21.005911 Si / 1000 Ang^3
#
#
#
# Elastic Constant Matrix: (Units=GPa)
#
#
# Indices 1 2 3 4 5 6 
#
# 1 31.5075 -10.8541 18.1707 0.0000 0.0000 0.0000
# 2 -10.8541 33.5326 5.8533 0.0000 0.0000 0.0000
# 3 18.1707 5.8533 166.7278 0.0000 0.0000 0.0000
# 4 0.0000 0.0000 0.0000 27.4110 0.0000 0.0000
# 5 0.0000 0.0000 0.0000 0.0000 12.0936 0.0000
# 6 0.0000 0.0000 0.0000 0.0000 0.0000 17.5467
#
#
#
# Elastic Compliance Matrix: (Units=1/GPa)
#
#
# Indices 1 2 3 4 5 6 
#
# 1 0.039117 0.013489 -0.004737 0.000000 0.000000 0.000000
# 2 0.013489 0.034657 -0.002687 0.000000 0.000000 0.000000
# 3 -0.004737 -0.002687 0.006608 0.000000 0.000000 0.000000
# 4 0.000000 0.000000 0.000000 0.036482 0.000000 0.000000
# 5 0.000000 0.000000 0.000000 0.000000 0.082688 0.000000
# 6 0.000000 0.000000 0.000000 0.000000 0.000000 0.056991
#
#
# Mechanical properties :
#
#
# Convention : Reuss Voigt Hill
#
# Bulk Modulus (GPa) = 10.80937 28.67862 19.74399
# Shear Modulus (GPa) = 18.16532 25.98347 22.07440
#
# Velocity S-wave (km/s) = 2.94389 3.52086 3.24522
# Velocity P-wave (km/s) = 4.08808 5.49644 4.84372
#
# Compressibility (1/GPa) = 0.09251236
#
# Stress axis : x y z
#
# Youngs Moduli (GPa) = 25.56439 28.85434 151.32383
#
# Poissons Ratio (x) = -0.38920 0.71677
# Poissons Ratio (y) = -0.34483 0.40657
# Poissons Ratio (z) = 0.12109 0.07752
#
# Static dielectric constant tensor:
#      x y z
#    x 1.723300 0.000000 0.000000 
#    y 0.000000 1.762410 0.000000 
#    z 0.000000 0.000000 1.801820 
# 
# From -- ./inp_files/11904.got.cif
#   From: 2010.05.17/outbox.cif.g08.bks.cpg/sg73_6_cif.got.tgz:11904.got - 2010.06.03 17:35:07.
