data_PCOD9530781
_publ_section_title
;
Structure prediction by ZEFSAII (Michael W. Deem and Ramdas Pophale) SiO2 
 PCOD9530781
Probable space group: I B C A 
;
_chemical_formula_sum "Si O2"
_cell_formula_units_Z 88
_cell_length_a 16.382768
_cell_length_b 20.902579
_cell_length_c 13.131631
_cell_angle_alpha 90.000000
_cell_angle_beta 90.000000
_cell_angle_gamma 90.000000
_cell_volume 4496.823327
_symmetry_space_group_name_H-M "I B C A "
_symmetry_group_IT_number 73
_symmetry_cell_setting 'orthorhombic'
loop_
_space_group_symop_operation_xyz
x,y,z
-x,1/2-y,z
x,-y,1/2-z
1/2-x,y,-z
-x,-y,-z
x,1/2+y,-z
-x,y,1/2+z
1/2+x,-y,z
1/2+x,1/2+y,1/2+z
1/2-x,-y,1/2+z
1/2+x,1/2-y,-z
-x,1/2+y,1/2-z
1/2-x,1/2-y,1/2-z
1/2+x,y,1/2-z
1/2-x,1/2+y,z
x,1/2-y,1/2+z
loop_
_atom_site_type_symbol
_atom_site_label
_atom_site_fract_x
_atom_site_fract_y
_atom_site_fract_z
Si Si1 0.441537 0.928864 0.202709
Si Si2 0.397321 0.141714 0.716373
Si Si3 0.890575 0.784544 0.909899
Si Si4 0.730148 0.573852 0.282543
Si Si5 0.250000 0.126388 0.000000
Si Si6 0.438996 0.654327 0.519397
O O1 0.525528 0.897635 0.240181
O O2 0.356750 0.899589 0.244041
O O3 0.436919 0.912303 0.082046
O O4 0.442660 0.000000 0.250000
O O5 0.395951 0.204263 0.788434
O O6 0.310503 0.107849 0.737351
O O7 0.415103 0.149481 0.597792
O O8 0.882519 0.709936 0.933107
O O9 0.971541 0.815185 0.961369
O O10 0.819479 0.826900 0.957576
O O11 0.735105 0.500000 0.250000
O O12 0.727864 0.582695 0.403908
#
# Coordination Sequence:
#
# PCOD9530781 Si02
#       6
#    16  16  16  16   8  16
#     4  10  22  38  56  84 116 147 188 234 284 340
#     4  10  21  38  59  83 113 150 191 231 282 344
#     4   9  21  37  56  84 113 149 190 234 285 339
#     4  10  22  37  57  84 113 149 193 236 281 339
#     4  10  20  38  58  80 116 154 190 236 288 334
#     4  10  21  37  59  83 114 150 186 235 287 332
#
# _framework density 19.569369999999999
#
# number of rings (size 3 to 8) (size 9 to 14) (size 15 to 20)
#    0.000    2.182    0.000    1.636    0.000   13.091 
#    0.000    3.636    0.000    0.000    0.000    0.000 
#    0.000    0.000    0.000    0.000    0.000    0.000 
#
# Total GULP energy -245138.205583 kJ/mol
# GULP energy per Si atom -5571.322854 kJ/mol
# Density = 1.952483 g / cm^3
# Si number density = 19.569370 Si / 1000 Ang^3
#
#
#
# Elastic Constant Matrix: (Units=GPa)
#
#
# Indices 1 2 3 4 5 6 
#
# 1 81.5804 3.2945 13.9944 0.0000 0.0000 0.0000
# 2 3.2945 65.6541 51.4555 0.0000 0.0000 0.0000
# 3 13.9944 51.4555 170.2541 0.0000 0.0000 0.0000
# 4 0.0000 0.0000 0.0000 11.7403 0.0000 0.0000
# 5 0.0000 0.0000 0.0000 0.0000 41.7323 0.0000
# 6 0.0000 0.0000 0.0000 0.0000 0.0000 -238.8186
#
#
#
# Elastic Compliance Matrix: (Units=1/GPa)
#
#
# Indices 1 2 3 4 5 6 
#
# 1 0.012436 0.000232 -0.001092 0.000000 0.000000 0.000000
# 2 0.000232 0.019963 -0.006053 0.000000 0.000000 0.000000
# 3 -0.001092 -0.006053 0.007793 0.000000 0.000000 0.000000
# 4 0.000000 0.000000 0.000000 0.085176 0.000000 0.000000
# 5 0.000000 0.000000 0.000000 0.000000 0.023962 0.000000
# 6 0.000000 0.000000 0.000000 0.000000 0.000000 -0.004187
#
#
# Mechanical properties :
#
#
# Convention : Reuss Voigt Hill
#
# Bulk Modulus (GPa) = 37.92742 50.55306 44.24024
# Shear Modulus (GPa) = 29.80494 -20.48624 4.65935
#
# Velocity S-wave (km/s) = 3.90685 -3.23902 1.54470
# Velocity P-wave (km/s) = 6.30669 3.44971 5.08305
#
# Compressibility (1/GPa) = 0.02636615
#
# Stress axis : x y z
#
# Youngs Moduli (GPa) = 80.41266 50.09194 128.32684
#
# Poissons Ratio (x) = -0.01162 0.14017
# Poissons Ratio (y) = -0.01866 0.77670
# Poissons Ratio (z) = 0.08784 0.30318
#
# Static dielectric constant tensor:
#      x y z
#    x 1.733970 0.000000 0.000000 
#    y 0.000000 1.703940 0.000000 
#    z 0.000000 0.000000 1.695880 
# 
# From -- ./inp_files/10935.got.cif
#   From: 2010.05.17/outbox.cif.g08.bks.cpg/sg73_6_cif.got.tgz:10935.got - 2010.06.03 17:35:07.
