data_PCOD9530764
_publ_section_title
;
Structure prediction by ZEFSAII (Michael W. Deem and Ramdas Pophale) SiO2 
 PCOD9530764
Probable space group: I B C A 
;
_chemical_formula_sum "Si O2"
_cell_formula_units_Z 80
_cell_length_a 19.943079
_cell_length_b 13.139223
_cell_length_c 13.204002
_cell_angle_alpha 90.000000
_cell_angle_beta 90.000000
_cell_angle_gamma 90.000000
_cell_volume 3459.931293
_symmetry_space_group_name_H-M "I B C A "
_symmetry_group_IT_number 73
_symmetry_cell_setting 'orthorhombic'
loop_
_space_group_symop_operation_xyz
x,y,z
-x,1/2-y,z
x,-y,1/2-z
1/2-x,y,-z
-x,-y,-z
x,1/2+y,-z
-x,y,1/2+z
1/2+x,-y,z
1/2+x,1/2+y,1/2+z
1/2-x,-y,1/2+z
1/2+x,1/2-y,-z
-x,1/2+y,1/2-z
1/2-x,1/2-y,1/2-z
1/2+x,y,1/2-z
1/2-x,1/2+y,z
x,1/2-y,1/2+z
loop_
_atom_site_type_symbol
_atom_site_label
_atom_site_fract_x
_atom_site_fract_y
_atom_site_fract_z
Si Si1 0.602791 0.603818 0.188062
Si Si2 0.208222 0.229040 0.413914
Si Si3 0.539548 0.120026 0.243246
Si Si4 0.567653 0.810014 0.483155
Si Si5 0.823918 0.692183 0.302962
O O1 0.615246 0.500000 0.250000
O O2 0.535630 0.656341 0.232938
O O3 0.586358 0.605281 0.067771
O O4 0.660730 0.686484 0.201769
O O5 0.250000 0.171360 0.500000
O O6 0.135966 0.255459 0.462674
O O7 0.239073 0.317104 0.621931
O O8 0.195112 0.165275 0.312287
O O9 0.602097 0.146495 0.316757
O O10 0.532422 0.000000 0.250000
O O11 0.553607 0.145851 0.127191
O O12 0.500000 0.750000 0.513302
#
# Coordination Sequence:
#
# PCOD9530764 Si02
#       5
#    16  16  16  16  16
#     4  11  23  39  62  96 130 169 218 271 323 392
#     4  10  20  37  65  93 120 169 219 264 323 406
#     4  10  22  39  62  98 132 169 220 272 325 389
#     4  11  22  41  70  94 130 178 224 269 339 399
#     4  10  20  40  64  88 133 169 215 270 330 384
#
# _framework density 23.121846999999999
#
# number of rings (size 3 to 8) (size 9 to 14) (size 15 to 20)
#    0.000    1.600    2.000    4.200    0.000    3.200 
#    3.600    9.000    0.000    1.200    0.000    0.000 
#    0.000    0.000    0.000    0.000    0.000    0.000 
#
# Total GULP energy -222734.563684 kJ/mol
# GULP energy per Si atom -5568.364092 kJ/mol
# Density = 2.306922 g / cm^3
# Si number density = 23.121847 Si / 1000 Ang^3
#
#
#
# Elastic Constant Matrix: (Units=GPa)
#
#
# Indices 1 2 3 4 5 6 
#
# 1 157.7055 5.8046 40.0505 0.0000 0.0000 0.0000
# 2 5.8046 27.0507 8.2840 0.0000 0.0000 0.0000
# 3 40.0505 8.2840 132.5592 0.0000 0.0000 0.0000
# 4 0.0000 0.0000 0.0000 22.0915 0.0000 0.0000
# 5 0.0000 0.0000 0.0000 0.0000 9.0978 0.0000
# 6 0.0000 0.0000 0.0000 0.0000 0.0000 12.1717
#
#
#
# Elastic Compliance Matrix: (Units=1/GPa)
#
#
# Indices 1 2 3 4 5 6 
#
# 1 0.006887 -0.000857 -0.002027 0.000000 0.000000 0.000000
# 2 -0.000857 0.037796 -0.002103 0.000000 0.000000 0.000000
# 3 -0.002027 -0.002103 0.008288 0.000000 0.000000 0.000000
# 4 0.000000 0.000000 0.000000 0.045266 0.000000 0.000000
# 5 0.000000 0.000000 0.000000 0.000000 0.109917 0.000000
# 6 0.000000 0.000000 0.000000 0.000000 0.000000 0.082158
#
#
# Mechanical properties :
#
#
# Convention : Reuss Voigt Hill
#
# Bulk Modulus (GPa) = 23.25803 47.28816 35.27309
# Shear Modulus (GPa) = 15.89227 26.21729 21.05478
#
# Velocity S-wave (km/s) = 2.62454 3.37096 3.02089
# Velocity P-wave (km/s) = 4.38919 5.97053 5.23986
#
# Compressibility (1/GPa) = 0.04299590
#
# Stress axis : x y z
#
# Youngs Moduli (GPa) = 145.19409 26.45812 120.66010
#
# Poissons Ratio (x) = 0.02268 0.24462
# Poissons Ratio (y) = 0.12444 0.25375
# Poissons Ratio (z) = 0.29436 0.05564
#
# Static dielectric constant tensor:
#      x y z
#    x 1.968010 0.000000 0.000000 
#    y 0.000000 1.853430 0.000000 
#    z 0.000000 0.000000 1.948400 
# 
# From -- ./inp_files/10826.got.cif
#   From: 2010.05.17/outbox.cif.g08.bks.cpg/sg73_6_cif.got.tgz:10826.got - 2010.06.03 17:35:07.
