data_PCOD9530023
_publ_section_title
;
Structure prediction by ZEFSAII (Michael W. Deem and Ramdas Pophale) SiO2 
 PCOD9530023
Probable space group: I B C A 
;
_chemical_formula_sum "Si O2"
_cell_formula_units_Z 80
_cell_length_a 14.155824
_cell_length_b 15.796098
_cell_length_c 14.477362
_cell_angle_alpha 90.000000
_cell_angle_beta 90.000000
_cell_angle_gamma 90.000000
_cell_volume 3237.236346
_symmetry_space_group_name_H-M "I B C A "
_symmetry_group_IT_number 73
_symmetry_cell_setting 'orthorhombic'
loop_
_space_group_symop_operation_xyz
x,y,z
-x,1/2-y,z
x,-y,1/2-z
1/2-x,y,-z
-x,-y,-z
x,1/2+y,-z
-x,y,1/2+z
1/2+x,-y,z
1/2+x,1/2+y,1/2+z
1/2-x,-y,1/2+z
1/2+x,1/2-y,-z
-x,1/2+y,1/2-z
1/2-x,1/2-y,1/2-z
1/2+x,y,1/2-z
1/2-x,1/2+y,z
x,1/2-y,1/2+z
loop_
_atom_site_type_symbol
_atom_site_label
_atom_site_fract_x
_atom_site_fract_y
_atom_site_fract_z
Si Si1 0.019093 0.101873 0.005548
Si Si2 0.156079 0.337528 0.347363
Si Si3 0.672309 0.840766 0.418512
Si Si4 0.457641 0.420307 0.807240
Si Si5 0.736318 0.998958 0.889521
O O1 0.024850 0.116736 0.114732
O O2 0.104954 0.133351 0.943098
O O3 0.929472 0.151923 0.965263
O O4 0.000000 0.000000 0.000000
O O5 0.183973 0.241192 0.356261
O O6 0.082248 0.353562 0.265550
O O7 0.237272 0.408494 0.340642
O O8 0.750000 0.835075 0.500000
O O9 0.811344 0.928996 0.633720
O O10 0.496667 0.500000 0.750000
O O11 0.364429 0.459070 0.860066
O O12 0.750000 0.987965 0.000000
#
# Coordination Sequence:
#
# PCOD9530023 Si02
#       5
#    16  16  16  16  16
#     4  12  20  41  70  91 132 186 228 278 338 407
#     4  11  24  39  69  99 136 178 229 280 338 402
#     4  11  22  40  66  96 132 178 226 271 344 403
#     4  10  20  38  69  95 131 176 226 281 338 393
#     4  10  18  39  65  90 130 178 212 271 340 392
#
# _framework density 24.712436
#
# number of rings (size 3 to 8) (size 9 to 14) (size 15 to 20)
#    0.000    1.200    8.000    1.200    0.000    0.800 
#    0.000    4.000   26.400    0.000    0.000    0.000 
#    0.000    0.000    0.000    0.000    0.000    0.000 
#
# Total GULP energy -223769.106458 kJ/mol
# GULP energy per Si atom -5594.227661 kJ/mol
# Density = 2.465619 g / cm^3
# Si number density = 24.712436 Si / 1000 Ang^3
#
#
#
# Elastic Constant Matrix: (Units=GPa)
#
#
# Indices 1 2 3 4 5 6 
#
# 1 59.2280 9.9142 21.2389 0.0000 0.0000 0.0000
# 2 9.9142 142.5643 22.5885 0.0000 0.0000 0.0000
# 3 21.2389 22.5885 139.2006 0.0000 0.0000 0.0000
# 4 0.0000 0.0000 0.0000 19.9153 0.0000 0.0000
# 5 0.0000 0.0000 0.0000 0.0000 35.3226 0.0000
# 6 0.0000 0.0000 0.0000 0.0000 0.0000 20.1610
#
#
#
# Elastic Compliance Matrix: (Units=1/GPa)
#
#
# Indices 1 2 3 4 5 6 
#
# 1 0.017958 -0.000836 -0.002604 0.000000 0.000000 0.000000
# 2 -0.000836 0.007238 -0.001047 0.000000 0.000000 0.000000
# 3 -0.002604 -0.001047 0.007751 0.000000 0.000000 0.000000
# 4 0.000000 0.000000 0.000000 0.050213 0.000000 0.000000
# 5 0.000000 0.000000 0.000000 0.000000 0.028310 0.000000
# 6 0.000000 0.000000 0.000000 0.000000 0.000000 0.049601
#
#
# Mechanical properties :
#
#
# Convention : Reuss Voigt Hill
#
# Bulk Modulus (GPa) = 41.71468 49.83066 45.77267
# Shear Modulus (GPa) = 28.08408 34.22988 31.15698
#
# Velocity S-wave (km/s) = 3.37476 3.72577 3.55460
# Velocity P-wave (km/s) = 5.66587 6.22225 5.95057
#
# Compressibility (1/GPa) = 0.02397238
#
# Stress axis : x y z
#
# Youngs Moduli (GPa) = 55.68631 138.15165 129.01342
#
# Poissons Ratio (x) = 0.11552 0.33598
# Poissons Ratio (y) = 0.04656 0.13508
# Poissons Ratio (z) = 0.14502 0.14465
#
# Static dielectric constant tensor:
#      x y z
#    x 2.021590 0.000000 0.000000 
#    y 0.000000 1.997150 0.000000 
#    z 0.000000 0.000000 1.986000 
# 
# From -- ./inp_files/17855.got.cif
#   From: 2010.05.17/outbox.cif.g08.bks.cpg/sg73_9_cif.got.tgz:17855.got - 2010.06.03 17:35:07.
