data_PCOD9530800
_publ_section_title
;
Structure prediction by ZEFSAII (Michael W. Deem and Ramdas Pophale) SiO2 
 PCOD9530800
Probable space group: I B C A 
;
_chemical_formula_sum "Si O2"
_cell_formula_units_Z 80
_cell_length_a 12.758849
_cell_length_b 23.226391
_cell_length_c 13.126515
_cell_angle_alpha 90.000000
_cell_angle_beta 90.000000
_cell_angle_gamma 90.000000
_cell_volume 3889.937913
_symmetry_space_group_name_H-M "I B C A "
_symmetry_group_IT_number 73
_symmetry_cell_setting 'orthorhombic'
loop_
_space_group_symop_operation_xyz
x,y,z
-x,1/2-y,z
x,-y,1/2-z
1/2-x,y,-z
-x,-y,-z
x,1/2+y,-z
-x,y,1/2+z
1/2+x,-y,z
1/2+x,1/2+y,1/2+z
1/2-x,-y,1/2+z
1/2+x,1/2-y,-z
-x,1/2+y,1/2-z
1/2-x,1/2-y,1/2-z
1/2+x,y,1/2-z
1/2-x,1/2+y,z
x,1/2-y,1/2+z
loop_
_atom_site_type_symbol
_atom_site_label
_atom_site_fract_x
_atom_site_fract_y
_atom_site_fract_z
Si Si1 0.404313 0.908488 0.753671
Si Si2 0.750000 0.775876 0.000000
Si Si3 0.083419 0.797425 0.110779
Si Si4 0.723942 0.500000 0.250000
Si Si5 0.561145 0.031927 0.590878
Si Si6 0.569814 0.360911 0.960418
O O1 0.391863 0.848254 0.811827
O O2 0.453649 0.893102 0.644639
O O3 0.297561 0.944102 0.740980
O O4 0.478931 0.947509 0.823802
O O5 0.686230 0.736315 0.922547
O O6 0.836091 0.816092 0.946246
O O7 0.000000 0.750000 0.150551
O O8 0.026636 0.827135 0.012679
O O9 0.651505 0.502388 0.149404
O O10 0.605101 0.090466 0.540895
O O11 0.500000 0.000000 0.500000
#
# Coordination Sequence:
#
# PCOD9530800 Si02
#       6
#    16   8  16   8  16  16
#     4  11  24  40  63  94 123 163 213 254 309 373
#     4  10  20  38  60  88 120 158 206 258 316 368
#     4   9  22  40  61  88 122 163 206 255 312 371
#     4  12  24  40  66  94 120 160 208 256 308 368
#     4  11  24  42  61  87 127 164 203 256 315 376
#     4  10  21  40  60  84 124 161 198 258 316 369
#
# _framework density 20.565881999999998
#
# number of rings (size 3 to 8) (size 9 to 14) (size 15 to 20)
#    0.000    1.600    0.000    4.200    0.000   10.400 
#    0.000    0.000    0.000    0.000    0.000    0.000 
#    0.000    0.000    0.000    0.000    0.000    0.000 
#
# Total GULP energy -223582.337320 kJ/mol
# GULP energy per Si atom -5589.558433 kJ/mol
# Density = 2.051907 g / cm^3
# Si number density = 20.565882 Si / 1000 Ang^3
#
#
#
# Elastic Constant Matrix: (Units=GPa)
#
#
# Indices 1 2 3 4 5 6 
#
# 1 77.8440 43.1007 40.5980 0.0001 0.0000 0.0000
# 2 43.1007 113.5761 47.7706 0.0004 0.0000 -0.0001
# 3 40.5980 47.7706 114.7812 0.0005 0.0000 -0.0002
# 4 0.0001 0.0004 0.0005 44.1287 0.0000 -0.0001
# 5 0.0000 0.0000 0.0000 0.0000 15.9639 0.0000
# 6 0.0000 -0.0001 -0.0002 -0.0001 0.0000 27.3991
#
#
#
# Elastic Compliance Matrix: (Units=1/GPa)
#
#
# Indices 1 2 3 4 5 6 
#
# 1 0.017808 -0.004980 -0.004226 0.000000 0.000000 0.000000
# 2 -0.004980 0.012066 -0.003260 0.000000 0.000000 0.000000
# 3 -0.004226 -0.003260 0.011564 0.000000 0.000000 0.000000
# 4 0.000000 0.000000 0.000000 0.022661 0.000000 0.000000
# 5 0.000000 0.000000 0.000000 0.000000 0.062641 0.000000
# 6 0.000000 0.000000 0.000000 0.000000 0.000000 0.036498
#
#
# Mechanical properties :
#
#
# Convention : Reuss Voigt Hill
#
# Bulk Modulus (GPa) = 60.58893 63.23775 61.91334
# Shear Modulus (GPa) = 25.81698 29.14716 27.48207
#
# Velocity S-wave (km/s) = 3.54691 3.76873 3.65950
# Velocity P-wave (km/s) = 6.80433 7.05361 6.93009
#
# Compressibility (1/GPa) = 0.01650467
#
# Stress axis : x y z
#
# Youngs Moduli (GPa) = 56.15576 82.87835 86.47758
#
# Poissons Ratio (x) = 0.41277 0.36543
# Poissons Ratio (y) = 0.27968 0.28193
# Poissons Ratio (z) = 0.23730 0.27019
#
# Static dielectric constant tensor:
#      x y z
#    x 1.728990 0.000000 0.000000 
#    y 0.000000 1.759770 0.000000 
#    z 0.000000 0.000000 1.729840 
# 
# From -- ./inp_files/11059.got.cif
#   From: 2010.05.17/outbox.cif.g08.bks.cpg/sg73_6_cif.got.tgz:11059.got - 2010.06.03 17:35:07.
