data_PCOD9530265
_publ_section_title
;
Structure prediction by ZEFSAII (Michael W. Deem and Ramdas Pophale) SiO2 
 PCOD9530265
Probable space group: I B C A 
;
_chemical_formula_sum "Si O2"
_cell_formula_units_Z 120
_cell_length_a 16.794362
_cell_length_b 20.346751
_cell_length_c 19.515695
_cell_angle_alpha 90.000000
_cell_angle_beta 90.000000
_cell_angle_gamma 90.000000
_cell_volume 6668.721835
_symmetry_space_group_name_H-M "I B C A "
_symmetry_group_IT_number 73
_symmetry_cell_setting 'orthorhombic'
loop_
_space_group_symop_operation_xyz
x,y,z
-x,1/2-y,z
x,-y,1/2-z
1/2-x,y,-z
-x,-y,-z
x,1/2+y,-z
-x,y,1/2+z
1/2+x,-y,z
1/2+x,1/2+y,1/2+z
1/2-x,-y,1/2+z
1/2+x,1/2-y,-z
-x,1/2+y,1/2-z
1/2-x,1/2-y,1/2-z
1/2+x,y,1/2-z
1/2-x,1/2+y,z
x,1/2-y,1/2+z
loop_
_atom_site_type_symbol
_atom_site_label
_atom_site_fract_x
_atom_site_fract_y
_atom_site_fract_z
Si Si1 0.572837 0.801379 0.477071
Si Si2 0.155343 0.890635 0.272600
Si Si3 0.250000 0.756387 0.500000
Si Si4 0.345346 0.988436 0.852639
Si Si5 0.302783 0.538609 0.934357
Si Si6 0.072399 0.049501 0.491493
Si Si7 0.414850 0.776773 0.816640
Si Si8 0.703776 0.334167 0.135143
O O1 0.500000 0.750000 0.493094
O O2 0.663370 0.780861 0.500034
O O3 0.554745 0.874230 0.504901
O O4 0.576897 0.804939 0.394042
O O5 0.170836 0.937211 0.207463
O O6 0.110287 0.829532 0.239667
O O7 0.231465 0.861972 0.312151
O O8 0.115869 0.943474 0.324793
O O9 0.245059 0.797871 0.570475
O O10 0.395274 0.957784 0.914085
O O11 0.260246 0.008947 0.882125
O O12 0.340720 0.603117 0.899485
O O13 0.250000 0.560385 0.000000
O O14 0.360538 0.481687 0.959606
O O15 0.000000 0.000000 0.500000
O O16 0.500000 0.750000 0.796361
O O17 0.352934 0.717102 0.826797
#
# Coordination Sequence:
#
# PCOD9530265 Si02
#       8
#    16  16   8  16  16  16  16  16
#     4  10  23  38  60  90 126 166 215 261 318 384
#     4  10  19  37  59  82 114 155 204 249 303 365
#     4  10  22  38  62  86 128 164 206 264 322 370
#     4   9  20  37  57  84 116 153 202 255 301 372
#     4   9  19  33  56  82 117 151 203 249 307 363
#     4  11  23  36  61  90 123 159 202 258 322 372
#     4  10  21  36  57  80 119 158 202 249 308 377
#     4  10  20  35  59  89 113 160 208 257 311 377
#
# _framework density 17.994453
#
# number of rings (size 3 to 8) (size 9 to 14) (size 15 to 20)
#    0.000    2.133    2.000    0.400    8.400    0.000 
#    0.000    3.333    0.000    3.200    0.000    0.000 
#    0.000    0.000    0.000    0.000    0.000    0.000 
#
# Total GULP energy -334070.935644 kJ/mol
# GULP energy per Si atom -5567.848927 kJ/mol
# Density = 1.795350 g / cm^3
# Si number density = 17.994453 Si / 1000 Ang^3
#
#
#
# Elastic Constant Matrix: (Units=GPa)
#
#
# Indices 1 2 3 4 5 6 
#
# 1 89.0933 71.9674 37.1013 0.0000 0.0000 0.0000
# 2 71.9674 164.8000 50.6193 0.0000 0.0000 0.0000
# 3 37.1013 50.6193 64.7214 0.0000 0.0000 0.0000
# 4 0.0000 0.0000 0.0000 82.8774 0.0000 0.0000
# 5 0.0000 0.0000 0.0000 0.0000 20.3179 0.0000
# 6 0.0000 0.0000 0.0000 0.0000 0.0000 106.3515
#
#
#
# Elastic Compliance Matrix: (Units=1/GPa)
#
#
# Indices 1 2 3 4 5 6 
#
# 1 0.018835 -0.006461 -0.005744 0.000000 0.000000 0.000000
# 2 -0.006461 0.010203 -0.004276 0.000000 0.000000 0.000000
# 3 -0.005744 -0.004276 0.022088 0.000000 0.000000 0.000000
# 4 0.000000 0.000000 0.000000 0.012066 0.000000 0.000000
# 5 0.000000 0.000000 0.000000 0.000000 0.049218 0.000000
# 6 0.000000 0.000000 0.000000 0.000000 0.000000 0.009403
#
#
# Mechanical properties :
#
#
# Convention : Reuss Voigt Hill
#
# Bulk Modulus (GPa) = 55.05419 70.88786 62.97103
# Shear Modulus (GPa) = 31.08891 52.50447 41.79669
#
# Velocity S-wave (km/s) = 4.16106 5.40754 4.82472
# Velocity P-wave (km/s) = 7.33126 8.85824 8.13068
#
# Compressibility (1/GPa) = 0.01816392
#
# Stress axis : x y z
#
# Youngs Moduli (GPa) = 53.09215 98.01207 45.27355
#
# Poissons Ratio (x) = 0.63325 0.26005
# Poissons Ratio (y) = 0.34302 0.19359
# Poissons Ratio (z) = 0.30496 0.41910
#
# Static dielectric constant tensor:
#      x y z
#    x 1.618980 0.000000 0.000000 
#    y 0.000000 1.672160 0.000000 
#    z 0.000000 0.000000 1.656380 
# 
# From -- ./inp_files/26681.got.cif
#   From: 2010.05.17/outbox.cif.g08.bks.cpg/sg73_14_cif.got.tgz:26681.got - 2010.06.03 17:35:07.
