data_PCOD9530830
_publ_section_title
;
Structure prediction by ZEFSAII (Michael W. Deem and Ramdas Pophale) SiO2 
 PCOD9530830
Probable space group: I B C A 
;
_chemical_formula_sum "Si O2"
_cell_formula_units_Z 112
_cell_length_a 14.134373
_cell_length_b 25.503807
_cell_length_c 13.987394
_cell_angle_alpha 90.000000
_cell_angle_beta 90.000000
_cell_angle_gamma 90.000000
_cell_volume 5042.180280
_symmetry_space_group_name_H-M "I B C A "
_symmetry_group_IT_number 73
_symmetry_cell_setting 'orthorhombic'
loop_
_space_group_symop_operation_xyz
x,y,z
-x,1/2-y,z
x,-y,1/2-z
1/2-x,y,-z
-x,-y,-z
x,1/2+y,-z
-x,y,1/2+z
1/2+x,-y,z
1/2+x,1/2+y,1/2+z
1/2-x,-y,1/2+z
1/2+x,1/2-y,-z
-x,1/2+y,1/2-z
1/2-x,1/2-y,1/2-z
1/2+x,y,1/2-z
1/2-x,1/2+y,z
x,1/2-y,1/2+z
loop_
_atom_site_type_symbol
_atom_site_label
_atom_site_fract_x
_atom_site_fract_y
_atom_site_fract_z
Si Si1 0.588738 0.171558 0.508550
Si Si2 0.040409 0.428412 0.589637
Si Si3 0.760710 0.000000 0.250000
Si Si4 0.000000 0.750000 0.656153
Si Si5 0.251066 0.702163 0.123009
Si Si6 0.916099 0.473631 0.895777
Si Si7 0.825887 0.806813 0.678729
Si Si8 0.106249 0.921222 0.192001
O O1 0.526409 0.127196 0.460549
O O2 0.529661 0.205081 0.582267
O O3 0.680645 0.159691 0.575477
O O4 0.645879 0.198837 0.422861
O O5 0.101175 0.457328 0.505847
O O6 0.085737 0.418549 0.693294
O O7 0.950470 0.465763 0.604053
O O8 0.829559 0.969019 0.177099
O O9 0.691325 0.962963 0.311783
O O10 0.082048 0.724394 0.716906
O O11 0.213261 0.761798 0.107859
O O12 0.253342 0.689878 0.234406
O O13 0.009610 0.442195 0.857216
O O14 0.858443 0.865127 0.652959
#
# Coordination Sequence:
#
# PCOD9530830 Si02
#       8
#    16  16   8   8  16  16  16  16
#     4  10  20  38  63  91 120 170 210 267 328 400
#     4  11  22  43  69  92 132 181 223 284 337 400
#     4  12  24  42  68  98 136 180 222 284 352 396
#     4  10  22  40  62  88 130 166 212 272 344 388
#     4   9  20  37  59  92 128 148 221 269 308 406
#     4  11  25  45  63 100 143 169 235 295 329 415
#     4  10  21  40  62  92 124 171 208 274 333 391
#     4  12  23  46  67  98 140 178 227 286 342 419
#
# _framework density 22.212613999999999
#
# number of rings (size 3 to 8) (size 9 to 14) (size 15 to 20)
#    0.000    1.429    4.286    0.857    2.000    1.143 
#    5.143    0.000    9.429    0.000    0.000    0.000 
#    0.000    0.000    0.000    0.000    0.000    0.000 
#
# Total GULP energy -311912.920630 kJ/mol
# GULP energy per Si atom -5569.873583 kJ/mol
# Density = 2.216206 g / cm^3
# Si number density = 22.212614 Si / 1000 Ang^3
#
#
#
# Elastic Constant Matrix: (Units=GPa)
#
#
# Indices 1 2 3 4 5 6 
#
# 1 59.2487 27.9583 8.0436 0.0001 0.0000 0.0000
# 2 27.9583 105.1292 -1.5681 0.0003 0.0000 0.0001
# 3 8.0436 -1.5681 79.5415 0.0005 0.0000 0.0001
# 4 0.0001 0.0003 0.0005 -0.0782 0.0000 0.0001
# 5 0.0000 0.0000 0.0000 0.0000 19.9947 0.0000
# 6 0.0000 0.0001 0.0001 0.0001 0.0000 10.7848
#
#
#
# Elastic Compliance Matrix: (Units=1/GPa)
#
#
# Indices 1 2 3 4 5 6 
#
# 1 0.019641 -0.005255 -0.002090 -0.000021 0.000000 0.000000
# 2 -0.005255 0.010921 0.000747 0.000048 0.000000 0.000000
# 3 -0.002090 0.000747 0.012798 0.000081 0.000000 0.000000
# 4 -0.000021 0.000048 0.000081-12.788519 0.000021 0.000080
# 5 0.000000 0.000000 0.000000 0.000021 0.050013 0.000000
# 6 0.000000 0.000000 0.000000 0.000080 0.000000 0.092723
#
#
# Mechanical properties :
#
#
# Convention : Reuss Voigt Hill
#
# Bulk Modulus (GPa) = 33.15154 34.75412 33.95283
# Shear Modulus (GPa) = -0.39748 20.10596 9.85424
#
# Velocity S-wave (km/s) = -0.42348 3.01185 2.10854
# Velocity P-wave (km/s) = 3.83640 5.27021 4.60939
#
# Compressibility (1/GPa) = 0.03016451
#
# Stress axis : x y z
#
# Youngs Moduli (GPa) = 50.91324 91.56944 78.13660
#
# Poissons Ratio (x) = 0.48116 0.16329
# Poissons Ratio (y) = 0.26753 -0.05834
# Poissons Ratio (z) = 0.10640 -0.06837
#
# Static dielectric constant tensor:
#      x y z
#    x 1.919710 0.000000 0.000000 
#    y 0.000000 1.891660 0.000000 
#    z 0.000000 0.000000 1.852810 
# 
# From -- ./inp_files/17292.got.cif
#   From: 2010.05.17/outbox.cif.g08.bks.cpg/sg73_9_cif.got.tgz:17292.got - 2010.06.03 17:35:07.
