data_PCOD9530761
_publ_section_title
;
Structure prediction by ZEFSAII (Michael W. Deem and Ramdas Pophale) SiO2 
 PCOD9530761
Probable space group: I B C A 
;
_chemical_formula_sum "Si O2"
_cell_formula_units_Z 64
_cell_length_a 8.607728
_cell_length_b 16.375088
_cell_length_c 18.745057
_cell_angle_alpha 90.000000
_cell_angle_beta 90.000000
_cell_angle_gamma 90.000000
_cell_volume 2642.158963
_symmetry_space_group_name_H-M "I B C A "
_symmetry_group_IT_number 73
_symmetry_cell_setting 'orthorhombic'
loop_
_space_group_symop_operation_xyz
x,y,z
-x,1/2-y,z
x,-y,1/2-z
1/2-x,y,-z
-x,-y,-z
x,1/2+y,-z
-x,y,1/2+z
1/2+x,-y,z
1/2+x,1/2+y,1/2+z
1/2-x,-y,1/2+z
1/2+x,1/2-y,-z
-x,1/2+y,1/2-z
1/2-x,1/2-y,1/2-z
1/2+x,y,1/2-z
1/2-x,1/2+y,z
x,1/2-y,1/2+z
loop_
_atom_site_type_symbol
_atom_site_label
_atom_site_fract_x
_atom_site_fract_y
_atom_site_fract_z
Si Si1 0.907089 0.488678 0.829402
Si Si2 0.688450 0.267043 0.570098
Si Si3 0.391585 0.830567 0.787444
Si Si4 0.653016 0.884081 0.130592
O O1 0.836354 0.500000 0.750000
O O2 0.777398 0.455366 0.881405
O O3 0.021200 0.412570 0.812923
O O4 0.992673 0.567677 0.860033
O O5 0.500000 0.250000 0.566483
O O6 0.750000 0.311748 0.500000
O O7 0.715567 0.311799 0.645034
O O8 0.800256 0.187263 0.576913
O O9 0.500000 0.750000 0.779731
O O10 0.319930 0.846974 0.710299
#
# Coordination Sequence:
#
# PCOD9530761 Si02
#       4
#    16  16  16  16
#     4  10  20  37  65 100 138 161 214 269 339 395
#     4  11  24  46  66  94 131 179 232 278 328 400
#     4  10  20  39  71  98 134 166 220 278 334 388
#     4  11  22  42  67 103 131 174 213 279 339 401
#
# _framework density 24.222617
#
# number of rings (size 3 to 8) (size 9 to 14) (size 15 to 20)
#    0.000    1.500    5.000    3.000    0.000    1.000 
#    9.000    2.500    0.000    0.000    0.000    0.000 
#    0.000    0.000    0.000    0.000    0.000    0.000 
#
# Total GULP energy -178623.777660 kJ/mol
# GULP energy per Si atom -5581.993052 kJ/mol
# Density = 2.416748 g / cm^3
# Si number density = 24.222617 Si / 1000 Ang^3
#
#
#
# Elastic Constant Matrix: (Units=GPa)
#
#
# Indices 1 2 3 4 5 6 
#
# 1 65.4037 32.8121 12.0529 0.0000 0.0000 0.0000
# 2 32.8121 86.7990 20.3754 0.0000 0.0000 0.0000
# 3 12.0529 20.3754 81.3040 0.0000 0.0000 0.0000
# 4 0.0000 0.0000 0.0000 13.0570 0.0000 0.0000
# 5 0.0000 0.0000 0.0000 0.0000 28.5479 0.0000
# 6 0.0000 0.0000 0.0000 0.0000 0.0000 58.4638
#
#
#
# Elastic Compliance Matrix: (Units=1/GPa)
#
#
# Indices 1 2 3 4 5 6 
#
# 1 0.018956 -0.006913 -0.001078 0.000000 0.000000 0.000000
# 2 -0.006913 0.014762 -0.002675 0.000000 0.000000 0.000000
# 3 -0.001078 -0.002675 0.013130 0.000000 0.000000 0.000000
# 4 0.000000 0.000000 0.000000 0.076587 0.000000 0.000000
# 5 0.000000 0.000000 0.000000 0.000000 0.035029 0.000000
# 6 0.000000 0.000000 0.000000 0.000000 0.000000 0.017105
#
#
# Mechanical properties :
#
#
# Convention : Reuss Voigt Hill
#
# Bulk Modulus (GPa) = 39.18923 40.44307 39.81615
# Shear Modulus (GPa) = 24.34215 31.23150 27.78682
#
# Velocity S-wave (km/s) = 3.17351 3.59465 3.39063
# Velocity P-wave (km/s) = 5.44446 5.82764 5.63930
#
# Compressibility (1/GPa) = 0.02551721
#
# Stress axis : x y z
#
# Youngs Moduli (GPa) = 52.75254 67.74147 76.16388
#
# Poissons Ratio (x) = 0.46830 0.08209
# Poissons Ratio (y) = 0.36468 0.20371
# Poissons Ratio (z) = 0.05685 0.18118
#
# Static dielectric constant tensor:
#      x y z
#    x 2.037990 0.000000 0.000000 
#    y 0.000000 1.989290 0.000000 
#    z 0.000000 0.000000 1.882680 
# 
# From -- ./inp_files/22301.got.cif
#   From: 2010.05.17/outbox.cif.g08.bks.cpg/sg73_12_cif.got.tgz:22301.got - 2010.06.03 17:35:07.
