data_PCOD9530623
_publ_section_title
;
Structure prediction by ZEFSAII (Michael W. Deem and Ramdas Pophale) SiO2 
 PCOD9530623
Probable space group: I B C A 
;
_chemical_formula_sum "Si O2"
_cell_formula_units_Z 104
_cell_length_a 22.464990
_cell_length_b 13.943793
_cell_length_c 14.057316
_cell_angle_alpha 90.000000
_cell_angle_beta 90.000000
_cell_angle_gamma 90.000000
_cell_volume 4403.414459
_symmetry_space_group_name_H-M "I B C A "
_symmetry_group_IT_number 73
_symmetry_cell_setting 'orthorhombic'
loop_
_space_group_symop_operation_xyz
x,y,z
-x,1/2-y,z
x,-y,1/2-z
1/2-x,y,-z
-x,-y,-z
x,1/2+y,-z
-x,y,1/2+z
1/2+x,-y,z
1/2+x,1/2+y,1/2+z
1/2-x,-y,1/2+z
1/2+x,1/2-y,-z
-x,1/2+y,1/2-z
1/2-x,1/2-y,1/2-z
1/2+x,y,1/2-z
1/2-x,1/2+y,z
x,1/2-y,1/2+z
loop_
_atom_site_type_symbol
_atom_site_label
_atom_site_fract_x
_atom_site_fract_y
_atom_site_fract_z
Si Si1 0.204591 0.396361 0.616764
Si Si2 0.668593 0.405108 0.192107
Si Si3 0.837229 0.592331 0.059104
Si Si4 0.489520 0.500000 0.250000
Si Si5 0.398046 0.856006 0.753983
Si Si6 0.708453 0.679412 0.114174
Si Si7 0.552308 0.318649 0.160728
O O1 0.271396 0.430532 0.636728
O O2 0.171642 0.478811 0.560182
O O3 0.165602 0.381808 0.711598
O O4 0.207226 0.288837 0.580579
O O5 0.647869 0.500000 0.250000
O O6 0.691937 0.333801 0.275597
O O7 0.618507 0.352723 0.128382
O O8 0.888111 0.623535 0.133080
O O9 0.774331 0.637807 0.095468
O O10 0.840496 0.626813 0.951056
O O11 0.443250 0.427045 0.299599
O O12 0.524683 0.421761 0.188549
O O13 0.426918 0.750681 0.751461
O O14 0.500000 0.250000 0.115814
#
# Coordination Sequence:
#
# PCOD9530623 Si02
#       7
#    16  16  16   8  16  16  16
#     4  12  21  39  66  91 121 166 198 250 318 368
#     4  12  20  38  65  91 126 158 206 261 303 366
#     4  11  23  39  57  93 132 162 195 248 318 383
#     4  10  20  36  58  96 118 156 214 270 294 348
#     4  11  19  38  67  89 121 160 206 255 307 371
#     4  11  24  37  56  94 132 158 199 245 314 387
#     4  10  22  35  59  96 120 156 211 263 295 344
#
# _framework density 23.618036
#
# number of rings (size 3 to 8) (size 9 to 14) (size 15 to 20)
#    0.000    0.923    6.923    1.385    0.000    2.462 
#    2.769    0.000    0.000    3.692    0.000    0.000 
#    0.000    0.000    0.000    0.000    0.000    0.000 
#
# Total GULP energy -289724.303843 kJ/mol
# GULP energy per Si atom -5571.621228 kJ/mol
# Density = 2.356428 g / cm^3
# Si number density = 23.618036 Si / 1000 Ang^3
#
#
#
# Elastic Constant Matrix: (Units=GPa)
#
#
# Indices 1 2 3 4 5 6 
#
# 1 107.9015 9.4662 5.6105 0.0000 0.0000 0.0000
# 2 9.4662 146.8740 -0.4225 0.0000 0.0000 0.0000
# 3 5.6105 -0.4225 50.3177 0.0000 0.0000 0.0000
# 4 0.0000 0.0000 0.0000 20.6669 0.0000 0.0000
# 5 0.0000 0.0000 0.0000 0.0000 -0.2606 0.0000
# 6 0.0000 0.0000 0.0000 0.0000 0.0000 42.3036
#
#
#
# Elastic Compliance Matrix: (Units=1/GPa)
#
#
# Indices 1 2 3 4 5 6 
#
# 1 0.009376 -0.000607 -0.001050 0.000000 0.000000 0.000000
# 2 -0.000607 0.006848 0.000125 0.000000 0.000000 0.000000
# 3 -0.001050 0.000125 0.019992 0.000000 0.000000 0.000000
# 4 0.000000 0.000000 0.000000 0.048387 0.000000 0.000000
# 5 0.000000 0.000000 0.000000 0.000000 -3.837843 0.000000
# 6 0.000000 0.000000 0.000000 0.000000 0.000000 0.023639
#
#
# Mechanical properties :
#
#
# Convention : Reuss Voigt Hill
#
# Bulk Modulus (GPa) = 30.16551 37.15574 33.66063
# Shear Modulus (GPa) = -1.34572 31.90458 15.27943
#
# Velocity S-wave (km/s) = -0.75566 3.67939 2.54626
# Velocity P-wave (km/s) = 3.46967 5.81521 4.78828
#
# Compressibility (1/GPa) = 0.03315044
#
# Stress axis : x y z
#
# Youngs Moduli (GPa) = 106.65972 146.02684 50.02025
#
# Poissons Ratio (x) = 0.08868 0.05255
# Poissons Ratio (y) = 0.06477 -0.00626
# Poissons Ratio (z) = 0.11204 -0.01828
#
# Static dielectric constant tensor:
#      x y z
#    x 1.970150 0.000000 0.000000 
#    y 0.000000 1.992670 0.000000 
#    z 0.000000 0.000000 1.924510 
# 
# From -- ./inp_files/23623.got.cif
#   From: 2010.05.17/outbox.cif.g08.bks.cpg/sg73_12_cif.got.tgz:23623.got - 2010.06.03 17:35:07.
