data_PCOD9530518
_publ_section_title
;
Structure prediction by ZEFSAII (Michael W. Deem and Ramdas Pophale) SiO2 
 PCOD9530518
Probable space group: I B C A 
;
_chemical_formula_sum "Si O2"
_cell_formula_units_Z 104
_cell_length_a 13.370474
_cell_length_b 29.864248
_cell_length_c 10.306504
_cell_angle_alpha 90.000000
_cell_angle_beta 90.000000
_cell_angle_gamma 90.000000
_cell_volume 4115.378301
_symmetry_space_group_name_H-M "I B C A "
_symmetry_group_IT_number 73
_symmetry_cell_setting 'orthorhombic'
loop_
_space_group_symop_operation_xyz
x,y,z
-x,1/2-y,z
x,-y,1/2-z
1/2-x,y,-z
-x,-y,-z
x,1/2+y,-z
-x,y,1/2+z
1/2+x,-y,z
1/2+x,1/2+y,1/2+z
1/2-x,-y,1/2+z
1/2+x,1/2-y,-z
-x,1/2+y,1/2-z
1/2-x,1/2-y,1/2-z
1/2+x,y,1/2-z
1/2-x,1/2+y,z
x,1/2-y,1/2+z
loop_
_atom_site_type_symbol
_atom_site_label
_atom_site_fract_x
_atom_site_fract_y
_atom_site_fract_z
Si Si1 0.400189 0.858912 0.313422
Si Si2 0.366874 0.492429 0.395848
Si Si3 0.859045 0.353058 0.333407
Si Si4 0.250000 0.926015 0.000000
Si Si5 0.118234 0.205206 0.574886
Si Si6 0.641837 0.960113 0.847409
Si Si7 0.376807 0.306117 0.428317
O O1 0.521098 0.862337 0.331621
O O2 0.364896 0.829169 0.192016
O O3 0.371597 0.910490 0.296193
O O4 0.359394 0.832602 0.438938
O O5 0.407687 0.500000 0.250000
O O6 0.339140 0.537452 0.477086
O O7 0.260787 0.468055 0.365802
O O8 0.413761 0.463232 0.512242
O O9 0.789806 0.392400 0.388609
O O10 0.847661 0.312955 0.435979
O O11 0.841627 0.337218 0.188286
O O12 0.158764 0.255233 0.592533
O O13 0.996774 0.202402 0.572838
O O14 0.613131 0.000000 0.750000
#
# Coordination Sequence:
#
# PCOD9530518 Si02
#       7
#    16  16  16   8  16  16  16
#     4  10  20  34  60  90 118 147 195 246 295 334
#     4   9  21  39  60  79 111 157 200 222 286 357
#     4  10  21  36  58  83 115 154 195 236 296 346
#     4  10  22  38  58  78 114 154 194 236 288 356
#     4   9  18  33  60  83 118 151 187 238 298 348
#     4   9  19  36  58  86 119 149 193 240 288 347
#     4   9  18  35  55  89 116 148 191 238 290 357
#
# _framework density 25.271066000000001
#
# number of rings (size 3 to 8) (size 9 to 14) (size 15 to 20)
#    0.000    2.769    0.000    0.923    8.615    3.692 
#    0.000    4.615    0.000    4.615    0.000    0.000 
#    0.000    0.000    0.000    0.000    0.000    0.000 
#
# Total GULP energy -290225.140054 kJ/mol
# GULP energy per Si atom -5581.252693 kJ/mol
# Density = 2.521355 g / cm^3
# Si number density = 25.271066 Si / 1000 Ang^3
#
#
#
# Elastic Constant Matrix: (Units=GPa)
#
#
# Indices 1 2 3 4 5 6 
#
# 1 100.8012 30.6537 34.8578 -0.0001 -0.0001 0.0000
# 2 30.6537 199.8107 82.9645 -0.0004 -0.0005 -0.0005
# 3 34.8578 82.9645 205.3953 -0.0017 -0.0003 -0.0006
# 4 -0.0001 -0.0004 -0.0017 11.7363 0.0001 -0.0006
# 5 -0.0001 -0.0005 -0.0003 0.0001 14.2292 -0.0001
# 6 0.0000 -0.0005 -0.0006 -0.0006 -0.0001 -8.3055
#
#
#
# Elastic Compliance Matrix: (Units=1/GPa)
#
#
# Indices 1 2 3 4 5 6 
#
# 1 0.010726 -0.001069 -0.001388 0.000000 0.000000 0.000000
# 2 -0.001069 0.006120 -0.002291 0.000000 0.000000 0.000000
# 3 -0.001388 -0.002291 0.006030 0.000001 0.000000 0.000000
# 4 0.000000 0.000000 0.000001 0.085206 -0.000001 -0.000006
# 5 0.000000 0.000000 0.000000 -0.000001 0.070278 -0.000001
# 6 0.000000 0.000000 0.000000 -0.000006 -0.000001 -0.120403
#
#
# Mechanical properties :
#
#
# Convention : Reuss Voigt Hill
#
# Bulk Modulus (GPa) = 74.74354 89.21769 81.98062
# Shear Modulus (GPa) = 69.52976 27.36743 48.44860
#
# Velocity S-wave (km/s) = 5.25103 3.29440 4.38329
# Velocity P-wave (km/s) = 8.14895 7.06057 7.62421
#
# Compressibility (1/GPa) = 0.01337908
#
# Stress axis : x y z
#
# Youngs Moduli (GPa) = 93.23368 163.40427 165.85100
#
# Poissons Ratio (x) = 0.17467 0.23028
# Poissons Ratio (y) = 0.09966 0.37989
# Poissons Ratio (z) = 0.12945 0.37428
#
# Static dielectric constant tensor:
#      x y z
#    x 2.163220 0.000000 0.000000 
#    y 0.000000 1.966070 0.000000 
#    z 0.000000 0.000000 1.995800 
# 
# From -- ./inp_files/12165.got.cif
#   From: 2010.05.17/outbox.cif.g08.bks.cpg/sg73_7_cif.got.tgz:12165.got - 2010.06.03 17:35:07.
