data_PCOD9530842
_publ_section_title
;
Structure prediction by ZEFSAII (Michael W. Deem and Ramdas Pophale) SiO2 
 PCOD9530842
Probable space group: I B C A 
;
_chemical_formula_sum "Si O2"
_cell_formula_units_Z 120
_cell_length_a 31.204710
_cell_length_b 8.934540
_cell_length_c 18.922916
_cell_angle_alpha 90.000000
_cell_angle_beta 90.000000
_cell_angle_gamma 90.000000
_cell_volume 5275.703866
_symmetry_space_group_name_H-M "I B C A "
_symmetry_group_IT_number 73
_symmetry_cell_setting 'orthorhombic'
loop_
_space_group_symop_operation_xyz
x,y,z
-x,1/2-y,z
x,-y,1/2-z
1/2-x,y,-z
-x,-y,-z
x,1/2+y,-z
-x,y,1/2+z
1/2+x,-y,z
1/2+x,1/2+y,1/2+z
1/2-x,-y,1/2+z
1/2+x,1/2-y,-z
-x,1/2+y,1/2-z
1/2-x,1/2-y,1/2-z
1/2+x,y,1/2-z
1/2-x,1/2+y,z
x,1/2-y,1/2+z
loop_
_atom_site_type_symbol
_atom_site_label
_atom_site_fract_x
_atom_site_fract_y
_atom_site_fract_z
Si Si1 0.621566 0.701411 0.673949
Si Si2 0.106269 0.960951 0.668477
Si Si3 0.674631 0.706001 0.496295
Si Si4 0.711656 0.253122 0.344810
Si Si5 0.557859 0.000000 0.250000
Si Si6 0.296353 0.401373 0.644034
Si Si7 0.454480 0.807057 0.885675
Si Si8 0.618837 0.525800 0.952936
O O1 0.670233 0.708181 0.700985
O O2 0.586765 0.643197 0.728467
O O3 0.621414 0.563453 0.619980
O O4 0.610794 0.865354 0.639433
O O5 0.153717 0.887230 0.664643
O O6 0.072623 0.839985 0.639410
O O7 0.096487 0.000000 0.750000
O O8 0.695618 0.715769 0.573963
O O9 0.705574 0.634660 0.439284
O O10 0.630728 0.607096 0.493967
O O11 0.658434 0.863997 0.467086
O O12 0.714535 0.429060 0.341796
O O13 0.757262 0.189508 0.324545
O O14 0.536434 0.072379 0.179203
O O15 0.500000 0.750000 0.912050
O O16 0.425874 0.889350 0.945592
#
# Coordination Sequence:
#
# PCOD9530842 Si02
#       8
#    16  16  16  16   8  16  16  16
#     4   9  21  39  59  89 125 170 205 257 318 387
#     4  11  22  43  65  90 131 176 212 259 338 389
#     4  11  20  38  63  86 124 170 214 267 315 389
#     4  10  23  35  55  91 124 162 219 263 313 363
#     4  10  20  38  64  92 120 164 212 260 328 380
#     4  11  23  37  57  90 127 169 218 267 314 374
#     4  11  24  41  68  98 129 160 215 277 329 392
#     4  10  22  39  63  93 126 167 209 262 339 382
#
# _framework density 22.74578
#
# number of rings (size 3 to 8) (size 9 to 14) (size 15 to 20)
#    0.000    1.600    4.000    0.400    4.667    1.067 
#    1.200    4.000    0.000    0.000    0.000    0.000 
#    0.000    0.000    0.000    0.000    0.000    0.000 
#
# Total GULP energy -334428.432523 kJ/mol
# GULP energy per Si atom -5573.807209 kJ/mol
# Density = 2.269401 g / cm^3
# Si number density = 22.745780 Si / 1000 Ang^3
#
#
#
# Elastic Constant Matrix: (Units=GPa)
#
#
# Indices 1 2 3 4 5 6 
#
# 1 117.7348 56.3960 7.7821 0.0000 0.0000 0.0000
# 2 56.3960 67.2194 7.3200 0.0000 0.0000 0.0000
# 3 7.7821 7.3200 41.9754 0.0000 0.0000 0.0000
# 4 0.0000 0.0000 0.0000 31.0143 0.0000 0.0000
# 5 0.0000 0.0000 0.0000 0.0000 16.2789 0.0000
# 6 0.0000 0.0000 0.0000 0.0000 0.0000 34.7760
#
#
#
# Elastic Compliance Matrix: (Units=1/GPa)
#
#
# Indices 1 2 3 4 5 6 
#
# 1 0.014214 -0.011864 -0.000566 0.000000 0.000000 0.000000
# 2 -0.011864 0.025066 -0.002172 0.000000 0.000000 0.000000
# 3 -0.000566 -0.002172 0.024307 0.000000 0.000000 0.000000
# 4 0.000000 0.000000 0.000000 0.032243 0.000000 0.000000
# 5 0.000000 0.000000 0.000000 0.000000 0.061429 0.000000
# 6 0.000000 0.000000 0.000000 0.000000 0.000000 0.028755
#
#
# Mechanical properties :
#
#
# Convention : Reuss Voigt Hill
#
# Bulk Modulus (GPa) = 29.08317 41.10288 35.09302
# Shear Modulus (GPa) = 22.05750 26.77593 24.41672
#
# Velocity S-wave (km/s) = 3.11744 3.43473 3.27993
# Velocity P-wave (km/s) = 5.07660 5.81718 5.45946
#
# Compressibility (1/GPa) = 0.03438415
#
# Stress axis : x y z
#
# Youngs Moduli (GPa) = 70.35403 39.89393 41.14004
#
# Poissons Ratio (x) = 0.47328 0.02330
# Poissons Ratio (y) = 0.83465 0.08935
# Poissons Ratio (z) = 0.03984 0.08664
#
# Static dielectric constant tensor:
#      x y z
#    x 1.856010 0.000000 0.000000 
#    y 0.000000 1.903880 0.000000 
#    z 0.000000 0.000000 2.110340 
# 
# From -- ./inp_files/31395.got.cif
#   From: 2010.05.17/outbox.cif.g08.bks.cpg/sg73_16_cif.got.tgz:31395.got - 2010.06.03 17:35:07.
