data_PCOD9530824
_publ_section_title
;
Structure prediction by ZEFSAII (Michael W. Deem and Ramdas Pophale) SiO2 
 PCOD9530824
Probable space group: I B C A 
;
_chemical_formula_sum "Si O2"
_cell_formula_units_Z 96
_cell_length_a 12.106351
_cell_length_b 17.171557
_cell_length_c 18.760661
_cell_angle_alpha 90.000000
_cell_angle_beta 90.000000
_cell_angle_gamma 90.000000
_cell_volume 3900.058066
_symmetry_space_group_name_H-M "I B C A "
_symmetry_group_IT_number 73
_symmetry_cell_setting 'orthorhombic'
loop_
_space_group_symop_operation_xyz
x,y,z
-x,1/2-y,z
x,-y,1/2-z
1/2-x,y,-z
-x,-y,-z
x,1/2+y,-z
-x,y,1/2+z
1/2+x,-y,z
1/2+x,1/2+y,1/2+z
1/2-x,-y,1/2+z
1/2+x,1/2-y,-z
-x,1/2+y,1/2-z
1/2-x,1/2-y,1/2-z
1/2+x,y,1/2-z
1/2-x,1/2+y,z
x,1/2-y,1/2+z
loop_
_atom_site_type_symbol
_atom_site_label
_atom_site_fract_x
_atom_site_fract_y
_atom_site_fract_z
Si Si1 0.919356 0.569157 0.518877
Si Si2 0.728679 0.528905 0.615110
Si Si3 0.326248 0.652674 0.342342
Si Si4 0.406527 0.306504 0.850314
Si Si5 0.126043 0.821744 0.010624
Si Si6 0.054882 0.082279 0.219532
O O1 0.852760 0.549470 0.591158
O O2 0.837700 0.566179 0.451597
O O3 0.000000 0.500000 0.500000
O O4 0.005954 0.639006 0.519678
O O5 0.701781 0.436438 0.627844
O O6 0.674980 0.569454 0.683579
O O7 0.211190 0.686184 0.313346
O O8 0.357675 0.707733 0.409012
O O9 0.421691 0.638969 0.285711
O O10 0.500000 0.250000 0.822076
O O11 0.468258 0.388482 0.838953
O O12 0.384289 0.283757 0.932778
O O13 0.250000 0.862109 0.000000
O O14 0.016557 0.000000 0.250000
#
# Coordination Sequence:
#
# PCOD9530824 Si02
#       6
#    16  16  16  16  16  16
#     4  11  18  30  57  90 127 168 211 268 339 386
#     4  10  21  33  57  97 130 165 208 275 338 387
#     4  10  22  39  61  92 127 171 219 271 336 398
#     4  11  24  43  66  89 128 178 216 270 335 402
#     4  10  20  38  62  90 125 170 218 265 322 391
#     4  10  23  42  63  97 131 168 218 275 336 395
#
# _framework density 24.615017000000002
#
# number of rings (size 3 to 8) (size 9 to 14) (size 15 to 20)
#    0.000    1.667    3.333    2.000    2.333    4.000 
#    0.000    5.833    0.000    0.000    0.000    0.000 
#    0.000    0.000    0.000    0.000    0.000    0.000 
#
# Total GULP energy -267208.965520 kJ/mol
# GULP energy per Si atom -5566.853448 kJ/mol
# Density = 2.455899 g / cm^3
# Si number density = 24.615017 Si / 1000 Ang^3
#
#
#
# Elastic Constant Matrix: (Units=GPa)
#
#
# Indices 1 2 3 4 5 6 
#
# 1 103.2037 22.5700 8.5828 0.0000 0.0000 0.0000
# 2 22.5700 26.0285 14.1561 0.0000 0.0000 0.0000
# 3 8.5828 14.1561 81.5968 0.0000 0.0000 0.0000
# 4 0.0000 0.0000 0.0000 8.0559 0.0000 0.0000
# 5 0.0000 0.0000 0.0000 0.0000 30.6585 0.0000
# 6 0.0000 0.0000 0.0000 0.0000 0.0000 25.0849
#
#
#
# Elastic Compliance Matrix: (Units=1/GPa)
#
#
# Indices 1 2 3 4 5 6 
#
# 1 0.011984 -0.010717 0.000599 0.000000 0.000000 0.000000
# 2 -0.010717 0.052006 -0.007895 0.000000 0.000000 0.000000
# 3 0.000599 -0.007895 0.013562 0.000000 0.000000 0.000000
# 4 0.000000 0.000000 0.000000 0.124132 0.000000 0.000000
# 5 0.000000 0.000000 0.000000 0.000000 0.032617 0.000000
# 6 0.000000 0.000000 0.000000 0.000000 0.000000 0.039865
#
#
# Mechanical properties :
#
#
# Convention : Reuss Voigt Hill
#
# Bulk Modulus (GPa) = 24.08174 33.49410 28.78792
# Shear Modulus (GPa) = 15.43048 23.79456 19.61252
#
# Velocity S-wave (km/s) = 2.50646 3.11250 2.82577
# Velocity P-wave (km/s) = 4.26392 5.15302 4.72941
#
# Compressibility (1/GPa) = 0.04152523
#
# Stress axis : x y z
#
# Youngs Moduli (GPa) = 83.44807 19.22845 73.73475
#
# Poissons Ratio (x) = 0.20607 -0.04415
# Poissons Ratio (y) = 0.89430 0.58215
# Poissons Ratio (z) = -0.04997 0.15181
#
# Static dielectric constant tensor:
#      x y z
#    x 4.342500 0.000000 0.000000 
#    y 0.000000 2.478370 0.000000 
#    z 0.000000 0.000000 1.921480 
# 
# From -- ./inp_files/25443.got.cif
#   From: 2010.05.17/outbox.cif.g08.bks.cpg/sg73_13_cif.got.tgz:25443.got - 2010.06.03 17:35:07.
