data_PCOD9530567
_publ_section_title
;
Structure prediction by ZEFSAII (Michael W. Deem and Ramdas Pophale) SiO2 
 PCOD9530567
Probable space group: I B C A 
;
_chemical_formula_sum "Si O2"
_cell_formula_units_Z 72
_cell_length_a 24.084872
_cell_length_b 5.034662
_cell_length_c 30.373583
_cell_angle_alpha 90.000000
_cell_angle_beta 90.000000
_cell_angle_gamma 90.000000
_cell_volume 3683.076067
_symmetry_space_group_name_H-M "I B C A "
_symmetry_group_IT_number 73
_symmetry_cell_setting 'orthorhombic'
loop_
_space_group_symop_operation_xyz
x,y,z
-x,1/2-y,z
x,-y,1/2-z
1/2-x,y,-z
-x,-y,-z
x,1/2+y,-z
-x,y,1/2+z
1/2+x,-y,z
1/2+x,1/2+y,1/2+z
1/2-x,-y,1/2+z
1/2+x,1/2-y,-z
-x,1/2+y,1/2-z
1/2-x,1/2-y,1/2-z
1/2+x,y,1/2-z
1/2-x,1/2+y,z
x,1/2-y,1/2+z
loop_
_atom_site_type_symbol
_atom_site_label
_atom_site_fract_x
_atom_site_fract_y
_atom_site_fract_z
Si Si1 0.065745 0.234053 0.529417
Si Si2 0.934642 0.262052 0.325827
Si Si3 0.110563 0.730290 0.375603
Si Si4 0.286301 0.716699 0.180179
Si Si5 0.862483 0.000000 0.250000
O O1 0.076929 0.447935 0.491437
O O2 0.099191 0.288833 0.573722
O O3 0.000000 0.250000 0.540440
O O4 0.917056 0.548057 0.344071
O O5 0.900426 0.170750 0.283016
O O6 0.000000 0.250000 0.317286
O O7 0.917613 0.048629 0.363071
O O8 0.174959 0.727325 0.361899
O O9 0.266305 0.414137 0.180793
O O10 0.323601 0.806547 0.221401
#
# Coordination Sequence:
#
# PCOD9530567 Si02
#       5
#    16  16  16  16   8
#     4  10  20  35  60  90 118 147 181 227 286 354
#     4  11  23  38  58  85 123 160 192 233 287 357
#     4  11  23  40  60  87 118 156 196 236 292 347
#     4  11  23  40  60  81 111 151 201 252 289 328
#     4  10  24  38  58  86 114 154 202 246 294 338
#
# _framework density 19.548876
#
# number of rings (size 3 to 8) (size 9 to 14) (size 15 to 20)
#    0.000    1.333    0.000    6.667    0.000   12.444 
#    0.000    0.000    0.000    4.000    0.000    0.000 
#    0.000    0.000    0.000    0.000    0.000    0.000 
#
# Total GULP energy -201476.741648 kJ/mol
# GULP energy per Si atom -5596.576157 kJ/mol
# Density = 1.950438 g / cm^3
# Si number density = 19.548876 Si / 1000 Ang^3
#
#
#
# Elastic Constant Matrix: (Units=GPa)
#
#
# Indices 1 2 3 4 5 6 
#
# 1 76.5051 -6.4087 28.1867 0.0000 0.0000 0.0000
# 2 -6.4087 50.4930 -19.3974 0.0000 0.0000 0.0000
# 3 28.1867 -19.3974 95.1844 0.0000 0.0000 0.0000
# 4 0.0000 0.0000 0.0000 10.2700 0.0000 0.0000
# 5 0.0000 0.0000 0.0000 0.0000 14.7046 0.0000
# 6 0.0000 0.0000 0.0000 0.0000 0.0000 21.5677
#
#
#
# Elastic Compliance Matrix: (Units=1/GPa)
#
#
# Indices 1 2 3 4 5 6 
#
# 1 0.014674 0.000210 -0.004303 0.000000 0.000000 0.000000
# 2 0.000210 0.021490 0.004317 0.000000 0.000000 0.000000
# 3 -0.004303 0.004317 0.012660 0.000000 0.000000 0.000000
# 4 0.000000 0.000000 0.000000 0.097371 0.000000 0.000000
# 5 0.000000 0.000000 0.000000 0.000000 0.068006 0.000000
# 6 0.000000 0.000000 0.000000 0.000000 0.000000 0.046366
#
#
# Mechanical properties :
#
#
# Convention : Reuss Voigt Hill
#
# Bulk Modulus (GPa) = 20.29548 25.21595 22.75572
# Shear Modulus (GPa) = 18.08049 23.96193 21.02121
#
# Velocity S-wave (km/s) = 3.04449 3.50486 3.28276
# Velocity P-wave (km/s) = 4.77106 5.41347 5.10239
#
# Compressibility (1/GPa) = 0.04927205
#
# Stress axis : x y z
#
# Youngs Moduli (GPa) = 68.14874 46.53356 78.98987
#
# Poissons Ratio (x) = -0.00975 0.33986
# Poissons Ratio (y) = -0.01428 -0.34102
# Poissons Ratio (z) = 0.29322 -0.20090
#
# Static dielectric constant tensor:
#      x y z
#    x 1.687520 0.000000 0.000000 
#    y 0.000000 1.679870 0.000000 
#    z 0.000000 0.000000 1.650570 
# 
# From -- ./inp_files/2535.got.cif
#   From: 2010.05.17/outbox.cif.g08.bks.cpg/sg73_2_cif.got.tgz:2535.got - 2010.06.03 17:35:07.
