data_PCOD9530789
_publ_section_title
;
Structure prediction by ZEFSAII (Michael W. Deem and Ramdas Pophale) SiO2 
 PCOD9530789
Probable space group: I B C A 
;
_chemical_formula_sum "Si O2"
_cell_formula_units_Z 80
_cell_length_a 14.267555
_cell_length_b 9.943252
_cell_length_c 25.921279
_cell_angle_alpha 90.000000
_cell_angle_beta 90.000000
_cell_angle_gamma 90.000000
_cell_volume 3677.345439
_symmetry_space_group_name_H-M "I B C A "
_symmetry_group_IT_number 73
_symmetry_cell_setting 'orthorhombic'
loop_
_space_group_symop_operation_xyz
x,y,z
-x,1/2-y,z
x,-y,1/2-z
1/2-x,y,-z
-x,-y,-z
x,1/2+y,-z
-x,y,1/2+z
1/2+x,-y,z
1/2+x,1/2+y,1/2+z
1/2-x,-y,1/2+z
1/2+x,1/2-y,-z
-x,1/2+y,1/2-z
1/2-x,1/2-y,1/2-z
1/2+x,y,1/2-z
1/2-x,1/2+y,z
x,1/2-y,1/2+z
loop_
_atom_site_type_symbol
_atom_site_label
_atom_site_fract_x
_atom_site_fract_y
_atom_site_fract_z
Si Si1 0.460721 0.606727 0.960111
Si Si2 0.564782 0.433423 0.647975
Si Si3 0.802610 0.305444 0.891638
Si Si4 0.379321 0.496192 0.692168
Si Si5 0.398096 0.268457 0.369314
O O1 0.500000 0.750000 0.976527
O O2 0.506593 0.567710 0.905403
O O3 0.353900 0.636408 0.942596
O O4 0.500000 0.500000 0.000000
O O5 0.641191 0.319154 0.635527
O O6 0.480981 0.419768 0.689626
O O7 0.603616 0.582902 0.655023
O O8 0.812749 0.420223 0.848111
O O9 0.696267 0.263019 0.902627
O O10 0.343169 0.500000 0.750000
O O11 0.392990 0.647718 0.671621
O O12 0.500000 0.250000 0.395391
#
# Coordination Sequence:
#
# PCOD9530789 Si02
#       5
#    16  16  16  16  16
#     4   9  19  36  61  90 117 147 190 248 315 384
#     4   9  20  37  58  84 118 157 200 257 319 383
#     4  10  20  38  59  84 120 160 203 256 317 383
#     4  10  21  36  57  88 122 162 211 264 320 378
#     4  10  21  37  58  84 118 165 214 260 311 369
#
# _framework density 21.754822000000001
#
# number of rings (size 3 to 8) (size 9 to 14) (size 15 to 20)
#    0.000    2.400    0.000    3.000    0.000    9.600 
#    0.000    6.000    0.000    4.800    0.000    0.000 
#    0.000    0.000    0.000    0.000    0.000    0.400 
#
# Total GULP energy -222852.945954 kJ/mol
# GULP energy per Si atom -5571.323649 kJ/mol
# Density = 2.170531 g / cm^3
# Si number density = 21.754822 Si / 1000 Ang^3
#
#
#
# Elastic Constant Matrix: (Units=GPa)
#
#
# Indices 1 2 3 4 5 6 
#
# 1 169.3008 28.4186 26.0408 0.0000 0.0000 0.0000
# 2 28.4186 138.4903 23.7644 0.0000 0.0000 0.0000
# 3 26.0408 23.7644 74.7610 0.0000 0.0000 0.0000
# 4 0.0000 0.0000 0.0000 20.6717 0.0000 0.0000
# 5 0.0000 0.0000 0.0000 0.0000 6.1628 0.0000
# 6 0.0000 0.0000 0.0000 0.0000 0.0000 22.5094
#
#
#
# Elastic Compliance Matrix: (Units=1/GPa)
#
#
# Indices 1 2 3 4 5 6 
#
# 1 0.006364 -0.000979 -0.001906 0.000000 0.000000 0.000000
# 2 -0.000979 0.007788 -0.002135 0.000000 0.000000 0.000000
# 3 -0.001906 -0.002135 0.014718 0.000000 0.000000 0.000000
# 4 0.000000 0.000000 0.000000 0.048375 0.000000 0.000000
# 5 0.000000 0.000000 0.000000 0.000000 0.162264 0.000000
# 6 0.000000 0.000000 0.000000 0.000000 0.000000 0.044426
#
#
# Mechanical properties :
#
#
# Convention : Reuss Voigt Hill
#
# Bulk Modulus (GPa) = 53.10094 59.88885 56.49490
# Shear Modulus (GPa) = 16.65276 30.15733 23.40505
#
# Velocity S-wave (km/s) = 2.76972 3.72726 3.28358
# Velocity P-wave (km/s) = 5.88985 6.79059 6.35619
#
# Compressibility (1/GPa) = 0.01883206
#
# Stress axis : x y z
#
# Youngs Moduli (GPa) = 157.13206 128.40453 67.94295
#
# Poissons Ratio (x) = 0.12570 0.12947
# Poissons Ratio (y) = 0.15382 0.14503
# Poissons Ratio (z) = 0.29943 0.27409
#
# Static dielectric constant tensor:
#      x y z
#    x 1.989920 0.000000 0.000000 
#    y 0.000000 1.726570 0.000000 
#    z 0.000000 0.000000 1.822450 
# 
# From -- ./inp_files/29336.got.cif
#   From: 2010.05.17/outbox.cif.g08.bks.cpg/sg73_15_cif.got.tgz:29336.got - 2010.06.03 17:35:07.
