data_PCOD9530902
_publ_section_title
;
Structure prediction by ZEFSAII (Michael W. Deem and Ramdas Pophale) SiO2 
 PCOD9530902
Probable space group: I B C A 
;
_chemical_formula_sum "Si O2"
_cell_formula_units_Z 112
_cell_length_a 16.693664
_cell_length_b 16.877409
_cell_length_c 22.042258
_cell_angle_alpha 90.000000
_cell_angle_beta 90.000000
_cell_angle_gamma 90.000000
_cell_volume 6210.313505
_symmetry_space_group_name_H-M "I B C A "
_symmetry_group_IT_number 73
_symmetry_cell_setting 'orthorhombic'
loop_
_space_group_symop_operation_xyz
x,y,z
-x,1/2-y,z
x,-y,1/2-z
1/2-x,y,-z
-x,-y,-z
x,1/2+y,-z
-x,y,1/2+z
1/2+x,-y,z
1/2+x,1/2+y,1/2+z
1/2-x,-y,1/2+z
1/2+x,1/2-y,-z
-x,1/2+y,1/2-z
1/2-x,1/2-y,1/2-z
1/2+x,y,1/2-z
1/2-x,1/2+y,z
x,1/2-y,1/2+z
loop_
_atom_site_type_symbol
_atom_site_label
_atom_site_fract_x
_atom_site_fract_y
_atom_site_fract_z
Si Si1 0.321824 0.407685 0.151531
Si Si2 0.587205 0.208917 0.381145
Si Si3 0.695221 0.177098 0.269578
Si Si4 0.310474 0.963986 0.311839
Si Si5 0.608121 0.002803 0.935069
Si Si6 0.418558 0.530886 0.069638
Si Si7 0.704947 0.168212 0.937102
O O1 0.349357 0.365469 0.213067
O O2 0.255444 0.469943 0.173274
O O3 0.379912 0.460166 0.109597
O O4 0.274447 0.342341 0.112696
O O5 0.500000 0.250000 0.381101
O O6 0.628938 0.207977 0.315807
O O7 0.587829 0.117687 0.401613
O O8 0.645463 0.260438 0.423467
O O9 0.750000 0.250000 0.250000
O O10 0.758675 0.114388 0.298228
O O11 0.351292 0.000000 0.250000
O O12 0.362955 0.958697 0.373480
O O13 0.512970 0.013799 0.933054
O O14 0.653112 0.087352 0.935481
O O15 0.621586 0.967152 0.002513
O O16 0.750000 0.176354 0.000000
#
# Coordination Sequence:
#
# PCOD9530902 Si02
#       7
#    16  16  16  16  16  16  16
#     4  10  20  39  63  90 117 164 211 257 308 374
#     4  12  25  41  62  95 130 168 210 262 329 383
#     4  11  22  41  64  86 130 167 209 261 314 379
#     4   9  20  37  61  91 119 156 210 253 299 375
#     4  10  22  40  65  92 123 164 209 264 315 374
#     4  11  22  41  65  90 129 164 209 265 321 380
#     4  11  21  39  64  91 126 163 210 262 318 382
#
# _framework density 18.034517000000001
#
# number of rings (size 3 to 8) (size 9 to 14) (size 15 to 20)
#    0.000    1.429    5.714    0.000    0.000    1.143 
#    5.143    0.000    0.000    0.857    0.000    0.000 
#    0.000    0.000    0.000    0.000    0.000    0.000 
#
# Total GULP energy -312086.517086 kJ/mol
# GULP energy per Si atom -5572.973519 kJ/mol
# Density = 1.799347 g / cm^3
# Si number density = 18.034517 Si / 1000 Ang^3
#
#
#
# Elastic Constant Matrix: (Units=GPa)
#
#
# Indices 1 2 3 4 5 6 
#
# 1 71.8193 22.5126 43.4653 0.0000 0.0000 0.0000
# 2 22.5126 49.8879 17.8562 0.0000 0.0000 0.0000
# 3 43.4653 17.8562 112.6547 0.0000 0.0000 0.0000
# 4 0.0000 0.0000 0.0000 4.7924 0.0000 0.0000
# 5 0.0000 0.0000 0.0000 0.0000 29.5704 0.0000
# 6 0.0000 0.0000 0.0000 0.0000 0.0000 -6.7520
#
#
#
# Elastic Compliance Matrix: (Units=1/GPa)
#
#
# Indices 1 2 3 4 5 6 
#
# 1 0.020055 -0.006658 -0.006683 0.000000 0.000000 0.000000
# 2 -0.006658 0.023461 -0.001150 0.000000 0.000000 0.000000
# 3 -0.006683 -0.001150 0.011637 0.000000 0.000000 0.000000
# 4 0.000000 0.000000 0.000000 0.208664 0.000000 0.000000
# 5 0.000000 0.000000 0.000000 0.000000 0.033818 0.000000
# 6 0.000000 0.000000 0.000000 0.000000 0.000000 -0.148105
#
#
# Mechanical properties :
#
#
# Convention : Reuss Voigt Hill
#
# Bulk Modulus (GPa) = 38.20810 44.67003 41.43906
# Shear Modulus (GPa) = 26.70433 15.55735 21.13084
#
# Velocity S-wave (km/s) = 3.85221 2.94027 3.42671
# Velocity P-wave (km/s) = 6.40454 6.02908 6.21964
#
# Compressibility (1/GPa) = 0.02617246
#
# Stress axis : x y z
#
# Youngs Moduli (GPa) = 49.86223 42.62369 85.93123
#
# Poissons Ratio (x) = 0.28380 0.57424
# Poissons Ratio (y) = 0.33200 0.09879
# Poissons Ratio (z) = 0.33320 0.04900
#
# Static dielectric constant tensor:
#      x y z
#    x 1.600150 0.000000 0.000000 
#    y 0.000000 1.663500 0.000000 
#    z 0.000000 0.000000 1.704210 
# 
# From -- ./inp_files/26618.got.cif
#   From: 2010.05.17/outbox.cif.g08.bks.cpg/sg73_14_cif.got.tgz:26618.got - 2010.06.03 17:35:07.
