data_PCOD9530887
_publ_section_title
;
Structure prediction by ZEFSAII (Michael W. Deem and Ramdas Pophale) SiO2 
 PCOD9530887
Probable space group: I B C A 
;
_chemical_formula_sum "Si O2"
_cell_formula_units_Z 112
_cell_length_a 28.434111
_cell_length_b 12.443457
_cell_length_c 13.891960
_cell_angle_alpha 90.000000
_cell_angle_beta 90.000000
_cell_angle_gamma 90.000000
_cell_volume 4915.234360
_symmetry_space_group_name_H-M "I B C A "
_symmetry_group_IT_number 73
_symmetry_cell_setting 'orthorhombic'
loop_
_space_group_symop_operation_xyz
x,y,z
-x,1/2-y,z
x,-y,1/2-z
1/2-x,y,-z
-x,-y,-z
x,1/2+y,-z
-x,y,1/2+z
1/2+x,-y,z
1/2+x,1/2+y,1/2+z
1/2-x,-y,1/2+z
1/2+x,1/2-y,-z
-x,1/2+y,1/2-z
1/2-x,1/2-y,1/2-z
1/2+x,y,1/2-z
1/2-x,1/2+y,z
x,1/2-y,1/2+z
loop_
_atom_site_type_symbol
_atom_site_label
_atom_site_fract_x
_atom_site_fract_y
_atom_site_fract_z
Si Si1 0.482253 0.934224 0.093634
Si Si2 0.568681 0.795291 0.126125
Si Si3 0.790613 0.107956 0.935689
Si Si4 0.653099 0.213017 0.512274
Si Si5 0.586886 0.500000 0.250000
Si Si6 0.726462 0.805093 0.136246
Si Si7 0.640876 0.210348 0.739030
Si Si8 0.221421 0.000000 0.250000
O O1 0.530236 0.887212 0.138491
O O2 0.453600 0.819361 0.089866
O O3 0.449043 0.009228 0.159834
O O4 0.500000 0.000000 0.000000
O O5 0.597287 0.783231 0.225612
O O6 0.607173 0.820541 0.044709
O O7 0.832717 0.159668 0.996411
O O8 0.761564 0.211706 0.894579
O O9 0.806921 0.047642 0.840060
O O10 0.750000 0.053756 0.000000
O O11 0.696964 0.157482 0.457660
O O12 0.647287 0.199158 0.625342
O O13 0.622109 0.596004 0.227084
O O14 0.686178 0.754488 0.204959
O O15 0.748425 0.903543 0.196415
#
# Coordination Sequence:
#
# PCOD9530887 Si02
#       8
#    16  16  16  16   8  16  16   8
#     4  10  20  39  61  87 121 157 208 254 317 393
#     4   9  21  38  59  89 123 158 199 264 319 378
#     4  10  23  42  63  91 128 171 218 264 323 386
#     4  10  20  41  62  84 126 162 204 259 323 379
#     4  10  22  37  61  94 116 160 218 250 325 409
#     4  10  23  42  61  91 126 168 214 266 321 382
#     4  10  20  40  59  88 126 162 204 267 321 382
#     4  12  22  41  63  96 124 164 226 266 315 383
#
# _framework density 22.786300000000001
#
# number of rings (size 3 to 8) (size 9 to 14) (size 15 to 20)
#    0.000    2.000    1.429    1.286    0.000    3.429 
#   15.429    5.714    0.000    0.000    0.000    0.000 
#    0.000    0.000    0.000    0.000    0.000    0.000 
#
# Total GULP energy -311994.353282 kJ/mol
# GULP energy per Si atom -5571.327737 kJ/mol
# Density = 2.273444 g / cm^3
# Si number density = 22.786300 Si / 1000 Ang^3
#
#
#
# Elastic Constant Matrix: (Units=GPa)
#
#
# Indices 1 2 3 4 5 6 
#
# 1 87.0657 20.7102 21.8689 0.0000 0.0000 0.0000
# 2 20.7102 55.0799 21.2526 0.0000 0.0000 0.0000
# 3 21.8689 21.2526 132.7627 0.0000 0.0000 0.0000
# 4 0.0000 0.0000 0.0000 48.1904 0.0000 0.0000
# 5 0.0000 0.0000 0.0000 0.0000 37.2785 0.0000
# 6 0.0000 0.0000 0.0000 0.0000 0.0000 17.8721
#
#
#
# Elastic Compliance Matrix: (Units=1/GPa)
#
#
# Indices 1 2 3 4 5 6 
#
# 1 0.012865 -0.004284 -0.001433 0.000000 0.000000 0.000000
# 2 -0.004284 0.020777 -0.002620 0.000000 0.000000 0.000000
# 3 -0.001433 -0.002620 0.008188 0.000000 0.000000 0.000000
# 4 0.000000 0.000000 0.000000 0.020751 0.000000 0.000000
# 5 0.000000 0.000000 0.000000 0.000000 0.026825 0.000000
# 6 0.000000 0.000000 0.000000 0.000000 0.000000 0.055953
#
#
# Mechanical properties :
#
#
# Convention : Reuss Voigt Hill
#
# Bulk Modulus (GPa) = 39.75464 44.73020 42.24242
# Shear Modulus (GPa) = 29.33938 34.73996 32.03967
#
# Velocity S-wave (km/s) = 3.59219 3.90885 3.75386
# Velocity P-wave (km/s) = 5.88980 6.32811 6.11289
#
# Compressibility (1/GPa) = 0.02515429
#
# Stress axis : x y z
#
# Youngs Moduli (GPa) = 77.73249 48.12940 122.13300
#
# Poissons Ratio (x) = 0.20619 0.17505
# Poissons Ratio (y) = 0.33301 0.32003
# Poissons Ratio (z) = 0.11141 0.12612
#
# Static dielectric constant tensor:
#      x y z
#    x 1.886250 0.000000 0.000000 
#    y 0.000000 1.956700 0.000000 
#    z 0.000000 0.000000 1.906110 
# 
# From -- ./inp_files/20065.got.cif
#   From: 2010.05.17/outbox.cif.g08.bks.cpg/sg73_11_cif.got.tgz:20065.got - 2010.06.03 17:35:07.
