data_PCOD9530350
_publ_section_title
;
Structure prediction by ZEFSAII (Michael W. Deem and Ramdas Pophale) SiO2 
 PCOD9530350
Probable space group: I B C A 
;
_chemical_formula_sum "Si O2"
_cell_formula_units_Z 128
_cell_length_a 16.877037
_cell_length_b 22.314975
_cell_length_c 18.139761
_cell_angle_alpha 90.000000
_cell_angle_beta 90.000000
_cell_angle_gamma 90.000000
_cell_volume 6831.627339
_symmetry_space_group_name_H-M "I B C A "
_symmetry_group_IT_number 73
_symmetry_cell_setting 'orthorhombic'
loop_
_space_group_symop_operation_xyz
x,y,z
-x,1/2-y,z
x,-y,1/2-z
1/2-x,y,-z
-x,-y,-z
x,1/2+y,-z
-x,y,1/2+z
1/2+x,-y,z
1/2+x,1/2+y,1/2+z
1/2-x,-y,1/2+z
1/2+x,1/2-y,-z
-x,1/2+y,1/2-z
1/2-x,1/2-y,1/2-z
1/2+x,y,1/2-z
1/2-x,1/2+y,z
x,1/2-y,1/2+z
loop_
_atom_site_type_symbol
_atom_site_label
_atom_site_fract_x
_atom_site_fract_y
_atom_site_fract_z
Si Si1 0.578436 0.937745 0.569790
Si Si2 0.756011 0.765676 0.163618
Si Si3 0.438693 0.977001 0.667963
Si Si4 0.822655 0.175132 0.053469
Si Si5 0.471502 0.596940 0.411170
Si Si6 0.861131 0.071698 0.444677
Si Si7 0.411816 0.723604 0.416102
Si Si8 0.693188 0.393242 0.893920
O O1 0.518538 0.947110 0.636692
O O2 0.641150 0.885979 0.583729
O O3 0.531571 0.912447 0.499190
O O4 0.614713 0.001945 0.547117
O O5 0.750000 0.750000 0.250000
O O6 0.708229 0.715555 0.118858
O O7 0.845960 0.759326 0.130923
O O8 0.715817 0.828617 0.139555
O O9 0.366769 0.931556 0.655551
O O10 0.447022 0.000000 0.750000
O O11 0.431427 0.037816 0.620860
O O12 0.750000 0.158906 0.000000
O O13 0.880131 0.213738 0.999697
O O14 0.565944 0.599707 0.398284
O O15 0.424071 0.655496 0.387498
O O16 0.845618 0.104880 0.523275
O O17 0.777831 0.074693 0.403383
O O18 0.500000 0.750000 0.416063
#
# Coordination Sequence:
#
# PCOD9530350 Si02
#       8
#    16  16  16  16  16  16  16  16
#     4  10  19  41  62  95 124 155 207 265 319 375
#     4  11  26  45  58  91 134 175 211 260 318 396
#     4  11  23  40  61  92 131 166 202 258 325 388
#     4   9  22  39  67  88 123 165 213 267 318 379
#     4  10  19  39  65  91 124 154 215 265 316 373
#     4  10  20  35  67  94 116 155 209 273 311 368
#     4  10  22  39  68  94 119 165 221 271 314 370
#     4  11  23  37  64  88 126 165 212 259 321 372
#
# _framework density 18.736384999999999
#
# number of rings (size 3 to 8) (size 9 to 14) (size 15 to 20)
#    0.000    1.750    2.500    1.500   10.500    1.000 
#    6.750    1.250    0.000    0.000    0.000    0.000 
#    0.000    0.000    0.000    0.000    0.000    0.000 
#
# Total GULP energy -356871.239804 kJ/mol
# GULP energy per Si atom -5576.113122 kJ/mol
# Density = 1.869374 g / cm^3
# Si number density = 18.736385 Si / 1000 Ang^3
#
#
#
# Elastic Constant Matrix: (Units=GPa)
#
#
# Indices 1 2 3 4 5 6 
#
# 1 103.0377 79.1097 54.2181 0.0000 0.0000 0.0000
# 2 79.1097 117.8459 46.9431 0.0000 0.0000 0.0000
# 3 54.2181 46.9431 94.2983 0.0001 0.0000 0.0000
# 4 0.0000 0.0000 0.0001 12.9451 0.0000 0.0000
# 5 0.0000 0.0000 0.0000 0.0000 8.9290 0.0000
# 6 0.0000 0.0000 0.0000 0.0000 0.0000 42.1283
#
#
#
# Elastic Compliance Matrix: (Units=1/GPa)
#
#
# Indices 1 2 3 4 5 6 
#
# 1 0.023195 -0.012796 -0.006966 0.000000 0.000000 0.000000
# 2 -0.012796 0.017644 -0.001426 0.000000 0.000000 0.000000
# 3 -0.006966 -0.001426 0.015320 0.000000 0.000000 0.000000
# 4 0.000000 0.000000 0.000000 0.077249 0.000000 0.000000
# 5 0.000000 0.000000 0.000000 0.000000 0.111995 0.000000
# 6 0.000000 0.000000 0.000000 0.000000 0.000000 0.023737
#
#
# Mechanical properties :
#
#
# Convention : Reuss Voigt Hill
#
# Bulk Modulus (GPa) = 72.55813 75.08039 73.81926
# Shear Modulus (GPa) = 15.81725 21.79455 18.80590
#
# Velocity S-wave (km/s) = 2.90866 3.41430 3.17158
# Velocity P-wave (km/s) = 7.07745 7.46339 7.27298
#
# Compressibility (1/GPa) = 0.01378205
#
# Stress axis : x y z
#
# Youngs Moduli (GPa) = 43.11234 56.67797 65.27412
#
# Poissons Ratio (x) = 0.72524 0.45473
# Poissons Ratio (y) = 0.55166 0.09308
# Poissons Ratio (z) = 0.30034 0.08083
#
# Static dielectric constant tensor:
#      x y z
#    x 1.687710 0.000000 0.000000 
#    y 0.000000 1.659070 0.000000 
#    z 0.000000 0.000000 1.653300 
# 
# From -- ./inp_files/22858.got.cif
#   From: 2010.05.17/outbox.cif.g08.bks.cpg/sg73_12_cif.got.tgz:22858.got - 2010.06.03 17:35:07.
