data_PCOD9530594
_publ_section_title
;
Structure prediction by ZEFSAII (Michael W. Deem and Ramdas Pophale) SiO2 
 PCOD9530594
Probable space group: I B C A 
;
_chemical_formula_sum "Si O2"
_cell_formula_units_Z 72
_cell_length_a 13.499445
_cell_length_b 30.445781
_cell_length_c 8.400233
_cell_angle_alpha 90.000000
_cell_angle_beta 90.000000
_cell_angle_gamma 90.000000
_cell_volume 3452.505390
_symmetry_space_group_name_H-M "I B C A "
_symmetry_group_IT_number 73
_symmetry_cell_setting 'orthorhombic'
loop_
_space_group_symop_operation_xyz
x,y,z
-x,1/2-y,z
x,-y,1/2-z
1/2-x,y,-z
-x,-y,-z
x,1/2+y,-z
-x,y,1/2+z
1/2+x,-y,z
1/2+x,1/2+y,1/2+z
1/2-x,-y,1/2+z
1/2+x,1/2-y,-z
-x,1/2+y,1/2-z
1/2-x,1/2-y,1/2-z
1/2+x,y,1/2-z
1/2-x,1/2+y,z
x,1/2-y,1/2+z
loop_
_atom_site_type_symbol
_atom_site_label
_atom_site_fract_x
_atom_site_fract_y
_atom_site_fract_z
Si Si1 0.844196 0.216052 0.765763
Si Si2 0.575935 0.043623 0.352235
Si Si3 0.500000 0.750000 0.518317
Si Si4 0.363532 0.046011 0.222178
Si Si5 0.280956 0.878988 0.686116
O O1 0.750000 0.250000 0.750000
O O2 0.925482 0.220537 0.623870
O O3 0.917710 0.224670 0.913746
O O4 0.798228 0.167775 0.763757
O O5 0.458811 0.046288 0.332931
O O6 0.606909 0.042751 0.536450
O O7 0.624741 0.089004 0.294412
O O8 0.601356 0.000000 0.250000
O O9 0.304701 0.090088 0.253831
O O10 0.308239 0.000000 0.250000
O O11 0.250000 0.872143 0.500000
#
# Coordination Sequence:
#
# PCOD9530594 Si02
#       5
#    16  16   8  16  16
#     4  11  23  44  66  93 127 161 206 259 311 373
#     4  10  20  36  56  82 116 155 196 244 294 356
#     4  10  24  42  68  92 122 166 204 252 318 372
#     4  10  20  37  58  83 116 156 197 245 300 357
#     4  10  22  37  59  86 118 154 197 248 301 358
#
# _framework density 20.854420000000001
#
# number of rings (size 3 to 8) (size 9 to 14) (size 15 to 20)
#    0.000    1.778    0.000    5.333    0.000    7.111 
#    0.000   10.000    0.000    0.000    0.000    0.000 
#    0.000    0.000    0.000    0.000    0.000    0.000 
#
# Total GULP energy -200698.305342 kJ/mol
# GULP energy per Si atom -5574.952926 kJ/mol
# Density = 2.080695 g / cm^3
# Si number density = 20.854420 Si / 1000 Ang^3
#
#
#
# Elastic Constant Matrix: (Units=GPa)
#
#
# Indices 1 2 3 4 5 6 
#
# 1 141.9762 74.0198 17.0472 -0.0017 0.0005 0.0016
# 2 74.0198 199.4574 36.5144 -0.0004 0.0003 0.0019
# 3 17.0472 36.5144 44.9360 0.0031 -0.0017 0.0040
# 4 -0.0017 -0.0004 0.0031 -25.1671 -0.0003 -0.0048
# 5 0.0005 0.0003 -0.0017 -0.0003 13.2912 -0.0017
# 6 0.0016 0.0019 0.0040 -0.0048 -0.0017 -26.9755
#
#
#
# Elastic Compliance Matrix: (Units=1/GPa)
#
#
# Indices 1 2 3 4 5 6 
#
# 1 0.008758 -0.003103 -0.000801 -0.000001 0.000000 0.000000
# 2 -0.003103 0.006990 -0.004502 0.000000 -0.000001 0.000000
# 3 -0.000801 -0.004502 0.026216 0.000003 0.000004 0.000004
# 4 -0.000001 0.000000 0.000003 -0.039734 -0.000001 0.000007
# 5 0.000000 -0.000001 0.000004 -0.000001 0.075238 -0.000005
# 6 0.000000 0.000000 0.000004 0.000007 -0.000005 -0.037071
#
#
# Mechanical properties :
#
#
# Convention : Reuss Voigt Hill
#
# Bulk Modulus (GPa) = 39.76028 71.28138 55.52083
# Shear Modulus (GPa) = 76.22880 9.48225 42.85552
#
# Velocity S-wave (km/s) = 6.05245 2.13465 4.53811
# Velocity P-wave (km/s) = 8.24317 6.35062 7.35800
#
# Compressibility (1/GPa) = 0.02515073
#
# Stress axis : x y z
#
# Youngs Moduli (GPa) = 114.18742 143.07122 38.14454
#
# Poissons Ratio (x) = 0.44401 0.03053
# Poissons Ratio (y) = 0.35437 0.17174
# Poissons Ratio (z) = 0.09141 0.64415
#
# Static dielectric constant tensor:
#      x y z
#    x 1.758010 0.000000 0.000000 
#    y 0.000000 1.722970 0.000000 
#    z 0.000000 0.000000 1.823910 
# 
# From -- ./inp_files/4799.got.cif
#   From: 2010.05.17/outbox.cif.g08.bks.cpg/sg73_3_cif.got.tgz:4799.got - 2010.06.03 17:35:07.
