data_PCOD9530072
_publ_section_title
;
Structure prediction by ZEFSAII (Michael W. Deem and Ramdas Pophale) SiO2 
 PCOD9530072
Probable space group: I B C A 
;
_chemical_formula_sum "Si O2"
_cell_formula_units_Z 72
_cell_length_a 5.337753
_cell_length_b 23.744737
_cell_length_c 30.426000
_cell_angle_alpha 90.000000
_cell_angle_beta 90.000000
_cell_angle_gamma 90.000000
_cell_volume 3856.298983
_symmetry_space_group_name_H-M "I B C A "
_symmetry_group_IT_number 73
_symmetry_cell_setting 'orthorhombic'
loop_
_space_group_symop_operation_xyz
x,y,z
-x,1/2-y,z
x,-y,1/2-z
1/2-x,y,-z
-x,-y,-z
x,1/2+y,-z
-x,y,1/2+z
1/2+x,-y,z
1/2+x,1/2+y,1/2+z
1/2-x,-y,1/2+z
1/2+x,1/2-y,-z
-x,1/2+y,1/2-z
1/2-x,1/2-y,1/2-z
1/2+x,y,1/2-z
1/2-x,1/2+y,z
x,1/2-y,1/2+z
loop_
_atom_site_type_symbol
_atom_site_label
_atom_site_fract_x
_atom_site_fract_y
_atom_site_fract_z
Si Si1 0.514635 0.023748 0.949693
Si Si2 0.000000 0.750000 0.975933
Si Si3 0.292941 0.314280 0.732562
Si Si4 0.436914 0.853136 0.084829
Si Si5 0.951137 0.815773 0.131092
O O1 0.558683 0.089644 0.943214
O O2 0.749970 0.992134 0.928926
O O3 0.500000 0.000000 0.000000
O O4 0.896228 0.698736 0.947638
O O5 0.750000 0.771894 0.000000
O O6 0.250000 0.250000 0.750000
O O7 0.517788 0.340160 0.761224
O O8 0.385434 0.315240 0.682696
O O9 0.706536 0.840881 0.107023
O O10 0.203448 0.849544 0.118552
O O11 0.000000 0.750000 0.118942
#
# Coordination Sequence:
#
# PCOD9530072 Si02
#       5
#    16   8  16  16  16
#     4  10  23  42  64  82 105 149 213 274 308 351
#     4  12  26  36  56  80 120 154 196 240 302 394
#     4  10  19  30  53  83 123 176 199 217 264 360
#     4  12  25  40  58  87 120 160 203 254 317 361
#     4  12  21  37  56  88 133 168 187 236 298 367
#
# _framework density 18.670752
#
# number of rings (size 3 to 8) (size 9 to 14) (size 15 to 20)
#    0.000    0.889    4.444    4.000    9.333    0.000 
#    0.000    0.000    0.000    0.000    0.000    0.000 
#    0.000   62.222    0.000    0.000    0.000    0.000 
#
# Total GULP energy -200681.735420 kJ/mol
# GULP energy per Si atom -5574.492651 kJ/mol
# Density = 1.862826 g / cm^3
# Si number density = 18.670752 Si / 1000 Ang^3
#
#
#
# Elastic Constant Matrix: (Units=GPa)
#
#
# Indices 1 2 3 4 5 6 
#
# 1 175.3591 16.1302 33.9763 0.0000 0.0000 0.0000
# 2 16.1302 95.0532 33.0232 0.0000 0.0000 0.0000
# 3 33.9763 33.0232 79.7112 0.0000 0.0000 0.0000
# 4 0.0000 0.0000 0.0000 16.2093 0.0000 0.0000
# 5 0.0000 0.0000 0.0000 0.0000 50.8631 0.0000
# 6 0.0000 0.0000 0.0000 0.0000 0.0000 22.8003
#
#
#
# Elastic Compliance Matrix: (Units=1/GPa)
#
#
# Indices 1 2 3 4 5 6 
#
# 1 0.006218 -0.000157 -0.002585 0.000000 0.000000 0.000000
# 2 -0.000157 0.012293 -0.005026 0.000000 0.000000 0.000000
# 3 -0.002585 -0.005026 0.015729 0.000000 0.000000 0.000000
# 4 0.000000 0.000000 0.000000 0.061693 0.000000 0.000000
# 5 0.000000 0.000000 0.000000 0.000000 0.019661 0.000000
# 6 0.000000 0.000000 0.000000 0.000000 0.000000 0.043859
#
#
# Mechanical properties :
#
#
# Convention : Reuss Voigt Hill
#
# Bulk Modulus (GPa) = 53.46445 57.37590 55.42017
# Shear Modulus (GPa) = 27.59011 35.77413 31.68212
#
# Velocity S-wave (km/s) = 3.84828 4.38202 4.12380
# Velocity P-wave (km/s) = 6.96012 7.50999 7.24027
#
# Compressibility (1/GPa) = 0.01870402
#
# Stress axis : x y z
#
# Youngs Moduli (GPa) = 160.82511 81.34587 63.57501
#
# Poissons Ratio (x) = 0.01277 0.16436
# Poissons Ratio (y) = 0.02525 0.31953
# Poissons Ratio (z) = 0.41578 0.40884
#
# Static dielectric constant tensor:
#      x y z
#    x 1.798010 0.000000 0.000000 
#    y 0.000000 1.743980 0.000000 
#    z 0.000000 0.000000 1.670600 
# 
# From -- ./inp_files/1688.got.cif
#   From: 2010.05.17/outbox.cif.g08.bks.cpg/sg73_1_cif.got.tgz:1688.got - 2010.06.03 17:35:07.
