data_PCOD9530799
_publ_section_title
;
Structure prediction by ZEFSAII (Michael W. Deem and Ramdas Pophale) SiO2 
 PCOD9530799
Probable space group: I B C A 
;
_chemical_formula_sum "Si O2"
_cell_formula_units_Z 120
_cell_length_a 28.980179
_cell_length_b 12.917548
_cell_length_c 17.649477
_cell_angle_alpha 90.000000
_cell_angle_beta 90.000000
_cell_angle_gamma 90.000000
_cell_volume 6607.132074
_symmetry_space_group_name_H-M "I B C A "
_symmetry_group_IT_number 73
_symmetry_cell_setting 'orthorhombic'
loop_
_space_group_symop_operation_xyz
x,y,z
-x,1/2-y,z
x,-y,1/2-z
1/2-x,y,-z
-x,-y,-z
x,1/2+y,-z
-x,y,1/2+z
1/2+x,-y,z
1/2+x,1/2+y,1/2+z
1/2-x,-y,1/2+z
1/2+x,1/2-y,-z
-x,1/2+y,1/2-z
1/2-x,1/2-y,1/2-z
1/2+x,y,1/2-z
1/2-x,1/2+y,z
x,1/2-y,1/2+z
loop_
_atom_site_type_symbol
_atom_site_label
_atom_site_fract_x
_atom_site_fract_y
_atom_site_fract_z
Si Si1 0.884518 0.618732 0.262750
Si Si2 0.500000 0.250000 0.509280
Si Si3 0.919181 0.884353 0.930955
Si Si4 0.645441 0.265302 0.042259
Si Si5 0.227892 0.598887 0.083538
Si Si6 0.211162 0.791907 0.305270
Si Si7 0.793453 0.631522 0.942525
Si Si8 0.431577 0.624570 0.390401
O O1 0.868620 0.500000 0.250000
O O2 0.905007 0.643067 0.345285
O O3 0.836660 0.683486 0.262752
O O4 0.925719 0.624340 0.200576
O O5 0.463195 0.316600 0.459497
O O6 0.524680 0.330472 0.565847
O O7 0.924707 0.008944 0.924396
O O8 0.878139 0.851093 0.988130
O O9 0.687449 0.316429 0.087870
O O10 0.607677 0.209198 0.091850
O O11 0.664039 0.171842 0.990915
O O12 0.266997 0.611961 0.147315
O O13 0.206009 0.485781 0.084561
O O14 0.250000 0.612895 0.000000
O O15 0.250000 0.750000 0.250000
O O16 0.207183 0.706372 0.370925
O O17 0.750000 0.641521 0.000000
#
# Coordination Sequence:
#
# PCOD9530799 Si02
#       8
#    16   8  16  16  16  16  16  16
#     4  10  22  37  57  82 116 153 188 231 282 340
#     4  10  22  38  66  88 112 138 182 236 292 352
#     4  10  20  38  60  88 113 145 185 232 287 353
#     4  11  18  37  55  84 112 150 194 240 283 332
#     4  11  21  35  54  79 112 156 207 247 283 326
#     4  12  23  36  53  81 119 156 200 237 284 332
#     4  11  22  35  55  79 112 156 201 250 282 322
#     4  10  22  37  61  87 112 143 183 230 292 349
#
# _framework density 18.162192000000001
#
# number of rings (size 3 to 8) (size 9 to 14) (size 15 to 20)
#    0.000    1.333    4.000    2.000    1.867    2.667 
#    0.000    0.000    0.000    0.000    0.000    0.000 
#    0.000    0.000    0.000    0.000    0.000    0.000 
#
# Total GULP energy -334209.986260 kJ/mol
# GULP energy per Si atom -5570.166438 kJ/mol
# Density = 1.812085 g / cm^3
# Si number density = 18.162192 Si / 1000 Ang^3
#
#
#
# Elastic Constant Matrix: (Units=GPa)
#
#
# Indices 1 2 3 4 5 6 
#
# 1 70.9284 17.0384 21.2121 0.0000 0.0000 0.0000
# 2 17.0384 86.9146 8.2985 0.0000 0.0000 0.0000
# 3 21.2121 8.2985 62.8634 0.0000 0.0000 0.0000
# 4 0.0000 0.0000 0.0000 9.4830 0.0000 0.0000
# 5 0.0000 0.0000 0.0000 0.0000 20.6524 0.0000
# 6 0.0000 0.0000 0.0000 0.0000 0.0000 25.4332
#
#
#
# Elastic Compliance Matrix: (Units=1/GPa)
#
#
# Indices 1 2 3 4 5 6 
#
# 1 0.016284 -0.002702 -0.005138 0.000000 0.000000 0.000000
# 2 -0.002702 0.012101 -0.000686 0.000000 0.000000 0.000000
# 3 -0.005138 -0.000686 0.017732 0.000000 0.000000 0.000000
# 4 0.000000 0.000000 0.000000 0.105451 0.000000 0.000000
# 5 0.000000 0.000000 0.000000 0.000000 0.048421 0.000000
# 6 0.000000 0.000000 0.000000 0.000000 0.000000 0.039319
#
#
# Mechanical properties :
#
#
# Convention : Reuss Voigt Hill
#
# Bulk Modulus (GPa) = 34.40506 34.86716 34.63611
# Shear Modulus (GPa) = 18.79363 22.72421 20.75892
#
# Velocity S-wave (km/s) = 3.22027 3.54104 3.38446
# Velocity P-wave (km/s) = 5.72811 5.99650 5.86384
#
# Compressibility (1/GPa) = 0.02906549
#
# Stress axis : x y z
#
# Youngs Moduli (GPa) = 61.40851 82.64010 56.39579
#
# Poissons Ratio (x) = 0.22327 0.28977
# Poissons Ratio (y) = 0.16591 0.03867
# Poissons Ratio (z) = 0.31553 0.05667
#
# Static dielectric constant tensor:
#      x y z
#    x 1.630910 0.000000 0.000000 
#    y 0.000000 1.632800 0.000000 
#    z 0.000000 0.000000 1.630990 
# 
# From -- ./inp_files/23976.got.cif
#   From: 2010.05.17/outbox.cif.g08.bks.cpg/sg73_12_cif.got.tgz:23976.got - 2010.06.03 17:35:07.
