data_PCOD9530446
_publ_section_title
;
Structure prediction by ZEFSAII (Michael W. Deem and Ramdas Pophale) SiO2 
 PCOD9530446
Probable space group: I B C A 
;
_chemical_formula_sum "Si O2"
_cell_formula_units_Z 88
_cell_length_a 9.142652
_cell_length_b 28.905350
_cell_length_c 15.685960
_cell_angle_alpha 90.000000
_cell_angle_beta 90.000000
_cell_angle_gamma 90.000000
_cell_volume 4145.353056
_symmetry_space_group_name_H-M "I B C A "
_symmetry_group_IT_number 73
_symmetry_cell_setting 'orthorhombic'
loop_
_space_group_symop_operation_xyz
x,y,z
-x,1/2-y,z
x,-y,1/2-z
1/2-x,y,-z
-x,-y,-z
x,1/2+y,-z
-x,y,1/2+z
1/2+x,-y,z
1/2+x,1/2+y,1/2+z
1/2-x,-y,1/2+z
1/2+x,1/2-y,-z
-x,1/2+y,1/2-z
1/2-x,1/2-y,1/2-z
1/2+x,y,1/2-z
1/2-x,1/2+y,z
x,1/2-y,1/2+z
loop_
_atom_site_type_symbol
_atom_site_label
_atom_site_fract_x
_atom_site_fract_y
_atom_site_fract_z
Si Si1 0.516627 0.661947 0.365408
Si Si2 0.750000 0.495566 0.000000
Si Si3 0.519801 0.937159 0.452269
Si Si4 0.586035 0.707287 0.033225
Si Si5 0.787195 0.637292 0.260843
Si Si6 0.442691 0.888672 0.132091
O O1 0.489380 0.608841 0.396313
O O2 0.503730 0.692836 0.448560
O O3 0.672192 0.664056 0.319895
O O4 0.387154 0.670222 0.298085
O O5 0.651877 0.527340 0.937447
O O6 0.866633 0.463821 0.951128
O O7 0.550189 0.920841 0.549788
O O8 0.500000 0.750000 0.073271
O O9 0.584877 0.662897 0.094504
O O10 0.750000 0.716763 0.000000
O O11 0.686844 0.605222 0.200125
O O12 0.903372 0.610556 0.319164
#
# Coordination Sequence:
#
# PCOD9530446 Si02
#       6
#    16   8  16  16  16  16
#     4  10  21  39  63  83 117 156 195 234 290 345
#     4  10  20  32  58  92 114 140 200 248 286 324
#     4  10  20  36  61  85 113 154 195 242 280 346
#     4  11  24  41  61  88 117 152 195 240 281 337
#     4  10  20  36  61  89 112 154 198 234 286 349
#     4  10  21  39  63  83 117 156 195 234 290 345
#
# _framework density 21.228591000000002
#
# number of rings (size 3 to 8) (size 9 to 14) (size 15 to 20)
#    0.000    1.818    1.818    2.182    5.091    1.455 
#    0.000    5.455    0.000   76.364    0.000    0.000 
#    0.000    0.000    0.000    0.000    0.000    0.000 
#
# Total GULP energy -245792.359667 kJ/mol
# GULP energy per Si atom -5586.189992 kJ/mol
# Density = 2.118027 g / cm^3
# Si number density = 21.228591 Si / 1000 Ang^3
#
#
#
# Elastic Constant Matrix: (Units=GPa)
#
#
# Indices 1 2 3 4 5 6 
#
# 1 157.5707 25.5288 31.3494 0.0000 0.0000 0.0000
# 2 25.5288 69.3292 -3.0148 0.0000 0.0000 0.0000
# 3 31.3494 -3.0148 66.2237 -0.0002 0.0000 0.0000
# 4 0.0000 0.0000 -0.0002 0.7385 0.0000 0.0000
# 5 0.0000 0.0000 0.0000 0.0000 34.7451 0.0000
# 6 0.0000 0.0000 0.0000 0.0000 0.0000 16.5634
#
#
#
# Elastic Compliance Matrix: (Units=1/GPa)
#
#
# Indices 1 2 3 4 5 6 
#
# 1 0.007563 -0.002946 -0.003714 -0.000001 0.000000 0.000000
# 2 -0.002946 0.015600 0.002105 0.000001 0.000000 0.000000
# 3 -0.003714 0.002105 0.016954 0.000004 0.000000 0.000000
# 4 -0.000001 0.000001 0.000004 1.354012 0.000000 0.000002
# 5 0.000000 0.000000 0.000000 0.000000 0.028781 0.000000
# 6 0.000000 0.000000 0.000000 0.000002 0.000000 0.060374
#
#
# Mechanical properties :
#
#
# Convention : Reuss Voigt Hill
#
# Bulk Modulus (GPa) = 32.25147 44.53893 38.39520
# Shear Modulus (GPa) = 3.32728 26.36008 14.84368
#
# Velocity S-wave (km/s) = 1.25330 3.52764 2.64717
# Velocity P-wave (km/s) = 4.16171 6.13339 5.24110
#
# Compressibility (1/GPa) = 0.03100633
#
# Stress axis : x y z
#
# Youngs Moduli (GPa) = 132.22879 64.10110 58.98175
#
# Poissons Ratio (x) = 0.18886 0.21907
# Poissons Ratio (y) = 0.38958 -0.12415
# Poissons Ratio (z) = 0.49112 -0.13493
#
# Static dielectric constant tensor:
#      x y z
#    x 1.775960 0.000000 0.000000 
#    y 0.000000 1.750160 0.000000 
#    z 0.000000 0.000000 1.757730 
# 
# From -- ./inp_files/20828.got.cif
#   From: 2010.05.17/outbox.cif.g08.bks.cpg/sg73_11_cif.got.tgz:20828.got - 2010.06.03 17:35:07.
