data_PCOD9530476
_publ_section_title
;
Structure prediction by ZEFSAII (Michael W. Deem and Ramdas Pophale) SiO2 
 PCOD9530476
Probable space group: I B C A 
;
_chemical_formula_sum "Si O2"
_cell_formula_units_Z 88
_cell_length_a 23.368651
_cell_length_b 12.487127
_cell_length_c 16.579906
_cell_angle_alpha 90.000000
_cell_angle_beta 90.000000
_cell_angle_gamma 90.000000
_cell_volume 4838.137817
_symmetry_space_group_name_H-M "I B C A "
_symmetry_group_IT_number 73
_symmetry_cell_setting 'orthorhombic'
loop_
_space_group_symop_operation_xyz
x,y,z
-x,1/2-y,z
x,-y,1/2-z
1/2-x,y,-z
-x,-y,-z
x,1/2+y,-z
-x,y,1/2+z
1/2+x,-y,z
1/2+x,1/2+y,1/2+z
1/2-x,-y,1/2+z
1/2+x,1/2-y,-z
-x,1/2+y,1/2-z
1/2-x,1/2-y,1/2-z
1/2+x,y,1/2-z
1/2-x,1/2+y,z
x,1/2-y,1/2+z
loop_
_atom_site_type_symbol
_atom_site_label
_atom_site_fract_x
_atom_site_fract_y
_atom_site_fract_z
Si Si1 0.064681 0.237032 0.432624
Si Si2 0.388500 0.839556 0.092472
Si Si3 0.815889 0.222276 0.242121
Si Si4 0.500000 0.250000 0.320964
Si Si5 0.586334 0.884398 0.285350
Si Si6 0.891230 0.939741 0.168937
O O1 0.108616 0.216230 0.505439
O O2 0.068280 0.130886 0.377519
O O3 0.077033 0.339910 0.374692
O O4 0.000000 0.250000 0.462891
O O5 0.339029 0.795289 0.151199
O O6 0.450626 0.810290 0.129944
O O7 0.383084 0.967855 0.102442
O O8 0.750000 0.250000 0.250000
O O9 0.855500 0.317586 0.275157
O O10 0.835040 0.117350 0.293118
O O11 0.535764 0.169779 0.265588
O O12 0.595004 0.000000 0.250000
O O13 0.916718 0.000000 0.250000
#
# Coordination Sequence:
#
# PCOD9530476 Si02
#       6
#    16  16  16   8  16  16
#     4  11  22  35  55  92 128 162 201 255 313 369
#     4  10  21  36  58  88 119 156 203 251 315 365
#     4   9  20  41  63  83 111 157 213 254 298 373
#     4  10  20  34  52  80 116 162 200 242 300 384
#     4  10  22  34  55  83 118 155 203 253 301 372
#     4   9  21  39  60  84 118 169 211 243 313 382
#
# _framework density 18.188815999999999
#
# number of rings (size 3 to 8) (size 9 to 14) (size 15 to 20)
#    0.000    2.182    1.818    1.091    2.545    5.818 
#    0.000    3.636    0.000    8.727    0.000    0.000 
#    0.000    0.000    0.000    0.000    0.000    0.000 
#
# Total GULP energy -244963.333694 kJ/mol
# GULP energy per Si atom -5567.348493 kJ/mol
# Density = 1.814742 g / cm^3
# Si number density = 18.188816 Si / 1000 Ang^3
#
#
#
# Elastic Constant Matrix: (Units=GPa)
#
#
# Indices 1 2 3 4 5 6 
#
# 1 112.6864 45.6815 37.6953 0.0000 0.0000 0.0000
# 2 45.6815 101.1267 34.1878 0.0000 0.0000 0.0000
# 3 37.6953 34.1878 88.4083 0.0000 0.0000 0.0000
# 4 0.0000 0.0000 0.0000 22.7455 0.0000 0.0000
# 5 0.0000 0.0000 0.0000 0.0000 6.4811 0.0000
# 6 0.0000 0.0000 0.0000 0.0000 0.0000 14.9292
#
#
#
# Elastic Compliance Matrix: (Units=1/GPa)
#
#
# Indices 1 2 3 4 5 6 
#
# 1 0.011681 -0.004133 -0.003382 0.000000 0.000000 0.000000
# 2 -0.004133 0.012838 -0.003202 0.000000 0.000000 0.000000
# 3 -0.003382 -0.003202 0.013992 0.000000 0.000000 0.000000
# 4 0.000000 0.000000 0.000000 0.043965 0.000000 0.000000
# 5 0.000000 0.000000 0.000000 0.000000 0.154294 0.000000
# 6 0.000000 0.000000 0.000000 0.000000 0.000000 0.066983
#
#
# Mechanical properties :
#
#
# Convention : Reuss Voigt Hill
#
# Bulk Modulus (GPa) = 58.56347 59.70563 59.13455
# Shear Modulus (GPa) = 15.11121 21.14161 18.12641
#
# Velocity S-wave (km/s) = 2.88548 3.41301 3.16027
# Velocity P-wave (km/s) = 6.58550 6.95904 6.77484
#
# Compressibility (1/GPa) = 0.01707549
#
# Stress axis : x y z
#
# Youngs Moduli (GPa) = 85.60796 77.89209 71.47144
#
# Poissons Ratio (x) = 0.32195 0.24173
# Poissons Ratio (y) = 0.35384 0.22887
# Poissons Ratio (z) = 0.28955 0.24943
#
# Static dielectric constant tensor:
#      x y z
#    x 1.592000 0.000000 0.000000 
#    y 0.000000 1.670060 0.000000 
#    z 0.000000 0.000000 1.684090 
# 
# From -- ./inp_files/23091.got.cif
#   From: 2010.05.17/outbox.cif.g08.bks.cpg/sg73_12_cif.got.tgz:23091.got - 2010.06.03 17:35:07.
