data_PCOD9530074
_publ_section_title
;
Structure prediction by ZEFSAII (Michael W. Deem and Ramdas Pophale) SiO2 
 PCOD9530074
Probable space group: I B C A 
;
_chemical_formula_sum "Si O2"
_cell_formula_units_Z 104
_cell_length_a 8.630349
_cell_length_b 28.209678
_cell_length_c 22.007215
_cell_angle_alpha 90.000000
_cell_angle_beta 90.000000
_cell_angle_gamma 90.000000
_cell_volume 5357.862618
_symmetry_space_group_name_H-M "I B C A "
_symmetry_group_IT_number 73
_symmetry_cell_setting 'orthorhombic'
loop_
_space_group_symop_operation_xyz
x,y,z
-x,1/2-y,z
x,-y,1/2-z
1/2-x,y,-z
-x,-y,-z
x,1/2+y,-z
-x,y,1/2+z
1/2+x,-y,z
1/2+x,1/2+y,1/2+z
1/2-x,-y,1/2+z
1/2+x,1/2-y,-z
-x,1/2+y,1/2-z
1/2-x,1/2-y,1/2-z
1/2+x,y,1/2-z
1/2-x,1/2+y,z
x,1/2-y,1/2+z
loop_
_atom_site_type_symbol
_atom_site_label
_atom_site_fract_x
_atom_site_fract_y
_atom_site_fract_z
Si Si1 0.677663 0.857325 0.308662
Si Si2 0.316330 0.160155 0.432210
Si Si3 0.817656 0.737189 0.566018
Si Si4 0.969987 0.000000 0.250000
Si Si5 0.218914 0.432042 0.702760
Si Si6 0.859365 0.345028 0.125058
Si Si7 0.042799 0.803870 0.759067
O O1 0.727044 0.866528 0.377605
O O2 0.711411 0.901449 0.265168
O O3 0.505883 0.838210 0.296238
O O4 0.784229 0.814852 0.280886
O O5 0.250000 0.151437 0.500000
O O6 0.276805 0.215244 0.417252
O O7 0.500155 0.151731 0.424145
O O8 0.750000 0.725438 0.500000
O O9 0.770221 0.692406 0.605712
O O10 0.000000 0.750000 0.565593
O O11 0.867729 0.965071 0.208799
O O12 0.074235 0.967364 0.293066
O O13 0.203375 0.395690 0.647214
O O14 0.944581 0.322562 0.183564
O O15 0.000000 0.750000 0.745880
#
# Coordination Sequence:
#
# PCOD9530074 Si02
#       7
#    16  16  16   8  16  16  16
#     4  10  20  33  51  78 111 144 187 232 275 332
#     4  10  20  35  54  78 117 166 201 230 265 312
#     4  11  22  35  53  79 116 163 204 234 264 311
#     4  10  20  38  60  86 112 136 174 230 310 378
#     4  10  21  37  60  87 111 140 179 235 302 359
#     4  10  20  37  54  78 114 147 190 238 279 335
#     4  10  19  31  48  73 111 150 180 225 277 321
#
# _framework density 19.410726
#
# number of rings (size 3 to 8) (size 9 to 14) (size 15 to 20)
#    0.000    1.846    0.000    7.385    0.000    5.538 
#    0.000    0.000    0.000    0.000    0.000   28.000 
#    0.000    0.000    0.000    0.000    0.000    0.000 
#
# Total GULP energy -290340.437935 kJ/mol
# GULP energy per Si atom -5583.469960 kJ/mol
# Density = 1.936655 g / cm^3
# Si number density = 19.410726 Si / 1000 Ang^3
#
#
#
# Elastic Constant Matrix: (Units=GPa)
#
#
# Indices 1 2 3 4 5 6 
#
# 1 89.8873 27.4729 47.7509 0.0000 0.0000 0.0000
# 2 27.4729 93.3957 30.1935 0.0000 0.0000 0.0000
# 3 47.7509 30.1935 88.0508 0.0000 0.0000 0.0000
# 4 0.0000 0.0000 0.0000 21.6064 0.0000 0.0000
# 5 0.0000 0.0000 0.0000 0.0000 25.7192 0.0000
# 6 0.0000 0.0000 0.0000 0.0000 0.0000 -2.9336
#
#
#
# Elastic Compliance Matrix: (Units=1/GPa)
#
#
# Indices 1 2 3 4 5 6 
#
# 1 0.015998 -0.002138 -0.007943 0.000000 0.000000 0.000000
# 2 -0.002138 0.012328 -0.003068 0.000000 0.000000 0.000000
# 3 -0.007943 -0.003068 0.016716 0.000000 0.000000 0.000000
# 4 0.000000 0.000000 0.000000 0.046283 0.000000 0.000000
# 5 0.000000 0.000000 0.000000 0.000000 0.038881 0.000000
# 6 0.000000 0.000000 0.000000 0.000000 0.000000 -0.340877
#
#
# Mechanical properties :
#
#
# Convention : Reuss Voigt Hill
#
# Bulk Modulus (GPa) = 53.34750 53.57426 53.46088
# Shear Modulus (GPa) = -28.07017 19.93951 -4.06533
#
# Velocity S-wave (km/s) = -3.80691 3.20854 -1.44877
# Velocity P-wave (km/s) = 2.86701 6.43324 4.98028
#
# Compressibility (1/GPa) = 0.01874502
#
# Stress axis : x y z
#
# Youngs Moduli (GPa) = 62.50822 81.11713 59.82132
#
# Poissons Ratio (x) = 0.17344 0.47514
# Poissons Ratio (y) = 0.13365 0.18352
# Poissons Ratio (z) = 0.49648 0.24885
#
# Static dielectric constant tensor:
#      x y z
#    x 1.780680 0.000000 0.000000 
#    y 0.000000 1.692010 0.000000 
#    z 0.000000 0.000000 1.737850 
# 
# From -- ./inp_files/7327.got.cif
#   From: 2010.05.17/outbox.cif.g08.bks.cpg/sg73_4_cif.got.tgz:7327.got - 2010.06.03 17:35:07.
