data_PCOD9530690
_publ_section_title
;
Structure prediction by ZEFSAII (Michael W. Deem and Ramdas Pophale) SiO2 
 PCOD9530690
Probable space group: I B C A 
;
_chemical_formula_sum "Si O2"
_cell_formula_units_Z 64
_cell_length_a 8.145928
_cell_length_b 19.178903
_cell_length_c 15.009365
_cell_angle_alpha 90.000000
_cell_angle_beta 90.000000
_cell_angle_gamma 90.000000
_cell_volume 2344.912538
_symmetry_space_group_name_H-M "I B C A "
_symmetry_group_IT_number 73
_symmetry_cell_setting 'orthorhombic'
loop_
_space_group_symop_operation_xyz
x,y,z
-x,1/2-y,z
x,-y,1/2-z
1/2-x,y,-z
-x,-y,-z
x,1/2+y,-z
-x,y,1/2+z
1/2+x,-y,z
1/2+x,1/2+y,1/2+z
1/2-x,-y,1/2+z
1/2+x,1/2-y,-z
-x,1/2+y,1/2-z
1/2-x,1/2-y,1/2-z
1/2+x,y,1/2-z
1/2-x,1/2+y,z
x,1/2-y,1/2+z
loop_
_atom_site_type_symbol
_atom_site_label
_atom_site_fract_x
_atom_site_fract_y
_atom_site_fract_z
Si Si1 0.448957 0.610041 0.875656
Si Si2 0.745443 0.737749 0.597012
Si Si3 0.246033 0.016188 0.357152
Si Si4 0.053671 0.144415 0.668558
O O1 0.400927 0.686206 0.908538
O O2 0.601655 0.561512 0.899628
O O3 0.295489 0.558816 0.892770
O O4 0.474584 0.626619 0.771077
O O5 0.750000 0.771694 0.500000
O O6 0.709792 0.802387 0.662559
O O7 0.594498 0.685576 0.622127
O O8 0.398975 0.069173 0.368773
O O9 0.219523 0.000000 0.250000
#
# Coordination Sequence:
#
# PCOD9530690 Si02
#       4
#    16  16  16  16
#     4  11  21  40  68  98 128 166 214 264 318 384
#     4  11  25  43  62  95 136 171 211 264 322 384
#     4  10  20  36  65  98 125 158 212 272 318 368
#     4  10  22  41  64  91 125 169 215 262 317 380
#
# _framework density 27.293127999999999
#
# number of rings (size 3 to 8) (size 9 to 14) (size 15 to 20)
#    0.000    1.500    0.000    7.500    0.000    7.000 
#    0.000    6.250    0.000    0.000    0.000    0.000 
#    0.000    0.000    0.000    0.000    0.000    0.000 
#
# Total GULP energy -178892.269674 kJ/mol
# GULP energy per Si atom -5590.383427 kJ/mol
# Density = 2.723101 g / cm^3
# Si number density = 27.293128 Si / 1000 Ang^3
#
#
#
# Elastic Constant Matrix: (Units=GPa)
#
#
# Indices 1 2 3 4 5 6 
#
# 1 102.3494 55.9936 18.4909 0.0000 0.0000 0.0000
# 2 55.9936 213.2948 4.0718 0.0000 0.0000 0.0000
# 3 18.4909 4.0718 55.4841 0.0001 0.0000 0.0000
# 4 0.0000 0.0000 0.0001 72.1518 0.0000 0.0000
# 5 0.0000 0.0000 0.0000 0.0000 8.1199 0.0000
# 6 0.0000 0.0000 0.0000 0.0000 0.0000 69.7189
#
#
#
# Elastic Compliance Matrix: (Units=1/GPa)
#
#
# Indices 1 2 3 4 5 6 
#
# 1 0.012170 -0.003122 -0.003827 0.000000 0.000000 0.000000
# 2 -0.003122 0.005496 0.000637 0.000000 0.000000 0.000000
# 3 -0.003827 0.000637 0.019252 0.000000 0.000000 0.000000
# 4 0.000000 0.000000 0.000000 0.013860 0.000000 0.000000
# 5 0.000000 0.000000 0.000000 0.000000 0.123154 0.000000
# 6 0.000000 0.000000 0.000000 0.000000 0.000000 0.014343
#
#
# Mechanical properties :
#
#
# Convention : Reuss Voigt Hill
#
# Bulk Modulus (GPa) = 41.16162 58.69343 49.92752
# Shear Modulus (GPa) = 23.92409 49.50295 36.71352
#
# Velocity S-wave (km/s) = 2.96389 4.26344 3.67162
# Velocity P-wave (km/s) = 5.17947 6.76664 6.02554
#
# Compressibility (1/GPa) = 0.02429448
#
# Stress axis : x y z
#
# Youngs Moduli (GPa) = 82.17197 181.96111 51.94350
#
# Poissons Ratio (x) = 0.56802 0.19877
# Poissons Ratio (y) = 0.25651 -0.03309
# Poissons Ratio (z) = 0.31444 -0.11592
#
# Static dielectric constant tensor:
#      x y z
#    x 2.345280 0.000000 0.000000 
#    y 0.000000 2.016510 0.000000 
#    z 0.000000 0.000000 2.080910 
# 
# From -- ./inp_files/20556.got.cif
#   From: 2010.05.17/outbox.cif.g08.bks.cpg/sg73_11_cif.got.tgz:20556.got - 2010.06.03 17:35:07.
