data_PCOD9530040
_publ_section_title
;
Structure prediction by ZEFSAII (Michael W. Deem and Ramdas Pophale) SiO2 
 PCOD9530040
Probable space group: I B C A 
;
_chemical_formula_sum "Si O2"
_cell_formula_units_Z 88
_cell_length_a 9.632502
_cell_length_b 31.614988
_cell_length_c 13.822855
_cell_angle_alpha 90.000000
_cell_angle_beta 90.000000
_cell_angle_gamma 90.000000
_cell_volume 4209.493871
_symmetry_space_group_name_H-M "I B C A "
_symmetry_group_IT_number 73
_symmetry_cell_setting 'orthorhombic'
loop_
_space_group_symop_operation_xyz
x,y,z
-x,1/2-y,z
x,-y,1/2-z
1/2-x,y,-z
-x,-y,-z
x,1/2+y,-z
-x,y,1/2+z
1/2+x,-y,z
1/2+x,1/2+y,1/2+z
1/2-x,-y,1/2+z
1/2+x,1/2-y,-z
-x,1/2+y,1/2-z
1/2-x,1/2-y,1/2-z
1/2+x,y,1/2-z
1/2-x,1/2+y,z
x,1/2-y,1/2+z
loop_
_atom_site_type_symbol
_atom_site_label
_atom_site_fract_x
_atom_site_fract_y
_atom_site_fract_z
Si Si1 0.461844 0.155298 0.934423
Si Si2 0.692043 0.044943 0.300286
Si Si3 0.528226 0.164061 0.143553
Si Si4 0.250000 0.081719 0.000000
Si Si5 0.428708 0.096568 0.275124
Si Si6 0.236393 0.703035 0.791771
O O1 0.368687 0.115622 0.970921
O O2 0.556178 0.133887 0.852801
O O3 0.363897 0.190548 0.883053
O O4 0.541490 0.170534 0.029261
O O5 0.758314 0.051341 0.406575
O O6 0.531665 0.058630 0.303347
O O7 0.775503 0.079604 0.238140
O O8 0.708640 0.000000 0.250000
O O9 0.485287 0.116711 0.175359
O O10 0.390601 0.189577 0.177194
O O11 0.660891 0.177511 0.205438
O O12 0.250000 0.750000 0.750000
#
# Coordination Sequence:
#
# PCOD9530040 Si02
#       6
#    16  16  16   8  16  16
#     4  10  19  39  69  86 118 177 217 247 321 390
#     4  11  22  40  62  95 129 163 207 273 325 368
#     4  11  20  42  66  89 125 173 215 255 318 399
#     4  10  18  40  68  82 122 180 212 230 328 402
#     4  10  21  39  65  91 123 168 216 260 306 397
#     4  11  23  39  64  95 129 160 210 275 324 371
#
# _framework density 20.905124000000001
#
# number of rings (size 3 to 8) (size 9 to 14) (size 15 to 20)
#    0.000    1.455    3.636    3.273    0.000    0.000 
#    3.273   22.727    0.000    0.000    0.000    0.000 
#    0.000    0.000    0.000    0.000    0.000    0.000 
#
# Total GULP energy -245427.473809 kJ/mol
# GULP energy per Si atom -5577.897132 kJ/mol
# Density = 2.085754 g / cm^3
# Si number density = 20.905124 Si / 1000 Ang^3
#
#
#
# Elastic Constant Matrix: (Units=GPa)
#
#
# Indices 1 2 3 4 5 6 
#
# 1 58.8303 4.3742 21.6792 0.0000 0.0000 0.0000
# 2 4.3742 89.9647 35.9294 -0.0001 0.0000 0.0000
# 3 21.6792 35.9294 144.4586 -0.0002 0.0000 0.0001
# 4 0.0000 -0.0001 -0.0002 28.5801 0.0000 0.0000
# 5 0.0000 0.0000 0.0000 0.0000 27.0611 0.0000
# 6 0.0000 0.0000 0.0001 0.0000 0.0000 20.7946
#
#
#
# Elastic Compliance Matrix: (Units=1/GPa)
#
#
# Indices 1 2 3 4 5 6 
#
# 1 0.017997 0.000226 -0.002757 0.000000 0.000000 0.000000
# 2 0.000226 0.012344 -0.003104 0.000000 0.000000 0.000000
# 3 -0.002757 -0.003104 0.008108 0.000000 0.000000 0.000000
# 4 0.000000 0.000000 0.000000 0.034989 0.000000 0.000000
# 5 0.000000 0.000000 0.000000 0.000000 0.036953 0.000000
# 6 0.000000 0.000000 0.000000 0.000000 0.000000 0.048089
#
#
# Mechanical properties :
#
#
# Convention : Reuss Voigt Hill
#
# Bulk Modulus (GPa) = 36.79273 46.35768 41.57520
# Shear Modulus (GPa) = 27.96233 30.70522 29.33377
#
# Velocity S-wave (km/s) = 3.66127 3.83664 3.74998
# Velocity P-wave (km/s) = 5.95913 6.46914 6.21936
#
# Compressibility (1/GPa) = 0.02717928
#
# Stress axis : x y z
#
# Youngs Moduli (GPa) = 55.56405 81.00983 123.33170
#
# Poissons Ratio (x) = -0.01831 0.34004
# Poissons Ratio (y) = -0.01256 0.38284
# Poissons Ratio (z) = 0.15320 0.25147
#
# Static dielectric constant tensor:
#      x y z
#    x 1.760820 0.000000 0.000000 
#    y 0.000000 1.761180 0.000000 
#    z 0.000000 0.000000 1.812090 
# 
# From -- ./inp_files/9892.got.cif
#   From: 2010.05.17/outbox.cif.g08.bks.cpg/sg73_5_cif.got.tgz:9892.got - 2010.06.03 17:35:07.
