data_PCOD9530079
_publ_section_title
;
Structure prediction by ZEFSAII (Michael W. Deem and Ramdas Pophale) SiO2 
 PCOD9530079
Probable space group: I B C A 
;
_chemical_formula_sum "Si O2"
_cell_formula_units_Z 120
_cell_length_a 8.757570
_cell_length_b 29.309189
_cell_length_c 24.967661
_cell_angle_alpha 90.000000
_cell_angle_beta 90.000000
_cell_angle_gamma 90.000000
_cell_volume 6408.631171
_symmetry_space_group_name_H-M "I B C A "
_symmetry_group_IT_number 73
_symmetry_cell_setting 'orthorhombic'
loop_
_space_group_symop_operation_xyz
x,y,z
-x,1/2-y,z
x,-y,1/2-z
1/2-x,y,-z
-x,-y,-z
x,1/2+y,-z
-x,y,1/2+z
1/2+x,-y,z
1/2+x,1/2+y,1/2+z
1/2-x,-y,1/2+z
1/2+x,1/2-y,-z
-x,1/2+y,1/2-z
1/2-x,1/2-y,1/2-z
1/2+x,y,1/2-z
1/2-x,1/2+y,z
x,1/2-y,1/2+z
loop_
_atom_site_type_symbol
_atom_site_label
_atom_site_fract_x
_atom_site_fract_y
_atom_site_fract_z
Si Si1 0.603501 0.288869 0.367739
Si Si2 0.692602 0.435747 0.843942
Si Si3 0.298606 0.839281 0.622356
Si Si4 0.781087 0.599099 0.223338
Si Si5 0.500000 0.250000 0.766222
Si Si6 0.092331 0.986505 0.811643
Si Si7 0.318922 0.252894 0.558347
Si Si8 0.057238 0.158714 0.783652
O O1 0.500000 0.250000 0.396884
O O2 0.478248 0.328701 0.365900
O O3 0.627866 0.266325 0.309138
O O4 0.755925 0.286707 0.401400
O O5 0.710184 0.393929 0.884657
O O6 0.675160 0.414227 0.784207
O O7 0.835516 0.469161 0.838493
O O8 0.543125 0.466668 0.847201
O O9 0.235706 0.803056 0.579332
O O10 0.187604 0.830770 0.673222
O O11 0.717080 0.553821 0.195732
O O12 0.645325 0.635315 0.233564
O O13 0.928390 0.622866 0.197760
O O14 0.527024 0.294927 0.732577
O O15 0.044979 0.000000 0.750000
O O16 0.500000 0.250000 0.557397
O O17 0.250000 0.245047 0.500000
#
# Coordination Sequence:
#
# PCOD9530079 Si02
#       8
#    16  16  16  16   8  16  16  16
#     4   8  19  37  55  78 113 155 192 237 283 345
#     4  10  20  33  49  76 109 151 196 253 302 340
#     4  10  22  38  53  84 123 151 200 248 296 366
#     4  10  20  31  46  69 104 155 206 250 287 331
#     4  10  20  34  52  74 124 168 202 232 284 342
#     4  10  19  31  52  71 105 154 210 255 296 343
#     4  11  23  43  70  93 114 152 196 255 311 357
#     4  11  22  32  50  75 117 168 204 241 288 346
#
# _framework density 18.724747000000001
#
# number of rings (size 3 to 8) (size 9 to 14) (size 15 to 20)
#    0.400    1.600    1.333    4.000    4.667    3.200 
#    0.000    0.000    0.000    0.000    0.000    0.933 
#    0.000    0.000    0.000    0.000    0.000    0.000 
#
# Total GULP energy -334189.488618 kJ/mol
# GULP energy per Si atom -5569.824810 kJ/mol
# Density = 1.868213 g / cm^3
# Si number density = 18.724747 Si / 1000 Ang^3
#
#
#
# Elastic Constant Matrix: (Units=GPa)
#
#
# Indices 1 2 3 4 5 6 
#
# 1 98.2849 33.6699 19.6255 0.0000 0.0000 0.0000
# 2 33.6699 108.1233 15.3312 0.0000 0.0000 0.0000
# 3 19.6255 15.3312 38.0455 0.0000 0.0000 0.0000
# 4 0.0000 0.0000 0.0000 10.7939 0.0000 0.0000
# 5 0.0000 0.0000 0.0000 0.0000 21.5110 0.0000
# 6 0.0000 0.0000 0.0000 0.0000 0.0000 40.3006
#
#
#
# Elastic Compliance Matrix: (Units=1/GPa)
#
#
# Indices 1 2 3 4 5 6 
#
# 1 0.012247 -0.003095 -0.005070 0.000000 0.000000 0.000000
# 2 -0.003095 0.010591 -0.002672 0.000000 0.000000 0.000000
# 3 -0.005070 -0.002672 0.029976 0.000000 0.000000 0.000000
# 4 0.000000 0.000000 0.000000 0.092645 0.000000 0.000000
# 5 0.000000 0.000000 0.000000 0.000000 0.046488 0.000000
# 6 0.000000 0.000000 0.000000 0.000000 0.000000 0.024814
#
#
# Mechanical properties :
#
#
# Convention : Reuss Voigt Hill
#
# Bulk Modulus (GPa) = 32.11184 42.41190 37.26187
# Shear Modulus (GPa) = 20.09522 26.24290 23.16906
#
# Velocity S-wave (km/s) = 3.27951 3.74773 3.52141
# Velocity P-wave (km/s) = 5.61488 6.43636 6.03960
#
# Compressibility (1/GPa) = 0.03114116
#
# Stress axis : x y z
#
# Youngs Moduli (GPa) = 81.65138 94.41762 33.35954
#
# Poissons Ratio (x) = 0.29221 0.16915
# Poissons Ratio (y) = 0.25270 0.08912
# Poissons Ratio (z) = 0.41401 0.25224
#
# Static dielectric constant tensor:
#      x y z
#    x 1.751710 0.000000 0.000000 
#    y 0.000000 1.727150 0.000000 
#    z 0.000000 0.000000 1.646220 
# 
# From -- ./inp_files/31469.got.cif
#   From: 2010.05.17/outbox.cif.g08.bks.cpg/sg73_16_cif.got.tgz:31469.got - 2010.06.03 17:35:07.
