data_PCOD9530166
_publ_section_title
;
Structure prediction by ZEFSAII (Michael W. Deem and Ramdas Pophale) SiO2 
 PCOD9530166
Probable space group: I B C A 
;
_chemical_formula_sum "Si O2"
_cell_formula_units_Z 80
_cell_length_a 16.784931
_cell_length_b 7.402964
_cell_length_c 25.769667
_cell_angle_alpha 90.000000
_cell_angle_beta 90.000000
_cell_angle_gamma 90.000000
_cell_volume 3202.093465
_symmetry_space_group_name_H-M "I B C A "
_symmetry_group_IT_number 73
_symmetry_cell_setting 'orthorhombic'
loop_
_space_group_symop_operation_xyz
x,y,z
-x,1/2-y,z
x,-y,1/2-z
1/2-x,y,-z
-x,-y,-z
x,1/2+y,-z
-x,y,1/2+z
1/2+x,-y,z
1/2+x,1/2+y,1/2+z
1/2-x,-y,1/2+z
1/2+x,1/2-y,-z
-x,1/2+y,1/2-z
1/2-x,1/2-y,1/2-z
1/2+x,y,1/2-z
1/2-x,1/2+y,z
x,1/2-y,1/2+z
loop_
_atom_site_type_symbol
_atom_site_label
_atom_site_fract_x
_atom_site_fract_y
_atom_site_fract_z
Si Si1 0.333398 0.805094 0.980387
Si Si2 0.157024 0.709699 0.237068
Si Si3 0.638594 0.686447 0.656153
Si Si4 0.431327 0.107714 0.942037
Si Si5 0.681699 0.899676 0.870599
O O1 0.325409 0.685552 0.927827
O O2 0.414980 0.915900 0.967943
O O3 0.250000 0.894502 0.000000
O O4 0.353750 0.698594 0.032548
O O5 0.143551 0.500000 0.250000
O O6 0.250000 0.750000 0.250000
O O7 0.115830 0.818379 0.283494
O O8 0.143886 0.723410 0.175640
O O9 0.576071 0.591167 0.619252
O O10 0.724662 0.596856 0.644665
O O11 0.648435 0.896597 0.636790
O O12 0.500000 0.250000 0.951082
#
# Coordination Sequence:
#
# PCOD9530166 Si02
#       5
#    16  16  16  16  16
#     4  12  24  40  63  90 120 161 217 263 311 366
#     4   8  16  30  53  86 121 150 187 245 303 353
#     4  10  19  35  58  89 123 156 198 247 309 366
#     4  12  26  42  60  86 125 166 203 256 319 379
#     4  10  19  34  61  92 119 152 202 260 299 353
#
# _framework density 24.983654999999999
#
# number of rings (size 3 to 8) (size 9 to 14) (size 15 to 20)
#    0.000    1.600    2.000    3.600    0.000    1.600 
#    0.000    0.000    0.000    8.400    0.000    0.000 
#    0.000    0.000    0.000    0.000    0.000    0.000 
#
# Total GULP energy -222904.358489 kJ/mol
# GULP energy per Si atom -5572.608962 kJ/mol
# Density = 2.492679 g / cm^3
# Si number density = 24.983655 Si / 1000 Ang^3
#
#
#
# Elastic Constant Matrix: (Units=GPa)
#
#
# Indices 1 2 3 4 5 6 
#
# 1 23.1887 4.5210 11.8622 0.0000 0.0000 0.0000
# 2 4.5210 47.1662 31.2360 0.0000 0.0000 0.0000
# 3 11.8622 31.2360 181.8610 0.0000 0.0000 0.0000
# 4 0.0000 0.0000 0.0000 40.6177 0.0000 0.0000
# 5 0.0000 0.0000 0.0000 0.0000 -13.8293 0.0000
# 6 0.0000 0.0000 0.0000 0.0000 0.0000 12.7396
#
#
#
# Elastic Compliance Matrix: (Units=1/GPa)
#
#
# Indices 1 2 3 4 5 6 
#
# 1 0.044909 -0.002668 -0.002471 0.000000 0.000000 0.000000
# 2 -0.002668 0.024081 -0.003962 0.000000 0.000000 0.000000
# 3 -0.002471 -0.003962 0.006340 0.000000 0.000000 0.000000
# 4 0.000000 0.000000 0.000000 0.024620 0.000000 0.000000
# 5 0.000000 0.000000 0.000000 0.000000 -0.072310 0.000000
# 6 0.000000 0.000000 0.000000 0.000000 0.000000 0.078496
#
#
# Mechanical properties :
#
#
# Convention : Reuss Voigt Hill
#
# Bulk Modulus (GPa) = 17.50461 38.60605 28.05533
# Shear Modulus (GPa) = 34.87220 21.54537 28.20879
#
# Velocity S-wave (km/s) = 3.74009 2.93981 3.36384
# Velocity P-wave (km/s) = 5.06682 5.19706 5.13235
#
# Compressibility (1/GPa) = 0.05712779
#
# Stress axis : x y z
#
# Youngs Moduli (GPa) = 22.26744 41.52603 157.71877
#
# Poissons Ratio (x) = 0.11080 0.38972
# Poissons Ratio (y) = 0.05941 0.62490
# Poissons Ratio (z) = 0.05502 0.16453
#
# Static dielectric constant tensor:
#      x y z
#    x 1.950370 0.000000 0.000000 
#    y 0.000000 2.086070 0.000000 
#    z 0.000000 0.000000 1.999840 
# 
# From -- ./inp_files/7704.got.cif
#   From: 2010.05.17/outbox.cif.g08.bks.cpg/sg73_4_cif.got.tgz:7704.got - 2010.06.03 17:35:07.
