data_PCOD9530971
_publ_section_title
;
Structure prediction by ZEFSAII (Michael W. Deem and Ramdas Pophale) SiO2 
 PCOD9530971
Probable space group: I B C A 
;
_chemical_formula_sum "Si O2"
_cell_formula_units_Z 88
_cell_length_a 8.154920
_cell_length_b 25.087111
_cell_length_c 17.163549
_cell_angle_alpha 90.000000
_cell_angle_beta 90.000000
_cell_angle_gamma 90.000000
_cell_volume 3511.376923
_symmetry_space_group_name_H-M "I B C A "
_symmetry_group_IT_number 73
_symmetry_cell_setting 'orthorhombic'
loop_
_space_group_symop_operation_xyz
x,y,z
-x,1/2-y,z
x,-y,1/2-z
1/2-x,y,-z
-x,-y,-z
x,1/2+y,-z
-x,y,1/2+z
1/2+x,-y,z
1/2+x,1/2+y,1/2+z
1/2-x,-y,1/2+z
1/2+x,1/2-y,-z
-x,1/2+y,1/2-z
1/2-x,1/2-y,1/2-z
1/2+x,y,1/2-z
1/2-x,1/2+y,z
x,1/2-y,1/2+z
loop_
_atom_site_type_symbol
_atom_site_label
_atom_site_fract_x
_atom_site_fract_y
_atom_site_fract_z
Si Si1 0.750000 0.724117 0.000000
Si Si2 0.000000 0.750000 0.249096
Si Si3 0.750000 0.055891 0.000000
Si Si4 0.975615 0.859846 0.411470
Si Si5 0.274040 0.199704 0.137799
Si Si6 0.576356 0.026273 0.153150
Si Si7 0.101935 0.425965 0.224203
O O1 0.611914 0.689032 0.043991
O O2 0.816462 0.762079 0.066762
O O3 0.933978 0.797474 0.192418
O O4 0.860948 0.727323 0.305993
O O5 0.608544 0.091792 0.959359
O O6 0.850189 0.025393 0.933085
O O7 0.169832 0.849083 0.400204
O O8 0.915527 0.871392 0.322893
O O9 0.432802 0.066532 0.183876
O O10 0.722140 0.051411 0.203428
O O11 0.514190 0.968720 0.179050
#
# Coordination Sequence:
#
# PCOD9530971 Si02
#       7
#     8   8   8  16  16  16  16
#     4  11  22  44  67  90 142 180 221 296 374 405
#     4  10  24  42  68  94 124 180 234 270 354 426
#     4   9  22  40  67 102 140 178 227 304 360 425
#     4  10  22  41  64  98 128 178 234 286 349 427
#     4  11  23  44  67  95 132 183 226 292 354 424
#     4  10  20  40  65  95 137 190 225 293 371 418
#     4  10  21  39  67  94 136 183 236 287 350 439
#
# _framework density 25.061394
#
# number of rings (size 3 to 8) (size 9 to 14) (size 15 to 20)
#    0.000    1.818    1.818    2.182    2.545    5.818 
#    3.273    4.545    0.000    0.000    0.000    0.000 
#    0.000    0.000    0.000    0.000    0.000    0.000 
#
# Total GULP energy -245266.581962 kJ/mol
# GULP energy per Si atom -5574.240499 kJ/mol
# Density = 2.500435 g / cm^3
# Si number density = 25.061394 Si / 1000 Ang^3
#
#
#
# Elastic Constant Matrix: (Units=GPa)
#
#
# Indices 1 2 3 4 5 6 
#
# 1 93.8397 24.5556 35.5508 0.0000 0.0000 0.0000
# 2 24.5556 57.1857 39.8538 0.0000 0.0000 0.0000
# 3 35.5508 39.8538 149.8957 -0.0001 0.0000 -0.0001
# 4 0.0000 0.0000 -0.0001 52.3409 0.0000 0.0000
# 5 0.0000 0.0000 0.0000 0.0000 45.6948 0.0000
# 6 0.0000 0.0000 -0.0001 0.0000 0.0000 0.3881
#
#
#
# Elastic Compliance Matrix: (Units=1/GPa)
#
#
# Indices 1 2 3 4 5 6 
#
# 1 0.012421 -0.004027 -0.001875 0.000000 0.000000 0.000000
# 2 -0.004027 0.022769 -0.005099 0.000000 0.000000 -0.000001
# 3 -0.001875 -0.005099 0.008472 0.000000 0.000000 0.000002
# 4 0.000000 0.000000 0.000000 0.019106 0.000000 0.000002
# 5 0.000000 0.000000 0.000000 0.000000 0.021884 0.000000
# 6 0.000000 -0.000001 0.000002 0.000002 0.000000 2.576375
#
#
# Mechanical properties :
#
#
# Convention : Reuss Voigt Hill
#
# Bulk Modulus (GPa) = 46.16719 55.64906 50.90813
# Shear Modulus (GPa) = 1.85856 33.08217 17.47037
#
# Velocity S-wave (km/s) = 0.86210 3.63718 2.64313
# Velocity P-wave (km/s) = 4.41051 6.31602 5.44723
#
# Compressibility (1/GPa) = 0.02166040
#
# Stress axis : x y z
#
# Youngs Moduli (GPa) = 80.51181 43.91861 118.03967
#
# Poissons Ratio (x) = 0.17684 0.22135
# Poissons Ratio (y) = 0.32418 0.60187
# Poissons Ratio (z) = 0.15098 0.22394
#
# Static dielectric constant tensor:
#      x y z
#    x 2.052090 0.000000 0.000000 
#    y 0.000000 2.075110 0.000000 
#    z 0.000000 0.000000 2.058340 
# 
# From -- ./inp_files/20866.got.cif
#   From: 2010.05.17/outbox.cif.g08.bks.cpg/sg73_11_cif.got.tgz:20866.got - 2010.06.03 17:35:07.
