data_PCOD9530561
_publ_section_title
;
Structure prediction by ZEFSAII (Michael W. Deem and Ramdas Pophale) SiO2 
 PCOD9530561
Probable space group: I B C A 
;
_chemical_formula_sum "Si O2"
_cell_formula_units_Z 64
_cell_length_a 19.627794
_cell_length_b 25.024904
_cell_length_c 5.444946
_cell_angle_alpha 90.000000
_cell_angle_beta 90.000000
_cell_angle_gamma 90.000000
_cell_volume 2674.468508
_symmetry_space_group_name_H-M "I B C A "
_symmetry_group_IT_number 73
_symmetry_cell_setting 'orthorhombic'
loop_
_space_group_symop_operation_xyz
x,y,z
-x,1/2-y,z
x,-y,1/2-z
1/2-x,y,-z
-x,-y,-z
x,1/2+y,-z
-x,y,1/2+z
1/2+x,-y,z
1/2+x,1/2+y,1/2+z
1/2-x,-y,1/2+z
1/2+x,1/2-y,-z
-x,1/2+y,1/2-z
1/2-x,1/2-y,1/2-z
1/2+x,y,1/2-z
1/2-x,1/2+y,z
x,1/2-y,1/2+z
loop_
_atom_site_type_symbol
_atom_site_label
_atom_site_fract_x
_atom_site_fract_y
_atom_site_fract_z
Si Si1 0.957310 0.562020 0.215696
Si Si2 0.750000 0.808398 0.500000
Si Si3 0.836838 0.374171 0.123592
Si Si4 0.614620 0.264788 0.002352
Si Si5 0.750000 0.033064 0.500000
O O1 0.934683 0.500000 0.250000
O O2 0.894367 0.602309 0.199363
O O3 0.998775 0.570350 0.469573
O O4 0.776050 0.846549 0.719894
O O5 0.685135 0.769381 0.540732
O O6 0.868377 0.326785 0.965405
O O7 0.812794 0.426038 0.977654
O O8 0.579456 0.258801 0.739847
O O9 0.756142 0.000000 0.750000
#
# Coordination Sequence:
#
# PCOD9530561 Si02
#       5
#    16   8  16  16   8
#     4  10  24  44  64  86 118 168 223 264 300 357
#     4  10  20  38  64 100 128 160 198 250 320 390
#     4  11  22  40  66  92 128 167 206 256 321 383
#     4  10  20  35  58  90 123 156 196 240 302 380
#     4  12  26  38  56  94 132 158 196 260 330 384
#
# _framework density 23.929988999999999
#
# number of rings (size 3 to 8) (size 9 to 14) (size 15 to 20)
#    0.000    1.500    0.000    6.750    0.000   13.000 
#    0.000    0.000    0.000   18.000    0.000    0.000 
#    0.000    0.000    0.000    0.000    0.000    0.000 
#
# Total GULP energy -178853.694201 kJ/mol
# GULP energy per Si atom -5589.177944 kJ/mol
# Density = 2.387552 g / cm^3
# Si number density = 23.929989 Si / 1000 Ang^3
#
#
#
# Elastic Constant Matrix: (Units=GPa)
#
#
# Indices 1 2 3 4 5 6 
#
# 1 60.3678 36.4260 7.0229 0.0000 0.0000 0.0000
# 2 36.4260 140.1684 61.3142 0.0000 0.0000 0.0000
# 3 7.0229 61.3142 142.1911 0.0000 0.0000 0.0000
# 4 0.0000 0.0000 0.0000 25.7558 0.0000 0.0000
# 5 0.0000 0.0000 0.0000 0.0000 10.8313 0.0000
# 6 0.0000 0.0000 0.0000 0.0000 0.0000 18.9247
#
#
#
# Elastic Compliance Matrix: (Units=1/GPa)
#
#
# Indices 1 2 3 4 5 6 
#
# 1 0.019915 -0.005848 0.001538 0.000000 0.000000 0.000000
# 2 -0.005848 0.010510 -0.004243 0.000000 0.000000 0.000000
# 3 0.001538 -0.004243 0.008787 0.000000 0.000000 0.000000
# 4 0.000000 0.000000 0.000000 0.038826 0.000000 0.000000
# 5 0.000000 0.000000 0.000000 0.000000 0.092325 0.000000
# 6 0.000000 0.000000 0.000000 0.000000 0.000000 0.052841
#
#
# Mechanical properties :
#
#
# Convention : Reuss Voigt Hill
#
# Bulk Modulus (GPa) = 45.23825 61.36150 53.29988
# Shear Modulus (GPa) = 20.18742 26.96664 23.57703
#
# Velocity S-wave (km/s) = 2.90764 3.36057 3.14227
# Velocity P-wave (km/s) = 5.49708 6.38402 5.95708
#
# Compressibility (1/GPa) = 0.02210519
#
# Stress axis : x y z
#
# Youngs Moduli (GPa) = 50.21338 95.14560 113.81036
#
# Poissons Ratio (x) = 0.55643 -0.17506
# Poissons Ratio (y) = 0.29366 0.48293
# Poissons Ratio (z) = -0.07724 0.40373
#
# Static dielectric constant tensor:
#      x y z
#    x 1.967270 0.000000 0.000000 
#    y 0.000000 1.884040 0.000000 
#    z 0.000000 0.000000 2.037840 
# 
# From -- ./inp_files/1559.got.cif
#   From: 2010.05.17/outbox.cif.g08.bks.cpg/sg73_1_cif.got.tgz:1559.got - 2010.06.03 17:35:07.
