data_PCOD9530931
_publ_section_title
;
Structure prediction by ZEFSAII (Michael W. Deem and Ramdas Pophale) SiO2 
 PCOD9530931
Probable space group: I B C A 
;
_chemical_formula_sum "Si O2"
_cell_formula_units_Z 112
_cell_length_a 5.172638
_cell_length_b 33.443741
_cell_length_c 32.266973
_cell_angle_alpha 90.000000
_cell_angle_beta 90.000000
_cell_angle_gamma 90.000000
_cell_volume 5581.939989
_symmetry_space_group_name_H-M "I B C A "
_symmetry_group_IT_number 73
_symmetry_cell_setting 'orthorhombic'
loop_
_space_group_symop_operation_xyz
x,y,z
-x,1/2-y,z
x,-y,1/2-z
1/2-x,y,-z
-x,-y,-z
x,1/2+y,-z
-x,y,1/2+z
1/2+x,-y,z
1/2+x,1/2+y,1/2+z
1/2-x,-y,1/2+z
1/2+x,1/2-y,-z
-x,1/2+y,1/2-z
1/2-x,1/2-y,1/2-z
1/2+x,y,1/2-z
1/2-x,1/2+y,z
x,1/2-y,1/2+z
loop_
_atom_site_type_symbol
_atom_site_label
_atom_site_fract_x
_atom_site_fract_y
_atom_site_fract_z
Si Si1 0.000000 0.750000 0.894310
Si Si2 0.204523 0.527739 0.408848
Si Si3 0.019530 0.149940 0.885537
Si Si4 0.854003 0.213740 0.825387
Si Si5 0.457473 0.350916 0.778316
Si Si6 0.977537 0.603623 0.861675
Si Si7 0.159547 0.207990 0.954172
Si Si8 0.250000 0.971553 0.000000
O O1 0.223878 0.765253 0.864829
O O2 0.096092 0.715945 0.924753
O O3 0.483809 0.506594 0.405835
O O4 0.115972 0.559892 0.375014
O O5 0.219328 0.548591 0.454846
O O6 0.242435 0.116950 0.878896
O O7 0.025571 0.172823 0.929044
O O8 0.042807 0.180825 0.846349
O O9 0.737007 0.132108 0.881454
O O10 0.629579 0.190365 0.801035
O O11 0.000000 0.250000 0.802304
O O12 0.732014 0.353319 0.755942
O O13 0.457591 0.385530 0.813047
O O14 0.000000 0.250000 0.955503
O O15 0.250000 0.198111 0.000000
O O16 0.500000 0.000000 0.000000
#
# Coordination Sequence:
#
# PCOD9530931 Si02
#       8
#     8  16  16  16  16  16  16   8
#     4  12  20  38  58  80 112 156 216 266 322 352
#     4  10  20  39  68  99 126 160 204 239 291 365
#     4  11  22  41  58  87 123 164 211 249 315 366
#     4  11  23  36  64  81 113 160 210 266 308 372
#     4  11  25  42  60  88 122 159 198 253 323 372
#     4  11  24  42  68  90 124 167 198 249 312 382
#     4  12  23  35  56  82 115 168 220 270 307 353
#     4   8  16  32  58  92 128 154 182 238 284 332
#
# _framework density 20.064709000000001
#
# number of rings (size 3 to 8) (size 9 to 14) (size 15 to 20)
#    0.000    1.143    3.571    4.286    2.000    0.571 
#    2.571    0.000    0.000    2.571    0.000    0.000 
#    0.000    0.000    0.000    0.000    0.000    0.000 
#
# Total GULP energy -312457.721495 kJ/mol
# GULP energy per Si atom -5579.602170 kJ/mol
# Density = 2.001904 g / cm^3
# Si number density = 20.064709 Si / 1000 Ang^3
#
#
#
# Elastic Constant Matrix: (Units=GPa)
#
#
# Indices 1 2 3 4 5 6 
#
# 1 56.8153 -17.0865 0.1710 0.0000 0.0000 0.0000
# 2 -17.0865 36.5377 16.4334 0.0000 0.0000 0.0000
# 3 0.1710 16.4334 93.8822 0.0000 0.0000 0.0000
# 4 0.0000 0.0000 0.0000 32.6986 0.0000 0.0000
# 5 0.0000 0.0000 0.0000 0.0000 -8.0462 0.0000
# 6 0.0000 0.0000 0.0000 0.0000 0.0000 24.5380
#
#
#
# Elastic Compliance Matrix: (Units=1/GPa)
#
#
# Indices 1 2 3 4 5 6 
#
# 1 0.020785 0.010569 -0.001888 0.000000 0.000000 0.000000
# 2 0.010569 0.035082 -0.006160 0.000000 0.000000 0.000000
# 3 -0.001888 -0.006160 0.011733 0.000000 0.000000 0.000000
# 4 0.000000 0.000000 0.000000 0.030582 0.000000 0.000000
# 5 0.000000 0.000000 0.000000 0.000000 -0.124283 0.000000
# 6 0.000000 0.000000 0.000000 0.000000 0.000000 0.040753
#
#
# Mechanical properties :
#
#
# Convention : Reuss Voigt Hill
#
# Bulk Modulus (GPa) = 13.76601 20.69676 17.23138
# Shear Modulus (GPa) = 147.81820 22.35258 85.08539
#
# Velocity S-wave (km/s) = 8.59248 3.34132 6.51901
# Velocity P-wave (km/s) = 10.26239 5.02228 8.07898
#
# Compressibility (1/GPa) = 0.07264271
#
# Stress axis : x y z
#
# Youngs Moduli (GPa) = 48.11140 28.50457 85.22710
#
# Poissons Ratio (x) = -0.30127 0.16090
# Poissons Ratio (y) = -0.50849 0.52501
# Poissons Ratio (z) = 0.09083 0.17559
#
# Static dielectric constant tensor:
#      x y z
#    x 1.733620 0.000000 0.000000 
#    y 0.000000 1.777630 0.000000 
#    z 0.000000 0.000000 1.753810 
# 
# From -- ./inp_files/33389.got.cif
#   From: 2010.05.17/outbox.cif.g08.bks.cpg/sg73_17_cif.got.tgz:33389.got - 2010.06.03 17:35:07.
