data_PCOD9530407
_publ_section_title
;
Structure prediction by ZEFSAII (Michael W. Deem and Ramdas Pophale) SiO2 
 PCOD9530407
Probable space group: I B C A 
;
_chemical_formula_sum "Si O2"
_cell_formula_units_Z 96
_cell_length_a 25.578145
_cell_length_b 23.830068
_cell_length_c 8.634851
_cell_angle_alpha 90.000000
_cell_angle_beta 90.000000
_cell_angle_gamma 90.000000
_cell_volume 5263.191531
_symmetry_space_group_name_H-M "I B C A "
_symmetry_group_IT_number 73
_symmetry_cell_setting 'orthorhombic'
loop_
_space_group_symop_operation_xyz
x,y,z
-x,1/2-y,z
x,-y,1/2-z
1/2-x,y,-z
-x,-y,-z
x,1/2+y,-z
-x,y,1/2+z
1/2+x,-y,z
1/2+x,1/2+y,1/2+z
1/2-x,-y,1/2+z
1/2+x,1/2-y,-z
-x,1/2+y,1/2-z
1/2-x,1/2-y,1/2-z
1/2+x,y,1/2-z
1/2-x,1/2+y,z
x,1/2-y,1/2+z
loop_
_atom_site_type_symbol
_atom_site_label
_atom_site_fract_x
_atom_site_fract_y
_atom_site_fract_z
Si Si1 0.508217 0.000000 0.750000
Si Si2 0.806136 0.178889 0.087458
Si Si3 0.308563 0.288715 0.552483
Si Si4 0.154594 0.432962 0.995974
Si Si5 0.424463 0.030768 0.995046
Si Si6 0.750000 0.517225 0.500000
Si Si7 0.171120 0.401013 0.640689
O O1 0.469591 0.968920 0.632939
O O2 0.546142 0.040894 0.654980
O O3 0.803849 0.198887 0.265571
O O4 0.750000 0.165117 0.000000
O O5 0.834009 0.228654 0.989312
O O6 0.838765 0.121686 0.098167
O O7 0.250000 0.277067 0.500000
O O8 0.324346 0.340691 0.441710
O O9 0.101802 0.468846 0.003300
O O10 0.160380 0.407947 0.822322
O O11 0.201804 0.475997 0.038604
O O12 0.376824 0.069648 0.947807
O O13 0.776471 0.561072 0.380911
#
# Coordination Sequence:
#
# PCOD9530407 Si02
#       7
#     8  16  16  16  16   8  16
#     4  10  20  40  58  82 110 148 182 246 274 352
#     4  11  22  36  55  77 111 154 193 228 268 320
#     4  11  22  36  55  77 111 154 193 228 268 320
#     4  11  21  36  53  83 115 153 182 227 272 337
#     4  10  21  37  60  83 116 143 191 222 299 326
#     4  10  20  30  52  74 122 150 182 210 270 316
#     4  11  21  36  53  83 115 153 182 227 272 337
#
# _framework density 18.239882999999999
#
# number of rings (size 3 to 8) (size 9 to 14) (size 15 to 20)
#    0.000    1.333    3.333    5.500    2.333    1.333 
#    6.000    0.000    0.000    0.000    0.000    7.000 
#    0.000    0.000    0.000    0.000    0.000    0.000 
#
# Total GULP energy -267349.201208 kJ/mol
# GULP energy per Si atom -5569.775025 kJ/mol
# Density = 1.819837 g / cm^3
# Si number density = 18.239883 Si / 1000 Ang^3
#
#
#
# Elastic Constant Matrix: (Units=GPa)
#
#
# Indices 1 2 3 4 5 6 
#
# 1 57.9165 8.3272 24.6605 0.0000 0.0000 0.0000
# 2 8.3272 81.7426 4.7103 0.0000 0.0000 0.0000
# 3 24.6605 4.7103 57.9829 0.0000 0.0000 0.0000
# 4 0.0000 0.0000 0.0000 -1.4667 0.0000 0.0000
# 5 0.0000 0.0000 0.0000 0.0000 28.5258 0.0000
# 6 0.0000 0.0000 0.0000 0.0000 0.0000 -28.8563
#
#
#
# Elastic Compliance Matrix: (Units=1/GPa)
#
#
# Indices 1 2 3 4 5 6 
#
# 1 0.021305 -0.001656 -0.008927 0.000000 0.000000 0.000000
# 2 -0.001656 0.012420 -0.000305 0.000000 0.000000 0.000000
# 3 -0.008927 -0.000305 0.021068 0.000000 0.000000 0.000000
# 4 0.000000 0.000000 0.000000 -0.681817 0.000000 0.000000
# 5 0.000000 0.000000 0.000000 0.000000 0.035056 0.000000
# 6 0.000000 0.000000 0.000000 0.000000 0.000000 -0.034654
#
#
# Mechanical properties :
#
#
# Convention : Reuss Voigt Hill
#
# Bulk Modulus (GPa) = 30.28639 30.33755 30.31197
# Shear Modulus (GPa) = -8.41975 10.30350 0.94188
#
# Velocity S-wave (km/s) = -2.15085 2.37932 0.71938
# Velocity P-wave (km/s) = 3.23610 4.92106 4.16468
#
# Compressibility (1/GPa) = 0.03301814
#
# Stress axis : x y z
#
# Youngs Moduli (GPa) = 46.93671 80.51673 47.46579
#
# Poissons Ratio (x) = 0.13334 0.42371
# Poissons Ratio (y) = 0.07773 0.01446
# Poissons Ratio (z) = 0.41899 0.02453
#
# Static dielectric constant tensor:
#      x y z
#    x 1.603230 0.000000 0.000000 
#    y 0.000000 1.698660 0.000000 
#    z 0.000000 0.000000 1.737410 
# 
# From -- ./inp_files/7217.got.cif
#   From: 2010.05.17/outbox.cif.g08.bks.cpg/sg73_4_cif.got.tgz:7217.got - 2010.06.03 17:35:07.
