data_PCOD9530847
_publ_section_title
;
Structure prediction by ZEFSAII (Michael W. Deem and Ramdas Pophale) SiO2 
 PCOD9530847
Probable space group: I B C A 
;
_chemical_formula_sum "Si O2"
_cell_formula_units_Z 64
_cell_length_a 4.795256
_cell_length_b 16.800455
_cell_length_c 29.853098
_cell_angle_alpha 90.000000
_cell_angle_beta 90.000000
_cell_angle_gamma 90.000000
_cell_volume 2405.039689
_symmetry_space_group_name_H-M "I B C A "
_symmetry_group_IT_number 73
_symmetry_cell_setting 'orthorhombic'
loop_
_space_group_symop_operation_xyz
x,y,z
-x,1/2-y,z
x,-y,1/2-z
1/2-x,y,-z
-x,-y,-z
x,1/2+y,-z
-x,y,1/2+z
1/2+x,-y,z
1/2+x,1/2+y,1/2+z
1/2-x,-y,1/2+z
1/2+x,1/2-y,-z
-x,1/2+y,1/2-z
1/2-x,1/2-y,1/2-z
1/2+x,y,1/2-z
1/2-x,1/2+y,z
x,1/2-y,1/2+z
loop_
_atom_site_type_symbol
_atom_site_label
_atom_site_fract_x
_atom_site_fract_y
_atom_site_fract_z
Si Si1 0.749675 0.611127 0.280663
Si Si2 0.250000 0.190284 0.500000
Si Si3 0.000000 0.250000 0.672679
Si Si4 0.542864 0.342405 0.410638
Si Si5 0.579504 0.451556 0.124269
O O1 0.554866 0.595155 0.238481
O O2 0.779546 0.702036 0.297781
O O3 0.644500 0.563979 0.323827
O O4 0.500000 0.250000 0.513964
O O5 0.315387 0.133556 0.457333
O O6 0.143537 0.183008 0.640466
O O7 0.500000 0.250000 0.424843
O O8 0.243973 0.384333 0.402417
O O9 0.255642 0.466890 0.114196
#
# Coordination Sequence:
#
# PCOD9530847 Si02
#       5
#    16   8   8  16  16
#     4  11  22  38  59  86 119 159 206 253 301 358
#     4  10  20  38  64  98 122 152 206 262 304 364
#     4   8  18  38  58  90 120 156 198 254 308 358
#     4   8  19  41  64  91 121 159 202 250 303 367
#     4  11  24  41  60  89 125 164 201 251 308 364
#
# _framework density 26.610790000000001
#
# number of rings (size 3 to 8) (size 9 to 14) (size 15 to 20)
#    0.750    1.500    0.000    2.250    0.000    7.000 
#    9.000    1.250    0.000    0.000    0.000    0.000 
#    0.000    0.000    0.000    0.000    0.000    0.000 
#
# Total GULP energy -178510.054261 kJ/mol
# GULP energy per Si atom -5578.439196 kJ/mol
# Density = 2.655022 g / cm^3
# Si number density = 26.610790 Si / 1000 Ang^3
#
#
#
# Elastic Constant Matrix: (Units=GPa)
#
#
# Indices 1 2 3 4 5 6 
#
# 1 93.8570 -14.6062 13.9929 0.0000 0.0000 0.0000
# 2 -14.6062 44.7700 10.1147 0.0000 0.0000 0.0000
# 3 13.9929 10.1147 166.5477 0.0000 0.0000 0.0000
# 4 0.0000 0.0000 0.0000 53.0402 0.0000 0.0000
# 5 0.0000 0.0000 0.0000 0.0000 43.0533 0.0000
# 6 0.0000 0.0000 0.0000 0.0000 0.0000 32.8600
#
#
#
# Elastic Compliance Matrix: (Units=1/GPa)
#
#
# Indices 1 2 3 4 5 6 
#
# 1 0.011459 0.004011 -0.001206 0.000000 0.000000 0.000000
# 2 0.004011 0.024051 -0.001798 0.000000 0.000000 0.000000
# 3 -0.001206 -0.001798 0.006215 0.000000 0.000000 0.000000
# 4 0.000000 0.000000 0.000000 0.018854 0.000000 0.000000
# 5 0.000000 0.000000 0.000000 0.000000 0.023227 0.000000
# 6 0.000000 0.000000 0.000000 0.000000 0.000000 0.030432
#
#
# Mechanical properties :
#
#
# Convention : Reuss Voigt Hill
#
# Bulk Modulus (GPa) = 22.86325 36.01972 29.44149
# Shear Modulus (GPa) = 39.43132 45.50226 42.46679
#
# Velocity S-wave (km/s) = 3.85357 4.13960 3.99914
# Velocity P-wave (km/s) = 5.33013 6.03436 5.69315
#
# Compressibility (1/GPa) = 0.04373831
#
# Stress axis : x y z
#
# Youngs Moduli (GPa) = 87.27121 41.57818 160.90600
#
# Poissons Ratio (x) = -0.16677 0.19410
# Poissons Ratio (y) = -0.35004 0.28925
# Poissons Ratio (z) = 0.10528 0.07474
#
# Static dielectric constant tensor:
#      x y z
#    x 2.080780 0.000000 0.000000 
#    y 0.000000 0.623580 0.000000 
#    z 0.000000 0.000000 2.156840 
# 
# From -- ./inp_files/24059.got.cif
#   From: 2010.05.17/outbox.cif.g08.bks.cpg/sg73_13_cif.got.tgz:24059.got - 2010.06.03 17:35:07.
