data_PCOD9530215
_publ_section_title
;
Structure prediction by ZEFSAII (Michael W. Deem and Ramdas Pophale) SiO2 
 PCOD9530215
Probable space group: I B C A 
;
_chemical_formula_sum "Si O2"
_cell_formula_units_Z 96
_cell_length_a 11.493583
_cell_length_b 17.558682
_cell_length_c 24.119812
_cell_angle_alpha 90.000000
_cell_angle_beta 90.000000
_cell_angle_gamma 90.000000
_cell_volume 4867.671574
_symmetry_space_group_name_H-M "I B C A "
_symmetry_group_IT_number 73
_symmetry_cell_setting 'orthorhombic'
loop_
_space_group_symop_operation_xyz
x,y,z
-x,1/2-y,z
x,-y,1/2-z
1/2-x,y,-z
-x,-y,-z
x,1/2+y,-z
-x,y,1/2+z
1/2+x,-y,z
1/2+x,1/2+y,1/2+z
1/2-x,-y,1/2+z
1/2+x,1/2-y,-z
-x,1/2+y,1/2-z
1/2-x,1/2-y,1/2-z
1/2+x,y,1/2-z
1/2-x,1/2+y,z
x,1/2-y,1/2+z
loop_
_atom_site_type_symbol
_atom_site_label
_atom_site_fract_x
_atom_site_fract_y
_atom_site_fract_z
Si Si1 0.094848 0.909456 0.680541
Si Si2 0.441556 0.911582 0.196007
Si Si3 0.827754 0.069211 0.624575
Si Si4 0.494931 0.584999 0.024077
Si Si5 0.280269 0.599876 0.601101
Si Si6 0.042734 0.833447 0.086367
O O1 0.067829 0.879291 0.742069
O O2 0.215303 0.889029 0.650008
O O3 0.997476 0.888212 0.636256
O O4 0.096949 0.999910 0.691488
O O5 0.570624 0.917671 0.170173
O O6 0.348111 0.872162 0.155909
O O7 0.889094 0.094462 0.567312
O O8 0.782277 0.982501 0.612096
O O9 0.616662 0.592933 0.056633
O O10 0.500000 0.500000 0.000000
O O11 0.487977 0.640100 0.971664
O O12 0.180619 0.656828 0.582031
O O13 0.000000 0.750000 0.100439
#
# Coordination Sequence:
#
# PCOD9530215 Si02
#       6
#    16  16  16  16  16  16
#     4  10  21  35  58  95 120 158 200 259 314 372
#     4   9  19  34  65  91 119 148 201 273 316 352
#     4  10  19  35  62  95 119 147 207 263 313 364
#     4  11  21  39  65  90 119 161 212 269 312 362
#     4  10  20  38  61  92 125 157 202 262 319 365
#     4  12  25  41  58  89 132 172 206 246 317 388
#
# _framework density 19.721955000000001
#
# number of rings (size 3 to 8) (size 9 to 14) (size 15 to 20)
#    0.000    1.667    3.333    2.500    2.333    3.333 
#    6.000    0.833    0.000    0.000    0.000    0.000 
#    0.000    0.000    0.000    0.000    0.000    0.000 
#
# Total GULP energy -267530.109071 kJ/mol
# GULP energy per Si atom -5573.543939 kJ/mol
# Density = 1.967707 g / cm^3
# Si number density = 19.721955 Si / 1000 Ang^3
#
#
#
# Elastic Constant Matrix: (Units=GPa)
#
#
# Indices 1 2 3 4 5 6 
#
# 1 48.8518 4.5036 40.9635 0.0000 0.0000 0.0000
# 2 4.5036 13.4873 7.0802 0.0000 0.0000 0.0000
# 3 40.9635 7.0802 154.2927 0.0000 0.0000 0.0000
# 4 0.0000 0.0000 0.0000 5.7424 0.0000 0.0000
# 5 0.0000 0.0000 0.0000 0.0000 11.1367 0.0000
# 6 0.0000 0.0000 0.0000 0.0000 0.0000 9.6375
#
#
#
# Elastic Compliance Matrix: (Units=1/GPa)
#
#
# Indices 1 2 3 4 5 6 
#
# 1 0.026700 -0.005323 -0.006844 0.000000 0.000000 0.000000
# 2 -0.005323 0.077035 -0.002122 0.000000 0.000000 0.000000
# 3 -0.006844 -0.002122 0.008396 0.000000 0.000000 0.000000
# 4 0.000000 0.000000 0.000000 0.174144 0.000000 0.000000
# 5 0.000000 0.000000 0.000000 0.000000 0.089793 0.000000
# 6 0.000000 0.000000 0.000000 0.000000 0.000000 0.103762
#
#
# Mechanical properties :
#
#
# Convention : Reuss Voigt Hill
#
# Bulk Modulus (GPa) = 11.96848 35.74739 23.85793
# Shear Modulus (GPa) = 9.32387 16.24228 12.78308
#
# Velocity S-wave (km/s) = 2.17668 2.87289 2.54867
# Velocity P-wave (km/s) = 3.52122 5.40090 4.55899
#
# Compressibility (1/GPa) = 0.08355282
#
# Stress axis : x y z
#
# Youngs Moduli (GPa) = 37.45322 12.98114 119.10871
#
# Poissons Ratio (x) = 0.06909 0.81523
# Poissons Ratio (y) = 0.19935 0.25274
# Poissons Ratio (z) = 0.25634 0.02754
#
# Static dielectric constant tensor:
#      x y z
#    x 1.710850 0.000000 0.000000 
#    y 0.000000 1.665530 0.000000 
#    z 0.000000 0.000000 1.749600 
# 
# From -- ./inp_files/31746.got.cif
#   From: 2010.05.17/outbox.cif.g08.bks.cpg/sg73_16_cif.got.tgz:31746.got - 2010.06.03 17:35:07.
