data_PCOD9530793
_publ_section_title
;
Structure prediction by ZEFSAII (Michael W. Deem and Ramdas Pophale) SiO2 
 PCOD9530793
Probable space group: I B C A 
;
_chemical_formula_sum "Si O2"
_cell_formula_units_Z 120
_cell_length_a 26.603563
_cell_length_b 8.826294
_cell_length_c 30.253532
_cell_angle_alpha 90.000000
_cell_angle_beta 90.000000
_cell_angle_gamma 90.000000
_cell_volume 7103.858124
_symmetry_space_group_name_H-M "I B C A "
_symmetry_group_IT_number 73
_symmetry_cell_setting 'orthorhombic'
loop_
_space_group_symop_operation_xyz
x,y,z
-x,1/2-y,z
x,-y,1/2-z
1/2-x,y,-z
-x,-y,-z
x,1/2+y,-z
-x,y,1/2+z
1/2+x,-y,z
1/2+x,1/2+y,1/2+z
1/2-x,-y,1/2+z
1/2+x,1/2-y,-z
-x,1/2+y,1/2-z
1/2-x,1/2-y,1/2-z
1/2+x,y,1/2-z
1/2-x,1/2+y,z
x,1/2-y,1/2+z
loop_
_atom_site_type_symbol
_atom_site_label
_atom_site_fract_x
_atom_site_fract_y
_atom_site_fract_z
Si Si1 0.854567 0.133336 0.383487
Si Si2 0.791320 0.755432 0.188301
Si Si3 0.049070 0.666265 0.064527
Si Si4 0.278364 0.853032 0.106494
Si Si5 0.052507 0.333594 0.024583
Si Si6 0.343591 0.687597 0.044035
Si Si7 0.812117 0.357545 0.457568
Si Si8 0.738152 0.500000 0.750000
O O1 0.842729 0.206392 0.336404
O O2 0.912146 0.119543 0.397338
O O3 0.835551 0.245649 0.421704
O O4 0.818086 0.987387 0.385239
O O5 0.752658 0.701768 0.149330
O O6 0.794107 0.618174 0.222211
O O7 0.770701 0.899583 0.215608
O O8 0.044631 0.509669 0.036457
O O9 0.000000 0.750000 0.083508
O O10 0.063778 0.789740 0.026654
O O11 0.311417 0.715662 0.087869
O O12 0.240545 0.899307 0.066451
O O13 0.101718 0.263819 0.048167
O O14 0.000000 0.250000 0.035523
O O15 0.343554 0.510084 0.034860
O O16 0.314076 0.767767 0.003542
#
# Coordination Sequence:
#
# PCOD9530793 Si02
#       8
#    16  16  16  16  16  16  16   8
#     4  11  21  37  55  80 110 143 185 230 276 317
#     4  10  21  37  59  84 116 144 177 214 269 340
#     4  11  22  37  55  74 104 147 193 245 280 313
#     4  11  22  37  50  79 114 148 183 228 265 324
#     4  11  22  36  53  72 102 146 205 241 274 307
#     4  12  22  35  51  73 107 154 194 231 274 313
#     4  11  23  33  50  71 108 153 193 224 265 324
#     4  10  20  38  60  84 112 148 172 208 270 350
#
# _framework density 16.892229
#
# number of rings (size 3 to 8) (size 9 to 14) (size 15 to 20)
#    0.000    1.067    4.000    5.200    3.733    1.067 
#    0.000    0.000    0.000    0.000    0.000    0.933 
#    0.000    0.000    0.000    0.000    0.000    0.000 
#
# Total GULP energy -334446.098363 kJ/mol
# GULP energy per Si atom -5574.101639 kJ/mol
# Density = 1.685378 g / cm^3
# Si number density = 16.892229 Si / 1000 Ang^3
#
#
#
# Elastic Constant Matrix: (Units=GPa)
#
#
# Indices 1 2 3 4 5 6 
#
# 1 86.6683 26.7547 33.2357 0.0000 0.0000 0.0000
# 2 26.7547 109.6447 37.6711 0.0000 0.0000 0.0000
# 3 33.2357 37.6711 77.9913 0.0000 0.0000 0.0000
# 4 0.0000 0.0000 0.0000 26.6705 0.0000 0.0000
# 5 0.0000 0.0000 0.0000 0.0000 20.1633 0.0000
# 6 0.0000 0.0000 0.0000 0.0000 0.0000 21.8143
#
#
#
# Elastic Compliance Matrix: (Units=1/GPa)
#
#
# Indices 1 2 3 4 5 6 
#
# 1 0.014035 -0.001642 -0.005188 0.000000 0.000000 0.000000
# 2 -0.001642 0.011127 -0.004675 0.000000 0.000000 0.000000
# 3 -0.005188 -0.004675 0.017291 0.000000 0.000000 0.000000
# 4 0.000000 0.000000 0.000000 0.037495 0.000000 0.000000
# 5 0.000000 0.000000 0.000000 0.000000 0.049595 0.000000
# 6 0.000000 0.000000 0.000000 0.000000 0.000000 0.045841
#
#
# Mechanical properties :
#
#
# Convention : Reuss Voigt Hill
#
# Bulk Modulus (GPa) = 51.43195 52.18082 51.80638
# Shear Modulus (GPa) = 24.40527 25.50580 24.95554
#
# Velocity S-wave (km/s) = 3.80513 3.88998 3.84779
# Velocity P-wave (km/s) = 7.05822 7.15076 7.10464
#
# Compressibility (1/GPa) = 0.01944317
#
# Stress axis : x y z
#
# Youngs Moduli (GPa) = 71.25273 89.86945 57.83492
#
# Poissons Ratio (x) = 0.14759 0.30002
# Poissons Ratio (y) = 0.11702 0.27037
# Poissons Ratio (z) = 0.36962 0.42012
#
# Static dielectric constant tensor:
#      x y z
#    x 1.656990 0.000000 0.000000 
#    y 0.000000 1.606550 0.000000 
#    z 0.000000 0.000000 1.565740 
# 
# From -- ./inp_files/34875.got.cif
#   From: 2010.05.17/outbox.cif.g08.bks.cpg/sg73_18_cif.got.tgz:34875.got - 2010.06.03 17:35:07.
