data_PCOD9530000
_publ_section_title
;
Structure prediction by ZEFSAII (Michael W. Deem and Ramdas Pophale) SiO2 
 PCOD9530000
Probable space group: I B C A 
;
_chemical_formula_sum "Si O2"
_cell_formula_units_Z 112
_cell_length_a 21.909248
_cell_length_b 15.133891
_cell_length_c 17.582757
_cell_angle_alpha 90.000000
_cell_angle_beta 90.000000
_cell_angle_gamma 90.000000
_cell_volume 5829.952913
_symmetry_space_group_name_H-M "I B C A "
_symmetry_group_IT_number 73
_symmetry_cell_setting 'orthorhombic'
loop_
_space_group_symop_operation_xyz
x,y,z
-x,1/2-y,z
x,-y,1/2-z
1/2-x,y,-z
-x,-y,-z
x,1/2+y,-z
-x,y,1/2+z
1/2+x,-y,z
1/2+x,1/2+y,1/2+z
1/2-x,-y,1/2+z
1/2+x,1/2-y,-z
-x,1/2+y,1/2-z
1/2-x,1/2-y,1/2-z
1/2+x,y,1/2-z
1/2-x,1/2+y,z
x,1/2-y,1/2+z
loop_
_atom_site_type_symbol
_atom_site_label
_atom_site_fract_x
_atom_site_fract_y
_atom_site_fract_z
Si Si1 0.555246 0.861257 0.601359
Si Si2 0.662245 0.444291 0.816177
Si Si3 0.115385 0.948118 0.575899
Si Si4 0.586462 0.832665 0.070634
Si Si5 0.770453 0.346456 0.729866
Si Si6 0.743069 0.957320 0.587218
Si Si7 0.906233 0.395790 0.766144
O O1 0.485080 0.855676 0.577109
O O2 0.589607 0.774097 0.569549
O O3 0.557448 0.856858 0.694250
O O4 0.584084 0.954220 0.573344
O O5 0.628352 0.500000 0.750000
O O6 0.621471 0.370280 0.855497
O O7 0.720988 0.406628 0.772120
O O8 0.693246 0.502485 0.882403
O O9 0.111506 0.887089 0.501660
O O10 0.081166 0.894278 0.643885
O O11 0.186347 0.973445 0.593916
O O12 0.750000 0.250000 0.750000
O O13 0.770778 0.375383 0.642130
O O14 0.838287 0.359949 0.758356
O O15 0.750000 0.932750 0.500000
O O16 0.904388 0.500000 0.750000
#
# Coordination Sequence:
#
# PCOD9530000 Si02
#       7
#    16  16  16  16  16  16  16
#     4  10  23  41  64  89 120 165 216 255 311 382
#     4  10  21  35  57  87 125 163 200 249 320 376
#     4  11  21  40  67  88 121 168 211 255 317 375
#     4  11  23  42  61  92 131 159 203 275 320 363
#     4  11  20  35  57  87 125 161 205 254 308 365
#     4  11  20  38  59  89 124 160 206 258 308 379
#     4  10  18  38  64  84 112 164 216 248 294 383
#
# _framework density 19.211134000000001
#
# number of rings (size 3 to 8) (size 9 to 14) (size 15 to 20)
#    0.000    1.429    5.714    1.714    0.000    1.714 
#    2.571    5.000    0.000    0.000    0.000    0.000 
#    0.000    0.000    0.000    0.000    0.000    0.000 
#
# Total GULP energy -312103.042295 kJ/mol
# GULP energy per Si atom -5573.268612 kJ/mol
# Density = 1.916741 g / cm^3
# Si number density = 19.211134 Si / 1000 Ang^3
#
#
#
# Elastic Constant Matrix: (Units=GPa)
#
#
# Indices 1 2 3 4 5 6 
#
# 1 24.8843 -2.6358 16.3088 0.0000 0.0000 0.0000
# 2 -2.6358 70.5882 68.9098 0.0000 0.0000 0.0000
# 3 16.3088 68.9098 119.5424 0.0000 0.0000 0.0000
# 4 0.0000 0.0000 0.0000 35.0984 0.0000 0.0000
# 5 0.0000 0.0000 0.0000 0.0000 18.7760 0.0000
# 6 0.0000 0.0000 0.0000 0.0000 0.0000 2.6927
#
#
#
# Elastic Compliance Matrix: (Units=1/GPa)
#
#
# Indices 1 2 3 4 5 6 
#
# 1 0.055663 0.021707 -0.020107 0.000000 0.000000 0.000000
# 2 0.021707 0.040864 -0.026517 0.000000 0.000000 0.000000
# 3 -0.020107 -0.026517 0.026394 0.000000 0.000000 0.000000
# 4 0.000000 0.000000 0.000000 0.028491 0.000000 0.000000
# 5 0.000000 0.000000 0.000000 0.000000 0.053260 0.000000
# 6 0.000000 0.000000 0.000000 0.000000 0.000000 0.371370
#
#
# Mechanical properties :
#
#
# Convention : Reuss Voigt Hill
#
# Bulk Modulus (GPa) = 13.68227 42.24228 27.96228
# Shear Modulus (GPa) = 7.68948 20.14223 13.91586
#
# Velocity S-wave (km/s) = 2.00282 3.24152 2.69432
# Velocity P-wave (km/s) = 3.53354 6.00384 4.92605
#
# Compressibility (1/GPa) = 0.07308727
#
# Stress axis : x y z
#
# Youngs Moduli (GPa) = 17.96524 24.47133 37.88702
#
# Poissons Ratio (x) = -0.53121 0.76180
# Poissons Ratio (y) = -0.38998 1.00467
# Poissons Ratio (z) = 0.36123 0.64892
#
# Static dielectric constant tensor:
#      x y z
#    x 1.658410 0.000000 0.000000 
#    y 0.000000 1.677020 0.000000 
#    z 0.000000 0.000000 1.731380 
# 
# From -- ./inp_files/19432.got.cif
#   From: 2010.05.17/outbox.cif.g08.bks.cpg/sg73_10_cif.got.tgz:19432.got - 2010.06.03 17:35:07.
