data_PCOD9530147
_publ_section_title
;
Structure prediction by ZEFSAII (Michael W. Deem and Ramdas Pophale) SiO2 
 PCOD9530147
Probable space group: I B C A 
;
_chemical_formula_sum "Si O2"
_cell_formula_units_Z 88
_cell_length_a 20.007326
_cell_length_b 17.796125
_cell_length_c 11.754443
_cell_angle_alpha 90.000000
_cell_angle_beta 90.000000
_cell_angle_gamma 90.000000
_cell_volume 4185.203217
_symmetry_space_group_name_H-M "I B C A "
_symmetry_group_IT_number 73
_symmetry_cell_setting 'orthorhombic'
loop_
_space_group_symop_operation_xyz
x,y,z
-x,1/2-y,z
x,-y,1/2-z
1/2-x,y,-z
-x,-y,-z
x,1/2+y,-z
-x,y,1/2+z
1/2+x,-y,z
1/2+x,1/2+y,1/2+z
1/2-x,-y,1/2+z
1/2+x,1/2-y,-z
-x,1/2+y,1/2-z
1/2-x,1/2-y,1/2-z
1/2+x,y,1/2-z
1/2-x,1/2+y,z
x,1/2-y,1/2+z
loop_
_atom_site_type_symbol
_atom_site_label
_atom_site_fract_x
_atom_site_fract_y
_atom_site_fract_z
Si Si1 0.322351 0.890990 0.061534
Si Si2 0.899336 0.500000 0.250000
Si Si3 0.500000 0.750000 0.510341
Si Si4 0.866525 0.737062 0.339947
Si Si5 0.709385 0.413847 0.885613
Si Si6 0.925583 0.353208 0.363091
Si Si7 0.688798 0.000000 0.750000
O O1 0.329516 0.815842 0.139323
O O2 0.343765 0.962717 0.138957
O O3 0.250000 0.899122 0.000000
O O4 0.373404 0.877359 0.959078
O O5 0.851329 0.469387 0.148465
O O6 0.939399 0.426864 0.288582
O O7 0.565439 0.740317 0.586559
O O8 0.488988 0.679724 0.427244
O O9 0.819285 0.669703 0.382516
O O10 0.890599 0.710850 0.214734
O O11 0.762888 0.432131 0.788225
O O12 0.750000 0.428091 0.000000
#
# Coordination Sequence:
#
# PCOD9530147 Si02
#       7
#    16   8   8  16  16  16   8
#     4  11  22  37  60  93 126 158 196 245 301 364
#     4   9  18  34  60  85 118 163 194 233 302 367
#     4  10  22  40  62  86 116 156 208 264 302 346
#     4  10  22  38  62  87 114 158 205 247 303 362
#     4  10  19  34  56  86 122 155 189 237 297 361
#     4  10  21  40  62  87 122 157 198 251 302 355
#     4  11  22  34  56  87 126 159 190 237 300 369
#
# _framework density 21.026458000000002
#
# number of rings (size 3 to 8) (size 9 to 14) (size 15 to 20)
#    0.000    1.818    0.000    6.000    0.000    5.818 
#    0.000    3.636    0.000   33.818    0.000    0.000 
#    0.000    0.000    0.000    0.000    0.000    0.000 
#
# Total GULP energy -245438.662108 kJ/mol
# GULP energy per Si atom -5578.151412 kJ/mol
# Density = 2.097860 g / cm^3
# Si number density = 21.026458 Si / 1000 Ang^3
#
#
#
# Elastic Constant Matrix: (Units=GPa)
#
#
# Indices 1 2 3 4 5 6 
#
# 1 50.8702 34.1898 33.3208 0.0000 0.0000 0.0000
# 2 34.1898 142.4816 51.0107 0.0000 0.0000 0.0000
# 3 33.3208 51.0107 107.8054 0.0000 0.0000 0.0000
# 4 0.0000 0.0000 0.0000 42.3453 0.0000 0.0000
# 5 0.0000 0.0000 0.0000 0.0000 -2.1784 0.0000
# 6 0.0000 0.0000 0.0000 0.0000 0.0000 15.6806
#
#
#
# Elastic Compliance Matrix: (Units=1/GPa)
#
#
# Indices 1 2 3 4 5 6 
#
# 1 0.026523 -0.004129 -0.006244 0.000000 0.000000 0.000000
# 2 -0.004129 0.009093 -0.003026 0.000000 0.000000 0.000000
# 3 -0.006244 -0.003026 0.012638 0.000000 0.000000 0.000000
# 4 0.000000 0.000000 0.000000 0.023615 0.000000 0.000000
# 5 0.000000 0.000000 0.000000 0.000000 -0.459055 0.000000
# 6 0.000000 0.000000 0.000000 0.000000 0.000000 0.063773
#
#
# Mechanical properties :
#
#
# Convention : Reuss Voigt Hill
#
# Bulk Modulus (GPa) = 46.60934 59.79998 53.20466
# Shear Modulus (GPa) = -17.27334 23.34524 3.03595
#
# Velocity S-wave (km/s) = -2.86930 3.33570 1.20292
# Velocity P-wave (km/s) = 3.35230 6.58316 5.22379
#
# Compressibility (1/GPa) = 0.02145493
#
# Stress axis : x y z
#
# Youngs Moduli (GPa) = 37.70330 109.97868 79.12748
#
# Poissons Ratio (x) = 0.45410 0.49408
# Poissons Ratio (y) = 0.15567 0.23946
# Poissons Ratio (z) = 0.23542 0.33282
#
# Static dielectric constant tensor:
#      x y z
#    x 1.730490 0.000000 0.000000 
#    y 0.000000 1.781490 0.000000 
#    z 0.000000 0.000000 1.825800 
# 
# From -- ./inp_files/12761.got.cif
#   From: 2010.05.17/outbox.cif.g08.bks.cpg/sg73_7_cif.got.tgz:12761.got - 2010.06.03 17:35:07.
