data_PCOD9530729
_publ_section_title
;
Structure prediction by ZEFSAII (Michael W. Deem and Ramdas Pophale) SiO2 
 PCOD9530729
Probable space group: I B C A 
;
_chemical_formula_sum "Si O2"
_cell_formula_units_Z 120
_cell_length_a 23.515946
_cell_length_b 9.166368
_cell_length_c 28.652801
_cell_angle_alpha 90.000000
_cell_angle_beta 90.000000
_cell_angle_gamma 90.000000
_cell_volume 6176.277869
_symmetry_space_group_name_H-M "I B C A "
_symmetry_group_IT_number 73
_symmetry_cell_setting 'orthorhombic'
loop_
_space_group_symop_operation_xyz
x,y,z
-x,1/2-y,z
x,-y,1/2-z
1/2-x,y,-z
-x,-y,-z
x,1/2+y,-z
-x,y,1/2+z
1/2+x,-y,z
1/2+x,1/2+y,1/2+z
1/2-x,-y,1/2+z
1/2+x,1/2-y,-z
-x,1/2+y,1/2-z
1/2-x,1/2-y,1/2-z
1/2+x,y,1/2-z
1/2-x,1/2+y,z
x,1/2-y,1/2+z
loop_
_atom_site_type_symbol
_atom_site_label
_atom_site_fract_x
_atom_site_fract_y
_atom_site_fract_z
Si Si1 0.173283 0.128587 0.120760
Si Si2 0.525496 0.583047 0.297216
Si Si3 0.774501 0.308392 0.398409
Si Si4 0.936337 0.705093 0.041543
Si Si5 0.133423 0.923757 0.480601
Si Si6 0.250000 0.091983 0.500000
Si Si7 0.888342 0.713842 0.638217
Si Si8 0.402742 0.997576 0.805342
O O1 0.219385 0.253079 0.128201
O O2 0.205128 0.971606 0.114107
O O3 0.143812 0.146641 0.070332
O O4 0.130540 0.113711 0.163634
O O5 0.500000 0.750000 0.289216
O O6 0.543294 0.500000 0.250000
O O7 0.576380 0.591528 0.334476
O O8 0.470082 0.496589 0.314813
O O9 0.757517 0.313466 0.453032
O O10 0.826622 0.200049 0.385597
O O11 0.914796 0.546135 0.027389
O O12 0.928161 0.725244 0.096883
O O13 0.000000 0.750000 0.028313
O O14 0.891444 0.810492 0.016715
O O15 0.192146 0.996022 0.499077
O O16 0.881561 0.841413 0.676144
O O17 0.394432 0.000000 0.750000
#
# Coordination Sequence:
#
# PCOD9530729 Si02
#       8
#    16  16  16  16  16   8  16  16
#     4  10  21  37  56  86 117 149 200 248 298 356
#     4   9  18  35  64  87 112 149 201 246 301 360
#     4  10  21  35  57  84 120 150 198 249 295 352
#     4  12  23  40  60  87 126 163 199 242 304 369
#     4  11  24  37  62  87 121 161 204 249 296 359
#     4  10  20  38  62  88 114 156 214 250 288 348
#     4  10  20  37  61  88 116 158 199 242 302 362
#     4   9  17  36  62  84 108 154 201 239 296 363
#
# _framework density 19.429175999999998
#
# number of rings (size 3 to 8) (size 9 to 14) (size 15 to 20)
#    0.000    1.867    4.000    2.400    3.733    1.067 
#    0.000    7.333    0.000    0.000    0.000    0.000 
#    0.000    0.000    0.000    0.000    0.000    0.000 
#
# Total GULP energy -334601.761183 kJ/mol
# GULP energy per Si atom -5576.696020 kJ/mol
# Density = 1.938495 g / cm^3
# Si number density = 19.429176 Si / 1000 Ang^3
#
#
#
# Elastic Constant Matrix: (Units=GPa)
#
#
# Indices 1 2 3 4 5 6 
#
# 1 70.1543 -3.8486 33.5063 0.0000 0.0000 0.0000
# 2 -3.8486 15.2885 15.1202 0.0000 0.0000 0.0000
# 3 33.5063 15.1202 104.5997 0.0000 0.0000 0.0000
# 4 0.0000 0.0000 0.0000 21.2118 0.0000 0.0000
# 5 0.0000 0.0000 0.0000 0.0000 24.5348 0.0000
# 6 0.0000 0.0000 0.0000 0.0000 0.0000 29.3595
#
#
#
# Elastic Compliance Matrix: (Units=1/GPa)
#
#
# Indices 1 2 3 4 5 6 
#
# 1 0.018638 0.012364 -0.007757 0.000000 0.000000 0.000000
# 2 0.012364 0.084521 -0.016178 0.000000 0.000000 0.000000
# 3 -0.007757 -0.016178 0.014384 0.000000 0.000000 0.000000
# 4 0.000000 0.000000 0.000000 0.047144 0.000000 0.000000
# 5 0.000000 0.000000 0.000000 0.000000 0.040758 0.000000
# 6 0.000000 0.000000 0.000000 0.000000 0.000000 0.034061
#
#
# Mechanical properties :
#
#
# Convention : Reuss Voigt Hill
#
# Bulk Modulus (GPa) = 10.59337 31.06647 20.82992
# Shear Modulus (GPa) = 17.00015 24.70554 20.85284
#
# Velocity S-wave (km/s) = 2.96122 3.56978 3.27964
# Velocity P-wave (km/s) = 4.14196 5.74590 5.00855
#
# Compressibility (1/GPa) = 0.09439866
#
# Stress axis : x y z
#
# Youngs Moduli (GPa) = 53.65517 11.83135 69.52279
#
# Poissons Ratio (x) = -0.14628 0.53931
# Poissons Ratio (y) = -0.66337 1.12476
# Poissons Ratio (z) = 0.41622 0.19141
#
# Static dielectric constant tensor:
#      x y z
#    x 1.715360 0.000000 0.000000 
#    y 0.000000 1.727820 0.000000 
#    z 0.000000 0.000000 1.676790 
# 
# From -- ./inp_files/32782.got.cif
#   From: 2010.05.17/outbox.cif.g08.bks.cpg/sg73_17_cif.got.tgz:32782.got - 2010.06.03 17:35:07.
