data_PCOD9530780
_publ_section_title
;
Structure prediction by ZEFSAII (Michael W. Deem and Ramdas Pophale) SiO2 
 PCOD9530780
Probable space group: I B C A 
;
_chemical_formula_sum "Si O2"
_cell_formula_units_Z 64
_cell_length_a 30.031482
_cell_length_b 25.442556
_cell_length_c 5.091550
_cell_angle_alpha 90.000000
_cell_angle_beta 90.000000
_cell_angle_gamma 90.000000
_cell_volume 3890.339623
_symmetry_space_group_name_H-M "I B C A "
_symmetry_group_IT_number 73
_symmetry_cell_setting 'orthorhombic'
loop_
_space_group_symop_operation_xyz
x,y,z
-x,1/2-y,z
x,-y,1/2-z
1/2-x,y,-z
-x,-y,-z
x,1/2+y,-z
-x,y,1/2+z
1/2+x,-y,z
1/2+x,1/2+y,1/2+z
1/2-x,-y,1/2+z
1/2+x,1/2-y,-z
-x,1/2+y,1/2-z
1/2-x,1/2-y,1/2-z
1/2+x,y,1/2-z
1/2-x,1/2+y,z
x,1/2-y,1/2+z
loop_
_atom_site_type_symbol
_atom_site_label
_atom_site_fract_x
_atom_site_fract_y
_atom_site_fract_z
Si Si1 0.834343 0.894861 0.679394
Si Si2 0.750000 0.964320 0.500000
Si Si3 0.696290 0.219837 0.030182
Si Si4 0.531789 0.500000 0.250000
Si Si5 0.880682 0.940597 0.199557
O O1 0.790552 0.928546 0.603599
O O2 0.820510 0.834310 0.654724
O O3 0.869411 0.906470 0.451000
O O4 0.856449 0.915303 0.948721
O O5 0.737463 0.000000 0.750000
O O6 0.682165 0.234757 0.735431
O O7 0.750000 0.217040 0.000000
O O8 0.500000 0.500000 0.500000
O O9 0.566438 0.548031 0.304905
O O10 0.862814 0.000000 0.250000
#
# Coordination Sequence:
#
# PCOD9530780 Si02
#       5
#    16   8  16   8  16
#     4  12  20  37  50  78 109 149 188 225 275 300
#     4  12  24  32  48  72 108 156 192 214 252 336
#     4  10  21  36  53  72 100 145 201 243 265 300
#     4  10  20  38  58  80 110 146 172 212 278 342
#     4  10  22  33  56  79 113 142 169 230 257 335
#
# _framework density 16.451006
#
# number of rings (size 3 to 8) (size 9 to 14) (size 15 to 20)
#    0.750    0.500    1.250    7.500    0.000    0.000 
#    0.000    0.000    0.000    0.000    0.000    0.000 
#    0.000   70.000    0.000    0.000    0.000    0.000 
#
# Total GULP energy -178244.588037 kJ/mol
# GULP energy per Si atom -5570.143376 kJ/mol
# Density = 1.641356 g / cm^3
# Si number density = 16.451006 Si / 1000 Ang^3
#
#
#
# Elastic Constant Matrix: (Units=GPa)
#
#
# Indices 1 2 3 4 5 6 
#
# 1 77.1454 22.3335 21.8478 0.0000 0.0000 0.0000
# 2 22.3335 83.4177 41.2756 0.0000 0.0000 0.0000
# 3 21.8478 41.2756 126.6711 0.0000 0.0000 0.0000
# 4 0.0000 0.0000 0.0000 20.0602 0.0000 0.0000
# 5 0.0000 0.0000 0.0000 0.0000 20.6817 0.0000
# 6 0.0000 0.0000 0.0000 0.0000 0.0000 1.7556
#
#
#
# Elastic Compliance Matrix: (Units=1/GPa)
#
#
# Indices 1 2 3 4 5 6 
#
# 1 0.014272 -0.003103 -0.001450 0.000000 0.000000 0.000000
# 2 -0.003103 0.014967 -0.004342 0.000000 0.000000 0.000000
# 3 -0.001450 -0.004342 0.009559 0.000000 0.000000 0.000000
# 4 0.000000 0.000000 0.000000 0.049850 0.000000 0.000000
# 5 0.000000 0.000000 0.000000 0.000000 0.048352 0.000000
# 6 0.000000 0.000000 0.000000 0.000000 0.000000 0.569594
#
#
# Mechanical properties :
#
#
# Convention : Reuss Voigt Hill
#
# Bulk Modulus (GPa) = 47.60254 50.90535 49.25394
# Shear Modulus (GPa) = 6.83633 21.95134 14.39384
#
# Velocity S-wave (km/s) = 2.04073 3.65683 2.96117
# Velocity P-wave (km/s) = 5.87806 6.98861 6.45725
#
# Compressibility (1/GPa) = 0.02100728
#
# Stress axis : x y z
#
# Youngs Moduli (GPa) = 70.06884 66.81350 104.60963
#
# Poissons Ratio (x) = 0.20735 0.15172
# Poissons Ratio (y) = 0.21745 0.45419
# Poissons Ratio (z) = 0.10162 0.29009
#
# Static dielectric constant tensor:
#      x y z
#    x 1.585670 0.000000 0.000000 
#    y 0.000000 1.617920 0.000000 
#    z 0.000000 0.000000 1.545040 
# 
# From -- ./inp_files/2518.got.cif
#   From: 2010.05.17/outbox.cif.g08.bks.cpg/sg73_2_cif.got.tgz:2518.got - 2010.06.03 17:35:07.
