data_PCOD9530486
_publ_section_title
;
Structure prediction by ZEFSAII (Michael W. Deem and Ramdas Pophale) SiO2 
 PCOD9530486
Probable space group: I B C A 
;
_chemical_formula_sum "Si O2"
_cell_formula_units_Z 96
_cell_length_a 14.695098
_cell_length_b 20.313043
_cell_length_c 16.655832
_cell_angle_alpha 90.000000
_cell_angle_beta 90.000000
_cell_angle_gamma 90.000000
_cell_volume 4971.801788
_symmetry_space_group_name_H-M "I B C A "
_symmetry_group_IT_number 73
_symmetry_cell_setting 'orthorhombic'
loop_
_space_group_symop_operation_xyz
x,y,z
-x,1/2-y,z
x,-y,1/2-z
1/2-x,y,-z
-x,-y,-z
x,1/2+y,-z
-x,y,1/2+z
1/2+x,-y,z
1/2+x,1/2+y,1/2+z
1/2-x,-y,1/2+z
1/2+x,1/2-y,-z
-x,1/2+y,1/2-z
1/2-x,1/2-y,1/2-z
1/2+x,y,1/2-z
1/2-x,1/2+y,z
x,1/2-y,1/2+z
loop_
_atom_site_type_symbol
_atom_site_label
_atom_site_fract_x
_atom_site_fract_y
_atom_site_fract_z
Si Si1 0.684223 0.047720 0.423044
Si Si2 0.145586 0.186642 0.704321
Si Si3 0.508594 0.488840 0.383543
Si Si4 0.703856 0.929143 0.586561
Si Si5 0.982845 0.604855 0.228272
Si Si6 0.321551 0.830760 0.695357
O O1 0.750000 0.054388 0.500000
O O2 0.578491 0.029994 0.437091
O O3 0.685207 0.114782 0.373406
O O4 0.728209 0.984688 0.376292
O O5 0.182574 0.135764 0.637454
O O6 0.222114 0.184912 0.772623
O O7 0.135638 0.260559 0.671470
O O8 0.055525 0.159852 0.747005
O O9 0.605596 0.465022 0.415733
O O10 0.491156 0.446041 0.302614
O O11 0.504736 0.564202 0.352325
O O12 0.750000 0.914274 0.500000
O O13 0.883822 0.637377 0.234573
#
# Coordination Sequence:
#
# PCOD9530486 Si02
#       6
#    16  16  16  16  16  16
#     4  10  21  35  53  78 109 146 186 227 276 336
#     4  10  20  34  54  80 108 140 182 232 284 337
#     4   9  18  33  54  80 106 140 184 230 279 331
#     4  10  21  35  53  78 109 146 186 227 276 336
#     4   9  17  32  56  80 105 138 182 233 282 331
#     4  10  20  34  54  80 108 140 182 232 284 337
#
# _framework density 19.308895
#
# number of rings (size 3 to 8) (size 9 to 14) (size 15 to 20)
#    0.000    2.333    0.000    2.500    0.000    6.667 
#    0.000    1.667    0.000    0.000    0.000    0.000 
#    0.000    0.000    0.000    0.000    0.000    0.000 
#
# Total GULP energy -267418.070972 kJ/mol
# GULP energy per Si atom -5571.209812 kJ/mol
# Density = 1.926495 g / cm^3
# Si number density = 19.308895 Si / 1000 Ang^3
#
#
#
# Elastic Constant Matrix: (Units=GPa)
#
#
# Indices 1 2 3 4 5 6 
#
# 1 102.2051 9.9286 3.2247 0.0000 0.0000 0.0000
# 2 9.9286 125.8025 31.5145 0.0000 0.0000 0.0000
# 3 3.2247 31.5145 37.1465 0.0001 0.0000 0.0000
# 4 0.0000 0.0000 0.0001 22.2712 0.0000 0.0000
# 5 0.0000 0.0000 0.0000 0.0000 28.6475 0.0000
# 6 0.0000 0.0000 0.0000 0.0000 0.0000 20.9361
#
#
#
# Elastic Compliance Matrix: (Units=1/GPa)
#
#
# Indices 1 2 3 4 5 6 
#
# 1 0.009862 -0.000716 -0.000249 0.000000 0.000000 0.000000
# 2 -0.000716 0.010146 -0.008546 0.000000 0.000000 0.000000
# 3 -0.000249 -0.008546 0.034192 0.000000 0.000000 0.000000
# 4 0.000000 0.000000 0.000000 0.044901 0.000000 0.000000
# 5 0.000000 0.000000 0.000000 0.000000 0.034907 0.000000
# 6 0.000000 0.000000 0.000000 0.000000 0.000000 0.047764
#
#
# Mechanical properties :
#
#
# Convention : Reuss Voigt Hill
#
# Bulk Modulus (GPa) = 28.42589 39.38773 33.90681
# Shear Modulus (GPa) = 23.52722 29.07004 26.29863
#
# Velocity S-wave (km/s) = 3.49444 3.88432 3.69453
# Velocity P-wave (km/s) = 5.57091 6.36870 5.98312
#
# Compressibility (1/GPa) = 0.03517919
#
# Stress axis : x y z
#
# Youngs Moduli (GPa) = 101.40292 98.55853 29.24648
#
# Poissons Ratio (x) = 0.07057 0.00727
# Poissons Ratio (y) = 0.07261 0.24993
# Poissons Ratio (z) = 0.02521 0.84226
#
# Static dielectric constant tensor:
#      x y z
#    x 1.685510 0.000000 0.000000 
#    y 0.000000 1.718940 0.000000 
#    z 0.000000 0.000000 1.701010 
# 
# From -- ./inp_files/25439.got.cif
#   From: 2010.05.17/outbox.cif.g08.bks.cpg/sg73_13_cif.got.tgz:25439.got - 2010.06.03 17:35:07.
