data_PCOD9530732
_publ_section_title
;
Structure prediction by ZEFSAII (Michael W. Deem and Ramdas Pophale) SiO2 
 PCOD9530732
Probable space group: I B C A 
;
_chemical_formula_sum "Si O2"
_cell_formula_units_Z 120
_cell_length_a 22.357782
_cell_length_b 28.368772
_cell_length_c 9.594399
_cell_angle_alpha 90.000000
_cell_angle_beta 90.000000
_cell_angle_gamma 90.000000
_cell_volume 6085.370566
_symmetry_space_group_name_H-M "I B C A "
_symmetry_group_IT_number 73
_symmetry_cell_setting 'orthorhombic'
loop_
_space_group_symop_operation_xyz
x,y,z
-x,1/2-y,z
x,-y,1/2-z
1/2-x,y,-z
-x,-y,-z
x,1/2+y,-z
-x,y,1/2+z
1/2+x,-y,z
1/2+x,1/2+y,1/2+z
1/2-x,-y,1/2+z
1/2+x,1/2-y,-z
-x,1/2+y,1/2-z
1/2-x,1/2-y,1/2-z
1/2+x,y,1/2-z
1/2-x,1/2+y,z
x,1/2-y,1/2+z
loop_
_atom_site_type_symbol
_atom_site_label
_atom_site_fract_x
_atom_site_fract_y
_atom_site_fract_z
Si Si1 0.305072 0.787287 0.608109
Si Si2 0.590568 0.861616 0.039281
Si Si3 0.536774 0.811240 0.584847
Si Si4 0.000000 0.250000 0.839026
Si Si5 0.724846 0.816123 0.645238
Si Si6 0.935987 0.962066 0.876110
Si Si7 0.876122 0.379783 0.721601
Si Si8 0.427236 0.470666 0.886507
O O1 0.250000 0.793357 0.500000
O O2 0.358914 0.822148 0.569616
O O3 0.315378 0.730758 0.614253
O O4 0.279767 0.799939 0.759676
O O5 0.527534 0.836388 0.069003
O O6 0.593131 0.910022 0.130521
O O7 0.595351 0.876778 0.876195
O O8 0.535891 0.782109 0.729845
O O9 0.541359 0.779272 0.446459
O O10 0.586761 0.849545 0.609011
O O11 0.750000 0.834157 0.500000
O O12 0.687885 0.855477 0.725690
O O13 0.005594 0.951798 0.921271
O O14 0.934396 0.000000 0.750000
O O15 0.906809 0.992856 0.997893
O O16 0.880562 0.431319 0.657549
O O17 0.438946 0.500000 0.750000
#
# Coordination Sequence:
#
# PCOD9530732 Si02
#       8
#    16  16  16   8  16  16  16  16
#     4  10  22  43  65  89 124 168 219 260 311 371
#     4  12  23  39  67  93 127 170 217 264 315 388
#     4  11  24  38  58  92 130 166 214 252 328 389
#     4  10  24  38  48  84 138 170 194 256 318 392
#     4  10  24  43  64  94 122 168 220 267 313 367
#     4  10  22  37  60  93 130 165 207 257 320 386
#     4  12  23  39  67  93 129 167 217 264 316 387
#     4  10  20  37  61  90 130 165 202 258 317 388
#
# _framework density 19.719422999999999
#
# number of rings (size 3 to 8) (size 9 to 14) (size 15 to 20)
#    0.000    1.333    5.333    0.000    3.733    3.200 
#    0.000    0.000    0.000    4.800    0.000    0.000 
#    0.000    0.000    0.000    0.000    0.000    0.000 
#
# Total GULP energy -334613.337350 kJ/mol
# GULP energy per Si atom -5576.888956 kJ/mol
# Density = 1.967454 g / cm^3
# Si number density = 19.719423 Si / 1000 Ang^3
#
#
#
# Elastic Constant Matrix: (Units=GPa)
#
#
# Indices 1 2 3 4 5 6 
#
# 1 35.1002 21.5734 -5.3751 0.0000 0.0000 0.0000
# 2 21.5734 104.4200 15.5512 0.0000 0.0000 0.0000
# 3 -5.3751 15.5512 90.9685 0.0000 0.0000 0.0000
# 4 0.0000 0.0000 0.0000 30.4073 0.0000 0.0000
# 5 0.0000 0.0000 0.0000 0.0000 16.8258 0.0000
# 6 0.0000 0.0000 0.0000 0.0000 0.0000 26.5081
#
#
#
# Elastic Compliance Matrix: (Units=1/GPa)
#
#
# Indices 1 2 3 4 5 6 
#
# 1 0.033545 -0.007414 0.003250 0.000000 0.000000 0.000000
# 2 -0.007414 0.011466 -0.002398 0.000000 0.000000 0.000000
# 3 0.003250 -0.002398 0.011595 0.000000 0.000000 0.000000
# 4 0.000000 0.000000 0.000000 0.032887 0.000000 0.000000
# 5 0.000000 0.000000 0.000000 0.000000 0.059433 0.000000
# 6 0.000000 0.000000 0.000000 0.000000 0.000000 0.037724
#
#
# Mechanical properties :
#
#
# Convention : Reuss Voigt Hill
#
# Bulk Modulus (GPa) = 22.99957 32.66531 27.83244
# Shear Modulus (GPa) = 23.33530 27.99752 25.66641
#
# Velocity S-wave (km/s) = 3.44374 3.77210 3.61166
# Velocity P-wave (km/s) = 5.24416 5.96428 5.61578
#
# Compressibility (1/GPa) = 0.04347908
#
# Stress axis : x y z
#
# Youngs Moduli (GPa) = 29.81114 87.21680 86.24563
#
# Poissons Ratio (x) = 0.64665 -0.28026
# Poissons Ratio (y) = 0.22103 0.20683
# Poissons Ratio (z) = -0.09687 0.20916
#
# Static dielectric constant tensor:
#      x y z
#    x 1.710430 0.000000 0.000000 
#    y 0.000000 1.737350 0.000000 
#    z 0.000000 0.000000 1.692550 
# 
# From -- ./inp_files/7371.got.cif
#   From: 2010.05.17/outbox.cif.g08.bks.cpg/sg73_4_cif.got.tgz:7371.got - 2010.06.03 17:35:07.
