data_PCOD9530616
_publ_section_title
;
Structure prediction by ZEFSAII (Michael W. Deem and Ramdas Pophale) SiO2 
 PCOD9530616
Probable space group: I B C A 
;
_chemical_formula_sum "Si O2"
_cell_formula_units_Z 96
_cell_length_a 19.838469
_cell_length_b 14.481833
_cell_length_c 14.775821
_cell_angle_alpha 90.000000
_cell_angle_beta 90.000000
_cell_angle_gamma 90.000000
_cell_volume 4245.054883
_symmetry_space_group_name_H-M "I B C A "
_symmetry_group_IT_number 73
_symmetry_cell_setting 'orthorhombic'
loop_
_space_group_symop_operation_xyz
x,y,z
-x,1/2-y,z
x,-y,1/2-z
1/2-x,y,-z
-x,-y,-z
x,1/2+y,-z
-x,y,1/2+z
1/2+x,-y,z
1/2+x,1/2+y,1/2+z
1/2-x,-y,1/2+z
1/2+x,1/2-y,-z
-x,1/2+y,1/2-z
1/2-x,1/2-y,1/2-z
1/2+x,y,1/2-z
1/2-x,1/2+y,z
x,1/2-y,1/2+z
loop_
_atom_site_type_symbol
_atom_site_label
_atom_site_fract_x
_atom_site_fract_y
_atom_site_fract_z
Si Si1 0.250000 0.520610 0.500000
Si Si2 0.472045 0.913017 0.079350
Si Si3 0.240367 0.337408 0.836206
Si Si4 0.333417 0.500000 0.250000
Si Si5 0.500000 0.250000 0.787643
Si Si6 0.110243 0.489417 0.551782
Si Si7 0.639248 0.294670 0.222897
Si Si8 0.086304 0.500000 0.250000
O O1 0.251921 0.589805 0.584546
O O2 0.181615 0.463162 0.508977
O O3 0.475258 0.826270 0.142855
O O4 0.545806 0.925180 0.037033
O O5 0.456390 0.988078 0.157916
O O6 0.415306 0.919895 0.002618
O O7 0.211579 0.407238 0.758054
O O8 0.309439 0.287868 0.808190
O O9 0.184163 0.258490 0.851738
O O10 0.377345 0.498766 0.341385
O O11 0.431821 0.240389 0.729581
O O12 0.626203 0.405313 0.226407
#
# Coordination Sequence:
#
# PCOD9530616 Si02
#       8
#     8  16  16   8   8  16  16   8
#     4  10  20  36  58  86 126 158 202 266 316 378
#     4  10  21  38  62  92 127 168 215 266 325 388
#     4  10  21  38  60  88 123 167 211 261 323 385
#     4  10  20  38  64  88 124 168 212 266 322 392
#     4  10  20  38  64  92 132 172 214 272 322 382
#     4  10  21  38  61  89 120 163 209 257 322 387
#     4  10  21  37  61  90 122 166 213 258 320 384
#     4  10  20  38  62  92 130 170 216 268 316 386
#
# _framework density 22.614549
#
# number of rings (size 3 to 8) (size 9 to 14) (size 15 to 20)
#    0.000    2.000    0.000    4.000    0.000    5.333 
#    0.000   13.333    0.000    6.000    0.000    0.000 
#    0.000    0.000    0.000    0.000    0.000    0.000 
#
# Total GULP energy -267227.898881 kJ/mol
# GULP energy per Si atom -5567.247893 kJ/mol
# Density = 2.256308 g / cm^3
# Si number density = 22.614549 Si / 1000 Ang^3
#
#
#
# Elastic Constant Matrix: (Units=GPa)
#
#
# Indices 1 2 3 4 5 6 
#
# 1 144.6887 -8.4611 41.6129 0.0000 0.0000 0.0000
# 2 -8.4611 33.0996 16.4153 0.0000 0.0000 0.0000
# 3 41.6129 16.4153 88.0186 0.0000 0.0000 0.0000
# 4 0.0000 0.0000 0.0000 24.7261 0.0000 0.0000
# 5 0.0000 0.0000 0.0000 0.0000 -46.9546 0.0000
# 6 0.0000 0.0000 0.0000 0.0000 0.0000 33.5792
#
#
#
# Elastic Compliance Matrix: (Units=1/GPa)
#
#
# Indices 1 2 3 4 5 6 
#
# 1 0.008602 0.004645 -0.004933 0.000000 0.000000 0.000000
# 2 0.004645 0.035800 -0.008873 0.000000 0.000000 0.000000
# 3 -0.004933 -0.008873 0.015348 0.000000 0.000000 0.000000
# 4 0.000000 0.000000 0.000000 0.040443 0.000000 0.000000
# 5 0.000000 0.000000 0.000000 0.000000 -0.021297 0.000000
# 6 0.000000 0.000000 0.000000 0.000000 0.000000 0.029780
#
#
# Mechanical properties :
#
#
# Convention : Reuss Voigt Hill
#
# Bulk Modulus (GPa) = 24.13789 40.54900 32.34345
# Shear Modulus (GPa) = 35.50980 16.68614 26.09797
#
# Velocity S-wave (km/s) = 3.96690 2.71929 3.40079
# Velocity P-wave (km/s) = 5.62836 5.27530 5.45469
#
# Compressibility (1/GPa) = 0.04142864
#
# Stress axis : x y z
#
# Youngs Moduli (GPa) = 116.25482 27.93330 65.15427
#
# Poissons Ratio (x) = -0.12976 0.32141
# Poissons Ratio (y) = -0.54004 0.57810
# Poissons Ratio (z) = 0.57349 0.24784
#
# Static dielectric constant tensor:
#      x y z
#    x 2.282940 0.000000 0.000000 
#    y 0.000000 2.475780 0.000000 
#    z 0.000000 0.000000 1.987660 
# 
# From -- ./inp_files/18703.got.cif
#   From: 2010.05.17/outbox.cif.g08.bks.cpg/sg73_10_cif.got.tgz:18703.got - 2010.06.03 17:35:07.
