data_PCOD9530292
_publ_section_title
;
Structure prediction by ZEFSAII (Michael W. Deem and Ramdas Pophale) SiO2 
 PCOD9530292
Probable space group: I B C A 
;
_chemical_formula_sum "Si O2"
_cell_formula_units_Z 120
_cell_length_a 16.555433
_cell_length_b 23.035058
_cell_length_c 12.607193
_cell_angle_alpha 90.000000
_cell_angle_beta 90.000000
_cell_angle_gamma 90.000000
_cell_volume 4807.820617
_symmetry_space_group_name_H-M "I B C A "
_symmetry_group_IT_number 73
_symmetry_cell_setting 'orthorhombic'
loop_
_space_group_symop_operation_xyz
x,y,z
-x,1/2-y,z
x,-y,1/2-z
1/2-x,y,-z
-x,-y,-z
x,1/2+y,-z
-x,y,1/2+z
1/2+x,-y,z
1/2+x,1/2+y,1/2+z
1/2-x,-y,1/2+z
1/2+x,1/2-y,-z
-x,1/2+y,1/2-z
1/2-x,1/2-y,1/2-z
1/2+x,y,1/2-z
1/2-x,1/2+y,z
x,1/2-y,1/2+z
loop_
_atom_site_type_symbol
_atom_site_label
_atom_site_fract_x
_atom_site_fract_y
_atom_site_fract_z
Si Si1 0.022251 0.000000 0.750000
Si Si2 0.686324 0.826467 0.832117
Si Si3 0.722376 0.439214 0.856478
Si Si4 0.021010 0.359882 0.440997
Si Si5 0.722267 0.787805 0.609349
Si Si6 0.883300 0.024104 0.447143
Si Si7 0.600028 0.396437 0.709430
Si Si8 0.933423 0.710874 0.359928
O O1 0.063814 0.985946 0.865078
O O2 0.970210 0.057183 0.770338
O O3 0.747723 0.872732 0.886222
O O4 0.592894 0.839130 0.859907
O O5 0.705724 0.830063 0.707135
O O6 0.709720 0.760709 0.862512
O O7 0.809173 0.467140 0.865685
O O8 0.679624 0.431221 0.743547
O O9 0.664391 0.474099 0.939197
O O10 0.057257 0.422233 0.470747
O O11 0.024058 0.316748 0.538402
O O12 0.929790 0.368937 0.400498
O O13 0.750000 0.815826 0.500000
O O14 0.641377 0.749476 0.603098
O O15 0.595687 0.342081 0.788460
O O16 0.000000 0.750000 0.301802
#
# Coordination Sequence:
#
# PCOD9530292 Si02
#       8
#     8  16  16  16  16  16  16  16
#     4  10  24  42  64 100 132 168 220 280 358 402
#     4  10  20  35  62  88 119 172 226 272 312 398
#     4  10  19  37  68  92 122 166 223 271 335 400
#     4  10  20  38  58  86 121 172 210 262 328 399
#     4  11  21  35  58  89 123 171 227 275 315 386
#     4   9  19  38  67  92 116 165 219 275 322 410
#     4  11  23  40  62  95 134 165 219 280 335 412
#     4  12  24  38  60  91 134 177 217 272 343 405
#
# _framework density 24.959334999999999
#
# number of rings (size 3 to 8) (size 9 to 14) (size 15 to 20)
#    0.000    1.600    4.000    0.800    1.867    3.733 
#    0.000    0.000    0.000    0.000    6.933    0.000 
#    0.000    0.000    0.000    0.000    0.000    0.000 
#
# Total GULP energy -334456.377603 kJ/mol
# GULP energy per Si atom -5574.272960 kJ/mol
# Density = 2.490253 g / cm^3
# Si number density = 24.959335 Si / 1000 Ang^3
#
#
#
# Elastic Constant Matrix: (Units=GPa)
#
#
# Indices 1 2 3 4 5 6 
#
# 1 74.4198 8.4128 12.6203 0.0000 0.0000 0.0000
# 2 8.4128 32.5280 10.9129 0.0000 0.0000 0.0000
# 3 12.6203 10.9129 85.2200 0.0000 0.0000 0.0000
# 4 0.0000 0.0000 0.0000 33.1469 0.0000 0.0000
# 5 0.0000 0.0000 0.0000 0.0000 27.5858 0.0000
# 6 0.0000 0.0000 0.0000 0.0000 0.0000 19.0427
#
#
#
# Elastic Compliance Matrix: (Units=1/GPa)
#
#
# Indices 1 2 3 4 5 6 
#
# 1 0.014071 -0.003072 -0.001690 0.000000 0.000000 0.000000
# 2 -0.003072 0.032794 -0.003744 0.000000 0.000000 0.000000
# 3 -0.001690 -0.003744 0.012464 0.000000 0.000000 0.000000
# 4 0.000000 0.000000 0.000000 0.030169 0.000000 0.000000
# 5 0.000000 0.000000 0.000000 0.000000 0.036251 0.000000
# 6 0.000000 0.000000 0.000000 0.000000 0.000000 0.052514
#
#
# Mechanical properties :
#
#
# Convention : Reuss Voigt Hill
#
# Bulk Modulus (GPa) = 23.63232 28.45109 26.04171
# Shear Modulus (GPa) = 23.87992 26.63653 25.25822
#
# Velocity S-wave (km/s) = 3.09650 3.27034 3.18461
# Velocity P-wave (km/s) = 4.71946 5.06793 4.89679
#
# Compressibility (1/GPa) = 0.04231493
#
# Stress axis : x y z
#
# Youngs Moduli (GPa) = 71.06697 30.49379 80.23000
#
# Poissons Ratio (x) = 0.09368 0.13562
# Poissons Ratio (y) = 0.21833 0.30042
# Poissons Ratio (z) = 0.12013 0.11418
#
# Static dielectric constant tensor:
#      x y z
#    x 1.996660 0.000000 0.000000 
#    y 0.000000 2.072190 0.000000 
#    z 0.000000 0.000000 2.118110 
# 
# From -- ./inp_files/12231.got.cif
#   From: 2010.05.17/outbox.cif.g08.bks.cpg/sg73_7_cif.got.tgz:12231.got - 2010.06.03 17:35:07.
