data_PCOD9530929
_publ_section_title
;
Structure prediction by ZEFSAII (Michael W. Deem and Ramdas Pophale) SiO2 
 PCOD9530929
Probable space group: I B C A 
;
_chemical_formula_sum "Si O2"
_cell_formula_units_Z 56
_cell_length_a 13.536356
_cell_length_b 16.848943
_cell_length_c 9.903554
_cell_angle_alpha 90.000000
_cell_angle_beta 90.000000
_cell_angle_gamma 90.000000
_cell_volume 2258.736150
_symmetry_space_group_name_H-M "I B C A "
_symmetry_group_IT_number 73
_symmetry_cell_setting 'orthorhombic'
loop_
_space_group_symop_operation_xyz
x,y,z
-x,1/2-y,z
x,-y,1/2-z
1/2-x,y,-z
-x,-y,-z
x,1/2+y,-z
-x,y,1/2+z
1/2+x,-y,z
1/2+x,1/2+y,1/2+z
1/2-x,-y,1/2+z
1/2+x,1/2-y,-z
-x,1/2+y,1/2-z
1/2-x,1/2-y,1/2-z
1/2+x,y,1/2-z
1/2-x,1/2+y,z
x,1/2-y,1/2+z
loop_
_atom_site_type_symbol
_atom_site_label
_atom_site_fract_x
_atom_site_fract_y
_atom_site_fract_z
Si Si1 0.750000 0.695895 0.500000
Si Si2 0.384057 0.342763 0.000657
Si Si3 0.502419 0.845779 0.745001
Si Si4 0.293551 0.909087 0.740206
O O1 0.843765 0.753602 0.484052
O O2 0.764931 0.643236 0.632746
O O3 0.483466 0.352188 0.093541
O O4 0.305163 0.376972 0.108386
O O5 0.408966 0.374640 0.851748
O O6 0.500000 0.750000 0.722995
O O7 0.407278 0.894865 0.691427
O O8 0.265911 0.000000 0.750000
#
# Coordination Sequence:
#
# PCOD9530929 Si02
#       4
#     8  16  16  16
#     4  12  22  42  72 102 138 190 240 292 350 436
#     4  10  22  41  69 102 130 182 238 287 344 426
#     4  10  20  39  68  97 133 174 236 282 339 421
#     4  10  25  41  66 104 142 178 234 294 367 410
#
# _framework density 24.792627
#
# number of rings (size 3 to 8) (size 9 to 14) (size 15 to 20)
#    1.714    0.000    2.857    1.714    0.000    2.286 
#    0.000    0.000    0.000    1.714    0.000    0.000 
#    0.000    0.000    0.000    0.000    0.000    0.000 
#
# Total GULP energy -155889.888148 kJ/mol
# GULP energy per Si atom -5567.496005 kJ/mol
# Density = 2.473620 g / cm^3
# Si number density = 24.792627 Si / 1000 Ang^3
#
#
#
# Elastic Constant Matrix: (Units=GPa)
#
#
# Indices 1 2 3 4 5 6 
#
# 1 53.5251 -7.6799 61.4778 0.0000 0.0000 0.0000
# 2 -7.6799 94.5256 53.9901 0.0000 0.0000 0.0000
# 3 61.4778 53.9901 222.6205 0.0000 0.0000 0.0000
# 4 0.0000 0.0000 0.0000 -18.8642 0.0000 0.0000
# 5 0.0000 0.0000 0.0000 0.0000 46.0643 0.0000
# 6 0.0000 0.0000 0.0000 0.0000 0.0000 19.2714
#
#
#
# Elastic Compliance Matrix: (Units=1/GPa)
#
#
# Indices 1 2 3 4 5 6 
#
# 1 0.033024 0.009161 -0.011341 0.000000 0.000000 0.000000
# 2 0.009161 0.014821 -0.006124 0.000000 0.000000 0.000000
# 3 -0.011341 -0.006124 0.009109 0.000000 0.000000 0.000000
# 4 0.000000 0.000000 0.000000 -0.053011 0.000000 0.000000
# 5 0.000000 0.000000 0.000000 0.000000 0.021709 0.000000
# 6 0.000000 0.000000 0.000000 0.000000 0.000000 0.051890
#
#
# Mechanical properties :
#
#
# Convention : Reuss Voigt Hill
#
# Bulk Modulus (GPa) = 24.78631 65.13856 44.96244
# Shear Modulus (GPa) = 46.46793 26.81986 36.64389
#
# Velocity S-wave (km/s) = 4.33397 3.29259 3.84867
# Velocity P-wave (km/s) = 5.92145 6.38634 6.15828
#
# Compressibility (1/GPa) = 0.04034484
#
# Stress axis : x y z
#
# Youngs Moduli (GPa) = 30.28122 67.46961 109.77892
#
# Poissons Ratio (x) = -0.61809 1.24505
# Poissons Ratio (y) = -0.27740 0.67233
# Poissons Ratio (z) = 0.34343 0.41321
#
# Static dielectric constant tensor:
#      x y z
#    x 2.240760 0.000000 0.000000 
#    y 0.000000 1.883830 0.000000 
#    z 0.000000 0.000000 1.428910 
# 
# From -- ./inp_files/5140.got.cif
#   From: 2010.05.17/outbox.cif.g08.bks.cpg/sg73_3_cif.got.tgz:5140.got - 2010.06.03 17:35:07.
