data_PCOD9530141
_publ_section_title
;
Structure prediction by ZEFSAII (Michael W. Deem and Ramdas Pophale) SiO2 
 PCOD9530141
Probable space group: I B C A 
;
_chemical_formula_sum "Si O2"
_cell_formula_units_Z 96
_cell_length_a 8.401055
_cell_length_b 28.613715
_cell_length_c 20.208689
_cell_angle_alpha 90.000000
_cell_angle_beta 90.000000
_cell_angle_gamma 90.000000
_cell_volume 4857.873657
_symmetry_space_group_name_H-M "I B C A "
_symmetry_group_IT_number 73
_symmetry_cell_setting 'orthorhombic'
loop_
_space_group_symop_operation_xyz
x,y,z
-x,1/2-y,z
x,-y,1/2-z
1/2-x,y,-z
-x,-y,-z
x,1/2+y,-z
-x,y,1/2+z
1/2+x,-y,z
1/2+x,1/2+y,1/2+z
1/2-x,-y,1/2+z
1/2+x,1/2-y,-z
-x,1/2+y,1/2-z
1/2-x,1/2-y,1/2-z
1/2+x,y,1/2-z
1/2-x,1/2+y,z
x,1/2-y,1/2+z
loop_
_atom_site_type_symbol
_atom_site_label
_atom_site_fract_x
_atom_site_fract_y
_atom_site_fract_z
Si Si1 0.482035 0.353440 0.114857
Si Si2 0.627373 0.212966 0.219165
Si Si3 0.638146 0.655055 0.649919
Si Si4 0.009049 0.546715 0.669261
Si Si5 0.868199 0.551208 0.319390
Si Si6 0.937737 0.802168 0.985630
O O1 0.358417 0.323140 0.158721
O O2 0.666312 0.344330 0.141695
O O3 0.448776 0.408244 0.125451
O O4 0.481978 0.335830 0.039711
O O5 0.500000 0.250000 0.193015
O O6 0.750000 0.250000 0.250000
O O7 0.588699 0.179950 0.281836
O O8 0.588337 0.600971 0.649960
O O9 0.553224 0.680922 0.589618
O O10 0.060208 0.495018 0.647254
O O11 0.082133 0.552932 0.742470
O O12 0.820466 0.546557 0.677404
O O13 0.000000 0.750000 0.993738
O O14 0.750000 0.802662 0.000000
#
# Coordination Sequence:
#
# PCOD9530141 Si02
#       6
#    16  16  16  16  16  16
#     4  10  21  38  59  84 116 152 191 237 290 342
#     4  12  22  35  57  88 116 149 193 245 285 340
#     4  10  21  38  58  85 113 154 192 234 290 344
#     4  10  19  34  55  84 112 146 183 237 292 340
#     4  10  19  34  55  83 113 142 186 235 292 343
#     4  10  22  41  60  80 117 159 196 233 286 347
#
# _framework density 19.761734000000001
#
# number of rings (size 3 to 8) (size 9 to 14) (size 15 to 20)
#    0.000    1.667    3.333    3.000    2.333    0.000 
#    3.000    0.833    0.000    0.000    0.000    0.000 
#    0.000    0.000    0.000    0.000    0.000    0.000 
#
# Total GULP energy -267684.394362 kJ/mol
# GULP energy per Si atom -5576.758216 kJ/mol
# Density = 1.971675 g / cm^3
# Si number density = 19.761734 Si / 1000 Ang^3
#
#
#
# Elastic Constant Matrix: (Units=GPa)
#
#
# Indices 1 2 3 4 5 6 
#
# 1 14.6022 28.4858 12.3046 0.0000 0.0000 0.0000
# 2 28.4858 167.0966 29.1848 0.0000 0.0000 0.0000
# 3 12.3046 29.1848 62.0920 -0.0001 0.0000 0.0002
# 4 0.0000 0.0000 -0.0001 29.1272 0.0000 0.0001
# 5 0.0000 0.0000 0.0000 0.0000 -12.3862 0.0000
# 6 0.0000 0.0000 0.0002 0.0001 0.0000 12.2318
#
#
#
# Elastic Compliance Matrix: (Units=1/GPa)
#
#
# Indices 1 2 3 4 5 6 
#
# 1 0.113590 -0.016813 -0.014607 0.000000 0.000000 0.000000
# 2 -0.016813 0.009008 -0.000902 0.000000 0.000000 0.000000
# 3 -0.014607 -0.000902 0.019424 0.000000 0.000000 0.000000
# 4 0.000000 0.000000 0.000000 0.034332 0.000000 0.000000
# 5 0.000000 0.000000 0.000000 0.000000 -0.080735 0.000000
# 6 0.000000 0.000000 0.000000 0.000000 0.000000 0.081754
#
#
# Mechanical properties :
#
#
# Convention : Reuss Voigt Hill
#
# Bulk Modulus (GPa) = 12.92370 42.63792 27.78081
# Shear Modulus (GPa) = 18.66980 17.38226 18.02603
#
# Velocity S-wave (km/s) = 3.07701 2.96901 3.02349
# Velocity P-wave (km/s) = 4.37926 5.77721 5.12611
#
# Compressibility (1/GPa) = 0.07737724
#
# Stress axis : x y z
#
# Youngs Moduli (GPa) = 8.80355 111.00797 51.48269
#
# Poissons Ratio (x) = 1.86638 0.75203
# Poissons Ratio (y) = 0.14801 0.04646
# Poissons Ratio (z) = 0.12860 0.10017
#
# Static dielectric constant tensor:
#      x y z
#    x 1.659390 0.000000 0.000000 
#    y 0.000000 1.720680 0.000000 
#    z 0.000000 0.000000 1.680650 
# 
# From -- ./inp_files/24858.got.cif
#   From: 2010.05.17/outbox.cif.g08.bks.cpg/sg73_13_cif.got.tgz:24858.got - 2010.06.03 17:35:07.
