data_PCOD9530167
_publ_section_title
;
Structure prediction by ZEFSAII (Michael W. Deem and Ramdas Pophale) SiO2 
 PCOD9530167
Probable space group: I B C A 
;
_chemical_formula_sum "Si O2"
_cell_formula_units_Z 120
_cell_length_a 16.924913
_cell_length_b 22.046403
_cell_length_c 15.449678
_cell_angle_alpha 90.000000
_cell_angle_beta 90.000000
_cell_angle_gamma 90.000000
_cell_volume 5764.791696
_symmetry_space_group_name_H-M "I B C A "
_symmetry_group_IT_number 73
_symmetry_cell_setting 'orthorhombic'
loop_
_space_group_symop_operation_xyz
x,y,z
-x,1/2-y,z
x,-y,1/2-z
1/2-x,y,-z
-x,-y,-z
x,1/2+y,-z
-x,y,1/2+z
1/2+x,-y,z
1/2+x,1/2+y,1/2+z
1/2-x,-y,1/2+z
1/2+x,1/2-y,-z
-x,1/2+y,1/2-z
1/2-x,1/2-y,1/2-z
1/2+x,y,1/2-z
1/2-x,1/2+y,z
x,1/2-y,1/2+z
loop_
_atom_site_type_symbol
_atom_site_label
_atom_site_fract_x
_atom_site_fract_y
_atom_site_fract_z
Si Si1 0.323563 0.731582 0.873174
Si Si2 0.641547 0.751579 0.681213
Si Si3 0.561681 0.879716 0.216285
Si Si4 0.250000 0.642435 0.000000
Si Si5 0.902222 0.358286 0.403562
Si Si6 0.787301 0.937516 0.837173
Si Si7 0.580123 0.134653 0.906294
Si Si8 0.757917 0.923486 0.347629
O O1 0.357434 0.718237 0.777202
O O2 0.231669 0.748645 0.852860
O O3 0.315078 0.683194 0.950034
O O4 0.374636 0.788507 0.904068
O O5 0.605627 0.684110 0.690825
O O6 0.593468 0.794884 0.617970
O O7 0.547363 0.873213 0.318527
O O8 0.623152 0.933487 0.196753
O O9 0.485222 0.888629 0.159309
O O10 0.216602 0.600893 0.923921
O O11 0.941915 0.373398 0.493974
O O12 0.819297 0.393468 0.389667
O O13 0.741239 0.908312 0.755315
O O14 0.754171 0.004371 0.852459
O O15 0.663407 0.101384 0.890556
#
# Coordination Sequence:
#
# PCOD9530167 Si02
#       8
#    16  16  16   8  16  16  16  16
#     4  10  19  34  61  93 125 167 213 265 313 382
#     4  10  19  37  60  92 133 168 209 261 328 390
#     4  10  23  44  58  91 140 173 197 268 348 386
#     4  12  20  32  62 100 120 160 220 272 308 382
#     4  10  22  40  66  92 127 170 216 263 322 388
#     4  10  23  42  63  90 129 168 214 273 325 376
#     4  12  22  38  68  97 125 169 220 267 322 398
#     4  10  22  43  67  92 122 170 228 274 313 380
#
# _framework density 20.816016999999999
#
# number of rings (size 3 to 8) (size 9 to 14) (size 15 to 20)
#    0.000    1.600    2.667    2.400    1.867    0.000 
#    4.800    7.333    0.000    0.000    0.000    0.000 
#    0.000    0.000    0.000    0.000    0.000    0.000 
#
# Total GULP energy -335193.160068 kJ/mol
# GULP energy per Si atom -5586.552668 kJ/mol
# Density = 2.076864 g / cm^3
# Si number density = 20.816017 Si / 1000 Ang^3
#
#
#
# Elastic Constant Matrix: (Units=GPa)
#
#
# Indices 1 2 3 4 5 6 
#
# 1 33.5048 4.3330 33.2182 0.0000 0.0000 0.0000
# 2 4.3330 59.7691 29.5984 0.0000 0.0000 0.0000
# 3 33.2182 29.5984 177.9179 0.0000 0.0000 0.0000
# 4 0.0000 0.0000 0.0000 26.3757 0.0000 0.0000
# 5 0.0000 0.0000 0.0000 0.0000 16.9930 0.0000
# 6 0.0000 0.0000 0.0000 0.0000 0.0000 4.7777
#
#
#
# Elastic Compliance Matrix: (Units=1/GPa)
#
#
# Indices 1 2 3 4 5 6 
#
# 1 0.036661 0.000798 -0.006978 0.000000 0.000000 0.000000
# 2 0.000798 0.018251 -0.003185 0.000000 0.000000 0.000000
# 3 -0.006978 -0.003185 0.007453 0.000000 0.000000 0.000000
# 4 0.000000 0.000000 0.000000 0.037914 0.000000 0.000000
# 5 0.000000 0.000000 0.000000 0.000000 0.058848 0.000000
# 6 0.000000 0.000000 0.000000 0.000000 0.000000 0.209304
#
#
# Mechanical properties :
#
#
# Convention : Reuss Voigt Hill
#
# Bulk Modulus (GPa) = 22.91750 45.05457 33.98603
# Shear Modulus (GPa) = 12.44694 23.23210 17.83952
#
# Velocity S-wave (km/s) = 2.44795 3.34439 2.93065
# Velocity P-wave (km/s) = 4.36159 6.05016 5.27389
#
# Compressibility (1/GPa) = 0.04363478
#
# Stress axis : x y z
#
# Youngs Moduli (GPa) = 27.27685 54.79298 134.17096
#
# Poissons Ratio (x) = -0.04370 0.93618
# Poissons Ratio (y) = -0.02175 0.42734
# Poissons Ratio (z) = 0.19032 0.17452
#
# Static dielectric constant tensor:
#      x y z
#    x 1.732030 0.000000 0.000000 
#    y 0.000000 1.756220 0.000000 
#    z 0.000000 0.000000 1.782430 
# 
# From -- ./inp_files/18267.got.cif
#   From: 2010.05.17/outbox.cif.g08.bks.cpg/sg73_10_cif.got.tgz:18267.got - 2010.06.03 17:35:07.
