data_PCOD9530114
_publ_section_title
;
Structure prediction by ZEFSAII (Michael W. Deem and Ramdas Pophale) SiO2 
 PCOD9530114
Probable space group: I B C A 
;
_chemical_formula_sum "Si O2"
_cell_formula_units_Z 96
_cell_length_a 9.371091
_cell_length_b 21.395386
_cell_length_c 20.493766
_cell_angle_alpha 90.000000
_cell_angle_beta 90.000000
_cell_angle_gamma 90.000000
_cell_volume 4108.961333
_symmetry_space_group_name_H-M "I B C A "
_symmetry_group_IT_number 73
_symmetry_cell_setting 'orthorhombic'
loop_
_space_group_symop_operation_xyz
x,y,z
-x,1/2-y,z
x,-y,1/2-z
1/2-x,y,-z
-x,-y,-z
x,1/2+y,-z
-x,y,1/2+z
1/2+x,-y,z
1/2+x,1/2+y,1/2+z
1/2-x,-y,1/2+z
1/2+x,1/2-y,-z
-x,1/2+y,1/2-z
1/2-x,1/2-y,1/2-z
1/2+x,y,1/2-z
1/2-x,1/2+y,z
x,1/2-y,1/2+z
loop_
_atom_site_type_symbol
_atom_site_label
_atom_site_fract_x
_atom_site_fract_y
_atom_site_fract_z
Si Si1 0.668347 0.944133 0.801524
Si Si2 0.539326 0.819294 0.821065
Si Si3 0.140213 0.290852 0.458803
Si Si4 0.204625 0.384290 0.900995
Si Si5 0.519728 0.887812 0.533438
Si Si6 0.087977 0.009498 0.123549
O O1 0.611105 0.875541 0.779896
O O2 0.829913 0.941521 0.829472
O O3 0.670561 0.000000 0.750000
O O4 0.544923 0.968612 0.851002
O O5 0.500000 0.750000 0.794957
O O6 0.647870 0.813367 0.884153
O O7 0.389123 0.844812 0.850726
O O8 0.250000 0.249216 0.500000
O O9 0.000000 0.250000 0.454418
O O10 0.109335 0.343498 0.513431
O O11 0.365980 0.363390 0.913624
O O12 0.209737 0.456941 0.882393
O O13 0.110852 0.389576 0.967045
O O14 0.457921 0.952646 0.559909
#
# Coordination Sequence:
#
# PCOD9530114 Si02
#       6
#    16  16  16  16  16  16
#     4  11  23  39  63  86 114 157 209 268 317 360
#     4   9  20  37  61  86 122 158 207 247 308 370
#     4  10  21  33  54  85 124 168 203 236 293 372
#     4   9  19  33  55  89 120 160 191 245 293 376
#     4  10  19  33  55  83 125 158 198 236 304 363
#     4  11  20  38  57  86 118 152 198 253 311 369
#
# _framework density 23.363568999999998
#
# number of rings (size 3 to 8) (size 9 to 14) (size 15 to 20)
#    0.000    2.000    1.667    2.000    7.000    0.000 
#    3.000    0.000    0.000   10.000    0.000    0.000 
#    0.000    0.000    0.000    0.000    0.000    0.000 
#
# Total GULP energy -267338.564366 kJ/mol
# GULP energy per Si atom -5569.553424 kJ/mol
# Density = 2.331039 g / cm^3
# Si number density = 23.363569 Si / 1000 Ang^3
#
#
#
# Elastic Constant Matrix: (Units=GPa)
#
#
# Indices 1 2 3 4 5 6 
#
# 1 55.6876 12.1948 -4.7462 0.0000 0.0000 0.0000
# 2 12.1948 134.1190 16.7348 0.0000 0.0000 0.0000
# 3 -4.7462 16.7348 21.5814 0.0000 0.0000 0.0000
# 4 0.0000 0.0000 0.0000 31.9717 0.0000 0.0000
# 5 0.0000 0.0000 0.0000 0.0000 10.0658 0.0000
# 6 0.0000 0.0000 0.0000 0.0000 0.0000 5.5246
#
#
#
# Elastic Compliance Matrix: (Units=1/GPa)
#
#
# Indices 1 2 3 4 5 6 
#
# 1 0.019025 -0.002493 0.006117 0.000000 0.000000 0.000000
# 2 -0.002493 0.008581 -0.007203 0.000000 0.000000 0.000000
# 3 0.006117 -0.007203 0.053266 0.000000 0.000000 0.000000
# 4 0.000000 0.000000 0.000000 0.031278 0.000000 0.000000
# 5 0.000000 0.000000 0.000000 0.000000 0.099346 0.000000
# 6 0.000000 0.000000 0.000000 0.000000 0.000000 0.181008
#
#
# Mechanical properties :
#
#
# Convention : Reuss Voigt Hill
#
# Bulk Modulus (GPa) = 13.56568 28.86164 21.21366
# Shear Modulus (GPa) = 11.78596 21.99274 16.88935
#
# Velocity S-wave (km/s) = 2.24845 3.07143 2.69158
# Velocity P-wave (km/s) = 3.54396 4.99583 4.33117
#
# Compressibility (1/GPa) = 0.07371545
#
# Stress axis : x y z
#
# Youngs Moduli (GPa) = 52.56347 116.53046 18.77354
#
# Poissons Ratio (x) = 0.29052 -0.11484
# Poissons Ratio (y) = 0.13104 0.13522
# Poissons Ratio (z) = -0.32154 0.83932
#
# Static dielectric constant tensor:
#      x y z
#    x 2.662120 0.000000 0.000000 
#    y 0.000000 1.994660 0.000000 
#    z 0.000000 0.000000 2.005910 
# 
# From -- ./inp_files/31181.got.cif
#   From: 2010.05.17/outbox.cif.g08.bks.cpg/sg73_16_cif.got.tgz:31181.got - 2010.06.03 17:35:07.
