data_PCOD9530859
_publ_section_title
;
Structure prediction by ZEFSAII (Michael W. Deem and Ramdas Pophale) SiO2 
 PCOD9530859
Probable space group: I B C A 
;
_chemical_formula_sum "Si O2"
_cell_formula_units_Z 88
_cell_length_a 21.142856
_cell_length_b 8.361078
_cell_length_c 21.572489
_cell_angle_alpha 90.000000
_cell_angle_beta 90.000000
_cell_angle_gamma 90.000000
_cell_volume 3813.521358
_symmetry_space_group_name_H-M "I B C A "
_symmetry_group_IT_number 73
_symmetry_cell_setting 'orthorhombic'
loop_
_space_group_symop_operation_xyz
x,y,z
-x,1/2-y,z
x,-y,1/2-z
1/2-x,y,-z
-x,-y,-z
x,1/2+y,-z
-x,y,1/2+z
1/2+x,-y,z
1/2+x,1/2+y,1/2+z
1/2-x,-y,1/2+z
1/2+x,1/2-y,-z
-x,1/2+y,1/2-z
1/2-x,1/2-y,1/2-z
1/2+x,y,1/2-z
1/2-x,1/2+y,z
x,1/2-y,1/2+z
loop_
_atom_site_type_symbol
_atom_site_label
_atom_site_fract_x
_atom_site_fract_y
_atom_site_fract_z
Si Si1 0.189834 0.892787 0.189993
Si Si2 0.500000 0.250000 0.595889
Si Si3 0.550665 0.990606 0.179476
Si Si4 0.243588 0.646704 0.117971
Si Si5 0.882799 0.259496 0.090253
Si Si6 0.618387 0.594688 0.461012
O O1 0.115402 0.907091 0.181659
O O2 0.225752 0.975757 0.132991
O O3 0.202820 0.000000 0.250000
O O4 0.210938 0.711924 0.181223
O O5 0.505010 0.409590 0.636460
O O6 0.435506 0.279502 0.559013
O O7 0.573797 0.824562 0.147141
O O8 0.526748 0.000000 0.250000
O O9 0.308871 0.741774 0.107353
O O10 0.188184 0.640610 0.066337
O O11 0.897316 0.082944 0.064228
O O12 0.884880 0.390153 0.035109
#
# Coordination Sequence:
#
# PCOD9530859 Si02
#       6
#    16   8  16  16  16  16
#     4  10  20  38  65  98 139 175 219 275 342 405
#     4  12  26  46  70  96 138 184 234 280 336 420
#     4  10  24  46  70  99 138 179 230 285 341 406
#     4  11  21  40  66 102 133 172 222 280 348 407
#     4  11  26  44  71 100 135 176 224 293 351 416
#     4  12  26  43  68 100 135 180 230 280 346 416
#
# _framework density 23.075786999999998
#
# number of rings (size 3 to 8) (size 9 to 14) (size 15 to 20)
#    0.000    1.091    3.636    2.182    2.545    6.545 
#    0.000    0.909    0.000    0.000    0.000    0.000 
#    0.000    0.000    0.000    0.000    0.000    0.000 
#
# Total GULP energy -245353.835591 kJ/mol
# GULP energy per Si atom -5576.223536 kJ/mol
# Density = 2.302327 g / cm^3
# Si number density = 23.075787 Si / 1000 Ang^3
#
#
#
# Elastic Constant Matrix: (Units=GPa)
#
#
# Indices 1 2 3 4 5 6 
#
# 1 56.3450 -2.6496 12.6356 0.0000 0.0000 0.0000
# 2 -2.6496 51.1147 -0.0712 0.0000 0.0000 0.0000
# 3 12.6356 -0.0712 80.0409 0.0000 0.0000 0.0000
# 4 0.0000 0.0000 0.0000 28.1694 0.0000 0.0000
# 5 0.0000 0.0000 0.0000 0.0000 1.6524 0.0000
# 6 0.0000 0.0000 0.0000 0.0000 0.0000 24.4388
#
#
#
# Elastic Compliance Matrix: (Units=1/GPa)
#
#
# Indices 1 2 3 4 5 6 
#
# 1 0.018445 0.000952 -0.002911 0.000000 0.000000 0.000000
# 2 0.000952 0.019613 -0.000133 0.000000 0.000000 0.000000
# 3 -0.002911 -0.000133 0.012953 0.000000 0.000000 0.000000
# 4 0.000000 0.000000 0.000000 0.035499 0.000000 0.000000
# 5 0.000000 0.000000 0.000000 0.000000 0.605178 0.000000
# 6 0.000000 0.000000 0.000000 0.000000 0.000000 0.040919
#
#
# Mechanical properties :
#
#
# Convention : Reuss Voigt Hill
#
# Bulk Modulus (GPa) = 21.35480 23.03668 22.19574
# Shear Modulus (GPa) = 6.64539 22.69117 14.66828
#
# Velocity S-wave (km/s) = 1.69884 3.13921 2.52396
# Velocity P-wave (km/s) = 3.62248 4.81085 4.25832
#
# Compressibility (1/GPa) = 0.04682789
#
# Stress axis : x y z
#
# Youngs Moduli (GPa) = 54.21408 50.98652 77.20196
#
# Poissons Ratio (x) = -0.04854 0.22474
# Poissons Ratio (y) = -0.05162 0.01026
# Poissons Ratio (z) = 0.15782 0.00677
#
# Static dielectric constant tensor:
#      x y z
#    x 1.867950 0.000000 0.000000 
#    y 0.000000 2.094420 0.000000 
#    z 0.000000 0.000000 1.911260 
# 
# From -- ./inp_files/30069.got.cif
#   From: 2010.05.17/outbox.cif.g08.bks.cpg/sg73_16_cif.got.tgz:30069.got - 2010.06.03 17:35:07.
