data_PCOD9530225
_publ_section_title
;
Structure prediction by ZEFSAII (Michael W. Deem and Ramdas Pophale) SiO2 
 PCOD9530225
Probable space group: I B C A 
;
_chemical_formula_sum "Si O2"
_cell_formula_units_Z 80
_cell_length_a 8.687400
_cell_length_b 22.588816
_cell_length_c 20.426553
_cell_angle_alpha 90.000000
_cell_angle_beta 90.000000
_cell_angle_gamma 90.000000
_cell_volume 4008.467544
_symmetry_space_group_name_H-M "I B C A "
_symmetry_group_IT_number 73
_symmetry_cell_setting 'orthorhombic'
loop_
_space_group_symop_operation_xyz
x,y,z
-x,1/2-y,z
x,-y,1/2-z
1/2-x,y,-z
-x,-y,-z
x,1/2+y,-z
-x,y,1/2+z
1/2+x,-y,z
1/2+x,1/2+y,1/2+z
1/2-x,-y,1/2+z
1/2+x,1/2-y,-z
-x,1/2+y,1/2-z
1/2-x,1/2-y,1/2-z
1/2+x,y,1/2-z
1/2-x,1/2+y,z
x,1/2-y,1/2+z
loop_
_atom_site_type_symbol
_atom_site_label
_atom_site_fract_x
_atom_site_fract_y
_atom_site_fract_z
Si Si1 0.633632 0.423953 0.105006
Si Si2 0.786937 0.812229 0.832716
Si Si3 0.500000 0.750000 0.266800
Si Si4 0.949905 0.476462 0.072315
Si Si5 0.074895 0.627428 0.490073
Si Si6 0.000000 0.750000 0.437990
O O1 0.718786 0.377469 0.152398
O O2 0.770317 0.464793 0.077139
O O3 0.508702 0.474498 0.123582
O O4 0.543226 0.386697 0.049205
O O5 0.920190 0.801107 0.778112
O O6 0.638263 0.775824 0.809221
O O7 0.866216 0.781263 0.895206
O O8 0.020920 0.410632 0.072885
O O9 0.000000 0.500000 0.000000
O O10 0.250000 0.608200 0.500000
O O11 0.070069 0.696743 0.478655
#
# Coordination Sequence:
#
# PCOD9530225 Si02
#       6
#    16  16   8  16  16   8
#     4  11  22  38  61  88 126 171 208 242 302 382
#     4  10  22  42  66  91 112 162 205 267 322 374
#     4   9  22  45  68  88 120 149 214 281 334 368
#     4  10  19  36  56  83 128 171 201 231 284 367
#     4  11  23  34  53  90 137 169 198 244 292 377
#     4  11  24  35  58  94 126 163 208 249 310 384
#
# _framework density 19.957753
#
# number of rings (size 3 to 8) (size 9 to 14) (size 15 to 20)
#    0.000    1.600    2.000    4.800    5.600    0.000 
#    0.000    0.000    0.000    3.600    0.000    0.000 
#    0.000    0.000    0.000    0.000    0.000    0.000 
#
# Total GULP energy -222689.715930 kJ/mol
# GULP energy per Si atom -5567.242898 kJ/mol
# Density = 1.991233 g / cm^3
# Si number density = 19.957753 Si / 1000 Ang^3
#
#
#
# Elastic Constant Matrix: (Units=GPa)
#
#
# Indices 1 2 3 4 5 6 
#
# 1 145.0446 30.3341 27.6640 0.0000 0.0000 0.0000
# 2 30.3341 117.0645 14.7840 0.0000 0.0000 0.0000
# 3 27.6640 14.7840 18.3931 0.0000 0.0000 0.0000
# 4 0.0000 0.0000 0.0000 20.2661 0.0000 0.0000
# 5 0.0000 0.0000 0.0000 0.0000 19.2466 0.0000
# 6 0.0000 0.0000 0.0000 0.0000 0.0000 36.3817
#
#
#
# Elastic Compliance Matrix: (Units=1/GPa)
#
#
# Indices 1 2 3 4 5 6 
#
# 1 0.009726 -0.000749 -0.014027 0.000000 0.000000 0.000000
# 2 -0.000749 0.009565 -0.006562 0.000000 0.000000 0.000000
# 3 -0.014027 -0.006562 0.080739 0.000000 0.000000 0.000000
# 4 0.000000 0.000000 0.000000 0.049344 0.000000 0.000000
# 5 0.000000 0.000000 0.000000 0.000000 0.051957 0.000000
# 6 0.000000 0.000000 0.000000 0.000000 0.000000 0.027486
#
#
# Mechanical properties :
#
#
# Convention : Reuss Voigt Hill
#
# Bulk Modulus (GPa) = 17.43511 47.34072 32.38791
# Shear Modulus (GPa) = 17.20508 29.02688 23.11598
#
# Velocity S-wave (km/s) = 2.93930 3.81782 3.40699
# Velocity P-wave (km/s) = 4.50269 6.57315 5.63385
#
# Compressibility (1/GPa) = 0.05735554
#
# Stress axis : x y z
#
# Youngs Moduli (GPa) = 102.81335 104.54736 12.38552
#
# Poissons Ratio (x) = 0.07829 0.17373
# Poissons Ratio (y) = 0.07699 0.08127
# Poissons Ratio (z) = 1.44215 0.68603
#
# Static dielectric constant tensor:
#      x y z
#    x 1.756930 0.000000 0.000000 
#    y 0.000000 1.787940 0.000000 
#    z 0.000000 0.000000 1.740050 
# 
# From -- ./inp_files/20762.got.cif
#   From: 2010.05.17/outbox.cif.g08.bks.cpg/sg73_11_cif.got.tgz:20762.got - 2010.06.03 17:35:07.
