data_PCOD9530600
_publ_section_title
;
Structure prediction by ZEFSAII (Michael W. Deem and Ramdas Pophale) SiO2 
 PCOD9530600
Probable space group: I B C A 
;
_chemical_formula_sum "Si O2"
_cell_formula_units_Z 104
_cell_length_a 15.411845
_cell_length_b 14.553635
_cell_length_c 24.065960
_cell_angle_alpha 90.000000
_cell_angle_beta 90.000000
_cell_angle_gamma 90.000000
_cell_volume 5397.955524
_symmetry_space_group_name_H-M "I B C A "
_symmetry_group_IT_number 73
_symmetry_cell_setting 'orthorhombic'
loop_
_space_group_symop_operation_xyz
x,y,z
-x,1/2-y,z
x,-y,1/2-z
1/2-x,y,-z
-x,-y,-z
x,1/2+y,-z
-x,y,1/2+z
1/2+x,-y,z
1/2+x,1/2+y,1/2+z
1/2-x,-y,1/2+z
1/2+x,1/2-y,-z
-x,1/2+y,1/2-z
1/2-x,1/2-y,1/2-z
1/2+x,y,1/2-z
1/2-x,1/2+y,z
x,1/2-y,1/2+z
loop_
_atom_site_type_symbol
_atom_site_label
_atom_site_fract_x
_atom_site_fract_y
_atom_site_fract_z
Si Si1 0.250000 0.918524 0.000000
Si Si2 0.000000 0.250000 0.364854
Si Si3 0.483859 0.423493 0.431195
Si Si4 0.832422 0.995803 0.391578
Si Si5 0.923500 0.110615 0.954147
Si Si6 0.675943 0.826279 0.817869
Si Si7 0.678348 0.328142 0.310379
Si Si8 0.000000 0.250000 0.143904
O O1 0.212667 0.979910 0.950426
O O2 0.329655 0.858819 0.976257
O O3 0.961622 0.328293 0.405435
O O4 0.919722 0.214486 0.328633
O O5 0.566008 0.477110 0.404297
O O6 0.413458 0.503786 0.435999
O O7 0.512185 0.391598 0.492843
O O8 0.466849 0.334205 0.394513
O O9 0.805776 0.913851 0.350432
O O10 0.814314 0.091499 0.361726
O O11 0.683152 0.857595 0.753871
O O12 0.749635 0.748751 0.823533
O O13 0.582378 0.287294 0.322124
#
# Coordination Sequence:
#
# PCOD9530600 Si02
#       8
#     8   8  16  16  16  16  16   8
#     4  10  22  36  62  90 130 156 208 250 310 380
#     4  12  22  38  64  90 124 164 212 260 310 374
#     4   9  19  36  57  83 119 156 199 242 309 372
#     4  10  20  41  60  88 121 165 195 261 312 372
#     4  10  20  36  56  88 123 161 196 254 305 377
#     4  11  23  40  61  90 118 165 208 264 310 373
#     4  10  23  41  62  87 124 157 214 258 318 373
#     4  10  20  38  62  86 114 160 200 260 308 376
#
# _framework density 19.266553999999999
#
# number of rings (size 3 to 8) (size 9 to 14) (size 15 to 20)
#    0.000    1.846    1.538    2.308    2.154    0.000 
#    0.000    3.077    0.000    0.000    0.000    0.000 
#    0.000    0.000    0.000    0.000    0.000    0.000 
#
# Total GULP energy -290301.692056 kJ/mol
# GULP energy per Si atom -5582.724847 kJ/mol
# Density = 1.922270 g / cm^3
# Si number density = 19.266554 Si / 1000 Ang^3
#
#
#
# Elastic Constant Matrix: (Units=GPa)
#
#
# Indices 1 2 3 4 5 6 
#
# 1 75.5238 15.0856 18.2833 0.0000 0.0000 0.0000
# 2 15.0856 50.5533 32.0750 0.0000 0.0000 0.0000
# 3 18.2833 32.0750 96.4976 0.0000 0.0000 0.0000
# 4 0.0000 0.0000 0.0000 9.2901 0.0000 0.0000
# 5 0.0000 0.0000 0.0000 0.0000 15.2122 0.0000
# 6 0.0000 0.0000 0.0000 0.0000 0.0000 21.1033
#
#
#
# Elastic Compliance Matrix: (Units=1/GPa)
#
#
# Indices 1 2 3 4 5 6 
#
# 1 0.014281 -0.003225 -0.001634 0.000000 0.000000 0.000000
# 2 -0.003225 0.025796 -0.007963 0.000000 0.000000 0.000000
# 3 -0.001634 -0.007963 0.013319 0.000000 0.000000 0.000000
# 4 0.000000 0.000000 0.000000 0.107641 0.000000 0.000000
# 5 0.000000 0.000000 0.000000 0.000000 0.065737 0.000000
# 6 0.000000 0.000000 0.000000 0.000000 0.000000 0.047386
#
#
# Mechanical properties :
#
#
# Convention : Reuss Voigt Hill
#
# Bulk Modulus (GPa) = 36.03348 39.27363 37.65355
# Shear Modulus (GPa) = 16.17836 19.59649 17.88743
#
# Velocity S-wave (km/s) = 2.90092 3.19270 3.05030
# Velocity P-wave (km/s) = 5.47391 5.83264 5.65612
#
# Compressibility (1/GPa) = 0.02775197
#
# Stress axis : x y z
#
# Youngs Moduli (GPa) = 70.02535 38.76565 75.07807
#
# Poissons Ratio (x) = 0.12501 0.12266
# Poissons Ratio (y) = 0.22582 0.59788
# Poissons Ratio (z) = 0.11441 0.30871
#
# Static dielectric constant tensor:
#      x y z
#    x 1.697710 0.000000 0.000000 
#    y 0.000000 1.656120 0.000000 
#    z 0.000000 0.000000 1.652690 
# 
# From -- ./inp_files/29597.got.cif
#   From: 2010.05.17/outbox.cif.g08.bks.cpg/sg73_15_cif.got.tgz:29597.got - 2010.06.03 17:35:07.
