data_PCOD9530785
_publ_section_title
;
Structure prediction by ZEFSAII (Michael W. Deem and Ramdas Pophale) SiO2 
 PCOD9530785
Probable space group: I B C A 
;
_chemical_formula_sum "Si O2"
_cell_formula_units_Z 88
_cell_length_a 23.455757
_cell_length_b 9.927497
_cell_length_c 20.058572
_cell_angle_alpha 90.000000
_cell_angle_beta 90.000000
_cell_angle_gamma 90.000000
_cell_volume 4670.778043
_symmetry_space_group_name_H-M "I B C A "
_symmetry_group_IT_number 73
_symmetry_cell_setting 'orthorhombic'
loop_
_space_group_symop_operation_xyz
x,y,z
-x,1/2-y,z
x,-y,1/2-z
1/2-x,y,-z
-x,-y,-z
x,1/2+y,-z
-x,y,1/2+z
1/2+x,-y,z
1/2+x,1/2+y,1/2+z
1/2-x,-y,1/2+z
1/2+x,1/2-y,-z
-x,1/2+y,1/2-z
1/2-x,1/2-y,1/2-z
1/2+x,y,1/2-z
1/2-x,1/2+y,z
x,1/2-y,1/2+z
loop_
_atom_site_type_symbol
_atom_site_label
_atom_site_fract_x
_atom_site_fract_y
_atom_site_fract_z
Si Si1 0.775564 0.788520 0.428482
Si Si2 0.002444 0.585360 0.432127
Si Si3 0.588633 0.934239 0.180247
Si Si4 0.693628 0.000000 0.750000
Si Si5 0.386527 0.639187 0.642251
Si Si6 0.719914 0.526068 0.647008
O O1 0.750000 0.819290 0.500000
O O2 0.842191 0.820847 0.416394
O O3 0.770760 0.631099 0.412449
O O4 0.741571 0.880420 0.375584
O O5 0.061111 0.563236 0.391451
O O6 0.000000 0.750000 0.443300
O O7 0.000000 0.500000 0.500000
O O8 0.951765 0.537917 0.382934
O O9 0.590350 0.771751 0.179872
O O10 0.569516 0.000000 0.250000
O O11 0.654083 0.977296 0.167427
O O12 0.651796 0.064539 0.803685
O O13 0.739486 0.917520 0.794059
#
# Coordination Sequence:
#
# PCOD9530785 Si02
#       6
#    16  16  16   8  16  16
#     4  10  21  36  56  86 121 155 196 236 292 360
#     4  10  23  46  62  87 121 158 205 254 301 352
#     4  10  21  38  64  87 118 156 199 247 298 358
#     4  10  20  38  58  88 124 146 196 240 300 352
#     4   9  22  39  59  86 123 158 190 255 294 355
#     4  10  21  35  59  87 117 157 188 244 294 352
#
# _framework density 18.840544000000001
#
# number of rings (size 3 to 8) (size 9 to 14) (size 15 to 20)
#    0.000    2.182    0.909    0.545    6.364    2.182 
#   13.091    0.000    0.000    0.000    0.000    0.000 
#    0.000    0.000    0.000    0.000    0.000    0.000 
#
# Total GULP energy -245055.308085 kJ/mol
# GULP energy per Si atom -5569.438820 kJ/mol
# Density = 1.879766 g / cm^3
# Si number density = 18.840544 Si / 1000 Ang^3
#
#
#
# Elastic Constant Matrix: (Units=GPa)
#
#
# Indices 1 2 3 4 5 6 
#
# 1 122.0143 33.7388 76.8264 0.0000 0.0000 0.0000
# 2 33.7388 47.2043 45.0393 0.0000 0.0000 0.0000
# 3 76.8264 45.0393 146.0041 0.0000 0.0000 0.0000
# 4 0.0000 0.0000 0.0000 27.3514 0.0000 0.0000
# 5 0.0000 0.0000 0.0000 0.0000 28.5240 0.0000
# 6 0.0000 0.0000 0.0000 0.0000 0.0000 21.2145
#
#
#
# Elastic Compliance Matrix: (Units=1/GPa)
#
#
# Indices 1 2 3 4 5 6 
#
# 1 0.012729 -0.003836 -0.005514 0.000000 0.000000 0.000000
# 2 -0.003836 0.031177 -0.007599 0.000000 0.000000 0.000000
# 3 -0.005514 -0.007599 0.012095 0.000000 0.000000 0.000000
# 4 0.000000 0.000000 0.000000 0.036561 0.000000 0.000000
# 5 0.000000 0.000000 0.000000 0.000000 0.035058 0.000000
# 6 0.000000 0.000000 0.000000 0.000000 0.000000 0.047138
#
#
# Mechanical properties :
#
#
# Convention : Reuss Voigt Hill
#
# Bulk Modulus (GPa) = 45.24597 69.60353 57.42475
# Shear Modulus (GPa) = 23.14569 26.05919 24.60244
#
# Velocity S-wave (km/s) = 3.50881 3.72310 3.61754
# Velocity P-wave (km/s) = 6.36262 7.45021 6.92779
#
# Compressibility (1/GPa) = 0.02210142
#
# Stress axis : x y z
#
# Youngs Moduli (GPa) = 78.56294 32.07528 82.68040
#
# Poissons Ratio (x) = 0.12305 0.45593
# Poissons Ratio (y) = 0.30139 0.62827
# Poissons Ratio (z) = 0.43322 0.24373
#
# Static dielectric constant tensor:
#      x y z
#    x 1.671340 0.000000 0.000000 
#    y 0.000000 1.670360 0.000000 
#    z 0.000000 0.000000 1.716410 
# 
# From -- ./inp_files/11866.got.cif
#   From: 2010.05.17/outbox.cif.g08.bks.cpg/sg73_6_cif.got.tgz:11866.got - 2010.06.03 17:35:07.
