data_PCOD9530109
_publ_section_title
;
Structure prediction by ZEFSAII (Michael W. Deem and Ramdas Pophale) SiO2 
 PCOD9530109
Probable space group: I B C A 
;
_chemical_formula_sum "Si O2"
_cell_formula_units_Z 96
_cell_length_a 21.833780
_cell_length_b 23.345517
_cell_length_c 9.041942
_cell_angle_alpha 90.000000
_cell_angle_beta 90.000000
_cell_angle_gamma 90.000000
_cell_volume 4608.866653
_symmetry_space_group_name_H-M "I B C A "
_symmetry_group_IT_number 73
_symmetry_cell_setting 'orthorhombic'
loop_
_space_group_symop_operation_xyz
x,y,z
-x,1/2-y,z
x,-y,1/2-z
1/2-x,y,-z
-x,-y,-z
x,1/2+y,-z
-x,y,1/2+z
1/2+x,-y,z
1/2+x,1/2+y,1/2+z
1/2-x,-y,1/2+z
1/2+x,1/2-y,-z
-x,1/2+y,1/2-z
1/2-x,1/2-y,1/2-z
1/2+x,y,1/2-z
1/2-x,1/2+y,z
x,1/2-y,1/2+z
loop_
_atom_site_type_symbol
_atom_site_label
_atom_site_fract_x
_atom_site_fract_y
_atom_site_fract_z
Si Si1 0.930901 0.623303 0.302963
Si Si2 0.004619 0.815249 0.582525
Si Si3 0.391450 0.857623 0.211008
Si Si4 0.679362 0.135867 0.489984
Si Si5 0.030225 0.960803 0.871257
Si Si6 0.704614 0.235297 0.886587
O O1 0.963400 0.651413 0.448304
O O2 0.861891 0.612682 0.355137
O O3 0.942075 0.661771 0.158012
O O4 0.972035 0.567133 0.286159
O O5 0.051245 0.824380 0.717692
O O6 0.000000 0.750000 0.539202
O O7 0.353223 0.878845 0.354798
O O8 0.420636 0.908581 0.111375
O O9 0.349595 0.808363 0.142804
O O10 0.750000 0.118096 0.500000
O O11 0.680837 0.204963 0.457996
O O12 0.062359 0.000000 0.750000
O O13 0.000000 0.000000 0.000000
O O14 0.750000 0.250000 0.750000
O O15 0.750000 0.205403 0.000000
#
# Coordination Sequence:
#
# PCOD9530109 Si02
#       6
#    16  16  16  16  16  16
#     4  10  21  36  57  86 115 163 206 260 325 390
#     4  10  19  33  53  85 125 154 198 249 316 393
#     4  10  21  37  58  89 122 170 211 263 327 394
#     4  10  19  36  59  87 134 174 206 245 331 408
#     4  11  23  44  66  87 117 160 226 290 343 376
#     4  11  20  37  59  94 137 174 211 249 316 414
#
# _framework density 20.829416999999999
#
# number of rings (size 3 to 8) (size 9 to 14) (size 15 to 20)
#    0.000    1.667    3.333    4.500    0.000    4.000 
#    9.000    0.000    0.000    7.000    0.000    0.000 
#    0.000    0.000    0.000    0.000    0.000    0.000 
#
# Total GULP energy -267406.897535 kJ/mol
# GULP energy per Si atom -5570.977032 kJ/mol
# Density = 2.078201 g / cm^3
# Si number density = 20.829417 Si / 1000 Ang^3
#
#
#
# Elastic Constant Matrix: (Units=GPa)
#
#
# Indices 1 2 3 4 5 6 
#
# 1 123.2968 22.6370 34.3737 0.0000 0.0000 0.0000
# 2 22.6370 69.3612 27.5867 0.0000 0.0000 0.0000
# 3 34.3737 27.5867 84.3991 0.0000 0.0000 0.0000
# 4 0.0000 0.0000 0.0000 31.5023 0.0000 0.0000
# 5 0.0000 0.0000 0.0000 0.0000 41.7563 0.0000
# 6 0.0000 0.0000 0.0000 0.0000 0.0000 33.1702
#
#
#
# Elastic Compliance Matrix: (Units=1/GPa)
#
#
# Indices 1 2 3 4 5 6 
#
# 1 0.009333 -0.001763 -0.003225 0.000000 0.000000 0.000000
# 2 -0.001763 0.016905 -0.004807 0.000000 0.000000 0.000000
# 3 -0.003225 -0.004807 0.014733 0.000000 0.000000 0.000000
# 4 0.000000 0.000000 0.000000 0.031744 0.000000 0.000000
# 5 0.000000 0.000000 0.000000 0.000000 0.023948 0.000000
# 6 0.000000 0.000000 0.000000 0.000000 0.000000 0.030148
#
#
# Mechanical properties :
#
#
# Convention : Reuss Voigt Hill
#
# Bulk Modulus (GPa) = 46.77241 49.58354 48.17797
# Shear Modulus (GPa) = 32.56716 34.11641 33.34178
#
# Velocity S-wave (km/s) = 3.95842 4.05148 4.00522
# Velocity P-wave (km/s) = 6.58756 6.76330 6.67601
#
# Compressibility (1/GPa) = 0.02138013
#
# Stress axis : x y z
#
# Youngs Moduli (GPa) = 107.14294 59.15482 67.87403
#
# Poissons Ratio (x) = 0.10432 0.21888
# Poissons Ratio (y) = 0.18894 0.32629
# Poissons Ratio (z) = 0.34552 0.28437
#
# Static dielectric constant tensor:
#      x y z
#    x 1.752210 0.000000 0.000000 
#    y 0.000000 1.826400 0.000000 
#    z 0.000000 0.000000 1.686440 
# 
# From -- ./inp_files/12868.got.cif
#   From: 2010.05.17/outbox.cif.g08.bks.cpg/sg73_7_cif.got.tgz:12868.got - 2010.06.03 17:35:07.
