data_PCOD9530960
_publ_section_title
;
Structure prediction by ZEFSAII (Michael W. Deem and Ramdas Pophale) SiO2 
 PCOD9530960
Probable space group: I B C A 
;
_chemical_formula_sum "Si O2"
_cell_formula_units_Z 80
_cell_length_a 16.452708
_cell_length_b 28.758576
_cell_length_c 8.288520
_cell_angle_alpha 90.000000
_cell_angle_beta 90.000000
_cell_angle_gamma 90.000000
_cell_volume 3921.766727
_symmetry_space_group_name_H-M "I B C A "
_symmetry_group_IT_number 73
_symmetry_cell_setting 'orthorhombic'
loop_
_space_group_symop_operation_xyz
x,y,z
-x,1/2-y,z
x,-y,1/2-z
1/2-x,y,-z
-x,-y,-z
x,1/2+y,-z
-x,y,1/2+z
1/2+x,-y,z
1/2+x,1/2+y,1/2+z
1/2-x,-y,1/2+z
1/2+x,1/2-y,-z
-x,1/2+y,1/2-z
1/2-x,1/2-y,1/2-z
1/2+x,y,1/2-z
1/2-x,1/2+y,z
x,1/2-y,1/2+z
loop_
_atom_site_type_symbol
_atom_site_label
_atom_site_fract_x
_atom_site_fract_y
_atom_site_fract_z
Si Si1 0.201260 0.000000 0.250000
Si Si2 0.718060 0.818371 0.817447
Si Si3 0.305617 0.410023 0.851560
Si Si4 0.911860 0.985584 0.439480
Si Si5 0.622012 0.222574 0.196317
Si Si6 0.500000 0.250000 0.443286
O O1 0.255848 0.953590 0.226950
O O2 0.149283 0.996257 0.417461
O O3 0.682132 0.867796 0.769221
O O4 0.656551 0.775489 0.796479
O O5 0.798283 0.808256 0.709575
O O6 0.750000 0.817547 0.000000
O O7 0.387873 0.431360 0.925345
O O8 0.250000 0.394252 0.000000
O O9 0.906373 0.000000 0.250000
O O10 0.000000 0.000000 0.500000
O O11 0.558772 0.217081 0.341127
O O12 0.563523 0.219625 0.044288
#
# Coordination Sequence:
#
# PCOD9530960 Si02
#       6
#     8  16  16  16  16   8
#     4  10  22  44  66  94 122 176 224 274 330 394
#     4  11  23  39  63  97 126 175 222 276 327 405
#     4  10  24  40  67  93 124 167 225 275 324 400
#     4  11  22  41  67  92 128 172 210 277 338 400
#     4  10  22  40  64  88 128 173 219 267 333 396
#     4  10  20  40  64  86 124 172 210 270 332 390
#
# _framework density 20.398969000000001
#
# number of rings (size 3 to 8) (size 9 to 14) (size 15 to 20)
#    0.000    1.600    4.000    0.000    5.600    0.000 
#    0.000    6.000    0.000    0.000    0.000    0.000 
#    0.000    0.000    0.000    0.000    0.000    0.000 
#
# Total GULP energy -222887.590258 kJ/mol
# GULP energy per Si atom -5572.189756 kJ/mol
# Density = 2.035254 g / cm^3
# Si number density = 20.398969 Si / 1000 Ang^3
#
#
#
# Elastic Constant Matrix: (Units=GPa)
#
#
# Indices 1 2 3 4 5 6 
#
# 1 121.2893 44.1057 41.0382 -0.0009 0.0005 0.0000
# 2 44.1057 94.4827 28.4941 0.0007 -0.0009 0.0000
# 3 41.0382 28.4941 117.5131 0.0060 -0.0030 -0.0001
# 4 -0.0009 0.0007 0.0060 15.6645 -0.0029 -0.0001
# 5 0.0005 -0.0009 -0.0030 -0.0029 23.7268 0.0000
# 6 0.0000 0.0000 -0.0001 -0.0001 0.0000 10.2475
#
#
#
# Elastic Compliance Matrix: (Units=1/GPa)
#
#
# Indices 1 2 3 4 5 6 
#
# 1 0.010680 -0.004165 -0.002720 0.000002 -0.000001 0.000000
# 2 -0.004165 0.013043 -0.001708 0.000000 0.000000 0.000000
# 3 -0.002720 -0.001708 0.009874 -0.000004 0.000001 0.000000
# 4 0.000002 0.000000 -0.000004 0.063839 0.000008 0.000001
# 5 -0.000001 0.000000 0.000001 0.000008 0.042146 0.000000
# 6 0.000000 0.000000 0.000000 0.000001 0.000000 0.097584
#
#
# Mechanical properties :
#
#
# Convention : Reuss Voigt Hill
#
# Bulk Modulus (GPa) = 60.93549 62.28456 61.61003
# Shear Modulus (GPa) = 19.24394 24.57092 21.90743
#
# Velocity S-wave (km/s) = 3.07478 3.47438 3.28067
# Velocity P-wave (km/s) = 6.52245 6.83334 6.67971
#
# Compressibility (1/GPa) = 0.01641080
#
# Stress axis : x y z
#
# Youngs Moduli (GPa) = 93.63696 76.66689 101.28008
#
# Poissons Ratio (x) = 0.31933 0.27544
# Poissons Ratio (y) = 0.39001 0.17300
# Poissons Ratio (z) = 0.25465 0.13096
#
# Static dielectric constant tensor:
#      x y z
#    x 1.728790 0.000000 0.000000 
#    y 0.000000 1.703600 0.000000 
#    z 0.000000 0.000000 1.826260 
# 
# From -- ./inp_files/5605.got.cif
#   From: 2010.05.17/outbox.cif.g08.bks.cpg/sg73_3_cif.got.tgz:5605.got - 2010.06.03 17:35:07.
