data_PCOD9530257
_publ_section_title
;
Structure prediction by ZEFSAII (Michael W. Deem and Ramdas Pophale) SiO2 
 PCOD9530257
Probable space group: I B C A 
;
_chemical_formula_sum "Si O2"
_cell_formula_units_Z 80
_cell_length_a 13.573087
_cell_length_b 14.794711
_cell_length_c 17.386731
_cell_angle_alpha 90.000000
_cell_angle_beta 90.000000
_cell_angle_gamma 90.000000
_cell_volume 3491.427705
_symmetry_space_group_name_H-M "I B C A "
_symmetry_group_IT_number 73
_symmetry_cell_setting 'orthorhombic'
loop_
_space_group_symop_operation_xyz
x,y,z
-x,1/2-y,z
x,-y,1/2-z
1/2-x,y,-z
-x,-y,-z
x,1/2+y,-z
-x,y,1/2+z
1/2+x,-y,z
1/2+x,1/2+y,1/2+z
1/2-x,-y,1/2+z
1/2+x,1/2-y,-z
-x,1/2+y,1/2-z
1/2-x,1/2-y,1/2-z
1/2+x,y,1/2-z
1/2-x,1/2+y,z
x,1/2-y,1/2+z
loop_
_atom_site_type_symbol
_atom_site_label
_atom_site_fract_x
_atom_site_fract_y
_atom_site_fract_z
Si Si1 0.362025 0.507065 0.979142
Si Si2 0.796441 0.091663 0.792798
Si Si3 0.481822 0.501242 0.371801
Si Si4 0.073862 0.316012 0.682260
Si Si5 0.180103 0.689597 0.432039
O O1 0.414507 0.540792 0.901020
O O2 0.368098 0.397720 0.972753
O O3 0.250000 0.530340 0.000000
O O4 0.426548 0.532970 0.051461
O O5 0.901536 0.063522 0.830991
O O6 0.826223 0.159857 0.725786
O O7 0.735054 0.139490 0.860044
O O8 0.757665 0.000000 0.750000
O O9 0.488284 0.408309 0.325695
O O10 0.107985 0.263018 0.605278
O O11 0.000000 0.250000 0.726126
O O12 0.250000 0.728265 0.500000
#
# Coordination Sequence:
#
# PCOD9530257 Si02
#       5
#    16  16  16  16  16
#     4  10  19  36  67  93 123 159 216 264 316 365
#     4  10  22  42  62  90 130 176 217 260 322 404
#     4  10  20  39  65  90 125 170 211 263 316 390
#     4  11  23  40  59  93 132 169 209 267 330 383
#     4  11  21  42  66  91 129 163 214 277 322 375
#
# _framework density 22.913263000000001
#
# number of rings (size 3 to 8) (size 9 to 14) (size 15 to 20)
#    0.000    1.600    6.000    0.600    0.000    0.800 
#    3.600    7.000    0.000    0.000    0.000    0.000 
#    0.000    0.000    0.000    0.000    0.000    0.000 
#
# Total GULP energy -222962.808818 kJ/mol
# GULP energy per Si atom -5574.070220 kJ/mol
# Density = 2.286111 g / cm^3
# Si number density = 22.913263 Si / 1000 Ang^3
#
#
#
# Elastic Constant Matrix: (Units=GPa)
#
#
# Indices 1 2 3 4 5 6 
#
# 1 95.5953 17.1224 25.9106 0.0000 0.0000 0.0000
# 2 17.1224 56.4566 10.9329 0.0000 0.0000 0.0000
# 3 25.9106 10.9329 75.2138 0.0000 0.0000 0.0000
# 4 0.0000 0.0000 0.0000 22.6632 0.0000 0.0000
# 5 0.0000 0.0000 0.0000 0.0000 41.7947 0.0000
# 6 0.0000 0.0000 0.0000 0.0000 0.0000 28.4022
#
#
#
# Elastic Compliance Matrix: (Units=1/GPa)
#
#
# Indices 1 2 3 4 5 6 
#
# 1 0.011988 -0.002918 -0.003706 0.000000 0.000000 0.000000
# 2 -0.002918 0.018936 -0.001747 0.000000 0.000000 0.000000
# 3 -0.003706 -0.001747 0.014826 0.000000 0.000000 0.000000
# 4 0.000000 0.000000 0.000000 0.044124 0.000000 0.000000
# 5 0.000000 0.000000 0.000000 0.000000 0.023927 0.000000
# 6 0.000000 0.000000 0.000000 0.000000 0.000000 0.035209
#
#
# Mechanical properties :
#
#
# Convention : Reuss Voigt Hill
#
# Bulk Modulus (GPa) = 34.47321 37.24418 35.85870
# Shear Modulus (GPa) = 28.50293 30.12532 29.31413
#
# Velocity S-wave (km/s) = 3.53079 3.62989 3.58068
# Velocity P-wave (km/s) = 5.63025 5.81875 5.72528
#
# Compressibility (1/GPa) = 0.02900803
#
# Stress axis : x y z
#
# Youngs Moduli (GPa) = 83.41812 52.80920 67.44930
#
# Poissons Ratio (x) = 0.15410 0.24994
# Poissons Ratio (y) = 0.24342 0.11785
# Poissons Ratio (z) = 0.30911 0.09227
#
# Static dielectric constant tensor:
#      x y z
#    x 1.954140 0.000000 0.000000 
#    y 0.000000 1.850320 0.000000 
#    z 0.000000 0.000000 1.949010 
# 
# From -- ./inp_files/16862.got.cif
#   From: 2010.05.17/outbox.cif.g08.bks.cpg/sg73_9_cif.got.tgz:16862.got - 2010.06.03 17:35:07.
