data_PCOD9530816
_publ_section_title
;
Structure prediction by ZEFSAII (Michael W. Deem and Ramdas Pophale) SiO2 
 PCOD9530816
Probable space group: I B C A 
;
_chemical_formula_sum "Si O2"
_cell_formula_units_Z 72
_cell_length_a 8.258493
_cell_length_b 17.435551
_cell_length_c 22.392310
_cell_angle_alpha 90.000000
_cell_angle_beta 90.000000
_cell_angle_gamma 90.000000
_cell_volume 3224.299526
_symmetry_space_group_name_H-M "I B C A "
_symmetry_group_IT_number 73
_symmetry_cell_setting 'orthorhombic'
loop_
_space_group_symop_operation_xyz
x,y,z
-x,1/2-y,z
x,-y,1/2-z
1/2-x,y,-z
-x,-y,-z
x,1/2+y,-z
-x,y,1/2+z
1/2+x,-y,z
1/2+x,1/2+y,1/2+z
1/2-x,-y,1/2+z
1/2+x,1/2-y,-z
-x,1/2+y,1/2-z
1/2-x,1/2-y,1/2-z
1/2+x,y,1/2-z
1/2-x,1/2+y,z
x,1/2-y,1/2+z
loop_
_atom_site_type_symbol
_atom_site_label
_atom_site_fract_x
_atom_site_fract_y
_atom_site_fract_z
Si Si1 0.912189 0.128808 0.158718
Si Si2 0.909730 0.500000 0.750000
Si Si3 0.761317 0.782189 0.816983
Si Si4 0.951249 0.090350 0.364477
Si Si5 0.260155 0.969510 0.070296
O O1 0.807999 0.205163 0.148241
O O2 0.907323 0.081420 0.097312
O O3 0.087267 0.158939 0.179222
O O4 0.841758 0.072926 0.211322
O O5 0.993454 0.543129 0.695524
O O6 0.750000 0.750000 0.750000
O O7 0.606697 0.826866 0.842297
O O8 0.101549 0.075681 0.407480
O O9 0.797501 0.049557 0.396518
O O10 0.250000 0.978632 0.000000
#
# Coordination Sequence:
#
# PCOD9530816 Si02
#       5
#    16   8  16  16  16
#     4  10  24  40  66  98 145 178 239 284 355 426
#     4  10  20  38  62 102 130 174 224 290 352 410
#     4  11  23  42  63 105 147 184 217 290 373 439
#     4  11  23  39  71  99 141 184 236 294 360 416
#     4  11  25  46  68  99 140 193 254 295 337 409
#
# _framework density 22.330431999999998
#
# number of rings (size 3 to 8) (size 9 to 14) (size 15 to 20)
#    0.000    1.333    2.222    3.333    3.111    5.333 
#    0.000    5.556    0.000    0.000    0.000    0.000 
#    0.000    0.000    0.000    0.000    0.000    0.000 
#
# Total GULP energy -200773.882864 kJ/mol
# GULP energy per Si atom -5577.052302 kJ/mol
# Density = 2.227961 g / cm^3
# Si number density = 22.330432 Si / 1000 Ang^3
#
#
#
# Elastic Constant Matrix: (Units=GPa)
#
#
# Indices 1 2 3 4 5 6 
#
# 1 115.7033 49.6898 28.5776 0.0000 0.0000 0.0000
# 2 49.6898 141.5705 51.1193 0.0000 0.0000 0.0000
# 3 28.5776 51.1193 147.1217 0.0000 0.0000 0.0000
# 4 0.0000 0.0000 0.0000 20.7509 0.0000 0.0000
# 5 0.0000 0.0000 0.0000 0.0000 31.0462 0.0000
# 6 0.0000 0.0000 0.0000 0.0000 0.0000 26.6997
#
#
#
# Elastic Compliance Matrix: (Units=1/GPa)
#
#
# Indices 1 2 3 4 5 6 
#
# 1 0.010269 -0.003298 -0.000849 0.000000 0.000000 0.000000
# 2 -0.003298 0.009136 -0.002534 0.000000 0.000000 0.000000
# 3 -0.000849 -0.002534 0.007842 0.000000 0.000000 0.000000
# 4 0.000000 0.000000 0.000000 0.048191 0.000000 0.000000
# 5 0.000000 0.000000 0.000000 0.000000 0.032210 0.000000
# 6 0.000000 0.000000 0.000000 0.000000 0.000000 0.037454
#
#
# Mechanical properties :
#
#
# Convention : Reuss Voigt Hill
#
# Bulk Modulus (GPa) = 72.01325 73.68545 72.84935
# Shear Modulus (GPa) = 30.65772 34.03326 32.34549
#
# Velocity S-wave (km/s) = 3.70930 3.90818 3.81004
# Velocity P-wave (km/s) = 7.11788 7.30989 7.21452
#
# Compressibility (1/GPa) = 0.01388633
#
# Stress axis : x y z
#
# Youngs Moduli (GPa) = 97.38356 109.45672 127.51209
#
# Poissons Ratio (x) = 0.36096 0.10823
# Poissons Ratio (y) = 0.32114 0.32310
# Poissons Ratio (z) = 0.08266 0.27735
#
# Static dielectric constant tensor:
#      x y z
#    x 2.002960 0.000000 0.000000 
#    y 0.000000 1.899310 0.000000 
#    z 0.000000 0.000000 1.778140 
# 
# From -- ./inp_files/28237.got.cif
#   From: 2010.05.17/outbox.cif.g08.bks.cpg/sg73_15_cif.got.tgz:28237.got - 2010.06.03 17:35:07.
