data_PCOD9530576
_publ_section_title
;
Structure prediction by ZEFSAII (Michael W. Deem and Ramdas Pophale) SiO2 
 PCOD9530576
Probable space group: I B C A 
;
_chemical_formula_sum "Si O2"
_cell_formula_units_Z 112
_cell_length_a 13.774658
_cell_length_b 23.335946
_cell_length_c 14.318744
_cell_angle_alpha 90.000000
_cell_angle_beta 90.000000
_cell_angle_gamma 90.000000
_cell_volume 4602.684015
_symmetry_space_group_name_H-M "I B C A "
_symmetry_group_IT_number 73
_symmetry_cell_setting 'orthorhombic'
loop_
_space_group_symop_operation_xyz
x,y,z
-x,1/2-y,z
x,-y,1/2-z
1/2-x,y,-z
-x,-y,-z
x,1/2+y,-z
-x,y,1/2+z
1/2+x,-y,z
1/2+x,1/2+y,1/2+z
1/2-x,-y,1/2+z
1/2+x,1/2-y,-z
-x,1/2+y,1/2-z
1/2-x,1/2-y,1/2-z
1/2+x,y,1/2-z
1/2-x,1/2+y,z
x,1/2-y,1/2+z
loop_
_atom_site_type_symbol
_atom_site_label
_atom_site_fract_x
_atom_site_fract_y
_atom_site_fract_z
Si Si1 0.641659 0.412804 0.473884
Si Si2 0.165516 0.409150 0.568635
Si Si3 0.716888 0.192897 0.645970
Si Si4 0.580520 0.135574 0.158043
Si Si5 0.493647 0.447700 0.317155
Si Si6 0.950631 0.695685 0.514891
Si Si7 0.298894 0.687124 0.656216
O O1 0.750000 0.432532 0.500000
O O2 0.589257 0.410490 0.573554
O O3 0.581441 0.442296 0.391268
O O4 0.654977 0.348184 0.428554
O O5 0.250000 0.431497 0.500000
O O6 0.229694 0.366251 0.629202
O O7 0.105724 0.455895 0.624275
O O8 0.079829 0.365160 0.532270
O O9 0.652036 0.211260 0.559278
O O10 0.792363 0.244691 0.649711
O O11 0.656916 0.181758 0.740444
O O12 0.533941 0.106574 0.249533
O O13 0.516848 0.182825 0.105182
O O14 0.688879 0.161836 0.168998
O O15 0.514928 0.500000 0.250000
O O16 0.000000 0.750000 0.463750
#
# Coordination Sequence:
#
# PCOD9530576 Si02
#       7
#    16  16  16  16  16  16  16
#     4  10  24  45  71 103 144 187 237 307 368 436
#     4  10  23  41  67 103 146 187 244 305 359 440
#     4  10  20  35  62  97 143 194 231 282 356 436
#     4  11  22  41  68  99 146 182 243 294 356 437
#     4  12  26  49  75 101 138 192 248 315 375 428
#     4  11  21  35  62 103 141 188 234 283 361 442
#     4  10  20  37  61  98 147 188 233 289 357 430
#
# _framework density 24.333628000000001
#
# number of rings (size 3 to 8) (size 9 to 14) (size 15 to 20)
#    0.000    1.429    4.286    0.857    2.000    2.286 
#    0.000    5.714    0.000    0.000    0.000    0.000 
#    0.000    0.000    0.000    0.000    0.000    0.000 
#
# Total GULP energy -312296.949215 kJ/mol
# GULP energy per Si atom -5576.731236 kJ/mol
# Density = 2.427824 g / cm^3
# Si number density = 24.333628 Si / 1000 Ang^3
#
#
#
# Elastic Constant Matrix: (Units=GPa)
#
#
# Indices 1 2 3 4 5 6 
#
# 1 90.3738 20.5127 49.5369 0.0000 0.0000 0.0000
# 2 20.5127 70.5867 24.6458 0.0004 0.0000 -0.0001
# 3 49.5369 24.6458 126.7171 0.0004 0.0001 -0.0001
# 4 0.0000 0.0004 0.0004 30.1600 0.0001 -0.0001
# 5 0.0000 0.0000 0.0001 0.0001 38.5299 0.0000
# 6 0.0000 -0.0001 -0.0001 -0.0001 0.0000 9.3443
#
#
#
# Elastic Compliance Matrix: (Units=1/GPa)
#
#
# Indices 1 2 3 4 5 6 
#
# 1 0.014449 -0.002389 -0.005184 0.000000 0.000000 0.000000
# 2 -0.002389 0.015594 -0.002099 0.000000 0.000000 0.000000
# 3 -0.005184 -0.002099 0.010326 0.000000 0.000000 0.000000
# 4 0.000000 0.000000 0.000000 0.033156 0.000000 0.000000
# 5 0.000000 0.000000 0.000000 0.000000 0.025954 0.000000
# 6 0.000000 0.000000 0.000000 0.000000 0.000000 0.107017
#
#
# Mechanical properties :
#
#
# Convention : Reuss Voigt Hill
#
# Bulk Modulus (GPa) = 47.56089 53.00761 50.28425
# Shear Modulus (GPa) = 21.47318 28.47231 24.97274
#
# Velocity S-wave (km/s) = 2.97383 3.42436 3.20701
# Velocity P-wave (km/s) = 5.60172 6.12094 5.86708
#
# Compressibility (1/GPa) = 0.02102568
#
# Stress axis : x y z
#
# Youngs Moduli (GPa) = 69.21003 64.12674 96.83990
#
# Poissons Ratio (x) = 0.15319 0.50199
# Poissons Ratio (y) = 0.16534 0.20327
# Poissons Ratio (z) = 0.35877 0.13461
#
# Static dielectric constant tensor:
#      x y z
#    x 1.976840 0.000000 0.000000 
#    y 0.000000 1.999390 0.000000 
#    z 0.000000 0.000000 1.997150 
# 
# From -- ./inp_files/17270.got.cif
#   From: 2010.05.17/outbox.cif.g08.bks.cpg/sg73_9_cif.got.tgz:17270.got - 2010.06.03 17:35:07.
