data_PCOD9530353
_publ_section_title
;
Structure prediction by ZEFSAII (Michael W. Deem and Ramdas Pophale) SiO2 
 PCOD9530353
Probable space group: I B C A 
;
_chemical_formula_sum "Si O2"
_cell_formula_units_Z 112
_cell_length_a 15.207249
_cell_length_b 29.528720
_cell_length_c 11.592532
_cell_angle_alpha 90.000000
_cell_angle_beta 90.000000
_cell_angle_gamma 90.000000
_cell_volume 5205.633423
_symmetry_space_group_name_H-M "I B C A "
_symmetry_group_IT_number 73
_symmetry_cell_setting 'orthorhombic'
loop_
_space_group_symop_operation_xyz
x,y,z
-x,1/2-y,z
x,-y,1/2-z
1/2-x,y,-z
-x,-y,-z
x,1/2+y,-z
-x,y,1/2+z
1/2+x,-y,z
1/2+x,1/2+y,1/2+z
1/2-x,-y,1/2+z
1/2+x,1/2-y,-z
-x,1/2+y,1/2-z
1/2-x,1/2-y,1/2-z
1/2+x,y,1/2-z
1/2-x,1/2+y,z
x,1/2-y,1/2+z
loop_
_atom_site_type_symbol
_atom_site_label
_atom_site_fract_x
_atom_site_fract_y
_atom_site_fract_z
Si Si1 0.643385 0.965201 0.018194
Si Si2 0.796569 0.235218 0.126942
Si Si3 0.831532 0.901041 0.777741
Si Si4 0.913414 0.851065 0.367531
Si Si5 0.353928 0.067256 0.522596
Si Si6 0.097993 0.178190 0.073790
Si Si7 0.133109 0.116547 0.861645
O O1 0.633253 0.941589 0.141588
O O2 0.610262 0.016267 0.011187
O O3 0.750000 0.965463 0.000000
O O4 0.605116 0.929372 0.926588
O O5 0.750000 0.250000 0.250000
O O6 0.833580 0.184516 0.139526
O O7 0.872663 0.271956 0.105623
O O8 0.750000 0.236390 0.000000
O O9 0.858533 0.912619 0.649814
O O10 0.870787 0.854608 0.824018
O O11 0.726525 0.895444 0.801199
O O12 0.893175 0.896935 0.434774
O O13 0.931493 0.865697 0.236177
O O14 0.993790 0.827021 0.431129
O O15 0.250000 0.063695 0.500000
O O16 0.141067 0.155731 0.958929
#
# Coordination Sequence:
#
# PCOD9530353 Si02
#       7
#    16  16  16  16  16  16  16
#     4   8  18  35  64  93 126 171 222 269 317 373
#     4  12  27  47  73  99 128 169 225 276 334 400
#     4  10  19  39  66  91 127 173 227 268 317 385
#     4  12  26  40  65  99 135 168 213 277 332 395
#     4  11  21  36  62 100 131 164 223 280 316 371
#     4  11  25  43  66  92 133 177 211 265 337 407
#     4  10  21  43  65  93 132 182 220 261 332 393
#
# _framework density 21.515153999999999
#
# number of rings (size 3 to 8) (size 9 to 14) (size 15 to 20)
#    0.000    1.429    1.429    5.143    4.000    0.571 
#    0.000    5.714    6.286    0.000    0.000    0.000 
#    0.000    0.000    0.000    0.000    0.000    0.000 
#
# Total GULP energy -312783.911029 kJ/mol
# GULP energy per Si atom -5585.426983 kJ/mol
# Density = 2.146618 g / cm^3
# Si number density = 21.515154 Si / 1000 Ang^3
#
#
#
# Elastic Constant Matrix: (Units=GPa)
#
#
# Indices 1 2 3 4 5 6 
#
# 1 35.2576 0.3112 6.0898 0.0000 0.0000 0.0000
# 2 0.3112 111.1979 32.7376 -0.0003 -0.0001 0.0001
# 3 6.0898 32.7376 121.7917 -0.0006 -0.0001 0.0002
# 4 0.0000 -0.0003 -0.0006 10.1062 -0.0001 0.0001
# 5 0.0000 -0.0001 -0.0001 -0.0001 13.2672 0.0000
# 6 0.0000 0.0001 0.0002 0.0001 0.0000 11.4834
#
#
#
# Elastic Compliance Matrix: (Units=1/GPa)
#
#
# Indices 1 2 3 4 5 6 
#
# 1 0.028624 0.000371 -0.001531 0.000000 0.000000 0.000000
# 2 0.000371 0.009771 -0.002645 0.000000 0.000000 0.000000
# 3 -0.001531 -0.002645 0.008998 0.000000 0.000000 0.000000
# 4 0.000000 0.000000 0.000000 0.098949 0.000000 -0.000001
# 5 0.000000 0.000000 0.000000 0.000000 0.075374 0.000000
# 6 0.000000 0.000000 0.000000 -0.000001 0.000000 0.087082
#
#
# Mechanical properties :
#
#
# Convention : Reuss Voigt Hill
#
# Bulk Modulus (GPa) = 25.13676 38.50272 31.81974
# Shear Modulus (GPa) = 15.16672 22.24526 18.70599
#
# Velocity S-wave (km/s) = 2.65794 3.21897 2.95181
# Velocity P-wave (km/s) = 4.59654 5.63473 5.14190
#
# Compressibility (1/GPa) = 0.03978238
#
# Stress axis : x y z
#
# Youngs Moduli (GPa) = 34.93594 102.34770 111.13296
#
# Poissons Ratio (x) = -0.03793 0.17013
# Poissons Ratio (y) = -0.01295 0.29393
# Poissons Ratio (z) = 0.05348 0.27070
#
# Static dielectric constant tensor:
#      x y z
#    x 1.730560 0.000000 0.000000 
#    y 0.000000 1.748860 0.000000 
#    z 0.000000 0.000000 1.760950 
# 
# From -- ./inp_files/11260.got.cif
#   From: 2010.05.17/outbox.cif.g08.bks.cpg/sg73_6_cif.got.tgz:11260.got - 2010.06.03 17:35:07.
