data_PCOD9530683
_publ_section_title
;
Structure prediction by ZEFSAII (Michael W. Deem and Ramdas Pophale) SiO2 
 PCOD9530683
Probable space group: I B C A 
;
_chemical_formula_sum "Si O2"
_cell_formula_units_Z 80
_cell_length_a 28.490714
_cell_length_b 5.030732
_cell_length_c 22.020746
_cell_angle_alpha 90.000000
_cell_angle_beta 90.000000
_cell_angle_gamma 90.000000
_cell_volume 3156.214732
_symmetry_space_group_name_H-M "I B C A "
_symmetry_group_IT_number 73
_symmetry_cell_setting 'orthorhombic'
loop_
_space_group_symop_operation_xyz
x,y,z
-x,1/2-y,z
x,-y,1/2-z
1/2-x,y,-z
-x,-y,-z
x,1/2+y,-z
-x,y,1/2+z
1/2+x,-y,z
1/2+x,1/2+y,1/2+z
1/2-x,-y,1/2+z
1/2+x,1/2-y,-z
-x,1/2+y,1/2-z
1/2-x,1/2-y,1/2-z
1/2+x,y,1/2-z
1/2-x,1/2+y,z
x,1/2-y,1/2+z
loop_
_atom_site_type_symbol
_atom_site_label
_atom_site_fract_x
_atom_site_fract_y
_atom_site_fract_z
Si Si1 0.720457 0.009625 0.832935
Si Si2 0.123917 0.764421 0.178599
Si Si3 0.000000 0.750000 0.858527
Si Si4 0.400056 0.238104 0.398855
Si Si5 0.949372 0.000000 0.250000
Si Si6 0.688654 0.812803 0.534300
O O1 0.762676 0.806764 0.818013
O O2 0.674737 0.858758 0.807125
O O3 0.707722 0.052389 0.904420
O O4 0.103410 0.553979 0.129982
O O5 0.087422 0.733140 0.233860
O O6 0.125018 0.048670 0.146087
O O7 0.045410 0.680729 0.898513
O O8 0.018429 0.961098 0.808678
O O9 0.367734 0.215643 0.457568
O O10 0.702066 0.510545 0.519995
#
# Coordination Sequence:
#
# PCOD9530683 Si02
#       6
#    16  16   8  16   8  16
#     4  11  22  38  59  85 117 154 196 244 299 356
#     4  10  21  38  58  86 125 160 192 248 318 362
#     4  10  20  36  64  94 118 156 210 256 294 362
#     4  10  21  38  58  86 125 160 192 248 318 362
#     4  10  20  36  64  94 118 156 210 256 294 362
#     4  11  22  38  59  85 117 154 196 244 299 356
#
# _framework density 25.346817000000001
#
# number of rings (size 3 to 8) (size 9 to 14) (size 15 to 20)
#    0.000    1.600    0.000    7.200    0.000    7.200 
#    0.000    2.000    0.000    0.000    0.000    0.000 
#    0.000    0.000    0.000    0.000    0.000    0.000 
#
# Total GULP energy -223325.671665 kJ/mol
# GULP energy per Si atom -5583.141792 kJ/mol
# Density = 2.528913 g / cm^3
# Si number density = 25.346817 Si / 1000 Ang^3
#
#
#
# Elastic Constant Matrix: (Units=GPa)
#
#
# Indices 1 2 3 4 5 6 
#
# 1 185.9255 10.5009 32.4058 0.0000 0.0000 0.0000
# 2 10.5009 138.9354 29.0191 0.0000 0.0000 0.0000
# 3 32.4058 29.0191 54.8950 0.0000 0.0000 0.0000
# 4 0.0000 0.0000 0.0000 21.3588 0.0000 0.0000
# 5 0.0000 0.0000 0.0000 0.0000 164.3077 0.0000
# 6 0.0000 0.0000 0.0000 0.0000 0.0000 18.2301
#
#
#
# Elastic Compliance Matrix: (Units=1/GPa)
#
#
# Indices 1 2 3 4 5 6 
#
# 1 0.006008 0.000322 -0.003717 0.000000 0.000000 0.000000
# 2 0.000322 0.008108 -0.004476 0.000000 0.000000 0.000000
# 3 -0.003717 -0.004476 0.022777 0.000000 0.000000 0.000000
# 4 0.000000 0.000000 0.000000 0.046819 0.000000 0.000000
# 5 0.000000 0.000000 0.000000 0.000000 0.006086 0.000000
# 6 0.000000 0.000000 0.000000 0.000000 0.000000 0.054854
#
#
# Mechanical properties :
#
#
# Convention : Reuss Voigt Hill
#
# Bulk Modulus (GPa) = 47.27906 58.17863 52.72884
# Shear Modulus (GPa) = 29.86030 61.30133 45.58081
#
# Velocity S-wave (km/s) = 3.43602 4.92316 4.24522
# Velocity P-wave (km/s) = 5.86814 7.43771 6.69905
#
# Compressibility (1/GPa) = 0.02115101
#
# Stress axis : x y z
#
# Youngs Moduli (GPa) = 166.43998 123.33160 43.90335
#
# Poissons Ratio (x) = -0.03975 0.16319
# Poissons Ratio (y) = -0.05364 0.19653
# Poissons Ratio (z) = 0.61868 0.55209
#
# Static dielectric constant tensor:
#      x y z
#    x 2.077210 0.000000 0.000000 
#    y 0.000000 2.025090 0.000000 
#    z 0.000000 0.000000 2.058170 
# 
# From -- ./inp_files/3087.got.cif
#   From: 2010.05.17/outbox.cif.g08.bks.cpg/sg73_2_cif.got.tgz:3087.got - 2010.06.03 17:35:07.
