data_PCOD9530530
_publ_section_title
;
Structure prediction by ZEFSAII (Michael W. Deem and Ramdas Pophale) SiO2 
 PCOD9530530
Probable space group: I B C A 
;
_chemical_formula_sum "Si O2"
_cell_formula_units_Z 72
_cell_length_a 19.878706
_cell_length_b 18.236274
_cell_length_c 8.615633
_cell_angle_alpha 90.000000
_cell_angle_beta 90.000000
_cell_angle_gamma 90.000000
_cell_volume 3123.283527
_symmetry_space_group_name_H-M "I B C A "
_symmetry_group_IT_number 73
_symmetry_cell_setting 'orthorhombic'
loop_
_space_group_symop_operation_xyz
x,y,z
-x,1/2-y,z
x,-y,1/2-z
1/2-x,y,-z
-x,-y,-z
x,1/2+y,-z
-x,y,1/2+z
1/2+x,-y,z
1/2+x,1/2+y,1/2+z
1/2-x,-y,1/2+z
1/2+x,1/2-y,-z
-x,1/2+y,1/2-z
1/2-x,1/2-y,1/2-z
1/2+x,y,1/2-z
1/2-x,1/2+y,z
x,1/2-y,1/2+z
loop_
_atom_site_type_symbol
_atom_site_label
_atom_site_fract_x
_atom_site_fract_y
_atom_site_fract_z
Si Si1 0.949241 0.547622 0.107347
Si Si2 0.322198 0.185540 0.926750
Si Si3 0.557778 0.342315 0.099827
Si Si4 0.000000 0.250000 0.167901
Si Si5 0.674746 0.848252 0.441673
O O1 0.921849 0.500000 0.250000
O O2 0.886775 0.593745 0.034893
O O3 0.005303 0.602977 0.174728
O O4 0.000000 0.500000 0.000000
O O5 0.322537 0.167840 0.744243
O O6 0.250000 0.174700 0.000000
O O7 0.371386 0.135215 0.031893
O O8 0.339099 0.271048 0.968765
O O9 0.559294 0.274977 0.218674
O O10 0.521803 0.313362 0.945834
O O11 0.750000 0.871629 0.500000
#
# Coordination Sequence:
#
# PCOD9530530 Si02
#       5
#    16  16  16   8  16
#     4  12  27  45  65  92 131 182 230 264 309 387
#     4  11  22  38  68 106 135 166 208 273 353 404
#     4  11  21  38  62  94 131 165 214 274 325 387
#     4  10  20  34  64  94 120 162 208 274 352 378
#     4  11  24  44  69 101 136 169 216 276 337 399
#
# _framework density 23.052661000000001
#
# number of rings (size 3 to 8) (size 9 to 14) (size 15 to 20)
#    0.000    0.889    0.000   10.667    0.000    5.333 
#    0.000    5.556    0.000    0.000    0.000    0.000 
#    0.000    0.000    0.000    0.000    0.000    0.000 
#
# Total GULP energy -200928.463612 kJ/mol
# GULP energy per Si atom -5581.346211 kJ/mol
# Density = 2.300019 g / cm^3
# Si number density = 23.052661 Si / 1000 Ang^3
#
#
#
# Elastic Constant Matrix: (Units=GPa)
#
#
# Indices 1 2 3 4 5 6 
#
# 1 166.1598 37.7326 32.6332 0.0000 0.0000 0.0000
# 2 37.7326 46.7875 15.6681 0.0000 0.0000 0.0000
# 3 32.6332 15.6681 113.5356 0.0000 0.0000 0.0000
# 4 0.0000 0.0000 0.0000 31.9959 0.0000 0.0000
# 5 0.0000 0.0000 0.0000 0.0000 40.5553 0.0000
# 6 0.0000 0.0000 0.0000 0.0000 0.0000 40.0422
#
#
#
# Elastic Compliance Matrix: (Units=1/GPa)
#
#
# Indices 1 2 3 4 5 6 
#
# 1 0.007574 -0.005640 -0.001399 0.000000 0.000000 0.000000
# 2 -0.005640 0.026608 -0.002051 0.000000 0.000000 0.000000
# 3 -0.001399 -0.002051 0.009493 0.000000 0.000000 0.000000
# 4 0.000000 0.000000 0.000000 0.031254 0.000000 0.000000
# 5 0.000000 0.000000 0.000000 0.000000 0.024658 0.000000
# 6 0.000000 0.000000 0.000000 0.000000 0.000000 0.024974
#
#
# Mechanical properties :
#
#
# Convention : Reuss Voigt Hill
#
# Bulk Modulus (GPa) = 39.22129 55.39453 47.30791
# Shear Modulus (GPa) = 33.06066 38.54862 35.80464
#
# Velocity S-wave (km/s) = 3.79111 4.09369 3.94530
# Velocity P-wave (km/s) = 6.01781 6.81367 6.42807
#
# Compressibility (1/GPa) = 0.02549636
#
# Stress axis : x y z
#
# Youngs Moduli (GPa) = 132.03682 37.58241 105.34244
#
# Poissons Ratio (x) = 0.21195 0.14733
# Poissons Ratio (y) = 0.74463 0.21606
# Poissons Ratio (z) = 0.18467 0.07708
#
# Static dielectric constant tensor:
#      x y z
#    x 2.066880 0.000000 0.000000 
#    y 0.000000 2.103690 0.000000 
#    z 0.000000 0.000000 1.843470 
# 
# From -- ./inp_files/6130.got.cif
#   From: 2010.05.17/outbox.cif.g08.bks.cpg/sg73_4_cif.got.tgz:6130.got - 2010.06.03 17:35:07.
