data_PCOD9530276
_publ_section_title
;
Structure prediction by ZEFSAII (Michael W. Deem and Ramdas Pophale) SiO2 
 PCOD9530276
Probable space group: I B C A 
;
_chemical_formula_sum "Si O2"
_cell_formula_units_Z 80
_cell_length_a 21.906888
_cell_length_b 17.741977
_cell_length_c 9.290748
_cell_angle_alpha 90.000000
_cell_angle_beta 90.000000
_cell_angle_gamma 90.000000
_cell_volume 3611.048990
_symmetry_space_group_name_H-M "I B C A "
_symmetry_group_IT_number 73
_symmetry_cell_setting 'orthorhombic'
loop_
_space_group_symop_operation_xyz
x,y,z
-x,1/2-y,z
x,-y,1/2-z
1/2-x,y,-z
-x,-y,-z
x,1/2+y,-z
-x,y,1/2+z
1/2+x,-y,z
1/2+x,1/2+y,1/2+z
1/2-x,-y,1/2+z
1/2+x,1/2-y,-z
-x,1/2+y,1/2-z
1/2-x,1/2-y,1/2-z
1/2+x,y,1/2-z
1/2-x,1/2+y,z
x,1/2-y,1/2+z
loop_
_atom_site_type_symbol
_atom_site_label
_atom_site_fract_x
_atom_site_fract_y
_atom_site_fract_z
Si Si1 0.602539 0.000000 0.250000
Si Si2 0.678981 0.417396 0.509330
Si Si3 0.500000 0.250000 0.867084
Si Si4 0.684205 0.285909 0.730827
Si Si5 0.095207 0.631717 0.935528
Si Si6 0.399495 0.641584 0.754150
O O1 0.644266 0.028755 0.119719
O O2 0.569118 0.071210 0.320720
O O3 0.750000 0.441880 0.500000
O O4 0.681917 0.336701 0.589225
O O5 0.637599 0.595685 0.132141
O O6 0.551754 0.295662 0.950731
O O7 0.463241 0.318191 0.789189
O O8 0.750000 0.250000 0.750000
O O9 0.657751 0.337389 0.861845
O O10 0.640641 0.215333 0.714406
O O11 0.098749 0.598002 0.094717
#
# Coordination Sequence:
#
# PCOD9530276 Si02
#       6
#     8  16   8  16  16  16
#     4  10  26  46  58  90 140 180 222 270 336 402
#     4  11  23  41  62  93 134 181 222 269 330 406
#     4  10  22  44  70 102 134 160 222 286 338 398
#     4  10  19  37  61  96 133 163 212 277 334 380
#     4  10  23  41  66  95 131 175 220 276 333 396
#     4  11  22  37  69 100 126 172 224 278 335 389
#
# _framework density 22.154226000000001
#
# number of rings (size 3 to 8) (size 9 to 14) (size 15 to 20)
#    0.000    1.600    2.000    3.000    0.000    5.600 
#    0.000    4.000    0.000    0.000    0.000    0.000 
#    0.000    0.000    0.000    0.000    0.000    0.000 
#
# Total GULP energy -223117.888020 kJ/mol
# GULP energy per Si atom -5577.947200 kJ/mol
# Density = 2.210380 g / cm^3
# Si number density = 22.154226 Si / 1000 Ang^3
#
#
#
# Elastic Constant Matrix: (Units=GPa)
#
#
# Indices 1 2 3 4 5 6 
#
# 1 109.3614 20.9575 48.2615 0.0000 0.0000 0.0000
# 2 20.9575 74.9281 30.1798 0.0000 0.0000 0.0000
# 3 48.2615 30.1798 166.2885 0.0000 0.0000 0.0000
# 4 0.0000 0.0000 0.0000 27.6069 0.0000 0.0000
# 5 0.0000 0.0000 0.0000 0.0000 -2.3499 0.0000
# 6 0.0000 0.0000 0.0000 0.0000 0.0000 19.4833
#
#
#
# Elastic Compliance Matrix: (Units=1/GPa)
#
#
# Indices 1 2 3 4 5 6 
#
# 1 0.010728 -0.001884 -0.002772 0.000000 0.000000 0.000000
# 2 -0.001884 0.014730 -0.002126 0.000000 0.000000 0.000000
# 3 -0.002772 -0.002126 0.007204 0.000000 0.000000 0.000000
# 4 0.000000 0.000000 0.000000 0.036223 0.000000 0.000000
# 5 0.000000 0.000000 0.000000 0.000000 -0.425544 0.000000
# 6 0.000000 0.000000 0.000000 0.000000 0.000000 0.051326
#
#
# Mechanical properties :
#
#
# Convention : Reuss Voigt Hill
#
# Bulk Modulus (GPa) = 52.36396 61.04174 56.70285
# Shear Modulus (GPa) = -17.51913 25.69332 4.08709
#
# Velocity S-wave (km/s) = -2.81513 3.40920 1.35972
# Velocity P-wave (km/s) = 3.62226 6.56580 5.30238
#
# Compressibility (1/GPa) = 0.01909710
#
# Stress axis : x y z
#
# Youngs Moduli (GPa) = 93.21195 67.89019 138.81228
#
# Poissons Ratio (x) = 0.12793 0.38474
# Poissons Ratio (y) = 0.17564 0.29517
# Poissons Ratio (z) = 0.25835 0.14436
#
# Static dielectric constant tensor:
#      x y z
#    x 1.306230 0.000000 0.000000 
#    y 0.000000 1.818520 0.000000 
#    z 0.000000 0.000000 1.858250 
# 
# From -- ./inp_files/13474.got.cif
#   From: 2010.05.17/outbox.cif.g08.bks.cpg/sg73_7_cif.got.tgz:13474.got - 2010.06.03 17:35:07.
