data_PCOD9530010
_publ_section_title
;
Structure prediction by ZEFSAII (Michael W. Deem and Ramdas Pophale) SiO2 
 PCOD9530010
Probable space group: I B C A 
;
_chemical_formula_sum "Si O2"
_cell_formula_units_Z 112
_cell_length_a 11.354677
_cell_length_b 14.278564
_cell_length_c 29.084643
_cell_angle_alpha 90.000000
_cell_angle_beta 90.000000
_cell_angle_gamma 90.000000
_cell_volume 4715.449026
_symmetry_space_group_name_H-M "I B C A "
_symmetry_group_IT_number 73
_symmetry_cell_setting 'orthorhombic'
loop_
_space_group_symop_operation_xyz
x,y,z
-x,1/2-y,z
x,-y,1/2-z
1/2-x,y,-z
-x,-y,-z
x,1/2+y,-z
-x,y,1/2+z
1/2+x,-y,z
1/2+x,1/2+y,1/2+z
1/2-x,-y,1/2+z
1/2+x,1/2-y,-z
-x,1/2+y,1/2-z
1/2-x,1/2-y,1/2-z
1/2+x,y,1/2-z
1/2-x,1/2+y,z
x,1/2-y,1/2+z
loop_
_atom_site_type_symbol
_atom_site_label
_atom_site_fract_x
_atom_site_fract_y
_atom_site_fract_z
Si Si1 0.062181 0.408316 0.524944
Si Si2 0.425949 0.111043 0.243832
Si Si3 0.611595 0.901728 0.185917
Si Si4 0.583793 0.926298 0.607938
Si Si5 0.272684 0.104875 0.684259
Si Si6 0.175968 0.118424 0.934638
Si Si7 0.164927 0.707583 0.158088
O O1 0.189176 0.414728 0.552553
O O2 0.107063 0.352370 0.480587
O O3 0.000000 0.500000 0.500000
O O4 0.967249 0.374126 0.562630
O O5 0.543842 0.140293 0.270222
O O6 0.311658 0.136059 0.274017
O O7 0.405214 0.138059 0.191644
O O8 0.432910 0.000000 0.250000
O O9 0.517922 0.923235 0.146062
O O10 0.701778 0.824766 0.168484
O O11 0.676391 0.001622 0.193861
O O12 0.697107 0.896507 0.637018
O O13 0.614482 0.028945 0.589125
O O14 0.361087 0.188720 0.674793
O O15 0.158994 0.196643 0.896209
#
# Coordination Sequence:
#
# PCOD9530010 Si02
#       7
#    16  16  16  16  16  16  16
#     4   9  18  33  67 101 127 181 230 278 345 410
#     4  11  24  43  64  93 130 181 226 275 339 405
#     4  11  23  43  67  92 134 176 224 283 340 406
#     4  10  18  38  67  97 129 177 228 276 345 407
#     4  11  24  42  68  98 133 176 231 283 341 408
#     4  10  19  38  63  96 139 176 228 288 338 405
#     4  12  23  44  67  99 139 177 228 285 342 409
#
# _framework density 23.751714
#
# number of rings (size 3 to 8) (size 9 to 14) (size 15 to 20)
#    0.000    1.429    4.286    1.286    2.000    2.286 
#    2.571    2.143    0.000   24.000    0.000    0.000 
#    0.000    0.000    0.000    0.000    0.000    0.000 
#
# Total GULP energy -312697.506419 kJ/mol
# GULP energy per Si atom -5583.884043 kJ/mol
# Density = 2.369765 g / cm^3
# Si number density = 23.751714 Si / 1000 Ang^3
#
#
#
# Elastic Constant Matrix: (Units=GPa)
#
#
# Indices 1 2 3 4 5 6 
#
# 1 70.2648 1.7156 52.8978 0.0000 0.0000 0.0000
# 2 1.7156 44.3211 13.2374 0.0000 0.0000 0.0000
# 3 52.8978 13.2374 179.6292 0.0000 0.0000 0.0000
# 4 0.0000 0.0000 0.0000 21.7783 0.0000 0.0000
# 5 0.0000 0.0000 0.0000 0.0000 45.9623 0.0000
# 6 0.0000 0.0000 0.0000 0.0000 0.0000 -1.3572
#
#
#
# Elastic Compliance Matrix: (Units=1/GPa)
#
#
# Indices 1 2 3 4 5 6 
#
# 1 0.018323 0.000923 -0.005464 0.000000 0.000000 0.000000
# 2 0.000923 0.023117 -0.001975 0.000000 0.000000 0.000000
# 3 -0.005464 -0.001975 0.007322 0.000000 0.000000 0.000000
# 4 0.000000 0.000000 0.000000 0.045917 0.000000 0.000000
# 5 0.000000 0.000000 0.000000 0.000000 0.021757 0.000000
# 6 0.000000 0.000000 0.000000 0.000000 0.000000 -0.736820
#
#
# Mechanical properties :
#
#
# Convention : Reuss Voigt Hill
#
# Bulk Modulus (GPa) = 27.98896 47.76852 37.87874
# Shear Modulus (GPa) = -8.39712 28.36764 9.98526
#
# Velocity S-wave (km/s) = -1.88230 3.45967 2.05259
# Velocity P-wave (km/s) = 2.66186 6.00952 4.64757
#
# Compressibility (1/GPa) = 0.03572837
#
# Stress axis : x y z
#
# Youngs Moduli (GPa) = 54.57738 43.25847 136.58308
#
# Poissons Ratio (x) = -0.03991 0.74625
# Poissons Ratio (y) = -0.05035 0.26979
# Poissons Ratio (z) = 0.29819 0.08545
#
# Static dielectric constant tensor:
#      x y z
#    x 1.990050 0.000000 0.000000 
#    y 0.000000 1.909190 0.000000 
#    z 0.000000 0.000000 1.921790 
# 
# From -- ./inp_files/34016.got.cif
#   From: 2010.05.17/outbox.cif.g08.bks.cpg/sg73_18_cif.got.tgz:34016.got - 2010.06.03 17:35:07.
