data_PCOD9530332
_publ_section_title
;
Structure prediction by ZEFSAII (Michael W. Deem and Ramdas Pophale) SiO2 
 PCOD9530332
Probable space group: I B C A 
;
_chemical_formula_sum "Si O2"
_cell_formula_units_Z 120
_cell_length_a 29.391427
_cell_length_b 14.090061
_cell_length_c 13.640843
_cell_angle_alpha 90.000000
_cell_angle_beta 90.000000
_cell_angle_gamma 90.000000
_cell_volume 5649.041380
_symmetry_space_group_name_H-M "I B C A "
_symmetry_group_IT_number 73
_symmetry_cell_setting 'orthorhombic'
loop_
_space_group_symop_operation_xyz
x,y,z
-x,1/2-y,z
x,-y,1/2-z
1/2-x,y,-z
-x,-y,-z
x,1/2+y,-z
-x,y,1/2+z
1/2+x,-y,z
1/2+x,1/2+y,1/2+z
1/2-x,-y,1/2+z
1/2+x,1/2-y,-z
-x,1/2+y,1/2-z
1/2-x,1/2-y,1/2-z
1/2+x,y,1/2-z
1/2-x,1/2+y,z
x,1/2-y,1/2+z
loop_
_atom_site_type_symbol
_atom_site_label
_atom_site_fract_x
_atom_site_fract_y
_atom_site_fract_z
Si Si1 0.945049 0.096940 0.979589
Si Si2 0.003139 0.854604 0.202807
Si Si3 0.500000 0.250000 0.390578
Si Si4 0.309220 0.713717 0.648541
Si Si5 0.817100 0.498317 0.638141
Si Si6 0.787166 0.805296 0.122335
Si Si7 0.371359 0.743424 0.493569
Si Si8 0.417413 0.424389 0.607545
O O1 0.970693 0.178657 0.043433
O O2 0.943202 0.997762 0.036365
O O3 0.895595 0.144334 0.973094
O O4 0.965766 0.087017 0.871121
O O5 0.952094 0.896700 0.195143
O O6 0.000000 0.750000 0.154796
O O7 0.020806 0.825739 0.310650
O O8 0.307968 0.607484 0.604392
O O9 0.264311 0.771195 0.619690
O O10 0.306130 0.703936 0.766021
O O11 0.356550 0.755474 0.607154
O O12 0.800427 0.500000 0.750000
O O13 0.792444 0.586116 0.587673
O O14 0.870661 0.524640 0.638343
O O15 0.822886 0.746711 0.059690
O O16 0.401851 0.829122 0.450057
#
# Coordination Sequence:
#
# PCOD9530332 Si02
#       8
#    16  16   8  16  16  16  16  16
#     4  12  22  40  61  88 122 164 201 256 308 373
#     4  10  22  39  57  88 119 155 200 257 302 362
#     4  10  22  38  62  88 118 162 200 252 316 354
#     4  10  19  39  61  87 122 161 202 247 316 368
#     4   9  19  34  60  93 111 153 210 245 294 365
#     4   9  21  37  59  89 124 155 199 261 299 367
#     4  11  21  38  59  90 120 159 204 255 308 358
#     4  11  22  37  61  87 124 158 204 256 301 375
#
# _framework density 21.242540999999999
#
# number of rings (size 3 to 8) (size 9 to 14) (size 15 to 20)
#    0.400    1.333    3.333    0.800    1.867    2.133 
#    2.400    1.333    0.000    3.200    0.000    0.000 
#    0.000    0.000    0.000    0.000    0.000    0.000 
#
# Total GULP energy -334409.193171 kJ/mol
# GULP energy per Si atom -5573.486553 kJ/mol
# Density = 2.119419 g / cm^3
# Si number density = 21.242541 Si / 1000 Ang^3
#
#
#
# Elastic Constant Matrix: (Units=GPa)
#
#
# Indices 1 2 3 4 5 6 
#
# 1 50.9063 12.7153 12.8790 0.0000 0.0000 0.0000
# 2 12.7153 61.9858 5.8511 0.0000 0.0000 0.0000
# 3 12.8790 5.8511 56.9296 0.0000 0.0000 0.0000
# 4 0.0000 0.0000 0.0000 26.8186 0.0000 0.0000
# 5 0.0000 0.0000 0.0000 0.0000 15.5908 0.0000
# 6 0.0000 0.0000 0.0000 0.0000 0.0000 24.3456
#
#
#
# Elastic Compliance Matrix: (Units=1/GPa)
#
#
# Indices 1 2 3 4 5 6 
#
# 1 0.021797 -0.004045 -0.004515 0.000000 0.000000 0.000000
# 2 -0.004045 0.017041 -0.000836 0.000000 0.000000 0.000000
# 3 -0.004515 -0.000836 0.018673 0.000000 0.000000 0.000000
# 4 0.000000 0.000000 0.000000 0.037288 0.000000 0.000000
# 5 0.000000 0.000000 0.000000 0.000000 0.064140 0.000000
# 6 0.000000 0.000000 0.000000 0.000000 0.000000 0.041075
#
#
# Mechanical properties :
#
#
# Convention : Reuss Voigt Hill
#
# Bulk Modulus (GPa) = 25.82794 25.85696 25.84245
# Shear Modulus (GPa) = 21.57838 22.57608 22.07723
#
# Velocity S-wave (km/s) = 3.19063 3.26356 3.22730
# Velocity P-wave (km/s) = 5.07529 5.13807 5.10678
#
# Compressibility (1/GPa) = 0.03871777
#
# Stress axis : x y z
#
# Youngs Moduli (GPa) = 45.87870 58.68056 53.55332
#
# Poissons Ratio (x) = 0.23736 0.24181
# Poissons Ratio (y) = 0.18558 0.04479
# Poissons Ratio (z) = 0.20715 0.04908
#
# Static dielectric constant tensor:
#      x y z
#    x 1.808800 0.000000 0.000000 
#    y 0.000000 1.798730 0.000000 
#    z 0.000000 0.000000 1.829670 
# 
# From -- ./inp_files/20163.got.cif
#   From: 2010.05.17/outbox.cif.g08.bks.cpg/sg73_11_cif.got.tgz:20163.got - 2010.06.03 17:35:07.
