data_PCOD9530649
_publ_section_title
;
Structure prediction by ZEFSAII (Michael W. Deem and Ramdas Pophale) SiO2 
 PCOD9530649
Probable space group: I B C A 
;
_chemical_formula_sum "Si O2"
_cell_formula_units_Z 72
_cell_length_a 28.092376
_cell_length_b 13.353527
_cell_length_c 8.591824
_cell_angle_alpha 90.000000
_cell_angle_beta 90.000000
_cell_angle_gamma 90.000000
_cell_volume 3223.070710
_symmetry_space_group_name_H-M "I B C A "
_symmetry_group_IT_number 73
_symmetry_cell_setting 'orthorhombic'
loop_
_space_group_symop_operation_xyz
x,y,z
-x,1/2-y,z
x,-y,1/2-z
1/2-x,y,-z
-x,-y,-z
x,1/2+y,-z
-x,y,1/2+z
1/2+x,-y,z
1/2+x,1/2+y,1/2+z
1/2-x,-y,1/2+z
1/2+x,1/2-y,-z
-x,1/2+y,1/2-z
1/2-x,1/2-y,1/2-z
1/2+x,y,1/2-z
1/2-x,1/2+y,z
x,1/2-y,1/2+z
loop_
_atom_site_type_symbol
_atom_site_label
_atom_site_fract_x
_atom_site_fract_y
_atom_site_fract_z
Si Si1 0.155110 0.166918 0.158523
Si Si2 0.714932 0.500000 0.250000
Si Si3 0.250000 0.344498 0.500000
Si Si4 0.069101 0.176055 0.599203
Si Si5 0.500000 0.250000 0.161899
Si Si6 0.647843 0.554783 0.981209
O O1 0.202041 0.208194 0.065460
O O2 0.110269 0.241360 0.138429
O O3 0.158902 0.132071 0.339928
O O4 0.147087 0.059033 0.078209
O O5 0.741522 0.582064 0.352722
O O6 0.684890 0.441115 0.378483
O O7 0.097546 0.077346 0.559493
O O8 0.028792 0.173245 0.729967
O O9 0.040459 0.204479 0.445296
#
# Coordination Sequence:
#
# PCOD9530649 Si02
#       6
#    16   8   8  16   8  16
#     4  10  22  41  63  92 132 164 209 253 310 371
#     4  10  20  36  62  92 126 166 206 248 306 366
#     4  10  20  36  60  94 128 168 204 252 302 370
#     4  11  22  45  64  93 124 167 204 267 312 372
#     4  10  24  40  70  88 124 162 212 262 322 360
#     4  10  22  39  66  90 127 168 202 259 307 368
#
# _framework density 22.338947000000001
#
# number of rings (size 3 to 8) (size 9 to 14) (size 15 to 20)
#    0.000    1.778    2.222    2.667    6.222    0.000 
#    0.000   15.556    0.000    0.000    0.000    0.000 
#    0.000    0.000    0.000    0.000    0.000    0.000 
#
# Total GULP energy -200903.221184 kJ/mol
# GULP energy per Si atom -5580.645033 kJ/mol
# Density = 2.228810 g / cm^3
# Si number density = 22.338947 Si / 1000 Ang^3
#
#
#
# Elastic Constant Matrix: (Units=GPa)
#
#
# Indices 1 2 3 4 5 6 
#
# 1 121.9128 31.3358 47.8631 0.0000 0.0000 0.0000
# 2 31.3358 51.0654 35.5136 0.0000 0.0000 0.0000
# 3 47.8631 35.5136 135.1436 0.0000 0.0000 0.0000
# 4 0.0000 0.0000 0.0000 -6.4853 0.0000 0.0000
# 5 0.0000 0.0000 0.0000 0.0000 1100.7655 0.0000
# 6 0.0000 0.0000 0.0000 0.0000 0.0000 16.6226
#
#
#
# Elastic Compliance Matrix: (Units=1/GPa)
#
#
# Indices 1 2 3 4 5 6 
#
# 1 0.010359 -0.004656 -0.002445 0.000000 0.000000 0.000000
# 2 -0.004656 0.026055 -0.005198 0.000000 0.000000 0.000000
# 3 -0.002445 -0.005198 0.009631 0.000000 0.000000 0.000000
# 4 0.000000 0.000000 0.000000 -0.154196 0.000000 0.000000
# 5 0.000000 0.000000 0.000000 0.000000 0.000908 0.000000
# 6 0.000000 0.000000 0.000000 0.000000 0.000000 0.060159
#
#
# Mechanical properties :
#
#
# Convention : Reuss Voigt Hill
#
# Bulk Modulus (GPa) = 46.62662 59.72742 53.17702
# Shear Modulus (GPa) = -326.06040 235.07452 -45.49294
#
# Velocity S-wave (km/s) = -12.09452 10.26934 -4.51764
# Velocity P-wave (km/s) = 13.19541 12.93860 1.83188
#
# Compressibility (1/GPa) = 0.02144698
#
# Stress axis : x y z
#
# Youngs Moduli (GPa) = 96.52999 38.38061 103.82655
#
# Poissons Ratio (x) = 0.17871 0.25389
# Poissons Ratio (y) = 0.44948 0.53966
# Poissons Ratio (z) = 0.23605 0.19949
#
# Static dielectric constant tensor:
#      x y z
#    x 1.995940 0.000000 0.000000 
#    y 0.000000 1.801850 0.000000 
#    z 0.000000 0.000000 1.863300 
# 
# From -- ./inp_files/4843.got.cif
#   From: 2010.05.17/outbox.cif.g08.bks.cpg/sg73_3_cif.got.tgz:4843.got - 2010.06.03 17:35:07.
