data_PCOD9530640
_publ_section_title
;
Structure prediction by ZEFSAII (Michael W. Deem and Ramdas Pophale) SiO2 
 PCOD9530640
Probable space group: I B C A 
;
_chemical_formula_sum "Si O2"
_cell_formula_units_Z 80
_cell_length_a 10.897335
_cell_length_b 24.120942
_cell_length_c 14.820937
_cell_angle_alpha 90.000000
_cell_angle_beta 90.000000
_cell_angle_gamma 90.000000
_cell_volume 3895.742359
_symmetry_space_group_name_H-M "I B C A "
_symmetry_group_IT_number 73
_symmetry_cell_setting 'orthorhombic'
loop_
_space_group_symop_operation_xyz
x,y,z
-x,1/2-y,z
x,-y,1/2-z
1/2-x,y,-z
-x,-y,-z
x,1/2+y,-z
-x,y,1/2+z
1/2+x,-y,z
1/2+x,1/2+y,1/2+z
1/2-x,-y,1/2+z
1/2+x,1/2-y,-z
-x,1/2+y,1/2-z
1/2-x,1/2-y,1/2-z
1/2+x,y,1/2-z
1/2-x,1/2+y,z
x,1/2-y,1/2+z
loop_
_atom_site_type_symbol
_atom_site_label
_atom_site_fract_x
_atom_site_fract_y
_atom_site_fract_z
Si Si1 0.577542 0.603176 0.847637
Si Si2 0.720977 0.827454 0.212681
Si Si3 0.697445 0.425976 0.098913
Si Si4 0.250000 0.145179 0.500000
Si Si5 0.195549 0.500000 0.750000
Si Si6 0.873159 0.217599 0.143334
O O1 0.611359 0.655948 0.782435
O O2 0.443388 0.594199 0.890206
O O3 0.613040 0.549504 0.789088
O O4 0.674444 0.609565 0.928767
O O5 0.725359 0.874412 0.138016
O O6 0.841413 0.825388 0.276434
O O7 0.718152 0.768692 0.162755
O O8 0.722442 0.475721 0.168852
O O9 0.750000 0.439159 0.000000
O O10 0.155391 0.185046 0.552678
O O11 0.000000 0.250000 0.144705
#
# Coordination Sequence:
#
# PCOD9530640 Si02
#       6
#    16  16  16   8   8  16
#     4  10  22  44  61  90 131 158 207 264 317 382
#     4   9  21  39  59  90 126 166 207 245 317 369
#     4  11  24  40  68  97 119 167 214 262 312 386
#     4  10  24  36  60  94 126 168 202 264 316 360
#     4  10  24  46  64  92 124 166 208 268 338 368
#     4  10  20  36  60  87 124 169 201 251 307 363
#
# _framework density 20.535239000000001
#
# number of rings (size 3 to 8) (size 9 to 14) (size 15 to 20)
#    0.000    2.000    0.000    1.800    5.600    0.800 
#    7.200    2.000    0.000    0.000    0.000    0.000 
#    0.000    0.000    0.000    0.000    0.000    0.000 
#
# Total GULP energy -222936.974300 kJ/mol
# GULP energy per Si atom -5573.424357 kJ/mol
# Density = 2.048850 g / cm^3
# Si number density = 20.535239 Si / 1000 Ang^3
#
#
#
# Elastic Constant Matrix: (Units=GPa)
#
#
# Indices 1 2 3 4 5 6 
#
# 1 101.3218 -2.5854 39.6128 0.0000 0.0000 0.0001
# 2 -2.5854 63.0930 38.7415 0.0001 0.0000 0.0003
# 3 39.6128 38.7415 130.4847 0.0001 0.0000 0.0001
# 4 0.0000 0.0001 0.0001 22.5158 0.0000 0.0003
# 5 0.0000 0.0000 0.0000 0.0000 20.8574 0.0000
# 6 0.0001 0.0003 0.0001 0.0003 0.0000 -46.4412
#
#
#
# Elastic Compliance Matrix: (Units=1/GPa)
#
#
# Indices 1 2 3 4 5 6 
#
# 1 0.011722 0.003260 -0.004527 0.000000 0.000000 0.000000
# 2 0.003260 0.020290 -0.007014 0.000000 0.000000 0.000000
# 3 -0.004527 -0.007014 0.011120 0.000000 0.000000 0.000000
# 4 0.000000 0.000000 0.000000 0.044413 0.000000 0.000000
# 5 0.000000 0.000000 0.000000 0.000000 0.047945 0.000000
# 6 0.000000 0.000000 0.000000 0.000000 0.000000 -0.021533
#
#
# Mechanical properties :
#
#
# Convention : Reuss Voigt Hill
#
# Bulk Modulus (GPa) = 37.63408 49.60413 43.61911
# Shear Modulus (GPa) = 35.87414 13.99513 24.93463
#
# Velocity S-wave (km/s) = 4.18419 2.61342 3.48837
# Velocity P-wave (km/s) = 6.45830 5.77189 6.12472
#
# Compressibility (1/GPa) = 0.02657166
#
# Stress axis : x y z
#
# Youngs Moduli (GPa) = 85.30641 49.28554 89.92520
#
# Poissons Ratio (x) = -0.16066 0.40705
# Poissons Ratio (y) = -0.27809 0.63072
# Poissons Ratio (z) = 0.38615 0.34568
#
# Static dielectric constant tensor:
#      x y z
#    x 1.789780 0.000000 0.000000 
#    y 0.000000 1.748600 0.000000 
#    z 0.000000 0.000000 1.727970 
# 
# From -- ./inp_files/10860.got.cif
#   From: 2010.05.17/outbox.cif.g08.bks.cpg/sg73_6_cif.got.tgz:10860.got - 2010.06.03 17:35:07.
