data_PCOD9530519
_publ_section_title
;
Structure prediction by ZEFSAII (Michael W. Deem and Ramdas Pophale) SiO2 
 PCOD9530519
Probable space group: I B C A 
;
_chemical_formula_sum "Si O2"
_cell_formula_units_Z 64
_cell_length_a 27.724526
_cell_length_b 5.203161
_cell_length_c 23.501883
_cell_angle_alpha 90.000000
_cell_angle_beta 90.000000
_cell_angle_gamma 90.000000
_cell_volume 3390.268185
_symmetry_space_group_name_H-M "I B C A "
_symmetry_group_IT_number 73
_symmetry_cell_setting 'orthorhombic'
loop_
_space_group_symop_operation_xyz
x,y,z
-x,1/2-y,z
x,-y,1/2-z
1/2-x,y,-z
-x,-y,-z
x,1/2+y,-z
-x,y,1/2+z
1/2+x,-y,z
1/2+x,1/2+y,1/2+z
1/2-x,-y,1/2+z
1/2+x,1/2-y,-z
-x,1/2+y,1/2-z
1/2-x,1/2-y,1/2-z
1/2+x,y,1/2-z
1/2-x,1/2+y,z
x,1/2-y,1/2+z
loop_
_atom_site_type_symbol
_atom_site_label
_atom_site_fract_x
_atom_site_fract_y
_atom_site_fract_z
Si Si1 0.349378 0.984977 0.141867
Si Si2 0.282060 0.000000 0.250000
Si Si3 0.500000 0.750000 0.286039
Si Si4 0.194571 0.831128 0.976444
Si Si5 0.098973 0.985876 0.181173
O O1 0.316648 0.930232 0.086492
O O2 0.388924 0.760628 0.153126
O O3 0.314514 0.974909 0.195179
O O4 0.371765 0.268244 0.147151
O O5 0.250000 0.250000 0.250000
O O6 0.519411 0.500000 0.250000
O O7 0.455992 0.616667 0.318968
O O8 0.250000 0.800263 0.000000
O O9 0.172661 0.550113 0.983510
O O10 0.111120 0.000000 0.250000
#
# Coordination Sequence:
#
# PCOD9530519 Si02
#       5
#    16   8   8  16  16
#     4  12  23  39  60  85 122 163 204 254 300 367
#     4  12  26  36  56  84 122 166 202 240 318 366
#     4  10  20  34  60  92 132 166 190 234 298 390
#     4  10  23  40  58  79 108 155 213 264 295 336
#     4  11  20  38  58  94 127 158 193 238 308 381
#
# _framework density 18.877562000000001
#
# number of rings (size 3 to 8) (size 9 to 14) (size 15 to 20)
#    0.000    1.000    2.500    6.000    7.000    0.000 
#    0.000    0.000    0.000    0.000    0.000   17.500 
#    0.000    0.000    0.000    0.000    0.000    0.000 
#
# Total GULP energy -178261.098837 kJ/mol
# GULP energy per Si atom -5570.659339 kJ/mol
# Density = 1.883460 g / cm^3
# Si number density = 18.877562 Si / 1000 Ang^3
#
#
#
# Elastic Constant Matrix: (Units=GPa)
#
#
# Indices 1 2 3 4 5 6 
#
# 1 75.8521 20.2014 28.4491 0.0000 0.0000 0.0000
# 2 20.2014 131.9372 -2.2555 0.0000 0.0000 0.0000
# 3 28.4491 -2.2555 81.5999 0.0000 0.0000 0.0000
# 4 0.0000 0.0000 0.0000 30.8857 0.0000 0.0000
# 5 0.0000 0.0000 0.0000 0.0000 19.4809 0.0000
# 6 0.0000 0.0000 0.0000 0.0000 0.0000 30.5873
#
#
#
# Elastic Compliance Matrix: (Units=1/GPa)
#
#
# Indices 1 2 3 4 5 6 
#
# 1 0.015976 -0.002543 -0.005640 0.000000 0.000000 0.000000
# 2 -0.002543 0.007988 0.001107 0.000000 0.000000 0.000000
# 3 -0.005640 0.001107 0.014252 0.000000 0.000000 0.000000
# 4 0.000000 0.000000 0.000000 0.032377 0.000000 0.000000
# 5 0.000000 0.000000 0.000000 0.000000 0.051332 0.000000
# 6 0.000000 0.000000 0.000000 0.000000 0.000000 0.032693
#
#
# Mechanical properties :
#
#
# Convention : Reuss Voigt Hill
#
# Bulk Modulus (GPa) = 41.55496 42.46437 42.00966
# Shear Modulus (GPa) = 28.28191 32.39039 30.33615
#
# Velocity S-wave (km/s) = 3.87483 4.14673 4.01308
# Velocity P-wave (km/s) = 6.48689 6.74319 6.61628
#
# Compressibility (1/GPa) = 0.02406452
#
# Stress axis : x y z
#
# Youngs Moduli (GPa) = 62.59339 125.19412 70.16595
#
# Poissons Ratio (x) = 0.31832 0.39575
# Poissons Ratio (y) = 0.15915 -0.07769
# Poissons Ratio (z) = 0.35304 -0.13862
#
# Static dielectric constant tensor:
#      x y z
#    x 1.616470 0.000000 0.000000 
#    y 0.000000 1.815540 0.000000 
#    z 0.000000 0.000000 1.678270 
# 
# From -- ./inp_files/1550.got.cif
#   From: 2010.05.17/outbox.cif.g08.bks.cpg/sg73_1_cif.got.tgz:1550.got - 2010.06.03 17:35:07.
