data_PCOD9530146
_publ_section_title
;
Structure prediction by ZEFSAII (Michael W. Deem and Ramdas Pophale) SiO2 
 PCOD9530146
Probable space group: I B C A 
;
_chemical_formula_sum "Si O2"
_cell_formula_units_Z 120
_cell_length_a 32.256230
_cell_length_b 13.895432
_cell_length_c 14.692379
_cell_angle_alpha 90.000000
_cell_angle_beta 90.000000
_cell_angle_gamma 90.000000
_cell_volume 6585.333642
_symmetry_space_group_name_H-M "I B C A "
_symmetry_group_IT_number 73
_symmetry_cell_setting 'orthorhombic'
loop_
_space_group_symop_operation_xyz
x,y,z
-x,1/2-y,z
x,-y,1/2-z
1/2-x,y,-z
-x,-y,-z
x,1/2+y,-z
-x,y,1/2+z
1/2+x,-y,z
1/2+x,1/2+y,1/2+z
1/2-x,-y,1/2+z
1/2+x,1/2-y,-z
-x,1/2+y,1/2-z
1/2-x,1/2-y,1/2-z
1/2+x,y,1/2-z
1/2-x,1/2+y,z
x,1/2-y,1/2+z
loop_
_atom_site_type_symbol
_atom_site_label
_atom_site_fract_x
_atom_site_fract_y
_atom_site_fract_z
Si Si1 0.705417 0.610025 0.960317
Si Si2 0.312810 0.615739 0.256503
Si Si3 0.543924 0.000000 0.250000
Si Si4 0.596114 0.312142 0.789449
Si Si5 0.711189 0.118530 0.438555
Si Si6 0.997887 0.584809 0.074171
Si Si7 0.063931 0.742647 0.103803
Si Si8 0.363632 0.758000 0.030617
O O1 0.703033 0.643855 0.855686
O O2 0.704361 0.494594 0.954714
O O3 0.750000 0.637223 0.000000
O O4 0.666809 0.650287 0.018852
O O5 0.318197 0.500000 0.250000
O O6 0.357649 0.663134 0.244303
O O7 0.284157 0.639492 0.169386
O O8 0.572295 0.084975 0.293638
O O9 0.515237 0.040045 0.170285
O O10 0.570461 0.255498 0.712081
O O11 0.605354 0.254882 0.883021
O O12 0.750000 0.147488 0.500000
O O13 0.669237 0.171842 0.465363
O O14 0.963038 0.668528 0.062979
O O15 0.040469 0.644282 0.080588
O O16 0.000000 0.500000 0.000000
O O17 0.108214 0.749579 0.057520
#
# Coordination Sequence:
#
# PCOD9530146 Si02
#       8
#    16  16   8  16  16  16  16  16
#     4  10  20  36  56  84 117 151 194 245 288 334
#     4   9  16  32  58  79 106 149 194 234 279 333
#     4  10  20  36  62  82 112 144 198 236 278 354
#     4  10  19  34  56  85 108 150 191 233 286 337
#     4   9  20  36  55  84 114 151 198 241 283 339
#     4  10  22  39  60  86 113 152 186 235 293 346
#     4  10  22  38  56  85 121 144 189 240 286 349
#     4  11  21  35  59  85 114 151 194 236 288 351
#
# _framework density 18.222311000000001
#
# number of rings (size 3 to 8) (size 9 to 14) (size 15 to 20)
#    0.000    2.133    2.000    1.200    0.000    2.133 
#    2.400    4.667    0.000    0.000    0.000    0.000 
#    0.000    0.000    0.000    0.000    0.000    0.000 
#
# Total GULP energy -334304.643867 kJ/mol
# GULP energy per Si atom -5571.744064 kJ/mol
# Density = 1.818084 g / cm^3
# Si number density = 18.222311 Si / 1000 Ang^3
#
#
#
# Elastic Constant Matrix: (Units=GPa)
#
#
# Indices 1 2 3 4 5 6 
#
# 1 59.7308 25.2434 23.9409 0.0000 0.0000 0.0000
# 2 25.2434 78.3184 39.7894 0.0000 0.0000 0.0000
# 3 23.9409 39.7894 72.9079 0.0000 0.0000 0.0000
# 4 0.0000 0.0000 0.0000 25.2148 0.0000 0.0000
# 5 0.0000 0.0000 0.0000 0.0000 34.0819 0.0000
# 6 0.0000 0.0000 0.0000 0.0000 0.0000 17.0416
#
#
#
# Elastic Compliance Matrix: (Units=1/GPa)
#
#
# Indices 1 2 3 4 5 6 
#
# 1 0.020305 -0.004368 -0.004283 0.000000 0.000000 0.000000
# 2 -0.004368 0.018607 -0.008720 0.000000 0.000000 0.000000
# 3 -0.004283 -0.008720 0.019881 0.000000 0.000000 0.000000
# 4 0.000000 0.000000 0.000000 0.039659 0.000000 0.000000
# 5 0.000000 0.000000 0.000000 0.000000 0.029341 0.000000
# 6 0.000000 0.000000 0.000000 0.000000 0.000000 0.058680
#
#
# Mechanical properties :
#
#
# Convention : Reuss Voigt Hill
#
# Bulk Modulus (GPa) = 41.58177 43.21161 42.39669
# Shear Modulus (GPa) = 21.81183 23.39990 22.60586
#
# Velocity S-wave (km/s) = 3.46350 3.58737 3.52598
# Velocity P-wave (km/s) = 6.23403 6.39719 6.31614
#
# Compressibility (1/GPa) = 0.02404900
#
# Stress axis : x y z
#
# Youngs Moduli (GPa) = 49.24937 53.74437 50.29813
#
# Poissons Ratio (x) = 0.23478 0.21545
# Poissons Ratio (y) = 0.21514 0.43860
# Poissons Ratio (z) = 0.21096 0.46865
#
# Static dielectric constant tensor:
#      x y z
#    x 1.595390 0.000000 0.000000 
#    y 0.000000 1.641760 0.000000 
#    z 0.000000 0.000000 1.652310 
# 
# From -- ./inp_files/20152.got.cif
#   From: 2010.05.17/outbox.cif.g08.bks.cpg/sg73_11_cif.got.tgz:20152.got - 2010.06.03 17:35:07.
