data_PCOD9530063
_publ_section_title
;
Structure prediction by ZEFSAII (Michael W. Deem and Ramdas Pophale) SiO2 
 PCOD9530063
Probable space group: I B C A 
;
_chemical_formula_sum "Si O2"
_cell_formula_units_Z 72
_cell_length_a 5.491179
_cell_length_b 18.832628
_cell_length_c 27.766542
_cell_angle_alpha 90.000000
_cell_angle_beta 90.000000
_cell_angle_gamma 90.000000
_cell_volume 2871.430609
_symmetry_space_group_name_H-M "I B C A "
_symmetry_group_IT_number 73
_symmetry_cell_setting 'orthorhombic'
loop_
_space_group_symop_operation_xyz
x,y,z
-x,1/2-y,z
x,-y,1/2-z
1/2-x,y,-z
-x,-y,-z
x,1/2+y,-z
-x,y,1/2+z
1/2+x,-y,z
1/2+x,1/2+y,1/2+z
1/2-x,-y,1/2+z
1/2+x,1/2-y,-z
-x,1/2+y,1/2-z
1/2-x,1/2-y,1/2-z
1/2+x,y,1/2-z
1/2-x,1/2+y,z
x,1/2-y,1/2+z
loop_
_atom_site_type_symbol
_atom_site_label
_atom_site_fract_x
_atom_site_fract_y
_atom_site_fract_z
Si Si1 0.433542 0.121056 0.592451
Si Si2 0.250000 0.293604 0.000000
Si Si3 0.500000 0.250000 0.837043
Si Si4 0.500000 0.250000 0.168458
Si Si5 0.936362 0.596766 0.377600
Si Si6 0.720837 0.080114 0.268864
O O1 0.337982 0.158564 0.544507
O O2 0.479524 0.181604 0.633106
O O3 0.703945 0.087927 0.587693
O O4 0.209046 0.071128 0.609425
O O5 0.500000 0.250000 0.987658
O O6 0.742988 0.252464 0.806443
O O7 0.485652 0.181375 0.870924
O O8 0.851451 0.574488 0.324491
O O9 0.987216 0.112867 0.258696
O O10 0.751602 0.000000 0.250000
#
# Coordination Sequence:
#
# PCOD9530063 Si02
#       6
#    16   8   8   8  16  16
#     4  10  19  30  47  73 110 153 196 229 275 320
#     4  12  22  30  48  78 118 158 212 246 258 306
#     4   8  16  26  45  67  96 140 180 210 252 329
#     4   8  14  26  39  61  94 136 186 220 238 301
#     4  10  19  34  52  75 111 151 188 233 288 349
#     4  10  21  38  60  84 109 133 178 251 309 352
#
# _framework density 25.074608999999999
#
# number of rings (size 3 to 8) (size 9 to 14) (size 15 to 20)
#    0.000    2.222    1.111    2.667    6.222    0.000 
#    0.000    1.111    0.000    0.000    0.000    0.000 
#    0.000   71.111    0.000    0.000    0.000    0.000 
#
# Total GULP energy -200990.257317 kJ/mol
# GULP energy per Si atom -5583.062703 kJ/mol
# Density = 2.501754 g / cm^3
# Si number density = 25.074609 Si / 1000 Ang^3
#
#
#
# Elastic Constant Matrix: (Units=GPa)
#
#
# Indices 1 2 3 4 5 6 
#
# 1 311.8465 4.1934 32.0192 0.0000 0.0000 0.0000
# 2 4.1934 79.6914 12.8867 0.0000 0.0000 0.0000
# 3 32.0192 12.8867 110.4793 0.0000 0.0000 0.0000
# 4 0.0000 0.0000 0.0000 -2.0565 0.0000 0.0000
# 5 0.0000 0.0000 0.0000 0.0000 38.0834 0.0000
# 6 0.0000 0.0000 0.0000 0.0000 0.0000 -7.7642
#
#
#
# Elastic Compliance Matrix: (Units=1/GPa)
#
#
# Indices 1 2 3 4 5 6 
#
# 1 0.003305 -0.000019 -0.000956 0.000000 0.000000 0.000000
# 2 -0.000019 0.012790 -0.001486 0.000000 0.000000 0.000000
# 3 -0.000956 -0.001486 0.009502 0.000000 0.000000 0.000000
# 4 0.000000 0.000000 0.000000 -0.486261 0.000000 0.000000
# 5 0.000000 0.000000 0.000000 0.000000 0.026258 0.000000
# 6 0.000000 0.000000 0.000000 0.000000 0.000000 -0.128797
#
#
# Mechanical properties :
#
#
# Convention : Reuss Voigt Hill
#
# Bulk Modulus (GPa) = 48.36951 66.69063 57.53007
# Shear Modulus (GPa) = -9.06800 35.84706 13.38953
#
# Velocity S-wave (km/s) = -1.90375 3.78513 2.31332
# Velocity P-wave (km/s) = 3.80786 6.76443 5.48896
#
# Compressibility (1/GPa) = 0.02067418
#
# Stress axis : x y z
#
# Youngs Moduli (GPa) = 302.56392 78.18756 105.24334
#
# Poissons Ratio (x) = 0.00152 0.10057
# Poissons Ratio (y) = 0.00586 0.15641
# Poissons Ratio (z) = 0.28914 0.11620
#
# Static dielectric constant tensor:
#      x y z
#    x 2.175750 0.000000 0.000000 
#    y 0.000000 2.233720 0.000000 
#    z 0.000000 0.000000 1.896920 
# 
# From -- ./inp_files/28017.got.cif
#   From: 2010.05.17/outbox.cif.g08.bks.cpg/sg73_15_cif.got.tgz:28017.got - 2010.06.03 17:35:07.
