data_PCOD9530016
_publ_section_title
;
Structure prediction by ZEFSAII (Michael W. Deem and Ramdas Pophale) SiO2 
 PCOD9530016
Probable space group: I B C A 
;
_chemical_formula_sum "Si O2"
_cell_formula_units_Z 96
_cell_length_a 18.257549
_cell_length_b 15.984960
_cell_length_c 15.187631
_cell_angle_alpha 90.000000
_cell_angle_beta 90.000000
_cell_angle_gamma 90.000000
_cell_volume 4432.452250
_symmetry_space_group_name_H-M "I B C A "
_symmetry_group_IT_number 73
_symmetry_cell_setting 'orthorhombic'
loop_
_space_group_symop_operation_xyz
x,y,z
-x,1/2-y,z
x,-y,1/2-z
1/2-x,y,-z
-x,-y,-z
x,1/2+y,-z
-x,y,1/2+z
1/2+x,-y,z
1/2+x,1/2+y,1/2+z
1/2-x,-y,1/2+z
1/2+x,1/2-y,-z
-x,1/2+y,1/2-z
1/2-x,1/2-y,1/2-z
1/2+x,y,1/2-z
1/2-x,1/2+y,z
x,1/2-y,1/2+z
loop_
_atom_site_type_symbol
_atom_site_label
_atom_site_fract_x
_atom_site_fract_y
_atom_site_fract_z
Si Si1 0.199211 0.359757 0.685825
Si Si2 0.153104 0.903377 0.775952
Si Si3 0.529922 0.399567 0.604508
Si Si4 0.889449 0.511149 0.948482
Si Si5 0.102879 0.000000 0.250000
Si Si6 0.250000 0.600610 0.000000
Si Si7 0.423253 0.752307 0.780065
O O1 0.265755 0.369106 0.754860
O O2 0.155463 0.447346 0.686734
O O3 0.226407 0.346493 0.586328
O O4 0.141226 0.295005 0.724917
O O5 0.124554 0.083428 0.625087
O O6 0.102096 0.843769 0.716487
O O7 0.153842 0.000000 0.750000
O O8 0.584904 0.437400 0.533070
O O9 0.452719 0.441701 0.573934
O O10 0.549974 0.440840 0.696995
O O11 0.556042 0.304482 0.631028
O O12 0.815880 0.458714 0.966600
O O13 0.500000 0.750000 0.728662
#
# Coordination Sequence:
#
# PCOD9530016 Si02
#       7
#    16  16  16  16   8   8  16
#     4  11  23  43  70 103 146 189 245 301 375 440
#     4  12  24  45  73 103 144 198 250 299 377 453
#     4  10  24  43  71 108 147 189 252 303 373 447
#     4  11  24  42  75 112 147 194 247 307 376 455
#     4  10  18  38  72  98 134 194 236 300 358 448
#     4  12  22  42  74 112 152 186 246 310 368 452
#     4  11  27  46  71 106 149 194 251 312 371 448
#
# _framework density 21.658439000000001
#
# number of rings (size 3 to 8) (size 9 to 14) (size 15 to 20)
#    0.000    1.000    4.167    1.500    8.167    0.000 
#    3.000    0.833    0.000    0.000    0.000    0.000 
#    0.000    0.000    0.000    0.000    0.000    0.000 
#
# Total GULP energy -267387.905927 kJ/mol
# GULP energy per Si atom -5570.581373 kJ/mol
# Density = 2.160914 g / cm^3
# Si number density = 21.658439 Si / 1000 Ang^3
#
#
#
# Elastic Constant Matrix: (Units=GPa)
#
#
# Indices 1 2 3 4 5 6 
#
# 1 141.6646 58.2942 31.4344 0.0000 0.0000 0.0000
# 2 58.2942 88.5528 39.9335 0.0000 0.0000 0.0000
# 3 31.4344 39.9335 102.2597 0.0000 0.0000 0.0000
# 4 0.0000 0.0000 0.0000 -27.3809 0.0000 0.0000
# 5 0.0000 0.0000 0.0000 0.0000 18.1435 0.0000
# 6 0.0000 0.0000 0.0000 0.0000 0.0000 56.7177
#
#
#
# Elastic Compliance Matrix: (Units=1/GPa)
#
#
# Indices 1 2 3 4 5 6 
#
# 1 0.009711 -0.006125 -0.000593 0.000000 0.000000 0.000000
# 2 -0.006125 0.017570 -0.004978 0.000000 0.000000 0.000000
# 3 -0.000593 -0.004978 0.011905 0.000000 0.000000 0.000000
# 4 0.000000 0.000000 0.000000 -0.036522 0.000000 0.000000
# 5 0.000000 0.000000 0.000000 0.000000 0.055116 0.000000
# 6 0.000000 0.000000 0.000000 0.000000 0.000000 0.017631
#
#
# Mechanical properties :
#
#
# Convention : Reuss Voigt Hill
#
# Bulk Modulus (GPa) = 63.31970 65.75571 64.53770
# Shear Modulus (GPa) = 48.04452 23.01705 35.53079
#
# Velocity S-wave (km/s) = 4.71497 3.26349 4.05471
# Velocity P-wave (km/s) = 7.67726 6.68032 7.19608
#
# Compressibility (1/GPa) = 0.01579287
#
# Stress axis : x y z
#
# Youngs Moduli (GPa) = 102.97521 56.91517 83.99502
#
# Poissons Ratio (x) = 0.34862 0.04982
# Poissons Ratio (y) = 0.63075 0.41816
# Poissons Ratio (z) = 0.06108 0.28334
#
# Static dielectric constant tensor:
#      x y z
#    x 1.846280 0.000000 0.000000 
#    y 0.000000 1.890310 0.000000 
#    z 0.000000 0.000000 1.913100 
# 
# From -- ./inp_files/22581.got.cif
#   From: 2010.05.17/outbox.cif.g08.bks.cpg/sg73_12_cif.got.tgz:22581.got - 2010.06.03 17:35:07.
