data_PCOD9530587
_publ_section_title
;
Structure prediction by ZEFSAII (Michael W. Deem and Ramdas Pophale) SiO2 
 PCOD9530587
Probable space group: I B C A 
;
_chemical_formula_sum "Si O2"
_cell_formula_units_Z 88
_cell_length_a 9.315265
_cell_length_b 20.281450
_cell_length_c 22.990632
_cell_angle_alpha 90.000000
_cell_angle_beta 90.000000
_cell_angle_gamma 90.000000
_cell_volume 4343.553002
_symmetry_space_group_name_H-M "I B C A "
_symmetry_group_IT_number 73
_symmetry_cell_setting 'orthorhombic'
loop_
_space_group_symop_operation_xyz
x,y,z
-x,1/2-y,z
x,-y,1/2-z
1/2-x,y,-z
-x,-y,-z
x,1/2+y,-z
-x,y,1/2+z
1/2+x,-y,z
1/2+x,1/2+y,1/2+z
1/2-x,-y,1/2+z
1/2+x,1/2-y,-z
-x,1/2+y,1/2-z
1/2-x,1/2-y,1/2-z
1/2+x,y,1/2-z
1/2-x,1/2+y,z
x,1/2-y,1/2+z
loop_
_atom_site_type_symbol
_atom_site_label
_atom_site_fract_x
_atom_site_fract_y
_atom_site_fract_z
Si Si1 0.240767 0.362575 0.384500
Si Si2 0.626459 0.298107 0.771169
Si Si3 0.154626 0.977254 0.333734
Si Si4 0.589444 0.129208 0.150281
Si Si5 0.168523 0.233031 0.444529
Si Si6 0.596875 0.500000 0.250000
O O1 0.314523 0.337332 0.325504
O O2 0.321396 0.432534 0.390603
O O3 0.247834 0.301821 0.428733
O O4 0.071340 0.373725 0.375071
O O5 0.500000 0.250000 0.789661
O O6 0.750000 0.250000 0.750000
O O7 0.583059 0.342172 0.715650
O O8 0.152420 0.055437 0.347261
O O9 0.291193 0.962854 0.291700
O O10 0.011219 0.964877 0.295382
O O11 0.671083 0.182296 0.109791
O O12 0.250000 0.204212 0.500000
O O13 0.000000 0.250000 0.455030
#
# Coordination Sequence:
#
# PCOD9530587 Si02
#       6
#    16  16  16  16  16   8
#     4  11  23  41  61  92 130 168 206 256 313 377
#     4  12  21  36  59  93 128 164 206 248 309 380
#     4  11  22  37  58  89 132 173 209 240 310 369
#     4  11  22  41  62  88 131 170 202 258 314 377
#     4  10  23  47  69  89 117 158 214 274 322 365
#     4  10  20  36  54  88 132 174 198 240 288 378
#
# _framework density 20.259913000000001
#
# number of rings (size 3 to 8) (size 9 to 14) (size 15 to 20)
#    0.000    1.091    5.455    2.727    0.000    2.182 
#    3.273    0.909    0.000    4.364    0.000    0.000 
#    0.000    0.000    0.000    0.000    0.000    0.000 
#
# Total GULP energy -245436.784929 kJ/mol
# GULP energy per Si atom -5578.108748 kJ/mol
# Density = 2.021380 g / cm^3
# Si number density = 20.259913 Si / 1000 Ang^3
#
#
#
# Elastic Constant Matrix: (Units=GPa)
#
#
# Indices 1 2 3 4 5 6 
#
# 1 82.1614 21.2838 8.4905 0.0000 0.0000 0.0000
# 2 21.2838 111.6572 18.7877 0.0000 0.0000 0.0000
# 3 8.4905 18.7877 62.6725 0.0000 0.0000 0.0000
# 4 0.0000 0.0000 0.0000 16.0823 0.0000 0.0000
# 5 0.0000 0.0000 0.0000 0.0000 21.4797 0.0000
# 6 0.0000 0.0000 0.0000 0.0000 0.0000 25.4637
#
#
#
# Elastic Compliance Matrix: (Units=1/GPa)
#
#
# Indices 1 2 3 4 5 6 
#
# 1 0.012870 -0.002275 -0.001062 0.000000 0.000000 0.000000
# 2 -0.002275 0.009834 -0.002640 0.000000 0.000000 0.000000
# 3 -0.001062 -0.002640 0.016891 0.000000 0.000000 0.000000
# 4 0.000000 0.000000 0.000000 0.062180 0.000000 0.000000
# 5 0.000000 0.000000 0.000000 0.000000 0.046555 0.000000
# 6 0.000000 0.000000 0.000000 0.000000 0.000000 0.039272
#
#
# Mechanical properties :
#
#
# Convention : Reuss Voigt Hill
#
# Bulk Modulus (GPa) = 36.17576 39.29058 37.73317
# Shear Modulus (GPa) = 23.94994 26.46708 25.20851
#
# Velocity S-wave (km/s) = 3.44195 3.61830 3.53123
# Velocity P-wave (km/s) = 5.80436 6.07384 5.94063
#
# Compressibility (1/GPa) = 0.02764282
#
# Stress axis : x y z
#
# Youngs Moduli (GPa) = 77.69934 101.69071 59.20266
#
# Poissons Ratio (x) = 0.23131 0.06285
# Poissons Ratio (y) = 0.17674 0.15628
# Poissons Ratio (z) = 0.08249 0.26844
#
# Static dielectric constant tensor:
#      x y z
#    x 1.698360 0.000000 0.000000 
#    y 0.000000 1.908810 0.000000 
#    z 0.000000 0.000000 1.721550 
# 
# From -- ./inp_files/28353.got.cif
#   From: 2010.05.17/outbox.cif.g08.bks.cpg/sg73_15_cif.got.tgz:28353.got - 2010.06.03 17:35:07.
