data_PCOD9530473
_publ_section_title
;
Structure prediction by ZEFSAII (Michael W. Deem and Ramdas Pophale) SiO2 
 PCOD9530473
Probable space group: I B C A 
;
_chemical_formula_sum "Si O2"
_cell_formula_units_Z 104
_cell_length_a 23.219496
_cell_length_b 26.547485
_cell_length_c 8.762640
_cell_angle_alpha 90.000000
_cell_angle_beta 90.000000
_cell_angle_gamma 90.000000
_cell_volume 5401.459729
_symmetry_space_group_name_H-M "I B C A "
_symmetry_group_IT_number 73
_symmetry_cell_setting 'orthorhombic'
loop_
_space_group_symop_operation_xyz
x,y,z
-x,1/2-y,z
x,-y,1/2-z
1/2-x,y,-z
-x,-y,-z
x,1/2+y,-z
-x,y,1/2+z
1/2+x,-y,z
1/2+x,1/2+y,1/2+z
1/2-x,-y,1/2+z
1/2+x,1/2-y,-z
-x,1/2+y,1/2-z
1/2-x,1/2-y,1/2-z
1/2+x,y,1/2-z
1/2-x,1/2+y,z
x,1/2-y,1/2+z
loop_
_atom_site_type_symbol
_atom_site_label
_atom_site_fract_x
_atom_site_fract_y
_atom_site_fract_z
Si Si1 0.987005 0.913050 0.234316
Si Si2 0.562696 0.814424 0.275056
Si Si3 0.500000 0.250000 0.469489
Si Si4 0.234428 0.555648 0.180527
Si Si5 0.341373 0.610983 0.278883
Si Si6 0.422737 0.042937 0.526793
Si Si7 0.883152 0.069740 0.453109
O O1 0.954238 0.932529 0.382301
O O2 0.937713 0.901234 0.111599
O O3 0.025877 0.864579 0.258537
O O4 0.029341 0.953943 0.159083
O O5 0.534966 0.788938 0.424472
O O6 0.628404 0.834245 0.295632
O O7 0.547348 0.777010 0.137501
O O8 0.244079 0.500000 0.250000
O O9 0.273761 0.596998 0.266702
O O10 0.167149 0.569026 0.173212
O O11 0.250000 0.553260 0.000000
O O12 0.369907 0.575899 0.408717
O O13 0.362458 0.592228 0.112262
O O14 0.401922 0.987572 0.485457
#
# Coordination Sequence:
#
# PCOD9530473 Si02
#       7
#    16  16   8  16  16  16  16
#     4  11  21  33  51  78 113 145 180 223 266 322
#     4  10  20  35  54  81 102 130 168 216 285 346
#     4  10  20  36  58  78 104 126 160 222 294 364
#     4  10  20  34  52  75 108 152 195 225 251 290
#     4  10  20  35  53  74 106 142 184 230 265 311
#     4  11  21  33  50  76 115 156 187 219 259 308
#     4  11  21  33  49  77 113 156 192 218 250 299
#
# _framework density 19.254054
#
# number of rings (size 3 to 8) (size 9 to 14) (size 15 to 20)
#    0.000    1.538    0.000    8.769    0.000    2.462 
#    0.000    0.000    0.000    0.000    0.000   29.077 
#    0.000    0.000    0.000    0.000    0.000    0.000 
#
# Total GULP energy -290374.020364 kJ/mol
# GULP energy per Si atom -5584.115776 kJ/mol
# Density = 1.921023 g / cm^3
# Si number density = 19.254054 Si / 1000 Ang^3
#
#
#
# Elastic Constant Matrix: (Units=GPa)
#
#
# Indices 1 2 3 4 5 6 
#
# 1 108.6600 27.7471 17.3572 0.0000 0.0000 0.0000
# 2 27.7471 44.0418 11.6968 0.0000 0.0000 0.0000
# 3 17.3572 11.6968 66.1455 0.0000 0.0000 0.0000
# 4 0.0000 0.0000 0.0000 23.4655 0.0000 0.0000
# 5 0.0000 0.0000 0.0000 0.0000 20.1787 0.0000
# 6 0.0000 0.0000 0.0000 0.0000 0.0000 11.3802
#
#
#
# Elastic Compliance Matrix: (Units=1/GPa)
#
#
# Indices 1 2 3 4 5 6 
#
# 1 0.011161 -0.006562 -0.001768 0.000000 0.000000 0.000000
# 2 -0.006562 0.027683 -0.003173 0.000000 0.000000 0.000000
# 3 -0.001768 -0.003173 0.016143 0.000000 0.000000 0.000000
# 4 0.000000 0.000000 0.000000 0.042616 0.000000 0.000000
# 5 0.000000 0.000000 0.000000 0.000000 0.049557 0.000000
# 6 0.000000 0.000000 0.000000 0.000000 0.000000 0.087872
#
#
# Mechanical properties :
#
#
# Convention : Reuss Voigt Hill
#
# Bulk Modulus (GPa) = 31.26985 36.93886 34.10436
# Shear Modulus (GPa) = 18.60815 21.80795 20.20805
#
# Velocity S-wave (km/s) = 3.11216 3.36913 3.24319
# Velocity P-wave (km/s) = 5.40277 5.86185 5.63699
#
# Compressibility (1/GPa) = 0.03197969
#
# Stress axis : x y z
#
# Youngs Moduli (GPa) = 89.59630 36.12359 61.94488
#
# Poissons Ratio (x) = 0.23705 0.10954
# Poissons Ratio (y) = 0.58794 0.19657
# Poissons Ratio (z) = 0.15844 0.11463
#
# Static dielectric constant tensor:
#      x y z
#    x 1.730820 0.000000 0.000000 
#    y 0.000000 1.656340 0.000000 
#    z 0.000000 0.000000 1.718180 
# 
# From -- ./inp_files/7312.got.cif
#   From: 2010.05.17/outbox.cif.g08.bks.cpg/sg73_4_cif.got.tgz:7312.got - 2010.06.03 17:35:07.
