data_PCOD9530877
_publ_section_title
;
Structure prediction by ZEFSAII (Michael W. Deem and Ramdas Pophale) SiO2 
 PCOD9530877
Probable space group: I B C A 
;
_chemical_formula_sum "Si O2"
_cell_formula_units_Z 120
_cell_length_a 22.747197
_cell_length_b 19.513051
_cell_length_c 12.149588
_cell_angle_alpha 90.000000
_cell_angle_beta 90.000000
_cell_angle_gamma 90.000000
_cell_volume 5392.803791
_symmetry_space_group_name_H-M "I B C A "
_symmetry_group_IT_number 73
_symmetry_cell_setting 'orthorhombic'
loop_
_space_group_symop_operation_xyz
x,y,z
-x,1/2-y,z
x,-y,1/2-z
1/2-x,y,-z
-x,-y,-z
x,1/2+y,-z
-x,y,1/2+z
1/2+x,-y,z
1/2+x,1/2+y,1/2+z
1/2-x,-y,1/2+z
1/2+x,1/2-y,-z
-x,1/2+y,1/2-z
1/2-x,1/2-y,1/2-z
1/2+x,y,1/2-z
1/2-x,1/2+y,z
x,1/2-y,1/2+z
loop_
_atom_site_type_symbol
_atom_site_label
_atom_site_fract_x
_atom_site_fract_y
_atom_site_fract_z
Si Si1 0.415257 0.112478 0.453852
Si Si2 0.758279 0.692545 0.656166
Si Si3 0.322647 0.077233 0.294709
Si Si4 0.750000 0.536756 0.000000
Si Si5 0.855418 0.034675 0.863348
Si Si6 0.130272 0.250991 0.432887
Si Si7 0.535123 0.179076 0.427298
Si Si8 0.637612 0.334264 0.770875
O O1 0.388013 0.096007 0.334853
O O2 0.400509 0.051981 0.540096
O O3 0.383449 0.182881 0.495445
O O4 0.483906 0.126963 0.455290
O O5 0.750000 0.750000 0.750000
O O6 0.793801 0.628566 0.708197
O O7 0.802373 0.724374 0.567107
O O8 0.690078 0.672564 0.642094
O O9 0.286805 0.079240 0.410446
O O10 0.319585 0.000000 0.250000
O O11 0.700794 0.500182 0.923693
O O12 0.838914 0.109470 0.815091
O O13 0.874771 0.000000 0.750000
O O14 0.080626 0.303137 0.474649
O O15 0.122960 0.231225 0.304462
O O16 0.500000 0.250000 0.398798
O O17 0.576969 0.150633 0.331552
#
# Coordination Sequence:
#
# PCOD9530877 Si02
#       8
#    16  16  16   8  16  16  16  16
#     4   9  22  43  66  93 129 179 229 279 337 414
#     4  10  22  38  63 103 138 163 223 279 348 407
#     4  11  23  43  69 100 135 184 227 275 354 420
#     4  10  20  38  70  88 134 174 216 270 334 432
#     4  10  20  40  64  90 125 171 219 266 335 404
#     4   9  21  40  62  98 133 169 214 282 349 407
#     4  10  22  41  63  92 127 173 228 269 341 407
#     4  10  21  39  62  97 125 169 217 271 339 405
#
# _framework density 22.251874000000001
#
# number of rings (size 3 to 8) (size 9 to 14) (size 15 to 20)
#    0.000    2.133    1.333    0.400    9.333    3.200 
#    7.200    1.333    0.000    0.000    0.000    0.000 
#    0.000    0.000    0.000    0.000    0.000    0.000 
#
# Total GULP energy -334418.987324 kJ/mol
# GULP energy per Si atom -5573.649789 kJ/mol
# Density = 2.220123 g / cm^3
# Si number density = 22.251874 Si / 1000 Ang^3
#
#
#
# Elastic Constant Matrix: (Units=GPa)
#
#
# Indices 1 2 3 4 5 6 
#
# 1 162.7944 38.7945 49.1173 0.0000 0.0000 0.0000
# 2 38.7945 59.0229 23.2229 0.0000 0.0000 0.0000
# 3 49.1173 23.2229 81.5995 0.0000 0.0000 0.0000
# 4 0.0000 0.0000 0.0000 11.7827 0.0000 0.0000
# 5 0.0000 0.0000 0.0000 0.0000 34.7980 0.0000
# 6 0.0000 0.0000 0.0000 0.0000 0.0000 8.0340
#
#
#
# Elastic Compliance Matrix: (Units=1/GPa)
#
#
# Indices 1 2 3 4 5 6 
#
# 1 0.008232 -0.003897 -0.003846 0.000000 0.000000 0.000000
# 2 -0.003897 0.020924 -0.003609 0.000000 0.000000 0.000000
# 3 -0.003846 -0.003609 0.015597 0.000000 0.000000 0.000000
# 4 0.000000 0.000000 0.000000 0.084870 0.000000 0.000000
# 5 0.000000 0.000000 0.000000 0.000000 0.028737 0.000000
# 6 0.000000 0.000000 0.000000 0.000000 0.000000 0.124472
#
#
# Mechanical properties :
#
#
# Convention : Reuss Voigt Hill
#
# Bulk Modulus (GPa) = 45.35426 58.40959 51.88192
# Shear Modulus (GPa) = 15.98027 23.74175 19.86101
#
# Velocity S-wave (km/s) = 2.68275 3.26997 2.99081
# Velocity P-wave (km/s) = 5.47929 6.36893 5.94079
#
# Compressibility (1/GPa) = 0.02204864
#
# Stress axis : x y z
#
# Youngs Moduli (GPa) = 121.47972 47.79139 64.11505
#
# Poissons Ratio (x) = 0.18627 0.24657
# Poissons Ratio (y) = 0.47346 0.23139
# Poissons Ratio (z) = 0.46719 0.17248
#
# Static dielectric constant tensor:
#      x y z
#    x 1.839910 0.000000 0.000000 
#    y 0.000000 1.907120 0.000000 
#    z 0.000000 0.000000 1.862650 
# 
# From -- ./inp_files/13856.got.cif
#   From: 2010.05.17/outbox.cif.g08.bks.cpg/sg73_7_cif.got.tgz:13856.got - 2010.06.03 17:35:07.
