data_PCOD9530571
_publ_section_title
;
Structure prediction by ZEFSAII (Michael W. Deem and Ramdas Pophale) SiO2 
 PCOD9530571
Probable space group: I B C A 
;
_chemical_formula_sum "Si O2"
_cell_formula_units_Z 104
_cell_length_a 17.816561
_cell_length_b 13.241269
_cell_length_c 20.675816
_cell_angle_alpha 90.000000
_cell_angle_beta 90.000000
_cell_angle_gamma 90.000000
_cell_volume 4877.711910
_symmetry_space_group_name_H-M "I B C A "
_symmetry_group_IT_number 73
_symmetry_cell_setting 'orthorhombic'
loop_
_space_group_symop_operation_xyz
x,y,z
-x,1/2-y,z
x,-y,1/2-z
1/2-x,y,-z
-x,-y,-z
x,1/2+y,-z
-x,y,1/2+z
1/2+x,-y,z
1/2+x,1/2+y,1/2+z
1/2-x,-y,1/2+z
1/2+x,1/2-y,-z
-x,1/2+y,1/2-z
1/2-x,1/2-y,1/2-z
1/2+x,y,1/2-z
1/2-x,1/2+y,z
x,1/2-y,1/2+z
loop_
_atom_site_type_symbol
_atom_site_label
_atom_site_fract_x
_atom_site_fract_y
_atom_site_fract_z
Si Si1 0.500000 0.750000 0.925906
Si Si2 0.137183 0.868199 0.947331
Si Si3 0.918683 0.135489 0.823540
Si Si4 0.293295 0.917114 0.912612
Si Si5 0.087452 0.153958 0.026655
Si Si6 0.500000 0.750000 0.214551
Si Si7 0.490436 0.051197 0.370728
Si Si8 0.750000 0.091462 0.500000
O O1 0.433748 0.784675 0.880444
O O2 0.527193 0.841851 0.969692
O O3 0.217501 0.850851 0.913055
O O4 0.089365 0.766264 0.944052
O O5 0.085511 0.952886 0.913576
O O6 0.157849 0.891852 0.022322
O O7 0.839477 0.088749 0.846354
O O8 0.934260 0.201175 0.759755
O O9 0.981743 0.047006 0.831250
O O10 0.259174 0.024468 0.935057
O O11 0.059337 0.076398 0.080184
O O12 0.170635 0.145284 0.998312
O O13 0.478429 0.849447 0.173758
#
# Coordination Sequence:
#
# PCOD9530571 Si02
#       8
#     8  16  16  16  16   8  16   8
#     4  11  23  34  58  98 125 165 206 250 338 391
#     4  10  20  35  61  91 136 159 197 255 318 413
#     4  11  24  41  63  86 128 167 215 279 314 382
#     4  10  21  38  55  99 133 166 198 246 341 403
#     4  12  19  35  59  95 133 166 203 255 328 410
#     4  11  25  46  64  88 111 167 246 274 316 363
#     4  12  22  41  67  90 122 172 223 271 320 377
#     4  10  22  30  58  94 132 172 196 238 324 406
#
# _framework density 21.321472
#
# number of rings (size 3 to 8) (size 9 to 14) (size 15 to 20)
#    0.000    1.231    6.154    1.385    4.308    1.231 
#    0.000    0.769    0.000    1.846    0.000    0.000 
#    0.000    0.000    0.000    0.000    0.000    0.000 
#
# Total GULP energy -289790.065647 kJ/mol
# GULP energy per Si atom -5572.885878 kJ/mol
# Density = 2.127294 g / cm^3
# Si number density = 21.321472 Si / 1000 Ang^3
#
#
#
# Elastic Constant Matrix: (Units=GPa)
#
#
# Indices 1 2 3 4 5 6 
#
# 1 114.8968 5.1784 33.2834 0.0000 0.0000 0.0000
# 2 5.1784 63.5661 15.8464 0.0000 0.0000 0.0000
# 3 33.2834 15.8464 66.7973 0.0000 0.0000 0.0000
# 4 0.0000 0.0000 0.0000 25.2375 0.0000 0.0000
# 5 0.0000 0.0000 0.0000 0.0000 22.5657 0.0000
# 6 0.0000 0.0000 0.0000 0.0000 0.0000 37.9636
#
#
#
# Elastic Compliance Matrix: (Units=1/GPa)
#
#
# Indices 1 2 3 4 5 6 
#
# 1 0.010184 0.000463 -0.005184 0.000000 0.000000 0.000000
# 2 0.000463 0.016742 -0.004202 0.000000 0.000000 0.000000
# 3 -0.005184 -0.004202 0.018551 0.000000 0.000000 0.000000
# 4 0.000000 0.000000 0.000000 0.039624 0.000000 0.000000
# 5 0.000000 0.000000 0.000000 0.000000 0.044315 0.000000
# 6 0.000000 0.000000 0.000000 0.000000 0.000000 0.026341
#
#
# Mechanical properties :
#
#
# Convention : Reuss Voigt Hill
#
# Bulk Modulus (GPa) = 36.19378 39.31963 37.75670
# Shear Modulus (GPa) = 27.35023 29.88349 28.61686
#
# Velocity S-wave (km/s) = 3.58544 3.74781 3.66753
# Velocity P-wave (km/s) = 5.84403 6.09996 5.97336
#
# Compressibility (1/GPa) = 0.02762906
#
# Stress axis : x y z
#
# Youngs Moduli (GPa) = 98.18901 59.73167 53.90591
#
# Poissons Ratio (x) = -0.02764 0.27947
# Poissons Ratio (y) = -0.04544 0.22652
# Poissons Ratio (z) = 0.50905 0.25100
#
# Static dielectric constant tensor:
#      x y z
#    x 1.891550 0.000000 0.000000 
#    y 0.000000 1.877990 0.000000 
#    z 0.000000 0.000000 1.814640 
# 
# From -- ./inp_files/26554.got.cif
#   From: 2010.05.17/outbox.cif.g08.bks.cpg/sg73_14_cif.got.tgz:26554.got - 2010.06.03 17:35:07.
