data_PCOD9530739
_publ_section_title
;
Structure prediction by ZEFSAII (Michael W. Deem and Ramdas Pophale) SiO2 
 PCOD9530739
Probable space group: I B C A 
;
_chemical_formula_sum "Si O2"
_cell_formula_units_Z 64
_cell_length_a 8.665893
_cell_length_b 22.251607
_cell_length_c 15.840146
_cell_angle_alpha 90.000000
_cell_angle_beta 90.000000
_cell_angle_gamma 90.000000
_cell_volume 3054.456071
_symmetry_space_group_name_H-M "I B C A "
_symmetry_group_IT_number 73
_symmetry_cell_setting 'orthorhombic'
loop_
_space_group_symop_operation_xyz
x,y,z
-x,1/2-y,z
x,-y,1/2-z
1/2-x,y,-z
-x,-y,-z
x,1/2+y,-z
-x,y,1/2+z
1/2+x,-y,z
1/2+x,1/2+y,1/2+z
1/2-x,-y,1/2+z
1/2+x,1/2-y,-z
-x,1/2+y,1/2-z
1/2-x,1/2-y,1/2-z
1/2+x,y,1/2-z
1/2-x,1/2+y,z
x,1/2-y,1/2+z
loop_
_atom_site_type_symbol
_atom_site_label
_atom_site_fract_x
_atom_site_fract_y
_atom_site_fract_z
Si Si1 0.132973 0.569731 0.845602
Si Si2 0.548871 0.183107 0.831630
Si Si3 0.624262 0.867207 0.321155
Si Si4 0.544758 0.032625 0.586592
O O1 0.185148 0.586341 0.750987
O O2 0.277809 0.548835 0.899814
O O3 0.051028 0.631080 0.877105
O O4 0.006493 0.517781 0.846258
O O5 0.500000 0.250000 0.853644
O O6 0.502748 0.170174 0.732726
O O7 0.729234 0.172165 0.845558
O O8 0.551171 0.906931 0.394571
O O9 0.500000 0.000000 0.500000
#
# Coordination Sequence:
#
# PCOD9530739 Si02
#       4
#    16  16  16  16
#     4  10  22  37  58  90 127 165 217 259 317 380
#     4  10  20  37  66  93 128 162 223 269 306 368
#     4  10  20  37  61  93 127 163 215 263 317 377
#     4  12  23  39  61  93 131 170 207 268 332 387
#
# _framework density 20.952994
#
# number of rings (size 3 to 8) (size 9 to 14) (size 15 to 20)
#    1.500    0.000    2.500    3.750    0.000    2.000 
#    0.000    0.000    0.000    7.500    0.000    0.000 
#    0.000    0.000    0.000    0.000    0.000    0.000 
#
# Total GULP energy -178474.848003 kJ/mol
# GULP energy per Si atom -5577.339000 kJ/mol
# Density = 2.090530 g / cm^3
# Si number density = 20.952994 Si / 1000 Ang^3
#
#
#
# Elastic Constant Matrix: (Units=GPa)
#
#
# Indices 1 2 3 4 5 6 
#
# 1 108.1894 43.2194 1.5225 0.0000 0.0000 0.0000
# 2 43.2194 111.6369 -12.8782 0.0000 0.0000 0.0000
# 3 1.5225 -12.8782 36.2172 -0.0001 0.0000 0.0000
# 4 0.0000 0.0000 -0.0001 13.4693 0.0000 0.0000
# 5 0.0000 0.0000 0.0000 0.0000 19.1211 0.0000
# 6 0.0000 0.0000 0.0000 0.0000 0.0000 38.1783
#
#
#
# Elastic Compliance Matrix: (Units=1/GPa)
#
#
# Indices 1 2 3 4 5 6 
#
# 1 0.011082 -0.004530 -0.002077 0.000000 0.000000 0.000000
# 2 -0.004530 0.011192 0.004170 0.000000 0.000000 0.000000
# 3 -0.002077 0.004170 0.029181 0.000000 0.000000 0.000000
# 4 0.000000 0.000000 0.000000 0.074243 0.000000 0.000000
# 5 0.000000 0.000000 0.000000 0.000000 0.052298 0.000000
# 6 0.000000 0.000000 0.000000 0.000000 0.000000 0.026193
#
#
# Mechanical properties :
#
#
# Convention : Reuss Voigt Hill
#
# Bulk Modulus (GPa) = 21.46696 35.53010 28.49853
# Shear Modulus (GPa) = 22.26279 29.09904 25.68092
#
# Velocity S-wave (km/s) = 3.26315 3.73067 3.50472
# Velocity P-wave (km/s) = 4.94622 5.96247 5.47797
#
# Compressibility (1/GPa) = 0.04658322
#
# Stress axis : x y z
#
# Youngs Moduli (GPa) = 90.23778 89.34675 34.26848
#
# Poissons Ratio (x) = 0.40472 0.07116
# Poissons Ratio (y) = 0.40876 -0.14291
# Poissons Ratio (z) = 0.18739 -0.37260
#
# Static dielectric constant tensor:
#      x y z
#    x 1.754810 0.000000 0.000000 
#    y 0.000000 1.740900 0.000000 
#    z 0.000000 0.000000 1.837430 
# 
# From -- ./inp_files/5940.got.cif
#   From: 2010.05.17/outbox.cif.g08.bks.cpg/sg73_3_cif.got.tgz:5940.got - 2010.06.03 17:35:07.
