data_PCOD9530241
_publ_section_title
;
Structure prediction by ZEFSAII (Michael W. Deem and Ramdas Pophale) SiO2 
 PCOD9530241
Probable space group: I B C A 
;
_chemical_formula_sum "Si O2"
_cell_formula_units_Z 88
_cell_length_a 29.971567
_cell_length_b 9.632752
_cell_length_c 14.484214
_cell_angle_alpha 90.000000
_cell_angle_beta 90.000000
_cell_angle_gamma 90.000000
_cell_volume 4181.718188
_symmetry_space_group_name_H-M "I B C A "
_symmetry_group_IT_number 73
_symmetry_cell_setting 'orthorhombic'
loop_
_space_group_symop_operation_xyz
x,y,z
-x,1/2-y,z
x,-y,1/2-z
1/2-x,y,-z
-x,-y,-z
x,1/2+y,-z
-x,y,1/2+z
1/2+x,-y,z
1/2+x,1/2+y,1/2+z
1/2-x,-y,1/2+z
1/2+x,1/2-y,-z
-x,1/2+y,1/2-z
1/2-x,1/2-y,1/2-z
1/2+x,y,1/2-z
1/2-x,1/2+y,z
x,1/2-y,1/2+z
loop_
_atom_site_type_symbol
_atom_site_label
_atom_site_fract_x
_atom_site_fract_y
_atom_site_fract_z
Si Si1 0.495641 0.911476 0.592405
Si Si2 0.091967 0.093057 0.610895
Si Si3 0.338287 0.500000 0.750000
Si Si4 0.229758 0.700306 0.151891
Si Si5 0.195561 0.003563 0.361830
Si Si6 0.600670 0.593599 0.565867
O O1 0.500000 0.750000 0.566583
O O2 0.541502 0.929686 0.648628
O O3 0.444970 0.941461 0.623281
O O4 0.500000 0.000000 0.500000
O O5 0.128924 0.093178 0.689542
O O6 0.098459 0.240234 0.560458
O O7 0.098627 0.973368 0.535448
O O8 0.308257 0.590825 0.818872
O O9 0.250000 0.750000 0.250000
O O10 0.269243 0.612982 0.104187
O O11 0.210474 0.841318 0.107576
O O12 0.145916 0.962506 0.390222
O O13 0.197508 0.000000 0.250000
#
# Coordination Sequence:
#
# PCOD9530241 Si02
#       6
#    16  16   8  16  16  16
#     4   8  16  35  59  83 118 156 188 239 295 356
#     4  10  22  38  63  91 121 161 200 246 300 364
#     4  12  22  38  66  84 124 160 204 244 308 360
#     4  10  19  36  61  83 114 158 195 243 302 361
#     4  10  20  36  61  85 115 156 197 240 306 360
#     4  10  21  39  63  89 123 155 204 248 302 358
#
# _framework density 21.043982
#
# number of rings (size 3 to 8) (size 9 to 14) (size 15 to 20)
#    0.000    2.182    2.727    2.182    2.545    0.000 
#    1.636    0.909    4.000    0.000    0.000    0.000 
#    0.000    0.000    0.000    0.000    0.000    0.000 
#
# Total GULP energy -245151.590580 kJ/mol
# GULP energy per Si atom -5571.627059 kJ/mol
# Density = 2.099608 g / cm^3
# Si number density = 21.043982 Si / 1000 Ang^3
#
#
#
# Elastic Constant Matrix: (Units=GPa)
#
#
# Indices 1 2 3 4 5 6 
#
# 1 205.4489 66.5483 13.1302 0.0000 0.0000 0.0000
# 2 66.5483 104.3015 13.9180 0.0000 0.0000 0.0000
# 3 13.1302 13.9180 15.3851 0.0000 0.0000 0.0000
# 4 0.0000 0.0000 0.0000 14.8924 0.0000 0.0000
# 5 0.0000 0.0000 0.0000 0.0000 49.3703 0.0000
# 6 0.0000 0.0000 0.0000 0.0000 0.0000 27.6178
#
#
#
# Elastic Compliance Matrix: (Units=1/GPa)
#
#
# Indices 1 2 3 4 5 6 
#
# 1 0.006186 -0.003688 -0.001943 0.000000 0.000000 0.000000
# 2 -0.003688 0.013102 -0.008706 0.000000 0.000000 0.000000
# 3 -0.001943 -0.008706 0.074532 0.000000 0.000000 0.000000
# 4 0.000000 0.000000 0.000000 0.067148 0.000000 0.000000
# 5 0.000000 0.000000 0.000000 0.000000 0.020255 0.000000
# 6 0.000000 0.000000 0.000000 0.000000 0.000000 0.036209
#
#
# Mechanical properties :
#
#
# Convention : Reuss Voigt Hill
#
# Bulk Modulus (GPa) = 15.34995 56.92538 36.13767
# Shear Modulus (GPa) = 18.66919 33.81201 26.24060
#
# Velocity S-wave (km/s) = 2.98174 4.01275 3.53504
# Velocity P-wave (km/s) = 4.37772 6.96986 5.81994
#
# Compressibility (1/GPa) = 0.06514678
#
# Stress axis : x y z
#
# Youngs Moduli (GPa) = 161.65333 76.32359 13.41709
#
# Poissons Ratio (x) = 0.28145 0.02608
# Poissons Ratio (y) = 0.59612 0.11680
# Poissons Ratio (z) = 0.31416 0.66444
#
# Static dielectric constant tensor:
#      x y z
#    x 1.838840 0.000000 0.000000 
#    y 0.000000 1.789070 0.000000 
#    z 0.000000 0.000000 1.725020 
# 
# From -- ./inp_files/24110.got.cif
#   From: 2010.05.17/outbox.cif.g08.bks.cpg/sg73_13_cif.got.tgz:24110.got - 2010.06.03 17:35:07.
