data_PCOD9530716
_publ_section_title
;
Structure prediction by ZEFSAII (Michael W. Deem and Ramdas Pophale) SiO2 
 PCOD9530716
Probable space group: I B C A 
;
_chemical_formula_sum "Si O2"
_cell_formula_units_Z 120
_cell_length_a 8.273855
_cell_length_b 26.394279
_cell_length_c 27.152997
_cell_angle_alpha 90.000000
_cell_angle_beta 90.000000
_cell_angle_gamma 90.000000
_cell_volume 5929.737664
_symmetry_space_group_name_H-M "I B C A "
_symmetry_group_IT_number 73
_symmetry_cell_setting 'orthorhombic'
loop_
_space_group_symop_operation_xyz
x,y,z
-x,1/2-y,z
x,-y,1/2-z
1/2-x,y,-z
-x,-y,-z
x,1/2+y,-z
-x,y,1/2+z
1/2+x,-y,z
1/2+x,1/2+y,1/2+z
1/2-x,-y,1/2+z
1/2+x,1/2-y,-z
-x,1/2+y,1/2-z
1/2-x,1/2-y,1/2-z
1/2+x,y,1/2-z
1/2-x,1/2+y,z
x,1/2-y,1/2+z
loop_
_atom_site_type_symbol
_atom_site_label
_atom_site_fract_x
_atom_site_fract_y
_atom_site_fract_z
Si Si1 0.058913 0.862723 0.380814
Si Si2 0.819635 0.771939 0.698784
Si Si3 0.999938 0.567748 0.970706
Si Si4 0.648966 0.532098 0.940012
Si Si5 0.075833 0.982310 0.173596
Si Si6 0.500000 0.750000 0.633902
Si Si7 0.240938 0.422470 0.306413
Si Si8 0.221042 0.884276 0.798931
O O1 0.056392 0.888963 0.433986
O O2 0.915632 0.876712 0.341029
O O3 0.037050 0.803442 0.391180
O O4 0.212936 0.883496 0.349907
O O5 0.750000 0.750000 0.750000
O O6 0.668524 0.758685 0.663367
O O7 0.827453 0.833128 0.699188
O O8 0.000000 0.750000 0.689171
O O9 0.830696 0.550427 0.945834
O O10 0.120276 0.521139 0.966355
O O11 0.958162 0.572621 0.028752
O O12 0.603755 0.518744 0.884778
O O13 0.187917 0.936656 0.191733
O O14 0.895939 0.962990 0.181260
O O15 0.109131 0.037211 0.197749
O O16 0.181063 0.391270 0.258971
#
# Coordination Sequence:
#
# PCOD9530716 Si02
#       8
#    16  16  16  16  16   8  16  16
#     4  11  22  42  61  90 118 161 211 259 313 364
#     4  11  23  40  61  86 119 163 221 270 305 354
#     4  10  20  37  62  87 119 152 200 254 308 366
#     4  10  20  37  59  90 115 156 198 248 304 368
#     4  12  23  39  56  87 123 161 200 247 302 378
#     4  10  24  40  64  90 120 160 216 272 322 368
#     4  12  25  37  57  84 127 167 200 242 300 369
#     4  11  25  39  58  84 123 164 207 247 302 360
#
# _framework density 20.236982999999999
#
# number of rings (size 3 to 8) (size 9 to 14) (size 15 to 20)
#    0.000    1.067    3.333    3.600    5.600    1.067 
#    0.000    0.000    0.000    0.000    8.667    0.000 
#    0.000    0.000    0.000    0.000    0.000    0.000 
#
# Total GULP energy -334412.580849 kJ/mol
# GULP energy per Si atom -5573.543014 kJ/mol
# Density = 2.019092 g / cm^3
# Si number density = 20.236983 Si / 1000 Ang^3
#
#
#
# Elastic Constant Matrix: (Units=GPa)
#
#
# Indices 1 2 3 4 5 6 
#
# 1 55.7892 -6.7459 1.0420 0.0000 0.0000 0.0000
# 2 -6.7459 89.2771 16.5718 0.0000 0.0000 0.0000
# 3 1.0420 16.5718 78.1477 0.0000 0.0000 0.0000
# 4 0.0000 0.0000 0.0000 16.7775 0.0000 0.0000
# 5 0.0000 0.0000 0.0000 0.0000 6.2407 0.0000
# 6 0.0000 0.0000 0.0000 0.0000 0.0000 28.5406
#
#
#
# Elastic Compliance Matrix: (Units=1/GPa)
#
#
# Indices 1 2 3 4 5 6 
#
# 1 0.018113 0.001471 -0.000554 0.000000 0.000000 0.000000
# 2 0.001471 0.011780 -0.002518 0.000000 0.000000 0.000000
# 3 -0.000554 -0.002518 0.013338 0.000000 0.000000 0.000000
# 4 0.000000 0.000000 0.000000 0.059604 0.000000 0.000000
# 5 0.000000 0.000000 0.000000 0.000000 0.160237 0.000000
# 6 0.000000 0.000000 0.000000 0.000000 0.000000 0.035038
#
#
# Mechanical properties :
#
#
# Convention : Reuss Voigt Hill
#
# Bulk Modulus (GPa) = 24.98094 27.21665 26.09880
# Shear Modulus (GPa) = 15.89059 24.46818 20.17939
#
# Velocity S-wave (km/s) = 2.80523 3.48096 3.16120
# Velocity P-wave (km/s) = 4.78157 5.44374 5.12336
#
# Compressibility (1/GPa) = 0.04003052
#
# Stress axis : x y z
#
# Youngs Moduli (GPa) = 55.20941 84.89267 74.97640
#
# Poissons Ratio (x) = -0.12491 0.04150
# Poissons Ratio (y) = -0.08123 0.18876
# Poissons Ratio (z) = 0.03056 0.21372
#
# Static dielectric constant tensor:
#      x y z
#    x 1.758050 0.000000 0.000000 
#    y 0.000000 1.719900 0.000000 
#    z 0.000000 0.000000 1.810000 
# 
# From -- ./inp_files/31464.got.cif
#   From: 2010.05.17/outbox.cif.g08.bks.cpg/sg73_16_cif.got.tgz:31464.got - 2010.06.03 17:35:07.
