data_PCOD9530679
_publ_section_title
;
Structure prediction by ZEFSAII (Michael W. Deem and Ramdas Pophale) SiO2 
 PCOD9530679
Probable space group: I B C A 
;
_chemical_formula_sum "Si O2"
_cell_formula_units_Z 112
_cell_length_a 30.243524
_cell_length_b 11.706087
_cell_length_c 14.553645
_cell_angle_alpha 90.000000
_cell_angle_beta 90.000000
_cell_angle_gamma 90.000000
_cell_volume 5152.475303
_symmetry_space_group_name_H-M "I B C A "
_symmetry_group_IT_number 73
_symmetry_cell_setting 'orthorhombic'
loop_
_space_group_symop_operation_xyz
x,y,z
-x,1/2-y,z
x,-y,1/2-z
1/2-x,y,-z
-x,-y,-z
x,1/2+y,-z
-x,y,1/2+z
1/2+x,-y,z
1/2+x,1/2+y,1/2+z
1/2-x,-y,1/2+z
1/2+x,1/2-y,-z
-x,1/2+y,1/2-z
1/2-x,1/2-y,1/2-z
1/2+x,y,1/2-z
1/2-x,1/2+y,z
x,1/2-y,1/2+z
loop_
_atom_site_type_symbol
_atom_site_label
_atom_site_fract_x
_atom_site_fract_y
_atom_site_fract_z
Si Si1 0.282388 0.106183 0.678527
Si Si2 0.914647 0.742085 0.049232
Si Si3 0.485014 0.500000 0.250000
Si Si4 0.815150 0.578865 0.836996
Si Si5 0.365902 0.258634 0.726037
Si Si6 0.846684 0.966460 0.527995
Si Si7 0.500000 0.250000 0.672789
Si Si8 0.084636 0.116429 0.131317
O O1 0.232088 0.142951 0.657642
O O2 0.318311 0.199310 0.710388
O O3 0.303294 0.066556 0.583486
O O4 0.283517 0.000000 0.750000
O O5 0.884602 0.803512 0.129158
O O6 0.883284 0.634588 0.025699
O O7 0.959058 0.723918 0.106120
O O8 0.927671 0.802289 0.953744
O O9 0.507515 0.626714 0.272330
O O10 0.454269 0.468304 0.337971
O O11 0.808915 0.500000 0.750000
O O12 0.856532 0.654822 0.807863
O O13 0.828641 0.510979 0.927096
O O14 0.400698 0.172109 0.771920
O O15 0.871490 0.059762 0.588780
#
# Coordination Sequence:
#
# PCOD9530679 Si02
#       8
#    16  16   8  16  16  16   8  16
#     4  10  20  36  64  91 131 184 232 290 353 422
#     4  11  25  43  72 100 138 179 238 290 368 426
#     4  12  26  50  80 108 150 184 248 292 378 440
#     4  11  23  38  59  98 140 173 230 300 353 415
#     4  11  21  42  66  97 134 187 233 288 360 433
#     4  11  21  41  66  96 132 186 238 287 354 438
#     4  12  26  52  74 118 144 190 236 306 362 448
#     4  12  22  45  75  99 134 197 236 292 359 449
#
# _framework density 21.737124000000001
#
# number of rings (size 3 to 8) (size 9 to 14) (size 15 to 20)
#    0.000    0.857    5.714    2.571    0.000    1.143 
#    6.429    0.000    0.000    0.000    0.000    0.000 
#    0.000    0.000    0.000    0.000    0.000    0.000 
#
# Total GULP energy -311791.817946 kJ/mol
# GULP energy per Si atom -5567.711035 kJ/mol
# Density = 2.168765 g / cm^3
# Si number density = 21.737124 Si / 1000 Ang^3
#
#
#
# Elastic Constant Matrix: (Units=GPa)
#
#
# Indices 1 2 3 4 5 6 
#
# 1 75.3154 11.7064 29.9346 0.0000 0.0000 0.0000
# 2 11.7064 43.3192 18.2231 0.0000 0.0000 0.0000
# 3 29.9346 18.2231 130.6471 0.0000 0.0000 0.0000
# 4 0.0000 0.0000 0.0000 -128.7825 0.0000 0.0000
# 5 0.0000 0.0000 0.0000 0.0000 5.8069 0.0000
# 6 0.0000 0.0000 0.0000 0.0000 0.0000 29.5944
#
#
#
# Elastic Compliance Matrix: (Units=1/GPa)
#
#
# Indices 1 2 3 4 5 6 
#
# 1 0.014911 -0.002754 -0.003032 0.000000 0.000000 0.000000
# 2 -0.002754 0.025032 -0.002861 0.000000 0.000000 0.000000
# 3 -0.003032 -0.002861 0.008748 0.000000 0.000000 0.000000
# 4 0.000000 0.000000 0.000000 -0.007765 0.000000 0.000000
# 5 0.000000 0.000000 0.000000 0.000000 0.172208 0.000000
# 6 0.000000 0.000000 0.000000 0.000000 0.000000 0.033790
#
#
# Mechanical properties :
#
#
# Convention : Reuss Voigt Hill
#
# Bulk Modulus (GPa) = 31.84989 41.00111 36.42550
# Shear Modulus (GPa) = 18.20277 -6.04839 6.07719
#
# Velocity S-wave (km/s) = 2.89693 -1.66990 1.67387
# Velocity P-wave (km/s) = 5.08662 3.89681 4.53094
#
# Compressibility (1/GPa) = 0.03139728
#
# Stress axis : x y z
#
# Youngs Moduli (GPa) = 67.06577 39.94891 114.31199
#
# Poissons Ratio (x) = 0.11001 0.34663
# Poissons Ratio (y) = 0.18469 0.32700
# Poissons Ratio (z) = 0.20336 0.11428
#
# Static dielectric constant tensor:
#      x y z
#    x 1.815110 0.000000 0.000000 
#    y 0.000000 1.893010 0.000000 
#    z 0.000000 0.000000 1.766730 
# 
# From -- ./inp_files/20064.got.cif
#   From: 2010.05.17/outbox.cif.g08.bks.cpg/sg73_11_cif.got.tgz:20064.got - 2010.06.03 17:35:07.
