data_PCOD9530205
_publ_section_title
;
Structure prediction by ZEFSAII (Michael W. Deem and Ramdas Pophale) SiO2 
 PCOD9530205
Probable space group: I B C A 
;
_chemical_formula_sum "Si O2"
_cell_formula_units_Z 88
_cell_length_a 5.337526
_cell_length_b 25.288982
_cell_length_c 30.945272
_cell_angle_alpha 90.000000
_cell_angle_beta 90.000000
_cell_angle_gamma 90.000000
_cell_volume 4177.011349
_symmetry_space_group_name_H-M "I B C A "
_symmetry_group_IT_number 73
_symmetry_cell_setting 'orthorhombic'
loop_
_space_group_symop_operation_xyz
x,y,z
-x,1/2-y,z
x,-y,1/2-z
1/2-x,y,-z
-x,-y,-z
x,1/2+y,-z
-x,y,1/2+z
1/2+x,-y,z
1/2+x,1/2+y,1/2+z
1/2-x,-y,1/2+z
1/2+x,1/2-y,-z
-x,1/2+y,1/2-z
1/2-x,1/2-y,1/2-z
1/2+x,y,1/2-z
1/2-x,1/2+y,z
x,1/2-y,1/2+z
loop_
_atom_site_type_symbol
_atom_site_label
_atom_site_fract_x
_atom_site_fract_y
_atom_site_fract_z
Si Si1 0.786619 0.651061 0.612354
Si Si2 0.299197 0.125977 0.343329
Si Si3 0.381251 0.806082 0.958547
Si Si4 0.234067 0.690126 0.267563
Si Si5 0.577337 0.978771 0.700721
Si Si6 0.000000 0.750000 0.393655
O O1 0.529066 0.620648 0.623155
O O2 0.710046 0.711210 0.626603
O O3 0.021983 0.626204 0.637397
O O4 0.900928 0.660283 0.564545
O O5 0.320253 0.181692 0.317652
O O6 0.339553 0.081117 0.307173
O O7 0.500000 0.750000 0.972816
O O8 0.169571 0.789391 0.923449
O O9 0.250000 0.831167 0.000000
O O10 0.250000 0.750000 0.250000
O O11 0.502868 0.665359 0.258034
O O12 0.551183 0.000000 0.750000
O O13 0.304750 0.987844 0.680787
#
# Coordination Sequence:
#
# PCOD9530205 Si02
#       6
#    16  16  16  16  16   8
#     4  11  24  38  57  90 126 172 211 256 321 359
#     4  12  24  40  63  85 126 157 208 282 325 385
#     4  10  19  35  60  86 130 177 228 256 289 358
#     4  10  23  39  53  77 108 159 211 244 297 369
#     4  10  23  41  67  89 113 147 208 270 346 403
#     4  10  20  38  54  88 128 180 218 246 290 366
#
# _framework density 21.067692000000001
#
# number of rings (size 3 to 8) (size 9 to 14) (size 15 to 20)
#    0.000    1.455    2.727    2.182    5.091    4.364 
#    0.000    0.000    0.000    0.000    0.000    0.000 
#    0.000   14.545    0.000    0.000    0.000    0.000 
#
# Total GULP energy -245093.189648 kJ/mol
# GULP energy per Si atom -5570.299765 kJ/mol
# Density = 2.101974 g / cm^3
# Si number density = 21.067692 Si / 1000 Ang^3
#
#
#
# Elastic Constant Matrix: (Units=GPa)
#
#
# Indices 1 2 3 4 5 6 
#
# 1 171.1015 2.7418 35.7127 0.0000 0.0000 0.0000
# 2 2.7418 50.0400 15.5933 0.0000 0.0000 0.0000
# 3 35.7127 15.5933 44.0434 0.0000 0.0000 0.0000
# 4 0.0000 0.0000 0.0000 19.9957 0.0000 0.0000
# 5 0.0000 0.0000 0.0000 0.0000 31.5949 0.0000
# 6 0.0000 0.0000 0.0000 0.0000 0.0000 28.6943
#
#
#
# Elastic Compliance Matrix: (Units=1/GPa)
#
#
# Indices 1 2 3 4 5 6 
#
# 1 0.007146 0.001589 -0.006357 0.000000 0.000000 0.000000
# 2 0.001589 0.022816 -0.009367 0.000000 0.000000 0.000000
# 3 -0.006357 -0.009367 0.031176 0.000000 0.000000 0.000000
# 4 0.000000 0.000000 0.000000 0.050011 0.000000 0.000000
# 5 0.000000 0.000000 0.000000 0.000000 0.031651 0.000000
# 6 0.000000 0.000000 0.000000 0.000000 0.000000 0.034850
#
#
# Mechanical properties :
#
#
# Convention : Reuss Voigt Hill
#
# Bulk Modulus (GPa) = 30.42383 41.47562 35.94972
# Shear Modulus (GPa) = 23.05496 30.13280 26.59388
#
# Velocity S-wave (km/s) = 3.31165 3.78601 3.55675
# Velocity P-wave (km/s) = 5.39398 6.23229 5.82823
#
# Compressibility (1/GPa) = 0.03286897
#
# Stress axis : x y z
#
# Youngs Moduli (GPa) = 139.94136 43.82946 32.07635
#
# Poissons Ratio (x) = -0.06966 0.20391
# Poissons Ratio (y) = -0.22242 0.30044
# Poissons Ratio (z) = 0.88960 0.41053
#
# Static dielectric constant tensor:
#      x y z
#    x 1.859980 0.000000 0.000000 
#    y 0.000000 1.871320 0.000000 
#    z 0.000000 0.000000 1.841690 
# 
# From -- ./inp_files/33265.got.cif
#   From: 2010.05.17/outbox.cif.g08.bks.cpg/sg73_17_cif.got.tgz:33265.got - 2010.06.03 17:35:07.
