data_PCOD9530598
_publ_section_title
;
Structure prediction by ZEFSAII (Michael W. Deem and Ramdas Pophale) SiO2 
 PCOD9530598
Probable space group: I B C A 
;
_chemical_formula_sum "Si O2"
_cell_formula_units_Z 96
_cell_length_a 9.187762
_cell_length_b 26.416809
_cell_length_c 14.651557
_cell_angle_alpha 90.000000
_cell_angle_beta 90.000000
_cell_angle_gamma 90.000000
_cell_volume 3556.099236
_symmetry_space_group_name_H-M "I B C A "
_symmetry_group_IT_number 73
_symmetry_cell_setting 'orthorhombic'
loop_
_space_group_symop_operation_xyz
x,y,z
-x,1/2-y,z
x,-y,1/2-z
1/2-x,y,-z
-x,-y,-z
x,1/2+y,-z
-x,y,1/2+z
1/2+x,-y,z
1/2+x,1/2+y,1/2+z
1/2-x,-y,1/2+z
1/2+x,1/2-y,-z
-x,1/2+y,1/2-z
1/2-x,1/2-y,1/2-z
1/2+x,y,1/2-z
1/2-x,1/2+y,z
x,1/2-y,1/2+z
loop_
_atom_site_type_symbol
_atom_site_label
_atom_site_fract_x
_atom_site_fract_y
_atom_site_fract_z
Si Si1 0.822600 0.244157 0.649224
Si Si2 0.823748 0.634170 0.328722
Si Si3 0.833812 0.343262 0.379769
Si Si4 0.909112 0.926091 0.404600
Si Si5 0.552620 0.579819 0.381280
Si Si6 0.536605 0.500000 0.250000
Si Si7 0.250000 0.504956 0.000000
O O1 0.750000 0.250000 0.750000
O O2 0.726909 0.287601 0.599511
O O3 0.000000 0.250000 0.650760
O O4 0.198832 0.313347 0.617651
O O5 0.875347 0.651265 0.227786
O O6 0.669183 0.608226 0.316626
O O7 0.933892 0.596094 0.378532
O O8 0.698492 0.379648 0.398062
O O9 0.967523 0.372943 0.426594
O O10 0.877791 0.966508 0.323413
O O11 0.878401 0.960775 0.494632
O O12 0.460411 0.541515 0.315483
O O13 0.662887 0.545799 0.439430
#
# Coordination Sequence:
#
# PCOD9530598 Si02
#       7
#    16  16  16  16  16   8   8
#     4  10  22  36  62 101 138 164 213 290 363 425
#     4  11  21  38  64  97 131 173 224 288 355 430
#     4  11  21  38  64  97 133 173 229 284 361 431
#     4  11  22  39  63  88 132 183 234 285 353 414
#     4  11  24  39  63  92 134 184 232 288 353 417
#     4  10  20  36  56  86 124 180 234 270 332 424
#     4  10  28  44  60  98 138 188 240 308 344 422
#
# _framework density 26.995873
#
# number of rings (size 3 to 8) (size 9 to 14) (size 15 to 20)
#    0.000    1.333    5.000    0.000    7.000    9.333 
#    0.000    0.000    0.000    1.000    0.000    0.000 
#    0.000    0.000    0.000    0.000    0.000    8.333 
#
# Total GULP energy -267407.842647 kJ/mol
# GULP energy per Si atom -5570.996722 kJ/mol
# Density = 2.693443 g / cm^3
# Si number density = 26.995873 Si / 1000 Ang^3
#
#
#
# Elastic Constant Matrix: (Units=GPa)
#
#
# Indices 1 2 3 4 5 6 
#
# 1 143.8367 83.4976 22.9313 0.0000 0.0000 0.0000
# 2 83.4976 200.3737 33.7753 0.0000 0.0000 0.0000
# 3 22.9313 33.7753 103.3271 0.0000 0.0000 0.0000
# 4 0.0000 0.0000 0.0000 22.9358 0.0000 0.0000
# 5 0.0000 0.0000 0.0000 0.0000 11.1188 0.0000
# 6 0.0000 0.0000 0.0000 0.0000 0.0000 25.7797
#
#
#
# Elastic Compliance Matrix: (Units=1/GPa)
#
#
# Indices 1 2 3 4 5 6 
#
# 1 0.009239 -0.003709 -0.000838 0.000000 0.000000 0.000000
# 2 -0.003709 0.006770 -0.001390 0.000000 0.000000 0.000000
# 3 -0.000838 -0.001390 0.010318 0.000000 0.000000 0.000000
# 4 0.000000 0.000000 0.000000 0.043600 0.000000 0.000000
# 5 0.000000 0.000000 0.000000 0.000000 0.089938 0.000000
# 6 0.000000 0.000000 0.000000 0.000000 0.000000 0.038790
#
#
# Mechanical properties :
#
#
# Convention : Reuss Voigt Hill
#
# Bulk Modulus (GPa) = 69.18473 80.88290 75.03382
# Shear Modulus (GPa) = 23.21830 32.45573 27.83702
#
# Velocity S-wave (km/s) = 2.93587 3.47111 3.21465
# Velocity P-wave (km/s) = 6.09721 6.78904 6.45240
#
# Compressibility (1/GPa) = 0.01445406
#
# Stress axis : x y z
#
# Youngs Moduli (GPa) = 108.23904 147.70169 96.91455
#
# Poissons Ratio (x) = 0.54777 0.08122
# Poissons Ratio (y) = 0.40142 0.13471
# Poissons Ratio (z) = 0.09071 0.20531
#
# Static dielectric constant tensor:
#      x y z
#    x 2.055450 0.000000 0.000000 
#    y 0.000000 2.102800 0.000000 
#    z 0.000000 0.000000 2.495550 
# 
# From -- ./inp_files/24904.got.cif
#   From: 2010.05.17/outbox.cif.g08.bks.cpg/sg73_13_cif.got.tgz:24904.got - 2010.06.03 17:35:07.
