data_PCOD9530975
_publ_section_title
;
Structure prediction by ZEFSAII (Michael W. Deem and Ramdas Pophale) SiO2 
 PCOD9530975
Probable space group: I B C A 
;
_chemical_formula_sum "Si O2"
_cell_formula_units_Z 104
_cell_length_a 27.548551
_cell_length_b 20.050000
_cell_length_c 9.179697
_cell_angle_alpha 90.000000
_cell_angle_beta 90.000000
_cell_angle_gamma 90.000000
_cell_volume 5070.391387
_symmetry_space_group_name_H-M "I B C A "
_symmetry_group_IT_number 73
_symmetry_cell_setting 'orthorhombic'
loop_
_space_group_symop_operation_xyz
x,y,z
-x,1/2-y,z
x,-y,1/2-z
1/2-x,y,-z
-x,-y,-z
x,1/2+y,-z
-x,y,1/2+z
1/2+x,-y,z
1/2+x,1/2+y,1/2+z
1/2-x,-y,1/2+z
1/2+x,1/2-y,-z
-x,1/2+y,1/2-z
1/2-x,1/2-y,1/2-z
1/2+x,y,1/2-z
1/2-x,1/2+y,z
x,1/2-y,1/2+z
loop_
_atom_site_type_symbol
_atom_site_label
_atom_site_fract_x
_atom_site_fract_y
_atom_site_fract_z
Si Si1 0.454106 0.032298 0.590914
Si Si2 0.923868 0.852959 0.105284
Si Si3 0.798769 0.163381 0.068868
Si Si4 0.000000 0.250000 0.291939
Si Si5 0.421257 0.846514 0.715591
Si Si6 0.380272 0.557634 0.651887
Si Si7 0.338681 0.751003 0.315320
O O1 0.441820 0.109030 0.650194
O O2 0.409737 0.025493 0.479603
O O3 0.455303 0.000000 0.750000
O O4 0.500000 0.000000 0.500000
O O5 0.918143 0.904299 0.239491
O O6 0.878720 0.803085 0.127118
O O7 0.971392 0.807513 0.122472
O O8 0.921477 0.881801 0.941953
O O9 0.840611 0.108705 0.091941
O O10 0.801535 0.207025 0.216342
O O11 0.750000 0.132683 0.000000
O O12 0.812783 0.217436 0.949073
O O13 0.041111 0.214067 0.199426
O O14 0.369748 0.809832 0.742761
O O15 0.356836 0.500000 0.750000
#
# Coordination Sequence:
#
# PCOD9530975 Si02
#       7
#    16  16  16   8  16  16  16
#     4  12  28  44  64  91 126 177 234 277 316 388
#     4  10  22  40  64  92 135 175 216 271 333 391
#     4  11  22  42  73 103 133 168 216 282 347 417
#     4  10  24  32  60  96 128 166 218 264 324 386
#     4  11  22  39  61  89 134 168 218 270 328 389
#     4  11  25  46  67  91 131 182 224 274 332 398
#     4  10  20  40  66 101 135 165 212 269 350 413
#
# _framework density 20.511237000000001
#
# number of rings (size 3 to 8) (size 9 to 14) (size 15 to 20)
#    0.000    1.231    3.077    2.308    6.462    0.000 
#    0.000    0.769    0.000    0.000    0.000    0.000 
#    0.000    0.000    0.000    0.000    0.000    0.000 
#
# Total GULP energy -289616.114823 kJ/mol
# GULP energy per Si atom -5569.540670 kJ/mol
# Density = 2.046455 g / cm^3
# Si number density = 20.511237 Si / 1000 Ang^3
#
#
#
# Elastic Constant Matrix: (Units=GPa)
#
#
# Indices 1 2 3 4 5 6 
#
# 1 53.6068 13.7123 28.6670 0.0000 0.0000 0.0000
# 2 13.7123 68.5285 31.1129 0.0000 0.0000 0.0000
# 3 28.6670 31.1129 128.2498 0.0000 0.0000 0.0000
# 4 0.0000 0.0000 0.0000 34.9927 0.0000 0.0000
# 5 0.0000 0.0000 0.0000 0.0000 3.6452 0.0000
# 6 0.0000 0.0000 0.0000 0.0000 0.0000 19.1501
#
#
#
# Elastic Compliance Matrix: (Units=1/GPa)
#
#
# Indices 1 2 3 4 5 6 
#
# 1 0.021528 -0.002386 -0.004233 0.000000 0.000000 0.000000
# 2 -0.002386 0.016663 -0.003509 0.000000 0.000000 0.000000
# 3 -0.004233 -0.003509 0.009595 0.000000 0.000000 0.000000
# 4 0.000000 0.000000 0.000000 0.028577 0.000000 0.000000
# 5 0.000000 0.000000 0.000000 0.000000 0.274330 0.000000
# 6 0.000000 0.000000 0.000000 0.000000 0.000000 0.052219
#
#
# Mechanical properties :
#
#
# Convention : Reuss Voigt Hill
#
# Bulk Modulus (GPa) = 36.32419 44.15218 40.23819
# Shear Modulus (GPa) = 11.56481 23.35045 17.45763
#
# Velocity S-wave (km/s) = 2.37708 3.37771 2.92057
# Velocity P-wave (km/s) = 5.02811 6.06502 5.57074
#
# Compressibility (1/GPa) = 0.02752986
#
# Stress axis : x y z
#
# Youngs Moduli (GPa) = 46.45006 60.01302 104.22258
#
# Poissons Ratio (x) = 0.14318 0.44121
# Poissons Ratio (y) = 0.11082 0.36573
# Poissons Ratio (z) = 0.19664 0.21059
#
# Static dielectric constant tensor:
#      x y z
#    x 1.761700 0.000000 0.000000 
#    y 0.000000 1.656200 0.000000 
#    z 0.000000 0.000000 1.780300 
# 
# From -- ./inp_files/6588.got.cif
#   From: 2010.05.17/outbox.cif.g08.bks.cpg/sg73_4_cif.got.tgz:6588.got - 2010.06.03 17:35:07.
