data_PCOD9530925
_publ_section_title
;
Structure prediction by ZEFSAII (Michael W. Deem and Ramdas Pophale) SiO2 
 PCOD9530925
Probable space group: I B C A 
;
_chemical_formula_sum "Si O2"
_cell_formula_units_Z 112
_cell_length_a 32.197401
_cell_length_b 15.837477
_cell_length_c 9.881217
_cell_angle_alpha 90.000000
_cell_angle_beta 90.000000
_cell_angle_gamma 90.000000
_cell_volume 5038.685486
_symmetry_space_group_name_H-M "I B C A "
_symmetry_group_IT_number 73
_symmetry_cell_setting 'orthorhombic'
loop_
_space_group_symop_operation_xyz
x,y,z
-x,1/2-y,z
x,-y,1/2-z
1/2-x,y,-z
-x,-y,-z
x,1/2+y,-z
-x,y,1/2+z
1/2+x,-y,z
1/2+x,1/2+y,1/2+z
1/2-x,-y,1/2+z
1/2+x,1/2-y,-z
-x,1/2+y,1/2-z
1/2-x,1/2-y,1/2-z
1/2+x,y,1/2-z
1/2-x,1/2+y,z
x,1/2-y,1/2+z
loop_
_atom_site_type_symbol
_atom_site_label
_atom_site_fract_x
_atom_site_fract_y
_atom_site_fract_z
Si Si1 0.094345 0.819921 0.729811
Si Si2 0.662311 0.706320 0.682029
Si Si3 0.045712 0.722202 0.957820
Si Si4 0.466679 0.965149 0.606360
Si Si5 0.628688 0.529833 0.601559
Si Si6 0.205827 0.752707 0.572589
Si Si7 0.330539 0.434293 0.652509
O O1 0.127922 0.746021 0.723161
O O2 0.068492 0.794089 0.865816
O O3 0.067597 0.808843 0.595225
O O4 0.124858 0.901221 0.715531
O O5 0.638594 0.629158 0.613305
O O6 0.675375 0.764328 0.555601
O O7 0.699471 0.697142 0.791337
O O8 0.038338 0.635452 0.876352
O O9 0.000000 0.750000 0.997935
O O10 0.419177 0.993695 0.575969
O O11 0.480012 0.000000 0.750000
O O12 0.500000 0.000000 0.500000
O O13 0.640420 0.500000 0.750000
O O14 0.657771 0.508680 0.477396
O O15 0.250000 0.747221 0.500000
O O16 0.195817 0.850359 0.617103
O O17 0.308486 0.500000 0.750000
#
# Coordination Sequence:
#
# PCOD9530925 Si02
#       7
#    16  16  16  16  16  16  16
#     4  11  22  43  62  89 122 161 224 270 318 400
#     4  10  20  39  67  91 126 173 216 267 326 391
#     4  12  26  41  63  91 126 168 216 284 340 382
#     4  11  26  44  62  89 129 173 218 278 347 399
#     4  10  21  40  60  87 123 163 223 271 318 396
#     4  10  21  39  65 102 135 163 212 271 331 400
#     4  10  22  40  65  92 124 174 217 261 329 397
#
# _framework density 22.228020000000001
#
# number of rings (size 3 to 8) (size 9 to 14) (size 15 to 20)
#    0.000    1.429    2.857    2.571    4.000    5.143 
#    0.000    2.857    0.000    4.286    0.000    0.000 
#    0.000    0.000    0.000    0.000    0.000    0.000 
#
# Total GULP energy -311895.142022 kJ/mol
# GULP energy per Si atom -5569.556108 kJ/mol
# Density = 2.217743 g / cm^3
# Si number density = 22.228020 Si / 1000 Ang^3
#
#
#
# Elastic Constant Matrix: (Units=GPa)
#
#
# Indices 1 2 3 4 5 6 
#
# 1 64.3528 1.1894 20.5052 0.0000 0.0000 0.0000
# 2 1.1894 14.8047 1.4742 0.0000 0.0000 0.0000
# 3 20.5052 1.4742 76.3549 0.0000 0.0000 0.0000
# 4 0.0000 0.0000 0.0000 36.5127 0.0000 0.0000
# 5 0.0000 0.0000 0.0000 0.0000 -169.2132 0.0000
# 6 0.0000 0.0000 0.0000 0.0000 0.0000 15.2247
#
#
#
# Elastic Compliance Matrix: (Units=1/GPa)
#
#
# Indices 1 2 3 4 5 6 
#
# 1 0.017006 -0.000913 -0.004549 0.000000 0.000000 0.000000
# 2 -0.000913 0.067725 -0.001062 0.000000 0.000000 0.000000
# 3 -0.004549 -0.001062 0.014339 0.000000 0.000000 0.000000
# 4 0.000000 0.000000 0.000000 0.027388 0.000000 0.000000
# 5 0.000000 0.000000 0.000000 0.000000 -0.005910 0.000000
# 6 0.000000 0.000000 0.000000 0.000000 0.000000 0.065683
#
#
# Mechanical properties :
#
#
# Convention : Reuss Voigt Hill
#
# Bulk Modulus (GPa) = 11.62518 22.42778 17.02648
# Shear Modulus (GPa) = 21.93427 -14.67225 3.63101
#
# Velocity S-wave (km/s) = 3.14472 -2.57199 1.27948
# Velocity P-wave (km/s) = 4.29267 1.13649 3.13995
#
# Compressibility (1/GPa) = 0.08602018
#
# Stress axis : x y z
#
# Youngs Moduli (GPa) = 58.80349 14.76556 69.74004
#
# Poissons Ratio (x) = 0.01348 0.31727
# Poissons Ratio (y) = 0.05370 0.07409
# Poissons Ratio (z) = 0.26751 0.01569
#
# Static dielectric constant tensor:
#      x y z
#    x 1.894200 0.000000 0.000000 
#    y 0.000000 1.756550 0.000000 
#    z 0.000000 0.000000 1.764550 
# 
# From -- ./inp_files/14786.got.cif
#   From: 2010.05.17/outbox.cif.g08.bks.cpg/sg73_8_cif.got.tgz:14786.got - 2010.06.03 17:35:07.
