data_PCOD9530607
_publ_section_title
;
Structure prediction by ZEFSAII (Michael W. Deem and Ramdas Pophale) SiO2 
 PCOD9530607
Probable space group: I B C A 
;
_chemical_formula_sum "Si O2"
_cell_formula_units_Z 120
_cell_length_a 12.357231
_cell_length_b 22.508743
_cell_length_c 24.724324
_cell_angle_alpha 90.000000
_cell_angle_beta 90.000000
_cell_angle_gamma 90.000000
_cell_volume 6876.965315
_symmetry_space_group_name_H-M "I B C A "
_symmetry_group_IT_number 73
_symmetry_cell_setting 'orthorhombic'
loop_
_space_group_symop_operation_xyz
x,y,z
-x,1/2-y,z
x,-y,1/2-z
1/2-x,y,-z
-x,-y,-z
x,1/2+y,-z
-x,y,1/2+z
1/2+x,-y,z
1/2+x,1/2+y,1/2+z
1/2-x,-y,1/2+z
1/2+x,1/2-y,-z
-x,1/2+y,1/2-z
1/2-x,1/2-y,1/2-z
1/2+x,y,1/2-z
1/2-x,1/2+y,z
x,1/2-y,1/2+z
loop_
_atom_site_type_symbol
_atom_site_label
_atom_site_fract_x
_atom_site_fract_y
_atom_site_fract_z
Si Si1 0.488420 0.925848 0.202579
Si Si2 0.881466 0.863373 0.887488
Si Si3 0.500000 0.750000 0.075609
Si Si4 0.960191 0.061367 0.824182
Si Si5 0.279768 0.565254 0.632902
Si Si6 0.833303 0.429932 0.899404
Si Si7 0.644509 0.853788 0.531361
Si Si8 0.538101 0.067841 0.495083
O O1 0.553604 0.880963 0.165632
O O2 0.509062 0.913226 0.265298
O O3 0.363793 0.927667 0.182907
O O4 0.535804 0.990459 0.186616
O O5 0.913938 0.794975 0.896694
O O6 0.756567 0.881806 0.883430
O O7 0.925041 0.906232 0.936767
O O8 0.426442 0.796783 0.044375
O O9 0.842243 0.077051 0.847341
O O10 0.056122 0.075953 0.865595
O O11 0.289549 0.496924 0.611940
O O12 0.321587 0.608500 0.584879
O O13 0.867469 0.423176 0.961742
O O14 0.750000 0.835779 0.500000
O O15 0.570734 0.895482 0.493675
O O16 0.500000 0.000000 0.500000
#
# Coordination Sequence:
#
# PCOD9530607 Si02
#       8
#    16  16   8  16  16  16  16  16
#     4  10  20  36  57  86 120 166 195 247 311 377
#     4  11  22  40  60  86 118 166 210 251 296 370
#     4  10  24  44  58  84 118 178 228 236 292 374
#     4  10  22  33  58  93 126 152 198 253 322 373
#     4  11  20  37  57  90 127 159 198 248 322 377
#     4  11  22  34  58  92 129 157 197 256 315 373
#     4  11  23  37  62  85 125 167 207 258 305 365
#     4  11  20  34  56  91 126 157 198 246 319 382
#
# _framework density 17.449556999999999
#
# number of rings (size 3 to 8) (size 9 to 14) (size 15 to 20)
#    0.000    1.333    5.333    2.000    3.733    3.200 
#    0.000    0.000    0.000    3.200    0.000    0.000 
#    0.000    0.000    0.000    0.000    0.000    0.000 
#
# Total GULP energy -334557.363596 kJ/mol
# GULP energy per Si atom -5575.956060 kJ/mol
# Density = 1.740984 g / cm^3
# Si number density = 17.449557 Si / 1000 Ang^3
#
#
#
# Elastic Constant Matrix: (Units=GPa)
#
#
# Indices 1 2 3 4 5 6 
#
# 1 133.2115 46.6777 31.9363 0.0000 0.0000 0.0000
# 2 46.6777 107.6122 31.2265 0.0000 0.0000 0.0000
# 3 31.9363 31.2265 76.8275 0.0000 0.0000 0.0000
# 4 0.0000 0.0000 0.0000 16.7595 0.0000 0.0000
# 5 0.0000 0.0000 0.0000 0.0000 20.4000 0.0000
# 6 0.0000 0.0000 0.0000 0.0000 0.0000 28.4556
#
#
#
# Elastic Compliance Matrix: (Units=1/GPa)
#
#
# Indices 1 2 3 4 5 6 
#
# 1 0.009262 -0.003288 -0.002514 0.000000 0.000000 0.000000
# 2 -0.003288 0.011702 -0.003390 0.000000 0.000000 0.000000
# 3 -0.002514 -0.003390 0.015439 0.000000 0.000000 0.000000
# 4 0.000000 0.000000 0.000000 0.059668 0.000000 0.000000
# 5 0.000000 0.000000 0.000000 0.000000 0.049019 0.000000
# 6 0.000000 0.000000 0.000000 0.000000 0.000000 0.035142
#
#
# Mechanical properties :
#
#
# Convention : Reuss Voigt Hill
#
# Bulk Modulus (GPa) = 55.49259 59.70357 57.59808
# Shear Modulus (GPa) = 24.43538 26.97708 25.70623
#
# Velocity S-wave (km/s) = 3.74618 3.93619 3.84236
# Velocity P-wave (km/s) = 7.11214 7.41265 7.26395
#
# Compressibility (1/GPa) = 0.01802042
#
# Stress axis : x y z
#
# Youngs Moduli (GPa) = 107.97319 85.45267 64.77201
#
# Poissons Ratio (x) = 0.28096 0.16281
# Poissons Ratio (y) = 0.35501 0.21956
# Poissons Ratio (z) = 0.27140 0.28966
#
# Static dielectric constant tensor:
#      x y z
#    x 1.627120 0.000000 0.000000 
#    y 0.000000 1.806940 0.000000 
#    z 0.000000 0.000000 1.613430 
# 
# From -- ./inp_files/29089.got.cif
#   From: 2010.05.17/outbox.cif.g08.bks.cpg/sg73_15_cif.got.tgz:29089.got - 2010.06.03 17:35:07.
