data_PCOD9530822
_publ_section_title
;
Structure prediction by ZEFSAII (Michael W. Deem and Ramdas Pophale) SiO2 
 PCOD9530822
Probable space group: I B C A 
;
_chemical_formula_sum "Si O2"
_cell_formula_units_Z 104
_cell_length_a 16.165231
_cell_length_b 28.051114
_cell_length_c 11.646767
_cell_angle_alpha 90.000000
_cell_angle_beta 90.000000
_cell_angle_gamma 90.000000
_cell_volume 5281.258381
_symmetry_space_group_name_H-M "I B C A "
_symmetry_group_IT_number 73
_symmetry_cell_setting 'orthorhombic'
loop_
_space_group_symop_operation_xyz
x,y,z
-x,1/2-y,z
x,-y,1/2-z
1/2-x,y,-z
-x,-y,-z
x,1/2+y,-z
-x,y,1/2+z
1/2+x,-y,z
1/2+x,1/2+y,1/2+z
1/2-x,-y,1/2+z
1/2+x,1/2-y,-z
-x,1/2+y,1/2-z
1/2-x,1/2-y,1/2-z
1/2+x,y,1/2-z
1/2-x,1/2+y,z
x,1/2-y,1/2+z
loop_
_atom_site_type_symbol
_atom_site_label
_atom_site_fract_x
_atom_site_fract_y
_atom_site_fract_z
Si Si1 0.443650 0.500000 0.250000
Si Si2 0.090861 0.068690 0.687009
Si Si3 0.602147 0.824289 0.614195
Si Si4 0.150053 0.794475 0.634669
Si Si5 0.750000 0.275662 0.500000
Si Si6 0.850202 0.998458 0.986199
Si Si7 0.500000 0.750000 0.496638
Si Si8 0.834062 0.403151 0.925048
O O1 0.506238 0.544935 0.233510
O O2 0.385787 0.509952 0.360703
O O3 0.081539 0.120748 0.631671
O O4 0.120015 0.033066 0.587316
O O5 0.156476 0.077319 0.792749
O O6 0.637642 0.803563 0.732332
O O7 0.673772 0.810665 0.524424
O O8 0.523282 0.794416 0.575741
O O9 0.228902 0.762273 0.601200
O O10 0.075080 0.764850 0.582870
O O11 0.144805 0.847517 0.580431
O O12 0.750000 0.999018 0.000000
O O13 0.884078 0.944747 0.010264
O O14 0.750000 0.403013 0.000000
#
# Coordination Sequence:
#
# PCOD9530822 Si02
#       8
#     8  16  16  16   8  16   8  16
#     4  12  26  44  70  96 132 180 208 278 334 394
#     4  11  24  43  66  99 134 170 220 278 333 394
#     4  10  23  38  63  92 129 165 218 267 331 384
#     4  10  20  38  62  88 126 168 219 265 327 387
#     4  10  20  40  60  90 126 176 212 268 322 388
#     4  11  26  43  66  94 135 169 224 263 327 396
#     4  10  22  38  60  88 126 168 214 274 326 388
#     4  10  21  39  68  92 129 172 221 267 328 395
#
# _framework density 19.692276
#
# number of rings (size 3 to 8) (size 9 to 14) (size 15 to 20)
#    0.000    1.538    2.308    1.385    7.538    1.231 
#    0.000    0.000    0.000    0.000    0.000    0.000 
#    0.000    0.000    0.000    0.000    0.000    0.000 
#
# Total GULP energy -289478.326514 kJ/mol
# GULP energy per Si atom -5566.890894 kJ/mol
# Density = 1.964746 g / cm^3
# Si number density = 19.692276 Si / 1000 Ang^3
#
#
#
# Elastic Constant Matrix: (Units=GPa)
#
#
# Indices 1 2 3 4 5 6 
#
# 1 67.0869 34.4671 35.4038 0.0001 0.0000 0.0000
# 2 34.4671 132.5966 37.2344 0.0004 0.0000 0.0000
# 3 35.4038 37.2344 82.0014 0.0010 -0.0002 -0.0001
# 4 0.0001 0.0004 0.0010 -6.9807 -0.0002 -0.0001
# 5 0.0000 0.0000 -0.0002 -0.0002 34.1896 0.0000
# 6 0.0000 0.0000 -0.0001 -0.0001 0.0000 20.1861
#
#
#
# Elastic Compliance Matrix: (Units=1/GPa)
#
#
# Indices 1 2 3 4 5 6 
#
# 1 0.020459 -0.003252 -0.007356 -0.000001 0.000000 0.000000
# 2 -0.003252 0.009161 -0.002755 0.000000 0.000000 0.000000
# 3 -0.007356 -0.002755 0.016622 0.000002 0.000000 0.000000
# 4 -0.000001 0.000000 0.000002 -0.143253 -0.000001 -0.000001
# 5 0.000000 0.000000 0.000000 -0.000001 0.029249 0.000000
# 6 0.000000 0.000000 0.000000 -0.000001 0.000000 0.049539
#
#
# Mechanical properties :
#
#
# Convention : Reuss Voigt Hill
#
# Bulk Modulus (GPa) = 51.24587 55.09949 53.17268
# Shear Modulus (GPa) = 333.10535 21.11764 177.11150
#
# Velocity S-wave (km/s) = 13.02008 3.27828 9.49394
# Velocity P-wave (km/s) = 15.87797 6.50926 12.13426
#
# Compressibility (1/GPa) = 0.01951377
#
# Stress axis : x y z
#
# Youngs Moduli (GPa) = 48.87772 109.15999 60.16068
#
# Poissons Ratio (x) = 0.35503 0.44256
# Poissons Ratio (y) = 0.15897 0.16577
# Poissons Ratio (z) = 0.35956 0.30079
#
# Static dielectric constant tensor:
#      x y z
#    x 1.725480 0.000000 0.000000 
#    y 0.000000 1.698400 0.000000 
#    z 0.000000 0.000000 1.710230 
# 
# From -- ./inp_files/12210.got.cif
#   From: 2010.05.17/outbox.cif.g08.bks.cpg/sg73_7_cif.got.tgz:12210.got - 2010.06.03 17:35:07.
