data_PCOD9530151
_publ_section_title
;
Structure prediction by ZEFSAII (Michael W. Deem and Ramdas Pophale) SiO2 
 PCOD9530151
Probable space group: I B C A 
;
_chemical_formula_sum "Si O2"
_cell_formula_units_Z 88
_cell_length_a 10.425138
_cell_length_b 22.705773
_cell_length_c 21.674961
_cell_angle_alpha 90.000000
_cell_angle_beta 90.000000
_cell_angle_gamma 90.000000
_cell_volume 5130.697725
_symmetry_space_group_name_H-M "I B C A "
_symmetry_group_IT_number 73
_symmetry_cell_setting 'orthorhombic'
loop_
_space_group_symop_operation_xyz
x,y,z
-x,1/2-y,z
x,-y,1/2-z
1/2-x,y,-z
-x,-y,-z
x,1/2+y,-z
-x,y,1/2+z
1/2+x,-y,z
1/2+x,1/2+y,1/2+z
1/2-x,-y,1/2+z
1/2+x,1/2-y,-z
-x,1/2+y,1/2-z
1/2-x,1/2-y,1/2-z
1/2+x,y,1/2-z
1/2-x,1/2+y,z
x,1/2-y,1/2+z
loop_
_atom_site_type_symbol
_atom_site_label
_atom_site_fract_x
_atom_site_fract_y
_atom_site_fract_z
Si Si1 0.121540 0.712201 0.820228
Si Si2 0.117924 0.500000 0.750000
Si Si3 0.216834 0.085902 0.357068
Si Si4 0.479388 0.085706 0.852351
Si Si5 0.373874 0.005407 0.958170
Si Si6 0.629198 0.282964 0.671171
O O1 0.094010 0.645631 0.837862
O O2 0.126455 0.714601 0.745799
O O3 0.249802 0.742130 0.845435
O O4 0.000000 0.750000 0.840947
O O5 0.193876 0.543851 0.703200
O O6 0.035244 0.458169 0.705681
O O7 0.369631 0.094782 0.364183
O O8 0.159283 0.051481 0.415927
O O9 0.150605 0.149717 0.349664
O O10 0.408395 0.055838 0.909516
O O11 0.250000 0.017787 0.000000
O O12 0.500000 0.000000 0.000000
O O13 0.500000 0.250000 0.650422
#
# Coordination Sequence:
#
# PCOD9530151 Si02
#       6
#    16   8  16  16  16  16
#     4  10  19  34  57  85 123 162 194 233 299 367
#     4  10  22  32  54  96 124 154 202 240 318 354
#     4  11  21  38  61  86 127 159 195 258 298 367
#     4  11  21  37  62  86 125 160 199 256 294 372
#     4  11  24  43  63  89 115 160 212 252 305 349
#     4  10  21  34  55  89 126 160 194 238 295 368
#
# _framework density 17.151662999999999
#
# number of rings (size 3 to 8) (size 9 to 14) (size 15 to 20)
#    0.000    1.455    5.455    0.545    0.000    1.455 
#    3.273    0.000    0.000    6.545    0.000    0.000 
#    0.000    0.000    0.000    0.000    0.000    0.000 
#
# Total GULP energy -245399.863543 kJ/mol
# GULP energy per Si atom -5577.269626 kJ/mol
# Density = 1.711263 g / cm^3
# Si number density = 17.151663 Si / 1000 Ang^3
#
#
#
# Elastic Constant Matrix: (Units=GPa)
#
#
# Indices 1 2 3 4 5 6 
#
# 1 162.4297 80.0134 50.5880 0.0000 0.0000 0.0000
# 2 80.0134 156.8242 42.3825 0.0000 0.0000 0.0000
# 3 50.5880 42.3825 76.1615 0.0000 0.0000 0.0000
# 4 0.0000 0.0000 0.0000 20.6193 0.0000 0.0000
# 5 0.0000 0.0000 0.0000 0.0000 12.7697 0.0000
# 6 0.0000 0.0000 0.0000 0.0000 0.0000 31.5252
#
#
#
# Elastic Compliance Matrix: (Units=1/GPa)
#
#
# Indices 1 2 3 4 5 6 
#
# 1 0.009205 -0.003583 -0.004120 0.000000 0.000000 0.000000
# 2 -0.003583 0.008900 -0.002573 0.000000 0.000000 0.000000
# 3 -0.004120 -0.002573 0.017298 0.000000 0.000000 0.000000
# 4 0.000000 0.000000 0.000000 0.048498 0.000000 0.000000
# 5 0.000000 0.000000 0.000000 0.000000 0.078311 0.000000
# 6 0.000000 0.000000 0.000000 0.000000 0.000000 0.031721
#
#
# Mechanical properties :
#
#
# Convention : Reuss Voigt Hill
#
# Bulk Modulus (GPa) = 67.33399 82.37593 74.85496
# Shear Modulus (GPa) = 22.78585 27.81160 25.29873
#
# Velocity S-wave (km/s) = 3.64880 4.03117 3.84474
# Velocity P-wave (km/s) = 7.55612 8.35460 7.96537
#
# Compressibility (1/GPa) = 0.01485134
#
# Stress axis : x y z
#
# Youngs Moduli (GPa) = 108.64133 112.36108 57.80877
#
# Poissons Ratio (x) = 0.40257 0.23818
# Poissons Ratio (y) = 0.38924 0.14873
# Poissons Ratio (z) = 0.44761 0.28909
#
# Static dielectric constant tensor:
#      x y z
#    x 1.585780 0.000000 0.000000 
#    y 0.000000 1.472970 0.000000 
#    z 0.000000 0.000000 1.575060 
# 
# From -- ./inp_files/7064.got.cif
#   From: 2010.05.17/outbox.cif.g08.bks.cpg/sg73_4_cif.got.tgz:7064.got - 2010.06.03 17:35:07.
