data_PCOD9530595
_publ_section_title
;
Structure prediction by ZEFSAII (Michael W. Deem and Ramdas Pophale) SiO2 
 PCOD9530595
Probable space group: I B C A 
;
_chemical_formula_sum "Si O2"
_cell_formula_units_Z 80
_cell_length_a 8.238516
_cell_length_b 23.261147
_cell_length_c 20.944619
_cell_angle_alpha 90.000000
_cell_angle_beta 90.000000
_cell_angle_gamma 90.000000
_cell_volume 4013.770899
_symmetry_space_group_name_H-M "I B C A "
_symmetry_group_IT_number 73
_symmetry_cell_setting 'orthorhombic'
loop_
_space_group_symop_operation_xyz
x,y,z
-x,1/2-y,z
x,-y,1/2-z
1/2-x,y,-z
-x,-y,-z
x,1/2+y,-z
-x,y,1/2+z
1/2+x,-y,z
1/2+x,1/2+y,1/2+z
1/2-x,-y,1/2+z
1/2+x,1/2-y,-z
-x,1/2+y,1/2-z
1/2-x,1/2-y,1/2-z
1/2+x,y,1/2-z
1/2-x,1/2+y,z
x,1/2-y,1/2+z
loop_
_atom_site_type_symbol
_atom_site_label
_atom_site_fract_x
_atom_site_fract_y
_atom_site_fract_z
Si Si1 0.784907 0.500000 0.750000
Si Si2 0.526754 0.069142 0.323741
Si Si3 0.500000 0.750000 0.601960
Si Si4 0.694685 0.178537 0.797830
Si Si5 0.948745 0.811506 0.162994
Si Si6 0.189187 0.636388 0.930305
O O1 0.674121 0.551429 0.722909
O O2 0.897623 0.518920 0.809272
O O3 0.428054 0.125469 0.304148
O O4 0.593073 0.085805 0.393382
O O5 0.634319 0.776743 0.648947
O O6 0.419665 0.804652 0.566213
O O7 0.660396 0.199537 0.726044
O O8 0.879718 0.162704 0.813557
O O9 0.842781 0.848192 0.114616
O O10 0.000000 0.750000 0.134395
O O11 0.250000 0.620562 0.000000
#
# Coordination Sequence:
#
# PCOD9530595 Si02
#       6
#     8  16   8  16  16  16
#     4  10  20  42  70  94 118 146 204 274 348 356
#     4  10  22  39  65  94 120 156 198 265 318 378
#     4  10  20  36  56  82 122 160 198 246 294 362
#     4  11  20  35  59  93 121 151 197 254 314 361
#     4  12  21  33  56  88 126 163 197 241 299 354
#     4  11  25  40  57  85 127 170 214 240 292 375
#
# _framework density 19.931381999999999
#
# number of rings (size 3 to 8) (size 9 to 14) (size 15 to 20)
#    0.000    1.200    3.000    5.400    1.400    1.600 
#    0.000    4.000    0.000    0.000    0.000    0.000 
#    0.000    0.000    0.000    0.000    0.000    0.000 
#
# Total GULP energy -223223.176001 kJ/mol
# GULP energy per Si atom -5580.579400 kJ/mol
# Density = 1.988602 g / cm^3
# Si number density = 19.931382 Si / 1000 Ang^3
#
#
#
# Elastic Constant Matrix: (Units=GPa)
#
#
# Indices 1 2 3 4 5 6 
#
# 1 130.5146 32.0659 54.0632 0.0000 0.0000 0.0000
# 2 32.0659 65.6670 29.2704 0.0000 0.0000 0.0000
# 3 54.0632 29.2704 84.6981 0.0000 0.0000 0.0000
# 4 0.0000 0.0000 0.0000 20.9025 0.0000 0.0000
# 5 0.0000 0.0000 0.0000 0.0000 16.9578 0.0000
# 6 0.0000 0.0000 0.0000 0.0000 0.0000 28.4225
#
#
#
# Elastic Compliance Matrix: (Units=1/GPa)
#
#
# Indices 1 2 3 4 5 6 
#
# 1 0.010778 -0.002596 -0.005982 0.000000 0.000000 0.000000
# 2 -0.002596 0.018627 -0.004780 0.000000 0.000000 0.000000
# 3 -0.005982 -0.004780 0.017277 0.000000 0.000000 0.000000
# 4 0.000000 0.000000 0.000000 0.047841 0.000000 0.000000
# 5 0.000000 0.000000 0.000000 0.000000 0.058970 0.000000
# 6 0.000000 0.000000 0.000000 0.000000 0.000000 0.035183
#
#
# Mechanical properties :
#
#
# Convention : Reuss Voigt Hill
#
# Bulk Modulus (GPa) = 50.08870 56.85318 53.47094
# Shear Modulus (GPa) = 22.51764 24.28858 23.40311
#
# Velocity S-wave (km/s) = 3.36483 3.49465 3.43035
# Velocity P-wave (km/s) = 6.34675 6.69849 6.52499
#
# Compressibility (1/GPa) = 0.01996458
#
# Stress axis : x y z
#
# Youngs Moduli (GPa) = 92.78199 53.68616 57.88035
#
# Poissons Ratio (x) = 0.13939 0.34626
# Poissons Ratio (y) = 0.24090 0.27666
# Poissons Ratio (z) = 0.55505 0.25661
#
# Static dielectric constant tensor:
#      x y z
#    x 1.756870 0.000000 0.000000 
#    y 0.000000 1.768260 0.000000 
#    z 0.000000 0.000000 1.656970 
# 
# From -- ./inp_files/6397.got.cif
#   From: 2010.05.17/outbox.cif.g08.bks.cpg/sg73_4_cif.got.tgz:6397.got - 2010.06.03 17:35:07.
