data_PCOD9530585
_publ_section_title
;
Structure prediction by ZEFSAII (Michael W. Deem and Ramdas Pophale) SiO2 
 PCOD9530585
Probable space group: I B C A 
;
_chemical_formula_sum "Si O2"
_cell_formula_units_Z 128
_cell_length_a 11.237269
_cell_length_b 25.666491
_cell_length_c 24.424616
_cell_angle_alpha 90.000000
_cell_angle_beta 90.000000
_cell_angle_gamma 90.000000
_cell_volume 7044.578611
_symmetry_space_group_name_H-M "I B C A "
_symmetry_group_IT_number 73
_symmetry_cell_setting 'orthorhombic'
loop_
_space_group_symop_operation_xyz
x,y,z
-x,1/2-y,z
x,-y,1/2-z
1/2-x,y,-z
-x,-y,-z
x,1/2+y,-z
-x,y,1/2+z
1/2+x,-y,z
1/2+x,1/2+y,1/2+z
1/2-x,-y,1/2+z
1/2+x,1/2-y,-z
-x,1/2+y,1/2-z
1/2-x,1/2-y,1/2-z
1/2+x,y,1/2-z
1/2-x,1/2+y,z
x,1/2-y,1/2+z
loop_
_atom_site_type_symbol
_atom_site_label
_atom_site_fract_x
_atom_site_fract_y
_atom_site_fract_z
Si Si1 0.034511 0.474876 0.310543
Si Si2 0.956361 0.689627 0.897835
Si Si3 0.784658 0.009964 0.683468
Si Si4 0.809223 0.816409 0.632450
Si Si5 0.363998 0.126775 0.830300
Si Si6 0.883173 0.785774 0.516805
Si Si7 0.987696 0.637334 0.215881
Si Si8 0.684979 0.717974 0.298357
O O1 0.023617 0.500000 0.250000
O O2 0.150635 0.501886 0.336605
O O3 0.903334 0.480494 0.335923
O O4 0.057797 0.413407 0.304406
O O5 0.833276 0.678922 0.866047
O O6 0.000000 0.750000 0.888371
O O7 0.055611 0.649100 0.879028
O O8 0.924038 0.685330 0.961693
O O9 0.811301 0.069318 0.666192
O O10 0.777908 0.000000 0.750000
O O11 0.856413 0.819841 0.570519
O O12 0.877511 0.852643 0.675195
O O13 0.835867 0.757709 0.652447
O O14 0.443828 0.124472 0.775993
O O15 0.268013 0.171266 0.818231
O O16 0.750000 0.762240 0.500000
O O17 0.000000 0.750000 0.528902
O O18 0.064449 0.689718 0.219202
O O19 0.750000 0.750000 0.250000
#
# Coordination Sequence:
#
# PCOD9530585 Si02
#       8
#    16  16  16  16  16  16  16  16
#     4  10  20  36  53  73 107 144 196 234 276 334
#     4  10  21  36  55  78 111 151 194 234 282 332
#     4  10  20  36  53  74 104 146 186 238 278 334
#     4  11  22  36  54  77 116 155 194 229 271 336
#     4  12  22  33  52  78 114 148 183 230 285 340
#     4   9  19  37  56  77 104 151 201 242 277 319
#     4  12  23  33  52  81 110 154 189 226 280 343
#     4  12  23  33  47  78 119 155 181 221 271 343
#
# _framework density 18.170000000000002
#
# number of rings (size 3 to 8) (size 9 to 14) (size 15 to 20)
#    0.000    1.250    6.250    1.875    0.000    1.000 
#    0.000    0.000    0.000    0.000    0.000    0.875 
#    0.000    0.000    0.000    0.000    0.000    0.000 
#
# Total GULP energy -356524.828697 kJ/mol
# GULP energy per Si atom -5570.700448 kJ/mol
# Density = 1.812864 g / cm^3
# Si number density = 18.170000 Si / 1000 Ang^3
#
#
#
# Elastic Constant Matrix: (Units=GPa)
#
#
# Indices 1 2 3 4 5 6 
#
# 1 98.8143 6.2222 14.9342 0.0000 0.0000 0.0000
# 2 6.2222 68.3697 6.1971 0.0000 0.0000 0.0000
# 3 14.9342 6.1971 50.7094 0.0000 0.0000 0.0000
# 4 0.0000 0.0000 0.0000 3.0537 0.0000 0.0000
# 5 0.0000 0.0000 0.0000 0.0000 26.9369 0.0000
# 6 0.0000 0.0000 0.0000 0.0000 0.0000 -33.0809
#
#
#
# Elastic Compliance Matrix: (Units=1/GPa)
#
#
# Indices 1 2 3 4 5 6 
#
# 1 0.010624 -0.000691 -0.003044 0.000000 0.000000 0.000000
# 2 -0.000691 0.014835 -0.001609 0.000000 0.000000 0.000000
# 3 -0.003044 -0.001609 0.020813 0.000000 0.000000 0.000000
# 4 0.000000 0.000000 0.000000 0.327474 0.000000 0.000000
# 5 0.000000 0.000000 0.000000 0.000000 0.037124 0.000000
# 6 0.000000 0.000000 0.000000 0.000000 0.000000 -0.030229
#
#
# Mechanical properties :
#
#
# Convention : Reuss Voigt Hill
#
# Bulk Modulus (GPa) = 28.10344 30.28893 29.19618
# Shear Modulus (GPa) = 12.40107 12.08461 12.24284
#
# Velocity S-wave (km/s) = 2.61531 2.58172 2.59857
# Velocity P-wave (km/s) = 4.96189 5.05895 5.01065
#
# Compressibility (1/GPa) = 0.03558283
#
# Stress axis : x y z
#
# Youngs Moduli (GPa) = 94.13010 67.40757 48.04584
#
# Poissons Ratio (x) = 0.04657 0.14626
# Poissons Ratio (y) = 0.06503 0.07733
# Poissons Ratio (z) = 0.28656 0.10849
#
# Static dielectric constant tensor:
#      x y z
#    x 1.660780 0.000000 0.000000 
#    y 0.000000 2.125790 0.000000 
#    z 0.000000 0.000000 1.602140 
# 
# From -- ./inp_files/13977.got.cif
#   From: 2010.05.17/outbox.cif.g08.bks.cpg/sg73_7_cif.got.tgz:13977.got - 2010.06.03 17:35:07.
