data_PCOD9530422
_publ_section_title
;
Structure prediction by ZEFSAII (Michael W. Deem and Ramdas Pophale) SiO2 
 PCOD9530422
Probable space group: I B C A 
;
_chemical_formula_sum "Si O2"
_cell_formula_units_Z 88
_cell_length_a 5.066111
_cell_length_b 34.513135
_cell_length_c 26.827108
_cell_angle_alpha 90.000000
_cell_angle_beta 90.000000
_cell_angle_gamma 90.000000
_cell_volume 4690.649355
_symmetry_space_group_name_H-M "I B C A "
_symmetry_group_IT_number 73
_symmetry_cell_setting 'orthorhombic'
loop_
_space_group_symop_operation_xyz
x,y,z
-x,1/2-y,z
x,-y,1/2-z
1/2-x,y,-z
-x,-y,-z
x,1/2+y,-z
-x,y,1/2+z
1/2+x,-y,z
1/2+x,1/2+y,1/2+z
1/2-x,-y,1/2+z
1/2+x,1/2-y,-z
-x,1/2+y,1/2-z
1/2-x,1/2-y,1/2-z
1/2+x,y,1/2-z
1/2-x,1/2+y,z
x,1/2-y,1/2+z
loop_
_atom_site_type_symbol
_atom_site_label
_atom_site_fract_x
_atom_site_fract_y
_atom_site_fract_z
Si Si1 0.224351 0.845985 0.870493
Si Si2 0.484039 0.795519 0.718230
Si Si3 0.750000 0.651668 0.500000
Si Si4 0.728594 0.525763 0.558980
Si Si5 0.300502 0.890542 0.402941
Si Si6 0.369042 0.287095 0.948471
O O1 0.095615 0.823574 0.824151
O O2 0.483651 0.872410 0.865670
O O3 0.301760 0.811209 0.909271
O O4 0.988922 0.873485 0.890936
O O5 0.500000 0.750000 0.704104
O O6 0.182683 0.801786 0.735014
O O7 0.616756 0.624982 0.458216
O O8 0.564104 0.680371 0.530513
O O9 0.750000 0.536085 0.500000
O O10 0.440984 0.508024 0.567900
O O11 0.786926 0.563422 0.591870
O O12 0.500000 0.250000 0.923111
O O13 0.250000 0.271387 0.000000
#
# Coordination Sequence:
#
# PCOD9530422 Si02
#       6
#    16  16   8  16  16  16
#     4  11  23  35  56  82 108 148 186 234 281 334
#     4  10  21  40  61  83 111 146 190 245 296 337
#     4  10  20  32  44  68 102 152 182 226 258 306
#     4  10  20  34  53  77 107 152 194 226 265 325
#     4  11  21  35  53  78 114 142 189 223 276 323
#     4  11  20  32  46  68 105 148 191 221 256 308
#
# _framework density 18.760729999999999
#
# number of rings (size 3 to 8) (size 9 to 14) (size 15 to 20)
#    0.000    1.455    3.636    2.727    0.000    0.000 
#    0.000    2.727    0.000    0.000    0.000    0.000 
#    0.000   50.909    0.000    0.000    0.000    0.000 
#
# Total GULP energy -245322.512174 kJ/mol
# GULP energy per Si atom -5575.511640 kJ/mol
# Density = 1.871803 g / cm^3
# Si number density = 18.760730 Si / 1000 Ang^3
#
#
#
# Elastic Constant Matrix: (Units=GPa)
#
#
# Indices 1 2 3 4 5 6 
#
# 1 62.2259 8.9286 -8.3172 0.0000 0.0000 0.0000
# 2 8.9286 91.1265 20.4810 0.0000 0.0000 0.0000
# 3 -8.3172 20.4810 33.2043 0.0000 0.0000 0.0000
# 4 0.0000 0.0000 0.0000 19.8107 0.0000 0.0000
# 5 0.0000 0.0000 0.0000 0.0000 19.6941 0.0000
# 6 0.0000 0.0000 0.0000 0.0000 0.0000 21.9016
#
#
#
# Elastic Compliance Matrix: (Units=1/GPa)
#
#
# Indices 1 2 3 4 5 6 
#
# 1 0.017354 -0.003108 0.006264 0.000000 0.000000 0.000000
# 2 -0.003108 0.013297 -0.008980 0.000000 0.000000 0.000000
# 3 0.006264 -0.008980 0.037225 0.000000 0.000000 0.000000
# 4 0.000000 0.000000 0.000000 0.050478 0.000000 0.000000
# 5 0.000000 0.000000 0.000000 0.000000 0.050777 0.000000
# 6 0.000000 0.000000 0.000000 0.000000 0.000000 0.045659
#
#
# Mechanical properties :
#
#
# Convention : Reuss Voigt Hill
#
# Bulk Modulus (GPa) = 17.78522 25.41573 21.60048
# Shear Modulus (GPa) = 20.39328 23.31224 21.85276
#
# Velocity S-wave (km/s) = 3.30057 3.52889 3.41664
# Velocity P-wave (km/s) = 4.90160 5.49370 5.20608
#
# Compressibility (1/GPa) = 0.05622645
#
# Stress axis : x y z
#
# Youngs Moduli (GPa) = 57.62453 75.20708 26.86388
#
# Poissons Ratio (x) = 0.23376 -0.16828
# Poissons Ratio (y) = 0.17911 0.24124
# Poissons Ratio (z) = -0.36096 0.67537
#
# Static dielectric constant tensor:
#      x y z
#    x 1.687660 0.000000 0.000000 
#    y 0.000000 1.652820 0.000000 
#    z 0.000000 0.000000 1.683520 
# 
# From -- ./inp_files/2273.got.cif
#   From: 2010.05.17/outbox.cif.g08.bks.cpg/sg73_2_cif.got.tgz:2273.got - 2010.06.03 17:35:07.
