data_PCOD9530319
_publ_section_title
;
Structure prediction by ZEFSAII (Michael W. Deem and Ramdas Pophale) SiO2 
 PCOD9530319
Probable space group: I B C A 
;
_chemical_formula_sum "Si O2"
_cell_formula_units_Z 88
_cell_length_a 26.741713
_cell_length_b 9.265050
_cell_length_c 14.440301
_cell_angle_alpha 90.000000
_cell_angle_beta 90.000000
_cell_angle_gamma 90.000000
_cell_volume 3577.776745
_symmetry_space_group_name_H-M "I B C A "
_symmetry_group_IT_number 73
_symmetry_cell_setting 'orthorhombic'
loop_
_space_group_symop_operation_xyz
x,y,z
-x,1/2-y,z
x,-y,1/2-z
1/2-x,y,-z
-x,-y,-z
x,1/2+y,-z
-x,y,1/2+z
1/2+x,-y,z
1/2+x,1/2+y,1/2+z
1/2-x,-y,1/2+z
1/2+x,1/2-y,-z
-x,1/2+y,1/2-z
1/2-x,1/2-y,1/2-z
1/2+x,y,1/2-z
1/2-x,1/2+y,z
x,1/2-y,1/2+z
loop_
_atom_site_type_symbol
_atom_site_label
_atom_site_fract_x
_atom_site_fract_y
_atom_site_fract_z
Si Si1 0.526875 0.014321 0.860676
Si Si2 0.405583 0.257938 0.144753
Si Si3 0.356510 0.685198 0.541569
Si Si4 0.250000 0.309733 0.500000
Si Si5 0.070074 0.833836 0.351927
Si Si6 0.813026 0.436210 0.844403
O O1 0.551076 0.171378 0.879028
O O2 0.469190 0.046277 0.886350
O O3 0.528830 0.000000 0.750000
O O4 0.554808 0.866803 0.888263
O O5 0.425794 0.331130 0.239550
O O6 0.352040 0.191594 0.176965
O O7 0.388619 0.337487 0.051202
O O8 0.299292 0.718207 0.517536
O O9 0.377385 0.825875 0.595994
O O10 0.350908 0.548044 0.606853
O O11 0.232507 0.400223 0.411369
O O12 0.793263 0.500000 0.750000
#
# Coordination Sequence:
#
# PCOD9530319 Si02
#       6
#    16  16  16   8  16  16
#     4   9  18  37  62  90 130 168 209 260 324 387
#     4  10  20  39  65  91 129 173 215 277 324 389
#     4  11  22  40  65  96 125 170 229 264 340 399
#     4  10  26  40  60 102 130 160 222 290 332 398
#     4  10  19  38  65  93 124 178 217 256 334 405
#     4  11  20  43  68  87 129 180 213 274 341 404
#
# _framework density 24.596278999999999
#
# number of rings (size 3 to 8) (size 9 to 14) (size 15 to 20)
#    0.000    1.818    3.636    1.091    0.000    1.455 
#    9.818    7.273    0.000    3.273    0.000    0.000 
#    0.000    0.000    0.000    0.000    0.000    0.000 
#
# Total GULP energy -245696.748676 kJ/mol
# GULP energy per Si atom -5584.017015 kJ/mol
# Density = 2.454030 g / cm^3
# Si number density = 24.596279 Si / 1000 Ang^3
#
#
#
# Elastic Constant Matrix: (Units=GPa)
#
#
# Indices 1 2 3 4 5 6 
#
# 1 122.2363 34.8638 23.5656 0.0000 0.0000 0.0000
# 2 34.8638 59.0425 17.0047 0.0000 0.0000 0.0000
# 3 23.5656 17.0047 81.0279 0.0000 0.0000 0.0000
# 4 0.0000 0.0000 0.0000 23.6304 0.0000 0.0000
# 5 0.0000 0.0000 0.0000 0.0000 30.7017 0.0000
# 6 0.0000 0.0000 0.0000 0.0000 0.0000 12.4699
#
#
#
# Elastic Compliance Matrix: (Units=1/GPa)
#
#
# Indices 1 2 3 4 5 6 
#
# 1 0.010076 -0.005434 -0.001790 0.000000 0.000000 0.000000
# 2 -0.005434 0.020957 -0.002818 0.000000 0.000000 0.000000
# 3 -0.001790 -0.002818 0.013453 0.000000 0.000000 0.000000
# 4 0.000000 0.000000 0.000000 0.042318 0.000000 0.000000
# 5 0.000000 0.000000 0.000000 0.000000 0.032571 0.000000
# 6 0.000000 0.000000 0.000000 0.000000 0.000000 0.080193
#
#
# Mechanical properties :
#
#
# Convention : Reuss Voigt Hill
#
# Bulk Modulus (GPa) = 40.97887 45.90832 43.44360
# Shear Modulus (GPa) = 21.95030 25.81858 23.88444
#
# Velocity S-wave (km/s) = 2.99059 3.24341 3.11956
# Velocity P-wave (km/s) = 5.34991 5.72115 5.53864
#
# Compressibility (1/GPa) = 0.02440282
#
# Stress axis : x y z
#
# Youngs Moduli (GPa) = 99.24711 47.71613 74.33097
#
# Poissons Ratio (x) = 0.25930 0.13305
# Poissons Ratio (y) = 0.53932 0.20944
# Poissons Ratio (z) = 0.17765 0.13445
#
# Static dielectric constant tensor:
#      x y z
#    x 2.010710 0.000000 0.000000 
#    y 0.000000 2.119460 0.000000 
#    z 0.000000 0.000000 1.956370 
# 
# From -- ./inp_files/19756.got.cif
#   From: 2010.05.17/outbox.cif.g08.bks.cpg/sg73_10_cif.got.tgz:19756.got - 2010.06.03 17:35:07.
