data_PCOD9530130
_publ_section_title
;
Structure prediction by ZEFSAII (Michael W. Deem and Ramdas Pophale) SiO2 
 PCOD9530130
Probable space group: I B C A 
;
_chemical_formula_sum "Si O2"
_cell_formula_units_Z 120
_cell_length_a 8.100071
_cell_length_b 28.001991
_cell_length_c 30.776070
_cell_angle_alpha 90.000000
_cell_angle_beta 90.000000
_cell_angle_gamma 90.000000
_cell_volume 6980.570192
_symmetry_space_group_name_H-M "I B C A "
_symmetry_group_IT_number 73
_symmetry_cell_setting 'orthorhombic'
loop_
_space_group_symop_operation_xyz
x,y,z
-x,1/2-y,z
x,-y,1/2-z
1/2-x,y,-z
-x,-y,-z
x,1/2+y,-z
-x,y,1/2+z
1/2+x,-y,z
1/2+x,1/2+y,1/2+z
1/2-x,-y,1/2+z
1/2+x,1/2-y,-z
-x,1/2+y,1/2-z
1/2-x,1/2-y,1/2-z
1/2+x,y,1/2-z
1/2-x,1/2+y,z
x,1/2-y,1/2+z
loop_
_atom_site_type_symbol
_atom_site_label
_atom_site_fract_x
_atom_site_fract_y
_atom_site_fract_z
Si Si1 0.000000 0.750000 0.897404
Si Si2 0.285357 0.585840 0.691286
Si Si3 0.742336 0.383336 0.551731
Si Si4 0.173131 0.221839 0.451611
Si Si5 0.485902 0.855405 0.125029
Si Si6 0.630038 0.448368 0.771490
Si Si7 0.769494 0.439623 0.135000
Si Si8 0.595585 0.462140 0.612363
O O1 0.172822 0.757675 0.923621
O O2 0.979810 0.799630 0.872320
O O3 0.354990 0.629503 0.662523
O O4 0.449388 0.559896 0.708846
O O5 0.174875 0.590254 0.734456
O O6 0.186417 0.554710 0.656378
O O7 0.750000 0.389504 0.500000
O O8 0.640039 0.334115 0.559625
O O9 0.908968 0.369401 0.577970
O O10 0.677597 0.431720 0.573832
O O11 0.250000 0.222617 0.500000
O O12 0.000000 0.250000 0.448664
O O13 0.645311 0.888599 0.130003
O O14 0.639635 0.500000 0.750000
O O15 0.748335 0.446902 0.813155
O O16 0.593040 0.446665 0.113989
O O17 0.885164 0.480746 0.113891
#
# Coordination Sequence:
#
# PCOD9530130 Si02
#       8
#     8  16  16  16  16  16  16  16
#     4  10  20  38  60  80 118 152 188 244 300 350
#     4  10  20  32  52  81 114 139 181 225 285 339
#     4   9  20  38  56  80 114 150 191 238 283 339
#     4  10  19  33  58  89 113 141 188 254 307 341
#     4   9  21  38  56  83 113 150 187 238 286 340
#     4  11  19  29  52  82 108 141 175 226 283 338
#     4  11  22  35  55  81 114 148 189 228 285 338
#     4  11  21  36  52  78 114 153 181 235 278 343
#
# _framework density 17.190574000000002
#
# number of rings (size 3 to 8) (size 9 to 14) (size 15 to 20)
#    0.000    1.867    2.000    3.600    1.867    0.000 
#    0.000    3.333    0.000    3.200    0.000    0.000 
#    0.000    0.000    0.000    0.000    0.000    0.000 
#
# Total GULP energy -334228.585580 kJ/mol
# GULP energy per Si atom -5570.476426 kJ/mol
# Density = 1.715145 g / cm^3
# Si number density = 17.190574 Si / 1000 Ang^3
#
#
#
# Elastic Constant Matrix: (Units=GPa)
#
#
# Indices 1 2 3 4 5 6 
#
# 1 67.4743 29.1267 12.1938 0.0000 0.0000 0.0000
# 2 29.1267 126.6947 37.7134 0.0000 0.0000 0.0000
# 3 12.1938 37.7134 81.5678 0.0000 0.0000 0.0000
# 4 0.0000 0.0000 0.0000 13.0217 0.0000 0.0000
# 5 0.0000 0.0000 0.0000 0.0000 15.3198 0.0000
# 6 0.0000 0.0000 0.0000 0.0000 0.0000 22.2893
#
#
#
# Elastic Compliance Matrix: (Units=1/GPa)
#
#
# Indices 1 2 3 4 5 6 
#
# 1 0.016501 -0.003548 -0.000827 0.000000 0.000000 0.000000
# 2 -0.003548 0.009915 -0.004054 0.000000 0.000000 0.000000
# 3 -0.000827 -0.004054 0.014258 0.000000 0.000000 0.000000
# 4 0.000000 0.000000 0.000000 0.076795 0.000000 0.000000
# 5 0.000000 0.000000 0.000000 0.000000 0.065275 0.000000
# 6 0.000000 0.000000 0.000000 0.000000 0.000000 0.044865
#
#
# Mechanical properties :
#
#
# Convention : Reuss Voigt Hill
#
# Bulk Modulus (GPa) = 41.98527 48.20050 45.09288
# Shear Modulus (GPa) = 19.80951 23.23971 21.52461
#
# Velocity S-wave (km/s) = 3.39831 3.68079 3.54237
# Velocity P-wave (km/s) = 6.31462 6.79441 6.55891
#
# Compressibility (1/GPa) = 0.02381788
#
# Stress axis : x y z
#
# Youngs Moduli (GPa) = 60.60166 100.85387 70.13729
#
# Poissons Ratio (x) = 0.35778 0.05798
# Poissons Ratio (y) = 0.21499 0.28434
# Poissons Ratio (z) = 0.05009 0.40887
#
# Static dielectric constant tensor:
#      x y z
#    x 1.610010 0.000000 0.000000 
#    y 0.000000 1.592360 0.000000 
#    z 0.000000 0.000000 1.604920 
# 
# From -- ./inp_files/33680.got.cif
#   From: 2010.05.17/outbox.cif.g08.bks.cpg/sg73_17_cif.got.tgz:33680.got - 2010.06.03 17:35:07.
