data_PCOD9530827
_publ_section_title
;
Structure prediction by ZEFSAII (Michael W. Deem and Ramdas Pophale) SiO2 
 PCOD9530827
Probable space group: I B C A 
;
_chemical_formula_sum "Si O2"
_cell_formula_units_Z 64
_cell_length_a 9.430648
_cell_length_b 9.062188
_cell_length_c 33.402902
_cell_angle_alpha 90.000000
_cell_angle_beta 90.000000
_cell_angle_gamma 90.000000
_cell_volume 2854.689003
_symmetry_space_group_name_H-M "I B C A "
_symmetry_group_IT_number 73
_symmetry_cell_setting 'orthorhombic'
loop_
_space_group_symop_operation_xyz
x,y,z
-x,1/2-y,z
x,-y,1/2-z
1/2-x,y,-z
-x,-y,-z
x,1/2+y,-z
-x,y,1/2+z
1/2+x,-y,z
1/2+x,1/2+y,1/2+z
1/2-x,-y,1/2+z
1/2+x,1/2-y,-z
-x,1/2+y,1/2-z
1/2-x,1/2-y,1/2-z
1/2+x,y,1/2-z
1/2-x,1/2+y,z
x,1/2-y,1/2+z
loop_
_atom_site_type_symbol
_atom_site_label
_atom_site_fract_x
_atom_site_fract_y
_atom_site_fract_z
Si Si1 0.440519 0.410493 0.804469
Si Si2 0.250000 0.691713 0.000000
Si Si3 0.135650 0.932834 0.054946
Si Si4 0.587152 0.093398 0.894327
Si Si5 0.806836 0.000000 0.750000
O O1 0.500000 0.250000 0.810890
O O2 0.398917 0.463442 0.848582
O O3 0.311228 0.399492 0.772880
O O4 0.577317 0.488528 0.785539
O O5 0.174749 0.582731 0.968823
O O6 0.356127 0.802532 0.977324
O O7 0.995067 0.972270 0.079123
O O8 0.258733 0.891871 0.086422
O O9 0.500000 0.250000 0.896003
#
# Coordination Sequence:
#
# PCOD9530827 Si02
#       5
#    16   8  16  16   8
#     4  10  21  37  62  90 125 161 202 252 304 363
#     4  10  24  40  68  92 120 166 212 256 316 372
#     4  11  23  42  63  93 124 166 208 261 311 374
#     4  11  23  41  62  92 129 165 207 260 313 371
#     4  10  20  38  62  92 120 164 202 250 294 376
#
# _framework density 22.419257000000002
#
# number of rings (size 3 to 8) (size 9 to 14) (size 15 to 20)
#    0.000    1.500    2.500    2.250    0.000    7.000 
#    0.000    0.000   11.000    0.000    0.000    0.000 
#    0.000    0.000    0.000    0.000    0.000    0.000 
#
# Total GULP energy -178365.921595 kJ/mol
# GULP energy per Si atom -5573.935050 kJ/mol
# Density = 2.236823 g / cm^3
# Si number density = 22.419257 Si / 1000 Ang^3
#
#
#
# Elastic Constant Matrix: (Units=GPa)
#
#
# Indices 1 2 3 4 5 6 
#
# 1 102.6658 11.8240 25.6240 0.0000 0.0000 0.0000
# 2 11.8240 56.9278 32.5167 0.0000 0.0000 0.0000
# 3 25.6240 32.5167 122.6200 0.0000 0.0000 0.0000
# 4 0.0000 0.0000 0.0000 22.0051 0.0000 0.0000
# 5 0.0000 0.0000 0.0000 0.0000 13.2886 0.0000
# 6 0.0000 0.0000 0.0000 0.0000 0.0000 10.3267
#
#
#
# Elastic Compliance Matrix: (Units=1/GPa)
#
#
# Indices 1 2 3 4 5 6 
#
# 1 0.010332 -0.001076 -0.001874 0.000000 0.000000 0.000000
# 2 -0.001076 0.020814 -0.005295 0.000000 0.000000 0.000000
# 3 -0.001874 -0.005295 0.009951 0.000000 0.000000 0.000000
# 4 0.000000 0.000000 0.000000 0.045444 0.000000 0.000000
# 5 0.000000 0.000000 0.000000 0.000000 0.075253 0.000000
# 6 0.000000 0.000000 0.000000 0.000000 0.000000 0.096837
#
#
# Mechanical properties :
#
#
# Convention : Reuss Voigt Hill
#
# Bulk Modulus (GPa) = 40.63666 46.90477 43.77072
# Shear Modulus (GPa) = 17.64785 23.27400 20.46093
#
# Velocity S-wave (km/s) = 2.80871 3.22549 3.02429
# Velocity P-wave (km/s) = 5.35570 5.90244 5.63571
#
# Compressibility (1/GPa) = 0.02460832
#
# Stress axis : x y z
#
# Youngs Moduli (GPa) = 96.78754 48.04504 100.49325
#
# Poissons Ratio (x) = 0.05168 0.18831
# Poissons Ratio (y) = 0.10411 0.53208
# Poissons Ratio (z) = 0.18136 0.25438
#
# Static dielectric constant tensor:
#      x y z
#    x 1.781290 0.000000 0.000000 
#    y 0.000000 1.836110 0.000000 
#    z 0.000000 0.000000 1.890470 
# 
# From -- ./inp_files/33472.got.cif
#   From: 2010.05.17/outbox.cif.g08.bks.cpg/sg73_17_cif.got.tgz:33472.got - 2010.06.03 17:35:07.
