data_PCOD9530590
_publ_section_title
;
Structure prediction by ZEFSAII (Michael W. Deem and Ramdas Pophale) SiO2 
 PCOD9530590
Probable space group: I B C A 
;
_chemical_formula_sum "Si O2"
_cell_formula_units_Z 96
_cell_length_a 22.659017
_cell_length_b 23.340794
_cell_length_c 8.777018
_cell_angle_alpha 90.000000
_cell_angle_beta 90.000000
_cell_angle_gamma 90.000000
_cell_volume 4641.984435
_symmetry_space_group_name_H-M "I B C A "
_symmetry_group_IT_number 73
_symmetry_cell_setting 'orthorhombic'
loop_
_space_group_symop_operation_xyz
x,y,z
-x,1/2-y,z
x,-y,1/2-z
1/2-x,y,-z
-x,-y,-z
x,1/2+y,-z
-x,y,1/2+z
1/2+x,-y,z
1/2+x,1/2+y,1/2+z
1/2-x,-y,1/2+z
1/2+x,1/2-y,-z
-x,1/2+y,1/2-z
1/2-x,1/2-y,1/2-z
1/2+x,y,1/2-z
1/2-x,1/2+y,z
x,1/2-y,1/2+z
loop_
_atom_site_type_symbol
_atom_site_label
_atom_site_fract_x
_atom_site_fract_y
_atom_site_fract_z
Si Si1 0.519414 0.376089 0.561052
Si Si2 0.450896 0.701734 0.712173
Si Si3 0.566660 0.941181 0.156428
Si Si4 0.670360 0.717167 0.354933
Si Si5 0.226319 0.165583 0.354085
Si Si6 0.184572 0.891615 0.434106
O O1 0.471338 0.335813 0.643056
O O2 0.553101 0.338561 0.435421
O O3 0.558288 0.396229 0.703992
O O4 0.484963 0.425524 0.465593
O O5 0.500000 0.750000 0.684456
O O6 0.388507 0.726629 0.759439
O O7 0.628862 0.934351 0.067034
O O8 0.561255 0.000000 0.250000
O O9 0.690513 0.779098 0.412033
O O10 0.720813 0.691756 0.245996
O O11 0.666039 0.667901 0.482636
O O12 0.250000 0.133108 0.500000
O O13 0.192773 0.124447 0.241416
O O14 0.250000 0.908463 0.500000
#
# Coordination Sequence:
#
# PCOD9530590 Si02
#       6
#    16  16  16  16  16  16
#     4  10  24  40  61  97 124 164 213 251 318 377
#     4  11  23  36  59  93 134 167 193 251 311 384
#     4  11  23  45  70  89 118 165 216 277 318 367
#     4  10  20  36  55  83 126 165 200 238 303 376
#     4  10  21  33  57  86 116 167 208 240 290 384
#     4  10  22  41  62  88 126 163 202 261 320 374
#
# _framework density 20.680810999999999
#
# number of rings (size 3 to 8) (size 9 to 14) (size 15 to 20)
#    0.000    1.667    1.667    3.500    7.000    2.667 
#    0.000    0.833    0.000    0.000    0.000    0.000 
#    0.000    0.000    0.000    0.000    0.000    0.000 
#
# Total GULP energy -267885.010465 kJ/mol
# GULP energy per Si atom -5580.937718 kJ/mol
# Density = 2.063374 g / cm^3
# Si number density = 20.680811 Si / 1000 Ang^3
#
#
#
# Elastic Constant Matrix: (Units=GPa)
#
#
# Indices 1 2 3 4 5 6 
#
# 1 93.3623 6.3743 -0.7607 0.0000 0.0000 0.0000
# 2 6.3743 31.5531 -2.0493 0.0000 0.0000 0.0000
# 3 -0.7607 -2.0493 81.6422 0.0000 0.0000 0.0000
# 4 0.0000 0.0000 0.0000 27.6490 0.0000 0.0000
# 5 0.0000 0.0000 0.0000 0.0000 14.6667 0.0000
# 6 0.0000 0.0000 0.0000 0.0000 0.0000 11.0060
#
#
#
# Elastic Compliance Matrix: (Units=1/GPa)
#
#
# Indices 1 2 3 4 5 6 
#
# 1 0.010861 -0.002191 0.000046 0.000000 0.000000 0.000000
# 2 -0.002191 0.032186 0.000787 0.000000 0.000000 0.000000
# 3 0.000046 0.000787 0.012269 0.000000 0.000000 0.000000
# 4 0.000000 0.000000 0.000000 0.036168 0.000000 0.000000
# 5 0.000000 0.000000 0.000000 0.000000 0.068182 0.000000
# 6 0.000000 0.000000 0.000000 0.000000 0.000000 0.090859
#
#
# Mechanical properties :
#
#
# Convention : Reuss Voigt Hill
#
# Bulk Modulus (GPa) = 19.01097 23.74292 21.37694
# Shear Modulus (GPa) = 18.46565 24.19724 21.33145
#
# Velocity S-wave (km/s) = 2.99136 3.42429 3.21512
# Velocity P-wave (km/s) = 4.59821 5.20960 4.91342
#
# Compressibility (1/GPa) = 0.05260121
#
# Stress axis : x y z
#
# Youngs Moduli (GPa) = 92.07314 31.06907 81.50779
#
# Poissons Ratio (x) = 0.06808 -0.00377
# Poissons Ratio (y) = 0.20174 -0.06419
# Poissons Ratio (z) = -0.00425 -0.02447
#
# Static dielectric constant tensor:
#      x y z
#    x 1.777200 0.000000 0.000000 
#    y 0.000000 1.733670 0.000000 
#    z 0.000000 0.000000 1.740210 
# 
# From -- ./inp_files/7159.got.cif
#   From: 2010.05.17/outbox.cif.g08.bks.cpg/sg73_4_cif.got.tgz:7159.got - 2010.06.03 17:35:07.
