data_PCOD9530240
_publ_section_title
;
Structure prediction by ZEFSAII (Michael W. Deem and Ramdas Pophale) SiO2 
 PCOD9530240
Probable space group: I B C A 
;
_chemical_formula_sum "Si O2"
_cell_formula_units_Z 104
_cell_length_a 21.218207
_cell_length_b 14.321783
_cell_length_c 14.966374
_cell_angle_alpha 90.000000
_cell_angle_beta 90.000000
_cell_angle_gamma 90.000000
_cell_volume 4548.019990
_symmetry_space_group_name_H-M "I B C A "
_symmetry_group_IT_number 73
_symmetry_cell_setting 'orthorhombic'
loop_
_space_group_symop_operation_xyz
x,y,z
-x,1/2-y,z
x,-y,1/2-z
1/2-x,y,-z
-x,-y,-z
x,1/2+y,-z
-x,y,1/2+z
1/2+x,-y,z
1/2+x,1/2+y,1/2+z
1/2-x,-y,1/2+z
1/2+x,1/2-y,-z
-x,1/2+y,1/2-z
1/2-x,1/2-y,1/2-z
1/2+x,y,1/2-z
1/2-x,1/2+y,z
x,1/2-y,1/2+z
loop_
_atom_site_type_symbol
_atom_site_label
_atom_site_fract_x
_atom_site_fract_y
_atom_site_fract_z
Si Si1 0.680399 0.671526 0.984630
Si Si2 0.784272 0.845206 0.717925
Si Si3 0.000000 0.750000 0.618390
Si Si4 0.154357 0.096952 0.766745
Si Si5 0.179732 0.959613 0.534589
Si Si6 0.919330 0.329184 0.033352
Si Si7 0.409983 0.294503 0.274493
O O1 0.683707 0.657383 0.878647
O O2 0.627622 0.741583 0.017125
O O3 0.750000 0.712469 0.000000
O O4 0.674363 0.571999 0.033632
O O5 0.750000 0.750000 0.750000
O O6 0.722982 0.909459 0.719184
O O7 0.845919 0.856708 0.778382
O O8 0.967090 0.678292 0.549576
O O9 0.952798 0.802644 0.686439
O O10 0.169533 0.094819 0.872113
O O11 0.116899 0.187994 0.735015
O O12 0.118713 0.000000 0.750000
O O13 0.250000 0.939718 0.500000
O O14 0.123812 0.920180 0.473971
O O15 0.945101 0.316442 0.133249
#
# Coordination Sequence:
#
# PCOD9530240 Si02
#       7
#    16  16   8  16  16  16  16
#     4  11  21  38  65 102 137 169 212 269 337 405
#     4  10  19  36  60  95 129 166 207 264 327 395
#     4  12  24  46  66  88 124 176 234 270 320 400
#     4  11  20  37  63  98 132 163 210 269 336 405
#     4  11  22  38  63 103 136 167 213 273 339 405
#     4  12  23  43  69  91 130 177 220 274 337 394
#     4  11  23  41  66  92 124 171 224 265 329 394
#
# _framework density 22.867093000000001
#
# number of rings (size 3 to 8) (size 9 to 14) (size 15 to 20)
#    0.000    0.923    3.077    7.385    0.000    0.000 
#    0.000    0.769    3.385    0.000    0.000    0.000 
#    0.000    0.000    0.000    0.000    0.000    0.000 
#
# Total GULP energy -290328.916923 kJ/mol
# GULP energy per Si atom -5583.248402 kJ/mol
# Density = 2.281505 g / cm^3
# Si number density = 22.867093 Si / 1000 Ang^3
#
#
#
# Elastic Constant Matrix: (Units=GPa)
#
#
# Indices 1 2 3 4 5 6 
#
# 1 81.1295 2.7509 18.9725 0.0000 0.0000 0.0000
# 2 2.7509 71.7089 -1.2760 0.0000 0.0000 0.0000
# 3 18.9725 -1.2760 137.3795 0.0000 0.0000 0.0000
# 4 0.0000 0.0000 0.0000 18.9629 0.0000 0.0000
# 5 0.0000 0.0000 0.0000 0.0000 41.3738 0.0000
# 6 0.0000 0.0000 0.0000 0.0000 0.0000 6.0547
#
#
#
# Elastic Compliance Matrix: (Units=1/GPa)
#
#
# Indices 1 2 3 4 5 6 
#
# 1 0.012757 -0.000521 -0.001767 0.000000 0.000000 0.000000
# 2 -0.000521 0.013969 0.000202 0.000000 0.000000 0.000000
# 3 -0.001767 0.000202 0.007525 0.000000 0.000000 0.000000
# 4 0.000000 0.000000 0.000000 0.052735 0.000000 0.000000
# 5 0.000000 0.000000 0.000000 0.000000 0.024170 0.000000
# 6 0.000000 0.000000 0.000000 0.000000 0.000000 0.165161
#
#
# Mechanical properties :
#
#
# Convention : Reuss Voigt Hill
#
# Bulk Modulus (GPa) = 33.24569 36.79031 35.01800
# Shear Modulus (GPa) = 17.21090 31.26299 24.23695
#
# Velocity S-wave (km/s) = 2.74642 3.70152 3.25915
# Velocity P-wave (km/s) = 4.96259 5.86447 5.43228
#
# Compressibility (1/GPa) = 0.03007909
#
# Stress axis : x y z
#
# Youngs Moduli (GPa) = 78.38981 71.58796 132.89129
#
# Poissons Ratio (x) = 0.03728 0.23476
# Poissons Ratio (y) = 0.04083 -0.02680
# Poissons Ratio (z) = 0.13848 -0.01444
#
# Static dielectric constant tensor:
#      x y z
#    x 1.924220 0.000000 0.000000 
#    y 0.000000 1.897930 0.000000 
#    z 0.000000 0.000000 1.973000 
# 
# From -- ./inp_files/18815.got.cif
#   From: 2010.05.17/outbox.cif.g08.bks.cpg/sg73_10_cif.got.tgz:18815.got - 2010.06.03 17:35:07.
