data_PCOD9530641
_publ_section_title
;
Structure prediction by ZEFSAII (Michael W. Deem and Ramdas Pophale) SiO2 
 PCOD9530641
Probable space group: I B C A 
;
_chemical_formula_sum "Si O2"
_cell_formula_units_Z 88
_cell_length_a 10.064650
_cell_length_b 14.257815
_cell_length_c 31.829006
_cell_angle_alpha 90.000000
_cell_angle_beta 90.000000
_cell_angle_gamma 90.000000
_cell_volume 4567.459743
_symmetry_space_group_name_H-M "I B C A "
_symmetry_group_IT_number 73
_symmetry_cell_setting 'orthorhombic'
loop_
_space_group_symop_operation_xyz
x,y,z
-x,1/2-y,z
x,-y,1/2-z
1/2-x,y,-z
-x,-y,-z
x,1/2+y,-z
-x,y,1/2+z
1/2+x,-y,z
1/2+x,1/2+y,1/2+z
1/2-x,-y,1/2+z
1/2+x,1/2-y,-z
-x,1/2+y,1/2-z
1/2-x,1/2-y,1/2-z
1/2+x,y,1/2-z
1/2-x,1/2+y,z
x,1/2-y,1/2+z
loop_
_atom_site_type_symbol
_atom_site_label
_atom_site_fract_x
_atom_site_fract_y
_atom_site_fract_z
Si Si1 0.500000 0.750000 0.690988
Si Si2 0.372273 0.811923 0.417064
Si Si3 0.000000 0.250000 0.047981
Si Si4 0.894501 0.944410 0.793075
Si Si5 0.134803 0.531249 0.151834
Si Si6 0.750000 0.176047 0.500000
Si Si7 0.844227 0.836856 0.384932
O O1 0.557658 0.661862 0.715560
O O2 0.608605 0.792528 0.659058
O O3 0.500000 0.750000 0.428093
O O4 0.398042 0.883381 0.379168
O O5 0.314234 0.867466 0.457768
O O6 0.265696 0.733597 0.402518
O O7 0.873132 0.266793 0.019216
O O8 0.964123 0.167197 0.080919
O O9 0.753809 0.941653 0.816842
O O10 0.882389 0.000000 0.750000
O O11 0.005821 0.993982 0.822748
O O12 0.189472 0.443625 0.124456
#
# Coordination Sequence:
#
# PCOD9530641 Si02
#       7
#     8  16   8  16  16   8  16
#     4   9  18  40  64  85 120 170 194 247 314 372
#     4  11  21  39  62  91 125 164 211 261 307 367
#     4   9  18  36  60  83 122 162 202 257 308 358
#     4  11  23  43  64  97 127 162 208 260 313 374
#     4  11  23  41  67  93 125 164 212 258 313 378
#     4  10  20  36  60  88 122 164 206 254 312 364
#     4   9  19  37  63  86 118 163 209 246 310 371
#
# _framework density 19.266726999999999
#
# number of rings (size 3 to 8) (size 9 to 14) (size 15 to 20)
#    0.000    1.818    2.727    1.636    2.545    0.000 
#    4.909    7.273    0.000    0.000    0.000    0.000 
#    0.000    0.000    0.000    0.000    0.000    0.000 
#
# Total GULP energy -245134.268932 kJ/mol
# GULP energy per Si atom -5571.233385 kJ/mol
# Density = 1.922288 g / cm^3
# Si number density = 19.266727 Si / 1000 Ang^3
#
#
#
# Elastic Constant Matrix: (Units=GPa)
#
#
# Indices 1 2 3 4 5 6 
#
# 1 53.3199 13.1283 10.4622 0.0000 0.0000 0.0000
# 2 13.1283 81.2117 35.5338 0.0000 0.0000 0.0000
# 3 10.4622 35.5338 94.1419 0.0000 0.0000 0.0000
# 4 0.0000 0.0000 0.0000 6.7245 0.0000 0.0000
# 5 0.0000 0.0000 0.0000 0.0000 9.4815 0.0000
# 6 0.0000 0.0000 0.0000 0.0000 0.0000 18.3966
#
#
#
# Elastic Compliance Matrix: (Units=1/GPa)
#
#
# Indices 1 2 3 4 5 6 
#
# 1 0.019641 -0.002659 -0.001179 0.000000 0.000000 0.000000
# 2 -0.002659 0.015109 -0.005408 0.000000 0.000000 0.000000
# 3 -0.001179 -0.005408 0.012794 0.000000 0.000000 0.000000
# 4 0.000000 0.000000 0.000000 0.148709 0.000000 0.000000
# 5 0.000000 0.000000 0.000000 0.000000 0.105469 0.000000
# 6 0.000000 0.000000 0.000000 0.000000 0.000000 0.054358
#
#
# Mechanical properties :
#
#
# Convention : Reuss Voigt Hill
#
# Bulk Modulus (GPa) = 34.41967 38.54688 36.48328
# Shear Modulus (GPa) = 13.01213 18.22378 15.61795
#
# Velocity S-wave (km/s) = 2.60160 3.07883 2.85022
# Velocity P-wave (km/s) = 5.18923 5.71746 5.45974
#
# Compressibility (1/GPa) = 0.02905316
#
# Stress axis : x y z
#
# Youngs Moduli (GPa) = 50.91438 66.18393 78.15945
#
# Poissons Ratio (x) = 0.17599 0.09215
# Poissons Ratio (y) = 0.13539 0.42265
# Poissons Ratio (z) = 0.06003 0.35789
#
# Static dielectric constant tensor:
#      x y z
#    x 1.725480 0.000000 0.000000 
#    y 0.000000 1.655960 0.000000 
#    z 0.000000 0.000000 1.681310 
# 
# From -- ./inp_files/11146.got.cif
#   From: 2010.05.17/outbox.cif.g08.bks.cpg/sg73_6_cif.got.tgz:11146.got - 2010.06.03 17:35:07.
