data_PCOD9530994
_publ_section_title
;
Structure prediction by ZEFSAII (Michael W. Deem and Ramdas Pophale) SiO2 
 PCOD9530994
Probable space group: I B C A 
;
_chemical_formula_sum "Si O2"
_cell_formula_units_Z 120
_cell_length_a 9.815804
_cell_length_b 24.262023
_cell_length_c 23.108204
_cell_angle_alpha 90.000000
_cell_angle_beta 90.000000
_cell_angle_gamma 90.000000
_cell_volume 5503.247955
_symmetry_space_group_name_H-M "I B C A "
_symmetry_group_IT_number 73
_symmetry_cell_setting 'orthorhombic'
loop_
_space_group_symop_operation_xyz
x,y,z
-x,1/2-y,z
x,-y,1/2-z
1/2-x,y,-z
-x,-y,-z
x,1/2+y,-z
-x,y,1/2+z
1/2+x,-y,z
1/2+x,1/2+y,1/2+z
1/2-x,-y,1/2+z
1/2+x,1/2-y,-z
-x,1/2+y,1/2-z
1/2-x,1/2-y,1/2-z
1/2+x,y,1/2-z
1/2-x,1/2+y,z
x,1/2-y,1/2+z
loop_
_atom_site_type_symbol
_atom_site_label
_atom_site_fract_x
_atom_site_fract_y
_atom_site_fract_z
Si Si1 0.624039 0.709193 0.248172
Si Si2 0.379428 0.076269 0.041535
Si Si3 0.461684 0.848363 0.134318
Si Si4 0.727936 0.977204 0.190186
Si Si5 0.529570 0.479515 0.379370
Si Si6 0.750000 0.249603 0.500000
Si Si7 0.477883 0.176642 0.489799
Si Si8 0.769815 0.639954 0.654449
O O1 0.500000 0.750000 0.243367
O O2 0.750000 0.750000 0.250000
O O3 0.617171 0.669410 0.192057
O O4 0.628561 0.676981 0.308937
O O5 0.331014 0.113495 0.096400
O O6 0.431112 0.017882 0.066481
O O7 0.250000 0.068154 0.000000
O O8 0.490780 0.114419 0.009622
O O9 0.454609 0.913613 0.120140
O O10 0.417815 0.819184 0.075180
O O11 0.622229 0.833801 0.142821
O O12 0.626039 0.990776 0.137976
O O13 0.735965 0.911893 0.195090
O O14 0.675908 0.000000 0.250000
O O15 0.873998 0.000310 0.172789
O O16 0.626858 0.205928 0.485418
O O17 0.638429 0.293209 0.527825
#
# Coordination Sequence:
#
# PCOD9530994 Si02
#       8
#    16  16  16  16  16   8  16  16
#     4  12  26  45  71 102 137 184 232 302 355 431
#     4  11  22  45  73 101 143 192 238 294 354 420
#     4  11  23  45  71  96 143 184 226 286 375 422
#     4  10  20  40  66  94 137 182 228 284 352 422
#     4  10  24  40  67 106 133 183 235 291 349 425
#     4  10  24  40  66 100 128 182 244 288 350 414
#     4  11  23  45  70 100 137 189 236 291 353 429
#     4  10  22  43  64  99 137 180 228 286 357 419
#
# _framework density 21.805306000000002
#
# number of rings (size 3 to 8) (size 9 to 14) (size 15 to 20)
#    0.000    1.333    3.333    1.200    1.867    5.867 
#   13.200    0.000    0.000    0.000    0.000    0.000 
#    0.000    0.000    0.000    0.000    0.000    0.000 
#
# Total GULP energy -334391.224582 kJ/mol
# GULP energy per Si atom -5573.187076 kJ/mol
# Density = 2.175568 g / cm^3
# Si number density = 21.805306 Si / 1000 Ang^3
#
#
#
# Elastic Constant Matrix: (Units=GPa)
#
#
# Indices 1 2 3 4 5 6 
#
# 1 87.6385 31.3477 12.7874 0.0000 0.0000 0.0000
# 2 31.3477 88.9126 53.3538 0.0000 0.0000 0.0000
# 3 12.7874 53.3538 100.2104 0.0000 0.0000 0.0000
# 4 0.0000 0.0000 0.0000 21.3433 0.0000 0.0000
# 5 0.0000 0.0000 0.0000 0.0000 21.4222 0.0000
# 6 0.0000 0.0000 0.0000 0.0000 0.0000 31.0401
#
#
#
# Elastic Compliance Matrix: (Units=1/GPa)
#
#
# Indices 1 2 3 4 5 6 
#
# 1 0.013149 -0.005333 0.001161 0.000000 0.000000 0.000000
# 2 -0.005333 0.018690 -0.009270 0.000000 0.000000 0.000000
# 3 0.001161 -0.009270 0.014767 0.000000 0.000000 0.000000
# 4 0.000000 0.000000 0.000000 0.046853 0.000000 0.000000
# 5 0.000000 0.000000 0.000000 0.000000 0.046681 0.000000
# 6 0.000000 0.000000 0.000000 0.000000 0.000000 0.032216
#
#
# Mechanical properties :
#
#
# Convention : Reuss Voigt Hill
#
# Bulk Modulus (GPa) = 50.70563 52.41549 51.56056
# Shear Modulus (GPa) = 24.29394 26.71260 25.50327
#
# Velocity S-wave (km/s) = 3.34148 3.50387 3.42364
# Velocity P-wave (km/s) = 6.17994 6.36079 6.27101
#
# Compressibility (1/GPa) = 0.01972168
#
# Stress axis : x y z
#
# Youngs Moduli (GPa) = 76.05427 53.50448 67.72064
#
# Poissons Ratio (x) = 0.28532 -0.07865
# Poissons Ratio (y) = 0.40557 0.62780
# Poissons Ratio (z) = -0.08833 0.49601
#
# Static dielectric constant tensor:
#      x y z
#    x 1.771420 0.000000 0.000000 
#    y 0.000000 1.867680 0.000000 
#    z 0.000000 0.000000 1.846720 
# 
# From -- ./inp_files/28545.got.cif
#   From: 2010.05.17/outbox.cif.g08.bks.cpg/sg73_15_cif.got.tgz:28545.got - 2010.06.03 17:35:07.
