data_PCOD9530381
_publ_section_title
;
Structure prediction by ZEFSAII (Michael W. Deem and Ramdas Pophale) SiO2 
 PCOD9530381
Probable space group: I B C A 
;
_chemical_formula_sum "Si O2"
_cell_formula_units_Z 120
_cell_length_a 20.771330
_cell_length_b 18.221015
_cell_length_c 16.831317
_cell_angle_alpha 90.000000
_cell_angle_beta 90.000000
_cell_angle_gamma 90.000000
_cell_volume 6370.227913
_symmetry_space_group_name_H-M "I B C A "
_symmetry_group_IT_number 73
_symmetry_cell_setting 'orthorhombic'
loop_
_space_group_symop_operation_xyz
x,y,z
-x,1/2-y,z
x,-y,1/2-z
1/2-x,y,-z
-x,-y,-z
x,1/2+y,-z
-x,y,1/2+z
1/2+x,-y,z
1/2+x,1/2+y,1/2+z
1/2-x,-y,1/2+z
1/2+x,1/2-y,-z
-x,1/2+y,1/2-z
1/2-x,1/2-y,1/2-z
1/2+x,y,1/2-z
1/2-x,1/2+y,z
x,1/2-y,1/2+z
loop_
_atom_site_type_symbol
_atom_site_label
_atom_site_fract_x
_atom_site_fract_y
_atom_site_fract_z
Si Si1 0.415515 0.417430 0.168262
Si Si2 0.408051 0.063439 0.936959
Si Si3 0.129802 0.369685 0.411507
Si Si4 0.929357 0.281374 0.441607
Si Si5 0.942052 0.415535 0.758064
Si Si6 0.694447 0.000000 0.250000
Si Si7 0.262354 0.054470 0.913161
Si Si8 0.476430 0.330237 0.889738
O O1 0.418077 0.484496 0.104080
O O2 0.407714 0.342041 0.120959
O O3 0.482787 0.415587 0.215244
O O4 0.356241 0.435328 0.226954
O O5 0.334671 0.085855 0.916893
O O6 0.461521 0.119235 0.906827
O O7 0.406934 0.070314 0.032603
O O8 0.115675 0.289464 0.445642
O O9 0.098736 0.376346 0.325640
O O10 0.204755 0.388098 0.409158
O O11 0.939478 0.317589 0.527694
O O12 0.000000 0.250000 0.418635
O O13 0.922062 0.500000 0.750000
O O14 0.936273 0.372043 0.676337
O O15 0.735949 0.011135 0.329778
O O16 0.250000 0.015831 0.000000
O O17 0.500000 0.250000 0.862149
#
# Coordination Sequence:
#
# PCOD9530381 Si02
#       8
#    16  16  16  16  16   8  16  16
#     4  11  21  37  63  90 124 158 210 259 311 380
#     4  10  19  41  66  85 115 172 214 247 307 386
#     4  11  23  40  59  90 124 164 204 256 320 376
#     4  11  22  39  59  90 126 162 203 258 320 376
#     4  12  23  34  56  94 126 157 196 262 323 373
#     4  10  20  42  62  92 120 164 220 268 308 384
#     4   9  21  40  66  86 119 171 215 254 310 383
#     4  11  22  37  60  91 123 158 203 255 321 378
#
# _framework density 18.837630999999998
#
# number of rings (size 3 to 8) (size 9 to 14) (size 15 to 20)
#    0.000    1.333    6.000    0.800    4.667    1.067 
#    0.000    0.667    0.000   19.200    0.000    0.000 
#    0.000    0.000    0.000    0.000    0.000    0.000 
#
# Total GULP energy -334719.439962 kJ/mol
# GULP energy per Si atom -5578.657333 kJ/mol
# Density = 1.879476 g / cm^3
# Si number density = 18.837631 Si / 1000 Ang^3
#
#
#
# Elastic Constant Matrix: (Units=GPa)
#
#
# Indices 1 2 3 4 5 6 
#
# 1 55.6788 2.9409 27.9691 0.0000 0.0000 0.0000
# 2 2.9409 45.3408 37.9308 0.0000 0.0000 0.0000
# 3 27.9691 37.9308 125.8366 0.0000 0.0000 0.0000
# 4 0.0000 0.0000 0.0000 36.6801 0.0000 0.0000
# 5 0.0000 0.0000 0.0000 0.0000 -0.2474 0.0000
# 6 0.0000 0.0000 0.0000 0.0000 0.0000 15.3116
#
#
#
# Elastic Compliance Matrix: (Units=1/GPa)
#
#
# Indices 1 2 3 4 5 6 
#
# 1 0.020587 0.003333 -0.005581 0.000000 0.000000 0.000000
# 2 0.003333 0.030032 -0.009793 0.000000 0.000000 0.000000
# 3 -0.005581 -0.009793 0.012139 0.000000 0.000000 0.000000
# 4 0.000000 0.000000 0.000000 0.027263 0.000000 0.000000
# 5 0.000000 0.000000 0.000000 0.000000 -4.041669 0.000000
# 6 0.000000 0.000000 0.000000 0.000000 0.000000 0.065310
#
#
# Mechanical properties :
#
#
# Convention : Reuss Voigt Hill
#
# Bulk Modulus (GPa) = 25.85518 40.50419 33.17969
# Shear Modulus (GPa) = -1.29892 20.88322 9.79215
#
# Velocity S-wave (km/s) = -0.83128 3.33316 2.28243
# Velocity P-wave (km/s) = 3.58242 6.03007 4.95961
#
# Compressibility (1/GPa) = 0.03867697
#
# Stress axis : x y z
#
# Youngs Moduli (GPa) = 48.57339 33.29809 82.37801
#
# Poissons Ratio (x) = -0.11099 0.45972
# Poissons Ratio (y) = -0.16190 0.80675
# Poissons Ratio (z) = 0.27107 0.32610
#
# Static dielectric constant tensor:
#      x y z
#    x 1.642050 0.000000 0.000000 
#    y 0.000000 1.645050 0.000000 
#    z 0.000000 0.000000 1.723400 
# 
# From -- ./inp_files/23327.got.cif
#   From: 2010.05.17/outbox.cif.g08.bks.cpg/sg73_12_cif.got.tgz:23327.got - 2010.06.03 17:35:07.
