data_PCOD9530396
_publ_section_title
;
Structure prediction by ZEFSAII (Michael W. Deem and Ramdas Pophale) SiO2 
 PCOD9530396
Probable space group: I B C A 
;
_chemical_formula_sum "Si O2"
_cell_formula_units_Z 72
_cell_length_a 16.387169
_cell_length_b 8.115535
_cell_length_c 22.873991
_cell_angle_alpha 90.000000
_cell_angle_beta 90.000000
_cell_angle_gamma 90.000000
_cell_volume 3042.026784
_symmetry_space_group_name_H-M "I B C A "
_symmetry_group_IT_number 73
_symmetry_cell_setting 'orthorhombic'
loop_
_space_group_symop_operation_xyz
x,y,z
-x,1/2-y,z
x,-y,1/2-z
1/2-x,y,-z
-x,-y,-z
x,1/2+y,-z
-x,y,1/2+z
1/2+x,-y,z
1/2+x,1/2+y,1/2+z
1/2-x,-y,1/2+z
1/2+x,1/2-y,-z
-x,1/2+y,1/2-z
1/2-x,1/2-y,1/2-z
1/2+x,y,1/2-z
1/2-x,1/2+y,z
x,1/2-y,1/2+z
loop_
_atom_site_type_symbol
_atom_site_label
_atom_site_fract_x
_atom_site_fract_y
_atom_site_fract_z
Si Si1 0.056021 0.097755 0.427004
Si Si2 0.000000 0.750000 0.404306
Si Si3 0.374763 0.000000 0.250000
Si Si4 0.732145 0.541071 0.563486
Si Si5 0.669914 0.174604 0.860564
Si Si6 0.500000 0.750000 0.812288
O O1 0.049761 0.131078 0.356921
O O2 0.000000 0.250000 0.449168
O O3 0.151557 0.075598 0.442220
O O4 0.016865 0.919069 0.438522
O O5 0.923824 0.780969 0.363400
O O6 0.318578 0.913290 0.200904
O O7 0.434892 0.861696 0.277920
O O8 0.750000 0.616017 0.500000
O O9 0.716053 0.664243 0.617230
O O10 0.811192 0.445744 0.585378
#
# Coordination Sequence:
#
# PCOD9530396 Si02
#       6
#    16   8   8  16  16   8
#     4   9  21  43  74 101 142 198 259 311 384 466
#     4  10  19  44  67 104 146 185 252 311 368 480
#     4  12  24  42  74 110 158 194 256 328 400 478
#     4  11  26  48  72 105 155 203 258 329 382 458
#     4  11  25  45  71 107 148 197 256 312 401 463
#     4  10  23  40  75 106 152 201 248 329 388 474
#
# _framework density 23.668431000000002
#
# number of rings (size 3 to 8) (size 9 to 14) (size 15 to 20)
#    0.667    0.889    2.222    1.333    9.333    0.889 
#    2.000    2.222    0.000    0.000    0.000    0.000 
#    0.000    0.000    0.000    0.000    0.000    0.000 
#
# Total GULP energy -200858.462809 kJ/mol
# GULP energy per Si atom -5579.401745 kJ/mol
# Density = 2.361456 g / cm^3
# Si number density = 23.668431 Si / 1000 Ang^3
#
#
#
# Elastic Constant Matrix: (Units=GPa)
#
#
# Indices 1 2 3 4 5 6 
#
# 1 52.0549 41.4919 26.7004 0.0000 0.0000 0.0000
# 2 41.4919 130.7950 74.9376 0.0000 0.0000 0.0000
# 3 26.7004 74.9376 132.1678 0.0000 0.0000 0.0000
# 4 0.0000 0.0000 0.0000 45.7729 0.0000 0.0000
# 5 0.0000 0.0000 0.0000 0.0000 48.1341 0.0000
# 6 0.0000 0.0000 0.0000 0.0000 0.0000 24.1174
#
#
#
# Elastic Compliance Matrix: (Units=1/GPa)
#
#
# Indices 1 2 3 4 5 6 
#
# 1 0.025776 -0.007692 -0.000846 0.000000 0.000000 0.000000
# 2 -0.007692 0.013620 -0.006168 0.000000 0.000000 0.000000
# 3 -0.000846 -0.006168 0.011234 0.000000 0.000000 0.000000
# 4 0.000000 0.000000 0.000000 0.021847 0.000000 0.000000
# 5 0.000000 0.000000 0.000000 0.000000 0.020775 0.000000
# 6 0.000000 0.000000 0.000000 0.000000 0.000000 0.041464
#
#
# Mechanical properties :
#
#
# Convention : Reuss Voigt Hill
#
# Bulk Modulus (GPa) = 47.13151 66.80860 56.97006
# Shear Modulus (GPa) = 29.20547 35.06405 32.13476
#
# Velocity S-wave (km/s) = 3.51656 3.85316 3.68870
# Velocity P-wave (km/s) = 6.03695 6.93426 6.50110
#
# Compressibility (1/GPa) = 0.02121723
#
# Stress axis : x y z
#
# Youngs Moduli (GPa) = 38.79642 73.42268 89.01268
#
# Poissons Ratio (x) = 0.56478 0.07529
# Poissons Ratio (y) = 0.29843 0.54906
# Poissons Ratio (z) = 0.03281 0.45289
#
# Static dielectric constant tensor:
#      x y z
#    x 1.853730 0.000000 0.000000 
#    y 0.000000 2.026040 0.000000 
#    z 0.000000 0.000000 1.978610 
# 
# From -- ./inp_files/32044.got.cif
#   From: 2010.05.17/outbox.cif.g08.bks.cpg/sg73_17_cif.got.tgz:32044.got - 2010.06.03 17:35:07.
