data_PCOD9530932
_publ_section_title
;
Structure prediction by ZEFSAII (Michael W. Deem and Ramdas Pophale) SiO2 
 PCOD9530932
Probable space group: I B C A 
;
_chemical_formula_sum "Si O2"
_cell_formula_units_Z 72
_cell_length_a 18.016916
_cell_length_b 9.821853
_cell_length_c 15.002023
_cell_angle_alpha 90.000000
_cell_angle_beta 90.000000
_cell_angle_gamma 90.000000
_cell_volume 2654.750496
_symmetry_space_group_name_H-M "I B C A "
_symmetry_group_IT_number 73
_symmetry_cell_setting 'orthorhombic'
loop_
_space_group_symop_operation_xyz
x,y,z
-x,1/2-y,z
x,-y,1/2-z
1/2-x,y,-z
-x,-y,-z
x,1/2+y,-z
-x,y,1/2+z
1/2+x,-y,z
1/2+x,1/2+y,1/2+z
1/2-x,-y,1/2+z
1/2+x,1/2-y,-z
-x,1/2+y,1/2-z
1/2-x,1/2-y,1/2-z
1/2+x,y,1/2-z
1/2-x,1/2+y,z
x,1/2-y,1/2+z
loop_
_atom_site_type_symbol
_atom_site_label
_atom_site_fract_x
_atom_site_fract_y
_atom_site_fract_z
Si Si1 0.027991 0.561384 0.071336
Si Si2 0.941348 0.500000 0.250000
Si Si3 0.663624 0.209560 0.343129
Si Si4 0.732011 0.063788 0.105016
Si Si5 0.404579 0.211909 0.533007
O O1 0.994164 0.519801 0.164338
O O2 0.045698 0.430869 0.002079
O O3 0.000000 0.750000 0.066515
O O4 0.106810 0.631602 0.074911
O O5 0.892922 0.365619 0.224543
O O6 0.712431 0.346592 0.334774
O O7 0.615754 0.242852 0.431647
O O8 0.721156 0.089293 0.364604
O O9 0.750000 0.072518 0.000000
O O10 0.650147 0.129702 0.097971
#
# Coordination Sequence:
#
# PCOD9530932 Si02
#       5
#    16   8  16  16  16
#     4  11  22  42  67  96 140 188 230 299 356 429
#     4  12  24  44  66 104 144 184 246 290 364 426
#     4  11  23  41  69 102 139 185 231 292 345 418
#     4  10  20  39  69  99 133 183 237 281 343 417
#     4  10  20  41  67  94 134 182 239 281 353 416
#
# _framework density 27.121193000000002
#
# number of rings (size 3 to 8) (size 9 to 14) (size 15 to 20)
#    0.000    1.333    4.444    2.000    0.000    2.667 
#    8.000    1.111    0.000    0.000    0.000    0.000 
#    0.000    0.000    0.000    0.000    0.000    0.000 
#
# Total GULP energy -200618.957570 kJ/mol
# GULP energy per Si atom -5572.748821 kJ/mol
# Density = 2.705946 g / cm^3
# Si number density = 27.121193 Si / 1000 Ang^3
#
#
#
# Elastic Constant Matrix: (Units=GPa)
#
#
# Indices 1 2 3 4 5 6 
#
# 1 73.6859 14.6864 44.0491 0.0000 0.0000 0.0000
# 2 14.6864 76.2406 -6.1636 0.0000 0.0000 0.0000
# 3 44.0491 -6.1636 167.8953 0.0000 0.0000 0.0000
# 4 0.0000 0.0000 0.0000 35.0755 0.0000 0.0000
# 5 0.0000 0.0000 0.0000 0.0000 27.6132 0.0000
# 6 0.0000 0.0000 0.0000 0.0000 0.0000 33.3577
#
#
#
# Elastic Compliance Matrix: (Units=1/GPa)
#
#
# Indices 1 2 3 4 5 6 
#
# 1 0.017055 -0.003658 -0.004609 0.000000 0.000000 0.000000
# 2 -0.003658 0.013940 0.001471 0.000000 0.000000 0.000000
# 3 -0.004609 0.001471 0.007219 0.000000 0.000000 0.000000
# 4 0.000000 0.000000 0.000000 0.028510 0.000000 0.000000
# 5 0.000000 0.000000 0.000000 0.000000 0.036215 0.000000
# 6 0.000000 0.000000 0.000000 0.000000 0.000000 0.029978
#
#
# Mechanical properties :
#
#
# Convention : Reuss Voigt Hill
#
# Bulk Modulus (GPa) = 40.61128 46.99616 43.80372
# Shear Modulus (GPa) = 32.31726 36.89263 34.60495
#
# Velocity S-wave (km/s) = 3.45568 3.69221 3.57590
# Velocity P-wave (km/s) = 5.56137 5.96174 5.76503
#
# Compressibility (1/GPa) = 0.02462370
#
# Stress axis : x y z
#
# Youngs Moduli (GPa) = 58.63245 71.73615 138.51722
#
# Poissons Ratio (x) = 0.26241 0.63842
# Poissons Ratio (y) = 0.21448 -0.20382
# Poissons Ratio (z) = 0.27023 -0.10556
#
# Static dielectric constant tensor:
#      x y z
#    x 2.350510 0.000000 0.000000 
#    y 0.000000 2.913520 0.000000 
#    z 0.000000 0.000000 2.067310 
# 
# From -- ./inp_files/20607.got.cif
#   From: 2010.05.17/outbox.cif.g08.bks.cpg/sg73_11_cif.got.tgz:20607.got - 2010.06.03 17:35:07.
