data_PCOD9530871
_publ_section_title
;
Structure prediction by ZEFSAII (Michael W. Deem and Ramdas Pophale) SiO2 
 PCOD9530871
Probable space group: I B C A 
;
_chemical_formula_sum "Si O2"
_cell_formula_units_Z 40
_cell_length_a 5.208708
_cell_length_b 24.539087
_cell_length_c 12.797714
_cell_angle_alpha 90.000000
_cell_angle_beta 90.000000
_cell_angle_gamma 90.000000
_cell_volume 1635.764627
_symmetry_space_group_name_H-M "I B C A "
_symmetry_group_IT_number 73
_symmetry_cell_setting 'orthorhombic'
loop_
_space_group_symop_operation_xyz
x,y,z
-x,1/2-y,z
x,-y,1/2-z
1/2-x,y,-z
-x,-y,-z
x,1/2+y,-z
-x,y,1/2+z
1/2+x,-y,z
1/2+x,1/2+y,1/2+z
1/2-x,-y,1/2+z
1/2+x,1/2-y,-z
-x,1/2+y,1/2-z
1/2-x,1/2-y,1/2-z
1/2+x,y,1/2-z
1/2-x,1/2+y,z
x,1/2-y,1/2+z
loop_
_atom_site_type_symbol
_atom_site_label
_atom_site_fract_x
_atom_site_fract_y
_atom_site_fract_z
Si Si1 0.509839 0.184627 0.317972
Si Si2 0.250000 0.376673 0.000000
Si Si3 0.970264 0.524063 0.115219
O O1 0.500000 0.250000 0.331782
O O2 0.780835 0.170591 0.264026
O O3 0.449460 0.157913 0.430693
O O4 0.124628 0.415691 0.910805
O O5 0.755515 0.482304 0.159257
O O6 0.000000 0.500000 0.000000
#
# Coordination Sequence:
#
# PCOD9530871 Si02
#       3
#    16   8  16
#     4  10  24  41  57  87 121 148 197 253 287 344
#     4  10  20  38  68  82 112 170 194 226 316 366
#     4   8  16  30  53  84 113 144 188 240 287 344
#
# _framework density 24.453395
#
# number of rings (size 3 to 8) (size 9 to 14) (size 15 to 20)
#    0.000    3.200    0.000    0.000    0.000   19.200 
#    0.000    0.000    0.000   64.800    0.000    0.000 
#    0.000    0.000    0.000    0.000    0.000    0.000 
#
# Total GULP energy -111418.895228 kJ/mol
# GULP energy per Si atom -5570.944761 kJ/mol
# Density = 2.439774 g / cm^3
# Si number density = 24.453395 Si / 1000 Ang^3
#
#
#
# Elastic Constant Matrix: (Units=GPa)
#
#
# Indices 1 2 3 4 5 6 
#
# 1 177.4349 37.6098 -4.3479 0.0000 0.0000 0.0000
# 2 37.6098 99.2498 37.5211 0.0000 0.0000 0.0000
# 3 -4.3479 37.5211 64.6236 0.0000 0.0000 0.0000
# 4 0.0000 0.0000 0.0000 20.0775 0.0000 0.0000
# 5 0.0000 0.0000 0.0000 0.0000 0.8264 0.0000
# 6 0.0000 0.0000 0.0000 0.0000 0.0000 27.0723
#
#
#
# Elastic Compliance Matrix: (Units=1/GPa)
#
#
# Indices 1 2 3 4 5 6 
#
# 1 0.006396 -0.003314 0.002354 0.000000 0.000000 0.000000
# 2 -0.003314 0.014626 -0.008715 0.000000 0.000000 0.000000
# 3 0.002354 -0.008715 0.020693 0.000000 0.000000 0.000000
# 4 0.000000 0.000000 0.000000 0.049807 0.000000 0.000000
# 5 0.000000 0.000000 0.000000 0.000000 1.210001 0.000000
# 6 0.000000 0.000000 0.000000 0.000000 0.000000 0.036938
#
#
# Mechanical properties :
#
#
# Convention : Reuss Voigt Hill
#
# Bulk Modulus (GPa) = 44.71111 53.65269 49.18190
# Shear Modulus (GPa) = 3.66229 27.63026 15.64628
#
# Velocity S-wave (km/s) = 1.22512 3.36507 2.53225
# Velocity P-wave (km/s) = 4.50834 6.08988 5.35779
#
# Compressibility (1/GPa) = 0.02236581
#
# Stress axis : x y z
#
# Youngs Moduli (GPa) = 156.34890 68.37165 48.32649
#
# Poissons Ratio (x) = 0.22656 -0.11378
# Poissons Ratio (y) = 0.51810 0.42116
# Poissons Ratio (z) = -0.36809 0.59585
#
# Static dielectric constant tensor:
#      x y z
#    x 1.986610 0.000000 0.000000 
#    y 0.000000 1.955000 0.000000 
#    z 0.000000 0.000000 1.729310 
# 
# From -- ./inp_files/477.got.cif
#   From: 2010.05.17/outbox.cif.g08.bks.cpg/sg73_1_cif.got.tgz:477.got - 2010.06.03 17:35:07.
