data_PCOD9530854
_publ_section_title
;
Structure prediction by ZEFSAII (Michael W. Deem and Ramdas Pophale) SiO2 
 PCOD9530854
Probable space group: I B C A 
;
_chemical_formula_sum "Si O2"
_cell_formula_units_Z 64
_cell_length_a 12.204653
_cell_length_b 13.607757
_cell_length_c 17.923733
_cell_angle_alpha 90.000000
_cell_angle_beta 90.000000
_cell_angle_gamma 90.000000
_cell_volume 2976.736874
_symmetry_space_group_name_H-M "I B C A "
_symmetry_group_IT_number 73
_symmetry_cell_setting 'orthorhombic'
loop_
_space_group_symop_operation_xyz
x,y,z
-x,1/2-y,z
x,-y,1/2-z
1/2-x,y,-z
-x,-y,-z
x,1/2+y,-z
-x,y,1/2+z
1/2+x,-y,z
1/2+x,1/2+y,1/2+z
1/2-x,-y,1/2+z
1/2+x,1/2-y,-z
-x,1/2+y,1/2-z
1/2-x,1/2-y,1/2-z
1/2+x,y,1/2-z
1/2-x,1/2+y,z
x,1/2-y,1/2+z
loop_
_atom_site_type_symbol
_atom_site_label
_atom_site_fract_x
_atom_site_fract_y
_atom_site_fract_z
Si Si1 0.601615 0.180414 0.206465
Si Si2 0.952986 0.037841 0.384058
Si Si3 0.250769 0.349964 0.650986
Si Si4 0.052013 0.143362 0.044576
O O1 0.500000 0.250000 0.230654
O O2 0.548617 0.088780 0.163884
O O3 0.674033 0.150957 0.276656
O O4 0.323767 0.249513 0.154151
O O5 0.836498 0.060591 0.347083
O O6 0.948314 0.094001 0.463443
O O7 0.980041 0.925824 0.401128
O O8 0.172770 0.353508 0.579624
O O9 0.000000 0.250000 0.040294
#
# Coordination Sequence:
#
# PCOD9530854 Si02
#       4
#    16  16  16  16
#     4   9  19  39  64  94 126 157 201 254 304 359
#     4  10  23  41  62  91 124 159 203 254 304 363
#     4  10  20  38  65  90 122 163 201 247 308 362
#     4  11  23  40  62  91 125 160 203 251 304 367
#
# _framework density 21.500053000000001
#
# number of rings (size 3 to 8) (size 9 to 14) (size 15 to 20)
#    0.000    2.000    0.000    3.750    0.000    3.000 
#    0.000   12.500    0.000    0.000    0.000    0.000 
#    0.000    0.000    0.000    0.000    0.000    0.000 
#
# Total GULP energy -179095.043621 kJ/mol
# GULP energy per Si atom -5596.720113 kJ/mol
# Density = 2.145112 g / cm^3
# Si number density = 21.500053 Si / 1000 Ang^3
#
#
#
# Elastic Constant Matrix: (Units=GPa)
#
#
# Indices 1 2 3 4 5 6 
#
# 1 114.2621 40.5931 33.7643 0.0000 0.0000 0.0000
# 2 40.5931 99.9928 26.3455 0.0000 0.0000 0.0000
# 3 33.7643 26.3455 48.0026 0.0000 0.0000 0.0000
# 4 0.0000 0.0000 0.0000 30.7754 0.0000 0.0000
# 5 0.0000 0.0000 0.0000 0.0000 36.3085 0.0000
# 6 0.0000 0.0000 0.0000 0.0000 0.0000 6.3174
#
#
#
# Elastic Compliance Matrix: (Units=1/GPa)
#
#
# Indices 1 2 3 4 5 6 
#
# 1 0.011789 -0.003041 -0.006624 0.000000 0.000000 0.000000
# 2 -0.003041 0.012476 -0.004708 0.000000 0.000000 0.000000
# 3 -0.006624 -0.004708 0.028075 0.000000 0.000000 0.000000
# 4 0.000000 0.000000 0.000000 0.032493 0.000000 0.000000
# 5 0.000000 0.000000 0.000000 0.000000 0.027542 0.000000
# 6 0.000000 0.000000 0.000000 0.000000 0.000000 0.158293
#
#
# Mechanical properties :
#
#
# Convention : Reuss Voigt Hill
#
# Bulk Modulus (GPa) = 42.38192 51.51818 46.95005
# Shear Modulus (GPa) = 16.27186 25.45058 20.86122
#
# Velocity S-wave (km/s) = 2.75404 3.44429 3.11832
# Velocity P-wave (km/s) = 5.46518 6.31121 5.90337
#
# Compressibility (1/GPa) = 0.02359497
#
# Stress axis : x y z
#
# Youngs Moduli (GPa) = 84.82222 80.15597 35.61879
#
# Poissons Ratio (x) = 0.24375 0.23592
# Poissons Ratio (y) = 0.25794 0.16770
# Poissons Ratio (z) = 0.56182 0.37739
#
# Static dielectric constant tensor:
#      x y z
#    x 1.766130 0.000000 0.000000 
#    y 0.000000 1.761260 0.000000 
#    z 0.000000 0.000000 1.778920 
# 
# From -- ./inp_files/21063.got.cif
#   From: 2010.05.17/outbox.cif.g08.bks.cpg/sg73_11_cif.got.tgz:21063.got - 2010.06.03 17:35:07.
