data_PCOD9530572
_publ_section_title
;
Structure prediction by ZEFSAII (Michael W. Deem and Ramdas Pophale) SiO2 
 PCOD9530572
Probable space group: I B C A 
;
_chemical_formula_sum "Si O2"
_cell_formula_units_Z 80
_cell_length_a 15.599593
_cell_length_b 9.392776
_cell_length_c 19.926237
_cell_angle_alpha 90.000000
_cell_angle_beta 90.000000
_cell_angle_gamma 90.000000
_cell_volume 2919.661643
_symmetry_space_group_name_H-M "I B C A "
_symmetry_group_IT_number 73
_symmetry_cell_setting 'orthorhombic'
loop_
_space_group_symop_operation_xyz
x,y,z
-x,1/2-y,z
x,-y,1/2-z
1/2-x,y,-z
-x,-y,-z
x,1/2+y,-z
-x,y,1/2+z
1/2+x,-y,z
1/2+x,1/2+y,1/2+z
1/2-x,-y,1/2+z
1/2+x,1/2-y,-z
-x,1/2+y,1/2-z
1/2-x,1/2-y,1/2-z
1/2+x,y,1/2-z
1/2-x,1/2+y,z
x,1/2-y,1/2+z
loop_
_atom_site_type_symbol
_atom_site_label
_atom_site_fract_x
_atom_site_fract_y
_atom_site_fract_z
Si Si1 0.184701 0.126969 0.052483
Si Si2 0.417237 0.350188 0.574662
Si Si3 0.045942 0.389449 0.699337
Si Si4 0.179628 0.914542 0.875707
Si Si5 0.159496 0.866766 0.175818
O O1 0.247989 0.000828 0.078805
O O2 0.162239 0.255738 0.101140
O O3 0.250000 0.203145 0.000000
O O4 0.106439 0.099561 0.000823
O O5 0.500000 0.250000 0.573413
O O6 0.407182 0.495511 0.617634
O O7 0.352937 0.251641 0.619331
O O8 0.996078 0.500000 0.750000
O O9 0.113754 0.328413 0.754963
O O10 0.102723 0.494581 0.653214
O O11 0.000000 0.250000 0.673973
O O12 0.241352 0.901166 0.811903
#
# Coordination Sequence:
#
# PCOD9530572 Si02
#       5
#    16  16  16  16  16
#     4  10  20  35  62  83 130 176 213 257 313 370
#     4  11  23  37  61  92 133 172 220 270 320 371
#     4   8  19  40  67  91 132 161 201 275 326 380
#     4  11  20  41  61  88 126 177 217 267 313 385
#     4   9  20  38  66  90 126 164 212 259 333 387
#
# _framework density 27.400435000000002
#
# number of rings (size 3 to 8) (size 9 to 14) (size 15 to 20)
#    1.200    0.800    4.000    2.400    0.000    0.800 
#    3.600    4.000    0.000    4.800    0.000    0.000 
#    0.000    0.000    0.000    0.000    0.000    0.000 
#
# Total GULP energy -222760.110158 kJ/mol
# GULP energy per Si atom -5569.002754 kJ/mol
# Density = 2.733807 g / cm^3
# Si number density = 27.400435 Si / 1000 Ang^3
#
#
#
# Elastic Constant Matrix: (Units=GPa)
#
#
# Indices 1 2 3 4 5 6 
#
# 1 61.1128 -8.7936 -7.5531 0.0000 0.0000 0.0000
# 2 -8.7936 175.1633 5.0571 0.0000 0.0000 0.0000
# 3 -7.5531 5.0571 59.5371 0.0000 0.0000 0.0000
# 4 0.0000 0.0000 0.0000 26.4687 0.0000 0.0000
# 5 0.0000 0.0000 0.0000 0.0000 38.4759 0.0000
# 6 0.0000 0.0000 0.0000 0.0000 0.0000 27.0456
#
#
#
# Elastic Compliance Matrix: (Units=1/GPa)
#
#
# Indices 1 2 3 4 5 6 
#
# 1 0.016730 0.000781 0.002056 0.000000 0.000000 0.000000
# 2 0.000781 0.005759 -0.000390 0.000000 0.000000 0.000000
# 3 0.002056 -0.000390 0.017090 0.000000 0.000000 0.000000
# 4 0.000000 0.000000 0.000000 0.037781 0.000000 0.000000
# 5 0.000000 0.000000 0.000000 0.000000 0.025990 0.000000
# 6 0.000000 0.000000 0.000000 0.000000 0.000000 0.036975
#
#
# Mechanical properties :
#
#
# Convention : Reuss Voigt Hill
#
# Bulk Modulus (GPa) = 22.48605 30.35934 26.42270
# Shear Modulus (GPa) = 33.27657 38.87156 36.07406
#
# Velocity S-wave (km/s) = 3.48868 3.77058 3.63237
# Velocity P-wave (km/s) = 4.94491 5.48273 5.22075
#
# Compressibility (1/GPa) = 0.04447201
#
# Stress axis : x y z
#
# Youngs Moduli (GPa) = 59.77428 173.62903 58.51300
#
# Poissons Ratio (x) = -0.13552 -0.12031
# Poissons Ratio (y) = -0.04665 0.02283
# Poissons Ratio (z) = -0.12290 0.06775
#
# Static dielectric constant tensor:
#      x y z
#    x 2.360330 0.000000 0.000000 
#    y 0.000000 2.113160 0.000000 
#    z 0.000000 0.000000 2.339160 
# 
# From -- ./inp_files/34478.got.cif
#   From: 2010.05.17/outbox.cif.g08.bks.cpg/sg73_18_cif.got.tgz:34478.got - 2010.06.03 17:35:07.
