data_PCOD9530858
_publ_section_title
;
Structure prediction by ZEFSAII (Michael W. Deem and Ramdas Pophale) SiO2 
 PCOD9530858
Probable space group: I B C A 
;
_chemical_formula_sum "Si O2"
_cell_formula_units_Z 112
_cell_length_a 14.253521
_cell_length_b 13.990795
_cell_length_c 24.913431
_cell_angle_alpha 90.000000
_cell_angle_beta 90.000000
_cell_angle_gamma 90.000000
_cell_volume 4968.188834
_symmetry_space_group_name_H-M "I B C A "
_symmetry_group_IT_number 73
_symmetry_cell_setting 'orthorhombic'
loop_
_space_group_symop_operation_xyz
x,y,z
-x,1/2-y,z
x,-y,1/2-z
1/2-x,y,-z
-x,-y,-z
x,1/2+y,-z
-x,y,1/2+z
1/2+x,-y,z
1/2+x,1/2+y,1/2+z
1/2-x,-y,1/2+z
1/2+x,1/2-y,-z
-x,1/2+y,1/2-z
1/2-x,1/2-y,1/2-z
1/2+x,y,1/2-z
1/2-x,1/2+y,z
x,1/2-y,1/2+z
loop_
_atom_site_type_symbol
_atom_site_label
_atom_site_fract_x
_atom_site_fract_y
_atom_site_fract_z
Si Si1 0.455905 0.889904 0.613467
Si Si2 0.500000 0.750000 0.350806
Si Si3 0.496392 0.948474 0.304278
Si Si4 0.643877 0.296911 0.365924
Si Si5 0.250000 0.636437 0.500000
Si Si6 0.289920 0.982245 0.192456
Si Si7 0.724234 0.962922 0.076827
Si Si8 0.826892 0.723909 0.570187
O O1 0.405770 0.804566 0.647629
O O2 0.472707 0.985131 0.647049
O O3 0.265619 0.982556 0.640472
O O4 0.380340 0.920467 0.568584
O O5 0.526131 0.840654 0.314443
O O6 0.585973 0.727939 0.390388
O O7 0.526692 0.000000 0.250000
O O8 0.383328 0.953071 0.304340
O O9 0.675419 0.373285 0.320433
O O10 0.560197 0.350297 0.398988
O O11 0.735834 0.265749 0.398356
O O12 0.248885 0.561060 0.548342
O O13 0.167469 0.710120 0.517254
O O14 0.242661 0.000000 0.250000
O O15 0.799298 0.884571 0.058656
#
# Coordination Sequence:
#
# PCOD9530858 Si02
#       8
#    16   8  16  16   8  16  16  16
#     4   9  20  39  66  95 133 178 229 285 340 422
#     4  12  24  44  68  98 146 182 228 296 358 436
#     4  10  22  38  64  96 136 181 229 279 345 415
#     4   9  19  41  67  92 138 174 228 282 340 422
#     4  12  24  44  74  90 134 182 232 292 350 416
#     4  10  20  38  65  97 138 180 220 280 344 423
#     4  11  22  43  65 100 135 177 231 288 347 417
#     4  11  24  44  67  98 133 180 227 291 357 413
#
# _framework density 22.543427000000001
#
# number of rings (size 3 to 8) (size 9 to 14) (size 15 to 20)
#    0.000    1.714    2.857    1.286    0.000    4.000 
#    0.000    7.143    0.000    0.000    0.000    0.000 
#    0.000    0.000    0.000    0.000    0.000    0.000 
#
# Total GULP energy -312375.917048 kJ/mol
# GULP energy per Si atom -5578.141376 kJ/mol
# Density = 2.249212 g / cm^3
# Si number density = 22.543427 Si / 1000 Ang^3
#
#
#
# Elastic Constant Matrix: (Units=GPa)
#
#
# Indices 1 2 3 4 5 6 
#
# 1 101.4304 3.4345 13.7628 0.0000 0.0000 0.0000
# 2 3.4345 150.2432 19.5836 0.0000 0.0000 0.0000
# 3 13.7628 19.5836 83.8769 0.0000 0.0000 0.0000
# 4 0.0000 0.0000 0.0000 20.2775 0.0000 0.0000
# 5 0.0000 0.0000 0.0000 0.0000 7.8057 0.0000
# 6 0.0000 0.0000 0.0000 0.0000 0.0000 18.6950
#
#
#
# Elastic Compliance Matrix: (Units=1/GPa)
#
#
# Indices 1 2 3 4 5 6 
#
# 1 0.010084 -0.000015 -0.001651 0.000000 0.000000 0.000000
# 2 -0.000015 0.006865 -0.001600 0.000000 0.000000 0.000000
# 3 -0.001651 -0.001600 0.012567 0.000000 0.000000 0.000000
# 4 0.000000 0.000000 0.000000 0.049316 0.000000 0.000000
# 5 0.000000 0.000000 0.000000 0.000000 0.128112 0.000000
# 6 0.000000 0.000000 0.000000 0.000000 0.000000 0.053490
#
#
# Mechanical properties :
#
#
# Convention : Reuss Voigt Hill
#
# Bulk Modulus (GPa) = 43.51238 45.45695 44.48466
# Shear Modulus (GPa) = 18.20651 29.27360 23.74005
#
# Velocity S-wave (km/s) = 2.84495 3.60744 3.24864
# Velocity P-wave (km/s) = 5.48955 6.12858 5.81784
#
# Compressibility (1/GPa) = 0.02298196
#
# Stress axis : x y z
#
# Youngs Moduli (GPa) = 99.17183 145.67034 79.57497
#
# Poissons Ratio (x) = 0.00223 0.13138
# Poissons Ratio (y) = 0.00152 0.12734
# Poissons Ratio (z) = 0.16373 0.23311
#
# Static dielectric constant tensor:
#      x y z
#    x 1.852580 0.000000 0.000000 
#    y 0.000000 1.823550 0.000000 
#    z 0.000000 0.000000 1.910910 
# 
# From -- ./inp_files/34331.got.cif
#   From: 2010.05.17/outbox.cif.g08.bks.cpg/sg73_18_cif.got.tgz:34331.got - 2010.06.03 17:35:07.
