data_PCOD9530111
_publ_section_title
;
Structure prediction by ZEFSAII (Michael W. Deem and Ramdas Pophale) SiO2 
 PCOD9530111
Probable space group: I B C A 
;
_chemical_formula_sum "Si O2"
_cell_formula_units_Z 88
_cell_length_a 24.428055
_cell_length_b 5.280708
_cell_length_c 33.353582
_cell_angle_alpha 90.000000
_cell_angle_beta 90.000000
_cell_angle_gamma 90.000000
_cell_volume 4302.526208
_symmetry_space_group_name_H-M "I B C A "
_symmetry_group_IT_number 73
_symmetry_cell_setting 'orthorhombic'
loop_
_space_group_symop_operation_xyz
x,y,z
-x,1/2-y,z
x,-y,1/2-z
1/2-x,y,-z
-x,-y,-z
x,1/2+y,-z
-x,y,1/2+z
1/2+x,-y,z
1/2+x,1/2+y,1/2+z
1/2-x,-y,1/2+z
1/2+x,1/2-y,-z
-x,1/2+y,1/2-z
1/2-x,1/2-y,1/2-z
1/2+x,y,1/2-z
1/2-x,1/2+y,z
x,1/2-y,1/2+z
loop_
_atom_site_type_symbol
_atom_site_label
_atom_site_fract_x
_atom_site_fract_y
_atom_site_fract_z
Si Si1 0.943914 0.686650 0.974146
Si Si2 0.000000 0.750000 0.722495
Si Si3 0.816162 0.651741 0.143789
Si Si4 0.804510 0.849545 0.388207
Si Si5 0.821175 0.760628 0.973422
Si Si6 0.620927 0.250324 0.222476
O O1 0.000000 0.750000 0.950849
O O2 0.945664 0.397886 0.989904
O O3 0.883835 0.737934 0.957299
O O4 0.000544 0.500000 0.750000
O O5 0.059891 0.755112 0.702495
O O6 0.838605 0.377581 0.131402
O O7 0.750999 0.616810 0.137544
O O8 0.834497 0.731390 0.187681
O O9 0.832832 0.878007 0.113873
O O10 0.787360 0.769917 0.432907
O O11 0.813364 0.524480 0.003533
O O12 0.627130 0.500000 0.250000
O O13 0.624515 0.000000 0.250000
#
# Coordination Sequence:
#
# PCOD9530111 Si02
#       6
#    16   8  16  16  16  16
#     4   8  14  25  44  70  95 120 157 212 268 308
#     4   8  16  30  54  86 112 132 170 222 266 298
#     4  10  21  38  55  74 111 150 173 212 285 315
#     4  10  21  38  53  75 109 151 177 224 281 321
#     4  10  19  33  55  77  98 136 188 232 270 320
#     4  10  19  35  60  87 109 141 182 220 257 317
#
# _framework density 20.453098000000001
#
# number of rings (size 3 to 8) (size 9 to 14) (size 15 to 20)
#    0.000    2.545    0.000    2.182    0.000    0.000 
#    0.000   21.818    4.000    0.000    0.000    0.000 
#    0.000    0.000    0.000    0.000    0.000    0.000 
#
# Total GULP energy -244968.769247 kJ/mol
# GULP energy per Si atom -5567.472028 kJ/mol
# Density = 2.040655 g / cm^3
# Si number density = 20.453098 Si / 1000 Ang^3
#
#
#
# Elastic Constant Matrix: (Units=GPa)
#
#
# Indices 1 2 3 4 5 6 
#
# 1 93.3678 -9.1159 27.2859 0.0000 0.0000 0.0000
# 2 -9.1159 121.9259 -10.3069 0.0000 0.0000 0.0000
# 3 27.2859 -10.3069 53.4199 0.0000 0.0000 0.0000
# 4 0.0000 0.0000 0.0000 26.5936 0.0000 0.0000
# 5 0.0000 0.0000 0.0000 0.0000 4.0594 0.0000
# 6 0.0000 0.0000 0.0000 0.0000 0.0000 10.7337
#
#
#
# Elastic Compliance Matrix: (Units=1/GPa)
#
#
# Indices 1 2 3 4 5 6 
#
# 1 0.012609 0.000405 -0.006362 0.000000 0.000000 0.000000
# 2 0.000405 0.008351 0.001404 0.000000 0.000000 0.000000
# 3 -0.006362 0.001404 0.022240 0.000000 0.000000 0.000000
# 4 0.000000 0.000000 0.000000 0.037603 0.000000 0.000000
# 5 0.000000 0.000000 0.000000 0.000000 0.246339 0.000000
# 6 0.000000 0.000000 0.000000 0.000000 0.000000 0.093165
#
#
# Mechanical properties :
#
#
# Convention : Reuss Voigt Hill
#
# Bulk Modulus (GPa) = 29.33067 31.60442 30.46754
# Shear Modulus (GPa) = 11.34358 25.66737 18.50548
#
# Velocity S-wave (km/s) = 2.35758 3.54635 3.01121
# Velocity P-wave (km/s) = 4.66717 5.67931 5.19793
#
# Compressibility (1/GPa) = 0.03409400
#
# Stress axis : x y z
#
# Youngs Moduli (GPa) = 79.30697 119.75055 44.96319
#
# Poissons Ratio (x) = -0.04849 0.28608
# Poissons Ratio (y) = -0.03211 -0.06315
# Poissons Ratio (z) = 0.50459 -0.16818
#
# Static dielectric constant tensor:
#      x y z
#    x 1.895340 0.000000 0.000000 
#    y 0.000000 1.818680 0.000000 
#    z 0.000000 0.000000 1.693600 
# 
# From -- ./inp_files/3121.got.cif
#   From: 2010.05.17/outbox.cif.g08.bks.cpg/sg73_2_cif.got.tgz:3121.got - 2010.06.03 17:35:07.
