data_PCOD9530262
_publ_section_title
;
Structure prediction by ZEFSAII (Michael W. Deem and Ramdas Pophale) SiO2 
 PCOD9530262
Probable space group: I B C A 
;
_chemical_formula_sum "Si O2"
_cell_formula_units_Z 128
_cell_length_a 12.030230
_cell_length_b 24.732446
_cell_length_c 24.234058
_cell_angle_alpha 90.000000
_cell_angle_beta 90.000000
_cell_angle_gamma 90.000000
_cell_volume 7210.529251
_symmetry_space_group_name_H-M "I B C A "
_symmetry_group_IT_number 73
_symmetry_cell_setting 'orthorhombic'
loop_
_space_group_symop_operation_xyz
x,y,z
-x,1/2-y,z
x,-y,1/2-z
1/2-x,y,-z
-x,-y,-z
x,1/2+y,-z
-x,y,1/2+z
1/2+x,-y,z
1/2+x,1/2+y,1/2+z
1/2-x,-y,1/2+z
1/2+x,1/2-y,-z
-x,1/2+y,1/2-z
1/2-x,1/2-y,1/2-z
1/2+x,y,1/2-z
1/2-x,1/2+y,z
x,1/2-y,1/2+z
loop_
_atom_site_type_symbol
_atom_site_label
_atom_site_fract_x
_atom_site_fract_y
_atom_site_fract_z
Si Si1 0.250883 0.468961 0.433237
Si Si2 0.209920 0.089224 0.436635
Si Si3 0.058321 0.193664 0.843507
Si Si4 0.366229 0.832398 0.125855
Si Si5 0.451331 0.393525 0.562485
Si Si6 0.996195 0.315447 0.226159
Si Si7 0.189841 0.706968 0.858456
Si Si8 0.089360 0.874399 0.434810
O O1 0.250000 0.471680 0.500000
O O2 0.249726 0.530878 0.414964
O O3 0.138978 0.437322 0.418008
O O4 0.358619 0.432659 0.417689
O O5 0.250000 0.098146 0.500000
O O6 0.259862 0.136261 0.397843
O O7 0.077190 0.085765 0.438617
O O8 0.050809 0.155626 0.895640
O O9 0.187421 0.207575 0.834190
O O10 0.000000 0.250000 0.855358
O O11 0.004093 0.166658 0.789147
O O12 0.403040 0.839303 0.189694
O O13 0.350275 0.767170 0.124160
O O14 0.470849 0.855678 0.090458
O O15 0.420063 0.375721 0.500565
O O16 0.887911 0.321123 0.187948
O O17 0.000000 0.250000 0.230534
O O18 0.176860 0.669419 0.912089
#
# Coordination Sequence:
#
# PCOD9530262 Si02
#       8
#    16  16  16  16  16  16  16  16
#     4   9  21  35  57  79 109 153 189 237 279 336
#     4  11  22  36  56  87 116 144 190 248 283 330
#     4  11  22  35  56  87 119 148 187 243 282 330
#     4  10  20  36  57  84 113 153 191 227 289 344
#     4  11  22  37  54  88 116 147 197 228 290 344
#     4   8  19  36  57  81 109 153 193 228 273 340
#     4  10  20  37  57  84 117 153 190 223 286 357
#     4  10  19  37  56  80 115 154 188 224 283 362
#
# _framework density 17.751819000000001
#
# number of rings (size 3 to 8) (size 9 to 14) (size 15 to 20)
#    0.000    2.000    2.500    1.875    1.750    8.000 
#    2.250    0.000    0.000    0.750    0.000    0.000 
#    0.000    0.000    0.000    0.000    0.000    0.000 
#
# Total GULP energy -356497.137719 kJ/mol
# GULP energy per Si atom -5570.267777 kJ/mol
# Density = 1.771141 g / cm^3
# Si number density = 17.751819 Si / 1000 Ang^3
#
#
#
# Elastic Constant Matrix: (Units=GPa)
#
#
# Indices 1 2 3 4 5 6 
#
# 1 83.2865 12.8134 21.8462 0.0000 0.0000 0.0000
# 2 12.8134 63.9375 24.4249 0.0000 0.0000 0.0000
# 3 21.8462 24.4249 63.3227 0.0000 0.0000 0.0000
# 4 0.0000 0.0000 0.0000 -4.7301 0.0000 0.0000
# 5 0.0000 0.0000 0.0000 0.0000 15.4845 0.0000
# 6 0.0000 0.0000 0.0000 0.0000 0.0000 19.4524
#
#
#
# Elastic Compliance Matrix: (Units=1/GPa)
#
#
# Indices 1 2 3 4 5 6 
#
# 1 0.013263 -0.001067 -0.004164 0.000000 0.000000 0.000000
# 2 -0.001067 0.018429 -0.006740 0.000000 0.000000 0.000000
# 3 -0.004164 -0.006740 0.019829 0.000000 0.000000 0.000000
# 4 0.000000 0.000000 0.000000 -0.211410 0.000000 0.000000
# 5 0.000000 0.000000 0.000000 0.000000 0.064581 0.000000
# 6 0.000000 0.000000 0.000000 0.000000 0.000000 0.051408
#
#
# Mechanical properties :
#
#
# Convention : Reuss Voigt Hill
#
# Bulk Modulus (GPa) = 36.26137 36.52395 36.39266
# Shear Modulus (GPa) = -464.45533 16.13883 -224.15825
#
# Velocity S-wave (km/s) = -16.19278 3.01846 -11.24933
# Velocity P-wave (km/s) = 18.14213 5.72430 12.17311
#
# Compressibility (1/GPa) = 0.02757756
#
# Stress axis : x y z
#
# Youngs Moduli (GPa) = 75.39661 54.26231 50.43226
#
# Poissons Ratio (x) = 0.05791 0.21001
# Poissons Ratio (y) = 0.08047 0.33993
# Poissons Ratio (z) = 0.31396 0.36574
#
# Static dielectric constant tensor:
#      x y z
#    x 1.667730 0.000000 0.000000 
#    y 0.000000 1.598860 0.000000 
#    z 0.000000 0.000000 1.604750 
# 
# From -- ./inp_files/29144.got.cif
#   From: 2010.05.17/outbox.cif.g08.bks.cpg/sg73_15_cif.got.tgz:29144.got - 2010.06.03 17:35:07.
