data_PCOD9530258
_publ_section_title
;
Structure prediction by ZEFSAII (Michael W. Deem and Ramdas Pophale) SiO2 
 PCOD9530258
Probable space group: I B C A 
;
_chemical_formula_sum "Si O2"
_cell_formula_units_Z 80
_cell_length_a 7.565628
_cell_length_b 27.086043
_cell_length_c 13.881587
_cell_angle_alpha 90.000000
_cell_angle_beta 90.000000
_cell_angle_gamma 90.000000
_cell_volume 2844.655416
_symmetry_space_group_name_H-M "I B C A "
_symmetry_group_IT_number 73
_symmetry_cell_setting 'orthorhombic'
loop_
_space_group_symop_operation_xyz
x,y,z
-x,1/2-y,z
x,-y,1/2-z
1/2-x,y,-z
-x,-y,-z
x,1/2+y,-z
-x,y,1/2+z
1/2+x,-y,z
1/2+x,1/2+y,1/2+z
1/2-x,-y,1/2+z
1/2+x,1/2-y,-z
-x,1/2+y,1/2-z
1/2-x,1/2-y,1/2-z
1/2+x,y,1/2-z
1/2-x,1/2+y,z
x,1/2-y,1/2+z
loop_
_atom_site_type_symbol
_atom_site_label
_atom_site_fract_x
_atom_site_fract_y
_atom_site_fract_z
Si Si1 0.952132 0.031057 0.162664
Si Si2 0.499861 0.123518 0.699227
Si Si3 0.412206 0.943978 0.452838
Si Si4 0.217065 0.196426 0.614827
Si Si5 0.302012 0.189055 0.887697
O O1 0.953661 0.085527 0.213057
O O2 0.040571 0.000000 0.250000
O O3 0.827410 0.983606 0.123917
O O4 0.998339 0.040989 0.051891
O O5 0.452599 0.085573 0.611968
O O6 0.511586 0.181811 0.870027
O O7 0.681624 0.149009 0.664942
O O8 0.250000 0.914855 0.500000
O O9 0.250000 0.190395 0.500000
O O10 0.357151 0.166181 0.677401
O O11 0.237745 0.254175 0.639703
O O12 0.250000 0.188658 0.000000
#
# Coordination Sequence:
#
# PCOD9530258 Si02
#       5
#    16  16  16  16  16
#     4   9  22  45  74 109 151 208 259 330 412 487
#     4  11  21  40  75 115 157 204 273 334 398 478
#     4  10  22  44  78 105 154 212 263 328 414 491
#     4  10  20  35  66 117 161 218 274 329 406 488
#     4  10  19  36  68 110 167 218 269 332 408 485
#
# _framework density 28.122914000000002
#
# number of rings (size 3 to 8) (size 9 to 14) (size 15 to 20)
#    0.000    2.000    2.000    1.200    0.000    2.400 
#    0.000   13.000    8.800   10.800    0.000   16.800 
#    0.000    6.400    0.000    0.000    0.000    0.000 
#
# Total GULP energy -222713.194209 kJ/mol
# GULP energy per Si atom -5567.829855 kJ/mol
# Density = 2.805891 g / cm^3
# Si number density = 28.122914 Si / 1000 Ang^3
#
#
#
# Elastic Constant Matrix: (Units=GPa)
#
#
# Indices 1 2 3 4 5 6 
#
# 1 66.3090 68.8175 47.3167 0.0000 0.0000 0.0000
# 2 68.8175 244.1140 109.0767 0.0000 0.0000 0.0000
# 3 47.3167 109.0767 226.9314 -0.0005 0.0000 0.0000
# 4 0.0000 0.0000 -0.0005 86.8275 0.0000 0.0000
# 5 0.0000 0.0000 0.0000 0.0000 41.8106 0.0000
# 6 0.0000 0.0000 0.0000 0.0000 0.0000 28.6905
#
#
#
# Elastic Compliance Matrix: (Units=1/GPa)
#
#
# Indices 1 2 3 4 5 6 
#
# 1 0.022042 -0.005298 -0.002049 0.000000 0.000000 0.000000
# 2 -0.005298 0.006490 -0.002015 0.000000 0.000000 0.000000
# 3 -0.002049 -0.002015 0.005802 0.000000 0.000000 0.000000
# 4 0.000000 0.000000 0.000000 0.011517 0.000000 0.000000
# 5 0.000000 0.000000 0.000000 0.000000 0.023917 0.000000
# 6 0.000000 0.000000 0.000000 0.000000 0.000000 0.034855
#
#
# Mechanical properties :
#
#
# Convention : Reuss Voigt Hill
#
# Bulk Modulus (GPa) = 64.06204 109.75292 86.90748
# Shear Modulus (GPa) = 38.89492 52.27530 45.58511
#
# Velocity S-wave (km/s) = 3.72295 4.31608 4.03044
# Velocity P-wave (km/s) = 6.42723 7.99680 7.25459
#
# Compressibility (1/GPa) = 0.01560987
#
# Stress axis : x y z
#
# Youngs Moduli (GPa) = 45.36858 154.07503 172.34186
#
# Poissons Ratio (x) = 0.81629 0.35318
# Poissons Ratio (y) = 0.24036 0.34726
# Poissons Ratio (z) = 0.09297 0.31046
#
# Static dielectric constant tensor:
#      x y z
#    x 2.630100 0.000000 0.000000 
#    y 0.000000 2.392020 0.000000 
#    z 0.000000 0.000000 2.283790 
# 
# From -- ./inp_files/11160.got.cif
#   From: 2010.05.17/outbox.cif.g08.bks.cpg/sg73_6_cif.got.tgz:11160.got - 2010.06.03 17:35:07.
