data_PCOD9530955
_publ_section_title
;
Structure prediction by ZEFSAII (Michael W. Deem and Ramdas Pophale) SiO2 
 PCOD9530955
Probable space group: I B C A 
;
_chemical_formula_sum "Si O2"
_cell_formula_units_Z 120
_cell_length_a 16.041832
_cell_length_b 22.503145
_cell_length_c 16.874338
_cell_angle_alpha 90.000000
_cell_angle_beta 90.000000
_cell_angle_gamma 90.000000
_cell_volume 6091.495481
_symmetry_space_group_name_H-M "I B C A "
_symmetry_group_IT_number 73
_symmetry_cell_setting 'orthorhombic'
loop_
_space_group_symop_operation_xyz
x,y,z
-x,1/2-y,z
x,-y,1/2-z
1/2-x,y,-z
-x,-y,-z
x,1/2+y,-z
-x,y,1/2+z
1/2+x,-y,z
1/2+x,1/2+y,1/2+z
1/2-x,-y,1/2+z
1/2+x,1/2-y,-z
-x,1/2+y,1/2-z
1/2-x,1/2-y,1/2-z
1/2+x,y,1/2-z
1/2-x,1/2+y,z
x,1/2-y,1/2+z
loop_
_atom_site_type_symbol
_atom_site_label
_atom_site_fract_x
_atom_site_fract_y
_atom_site_fract_z
Si Si1 0.245964 0.527605 0.664563
Si Si2 0.099855 0.538091 0.928351
Si Si3 0.930276 0.490558 0.888797
Si Si4 0.000000 0.250000 0.255580
Si Si5 0.238225 0.654170 0.273754
Si Si6 0.834861 0.231523 0.655755
Si Si7 0.420558 0.142897 0.162339
Si Si8 0.654289 0.839613 0.008582
O O1 0.229213 0.500000 0.750000
O O2 0.181517 0.494228 0.606662
O O3 0.343328 0.515150 0.645275
O O4 0.233199 0.598146 0.675088
O O5 0.110365 0.608055 0.942536
O O6 0.016035 0.526370 0.878064
O O7 0.086229 0.513211 0.017018
O O8 0.946997 0.424390 0.855601
O O9 0.920320 0.255125 0.199841
O O10 0.987727 0.190622 0.307825
O O11 0.225204 0.712690 0.327276
O O12 0.297153 0.674510 0.201560
O O13 0.151517 0.639442 0.229044
O O14 0.846587 0.218030 0.563760
O O15 0.382874 0.166332 0.078939
O O16 0.750000 0.858907 0.000000
#
# Coordination Sequence:
#
# PCOD9530955 Si02
#       8
#    16  16  16   8  16  16  16  16
#     4  12  22  37  64  95 122 162 210 254 320 384
#     4  10  23  39  63  90 125 166 209 260 314 385
#     4  10  22  42  60  90 130 166 204 264 319 372
#     4  10  24  38  62  92 130 162 206 266 324 374
#     4  10  21  39  61  89 123 161 203 260 318 370
#     4  10  22  40  60  89 122 161 207 259 314 372
#     4  10  20  40  63  88 124 169 206 258 317 374
#     4  11  20  39  68  87 118 170 221 254 312 390
#
# _framework density 19.699596
#
# number of rings (size 3 to 8) (size 9 to 14) (size 15 to 20)
#    0.000    1.600    2.667    2.800    1.867    3.200 
#    0.000    4.000    0.000    0.000    0.000    0.000 
#    0.000    0.000    0.000    0.000    0.000    0.000 
#
# Total GULP energy -334890.245289 kJ/mol
# GULP energy per Si atom -5581.504088 kJ/mol
# Density = 1.965476 g / cm^3
# Si number density = 19.699596 Si / 1000 Ang^3
#
#
#
# Elastic Constant Matrix: (Units=GPa)
#
#
# Indices 1 2 3 4 5 6 
#
# 1 58.8379 6.5059 -6.6445 0.0000 0.0000 0.0000
# 2 6.5059 45.5812 14.1501 0.0001 0.0000 0.0000
# 3 -6.6445 14.1501 44.8036 0.0002 -0.0001 0.0000
# 4 0.0000 0.0001 0.0002 40.9373 -0.0001 0.0000
# 5 0.0000 0.0000 -0.0001 -0.0001 -0.9876 0.0000
# 6 0.0000 0.0000 0.0000 0.0000 0.0000 3.9463
#
#
#
# Elastic Compliance Matrix: (Units=1/GPa)
#
#
# Indices 1 2 3 4 5 6 
#
# 1 0.017841 -0.003734 0.003825 0.000000 -0.000001 0.000000
# 2 -0.003734 0.025105 -0.008483 0.000000 0.000000 0.000000
# 3 0.003825 -0.008483 0.025566 0.000000 -0.000002 0.000000
# 4 0.000000 0.000000 0.000000 0.024428 -0.000002 0.000000
# 5 -0.000001 0.000000 -0.000002 -0.000002 -1.012537 0.000009
# 6 0.000000 0.000000 0.000000 0.000000 0.000009 0.253399
#
#
# Mechanical properties :
#
#
# Convention : Reuss Voigt Hill
#
# Bulk Modulus (GPa) = 19.33155 19.69398 19.51276
# Shear Modulus (GPa) = -7.90922 17.79330 4.94204
#
# Velocity S-wave (km/s) = -2.00590 3.00864 1.58561
# Velocity P-wave (km/s) = 2.11415 4.69980 3.64402
#
# Compressibility (1/GPa) = 0.05172891
#
# Stress axis : x y z
#
# Youngs Moduli (GPa) = 56.05171 39.83256 39.11467
#
# Poissons Ratio (x) = 0.14873 -0.14962
# Poissons Ratio (y) = 0.20929 0.33179
# Poissons Ratio (z) = -0.21440 0.33788
#
# Static dielectric constant tensor:
#      x y z
#    x 1.706250 0.000000 0.000000 
#    y 0.000000 1.719550 0.000000 
#    z 0.000000 0.000000 1.681260 
# 
# From -- ./inp_files/22817.got.cif
#   From: 2010.05.17/outbox.cif.g08.bks.cpg/sg73_12_cif.got.tgz:22817.got - 2010.06.03 17:35:07.
