data_PCOD9530973
_publ_section_title
;
Structure prediction by ZEFSAII (Michael W. Deem and Ramdas Pophale) SiO2 
 PCOD9530973
Probable space group: I B C A 
;
_chemical_formula_sum "Si O2"
_cell_formula_units_Z 56
_cell_length_a 9.317085
_cell_length_b 17.067591
_cell_length_c 14.299560
_cell_angle_alpha 90.000000
_cell_angle_beta 90.000000
_cell_angle_gamma 90.000000
_cell_volume 2273.918835
_symmetry_space_group_name_H-M "I B C A "
_symmetry_group_IT_number 73
_symmetry_cell_setting 'orthorhombic'
loop_
_space_group_symop_operation_xyz
x,y,z
-x,1/2-y,z
x,-y,1/2-z
1/2-x,y,-z
-x,-y,-z
x,1/2+y,-z
-x,y,1/2+z
1/2+x,-y,z
1/2+x,1/2+y,1/2+z
1/2-x,-y,1/2+z
1/2+x,1/2-y,-z
-x,1/2+y,1/2-z
1/2-x,1/2-y,1/2-z
1/2+x,y,1/2-z
1/2-x,1/2+y,z
x,1/2-y,1/2+z
loop_
_atom_site_type_symbol
_atom_site_label
_atom_site_fract_x
_atom_site_fract_y
_atom_site_fract_z
Si Si1 0.750000 0.514573 0.500000
Si Si2 0.799344 0.730243 0.098370
Si Si3 0.595605 0.827099 0.736407
Si Si4 0.515705 0.086664 0.109876
O O1 0.631790 0.560402 0.438471
O O2 0.855412 0.466546 0.429420
O O3 0.806782 0.797354 0.176607
O O4 0.687415 0.667006 0.143353
O O5 0.938186 0.675754 0.083694
O O6 0.750000 0.761134 0.000000
O O7 0.500000 0.750000 0.720261
O O8 0.510637 0.901077 0.778018
#
# Coordination Sequence:
#
# PCOD9530973 Si02
#       4
#     8  16  16  16
#     4  10  22  42  68  92 132 182 238 262 328 400
#     4  10  20  40  65  97 131 170 210 278 345 403
#     4   9  21  39  62 103 133 161 223 270 342 406
#     4  10  21  43  64  95 131 174 225 279 324 394
#
# _framework density 24.627087
#
# number of rings (size 3 to 8) (size 9 to 14) (size 15 to 20)
#    0.000    2.286    1.429    0.000    2.000    3.429 
#   10.286    4.286    0.000    0.000    0.000    0.000 
#    0.000    0.000    0.000    0.000    0.000    0.000 
#
# Total GULP energy -156151.620380 kJ/mol
# GULP energy per Si atom -5576.843585 kJ/mol
# Density = 2.457104 g / cm^3
# Si number density = 24.627087 Si / 1000 Ang^3
#
#
#
# Elastic Constant Matrix: (Units=GPa)
#
#
# Indices 1 2 3 4 5 6 
#
# 1 150.8234 52.8077 54.7357 0.0000 0.0000 0.0000
# 2 52.8077 92.7367 20.8468 0.0000 0.0000 0.0000
# 3 54.7357 20.8468 101.0118 0.0000 0.0000 0.0000
# 4 0.0000 0.0000 0.0000 34.4678 0.0000 0.0000
# 5 0.0000 0.0000 0.0000 0.0000 35.7501 0.0000
# 6 0.0000 0.0000 0.0000 0.0000 0.0000 23.1758
#
#
#
# Elastic Compliance Matrix: (Units=1/GPa)
#
#
# Indices 1 2 3 4 5 6 
#
# 1 0.009835 -0.004617 -0.004377 0.000000 0.000000 0.000000
# 2 -0.004617 0.013475 -0.000279 0.000000 0.000000 0.000000
# 3 -0.004377 -0.000279 0.012329 0.000000 0.000000 0.000000
# 4 0.000000 0.000000 0.000000 0.029013 0.000000 0.000000
# 5 0.000000 0.000000 0.000000 0.000000 0.027972 0.000000
# 6 0.000000 0.000000 0.000000 0.000000 0.000000 0.043149
#
#
# Mechanical properties :
#
#
# Convention : Reuss Voigt Hill
#
# Bulk Modulus (GPa) = 58.50027 66.81692 62.65859
# Shear Modulus (GPa) = 31.24710 33.09084 32.16897
#
# Velocity S-wave (km/s) = 3.56590 3.66960 3.61812
# Velocity P-wave (km/s) = 6.38437 6.71900 6.55382
#
# Compressibility (1/GPa) = 0.01709394
#
# Stress axis : x y z
#
# Youngs Moduli (GPa) = 101.67802 74.21232 81.10944
#
# Poissons Ratio (x) = 0.34261 0.35498
# Poissons Ratio (y) = 0.46940 0.02266
# Poissons Ratio (z) = 0.44500 0.02073
#
# Static dielectric constant tensor:
#      x y z
#    x 2.032040 0.000000 0.000000 
#    y 0.000000 1.992270 0.000000 
#    z 0.000000 0.000000 1.991000 
# 
# From -- ./inp_files/5131.got.cif
#   From: 2010.05.17/outbox.cif.g08.bks.cpg/sg73_3_cif.got.tgz:5131.got - 2010.06.03 17:35:07.
