data_PCOD9530246
_publ_section_title
;
Structure prediction by ZEFSAII (Michael W. Deem and Ramdas Pophale) SiO2 
 PCOD9530246
Probable space group: I B C A 
;
_chemical_formula_sum "Si O2"
_cell_formula_units_Z 80
_cell_length_a 21.084811
_cell_length_b 14.606098
_cell_length_c 12.651723
_cell_angle_alpha 90.000000
_cell_angle_beta 90.000000
_cell_angle_gamma 90.000000
_cell_volume 3896.310846
_symmetry_space_group_name_H-M "I B C A "
_symmetry_group_IT_number 73
_symmetry_cell_setting 'orthorhombic'
loop_
_space_group_symop_operation_xyz
x,y,z
-x,1/2-y,z
x,-y,1/2-z
1/2-x,y,-z
-x,-y,-z
x,1/2+y,-z
-x,y,1/2+z
1/2+x,-y,z
1/2+x,1/2+y,1/2+z
1/2-x,-y,1/2+z
1/2+x,1/2-y,-z
-x,1/2+y,1/2-z
1/2-x,1/2-y,1/2-z
1/2+x,y,1/2-z
1/2-x,1/2+y,z
x,1/2-y,1/2+z
loop_
_atom_site_type_symbol
_atom_site_label
_atom_site_fract_x
_atom_site_fract_y
_atom_site_fract_z
Si Si1 0.250000 0.838996 0.000000
Si Si2 0.956198 0.340907 0.255125
Si Si3 0.956553 0.000000 0.250000
Si Si4 0.345515 0.730875 0.853918
Si Si5 0.357936 0.126260 0.357523
Si Si6 0.933123 0.793384 0.967348
O O1 0.286565 0.774009 0.915851
O O2 0.199279 0.897887 0.934865
O O3 0.891733 0.313222 0.313458
O O4 0.943787 0.361144 0.130689
O O5 0.000000 0.250000 0.253495
O O6 0.997427 0.423387 0.299614
O O7 0.909795 0.050569 0.168935
O O8 0.332047 0.667580 0.753195
O O9 0.389704 0.675549 0.936437
O O10 0.394238 0.209729 0.414438
O O11 0.000000 0.750000 0.003052
#
# Coordination Sequence:
#
# PCOD9530246 Si02
#       6
#     8  16   8  16  16  16
#     4  10  22  40  60  86 120 168 220 246 296 370
#     4  10  19  37  59  88 127 156 195 255 320 371
#     4  12  20  38  62  92 126 158 196 256 322 372
#     4  10  19  36  63  86 119 162 208 253 302 367
#     4  10  21  37  59  88 123 167 201 256 307 361
#     4   9  16  32  55  86 120 152 194 249 303 371
#
# _framework density 20.532243000000001
#
# number of rings (size 3 to 8) (size 9 to 14) (size 15 to 20)
#    0.000    2.000    6.000    1.200    0.000    0.000 
#    0.000   11.000    0.000    0.000    0.000    0.000 
#    0.000    0.000    0.000    0.000    0.000    0.000 
#
# Total GULP energy -223201.777010 kJ/mol
# GULP energy per Si atom -5580.044425 kJ/mol
# Density = 2.048551 g / cm^3
# Si number density = 20.532243 Si / 1000 Ang^3
#
#
#
# Elastic Constant Matrix: (Units=GPa)
#
#
# Indices 1 2 3 4 5 6 
#
# 1 89.0592 14.7291 32.6102 0.0000 0.0000 0.0000
# 2 14.7291 60.8601 9.0336 0.0000 0.0000 0.0000
# 3 32.6102 9.0336 98.4307 0.0000 0.0000 0.0000
# 4 0.0000 0.0000 0.0000 8.0916 0.0000 0.0000
# 5 0.0000 0.0000 0.0000 0.0000 35.9068 0.0000
# 6 0.0000 0.0000 0.0000 0.0000 0.0000 27.1520
#
#
#
# Elastic Compliance Matrix: (Units=1/GPa)
#
#
# Indices 1 2 3 4 5 6 
#
# 1 0.013165 -0.002574 -0.004125 0.000000 0.000000 0.000000
# 2 -0.002574 0.017161 -0.000722 0.000000 0.000000 0.000000
# 3 -0.004125 -0.000722 0.011592 0.000000 0.000000 0.000000
# 4 0.000000 0.000000 0.000000 0.123585 0.000000 0.000000
# 5 0.000000 0.000000 0.000000 0.000000 0.027850 0.000000
# 6 0.000000 0.000000 0.000000 0.000000 0.000000 0.036830
#
#
# Mechanical properties :
#
#
# Convention : Reuss Voigt Hill
#
# Bulk Modulus (GPa) = 36.93349 40.12176 38.52762
# Shear Modulus (GPa) = 19.68111 27.02856 23.35483
#
# Velocity S-wave (km/s) = 3.09940 3.63215 3.37630
# Velocity P-wave (km/s) = 5.55297 6.09699 5.83133
#
# Compressibility (1/GPa) = 0.02707570
#
# Stress axis : x y z
#
# Youngs Moduli (GPa) = 75.96095 58.27090 86.26317
#
# Poissons Ratio (x) = 0.14997 0.35586
# Poissons Ratio (y) = 0.19550 0.06231
# Poissons Ratio (z) = 0.31336 0.04209
#
# Static dielectric constant tensor:
#      x y z
#    x 1.766990 0.000000 0.000000 
#    y 0.000000 1.711600 0.000000 
#    z 0.000000 0.000000 1.811360 
# 
# From -- ./inp_files/18531.got.cif
#   From: 2010.05.17/outbox.cif.g08.bks.cpg/sg73_10_cif.got.tgz:18531.got - 2010.06.03 17:35:07.
