data_PCOD9530081
_publ_section_title
;
Structure prediction by ZEFSAII (Michael W. Deem and Ramdas Pophale) SiO2 
 PCOD9530081
Probable space group: I B C A 
;
_chemical_formula_sum "Si O2"
_cell_formula_units_Z 120
_cell_length_a 20.337380
_cell_length_b 17.601900
_cell_length_c 17.682520
_cell_angle_alpha 90.000000
_cell_angle_beta 90.000000
_cell_angle_gamma 90.000000
_cell_volume 6329.927134
_symmetry_space_group_name_H-M "I B C A "
_symmetry_group_IT_number 73
_symmetry_cell_setting 'orthorhombic'
loop_
_space_group_symop_operation_xyz
x,y,z
-x,1/2-y,z
x,-y,1/2-z
1/2-x,y,-z
-x,-y,-z
x,1/2+y,-z
-x,y,1/2+z
1/2+x,-y,z
1/2+x,1/2+y,1/2+z
1/2-x,-y,1/2+z
1/2+x,1/2-y,-z
-x,1/2+y,1/2-z
1/2-x,1/2-y,1/2-z
1/2+x,y,1/2-z
1/2-x,1/2+y,z
x,1/2-y,1/2+z
loop_
_atom_site_type_symbol
_atom_site_label
_atom_site_fract_x
_atom_site_fract_y
_atom_site_fract_z
Si Si1 0.485164 0.384451 0.149433
Si Si2 0.825574 0.390435 0.992937
Si Si3 0.000000 0.250000 0.960989
Si Si4 0.629139 0.065589 0.660665
Si Si5 0.061663 0.508284 0.941368
Si Si6 0.869870 0.609577 0.829085
Si Si7 0.526792 0.637146 0.678493
Si Si8 0.613421 0.250608 0.919412
O O1 0.512589 0.318618 0.095893
O O2 0.549613 0.436001 0.162678
O O3 0.431807 0.428034 0.099541
O O4 0.459673 0.363129 0.231963
O O5 0.843117 0.381859 0.905064
O O6 0.750000 0.411482 0.000000
O O7 0.875522 0.456880 0.018175
O O8 0.841634 0.315725 0.042392
O O9 0.061033 0.271178 0.014909
O O10 0.650141 0.101555 0.740955
O O11 0.646054 0.976811 0.645314
O O12 0.048981 0.566349 0.872575
O O13 0.000000 0.500000 0.000000
O O14 0.847680 0.679783 0.882135
O O15 0.947967 0.629758 0.828869
O O16 0.566851 0.706930 0.642283
#
# Coordination Sequence:
#
# PCOD9530081 Si02
#       8
#    16  16   8  16  16  16  16  16
#     4  11  21  32  54  90 125 153 196 258 321 367
#     4  11  24  42  62  85 126 170 203 252 321 379
#     4  12  22  30  54  96 122 158 192 260 318 370
#     4  10  20  36  60  88 118 158 206 251 313 375
#     4  11  19  36  62  89 114 153 208 263 305 366
#     4  10  19  33  61  88 117 157 204 259 305 373
#     4  10  19  31  53  87 125 155 190 254 325 373
#     4  11  22  36  56  87 123 159 203 252 312 375
#
# _framework density 18.957564000000001
#
# number of rings (size 3 to 8) (size 9 to 14) (size 15 to 20)
#    0.000    1.333    5.333    1.200    5.600    0.000 
#    0.000    1.333   11.733    0.000    0.000    0.000 
#    0.000    0.000    0.000    0.000    0.000    0.000 
#
# Total GULP energy -334117.403577 kJ/mol
# GULP energy per Si atom -5568.623393 kJ/mol
# Density = 1.891442 g / cm^3
# Si number density = 18.957564 Si / 1000 Ang^3
#
#
#
# Elastic Constant Matrix: (Units=GPa)
#
#
# Indices 1 2 3 4 5 6 
#
# 1 63.8812 13.2061 25.3250 0.0000 0.0000 0.0000
# 2 13.2061 96.1377 52.6036 0.0000 0.0000 0.0000
# 3 25.3250 52.6036 149.4033 0.0000 0.0000 0.0000
# 4 0.0000 0.0000 0.0000 25.3648 0.0000 0.0000
# 5 0.0000 0.0000 0.0000 0.0000 5.4030 0.0000
# 6 0.0000 0.0000 0.0000 0.0000 0.0000 12.0764
#
#
#
# Elastic Compliance Matrix: (Units=1/GPa)
#
#
# Indices 1 2 3 4 5 6 
#
# 1 0.016849 -0.000931 -0.002528 0.000000 0.000000 0.000000
# 2 -0.000931 0.012935 -0.004397 0.000000 0.000000 0.000000
# 3 -0.002528 -0.004397 0.008670 0.000000 0.000000 0.000000
# 4 0.000000 0.000000 0.000000 0.039425 0.000000 0.000000
# 5 0.000000 0.000000 0.000000 0.000000 0.185083 0.000000
# 6 0.000000 0.000000 0.000000 0.000000 0.000000 0.082806
#
#
# Mechanical properties :
#
#
# Convention : Reuss Voigt Hill
#
# Bulk Modulus (GPa) = 43.97107 54.63241 49.30174
# Shear Modulus (GPa) = 13.54791 23.12133 18.33462
#
# Velocity S-wave (km/s) = 2.67618 3.49612 3.11326
# Velocity P-wave (km/s) = 5.72661 6.72145 6.24388
#
# Compressibility (1/GPa) = 0.02274223
#
# Stress axis : x y z
#
# Youngs Moduli (GPa) = 59.35139 77.30767 115.34242
#
# Poissons Ratio (x) = 0.07198 0.29160
# Poissons Ratio (y) = 0.05526 0.50711
# Poissons Ratio (z) = 0.15005 0.33989
#
# Static dielectric constant tensor:
#      x y z
#    x 1.483550 0.000000 0.000000 
#    y 0.000000 0.720310 0.000000 
#    z 0.000000 0.000000 1.743470 
# 
# From -- ./inp_files/22696.got.cif
#   From: 2010.05.17/outbox.cif.g08.bks.cpg/sg73_12_cif.got.tgz:22696.got - 2010.06.03 17:35:07.
