data_PCOD9530879
_publ_section_title
;
Structure prediction by ZEFSAII (Michael W. Deem and Ramdas Pophale) SiO2 
 PCOD9530879
Probable space group: I B C A 
;
_chemical_formula_sum "Si O2"
_cell_formula_units_Z 96
_cell_length_a 14.059976
_cell_length_b 21.295473
_cell_length_c 13.520249
_cell_angle_alpha 90.000000
_cell_angle_beta 90.000000
_cell_angle_gamma 90.000000
_cell_volume 4048.149661
_symmetry_space_group_name_H-M "I B C A "
_symmetry_group_IT_number 73
_symmetry_cell_setting 'orthorhombic'
loop_
_space_group_symop_operation_xyz
x,y,z
-x,1/2-y,z
x,-y,1/2-z
1/2-x,y,-z
-x,-y,-z
x,1/2+y,-z
-x,y,1/2+z
1/2+x,-y,z
1/2+x,1/2+y,1/2+z
1/2-x,-y,1/2+z
1/2+x,1/2-y,-z
-x,1/2+y,1/2-z
1/2-x,1/2-y,1/2-z
1/2+x,y,1/2-z
1/2-x,1/2+y,z
x,1/2-y,1/2+z
loop_
_atom_site_type_symbol
_atom_site_label
_atom_site_fract_x
_atom_site_fract_y
_atom_site_fract_z
Si Si1 0.647236 0.770295 0.945666
Si Si2 0.716312 0.861281 0.792044
Si Si3 0.171980 0.637022 0.587421
Si Si4 0.098677 0.618125 0.917623
Si Si5 0.052918 0.561940 0.296081
Si Si6 0.862577 0.513683 0.000637
O O1 0.668186 0.799725 0.838366
O O2 0.610947 0.699370 0.933833
O O3 0.750000 0.764289 0.000000
O O4 0.592937 0.821597 0.011932
O O5 0.770601 0.853243 0.688569
O O6 0.796519 0.881925 0.869704
O O7 0.632906 0.911231 0.776436
O O8 0.250000 0.632496 0.500000
O O9 0.120077 0.570048 0.579654
O O10 0.021603 0.614667 0.830078
O O11 0.087785 0.551807 0.973680
O O12 0.006240 0.500000 0.250000
O O13 0.107288 0.540366 0.395047
O O14 0.750000 0.500719 0.000000
#
# Coordination Sequence:
#
# PCOD9530879 Si02
#       6
#    16  16  16  16  16  16
#     4   9  20  42  69  94 127 176 225 284 342 419
#     4  11  22  42  69 100 133 183 233 283 354 420
#     4  10  20  38  71  96 130 176 223 274 349 412
#     4  11  25  42  66  97 142 177 233 286 352 409
#     4  12  25  39  65 101 138 185 237 290 344 424
#     4  11  21  41  66  96 132 180 223 280 349 418
#
# _framework density 23.714538000000001
#
# number of rings (size 3 to 8) (size 9 to 14) (size 15 to 20)
#    0.000    1.333    3.333    4.500    2.333    0.000 
#    0.000    0.833    0.000    0.000    0.000    0.000 
#    0.000    0.000    0.000    0.000    0.000    0.000 
#
# Total GULP energy -268531.574810 kJ/mol
# GULP energy per Si atom -5594.407809 kJ/mol
# Density = 2.366056 g / cm^3
# Si number density = 23.714538 Si / 1000 Ang^3
#
#
#
# Elastic Constant Matrix: (Units=GPa)
#
#
# Indices 1 2 3 4 5 6 
#
# 1 79.1236 32.8308 6.5383 -0.0001 0.0000 0.0000
# 2 32.8308 133.1956 31.2082 0.0002 0.0000 0.0000
# 3 6.5383 31.2082 76.6351 0.0003 0.0000 0.0000
# 4 -0.0001 0.0002 0.0003 -4.8075 0.0000 0.0000
# 5 0.0000 0.0000 0.0000 0.0000 29.7608 0.0000
# 6 0.0000 0.0000 0.0000 0.0000 0.0000 7.1846
#
#
#
# Elastic Compliance Matrix: (Units=1/GPa)
#
#
# Indices 1 2 3 4 5 6 
#
# 1 0.014082 -0.003526 0.000234 0.000000 0.000000 0.000000
# 2 -0.003526 0.009183 -0.003439 0.000000 0.000000 0.000000
# 3 0.000234 -0.003439 0.014429 0.000001 0.000000 0.000000
# 4 0.000000 0.000000 0.000001 -0.208010 0.000000 0.000000
# 5 0.000000 0.000000 0.000000 0.000000 0.033601 0.000000
# 6 0.000000 0.000000 0.000000 0.000000 0.000000 0.139186
#
#
# Mechanical properties :
#
#
# Convention : Reuss Voigt Hill
#
# Bulk Modulus (GPa) = 41.26509 47.78988 44.52749
# Shear Modulus (GPa) = 208.25811 20.98606 114.62209
#
# Velocity S-wave (km/s) = 9.38133 2.97803 6.95982
# Velocity P-wave (km/s) = 11.60967 5.65869 9.13250
#
# Compressibility (1/GPa) = 0.02423356
#
# Stress axis : x y z
#
# Youngs Moduli (GPa) = 71.01201 108.90238 69.30414
#
# Poissons Ratio (x) = 0.38399 -0.01625
# Poissons Ratio (y) = 0.25039 0.23831
# Poissons Ratio (z) = -0.01665 0.37447
#
# Static dielectric constant tensor:
#      x y z
#    x 1.926310 0.000000 0.000000 
#    y 0.000000 1.946310 0.000000 
#    z 0.000000 0.000000 1.899580 
# 
# From -- ./inp_files/17028.got.cif
#   From: 2010.05.17/outbox.cif.g08.bks.cpg/sg73_9_cif.got.tgz:17028.got - 2010.06.03 17:35:07.
