data_PCOD9530361
_publ_section_title
;
Structure prediction by ZEFSAII (Michael W. Deem and Ramdas Pophale) SiO2 
 PCOD9530361
Probable space group: I B C A 
;
_chemical_formula_sum "Si O2"
_cell_formula_units_Z 80
_cell_length_a 27.732169
_cell_length_b 10.891424
_cell_length_c 14.673675
_cell_angle_alpha 90.000000
_cell_angle_beta 90.000000
_cell_angle_gamma 90.000000
_cell_volume 4432.078045
_symmetry_space_group_name_H-M "I B C A "
_symmetry_group_IT_number 73
_symmetry_cell_setting 'orthorhombic'
loop_
_space_group_symop_operation_xyz
x,y,z
-x,1/2-y,z
x,-y,1/2-z
1/2-x,y,-z
-x,-y,-z
x,1/2+y,-z
-x,y,1/2+z
1/2+x,-y,z
1/2+x,1/2+y,1/2+z
1/2-x,-y,1/2+z
1/2+x,1/2-y,-z
-x,1/2+y,1/2-z
1/2-x,1/2-y,1/2-z
1/2+x,y,1/2-z
1/2-x,1/2+y,z
x,1/2-y,1/2+z
loop_
_atom_site_type_symbol
_atom_site_label
_atom_site_fract_x
_atom_site_fract_y
_atom_site_fract_z
Si Si1 0.822635 0.000000 0.750000
Si Si2 0.093218 0.835837 0.170219
Si Si3 0.640787 0.677130 0.018041
Si Si4 0.698996 0.067068 0.450315
Si Si5 0.080466 0.113715 0.696478
Si Si6 0.513131 0.000000 0.250000
O O1 0.858733 0.104755 0.786404
O O2 0.795500 0.045236 0.659086
O O3 0.080516 0.722258 0.232089
O O4 0.048737 0.927654 0.183287
O O5 0.105473 0.802748 0.067462
O O6 0.670603 0.803748 0.034052
O O7 0.609175 0.647411 0.106692
O O8 0.671775 0.554354 0.991267
O O9 0.750000 0.076600 0.500000
O O10 0.104454 0.000000 0.750000
O O11 0.024298 0.076252 0.687451
#
# Coordination Sequence:
#
# PCOD9530361 Si02
#       6
#     8  16  16  16  16   8
#     4   9  20  40  67  84 128 172 189 258 330 363
#     4  10  19  40  60  89 127 165 212 247 321 371
#     4  11  23  41  69  92 128 172 208 266 321 380
#     4  11  23  44  65  99 125 163 217 262 317 387
#     4  10  21  38  60  92 126 166 211 259 310 375
#     4   9  22  36  61  88 130 164 209 266 290 381
#
# _framework density 18.050225000000001
#
# number of rings (size 3 to 8) (size 9 to 14) (size 15 to 20)
#    0.600    1.200    2.000    2.400    0.000    0.800 
#    5.400    5.000    0.000    0.000    0.000    0.000 
#    0.000    0.000    0.000    0.000    0.000    0.000 
#
# Total GULP energy -222765.318664 kJ/mol
# GULP energy per Si atom -5569.132967 kJ/mol
# Density = 1.800914 g / cm^3
# Si number density = 18.050225 Si / 1000 Ang^3
#
#
#
# Elastic Constant Matrix: (Units=GPa)
#
#
# Indices 1 2 3 4 5 6 
#
# 1 114.6852 43.3736 96.0769 0.0000 0.0000 0.0000
# 2 43.3736 68.2067 83.6248 0.0000 0.0000 0.0000
# 3 96.0769 83.6248 176.2785 0.0000 0.0000 0.0000
# 4 0.0000 0.0000 0.0000 21.6659 0.0000 0.0000
# 5 0.0000 0.0000 0.0000 0.0000 117.8500 0.0000
# 6 0.0000 0.0000 0.0000 0.0000 0.0000 -76.0951
#
#
#
# Elastic Compliance Matrix: (Units=1/GPa)
#
#
# Indices 1 2 3 4 5 6 
#
# 1 0.016090 0.001243 -0.009359 0.000000 0.000000 0.000000
# 2 0.001243 0.035140 -0.017347 0.000000 0.000000 0.000000
# 3 -0.009359 -0.017347 0.019003 0.000000 0.000000 0.000000
# 4 0.000000 0.000000 0.000000 0.046156 0.000000 0.000000
# 5 0.000000 0.000000 0.000000 0.000000 0.008485 0.000000
# 6 0.000000 0.000000 0.000000 0.000000 0.000000 -0.013141
#
#
# Mechanical properties :
#
#
# Convention : Reuss Voigt Hill
#
# Bulk Modulus (GPa) = 51.79791 89.48011 70.63901
# Shear Modulus (GPa) = 29.56918 21.75715 25.66317
#
# Velocity S-wave (km/s) = 4.05181 3.47561 3.77472
# Velocity P-wave (km/s) = 7.11677 8.11091 7.63005
#
# Compressibility (1/GPa) = 0.01930580
#
# Stress axis : x y z
#
# Youngs Moduli (GPa) = 62.15015 28.45788 52.62244
#
# Poissons Ratio (x) = -0.03537 0.49250
# Poissons Ratio (y) = -0.07725 0.91286
# Poissons Ratio (z) = 0.58168 0.49367
#
# Static dielectric constant tensor:
#      x y z
#    x 1.604700 0.000000 0.000000 
#    y 0.000000 1.709320 0.000000 
#    z 0.000000 0.000000 1.586560 
# 
# From -- ./inp_files/14612.got.cif
#   From: 2010.05.17/outbox.cif.g08.bks.cpg/sg73_8_cif.got.tgz:14612.got - 2010.06.03 17:35:07.
