data_PCOD9530294
_publ_section_title
;
Structure prediction by ZEFSAII (Michael W. Deem and Ramdas Pophale) SiO2 
 PCOD9530294
Probable space group: I B C A 
;
_chemical_formula_sum "Si O2"
_cell_formula_units_Z 112
_cell_length_a 12.851626
_cell_length_b 28.586725
_cell_length_c 14.245408
_cell_angle_alpha 90.000000
_cell_angle_beta 90.000000
_cell_angle_gamma 90.000000
_cell_volume 5233.562014
_symmetry_space_group_name_H-M "I B C A "
_symmetry_group_IT_number 73
_symmetry_cell_setting 'orthorhombic'
loop_
_space_group_symop_operation_xyz
x,y,z
-x,1/2-y,z
x,-y,1/2-z
1/2-x,y,-z
-x,-y,-z
x,1/2+y,-z
-x,y,1/2+z
1/2+x,-y,z
1/2+x,1/2+y,1/2+z
1/2-x,-y,1/2+z
1/2+x,1/2-y,-z
-x,1/2+y,1/2-z
1/2-x,1/2-y,1/2-z
1/2+x,y,1/2-z
1/2-x,1/2+y,z
x,1/2-y,1/2+z
loop_
_atom_site_type_symbol
_atom_site_label
_atom_site_fract_x
_atom_site_fract_y
_atom_site_fract_z
Si Si1 0.634524 0.543849 0.499685
Si Si2 0.470830 0.976364 0.852719
Si Si3 0.562670 0.858509 0.047753
Si Si4 0.093246 0.715157 0.100312
Si Si5 0.353432 0.889410 0.934825
Si Si6 0.963277 0.196067 0.206304
Si Si7 0.240780 0.296362 0.887887
O O1 0.750000 0.524311 0.500000
O O2 0.567151 0.515894 0.575166
O O3 0.581001 0.540230 0.397331
O O4 0.633694 0.596551 0.537607
O O5 0.392325 0.932684 0.871282
O O6 0.475372 0.000000 0.750000
O O7 0.613547 0.816747 0.988176
O O8 0.451245 0.874191 0.001068
O O9 0.538341 0.838161 0.149856
O O10 0.054417 0.683305 0.185741
O O11 0.182886 0.748816 0.140168
O O12 0.000000 0.750000 0.071768
O O13 0.324089 0.843773 0.873905
O O14 0.250000 0.899451 0.000000
O O15 0.852788 0.196672 0.155112
O O16 0.000000 0.250000 0.205292
O O17 0.250000 0.291888 0.000000
#
# Coordination Sequence:
#
# PCOD9530294 Si02
#       7
#    16  16  16  16  16  16  16
#     4  10  24  45  67  99 134 167 217 271 334 404
#     4  10  23  45  72  99 133 169 212 274 337 398
#     4  11  21  39  61  88 129 172 212 271 328 386
#     4  11  22  37  58  87 131 168 218 273 313 384
#     4  10  19  37  69  91 125 174 222 266 327 402
#     4  11  23  37  57  90 128 172 221 270 325 378
#     4  11  19  37  63  89 123 178 225 259 328 394
#
# _framework density 21.400338000000001
#
# number of rings (size 3 to 8) (size 9 to 14) (size 15 to 20)
#    0.000    1.429    4.286    2.143    0.000    4.571 
#    2.571    0.000    0.000    0.000    0.000    0.000 
#    0.000    0.000    0.000    0.000    0.000    0.000 
#
# Total GULP energy -312823.753039 kJ/mol
# GULP energy per Si atom -5586.138447 kJ/mol
# Density = 2.135163 g / cm^3
# Si number density = 21.400338 Si / 1000 Ang^3
#
#
#
# Elastic Constant Matrix: (Units=GPa)
#
#
# Indices 1 2 3 4 5 6 
#
# 1 71.0076 1.2905 15.6320 0.0000 0.0000 0.0000
# 2 1.2905 72.0854 34.6685 0.0000 0.0000 0.0000
# 3 15.6320 34.6685 104.8236 0.0003 0.0001 0.0004
# 4 0.0000 0.0000 0.0003 22.2495 0.0000 0.0001
# 5 0.0000 0.0000 0.0001 0.0000 13.4954 -0.0001
# 6 0.0000 0.0000 0.0004 0.0001 -0.0001 9.1930
#
#
#
# Elastic Compliance Matrix: (Units=1/GPa)
#
#
# Indices 1 2 3 4 5 6 
#
# 1 0.014614 0.000935 -0.002489 0.000000 0.000000 0.000000
# 2 0.000935 0.016556 -0.005615 0.000000 0.000000 0.000000
# 3 -0.002489 -0.005615 0.011768 0.000000 0.000000 -0.000001
# 4 0.000000 0.000000 0.000000 0.044945 0.000000 0.000000
# 5 0.000000 0.000000 0.000000 0.000000 0.074100 0.000001
# 6 0.000000 0.000000 -0.000001 0.000000 0.000001 0.108778
#
#
# Mechanical properties :
#
#
# Convention : Reuss Voigt Hill
#
# Bulk Modulus (GPa) = 34.96369 39.01096 36.98733
# Shear Modulus (GPa) = 16.97035 22.07594 19.52315
#
# Velocity S-wave (km/s) = 2.81907 3.21529 3.02368
# Velocity P-wave (km/s) = 5.19323 5.66152 5.43242
#
# Compressibility (1/GPa) = 0.02860110
#
# Stress axis : x y z
#
# Youngs Moduli (GPa) = 68.42816 60.40030 84.97574
#
# Poissons Ratio (x) = -0.05649 0.21147
# Poissons Ratio (y) = -0.06400 0.47715
# Poissons Ratio (z) = 0.17029 0.33916
#
# Static dielectric constant tensor:
#      x y z
#    x 2.446370 0.000000 0.000000 
#    y 0.000000 1.794290 0.000000 
#    z 0.000000 0.000000 1.769470 
# 
# From -- ./inp_files/17403.got.cif
#   From: 2010.05.17/outbox.cif.g08.bks.cpg/sg73_9_cif.got.tgz:17403.got - 2010.06.03 17:35:07.
