data_PCOD9530449
_publ_section_title
;
Structure prediction by ZEFSAII (Michael W. Deem and Ramdas Pophale) SiO2 
 PCOD9530449
Probable space group: I B C A 
;
_chemical_formula_sum "Si O2"
_cell_formula_units_Z 72
_cell_length_a 9.031450
_cell_length_b 22.811296
_cell_length_c 15.845660
_cell_angle_alpha 90.000000
_cell_angle_beta 90.000000
_cell_angle_gamma 90.000000
_cell_volume 3264.508283
_symmetry_space_group_name_H-M "I B C A "
_symmetry_group_IT_number 73
_symmetry_cell_setting 'orthorhombic'
loop_
_space_group_symop_operation_xyz
x,y,z
-x,1/2-y,z
x,-y,1/2-z
1/2-x,y,-z
-x,-y,-z
x,1/2+y,-z
-x,y,1/2+z
1/2+x,-y,z
1/2+x,1/2+y,1/2+z
1/2-x,-y,1/2+z
1/2+x,1/2-y,-z
-x,1/2+y,1/2-z
1/2-x,1/2-y,1/2-z
1/2+x,y,1/2-z
1/2-x,1/2+y,z
x,1/2-y,1/2+z
loop_
_atom_site_type_symbol
_atom_site_label
_atom_site_fract_x
_atom_site_fract_y
_atom_site_fract_z
Si Si1 0.631102 0.372204 0.303184
Si Si2 0.502309 0.976479 0.114307
Si Si3 0.423510 0.812537 0.021836
Si Si4 0.750000 0.490703 0.000000
Si Si5 0.471690 0.884507 0.857013
O O1 0.552938 0.435921 0.311486
O O2 0.564843 0.336528 0.382462
O O3 0.585271 0.354899 0.208968
O O4 0.806056 0.375297 0.319805
O O5 0.658362 0.958010 0.072691
O O6 0.509251 0.045420 0.132986
O O7 0.372478 0.969967 0.045191
O O8 0.500000 0.750000 0.015405
O O9 0.250000 0.807285 0.000000
O O10 0.485616 0.855472 0.949121
#
# Coordination Sequence:
#
# PCOD9530449 Si02
#       5
#    16  16  16   8  16
#     4  11  25  43  66  97 136 172 214 267 322 387
#     4  11  21  38  62  97 137 172 213 255 328 381
#     4  10  24  48  69  92 126 169 219 274 328 379
#     4  10  20  32  60  90 126 176 214 252 300 386
#     4  11  25  43  66  97 136 172 214 267 322 387
#
# _framework density 22.055388000000001
#
# number of rings (size 3 to 8) (size 9 to 14) (size 15 to 20)
#    0.000    1.333    2.222    3.333    6.222    4.444 
#    4.000    4.444    0.000    0.000    0.000    0.000 
#    0.000    0.000    0.000    0.000    0.000    0.000 
#
# Total GULP energy -201162.375091 kJ/mol
# GULP energy per Si atom -5587.843753 kJ/mol
# Density = 2.200519 g / cm^3
# Si number density = 22.055388 Si / 1000 Ang^3
#
#
#
# Elastic Constant Matrix: (Units=GPa)
#
#
# Indices 1 2 3 4 5 6 
#
# 1 64.4583 11.5382 30.7558 0.0000 0.0000 0.0000
# 2 11.5382 98.6239 38.8928 0.0000 0.0000 0.0000
# 3 30.7558 38.8928 125.5049 0.0001 0.0000 0.0000
# 4 0.0000 0.0000 0.0001 13.5408 0.0000 0.0000
# 5 0.0000 0.0000 0.0000 0.0000 39.9730 0.0000
# 6 0.0000 0.0000 0.0000 0.0000 0.0000 23.8186
#
#
#
# Elastic Compliance Matrix: (Units=1/GPa)
#
#
# Indices 1 2 3 4 5 6 
#
# 1 0.017582 -0.000408 -0.004182 0.000000 0.000000 0.000000
# 2 -0.000408 0.011561 -0.003483 0.000000 0.000000 0.000000
# 3 -0.004182 -0.003483 0.010072 0.000000 0.000000 0.000000
# 4 0.000000 0.000000 0.000000 0.073851 0.000000 0.000000
# 5 0.000000 0.000000 0.000000 0.000000 0.025017 0.000000
# 6 0.000000 0.000000 0.000000 0.000000 0.000000 0.041984
#
#
# Mechanical properties :
#
#
# Convention : Reuss Voigt Hill
#
# Bulk Modulus (GPa) = 43.34687 50.10677 46.72682
# Shear Modulus (GPa) = 24.52158 29.29317 26.90738
#
# Velocity S-wave (km/s) = 3.33801 3.64835 3.49663
# Velocity P-wave (km/s) = 5.87816 6.36516 6.12650
#
# Compressibility (1/GPa) = 0.02306972
#
# Stress axis : x y z
#
# Youngs Moduli (GPa) = 56.87482 86.50060 99.28549
#
# Poissons Ratio (x) = 0.03526 0.41525
# Poissons Ratio (y) = 0.02319 0.34577
# Poissons Ratio (z) = 0.23787 0.30125
#
# Static dielectric constant tensor:
#      x y z
#    x 1.805830 0.000000 0.000000 
#    y 0.000000 1.807330 0.000000 
#    z 0.000000 0.000000 1.910180 
# 
# From -- ./inp_files/5302.got.cif
#   From: 2010.05.17/outbox.cif.g08.bks.cpg/sg73_3_cif.got.tgz:5302.got - 2010.06.03 17:35:07.
