data_PCOD9530355
_publ_section_title
;
Structure prediction by ZEFSAII (Michael W. Deem and Ramdas Pophale) SiO2 
 PCOD9530355
Probable space group: I B C A 
;
_chemical_formula_sum "Si O2"
_cell_formula_units_Z 112
_cell_length_a 14.342928
_cell_length_b 15.107006
_cell_length_c 26.902047
_cell_angle_alpha 90.000000
_cell_angle_beta 90.000000
_cell_angle_gamma 90.000000
_cell_volume 5829.100554
_symmetry_space_group_name_H-M "I B C A "
_symmetry_group_IT_number 73
_symmetry_cell_setting 'orthorhombic'
loop_
_space_group_symop_operation_xyz
x,y,z
-x,1/2-y,z
x,-y,1/2-z
1/2-x,y,-z
-x,-y,-z
x,1/2+y,-z
-x,y,1/2+z
1/2+x,-y,z
1/2+x,1/2+y,1/2+z
1/2-x,-y,1/2+z
1/2+x,1/2-y,-z
-x,1/2+y,1/2-z
1/2-x,1/2-y,1/2-z
1/2+x,y,1/2-z
1/2-x,1/2+y,z
x,1/2-y,1/2+z
loop_
_atom_site_type_symbol
_atom_site_label
_atom_site_fract_x
_atom_site_fract_y
_atom_site_fract_z
Si Si1 0.935920 0.164394 0.575786
Si Si2 0.627810 0.607547 0.308198
Si Si3 0.738103 0.274216 0.112529
Si Si4 0.000000 0.250000 0.297205
Si Si5 0.495374 0.478788 0.610421
Si Si6 0.720558 0.000000 0.250000
Si Si7 0.350529 0.383309 0.159146
Si Si8 0.419251 0.823959 0.459453
O O1 0.839916 0.185731 0.604390
O O2 0.912251 0.153905 0.517452
O O3 0.000000 0.250000 0.580745
O O4 0.993909 0.079625 0.594384
O O5 0.680442 0.665153 0.349437
O O6 0.566820 0.675315 0.274154
O O7 0.561619 0.538992 0.338138
O O8 0.709751 0.563557 0.278732
O O9 0.732844 0.174941 0.135816
O O10 0.675711 0.282442 0.062697
O O11 0.931354 0.311235 0.329376
O O12 0.601698 0.447000 0.619379
O O13 0.448614 0.412507 0.570592
O O14 0.667790 0.059959 0.208991
O O15 0.500000 0.750000 0.452265
#
# Coordination Sequence:
#
# PCOD9530355 Si02
#       8
#    16  16  16   8  16   8  16  16
#     4  11  24  36  58  97 135 156 200 259 308 366
#     4   9  21  38  63  83 116 159 211 243 309 369
#     4  10  20  40  64  86 122 168 202 253 315 371
#     4   8  18  38  58  86 104 156 200 246 302 386
#     4  10  20  40  64  86 123 170 203 246 313 373
#     4  12  24  36  56  94 120 152 208 276 304 380
#     4  10  21  38  67  81 117 162 215 253 315 378
#     4  10  19  39  67  93 119 163 212 252 295 376
#
# _framework density 19.213941999999999
#
# number of rings (size 3 to 8) (size 9 to 14) (size 15 to 20)
#    0.000    2.000    1.429    2.571    4.000    4.571 
#    0.000    1.429    9.429    0.000    0.000    0.000 
#    0.000    0.000    0.000    0.000    0.000    0.000 
#
# Total GULP energy -311900.939744 kJ/mol
# GULP energy per Si atom -5569.659638 kJ/mol
# Density = 1.917021 g / cm^3
# Si number density = 19.213942 Si / 1000 Ang^3
#
#
#
# Elastic Constant Matrix: (Units=GPa)
#
#
# Indices 1 2 3 4 5 6 
#
# 1 66.7692 25.8190 25.6262 0.0000 0.0000 0.0000
# 2 25.8190 116.8291 49.3334 0.0000 0.0000 0.0000
# 3 25.6262 49.3334 46.7119 0.0000 0.0000 0.0000
# 4 0.0000 0.0000 0.0000 4.5042 0.0000 0.0000
# 5 0.0000 0.0000 0.0000 0.0000 6.8134 0.0000
# 6 0.0000 0.0000 0.0000 0.0000 0.0000 33.7955
#
#
#
# Elastic Compliance Matrix: (Units=1/GPa)
#
#
# Indices 1 2 3 4 5 6 
#
# 1 0.018980 0.000365 -0.010798 0.000000 0.000000 0.000000
# 2 0.000365 0.015456 -0.016524 0.000000 0.000000 0.000000
# 3 -0.010798 -0.016524 0.044783 0.000000 0.000000 0.000000
# 4 0.000000 0.000000 0.000000 0.222013 0.000000 0.000000
# 5 0.000000 0.000000 0.000000 0.000000 0.146769 0.000000
# 6 0.000000 0.000000 0.000000 0.000000 0.000000 0.029590
#
#
# Mechanical properties :
#
#
# Convention : Reuss Voigt Hill
#
# Bulk Modulus (GPa) = 39.51726 47.98527 43.75127
# Shear Modulus (GPa) = 9.26027 17.65808 13.45918
#
# Velocity S-wave (km/s) = 2.19773 3.03483 2.64955
# Velocity P-wave (km/s) = 5.20112 6.10808 5.67276
#
# Compressibility (1/GPa) = 0.02530540
#
# Stress axis : x y z
#
# Youngs Moduli (GPa) = 52.68661 64.69775 22.32974
#
# Poissons Ratio (x) = -0.02363 0.24112
# Poissons Ratio (y) = -0.01924 0.36898
# Poissons Ratio (z) = 0.56892 1.06908
#
# Static dielectric constant tensor:
#      x y z
#    x 1.722570 0.000000 0.000000 
#    y 0.000000 1.597260 0.000000 
#    z 0.000000 0.000000 -8.567810 
# 
# From -- ./inp_files/11288.got.cif
#   From: 2010.05.17/outbox.cif.g08.bks.cpg/sg73_6_cif.got.tgz:11288.got - 2010.06.03 17:35:07.
