data_PCOD9530676
_publ_section_title
;
Structure prediction by ZEFSAII (Michael W. Deem and Ramdas Pophale) SiO2 
 PCOD9530676
Probable space group: I B C A 
;
_chemical_formula_sum "Si O2"
_cell_formula_units_Z 64
_cell_length_a 13.307082
_cell_length_b 23.709509
_cell_length_c 7.996784
_cell_angle_alpha 90.000000
_cell_angle_beta 90.000000
_cell_angle_gamma 90.000000
_cell_volume 2523.020381
_symmetry_space_group_name_H-M "I B C A "
_symmetry_group_IT_number 73
_symmetry_cell_setting 'orthorhombic'
loop_
_space_group_symop_operation_xyz
x,y,z
-x,1/2-y,z
x,-y,1/2-z
1/2-x,y,-z
-x,-y,-z
x,1/2+y,-z
-x,y,1/2+z
1/2+x,-y,z
1/2+x,1/2+y,1/2+z
1/2-x,-y,1/2+z
1/2+x,1/2-y,-z
-x,1/2+y,1/2-z
1/2-x,1/2-y,1/2-z
1/2+x,y,1/2-z
1/2-x,1/2+y,z
x,1/2-y,1/2+z
loop_
_atom_site_type_symbol
_atom_site_label
_atom_site_fract_x
_atom_site_fract_y
_atom_site_fract_z
Si Si1 0.518010 0.933120 0.737512
Si Si2 0.635914 0.614229 0.932351
Si Si3 0.360137 0.337581 0.574081
Si Si4 0.137777 0.728427 0.429282
O O1 0.403302 0.910457 0.757900
O O2 0.572512 0.921035 0.564498
O O3 0.583205 0.893956 0.865579
O O4 0.518596 0.000000 0.750000
O O5 0.750000 0.611092 0.000000
O O6 0.602384 0.679018 0.947010
O O7 0.250000 0.352131 0.500000
O O8 0.356767 0.300467 0.747728
O O9 0.407326 0.291014 0.445028
O O10 0.250000 0.737979 0.500000
#
# Coordination Sequence:
#
# PCOD9530676 Si02
#       4
#    16  16  16  16
#     4  11  25  43  65  96 135 183 238 287 351 441
#     4  10  24  44  66  96 134 176 232 300 358 424
#     4  10  20  36  64 100 137 180 228 291 357 424
#     4   9  18  35  60  96 133 171 227 287 350 424
#
# _framework density 25.366425
#
# number of rings (size 3 to 8) (size 9 to 14) (size 15 to 20)
#    0.000    2.000    0.000    3.750    0.000   11.000 
#    0.000    5.000    0.000    0.000    0.000    0.000 
#    0.000    0.000    0.000    0.000    0.000    0.000 
#
# Total GULP energy -178642.321178 kJ/mol
# GULP energy per Si atom -5582.572537 kJ/mol
# Density = 2.530869 g / cm^3
# Si number density = 25.366425 Si / 1000 Ang^3
#
#
#
# Elastic Constant Matrix: (Units=GPa)
#
#
# Indices 1 2 3 4 5 6 
#
# 1 124.4102 61.4934 29.6217 -0.0002 0.0000 -0.0009
# 2 61.4934 213.8288 29.4771 -0.0001 0.0001 -0.0008
# 3 29.6217 29.4771 103.4188 0.0010 -0.0009 -0.0018
# 4 -0.0002 -0.0001 0.0010 18.1834 0.0001 -0.0004
# 5 0.0000 0.0001 -0.0009 0.0001 44.6248 0.0007
# 6 -0.0009 -0.0008 -0.0018 -0.0004 0.0007 24.8059
#
#
#
# Elastic Compliance Matrix: (Units=1/GPa)
#
#
# Indices 1 2 3 4 5 6 
#
# 1 0.009782 -0.002526 -0.002082 0.000000 0.000000 0.000000
# 2 -0.002526 0.005520 -0.000850 0.000000 0.000000 0.000000
# 3 -0.002082 -0.000850 0.010508 -0.000001 0.000000 0.000001
# 4 0.000000 0.000000 -0.000001 0.054995 0.000000 0.000001
# 5 0.000000 0.000000 0.000000 0.000000 0.022409 -0.000001
# 6 0.000000 0.000000 0.000001 0.000001 -0.000001 0.040313
#
#
# Mechanical properties :
#
#
# Convention : Reuss Voigt Hill
#
# Bulk Modulus (GPa) = 67.13814 75.87136 71.50475
# Shear Modulus (GPa) = 31.36599 38.92721 35.14660
#
# Velocity S-wave (km/s) = 3.52023 3.92164 3.72634
# Velocity P-wave (km/s) = 6.56106 7.10498 6.83843
#
# Compressibility (1/GPa) = 0.01489466
#
# Stress axis : x y z
#
# Youngs Moduli (GPa) = 102.22587 181.14989 95.16609
#
# Poissons Ratio (x) = 0.45762 0.19812
# Poissons Ratio (y) = 0.25824 0.08088
# Poissons Ratio (z) = 0.21282 0.15395
#
# Static dielectric constant tensor:
#      x y z
#    x 2.167570 0.000000 0.000000 
#    y 0.000000 1.983370 0.000000 
#    z 0.000000 0.000000 2.207630 
# 
# From -- ./inp_files/4628.got.cif
#   From: 2010.05.17/outbox.cif.g08.bks.cpg/sg73_3_cif.got.tgz:4628.got - 2010.06.03 17:35:07.
