data_PCOD9530821
_publ_section_title
;
Structure prediction by ZEFSAII (Michael W. Deem and Ramdas Pophale) SiO2 
 PCOD9530821
Probable space group: I B C A 
;
_chemical_formula_sum "Si O2"
_cell_formula_units_Z 112
_cell_length_a 14.243115
_cell_length_b 16.311326
_cell_length_c 24.046890
_cell_angle_alpha 90.000000
_cell_angle_beta 90.000000
_cell_angle_gamma 90.000000
_cell_volume 5586.671885
_symmetry_space_group_name_H-M "I B C A "
_symmetry_group_IT_number 73
_symmetry_cell_setting 'orthorhombic'
loop_
_space_group_symop_operation_xyz
x,y,z
-x,1/2-y,z
x,-y,1/2-z
1/2-x,y,-z
-x,-y,-z
x,1/2+y,-z
-x,y,1/2+z
1/2+x,-y,z
1/2+x,1/2+y,1/2+z
1/2-x,-y,1/2+z
1/2+x,1/2-y,-z
-x,1/2+y,1/2-z
1/2-x,1/2-y,1/2-z
1/2+x,y,1/2-z
1/2-x,1/2+y,z
x,1/2-y,1/2+z
loop_
_atom_site_type_symbol
_atom_site_label
_atom_site_fract_x
_atom_site_fract_y
_atom_site_fract_z
Si Si1 0.264028 0.316766 0.066243
Si Si2 0.510633 0.342789 0.260820
Si Si3 0.566901 0.557619 0.632722
Si Si4 0.379146 0.374733 0.159960
Si Si5 0.256883 0.127383 0.933192
Si Si6 0.202937 0.077713 0.719047
Si Si7 0.136666 0.527767 0.396882
O O1 0.360903 0.339264 0.098384
O O2 0.250593 0.222491 0.084876
O O3 0.194124 0.391789 0.082774
O O4 0.250000 0.315360 0.000000
O O5 0.500000 0.250000 0.280615
O O6 0.461276 0.395273 0.310201
O O7 0.461061 0.347313 0.200819
O O8 0.618209 0.372171 0.253458
O O9 0.607593 0.470818 0.651004
O O10 0.645771 0.599030 0.594652
O O11 0.473698 0.541749 0.595827
O O12 0.282884 0.363543 0.194996
O O13 0.179655 0.058498 0.916324
O O14 0.250000 0.126783 0.000000
O O15 0.151538 0.031438 0.668800
O O16 0.247443 0.000000 0.750000
#
# Coordination Sequence:
#
# PCOD9530821 Si02
#       7
#    16  16  16  16  16  16  16
#     4  10  23  44  66  93 136 174 223 283 338 403
#     4  11  25  39  61  98 132 169 218 271 327 411
#     4  11  23  41  70  93 133 176 225 276 341 406
#     4  11  23  42  65  94 128 177 213 275 337 393
#     4  11  24  43  68  98 131 175 229 281 337 408
#     4  10  20  38  62  88 124 168 206 259 326 392
#     4  10  22  40  68  96 127 175 218 272 338 404
#
# _framework density 20.047713999999999
#
# number of rings (size 3 to 8) (size 9 to 14) (size 15 to 20)
#    0.000    1.429    2.857    3.429    6.000    3.429 
#    0.000    0.000    0.000    0.000    0.000    0.000 
#    0.000    0.000    0.000    0.000    0.000    0.000 
#
# Total GULP energy -311831.121432 kJ/mol
# GULP energy per Si atom -5568.412883 kJ/mol
# Density = 2.000208 g / cm^3
# Si number density = 20.047714 Si / 1000 Ang^3
#
#
#
# Elastic Constant Matrix: (Units=GPa)
#
#
# Indices 1 2 3 4 5 6 
#
# 1 56.4842 37.8329 11.2187 0.0000 0.0000 0.0000
# 2 37.8329 130.9823 23.6858 0.0000 0.0000 0.0000
# 3 11.2187 23.6858 42.6325 0.0000 0.0000 0.0000
# 4 0.0000 0.0000 0.0000 49.3598 0.0000 0.0000
# 5 0.0000 0.0000 0.0000 0.0000 90.1301 0.0000
# 6 0.0000 0.0000 0.0000 0.0000 0.0000 -1.6161
#
#
#
# Elastic Compliance Matrix: (Units=1/GPa)
#
#
# Indices 1 2 3 4 5 6 
#
# 1 0.022194 -0.005952 -0.002533 0.000000 0.000000 0.000000
# 2 -0.005952 0.010084 -0.004036 0.000000 0.000000 0.000000
# 3 -0.002533 -0.004036 0.026365 0.000000 0.000000 0.000000
# 4 0.000000 0.000000 0.000000 0.020259 0.000000 0.000000
# 5 0.000000 0.000000 0.000000 0.000000 0.011095 0.000000
# 6 0.000000 0.000000 0.000000 0.000000 0.000000 -0.618767
#
#
# Mechanical properties :
#
#
# Convention : Reuss Voigt Hill
#
# Bulk Modulus (GPa) = 29.76218 41.73042 35.74630
# Shear Modulus (GPa) = -10.15174 38.06553 13.95690
#
# Velocity S-wave (km/s) = -2.25273 4.36219 2.64139
# Velocity P-wave (km/s) = 2.84807 6.79944 5.21267
#
# Compressibility (1/GPa) = 0.03359969
#
# Stress axis : x y z
#
# Youngs Moduli (GPa) = 45.05696 99.16948 37.92880
#
# Poissons Ratio (x) = 0.59030 0.09608
# Poissons Ratio (y) = 0.26820 0.15308
# Poissons Ratio (z) = 0.11414 0.40024
#
# Static dielectric constant tensor:
#      x y z
#    x 1.840960 0.000000 0.000000 
#    y 0.000000 1.869320 0.000000 
#    z 0.000000 0.000000 2.118890 
# 
# From -- ./inp_files/19383.got.cif
#   From: 2010.05.17/outbox.cif.g08.bks.cpg/sg73_10_cif.got.tgz:19383.got - 2010.06.03 17:35:07.
