data_PCOD9530580
_publ_section_title
;
Structure prediction by ZEFSAII (Michael W. Deem and Ramdas Pophale) SiO2 
 PCOD9530580
Probable space group: I B C A 
;
_chemical_formula_sum "Si O2"
_cell_formula_units_Z 104
_cell_length_a 19.073073
_cell_length_b 9.204666
_cell_length_c 27.373026
_cell_angle_alpha 90.000000
_cell_angle_beta 90.000000
_cell_angle_gamma 90.000000
_cell_volume 4805.643114
_symmetry_space_group_name_H-M "I B C A "
_symmetry_group_IT_number 73
_symmetry_cell_setting 'orthorhombic'
loop_
_space_group_symop_operation_xyz
x,y,z
-x,1/2-y,z
x,-y,1/2-z
1/2-x,y,-z
-x,-y,-z
x,1/2+y,-z
-x,y,1/2+z
1/2+x,-y,z
1/2+x,1/2+y,1/2+z
1/2-x,-y,1/2+z
1/2+x,1/2-y,-z
-x,1/2+y,1/2-z
1/2-x,1/2-y,1/2-z
1/2+x,y,1/2-z
1/2-x,1/2+y,z
x,1/2-y,1/2+z
loop_
_atom_site_type_symbol
_atom_site_label
_atom_site_fract_x
_atom_site_fract_y
_atom_site_fract_z
Si Si1 0.307619 0.522730 0.645015
Si Si2 0.379208 0.896379 0.442459
Si Si3 0.917223 0.232514 0.638877
Si Si4 0.428571 0.459920 0.199181
Si Si5 0.500000 0.250000 0.123975
Si Si6 0.294509 0.228478 0.701364
Si Si7 0.418843 0.781771 0.028323
O O1 0.314675 0.452013 0.590945
O O2 0.376485 0.621422 0.651422
O O3 0.307607 0.386986 0.680442
O O4 0.245080 0.630220 0.660529
O O5 0.436053 0.814610 0.407916
O O6 0.369103 0.786103 0.487177
O O7 0.410584 0.045956 0.464348
O O8 0.904927 0.208762 0.581119
O O9 0.000000 0.250000 0.645661
O O10 0.895496 0.099896 0.672728
O O11 0.466060 0.500000 0.250000
O O12 0.474752 0.379631 0.158907
O O13 0.366459 0.351490 0.213281
O O14 0.250000 0.250000 0.750000
O O15 0.500000 0.750000 0.015181
#
# Coordination Sequence:
#
# PCOD9530580 Si02
#       7
#    16  16  16  16   8  16  16
#     4  11  23  44  66 101 133 178 229 303 336 408
#     4  11  23  39  67 102 139 179 223 289 355 418
#     4  10  23  42  68 102 143 180 227 286 362 422
#     4  12  26  43  67  99 137 189 227 295 356 430
#     4  12  24  44  66 108 144 178 232 290 376 418
#     4  12  25  45  72  94 128 185 254 285 338 414
#     4  10  20  35  65 100 136 182 223 274 342 431
#
# _framework density 21.641224999999999
#
# number of rings (size 3 to 8) (size 9 to 14) (size 15 to 20)
#    0.000    0.923    2.308    6.462    3.231    0.000 
#    2.769    0.000    0.000   19.385    0.000    0.000 
#    0.000    0.000    0.000    0.000    0.000    0.000 
#
# Total GULP energy -290765.841792 kJ/mol
# GULP energy per Si atom -5591.650804 kJ/mol
# Density = 2.159197 g / cm^3
# Si number density = 21.641225 Si / 1000 Ang^3
#
#
#
# Elastic Constant Matrix: (Units=GPa)
#
#
# Indices 1 2 3 4 5 6 
#
# 1 20.3092 -5.6207 13.3919 0.0000 0.0000 0.0000
# 2 -5.6207 104.1266 55.1464 0.0000 0.0000 0.0000
# 3 13.3919 55.1464 107.5282 0.0000 0.0000 0.0000
# 4 0.0000 0.0000 0.0000 20.8511 0.0000 0.0000
# 5 0.0000 0.0000 0.0000 0.0000 21.9709 0.0000
# 6 0.0000 0.0000 0.0000 0.0000 0.0000 36.5953
#
#
#
# Elastic Compliance Matrix: (Units=1/GPa)
#
#
# Indices 1 2 3 4 5 6 
#
# 1 0.060296 0.009929 -0.012601 0.000000 0.000000 0.000000
# 2 0.009929 0.014820 -0.008837 0.000000 0.000000 0.000000
# 3 -0.012601 -0.008837 0.015401 0.000000 0.000000 0.000000
# 4 0.000000 0.000000 0.000000 0.047959 0.000000 0.000000
# 5 0.000000 0.000000 0.000000 0.000000 0.045515 0.000000
# 6 0.000000 0.000000 0.000000 0.000000 0.000000 0.027326
#
#
# Mechanical properties :
#
#
# Convention : Reuss Voigt Hill
#
# Bulk Modulus (GPa) = 14.81533 39.75545 27.28539
# Shear Modulus (GPa) = 19.46771 27.15322 23.31047
#
# Velocity S-wave (km/s) = 3.00253 3.54602 3.28553
# Velocity P-wave (km/s) = 4.34523 5.93092 5.19888
#
# Compressibility (1/GPa) = 0.06749765
#
# Stress axis : x y z
#
# Youngs Moduli (GPa) = 16.58485 67.47753 64.92931
#
# Poissons Ratio (x) = -0.66996 0.81820
# Poissons Ratio (y) = -0.16466 0.57378
# Poissons Ratio (z) = 0.20899 0.59629
#
# Static dielectric constant tensor:
#      x y z
#    x 1.807930 0.000000 0.000000 
#    y 0.000000 1.763450 0.000000 
#    z 0.000000 0.000000 1.807480 
# 
# From -- ./inp_files/32657.got.cif
#   From: 2010.05.17/outbox.cif.g08.bks.cpg/sg73_17_cif.got.tgz:32657.got - 2010.06.03 17:35:07.
