data_PCOD9530061
_publ_section_title
;
Structure prediction by ZEFSAII (Michael W. Deem and Ramdas Pophale) SiO2 
 PCOD9530061
Probable space group: I B C A 
;
_chemical_formula_sum "Si O2"
_cell_formula_units_Z 56
_cell_length_a 36.470059
_cell_length_b 5.040551
_cell_length_c 13.809663
_cell_angle_alpha 90.000000
_cell_angle_beta 90.000000
_cell_angle_gamma 90.000000
_cell_volume 2538.619196
_symmetry_space_group_name_H-M "I B C A "
_symmetry_group_IT_number 73
_symmetry_cell_setting 'orthorhombic'
loop_
_space_group_symop_operation_xyz
x,y,z
-x,1/2-y,z
x,-y,1/2-z
1/2-x,y,-z
-x,-y,-z
x,1/2+y,-z
-x,y,1/2+z
1/2+x,-y,z
1/2+x,1/2+y,1/2+z
1/2-x,-y,1/2+z
1/2+x,1/2-y,-z
-x,1/2+y,1/2-z
1/2-x,1/2-y,1/2-z
1/2+x,y,1/2-z
1/2-x,1/2+y,z
x,1/2-y,1/2+z
loop_
_atom_site_type_symbol
_atom_site_label
_atom_site_fract_x
_atom_site_fract_y
_atom_site_fract_z
Si Si1 0.154787 0.747233 0.564607
Si Si2 0.500000 0.250000 0.072035
Si Si3 0.076739 0.855504 0.568399
Si Si4 0.769130 0.960173 0.135803
O O1 0.154688 0.445391 0.528366
O O2 0.116051 0.805069 0.617118
O O3 0.191429 0.831444 0.618967
O O4 0.500000 0.500000 0.000000
O O5 0.539205 0.282718 0.124472
O O6 0.076310 0.650831 0.476378
O O7 0.738369 0.755348 0.097688
O O8 0.764620 0.000000 0.250000
#
# Coordination Sequence:
#
# PCOD9530061 Si02
#       4
#    16   8  16  16
#     4  10  19  30  46  68  91 113 145 187 224 259
#     4   8  12  20  34  52  80 112 134 158 202 250
#     4   8  14  23  36  57  84 110 135 168 207 248
#     4  10  21  35  48  63  87 118 150 183 222 271
#
# _framework density 22.059234
#
# number of rings (size 3 to 8) (size 9 to 14) (size 15 to 20)
#    0.000    2.857    0.000    1.714    0.000    3.429 
#    0.000    0.000    0.000    0.000    0.000    0.000 
#    0.000   41.143    0.000    0.000    0.000   55.429 
#
# Total GULP energy -155916.258023 kJ/mol
# GULP energy per Si atom -5568.437787 kJ/mol
# Density = 2.200903 g / cm^3
# Si number density = 22.059234 Si / 1000 Ang^3
#
#
#
# Elastic Constant Matrix: (Units=GPa)
#
#
# Indices 1 2 3 4 5 6 
#
# 1 182.6990 32.5713 -10.7440 0.0000 0.0000 0.0000
# 2 32.5713 105.4523 1.8488 0.0000 0.0000 0.0000
# 3 -10.7440 1.8488 22.3090 0.0000 0.0000 0.0000
# 4 0.0000 0.0000 0.0000 15.9102 0.0000 0.0000
# 5 0.0000 0.0000 0.0000 0.0000 -2.4428 0.0000
# 6 0.0000 0.0000 0.0000 0.0000 0.0000 34.1732
#
#
#
# Elastic Compliance Matrix: (Units=1/GPa)
#
#
# Indices 1 2 3 4 5 6 
#
# 1 0.005992 -0.001904 0.003043 0.000000 0.000000 0.000000
# 2 -0.001904 0.010102 -0.001754 0.000000 0.000000 0.000000
# 3 0.003043 -0.001754 0.046436 0.000000 0.000000 0.000000
# 4 0.000000 0.000000 0.000000 0.062853 0.000000 0.000000
# 5 0.000000 0.000000 0.000000 0.000000 -0.409360 0.000000
# 6 0.000000 0.000000 0.000000 0.000000 0.000000 0.029263
#
#
# Mechanical properties :
#
#
# Convention : Reuss Voigt Hill
#
# Bulk Modulus (GPa) = 16.31312 39.75693 28.03502
# Shear Modulus (GPa) = -21.45446 28.64704 3.59629
#
# Velocity S-wave (km/s) = -3.12201 3.60758 1.27821
# Velocity P-wave (km/s) = 2.36321 5.95103 3.86199
#
# Compressibility (1/GPa) = 0.06130036
#
# Stress axis : x y z
#
# Youngs Moduli (GPa) = 166.89134 98.99189 21.53496
#
# Poissons Ratio (x) = 0.18849 -0.06554
# Poissons Ratio (y) = 0.31778 0.03778
# Poissons Ratio (z) = -0.50793 0.17365
#
# Static dielectric constant tensor:
#      x y z
#    x 1.966620 0.000000 0.000000 
#    y 0.000000 1.798530 0.000000 
#    z 0.000000 0.000000 1.778780 
# 
# From -- ./inp_files/1092.got.cif
#   From: 2010.05.17/outbox.cif.g08.bks.cpg/sg73_1_cif.got.tgz:1092.got - 2010.06.03 17:35:07.
