data_PCOD9530968
_publ_section_title
;
Structure prediction by ZEFSAII (Michael W. Deem and Ramdas Pophale) SiO2 
 PCOD9530968
Probable space group: I B C A 
;
_chemical_formula_sum "Si O2"
_cell_formula_units_Z 112
_cell_length_a 28.533047
_cell_length_b 13.584642
_cell_length_c 13.930709
_cell_angle_alpha 90.000000
_cell_angle_beta 90.000000
_cell_angle_gamma 90.000000
_cell_volume 5399.699232
_symmetry_space_group_name_H-M "I B C A "
_symmetry_group_IT_number 73
_symmetry_cell_setting 'orthorhombic'
loop_
_space_group_symop_operation_xyz
x,y,z
-x,1/2-y,z
x,-y,1/2-z
1/2-x,y,-z
-x,-y,-z
x,1/2+y,-z
-x,y,1/2+z
1/2+x,-y,z
1/2+x,1/2+y,1/2+z
1/2-x,-y,1/2+z
1/2+x,1/2-y,-z
-x,1/2+y,1/2-z
1/2-x,1/2-y,1/2-z
1/2+x,y,1/2-z
1/2-x,1/2+y,z
x,1/2-y,1/2+z
loop_
_atom_site_type_symbol
_atom_site_label
_atom_site_fract_x
_atom_site_fract_y
_atom_site_fract_z
Si Si1 0.204663 0.893164 0.219422
Si Si2 0.711547 0.660565 0.574204
Si Si3 0.537828 0.163639 0.753478
Si Si4 0.201690 0.877095 0.888555
Si Si5 0.141630 0.053496 0.967295
Si Si6 0.962819 0.503841 0.585569
Si Si7 0.144149 0.295826 0.291972
O O1 0.228364 0.850074 0.316916
O O2 0.245718 0.905396 0.141984
O O3 0.166574 0.811519 0.192135
O O4 0.186322 0.000000 0.250000
O O5 0.750000 0.622813 0.500000
O O6 0.703221 0.775085 0.554446
O O7 0.662744 0.603492 0.561818
O O8 0.500000 0.250000 0.760022
O O9 0.528850 0.093451 0.660775
O O10 0.589979 0.207165 0.739515
O O11 0.537223 0.093548 0.847477
O O12 0.172478 0.851079 0.792359
O O13 0.174420 0.961808 0.942489
O O14 0.088179 0.020025 0.961943
O O15 0.147775 0.136550 0.885582
O O16 0.000000 0.500000 0.500000
#
# Coordination Sequence:
#
# PCOD9530968 Si02
#       7
#    16  16  16  16  16  16  16
#     4  11  23  39  60  89 127 172 212 259 320 377
#     4  11  23  37  55  92 129 161 213 262 311 378
#     4  10  22  44  70  99 130 177 219 277 349 409
#     4  11  21  38  63  87 124 170 211 257 320 382
#     4  11  22  41  67  91 124 168 215 267 325 385
#     4  10  23  45  70 100 132 170 227 278 344 411
#     4  10  20  40  65  90 120 168 216 256 314 404
#
# _framework density 20.741897000000002
#
# number of rings (size 3 to 8) (size 9 to 14) (size 15 to 20)
#    0.000    1.429    1.429    5.571    0.000    5.714 
#   10.286    0.000    0.000    0.000    0.000    0.000 
#    0.000    0.000    0.000    0.000    0.000    0.000 
#
# Total GULP energy -313215.039198 kJ/mol
# GULP energy per Si atom -5593.125700 kJ/mol
# Density = 2.069469 g / cm^3
# Si number density = 20.741897 Si / 1000 Ang^3
#
#
#
# Elastic Constant Matrix: (Units=GPa)
#
#
# Indices 1 2 3 4 5 6 
#
# 1 146.1180 76.3409 57.1455 0.0000 0.0000 0.0000
# 2 76.3409 139.6424 18.4415 0.0000 0.0000 0.0000
# 3 57.1455 18.4415 66.8251 0.0000 0.0000 0.0000
# 4 0.0000 0.0000 0.0000 20.9961 0.0000 0.0000
# 5 0.0000 0.0000 0.0000 0.0000 32.5149 0.0000
# 6 0.0000 0.0000 0.0000 0.0000 0.0000 39.1446
#
#
#
# Elastic Compliance Matrix: (Units=1/GPa)
#
#
# Indices 1 2 3 4 5 6 
#
# 1 0.014289 -0.006432 -0.010444 0.000000 0.000000 0.000000
# 2 -0.006432 0.010328 0.002651 0.000000 0.000000 0.000000
# 3 -0.010444 0.002651 0.023164 0.000000 0.000000 0.000000
# 4 0.000000 0.000000 0.000000 0.047628 0.000000 0.000000
# 5 0.000000 0.000000 0.000000 0.000000 0.030755 0.000000
# 6 0.000000 0.000000 0.000000 0.000000 0.000000 0.025546
#
#
# Mechanical properties :
#
#
# Convention : Reuss Voigt Hill
#
# Bulk Modulus (GPa) = 51.73568 72.93794 62.33681
# Shear Modulus (GPa) = 26.79450 31.90829 29.35140
#
# Velocity S-wave (km/s) = 3.59807 3.92643 3.76583
# Velocity P-wave (km/s) = 6.50063 7.46972 7.00196
#
# Compressibility (1/GPa) = 0.01932902
#
# Stress axis : x y z
#
# Youngs Moduli (GPa) = 69.98342 96.82761 43.16985
#
# Poissons Ratio (x) = 0.62283 0.45087
# Poissons Ratio (y) = 0.45016 -0.11443
# Poissons Ratio (z) = 0.73092 -0.25665
#
# Static dielectric constant tensor:
#      x y z
#    x 1.720640 0.000000 0.000000 
#    y 0.000000 1.748100 0.000000 
#    z 0.000000 0.000000 1.786810 
# 
# From -- ./inp_files/19839.got.cif
#   From: 2010.05.17/outbox.cif.g08.bks.cpg/sg73_10_cif.got.tgz:19839.got - 2010.06.03 17:35:07.
