data_PCOD9530740
_publ_section_title
;
Structure prediction by ZEFSAII (Michael W. Deem and Ramdas Pophale) SiO2 
 PCOD9530740
Probable space group: I B C A 
;
_chemical_formula_sum "Si O2"
_cell_formula_units_Z 64
_cell_length_a 22.394774
_cell_length_b 10.645145
_cell_length_c 12.580726
_cell_angle_alpha 90.000000
_cell_angle_beta 90.000000
_cell_angle_gamma 90.000000
_cell_volume 2999.189930
_symmetry_space_group_name_H-M "I B C A "
_symmetry_group_IT_number 73
_symmetry_cell_setting 'orthorhombic'
loop_
_space_group_symop_operation_xyz
x,y,z
-x,1/2-y,z
x,-y,1/2-z
1/2-x,y,-z
-x,-y,-z
x,1/2+y,-z
-x,y,1/2+z
1/2+x,-y,z
1/2+x,1/2+y,1/2+z
1/2-x,-y,1/2+z
1/2+x,1/2-y,-z
-x,1/2+y,1/2-z
1/2-x,1/2-y,1/2-z
1/2+x,y,1/2-z
1/2-x,1/2+y,z
x,1/2-y,1/2+z
loop_
_atom_site_type_symbol
_atom_site_label
_atom_site_fract_x
_atom_site_fract_y
_atom_site_fract_z
Si Si1 0.317457 0.883269 0.039140
Si Si2 0.061947 0.500000 0.750000
Si Si3 0.035077 0.128188 0.872871
Si Si4 0.860384 0.000000 0.250000
Si Si5 0.615634 0.120049 0.433088
O O1 0.345493 0.743619 0.040151
O O2 0.322299 0.934617 0.159175
O O3 0.250000 0.878929 0.000000
O O4 0.354083 0.987822 0.970479
O O5 0.102376 0.604635 0.807497
O O6 0.015875 0.471582 0.845482
O O7 0.094229 0.097061 0.806405
O O8 0.000000 0.250000 0.836502
O O9 0.057336 0.138508 0.992797
#
# Coordination Sequence:
#
# PCOD9530740 Si02
#       5
#    16   8  16   8  16
#     4  11  24  45  68  94 129 169 215 272 320 368
#     4  11  22  37  62  94 130 173 210 255 322 388
#     4  10  20  37  61  93 131 169 205 258 320 383
#     4   9  22  41  64  94 128 167 216 257 314 388
#     4  11  24  42  65  98 130 168 219 264 316 388
#
# _framework density 21.339092999999998
#
# number of rings (size 3 to 8) (size 9 to 14) (size 15 to 20)
#    0.000    1.500    0.000    4.500    0.000    8.000 
#    0.000    7.500    0.000    0.000    0.000    0.000 
#    0.000    0.000    0.000    0.000    0.000    0.000 
#
# Total GULP energy -178433.978718 kJ/mol
# GULP energy per Si atom -5576.061835 kJ/mol
# Density = 2.129052 g / cm^3
# Si number density = 21.339093 Si / 1000 Ang^3
#
#
#
# Elastic Constant Matrix: (Units=GPa)
#
#
# Indices 1 2 3 4 5 6 
#
# 1 104.5152 66.5911 50.6370 0.0000 0.0000 0.0000
# 2 66.5911 109.7458 41.6578 0.0000 0.0000 0.0000
# 3 50.6370 41.6578 110.4219 0.0000 0.0000 0.0000
# 4 0.0000 0.0000 0.0000 17.8835 0.0000 0.0000
# 5 0.0000 0.0000 0.0000 0.0000 73.5524 0.0000
# 6 0.0000 0.0000 0.0000 0.0000 0.0000 70.3695
#
#
#
# Elastic Compliance Matrix: (Units=1/GPa)
#
#
# Indices 1 2 3 4 5 6 
#
# 1 0.017448 -0.008812 -0.004677 0.000000 0.000000 0.000000
# 2 -0.008812 0.015085 -0.001650 0.000000 0.000000 0.000000
# 3 -0.004677 -0.001650 0.011823 0.000000 0.000000 0.000000
# 4 0.000000 0.000000 0.000000 0.055917 0.000000 0.000000
# 5 0.000000 0.000000 0.000000 0.000000 0.013596 0.000000
# 6 0.000000 0.000000 0.000000 0.000000 0.000000 0.014211
#
#
# Mechanical properties :
#
#
# Convention : Reuss Voigt Hill
#
# Bulk Modulus (GPa) = 71.02817 71.38387 71.20602
# Shear Modulus (GPa) = 30.66504 43.41424 37.03964
#
# Velocity S-wave (km/s) = 3.79494 4.51543 4.17077
# Velocity P-wave (km/s) = 7.24981 7.79168 7.52562
#
# Compressibility (1/GPa) = 0.01407892
#
# Stress axis : x y z
#
# Youngs Moduli (GPa) = 57.31155 66.29010 84.57751
#
# Poissons Ratio (x) = 0.58415 0.39557
# Poissons Ratio (y) = 0.50503 0.13956
# Poissons Ratio (z) = 0.26805 0.10938
#
# Static dielectric constant tensor:
#      x y z
#    x 1.803820 0.000000 0.000000 
#    y 0.000000 1.931370 0.000000 
#    z 0.000000 0.000000 1.818980 
# 
# From -- ./inp_files/9486.got.cif
#   From: 2010.05.17/outbox.cif.g08.bks.cpg/sg73_5_cif.got.tgz:9486.got - 2010.06.03 17:35:07.
