data_PCOD9530266
_publ_section_title
;
Structure prediction by ZEFSAII (Michael W. Deem and Ramdas Pophale) SiO2 
 PCOD9530266
Probable space group: I B C A 
;
_chemical_formula_sum "Si O2"
_cell_formula_units_Z 96
_cell_length_a 11.925439
_cell_length_b 28.882139
_cell_length_c 13.347776
_cell_angle_alpha 90.000000
_cell_angle_beta 90.000000
_cell_angle_gamma 90.000000
_cell_volume 4597.403677
_symmetry_space_group_name_H-M "I B C A "
_symmetry_group_IT_number 73
_symmetry_cell_setting 'orthorhombic'
loop_
_space_group_symop_operation_xyz
x,y,z
-x,1/2-y,z
x,-y,1/2-z
1/2-x,y,-z
-x,-y,-z
x,1/2+y,-z
-x,y,1/2+z
1/2+x,-y,z
1/2+x,1/2+y,1/2+z
1/2-x,-y,1/2+z
1/2+x,1/2-y,-z
-x,1/2+y,1/2-z
1/2-x,1/2-y,1/2-z
1/2+x,y,1/2-z
1/2-x,1/2+y,z
x,1/2-y,1/2+z
loop_
_atom_site_type_symbol
_atom_site_label
_atom_site_fract_x
_atom_site_fract_y
_atom_site_fract_z
Si Si1 0.623217 0.500000 0.750000
Si Si2 0.620817 0.226028 0.126836
Si Si3 0.252579 0.424112 0.620008
Si Si4 0.996688 0.658393 0.479054
Si Si5 0.106164 0.652548 0.783674
Si Si6 0.009561 0.920145 0.128464
Si Si7 0.250000 0.294637 0.500000
O O1 0.692044 0.535809 0.682147
O O2 0.559350 0.468989 0.665600
O O3 0.500000 0.250000 0.147824
O O4 0.585213 0.191341 0.035076
O O5 0.649847 0.196706 0.224824
O O6 0.719756 0.259745 0.091286
O O7 0.250000 0.430768 0.500000
O O8 0.197266 0.375939 0.653410
O O9 0.379925 0.423407 0.651894
O O10 0.996796 0.661721 0.359314
O O11 0.013978 0.605529 0.519173
O O12 0.868798 0.677310 0.500269
O O13 0.065525 0.617812 0.698669
#
# Coordination Sequence:
#
# PCOD9530266 Si02
#       7
#     8  16  16  16  16  16   8
#     4  10  24  40  60  96 126 148 208 262 306 378
#     4   9  21  36  55  87 122 155 207 257 304 356
#     4  11  21  40  65  89 117 164 203 246 314 377
#     4  10  19  37  59  82 120 162 204 248 308 364
#     4  10  21  37  61  86 119 162 206 250 308 371
#     4  10  21  40  60  89 122 157 205 254 311 371
#     4  10  20  36  58  86 122 164 208 258 294 368
#
# _framework density 20.881350000000001
#
# number of rings (size 3 to 8) (size 9 to 14) (size 15 to 20)
#    0.000    2.000    1.667    1.500    0.000    4.667 
#    3.000    0.000    3.667    0.000    0.000    0.000 
#    0.000    0.000    0.000    0.000    0.000    0.000 
#
# Total GULP energy -267326.197806 kJ/mol
# GULP energy per Si atom -5569.295788 kJ/mol
# Density = 2.083382 g / cm^3
# Si number density = 20.881350 Si / 1000 Ang^3
#
#
#
# Elastic Constant Matrix: (Units=GPa)
#
#
# Indices 1 2 3 4 5 6 
#
# 1 41.2835 -1.4847 -4.3357 0.0002 -0.0003 0.0001
# 2 -1.4847 70.0894 17.1707 0.0003 -0.0002 0.0000
# 3 -4.3357 17.1707 71.1746 0.0008 -0.0006 0.0004
# 4 0.0002 0.0003 0.0008 62.7801 -0.0001 0.0001
# 5 -0.0003 -0.0002 -0.0006 -0.0001 24.1402 -0.0001
# 6 0.0001 0.0000 0.0004 0.0001 -0.0001 -14.6880
#
#
#
# Elastic Compliance Matrix: (Units=1/GPa)
#
#
# Indices 1 2 3 4 5 6 
#
# 1 0.024380 0.000162 0.001446 0.000000 0.000000 0.000000
# 2 0.000162 0.015165 -0.003649 0.000000 0.000000 0.000000
# 3 0.001446 -0.003649 0.015018 0.000000 0.000000 0.000000
# 4 0.000000 0.000000 0.000000 0.015929 0.000000 0.000000
# 5 0.000000 0.000000 0.000000 0.000000 0.041425 0.000000
# 6 0.000000 0.000000 0.000000 0.000000 0.000000 -0.068083
#
#
# Mechanical properties :
#
#
# Convention : Reuss Voigt Hill
#
# Bulk Modulus (GPa) = 19.80875 22.80536 21.30705
# Shear Modulus (GPa) = 77.22930 25.85961 51.54446
#
# Velocity S-wave (km/s) = 6.08811 3.52292 4.97373
# Velocity P-wave (km/s) = 7.67640 5.24338 6.57344
#
# Compressibility (1/GPa) = 0.05048275
#
# Stress axis : x y z
#
# Youngs Moduli (GPa) = 41.01645 65.94233 66.58560
#
# Poissons Ratio (x) = -0.01069 -0.09628
# Poissons Ratio (y) = -0.00665 0.24294
# Poissons Ratio (z) = -0.05931 0.24060
#
# Static dielectric constant tensor:
#      x y z
#    x 1.759890 0.000000 0.000000 
#    y 0.000000 1.831190 0.000000 
#    z 0.000000 0.000000 1.794270 
# 
# From -- ./inp_files/11202.got.cif
#   From: 2010.05.17/outbox.cif.g08.bks.cpg/sg73_6_cif.got.tgz:11202.got - 2010.06.03 17:35:07.
