data_PCOD9530124
_publ_section_title
;
Structure prediction by ZEFSAII (Michael W. Deem and Ramdas Pophale) SiO2 
 PCOD9530124
Probable space group: I B C A 
;
_chemical_formula_sum "Si O2"
_cell_formula_units_Z 96
_cell_length_a 17.342638
_cell_length_b 19.859759
_cell_length_c 15.331175
_cell_angle_alpha 90.000000
_cell_angle_beta 90.000000
_cell_angle_gamma 90.000000
_cell_volume 5280.372662
_symmetry_space_group_name_H-M "I B C A "
_symmetry_group_IT_number 73
_symmetry_cell_setting 'orthorhombic'
loop_
_space_group_symop_operation_xyz
x,y,z
-x,1/2-y,z
x,-y,1/2-z
1/2-x,y,-z
-x,-y,-z
x,1/2+y,-z
-x,y,1/2+z
1/2+x,-y,z
1/2+x,1/2+y,1/2+z
1/2-x,-y,1/2+z
1/2+x,1/2-y,-z
-x,1/2+y,1/2-z
1/2-x,1/2-y,1/2-z
1/2+x,y,1/2-z
1/2-x,1/2+y,z
x,1/2-y,1/2+z
loop_
_atom_site_type_symbol
_atom_site_label
_atom_site_fract_x
_atom_site_fract_y
_atom_site_fract_z
Si Si1 0.481777 0.079105 0.744562
Si Si2 0.192903 0.944591 0.188422
Si Si3 0.474062 0.898366 0.443616
Si Si4 0.969506 0.678709 0.896247
Si Si5 0.876651 0.988402 0.511345
Si Si6 0.198377 0.366391 0.083026
O O1 0.389126 0.078184 0.729285
O O2 0.521948 0.112567 0.659858
O O3 0.504588 0.118798 0.831435
O O4 0.504389 0.000000 0.750000
O O5 0.173074 0.984077 0.098759
O O6 0.245407 0.881351 0.163374
O O7 0.230825 0.000000 0.250000
O O8 0.493686 0.837675 0.508757
O O9 0.545229 0.949823 0.460460
O O10 0.398853 0.939115 0.474742
O O11 0.876741 0.678281 0.902399
O O12 0.000000 0.750000 0.864178
O O13 0.836913 0.939720 0.441724
O O14 0.250000 0.344776 0.000000
#
# Coordination Sequence:
#
# PCOD9530124 Si02
#       6
#    16  16  16  16  16  16
#     4  10  19  33  57  85 112 145 188 233 277 329
#     4   9  16  27  48  77 110 140 171 222 284 335
#     4   9  16  30  52  75 106 140 174 222 272 315
#     4  11  23  37  55  81 112 149 195 236 272 332
#     4   8  14  27  49  77 101 129 172 216 266 326
#     4   9  18  33  53  77 106 142 178 223 282 336
#
# _framework density 18.180536
#
# number of rings (size 3 to 8) (size 9 to 14) (size 15 to 20)
#    0.000    2.667    0.000    6.000    0.000    2.667 
#    0.000    0.833    0.000    7.000    0.000    0.000 
#    0.000    0.000    0.000    0.000    0.000    0.000 
#
# Total GULP energy -267383.794455 kJ/mol
# GULP energy per Si atom -5570.495718 kJ/mol
# Density = 1.813916 g / cm^3
# Si number density = 18.180536 Si / 1000 Ang^3
#
#
#
# Elastic Constant Matrix: (Units=GPa)
#
#
# Indices 1 2 3 4 5 6 
#
# 1 80.9641 25.6582 17.4043 0.0000 0.0000 0.0000
# 2 25.6582 61.1187 20.7976 0.0000 0.0000 0.0000
# 3 17.4043 20.7976 65.0269 0.0000 0.0000 0.0000
# 4 0.0000 0.0000 0.0000 13.7078 0.0000 0.0000
# 5 0.0000 0.0000 0.0000 0.0000 23.5127 0.0000
# 6 0.0000 0.0000 0.0000 0.0000 0.0000 17.3774
#
#
#
# Elastic Compliance Matrix: (Units=1/GPa)
#
#
# Indices 1 2 3 4 5 6 
#
# 1 0.014515 -0.005354 -0.002172 0.000000 0.000000 0.000000
# 2 -0.005354 0.020335 -0.005071 0.000000 0.000000 0.000000
# 3 -0.002172 -0.005071 0.017581 0.000000 0.000000 0.000000
# 4 0.000000 0.000000 0.000000 0.072951 0.000000 0.000000
# 5 0.000000 0.000000 0.000000 0.000000 0.042530 0.000000
# 6 0.000000 0.000000 0.000000 0.000000 0.000000 0.057546
#
#
# Mechanical properties :
#
#
# Convention : Reuss Voigt Hill
#
# Bulk Modulus (GPa) = 36.71540 37.20332 36.95936
# Shear Modulus (GPa) = 19.25061 20.46955 19.86008
#
# Velocity S-wave (km/s) = 3.25754 3.35909 3.30870
# Velocity P-wave (km/s) = 5.86409 5.96258 5.91354
#
# Compressibility (1/GPa) = 0.02723653
#
# Stress axis : x y z
#
# Youngs Moduli (GPa) = 68.89441 49.17672 56.87808
#
# Poissons Ratio (x) = 0.26331 0.12356
# Poissons Ratio (y) = 0.36888 0.28841
# Poissons Ratio (z) = 0.14967 0.24936
#
# Static dielectric constant tensor:
#      x y z
#    x 1.673430 0.000000 0.000000 
#    y 0.000000 1.612360 0.000000 
#    z 0.000000 0.000000 1.686320 
# 
# From -- ./inp_files/22715.got.cif
#   From: 2010.05.17/outbox.cif.g08.bks.cpg/sg73_12_cif.got.tgz:22715.got - 2010.06.03 17:35:07.
