data_PCOD9530371
_publ_section_title
;
Structure prediction by ZEFSAII (Michael W. Deem and Ramdas Pophale) SiO2 
 PCOD9530371
Probable space group: I B C A 
;
_chemical_formula_sum "Si O2"
_cell_formula_units_Z 88
_cell_length_a 15.088185
_cell_length_b 10.573170
_cell_length_c 21.006298
_cell_angle_alpha 90.000000
_cell_angle_beta 90.000000
_cell_angle_gamma 90.000000
_cell_volume 3351.133565
_symmetry_space_group_name_H-M "I B C A "
_symmetry_group_IT_number 73
_symmetry_cell_setting 'orthorhombic'
loop_
_space_group_symop_operation_xyz
x,y,z
-x,1/2-y,z
x,-y,1/2-z
1/2-x,y,-z
-x,-y,-z
x,1/2+y,-z
-x,y,1/2+z
1/2+x,-y,z
1/2+x,1/2+y,1/2+z
1/2-x,-y,1/2+z
1/2+x,1/2-y,-z
-x,1/2+y,1/2-z
1/2-x,1/2-y,1/2-z
1/2+x,y,1/2-z
1/2-x,1/2+y,z
x,1/2-y,1/2+z
loop_
_atom_site_type_symbol
_atom_site_label
_atom_site_fract_x
_atom_site_fract_y
_atom_site_fract_z
Si Si1 0.600280 0.228852 0.602256
Si Si2 0.156150 0.256447 0.529560
Si Si3 0.353017 0.783719 0.260535
Si Si4 0.132210 0.007750 0.116673
Si Si5 0.635162 0.500000 0.750000
Si Si6 0.443799 0.121813 0.363525
O O1 0.500000 0.250000 0.619291
O O2 0.602036 0.181814 0.529766
O O3 0.638309 0.167804 0.666632
O O4 0.643557 0.367321 0.592701
O O5 0.250000 0.224971 0.500000
O O6 0.165197 0.375400 0.576622
O O7 0.114769 0.142530 0.572135
O O8 0.250000 0.750000 0.250000
O O9 0.403845 0.644415 0.256757
O O10 0.389275 0.869679 0.202598
O O11 0.025415 0.023632 0.130476
O O12 0.182708 0.011804 0.183467
O O13 0.500000 0.250000 0.364118
#
# Coordination Sequence:
#
# PCOD9530371 Si02
#       6
#    16  16  16  16   8  16
#     4  11  25  41  64 100 136 168 230 286 332 413
#     4  11  23  41  67  97 136 182 221 271 347 411
#     4  11  22  40  64  98 134 171 224 287 343 402
#     4  10  23  42  71  95 130 181 230 281 341 411
#     4  10  20  40  68  94 130 170 230 282 346 398
#     4  10  19  40  69  89 128 181 222 274 343 400
#
# _framework density 26.259772000000002
#
# number of rings (size 3 to 8) (size 9 to 14) (size 15 to 20)
#    0.000    1.455    3.636    3.273    2.545    3.636 
#    3.273    0.000    0.000    0.000    0.000    0.000 
#    0.000    0.000    0.000    0.000    0.000    0.000 
#
# Total GULP energy -245358.408256 kJ/mol
# GULP energy per Si atom -5576.327460 kJ/mol
# Density = 2.620000 g / cm^3
# Si number density = 26.259772 Si / 1000 Ang^3
#
#
#
# Elastic Constant Matrix: (Units=GPa)
#
#
# Indices 1 2 3 4 5 6 
#
# 1 132.3320 -7.7882 70.0447 0.0000 0.0000 0.0000
# 2 -7.7882 94.3749 29.5136 0.0000 0.0000 0.0000
# 3 70.0447 29.5136 196.2859 0.0000 0.0000 0.0000
# 4 0.0000 0.0000 0.0000 30.0879 0.0000 0.0000
# 5 0.0000 0.0000 0.0000 0.0000 31.1004 0.0000
# 6 0.0000 0.0000 0.0000 0.0000 0.0000 9.1589
#
#
#
# Elastic Compliance Matrix: (Units=1/GPa)
#
#
# Indices 1 2 3 4 5 6 
#
# 1 0.009652 0.001966 -0.003740 0.000000 0.000000 0.000000
# 2 0.001966 0.011519 -0.002434 0.000000 0.000000 0.000000
# 3 -0.003740 -0.002434 0.006795 0.000000 0.000000 0.000000
# 4 0.000000 0.000000 0.000000 0.033236 0.000000 0.000000
# 5 0.000000 0.000000 0.000000 0.000000 0.032154 0.000000
# 6 0.000000 0.000000 0.000000 0.000000 0.000000 0.109184
#
#
# Mechanical properties :
#
#
# Convention : Reuss Voigt Hill
#
# Bulk Modulus (GPa) = 51.14685 67.39254 59.26969
# Shear Modulus (GPa) = 22.99145 36.15097 29.57121
#
# Velocity S-wave (km/s) = 2.96216 3.71437 3.35939
# Velocity P-wave (km/s) = 5.58737 6.64191 6.13733
#
# Compressibility (1/GPa) = 0.01955155
#
# Stress axis : x y z
#
# Youngs Moduli (GPa) = 103.60469 86.81039 147.16386
#
# Poissons Ratio (x) = -0.17068 0.55039
# Poissons Ratio (y) = -0.20370 0.35815
# Poissons Ratio (z) = 0.38748 0.21127
#
# Static dielectric constant tensor:
#      x y z
#    x 2.111680 0.000000 0.000000 
#    y 0.000000 2.198150 0.000000 
#    z 0.000000 0.000000 2.155660 
# 
# From -- ./inp_files/11895.got.cif
#   From: 2010.05.17/outbox.cif.g08.bks.cpg/sg73_6_cif.got.tgz:11895.got - 2010.06.03 17:35:07.
