data_PCOD9530298
_publ_section_title
;
Structure prediction by ZEFSAII (Michael W. Deem and Ramdas Pophale) SiO2 
 PCOD9530298
Probable space group: I B C A 
;
_chemical_formula_sum "Si O2"
_cell_formula_units_Z 128
_cell_length_a 24.723170
_cell_length_b 24.335132
_cell_length_c 10.594161
_cell_angle_alpha 90.000000
_cell_angle_beta 90.000000
_cell_angle_gamma 90.000000
_cell_volume 6373.888032
_symmetry_space_group_name_H-M "I B C A "
_symmetry_group_IT_number 73
_symmetry_cell_setting 'orthorhombic'
loop_
_space_group_symop_operation_xyz
x,y,z
-x,1/2-y,z
x,-y,1/2-z
1/2-x,y,-z
-x,-y,-z
x,1/2+y,-z
-x,y,1/2+z
1/2+x,-y,z
1/2+x,1/2+y,1/2+z
1/2-x,-y,1/2+z
1/2+x,1/2-y,-z
-x,1/2+y,1/2-z
1/2-x,1/2-y,1/2-z
1/2+x,y,1/2-z
1/2-x,1/2+y,z
x,1/2-y,1/2+z
loop_
_atom_site_type_symbol
_atom_site_label
_atom_site_fract_x
_atom_site_fract_y
_atom_site_fract_z
Si Si1 0.391412 0.143382 0.998234
Si Si2 0.945098 0.944006 0.585886
Si Si3 0.172544 0.364087 0.274498
Si Si4 0.626847 0.350070 0.490872
Si Si5 0.470798 0.563905 0.135505
Si Si6 0.221575 0.660532 0.875183
Si Si7 0.435857 0.250183 0.890952
Si Si8 0.842532 0.265028 0.303954
O O1 0.376424 0.117254 0.134103
O O2 0.437652 0.113572 0.921544
O O3 0.335298 0.136115 0.922130
O O4 0.412371 0.206893 0.995264
O O5 0.896877 0.900194 0.572271
O O6 0.978583 0.929274 0.714098
O O7 0.976708 0.941099 0.452808
O O8 0.935528 0.008633 0.609423
O O9 0.160847 0.371594 0.128016
O O10 0.233585 0.379558 0.313982
O O11 0.170795 0.298989 0.308646
O O12 0.579930 0.312112 0.429559
O O13 0.657135 0.304699 0.575518
O O14 0.202577 0.708298 0.784691
O O15 0.250000 0.683211 0.000000
O O16 0.500000 0.250000 0.874694
O O17 0.400881 0.232968 0.767837
#
# Coordination Sequence:
#
# PCOD9530298 Si02
#       8
#    16  16  16  16  16  16  16  16
#     4  10  19  38  57  85 114 155 195 235 293 351
#     4  10  22  40  61  93 114 158 197 242 291 347
#     4  10  21  35  53  86 117 151 198 238 293 347
#     4  11  22  35  54  85 121 150 196 242 287 353
#     4  10  22  40  65  86 120 153 202 240 291 347
#     4   9  19  34  58  79 110 150 197 239 292 349
#     4  10  20  34  52  77 115 158 188 231 283 350
#     4  10  20  36  51  78 117 154 191 234 290 345
#
# _framework density 20.081934
#
# number of rings (size 3 to 8) (size 9 to 14) (size 15 to 20)
#    0.000    2.000    1.250    2.625    3.500    1.000 
#    2.250    0.000    0.000    0.000   35.750    0.000 
#    0.000    0.000    0.000    0.000    0.000    0.000 
#
# Total GULP energy -356429.818787 kJ/mol
# GULP energy per Si atom -5569.215919 kJ/mol
# Density = 2.003623 g / cm^3
# Si number density = 20.081934 Si / 1000 Ang^3
#
#
#
# Elastic Constant Matrix: (Units=GPa)
#
#
# Indices 1 2 3 4 5 6 
#
# 1 59.5886 -13.4408 6.6967 0.0000 0.0000 0.0000
# 2 -13.4408 39.3023 -4.3040 0.0000 0.0000 0.0000
# 3 6.6967 -4.3040 100.4443 0.0000 0.0000 0.0000
# 4 0.0000 0.0000 0.0000 17.7288 0.0000 0.0000
# 5 0.0000 0.0000 0.0000 0.0000 10.7354 0.0000
# 6 0.0000 0.0000 0.0000 0.0000 0.0000 5.2668
#
#
#
# Elastic Compliance Matrix: (Units=1/GPa)
#
#
# Indices 1 2 3 4 5 6 
#
# 1 0.018275 0.006145 -0.000955 0.000000 0.000000 0.000000
# 2 0.006145 0.027630 0.000774 0.000000 0.000000 0.000000
# 3 -0.000955 0.000774 0.010053 0.000000 0.000000 0.000000
# 4 0.000000 0.000000 0.000000 0.056405 0.000000 0.000000
# 5 0.000000 0.000000 0.000000 0.000000 0.093150 0.000000
# 6 0.000000 0.000000 0.000000 0.000000 0.000000 0.189868
#
#
# Mechanical properties :
#
#
# Convention : Reuss Voigt Hill
#
# Bulk Modulus (GPa) = 14.73040 19.69323 17.21182
# Shear Modulus (GPa) = 12.31282 20.77177 16.54229
#
# Velocity S-wave (km/s) = 2.47883 3.21962 2.87320
# Velocity P-wave (km/s) = 3.94257 4.86303 4.42679
#
# Compressibility (1/GPa) = 0.06788680
#
# Stress axis : x y z
#
# Youngs Moduli (GPa) = 54.71898 36.19227 99.47660
#
# Poissons Ratio (x) = -0.22241 0.09501
# Poissons Ratio (y) = -0.33626 -0.07702
# Poissons Ratio (z) = 0.05226 -0.02802
#
# Static dielectric constant tensor:
#      x y z
#    x 1.749570 0.000000 0.000000 
#    y 0.000000 1.713850 0.000000 
#    z 0.000000 0.000000 1.796720 
# 
# From -- ./inp_files/13978.got.cif
#   From: 2010.05.17/outbox.cif.g08.bks.cpg/sg73_7_cif.got.tgz:13978.got - 2010.06.03 17:35:07.
