data_PCOD9530455
_publ_section_title
;
Structure prediction by ZEFSAII (Michael W. Deem and Ramdas Pophale) SiO2 
 PCOD9530455
Probable space group: I B C A 
;
_chemical_formula_sum "Si O2"
_cell_formula_units_Z 96
_cell_length_a 25.364181
_cell_length_b 22.459038
_cell_length_c 8.692261
_cell_angle_alpha 90.000000
_cell_angle_beta 90.000000
_cell_angle_gamma 90.000000
_cell_volume 4951.590852
_symmetry_space_group_name_H-M "I B C A "
_symmetry_group_IT_number 73
_symmetry_cell_setting 'orthorhombic'
loop_
_space_group_symop_operation_xyz
x,y,z
-x,1/2-y,z
x,-y,1/2-z
1/2-x,y,-z
-x,-y,-z
x,1/2+y,-z
-x,y,1/2+z
1/2+x,-y,z
1/2+x,1/2+y,1/2+z
1/2-x,-y,1/2+z
1/2+x,1/2-y,-z
-x,1/2+y,1/2-z
1/2-x,1/2-y,1/2-z
1/2+x,y,1/2-z
1/2-x,1/2+y,z
x,1/2-y,1/2+z
loop_
_atom_site_type_symbol
_atom_site_label
_atom_site_fract_x
_atom_site_fract_y
_atom_site_fract_z
Si Si1 0.249021 0.437808 0.316615
Si Si2 0.563244 0.191949 0.206420
Si Si3 0.547143 0.676681 0.159773
Si Si4 0.827905 0.149699 0.862086
Si Si5 0.789109 0.277743 0.872202
Si Si6 0.149967 0.382512 0.202890
O O1 0.270144 0.500000 0.250000
O O2 0.250000 0.436831 0.500000
O O3 0.282320 0.384334 0.233000
O O4 0.187376 0.432124 0.273209
O O5 0.563628 0.260978 0.258577
O O6 0.513080 0.165012 0.294564
O O7 0.618845 0.159265 0.236466
O O8 0.553185 0.187041 0.023148
O O9 0.587310 0.625280 0.212905
O O10 0.817365 0.217147 0.925043
O O11 0.837619 0.115877 0.021040
O O12 0.750000 0.250000 0.750000
O O13 0.827158 0.324261 0.792170
O O14 0.750000 0.303580 0.000000
#
# Coordination Sequence:
#
# PCOD9530455 Si02
#       6
#    16  16  16  16  16  16
#     4  12  26  42  62  84 111 146 188 235 288 343
#     4  10  20  33  52  80 116 156 190 232 276 331
#     4  10  20  33  51  79 117 154 192 232 275 333
#     4  11  22  37  56  81 117 153 189 234 282 338
#     4  12  20  31  50  81 118 149 185 227 280 343
#     4  11  22  36  56  82 116 152 190 234 282 339
#
# _framework density 19.387708
#
# number of rings (size 3 to 8) (size 9 to 14) (size 15 to 20)
#    0.000    1.000    5.000    4.000    0.000    2.667 
#    0.000    0.000    0.000    1.000    0.000    7.000 
#    0.000    0.000    0.000    0.000    0.000    0.000 
#
# Total GULP energy -267634.767410 kJ/mol
# GULP energy per Si atom -5575.724321 kJ/mol
# Density = 1.934358 g / cm^3
# Si number density = 19.387708 Si / 1000 Ang^3
#
#
#
# Elastic Constant Matrix: (Units=GPa)
#
#
# Indices 1 2 3 4 5 6 
#
# 1 98.7510 18.0489 14.6133 0.0000 0.0000 0.0000
# 2 18.0489 69.9968 13.3969 0.0000 0.0000 0.0000
# 3 14.6133 13.3969 63.3564 0.0000 0.0000 0.0000
# 4 0.0000 0.0000 0.0000 13.5518 0.0000 0.0000
# 5 0.0000 0.0000 0.0000 0.0000 26.2749 0.0000
# 6 0.0000 0.0000 0.0000 0.0000 0.0000 12.8777
#
#
#
# Elastic Compliance Matrix: (Units=1/GPa)
#
#
# Indices 1 2 3 4 5 6 
#
# 1 0.010864 -0.002420 -0.001994 0.000000 0.000000 0.000000
# 2 -0.002420 0.015428 -0.002704 0.000000 0.000000 0.000000
# 3 -0.001994 -0.002704 0.016815 0.000000 0.000000 0.000000
# 4 0.000000 0.000000 0.000000 0.073791 0.000000 0.000000
# 5 0.000000 0.000000 0.000000 0.000000 0.038059 0.000000
# 6 0.000000 0.000000 0.000000 0.000000 0.000000 0.077654
#
#
# Mechanical properties :
#
#
# Convention : Reuss Voigt Hill
#
# Bulk Modulus (GPa) = 34.63648 36.02471 35.33059
# Shear Modulus (GPa) = 19.49542 22.94388 21.21965
#
# Velocity S-wave (km/s) = 3.17449 3.44383 3.31190
# Velocity P-wave (km/s) = 5.59826 5.86812 5.73477
#
# Compressibility (1/GPa) = 0.02887130
#
# Stress axis : x y z
#
# Youngs Moduli (GPa) = 92.04876 64.81789 59.46904
#
# Poissons Ratio (x) = 0.15683 0.11859
# Poissons Ratio (y) = 0.22272 0.16082
# Poissons Ratio (z) = 0.18356 0.17528
#
# Static dielectric constant tensor:
#      x y z
#    x 1.671360 0.000000 0.000000 
#    y 0.000000 1.813000 0.000000 
#    z 0.000000 0.000000 1.650980 
# 
# From -- ./inp_files/7963.got.cif
#   From: 2010.05.17/outbox.cif.g08.bks.cpg/sg73_4_cif.got.tgz:7963.got - 2010.06.03 17:35:07.
