data_PCOD9530062
_publ_section_title
;
Structure prediction by ZEFSAII (Michael W. Deem and Ramdas Pophale) SiO2 
 PCOD9530062
Probable space group: I B C A 
;
_chemical_formula_sum "Si O2"
_cell_formula_units_Z 104
_cell_length_a 23.563763
_cell_length_b 8.594486
_cell_length_c 29.487033
_cell_angle_alpha 90.000000
_cell_angle_beta 90.000000
_cell_angle_gamma 90.000000
_cell_volume 5971.667664
_symmetry_space_group_name_H-M "I B C A "
_symmetry_group_IT_number 73
_symmetry_cell_setting 'orthorhombic'
loop_
_space_group_symop_operation_xyz
x,y,z
-x,1/2-y,z
x,-y,1/2-z
1/2-x,y,-z
-x,-y,-z
x,1/2+y,-z
-x,y,1/2+z
1/2+x,-y,z
1/2+x,1/2+y,1/2+z
1/2-x,-y,1/2+z
1/2+x,1/2-y,-z
-x,1/2+y,1/2-z
1/2-x,1/2-y,1/2-z
1/2+x,y,1/2-z
1/2-x,1/2+y,z
x,1/2-y,1/2+z
loop_
_atom_site_type_symbol
_atom_site_label
_atom_site_fract_x
_atom_site_fract_y
_atom_site_fract_z
Si Si1 0.627884 0.580701 0.956341
Si Si2 0.138477 0.631325 0.392331
Si Si3 0.719353 0.178104 0.456183
Si Si4 0.748558 0.500000 0.750000
Si Si5 0.814423 0.802481 0.114851
Si Si6 0.287568 0.254628 0.316093
Si Si7 0.934553 0.765541 0.963986
O O1 0.681729 0.471441 0.968681
O O2 0.648714 0.671390 0.911134
O O3 0.580878 0.444441 0.952499
O O4 0.604035 0.700610 0.994015
O O5 0.182085 0.692441 0.431058
O O6 0.147182 0.454090 0.377010
O O7 0.160123 0.733880 0.350047
O O8 0.080295 0.667116 0.418474
O O9 0.750000 0.240879 0.500000
O O10 0.768131 0.135255 0.421051
O O11 0.711999 0.588699 0.712522
O O12 0.785790 0.619943 0.778686
O O13 0.772841 0.750272 0.155976
O O14 0.000000 0.750000 0.976439
#
# Coordination Sequence:
#
# PCOD9530062 Si02
#       7
#    16  16  16   8  16  16  16
#     4  11  23  34  52  75 105 148 186 222 272 311
#     4  10  20  33  51  73 105 140 178 217 267 317
#     4  10  19  30  46  73 105 143 174 208 252 316
#     4  10  20  34  54  80 120 144 170 206 270 340
#     4  11  20  32  50  78 111 142 174 212 256 338
#     4  10  20  34  53  83 116 145 173 208 264 341
#     4  11  23  39  55  74 103 144 196 243 273 301
#
# _framework density 17.415571
#
# number of rings (size 3 to 8) (size 9 to 14) (size 15 to 20)
#    0.000    1.538    1.538    6.000    4.308    2.462 
#    0.000    0.000    0.000    0.000    0.000    1.077 
#    0.000    0.000    0.000    0.000    0.000    0.000 
#
# Total GULP energy -289660.473299 kJ/mol
# GULP energy per Si atom -5570.393717 kJ/mol
# Density = 1.737593 g / cm^3
# Si number density = 17.415571 Si / 1000 Ang^3
#
#
#
# Elastic Constant Matrix: (Units=GPa)
#
#
# Indices 1 2 3 4 5 6 
#
# 1 43.7205 20.1018 20.3271 0.0000 0.0000 0.0000
# 2 20.1018 78.4707 17.2538 0.0000 0.0000 0.0000
# 3 20.3271 17.2538 77.7276 0.0000 0.0000 0.0000
# 4 0.0000 0.0000 0.0000 -67.7177 0.0000 0.0000
# 5 0.0000 0.0000 0.0000 0.0000 12.9010 0.0000
# 6 0.0000 0.0000 0.0000 0.0000 0.0000 11.4659
#
#
#
# Elastic Compliance Matrix: (Units=1/GPa)
#
#
# Indices 1 2 3 4 5 6 
#
# 1 0.028451 -0.005942 -0.006121 0.000000 0.000000 0.000000
# 2 -0.005942 0.014639 -0.001695 0.000000 0.000000 0.000000
# 3 -0.006121 -0.001695 0.014843 0.000000 0.000000 0.000000
# 4 0.000000 0.000000 0.000000 -0.014767 0.000000 0.000000
# 5 0.000000 0.000000 0.000000 0.000000 0.077514 0.000000
# 6 0.000000 0.000000 0.000000 0.000000 0.000000 0.087215
#
#
# Mechanical properties :
#
#
# Convention : Reuss Voigt Hill
#
# Bulk Modulus (GPa) = 32.87967 35.03156 33.95561
# Shear Modulus (GPa) = 20.36249 0.81225 10.58737
#
# Velocity S-wave (km/s) = 3.42308 0.68367 2.46829
# Velocity P-wave (km/s) = 5.87740 4.55872 5.25955
#
# Compressibility (1/GPa) = 0.03041393
#
# Stress axis : x y z
#
# Youngs Moduli (GPa) = 35.14854 68.31242 67.37361
#
# Poissons Ratio (x) = 0.40593 0.41241
# Poissons Ratio (y) = 0.20886 0.11423
# Poissons Ratio (z) = 0.21515 0.11582
#
# Static dielectric constant tensor:
#      x y z
#    x 1.619570 0.000000 0.000000 
#    y 0.000000 1.664180 0.000000 
#    z 0.000000 0.000000 1.528520 
# 
# From -- ./inp_files/7441.got.cif
#   From: 2010.05.17/outbox.cif.g08.bks.cpg/sg73_4_cif.got.tgz:7441.got - 2010.06.03 17:35:07.
