data_PCOD9530648
_publ_section_title
;
Structure prediction by ZEFSAII (Michael W. Deem and Ramdas Pophale) SiO2 
 PCOD9530648
Probable space group: I B C A 
;
_chemical_formula_sum "Si O2"
_cell_formula_units_Z 96
_cell_length_a 13.655953
_cell_length_b 24.610300
_cell_length_c 14.048852
_cell_angle_alpha 90.000000
_cell_angle_beta 90.000000
_cell_angle_gamma 90.000000
_cell_volume 4721.497440
_symmetry_space_group_name_H-M "I B C A "
_symmetry_group_IT_number 73
_symmetry_cell_setting 'orthorhombic'
loop_
_space_group_symop_operation_xyz
x,y,z
-x,1/2-y,z
x,-y,1/2-z
1/2-x,y,-z
-x,-y,-z
x,1/2+y,-z
-x,y,1/2+z
1/2+x,-y,z
1/2+x,1/2+y,1/2+z
1/2-x,-y,1/2+z
1/2+x,1/2-y,-z
-x,1/2+y,1/2-z
1/2-x,1/2-y,1/2-z
1/2+x,y,1/2-z
1/2-x,1/2+y,z
x,1/2-y,1/2+z
loop_
_atom_site_type_symbol
_atom_site_label
_atom_site_fract_x
_atom_site_fract_y
_atom_site_fract_z
Si Si1 0.228152 0.310741 0.131766
Si Si2 0.908762 0.349544 0.491802
Si Si3 0.496977 0.041809 0.586837
Si Si4 0.283557 0.928606 0.392392
Si Si5 0.350472 0.500000 0.250000
Si Si6 0.000000 0.750000 0.601386
Si Si7 0.704449 0.198079 0.650011
O O1 0.316213 0.340432 0.078056
O O2 0.229940 0.246471 0.104635
O O3 0.240785 0.311560 0.243245
O O4 0.131665 0.341803 0.097562
O O5 0.961821 0.403587 0.464272
O O6 0.975729 0.299529 0.466414
O O7 0.606653 0.049932 0.625144
O O8 0.500000 0.000000 0.500000
O O9 0.421064 0.027029 0.670453
O O10 0.250000 0.944926 0.500000
O O11 0.290023 0.862363 0.392618
O O12 0.214511 0.956169 0.311033
O O13 0.903550 0.727098 0.655583
#
# Coordination Sequence:
#
# PCOD9530648 Si02
#       7
#    16  16  16  16   8   8  16
#     4   9  21  38  65  96 136 185 225 282 359 431
#     4  10  21  39  64  95 133 181 228 291 347 427
#     4  12  26  48  71 108 143 189 251 296 364 432
#     4  12  26  47  74 104 142 191 239 307 360 435
#     4  12  28  50  76 102 146 196 246 306 368 426
#     4  10  20  36  60  92 130 172 228 282 346 418
#     4  10  21  40  62 100 137 181 231 288 358 426
#
# _framework density 20.332533000000002
#
# number of rings (size 3 to 8) (size 9 to 14) (size 15 to 20)
#    0.000    1.333    3.333    1.500    4.667    6.000 
#    0.000    0.000    0.000    0.000    0.000    0.000 
#    0.000    0.000    0.000    0.000    0.000    0.000 
#
# Total GULP energy -267597.753460 kJ/mol
# GULP energy per Si atom -5574.953197 kJ/mol
# Density = 2.028625 g / cm^3
# Si number density = 20.332533 Si / 1000 Ang^3
#
#
#
# Elastic Constant Matrix: (Units=GPa)
#
#
# Indices 1 2 3 4 5 6 
#
# 1 99.0303 61.7461 32.1480 0.0001 -0.0001 0.0000
# 2 61.7461 132.9233 36.7558 0.0002 -0.0001 0.0000
# 3 32.1480 36.7558 97.7796 0.0003 -0.0002 0.0000
# 4 0.0001 0.0002 0.0003 32.5716 -0.0001 0.0000
# 5 -0.0001 -0.0001 -0.0002 -0.0001 59.9409 0.0000
# 6 0.0000 0.0000 0.0000 0.0000 0.0000 8.9162
#
#
#
# Elastic Compliance Matrix: (Units=1/GPa)
#
#
# Indices 1 2 3 4 5 6 
#
# 1 0.014759 -0.006154 -0.002539 0.000000 0.000000 0.000000
# 2 -0.006154 0.010962 -0.002097 0.000000 0.000000 0.000000
# 3 -0.002539 -0.002097 0.011850 0.000000 0.000000 0.000000
# 4 0.000000 0.000000 0.000000 0.030702 0.000000 0.000000
# 5 0.000000 0.000000 0.000000 0.000000 0.016683 0.000000
# 6 0.000000 0.000000 0.000000 0.000000 0.000000 0.112155
#
#
# Mechanical properties :
#
#
# Convention : Reuss Voigt Hill
#
# Bulk Modulus (GPa) = 62.53754 65.67035 64.10394
# Shear Modulus (GPa) = 22.31923 33.55794 27.93858
#
# Velocity S-wave (km/s) = 3.31677 4.06699 3.71088
# Velocity P-wave (km/s) = 6.74478 7.37714 7.06803
#
# Compressibility (1/GPa) = 0.01599040
#
# Stress axis : x y z
#
# Youngs Moduli (GPa) = 67.75425 91.22676 84.38582
#
# Poissons Ratio (x) = 0.56140 0.21428
# Poissons Ratio (y) = 0.41695 0.17698
# Poissons Ratio (z) = 0.17205 0.19133
#
# Static dielectric constant tensor:
#      x y z
#    x 1.823480 0.000000 0.000000 
#    y 0.000000 1.740890 0.000000 
#    z 0.000000 0.000000 1.924610 
# 
# From -- ./inp_files/17092.got.cif
#   From: 2010.05.17/outbox.cif.g08.bks.cpg/sg73_9_cif.got.tgz:17092.got - 2010.06.03 17:35:07.
