data_PCOD9530552
_publ_section_title
;
Structure prediction by ZEFSAII (Michael W. Deem and Ramdas Pophale) SiO2 
 PCOD9530552
Probable space group: I B C A 
;
_chemical_formula_sum "Si O2"
_cell_formula_units_Z 120
_cell_length_a 26.745221
_cell_length_b 12.340710
_cell_length_c 20.202800
_cell_angle_alpha 90.000000
_cell_angle_beta 90.000000
_cell_angle_gamma 90.000000
_cell_volume 6668.035482
_symmetry_space_group_name_H-M "I B C A "
_symmetry_group_IT_number 73
_symmetry_cell_setting 'orthorhombic'
loop_
_space_group_symop_operation_xyz
x,y,z
-x,1/2-y,z
x,-y,1/2-z
1/2-x,y,-z
-x,-y,-z
x,1/2+y,-z
-x,y,1/2+z
1/2+x,-y,z
1/2+x,1/2+y,1/2+z
1/2-x,-y,1/2+z
1/2+x,1/2-y,-z
-x,1/2+y,1/2-z
1/2-x,1/2-y,1/2-z
1/2+x,y,1/2-z
1/2-x,1/2+y,z
x,1/2-y,1/2+z
loop_
_atom_site_type_symbol
_atom_site_label
_atom_site_fract_x
_atom_site_fract_y
_atom_site_fract_z
Si Si1 0.899202 0.360376 0.815792
Si Si2 0.694471 0.720807 0.824890
Si Si3 0.971967 0.860241 0.441412
Si Si4 0.695690 0.766313 0.165648
Si Si5 0.000000 0.750000 0.143268
Si Si6 0.889348 0.106598 0.158746
Si Si7 0.855197 0.996929 0.828586
Si Si8 0.052646 0.048161 0.424933
O O1 0.855587 0.284518 0.845203
O O2 0.894555 0.477357 0.850560
O O3 0.891668 0.377000 0.737585
O O4 0.952848 0.303465 0.820368
O O5 0.746592 0.759424 0.855940
O O6 0.697360 0.741588 0.745827
O O7 0.685004 0.593548 0.835056
O O8 0.935926 0.840555 0.379216
O O9 0.938446 0.915083 0.499262
O O10 0.000000 0.750000 0.461470
O O11 0.015231 0.946515 0.425251
O O12 0.661645 0.668009 0.138698
O O13 0.668813 0.881170 0.153997
O O14 0.976752 0.650975 0.103280
O O15 0.900675 0.022245 0.877978
O O16 0.870672 0.000000 0.750000
#
# Coordination Sequence:
#
# PCOD9530552 Si02
#       8
#    16  16  16  16   8  16  16  16
#     4  10  21  34  55  83 116 145 187 236 298 344
#     4   9  18  33  54  83 112 146 179 228 288 345
#     4  11  23  38  56  79 112 153 197 233 278 337
#     4   9  19  33  54  83 114 141 183 233 281 340
#     4  12  20  38  54  82 114 146 190 236 290 352
#     4  10  21  36  52  85 111 150 189 238 292 337
#     4  10  20  35  57  86 113 145 185 234 289 335
#     4  11  23  38  57  81 110 152 195 231 279 345
#
# _framework density 17.996305
#
# number of rings (size 3 to 8) (size 9 to 14) (size 15 to 20)
#    0.000    1.867    3.333    0.800    2.800    1.067 
#    0.000    0.000    0.000    0.800    0.000    0.000 
#    0.000    0.000    0.000    0.000    0.000    0.000 
#
# Total GULP energy -334238.727413 kJ/mol
# GULP energy per Si atom -5570.645457 kJ/mol
# Density = 1.795534 g / cm^3
# Si number density = 17.996305 Si / 1000 Ang^3
#
#
#
# Elastic Constant Matrix: (Units=GPa)
#
#
# Indices 1 2 3 4 5 6 
#
# 1 123.5406 63.2060 29.5168 0.0000 0.0000 0.0000
# 2 63.2060 113.1316 19.5929 0.0000 0.0000 0.0000
# 3 29.5168 19.5929 36.2650 0.0000 0.0000 0.0000
# 4 0.0000 0.0000 0.0000 20.6851 0.0000 0.0000
# 5 0.0000 0.0000 0.0000 0.0000 3.8640 0.0000
# 6 0.0000 0.0000 0.0000 0.0000 0.0000 21.7096
#
#
#
# Elastic Compliance Matrix: (Units=1/GPa)
#
#
# Indices 1 2 3 4 5 6 
#
# 1 0.012864 -0.005928 -0.007267 0.000000 0.000000 0.000000
# 2 -0.005928 0.012484 -0.001919 0.000000 0.000000 0.000000
# 3 -0.007267 -0.001919 0.034527 0.000000 0.000000 0.000000
# 4 0.000000 0.000000 0.000000 0.048344 0.000000 0.000000
# 5 0.000000 0.000000 0.000000 0.000000 0.258796 0.000000
# 6 0.000000 0.000000 0.000000 0.000000 0.000000 0.046063
#
#
# Mechanical properties :
#
#
# Convention : Reuss Voigt Hill
#
# Bulk Modulus (GPa) = 33.73319 55.28538 44.50929
# Shear Modulus (GPa) = 11.03293 19.95985 15.49639
#
# Velocity S-wave (km/s) = 2.47870 3.33394 2.93761
# Velocity P-wave (km/s) = 5.19395 6.75332 6.02430
#
# Compressibility (1/GPa) = 0.02964439
#
# Stress axis : x y z
#
# Youngs Moduli (GPa) = 77.73674 80.10353 28.96306
#
# Poissons Ratio (x) = 0.47489 0.21048
# Poissons Ratio (y) = 0.46086 0.05559
# Poissons Ratio (z) = 0.56493 0.15375
#
# Static dielectric constant tensor:
#      x y z
#    x 1.631100 0.000000 0.000000 
#    y 0.000000 1.648690 0.000000 
#    z 0.000000 0.000000 1.624630 
# 
# From -- ./inp_files/27696.got.cif
#   From: 2010.05.17/outbox.cif.g08.bks.cpg/sg73_14_cif.got.tgz:27696.got - 2010.06.03 17:35:07.
