data_PCOD9530529
_publ_section_title
;
Structure prediction by ZEFSAII (Michael W. Deem and Ramdas Pophale) SiO2 
 PCOD9530529
Probable space group: I B C A 
;
_chemical_formula_sum "Si O2"
_cell_formula_units_Z 80
_cell_length_a 14.408766
_cell_length_b 17.107854
_cell_length_c 17.921805
_cell_angle_alpha 90.000000
_cell_angle_beta 90.000000
_cell_angle_gamma 90.000000
_cell_volume 4417.779864
_symmetry_space_group_name_H-M "I B C A "
_symmetry_group_IT_number 73
_symmetry_cell_setting 'orthorhombic'
loop_
_space_group_symop_operation_xyz
x,y,z
-x,1/2-y,z
x,-y,1/2-z
1/2-x,y,-z
-x,-y,-z
x,1/2+y,-z
-x,y,1/2+z
1/2+x,-y,z
1/2+x,1/2+y,1/2+z
1/2-x,-y,1/2+z
1/2+x,1/2-y,-z
-x,1/2+y,1/2-z
1/2-x,1/2-y,1/2-z
1/2+x,y,1/2-z
1/2-x,1/2+y,z
x,1/2-y,1/2+z
loop_
_atom_site_type_symbol
_atom_site_label
_atom_site_fract_x
_atom_site_fract_y
_atom_site_fract_z
Si Si1 0.627124 0.807768 0.637843
Si Si2 0.994943 0.879167 0.611622
Si Si3 0.000000 0.250000 0.761483
Si Si4 0.625032 0.483460 0.337797
Si Si5 0.000000 0.250000 0.509330
Si Si6 0.781274 0.095581 0.913844
O O1 0.589416 0.758746 0.707414
O O2 0.584931 0.771510 0.563225
O O3 0.735508 0.827704 0.626276
O O4 0.585942 0.895823 0.648346
O O5 0.994839 0.825233 0.685438
O O6 0.890351 0.906652 0.595379
O O7 0.063224 0.951261 0.623484
O O8 0.023051 0.822730 0.543707
O O9 0.630013 0.500000 0.250000
O O10 0.727287 0.475598 0.373865
O O11 0.750000 0.097610 0.000000
#
# Coordination Sequence:
#
# PCOD9530529 Si02
#       6
#    16  16   8  16   8  16
#     4   9  20  39  58  84 126 150 194 249 305 348
#     4  11  20  37  66  85 119 161 201 241 306 358
#     4  10  20  36  62  92 112 160 198 248 302 366
#     4  10  21  40  60  87 123 159 202 248 296 366
#     4  10  20  34  64  86 112 158 190 248 298 358
#     4  10  21  37  60  85 122 155 198 247 295 354
#
# _framework density 18.108643000000001
#
# number of rings (size 3 to 8) (size 9 to 14) (size 15 to 20)
#    1.200    0.800    4.000    0.000    0.000    4.800 
#    0.000    0.000   22.000    0.000    0.000    0.000 
#    0.000    0.000    0.000    0.000    0.000    0.000 
#
# Total GULP energy -222746.312543 kJ/mol
# GULP energy per Si atom -5568.657814 kJ/mol
# Density = 1.806743 g / cm^3
# Si number density = 18.108643 Si / 1000 Ang^3
#
#
#
# Elastic Constant Matrix: (Units=GPa)
#
#
# Indices 1 2 3 4 5 6 
#
# 1 67.4527 40.5650 41.6716 0.0000 0.0000 0.0000
# 2 40.5650 74.8730 31.2803 0.0000 0.0000 0.0000
# 3 41.6716 31.2803 112.7253 0.0000 0.0000 0.0000
# 4 0.0000 0.0000 0.0000 15.4902 0.0000 0.0000
# 5 0.0000 0.0000 0.0000 0.0000 4.2523 0.0000
# 6 0.0000 0.0000 0.0000 0.0000 0.0000 20.7800
#
#
#
# Elastic Compliance Matrix: (Units=1/GPa)
#
#
# Indices 1 2 3 4 5 6 
#
# 1 0.025419 -0.011137 -0.006306 0.000000 0.000000 0.000000
# 2 -0.011137 0.019987 -0.001429 0.000000 0.000000 0.000000
# 3 -0.006306 -0.001429 0.011599 0.000000 0.000000 0.000000
# 4 0.000000 0.000000 0.000000 0.064557 0.000000 0.000000
# 5 0.000000 0.000000 0.000000 0.000000 0.235168 0.000000
# 6 0.000000 0.000000 0.000000 0.000000 0.000000 0.048123
#
#
# Mechanical properties :
#
#
# Convention : Reuss Voigt Hill
#
# Bulk Modulus (GPa) = 51.92126 53.56498 52.74312
# Shear Modulus (GPa) = 11.13543 17.54011 14.33777
#
# Velocity S-wave (km/s) = 2.48246 3.11562 2.81688
# Velocity P-wave (km/s) = 6.07874 6.52585 6.30626
#
# Compressibility (1/GPa) = 0.01925993
#
# Stress axis : x y z
#
# Youngs Moduli (GPa) = 39.34125 50.03309 86.21476
#
# Poissons Ratio (x) = 0.55721 0.54369
# Poissons Ratio (y) = 0.43814 0.12322
# Poissons Ratio (z) = 0.24809 0.07151
#
# Static dielectric constant tensor:
#      x y z
#    x 1.611480 0.000000 0.000000 
#    y 0.000000 1.616980 0.000000 
#    z 0.000000 0.000000 1.626290 
# 
# From -- ./inp_files/21895.got.cif
#   From: 2010.05.17/outbox.cif.g08.bks.cpg/sg73_11_cif.got.tgz:21895.got - 2010.06.03 17:35:07.
