data_PCOD9530803
_publ_section_title
;
Structure prediction by ZEFSAII (Michael W. Deem and Ramdas Pophale) SiO2 
 PCOD9530803
Probable space group: I B C A 
;
_chemical_formula_sum "Si O2"
_cell_formula_units_Z 120
_cell_length_a 20.509215
_cell_length_b 14.750654
_cell_length_c 20.982398
_cell_angle_alpha 90.000000
_cell_angle_beta 90.000000
_cell_angle_gamma 90.000000
_cell_volume 6347.685986
_symmetry_space_group_name_H-M "I B C A "
_symmetry_group_IT_number 73
_symmetry_cell_setting 'orthorhombic'
loop_
_space_group_symop_operation_xyz
x,y,z
-x,1/2-y,z
x,-y,1/2-z
1/2-x,y,-z
-x,-y,-z
x,1/2+y,-z
-x,y,1/2+z
1/2+x,-y,z
1/2+x,1/2+y,1/2+z
1/2-x,-y,1/2+z
1/2+x,1/2-y,-z
-x,1/2+y,1/2-z
1/2-x,1/2-y,1/2-z
1/2+x,y,1/2-z
1/2-x,1/2+y,z
x,1/2-y,1/2+z
loop_
_atom_site_type_symbol
_atom_site_label
_atom_site_fract_x
_atom_site_fract_y
_atom_site_fract_z
Si Si1 0.684958 0.619420 0.194900
Si Si2 0.341631 0.694618 0.147445
Si Si3 0.591743 0.119215 0.589492
Si Si4 0.500000 0.750000 0.838241
Si Si5 0.454289 0.169640 0.955073
Si Si6 0.779294 0.421686 0.841389
Si Si7 0.068669 0.398820 0.746846
Si Si8 0.957124 0.067219 0.146428
O O1 0.700112 0.715395 0.162687
O O2 0.718502 0.530648 0.165018
O O3 0.699724 0.614663 0.270504
O O4 0.608495 0.608993 0.176345
O O5 0.395148 0.701934 0.091160
O O6 0.290507 0.614363 0.137565
O O7 0.382106 0.667773 0.210349
O O8 0.557145 0.206013 0.619978
O O9 0.576570 0.117655 0.514587
O O10 0.667060 0.112753 0.608591
O O11 0.560294 0.032541 0.623856
O O12 0.534543 0.666557 0.799486
O O13 0.500000 0.250000 0.980439
O O14 0.505997 0.114912 0.912064
O O15 0.102296 0.500000 0.750000
O O16 0.009467 0.426625 0.701441
#
# Coordination Sequence:
#
# PCOD9530803 Si02
#       8
#    16  16  16   8  16  16  16  16
#     4  10  20  38  65  86 125 158 204 243 318 386
#     4  11  23  40  61  88 123 166 203 251 306 381
#     4  11  22  39  60  86 125 159 207 253 302 367
#     4  12  22  36  58  98 122 156 200 264 316 362
#     4  11  22  39  64  89 118 161 211 259 305 357
#     4  10  23  38  61  91 119 166 198 249 310 376
#     4  11  22  34  60  91 126 153 198 258 319 372
#     4  10  20  38  60  90 117 163 198 255 314 368
#
# _framework density 18.904527000000002
#
# number of rings (size 3 to 8) (size 9 to 14) (size 15 to 20)
#    0.000    1.333    3.333    3.200    5.600    0.533 
#    0.000    0.000    0.000    1.600    0.000    0.000 
#    0.000    0.000    0.000    0.000    0.000    0.000 
#
# Total GULP energy -334348.188653 kJ/mol
# GULP energy per Si atom -5572.469811 kJ/mol
# Density = 1.886150 g / cm^3
# Si number density = 18.904527 Si / 1000 Ang^3
#
#
#
# Elastic Constant Matrix: (Units=GPa)
#
#
# Indices 1 2 3 4 5 6 
#
# 1 72.7046 13.0503 12.0080 0.0000 0.0000 0.0000
# 2 13.0503 62.4449 8.4776 0.0000 0.0000 0.0000
# 3 12.0080 8.4776 50.5911 0.0000 0.0000 0.0000
# 4 0.0000 0.0000 0.0000 22.2017 0.0000 0.0000
# 5 0.0000 0.0000 0.0000 0.0000 -1.8582 0.0000
# 6 0.0000 0.0000 0.0000 0.0000 0.0000 20.8263
#
#
#
# Elastic Compliance Matrix: (Units=1/GPa)
#
#
# Indices 1 2 3 4 5 6 
#
# 1 0.014737 -0.002666 -0.003051 0.000000 0.000000 0.000000
# 2 -0.002666 0.016869 -0.002194 0.000000 0.000000 0.000000
# 3 -0.003051 -0.002194 0.020858 0.000000 0.000000 0.000000
# 4 0.000000 0.000000 0.000000 0.045042 0.000000 0.000000
# 5 0.000000 0.000000 0.000000 0.000000 -0.538154 0.000000
# 6 0.000000 0.000000 0.000000 0.000000 0.000000 0.048016
#
#
# Mechanical properties :
#
#
# Convention : Reuss Voigt Hill
#
# Bulk Modulus (GPa) = 27.29083 28.09027 27.69055
# Shear Modulus (GPa) = -13.71378 18.38094 2.33358
#
# Velocity S-wave (km/s) = -2.69629 3.12156 1.11224
# Velocity P-wave (km/s) = 2.18499 5.28048 4.04089
#
# Compressibility (1/GPa) = 0.03664234
#
# Stress axis : x y z
#
# Youngs Moduli (GPa) = 67.85786 59.28013 47.94283
#
# Poissons Ratio (x) = 0.15802 0.14628
# Poissons Ratio (y) = 0.18088 0.10519
# Poissons Ratio (z) = 0.20704 0.13006
#
# Static dielectric constant tensor:
#      x y z
#    x 1.637670 0.000000 0.000000 
#    y 0.000000 1.843180 0.000000 
#    z 0.000000 0.000000 1.680970 
# 
# From -- ./inp_files/18967.got.cif
#   From: 2010.05.17/outbox.cif.g08.bks.cpg/sg73_10_cif.got.tgz:18967.got - 2010.06.03 17:35:07.
