data_PCOD9530500
_publ_section_title
;
Structure prediction by ZEFSAII (Michael W. Deem and Ramdas Pophale) SiO2 
 PCOD9530500
Probable space group: I B C A 
;
_chemical_formula_sum "Si O2"
_cell_formula_units_Z 112
_cell_length_a 11.178425
_cell_length_b 21.635008
_cell_length_c 23.271307
_cell_angle_alpha 90.000000
_cell_angle_beta 90.000000
_cell_angle_gamma 90.000000
_cell_volume 5628.056556
_symmetry_space_group_name_H-M "I B C A "
_symmetry_group_IT_number 73
_symmetry_cell_setting 'orthorhombic'
loop_
_space_group_symop_operation_xyz
x,y,z
-x,1/2-y,z
x,-y,1/2-z
1/2-x,y,-z
-x,-y,-z
x,1/2+y,-z
-x,y,1/2+z
1/2+x,-y,z
1/2+x,1/2+y,1/2+z
1/2-x,-y,1/2+z
1/2+x,1/2-y,-z
-x,1/2+y,1/2-z
1/2-x,1/2-y,1/2-z
1/2+x,y,1/2-z
1/2-x,1/2+y,z
x,1/2-y,1/2+z
loop_
_atom_site_type_symbol
_atom_site_label
_atom_site_fract_x
_atom_site_fract_y
_atom_site_fract_z
Si Si1 0.331339 0.390764 0.615189
Si Si2 0.291802 0.026564 0.434109
Si Si3 0.324780 0.817530 0.691037
Si Si4 0.023013 0.372938 0.030339
Si Si5 0.897951 0.880805 0.600851
Si Si6 0.500000 0.250000 0.397919
Si Si7 0.877472 0.716873 0.186976
Si Si8 0.750000 0.367524 0.000000
O O1 0.319438 0.459137 0.589305
O O2 0.235125 0.378612 0.664591
O O3 0.470962 0.384941 0.629730
O O4 0.298473 0.343592 0.562199
O O5 0.250000 0.019174 0.500000
O O6 0.404851 0.073045 0.436933
O O7 0.185023 0.059049 0.399184
O O8 0.408581 0.784043 0.644918
O O9 0.212416 0.772445 0.697321
O O10 0.386393 0.820935 0.753218
O O11 0.039684 0.307054 0.061485
O O12 0.882141 0.390466 0.023005
O O13 0.077881 0.367928 0.966321
O O14 0.834296 0.826328 0.635379
O O15 0.000000 0.750000 0.171104
#
# Coordination Sequence:
#
# PCOD9530500 Si02
#       8
#    16  16  16  16  16   8  16   8
#     4  11  21  37  64  89 122 163 213 257 318 388
#     4  10  22  40  60  90 130 169 212 255 316 393
#     4  11  24  39  64  91 119 168 211 266 330 382
#     4  10  23  37  59  94 132 171 202 260 330 388
#     4  10  23  39  61  91 122 169 209 259 323 383
#     4  12  22  38  60  94 132 160 210 274 332 394
#     4  11  22  43  64  86 124 163 216 267 318 399
#     4  10  20  34  56  90 130 162 202 256 310 392
#
# _framework density 19.900296999999998
#
# number of rings (size 3 to 8) (size 9 to 14) (size 15 to 20)
#    0.000    1.429    4.286    0.857    3.000    1.714 
#    3.857    0.714    0.000    1.714    0.000    0.000 
#    0.000    0.000    0.000    0.000    0.000    0.000 
#
# Total GULP energy -311869.895616 kJ/mol
# GULP energy per Si atom -5569.105279 kJ/mol
# Density = 1.985500 g / cm^3
# Si number density = 19.900297 Si / 1000 Ang^3
#
#
#
# Elastic Constant Matrix: (Units=GPa)
#
#
# Indices 1 2 3 4 5 6 
#
# 1 62.1870 20.1686 4.1603 0.0000 0.0000 0.0000
# 2 20.1686 94.3342 31.5449 0.0000 0.0000 0.0000
# 3 4.1603 31.5449 47.4550 0.0000 0.0000 0.0000
# 4 0.0000 0.0000 0.0000 73.9363 0.0000 0.0000
# 5 0.0000 0.0000 0.0000 0.0000 24.1637 0.0000
# 6 0.0000 0.0000 0.0000 0.0000 0.0000 30.0911
#
#
#
# Elastic Compliance Matrix: (Units=1/GPa)
#
#
# Indices 1 2 3 4 5 6 
#
# 1 0.017333 -0.004112 0.001214 0.000000 0.000000 0.000000
# 2 -0.004112 0.014606 -0.009348 0.000000 0.000000 0.000000
# 3 0.001214 -0.009348 0.027180 0.000000 0.000000 0.000000
# 4 0.000000 0.000000 0.000000 0.013525 0.000000 0.000000
# 5 0.000000 0.000000 0.000000 0.000000 0.041384 0.000000
# 6 0.000000 0.000000 0.000000 0.000000 0.000000 0.033232
#
#
# Mechanical properties :
#
#
# Convention : Reuss Voigt Hill
#
# Bulk Modulus (GPa) = 28.88000 35.08043 31.98022
# Shear Modulus (GPa) = 27.27829 35.51171 31.39500
#
# Velocity S-wave (km/s) = 3.70638 4.22889 3.97623
# Velocity P-wave (km/s) = 5.73238 6.44291 6.09800
#
# Compressibility (1/GPa) = 0.03462604
#
# Stress axis : x y z
#
# Youngs Moduli (GPa) = 57.69403 68.46619 36.79117
#
# Poissons Ratio (x) = 0.28150 -0.04465
# Poissons Ratio (y) = 0.23721 0.34394
# Poissons Ratio (z) = -0.07001 0.64005
#
# Static dielectric constant tensor:
#      x y z
#    x 1.754630 0.000000 0.000000 
#    y 0.000000 1.730360 0.000000 
#    z 0.000000 0.000000 1.755540 
# 
# From -- ./inp_files/29059.got.cif
#   From: 2010.05.17/outbox.cif.g08.bks.cpg/sg73_15_cif.got.tgz:29059.got - 2010.06.03 17:35:07.
