data_PCOD9530190
_publ_section_title
;
Structure prediction by ZEFSAII (Michael W. Deem and Ramdas Pophale) SiO2 
 PCOD9530190
Probable space group: I B C A 
;
_chemical_formula_sum "Si O2"
_cell_formula_units_Z 64
_cell_length_a 23.951274
_cell_length_b 14.147977
_cell_length_c 8.752171
_cell_angle_alpha 90.000000
_cell_angle_beta 90.000000
_cell_angle_gamma 90.000000
_cell_volume 2965.778814
_symmetry_space_group_name_H-M "I B C A "
_symmetry_group_IT_number 73
_symmetry_cell_setting 'orthorhombic'
loop_
_space_group_symop_operation_xyz
x,y,z
-x,1/2-y,z
x,-y,1/2-z
1/2-x,y,-z
-x,-y,-z
x,1/2+y,-z
-x,y,1/2+z
1/2+x,-y,z
1/2+x,1/2+y,1/2+z
1/2-x,-y,1/2+z
1/2+x,1/2-y,-z
-x,1/2+y,1/2-z
1/2-x,1/2-y,1/2-z
1/2+x,y,1/2-z
1/2-x,1/2+y,z
x,1/2-y,1/2+z
loop_
_atom_site_type_symbol
_atom_site_label
_atom_site_fract_x
_atom_site_fract_y
_atom_site_fract_z
Si Si1 0.750000 0.764622 0.000000
Si Si2 0.093480 0.500000 0.250000
Si Si3 0.932764 0.197244 0.771621
Si Si4 0.170680 0.318201 0.246335
Si Si5 0.478406 0.878551 0.448008
O O1 0.714784 0.699667 0.113827
O O2 0.794358 0.824667 0.097398
O O3 0.133356 0.410589 0.220085
O O4 0.051419 0.527724 0.111840
O O5 0.867956 0.223154 0.754272
O O6 0.957730 0.156474 0.613061
O O7 0.954710 0.299522 0.828952
O O8 0.956118 0.130009 0.906149
#
# Coordination Sequence:
#
# PCOD9530190 Si02
#       5
#     8   8  16  16  16
#     4  10  22  40  66  84 108 162 212 240 296 358
#     4  10  22  36  58  90 126 148 188 254 304 344
#     4  10  19  35  58  82 118 159 197 232 290 369
#     4  10  21  40  62  88 117 154 202 253 293 348
#     4  10  20  35  58  86 118 160 195 237 297 368
#
# _framework density 21.579491000000001
#
# number of rings (size 3 to 8) (size 9 to 14) (size 15 to 20)
#    0.000    2.000    0.000    6.000    0.000    4.000 
#    0.000    2.500    0.000   16.500    0.000    0.000 
#    0.000    0.000    0.000    0.000    0.000    0.000 
#
# Total GULP energy -178353.911677 kJ/mol
# GULP energy per Si atom -5573.559740 kJ/mol
# Density = 2.153038 g / cm^3
# Si number density = 21.579491 Si / 1000 Ang^3
#
#
#
# Elastic Constant Matrix: (Units=GPa)
#
#
# Indices 1 2 3 4 5 6 
#
# 1 110.9338 43.9545 47.2996 0.0000 0.0000 0.0000
# 2 43.9545 104.2071 56.1953 0.0000 0.0000 0.0000
# 3 47.2996 56.1953 125.9920 0.0000 0.0000 0.0000
# 4 0.0000 0.0000 0.0000 18.3730 0.0000 0.0000
# 5 0.0000 0.0000 0.0000 0.0000 19.8814 0.0000
# 6 0.0000 0.0000 0.0000 0.0000 0.0000 39.0672
#
#
#
# Elastic Compliance Matrix: (Units=1/GPa)
#
#
# Indices 1 2 3 4 5 6 
#
# 1 0.011551 -0.003336 -0.002848 0.000000 0.000000 0.000000
# 2 -0.003336 0.013599 -0.004813 0.000000 0.000000 0.000000
# 3 -0.002848 -0.004813 0.011153 0.000000 0.000000 0.000000
# 4 0.000000 0.000000 0.000000 0.054428 0.000000 0.000000
# 5 0.000000 0.000000 0.000000 0.000000 0.050298 0.000000
# 6 0.000000 0.000000 0.000000 0.000000 0.000000 0.025597
#
#
# Mechanical properties :
#
#
# Convention : Reuss Voigt Hill
#
# Bulk Modulus (GPa) = 69.89204 70.67019 70.28112
# Shear Modulus (GPa) = 25.85453 28.37655 27.11554
#
# Velocity S-wave (km/s) = 3.46512 3.63020 3.54862
# Velocity P-wave (km/s) = 6.96189 7.09866 7.03061
#
# Compressibility (1/GPa) = 0.01430778
#
# Stress axis : x y z
#
# Youngs Moduli (GPa) = 86.57494 73.53529 89.66154
#
# Poissons Ratio (x) = 0.24532 0.25539
# Poissons Ratio (y) = 0.28882 0.43154
# Poissons Ratio (z) = 0.24660 0.35393
#
# Static dielectric constant tensor:
#      x y z
#    x 1.925590 0.000000 0.000000 
#    y 0.000000 1.870720 0.000000 
#    z 0.000000 0.000000 1.806390 
# 
# From -- ./inp_files/7584.got.cif
#   From: 2010.05.17/outbox.cif.g08.bks.cpg/sg73_4_cif.got.tgz:7584.got - 2010.06.03 17:35:07.
