data_PCOD9530281
_publ_section_title
;
Structure prediction by ZEFSAII (Michael W. Deem and Ramdas Pophale) SiO2 
 PCOD9530281
Probable space group: I B C A 
;
_chemical_formula_sum "Si O2"
_cell_formula_units_Z 48
_cell_length_a 7.451237
_cell_length_b 15.293507
_cell_length_c 15.343515
_cell_angle_alpha 90.000000
_cell_angle_beta 90.000000
_cell_angle_gamma 90.000000
_cell_volume 1748.478617
_symmetry_space_group_name_H-M "I B C A "
_symmetry_group_IT_number 73
_symmetry_cell_setting 'orthorhombic'
loop_
_space_group_symop_operation_xyz
x,y,z
-x,1/2-y,z
x,-y,1/2-z
1/2-x,y,-z
-x,-y,-z
x,1/2+y,-z
-x,y,1/2+z
1/2+x,-y,z
1/2+x,1/2+y,1/2+z
1/2-x,-y,1/2+z
1/2+x,1/2-y,-z
-x,1/2+y,1/2-z
1/2-x,1/2-y,1/2-z
1/2+x,y,1/2-z
1/2-x,1/2+y,z
x,1/2-y,1/2+z
loop_
_atom_site_type_symbol
_atom_site_label
_atom_site_fract_x
_atom_site_fract_y
_atom_site_fract_z
Si Si1 0.486456 0.596542 0.743957
Si Si2 0.223143 0.177642 0.377296
Si Si3 0.145653 0.373222 0.421897
O O1 0.565224 0.500000 0.750000
O O2 0.400610 0.627037 0.653003
O O3 0.612454 0.671242 0.785605
O O4 0.345612 0.587015 0.826082
O O5 0.232595 0.276637 0.408710
O O6 0.069421 0.135228 0.439458
O O7 0.250000 0.418010 0.500000
#
# Coordination Sequence:
#
# PCOD9530281 Si02
#       3
#    16  16  16
#     4  10  19  37  62  91 121 157 204 249 306 371
#     4   9  20  37  61  86 114 165 207 247 296 359
#     4   9  20  38  57  86 123 154 201 250 304 352
#
# _framework density 27.452438999999998
#
# number of rings (size 3 to 8) (size 9 to 14) (size 15 to 20)
#    2.000    0.667    0.000    2.000    0.000    0.000 
#   12.000    3.333    0.000    0.000    0.000    0.000 
#    0.000    0.000    0.000    0.000    0.000    0.000 
#
# Total GULP energy -133677.135123 kJ/mol
# GULP energy per Si atom -5569.880630 kJ/mol
# Density = 2.738996 g / cm^3
# Si number density = 27.452439 Si / 1000 Ang^3
#
#
#
# Elastic Constant Matrix: (Units=GPa)
#
#
# Indices 1 2 3 4 5 6 
#
# 1 76.7305 25.3653 27.6508 0.0000 0.0000 0.0000
# 2 25.3653 94.4614 18.5757 0.0000 0.0000 0.0000
# 3 27.6508 18.5757 123.0086 0.0000 0.0000 0.0000
# 4 0.0000 0.0000 0.0000 4.3531 0.0000 0.0000
# 5 0.0000 0.0000 0.0000 0.0000 29.6015 0.0000
# 6 0.0000 0.0000 0.0000 0.0000 0.0000 36.7939
#
#
#
# Elastic Compliance Matrix: (Units=1/GPa)
#
#
# Indices 1 2 3 4 5 6 
#
# 1 0.015240 -0.003523 -0.002894 0.000000 0.000000 0.000000
# 2 -0.003523 0.011725 -0.000979 0.000000 0.000000 0.000000
# 3 -0.002894 -0.000979 0.008928 0.000000 0.000000 0.000000
# 4 0.000000 0.000000 0.000000 0.229722 0.000000 0.000000
# 5 0.000000 0.000000 0.000000 0.000000 0.033782 0.000000
# 6 0.000000 0.000000 0.000000 0.000000 0.000000 0.027178
#
#
# Mechanical properties :
#
#
# Convention : Reuss Voigt Hill
#
# Bulk Modulus (GPa) = 47.39000 48.59824 47.99412
# Shear Modulus (GPa) = 14.35131 28.99027 21.67079
#
# Velocity S-wave (km/s) = 2.28890 3.25317 2.81266
# Velocity P-wave (km/s) = 4.92803 5.64375 5.29799
#
# Compressibility (1/GPa) = 0.02110150
#
# Stress axis : x y z
#
# Youngs Moduli (GPa) = 65.61611 85.28873 112.01010
#
# Poissons Ratio (x) = 0.30050 0.32413
# Poissons Ratio (y) = 0.23119 0.10961
# Poissons Ratio (z) = 0.18988 0.08346
#
# Static dielectric constant tensor:
#      x y z
#    x 2.630400 0.000000 0.000000 
#    y 0.000000 2.012070 0.000000 
#    z 0.000000 0.000000 2.252490 
# 
# From -- ./inp_files/4367.got.cif
#   From: 2010.05.17/outbox.cif.g08.bks.cpg/sg73_3_cif.got.tgz:4367.got - 2010.06.03 17:35:07.
