data_PCOD9530464
_publ_section_title
;
Structure prediction by ZEFSAII (Michael W. Deem and Ramdas Pophale) SiO2 
 PCOD9530464
Probable space group: I B C A 
;
_chemical_formula_sum "Si O2"
_cell_formula_units_Z 104
_cell_length_a 26.464789
_cell_length_b 21.732095
_cell_length_c 9.478458
_cell_angle_alpha 90.000000
_cell_angle_beta 90.000000
_cell_angle_gamma 90.000000
_cell_volume 5451.395868
_symmetry_space_group_name_H-M "I B C A "
_symmetry_group_IT_number 73
_symmetry_cell_setting 'orthorhombic'
loop_
_space_group_symop_operation_xyz
x,y,z
-x,1/2-y,z
x,-y,1/2-z
1/2-x,y,-z
-x,-y,-z
x,1/2+y,-z
-x,y,1/2+z
1/2+x,-y,z
1/2+x,1/2+y,1/2+z
1/2-x,-y,1/2+z
1/2+x,1/2-y,-z
-x,1/2+y,1/2-z
1/2-x,1/2-y,1/2-z
1/2+x,y,1/2-z
1/2-x,1/2+y,z
x,1/2-y,1/2+z
loop_
_atom_site_type_symbol
_atom_site_label
_atom_site_fract_x
_atom_site_fract_y
_atom_site_fract_z
Si Si1 0.500000 0.750000 0.123658
Si Si2 0.646262 0.644332 0.362687
Si Si3 0.549517 0.927324 0.772645
Si Si4 0.403839 0.272320 0.195278
Si Si5 0.309802 0.692623 0.127230
Si Si6 0.470988 0.363678 0.024360
Si Si7 0.274840 0.169073 0.362590
O O1 0.451076 0.755888 0.220080
O O2 0.491763 0.690288 0.029232
O O3 0.599399 0.597941 0.352956
O O4 0.624166 0.713928 0.370638
O O5 0.684050 0.646266 0.496286
O O6 0.678224 0.638708 0.218356
O O7 0.546036 0.898411 0.616132
O O8 0.550357 0.000000 0.750000
O O9 0.500726 0.904922 0.862823
O O10 0.364082 0.303693 0.298735
O O11 0.425682 0.324064 0.091930
O O12 0.294540 0.763068 0.089012
O O13 0.268453 0.675350 0.244320
O O14 0.250000 0.138886 0.500000
#
# Coordination Sequence:
#
# PCOD9530464 Si02
#       7
#     8  16  16  16  16  16  16
#     4  12  20  36  58  96 126 158 196 260 326 380
#     4  11  22  37  60  89 126 162 203 255 308 373
#     4  12  27  44  63  85 122 175 222 261 304 364
#     4  11  20  33  59  91 124 154 201 250 319 375
#     4  10  20  33  56  89 129 161 191 236 315 388
#     4  12  23  41  61  89 125 161 208 261 313 378
#     4  10  20  34  57  92 132 160 189 242 319 388
#
# _framework density 19.077683
#
# number of rings (size 3 to 8) (size 9 to 14) (size 15 to 20)
#    0.000    0.923    3.077    6.923    4.308    0.000 
#    0.000    0.000    0.000    1.846    0.000    0.000 
#    0.000    0.000    0.000    0.000    0.000    0.000 
#
# Total GULP energy -290433.096251 kJ/mol
# GULP energy per Si atom -5585.251851 kJ/mol
# Density = 1.903426 g / cm^3
# Si number density = 19.077683 Si / 1000 Ang^3
#
#
#
# Elastic Constant Matrix: (Units=GPa)
#
#
# Indices 1 2 3 4 5 6 
#
# 1 86.3223 13.5579 35.5531 0.0000 0.0000 0.0000
# 2 13.5579 87.1524 43.3743 0.0000 0.0000 0.0000
# 3 35.5531 43.3743 98.8206 0.0000 0.0000 0.0000
# 4 0.0000 0.0000 0.0000 16.1086 0.0000 0.0000
# 5 0.0000 0.0000 0.0000 0.0000 29.4628 0.0000
# 6 0.0000 0.0000 0.0000 0.0000 0.0000 9.2440
#
#
#
# Elastic Compliance Matrix: (Units=1/GPa)
#
#
# Indices 1 2 3 4 5 6 
#
# 1 0.013611 0.000409 -0.005076 0.000000 0.000000 0.000000
# 2 0.000409 0.014693 -0.006596 0.000000 0.000000 0.000000
# 3 -0.005076 -0.006596 0.014841 0.000000 0.000000 0.000000
# 4 0.000000 0.000000 0.000000 0.062079 0.000000 0.000000
# 5 0.000000 0.000000 0.000000 0.000000 0.033941 0.000000
# 6 0.000000 0.000000 0.000000 0.000000 0.000000 0.108179
#
#
# Mechanical properties :
#
#
# Convention : Reuss Voigt Hill
#
# Bulk Modulus (GPa) = 48.50150 50.80731 49.65440
# Shear Modulus (GPa) = 18.06723 22.95040 20.50882
#
# Velocity S-wave (km/s) = 3.08073 3.47219 3.28230
# Velocity P-wave (km/s) = 6.17518 6.53945 6.35993
#
# Compressibility (1/GPa) = 0.02061792
#
# Stress axis : x y z
#
# Youngs Moduli (GPa) = 73.46967 68.05755 67.38082
#
# Poissons Ratio (x) = -0.02784 0.34206
# Poissons Ratio (y) = -0.03005 0.44447
# Poissons Ratio (z) = 0.37297 0.44894
#
# Static dielectric constant tensor:
#      x y z
#    x 1.703740 0.000000 0.000000 
#    y 0.000000 1.626530 0.000000 
#    z 0.000000 0.000000 1.744080 
# 
# From -- ./inp_files/8005.got.cif
#   From: 2010.05.17/outbox.cif.g08.bks.cpg/sg73_5_cif.got.tgz:8005.got - 2010.06.03 17:35:07.
