data_PCOD9530338
_publ_section_title
;
Structure prediction by ZEFSAII (Michael W. Deem and Ramdas Pophale) SiO2 
 PCOD9530338
Probable space group: I B C A 
;
_chemical_formula_sum "Si O2"
_cell_formula_units_Z 120
_cell_length_a 13.263711
_cell_length_b 15.654190
_cell_length_c 25.081257
_cell_angle_alpha 90.000000
_cell_angle_beta 90.000000
_cell_angle_gamma 90.000000
_cell_volume 5207.687909
_symmetry_space_group_name_H-M "I B C A "
_symmetry_group_IT_number 73
_symmetry_cell_setting 'orthorhombic'
loop_
_space_group_symop_operation_xyz
x,y,z
-x,1/2-y,z
x,-y,1/2-z
1/2-x,y,-z
-x,-y,-z
x,1/2+y,-z
-x,y,1/2+z
1/2+x,-y,z
1/2+x,1/2+y,1/2+z
1/2-x,-y,1/2+z
1/2+x,1/2-y,-z
-x,1/2+y,1/2-z
1/2-x,1/2-y,1/2-z
1/2+x,y,1/2-z
1/2-x,1/2+y,z
x,1/2-y,1/2+z
loop_
_atom_site_type_symbol
_atom_site_label
_atom_site_fract_x
_atom_site_fract_y
_atom_site_fract_z
Si Si1 0.814750 0.972905 0.306792
Si Si2 0.500000 0.750000 0.530035
Si Si3 0.855919 0.638584 0.392880
Si Si4 0.960057 0.663192 0.125783
Si Si5 0.584214 0.493433 0.811415
Si Si6 0.272999 0.689025 0.634060
Si Si7 0.857207 0.608980 0.971833
Si Si8 0.861782 0.439517 0.916105
O O1 0.797274 0.872224 0.316148
O O2 0.856329 0.000000 0.250000
O O3 0.704670 0.013162 0.308833
O O4 0.866464 0.013254 0.358508
O O5 0.574128 0.686941 0.563893
O O6 0.571045 0.820063 0.501387
O O7 0.929766 0.581117 0.355790
O O8 0.805453 0.713940 0.357957
O O9 0.756543 0.591765 0.419246
O O10 0.945599 0.582955 0.163776
O O11 0.842132 0.681870 0.113515
O O12 0.000000 0.750000 0.151693
O O13 0.052197 0.633039 0.086913
O O14 0.553626 0.500000 0.750000
O O15 0.338255 0.649433 0.586271
O O16 0.887926 0.510747 0.960765
O O17 0.750000 0.605600 0.000000
#
# Coordination Sequence:
#
# PCOD9530338 Si02
#       8
#    16   8  16  16  16  16  16  16
#     4   8  16  33  54  83 118 166 211 262 314 372
#     4  10  22  42  68  94 124 164 206 254 318 386
#     4  10  19  39  63  86 122 171 215 261 318 382
#     4  11  20  36  57  85 121 167 210 260 318 377
#     4   9  19  35  52  81 122 162 216 273 317 371
#     4   9  19  37  61  87 124 167 212 259 322 379
#     4  10  22  43  67  97 127 158 203 258 314 387
#     4  10  20  36  61  89 125 166 207 255 318 374
#
# _framework density 23.042854999999999
#
# number of rings (size 3 to 8) (size 9 to 14) (size 15 to 20)
#    0.000    2.400    1.333    1.600    0.000    0.533 
#    4.800    8.000    0.000    0.000    0.000    0.000 
#    0.000    0.000    0.000    0.000    0.000    0.000 
#
# Total GULP energy -334031.815867 kJ/mol
# GULP energy per Si atom -5567.196931 kJ/mol
# Density = 2.299041 g / cm^3
# Si number density = 23.042855 Si / 1000 Ang^3
#
#
#
# Elastic Constant Matrix: (Units=GPa)
#
#
# Indices 1 2 3 4 5 6 
#
# 1 140.2900 39.2152 23.5655 0.0000 0.0000 0.0000
# 2 39.2152 129.1382 40.7559 0.0000 0.0000 0.0000
# 3 23.5655 40.7559 57.3625 0.0000 0.0000 0.0000
# 4 0.0000 0.0000 0.0000 -5.6161 0.0000 0.0000
# 5 0.0000 0.0000 0.0000 0.0000 64.7084 0.0000
# 6 0.0000 0.0000 0.0000 0.0000 0.0000 29.9896
#
#
#
# Elastic Compliance Matrix: (Units=1/GPa)
#
#
# Indices 1 2 3 4 5 6 
#
# 1 0.007964 -0.001786 -0.002002 0.000000 0.000000 0.000000
# 2 -0.001786 0.010383 -0.006643 0.000000 0.000000 0.000000
# 3 -0.002002 -0.006643 0.022975 0.000000 0.000000 0.000000
# 4 0.000000 0.000000 0.000000 -0.178058 0.000000 0.000000
# 5 0.000000 0.000000 0.000000 0.000000 0.015454 0.000000
# 6 0.000000 0.000000 0.000000 0.000000 0.000000 0.033345
#
#
# Mechanical properties :
#
#
# Convention : Reuss Voigt Hill
#
# Bulk Modulus (GPa) = 48.87990 59.31820 54.09905
# Shear Modulus (GPa) = -82.98169 32.69996 -25.14087
#
# Velocity S-wave (km/s) = -6.00750 3.77117 -3.30669
# Velocity P-wave (km/s) = 5.18280 6.69035 2.99160
#
# Compressibility (1/GPa) = 0.02045831
#
# Stress axis : x y z
#
# Youngs Moduli (GPa) = 125.56813 96.31487 43.52479
#
# Poissons Ratio (x) = 0.17206 0.08716
# Poissons Ratio (y) = 0.22431 0.28913
# Poissons Ratio (z) = 0.25144 0.63981
#
# Static dielectric constant tensor:
#      x y z
#    x 1.943280 0.000000 0.000000 
#    y 0.000000 1.880250 0.000000 
#    z 0.000000 0.000000 1.906000 
# 
# From -- ./inp_files/34404.got.cif
#   From: 2010.05.17/outbox.cif.g08.bks.cpg/sg73_18_cif.got.tgz:34404.got - 2010.06.03 17:35:07.
