data_PCOD9530391
_publ_section_title
;
Structure prediction by ZEFSAII (Michael W. Deem and Ramdas Pophale) SiO2 
 PCOD9530391
Probable space group: I B C A 
;
_chemical_formula_sum "Si O2"
_cell_formula_units_Z 104
_cell_length_a 19.207869
_cell_length_b 25.769760
_cell_length_c 8.930184
_cell_angle_alpha 90.000000
_cell_angle_beta 90.000000
_cell_angle_gamma 90.000000
_cell_volume 4420.281893
_symmetry_space_group_name_H-M "I B C A "
_symmetry_group_IT_number 73
_symmetry_cell_setting 'orthorhombic'
loop_
_space_group_symop_operation_xyz
x,y,z
-x,1/2-y,z
x,-y,1/2-z
1/2-x,y,-z
-x,-y,-z
x,1/2+y,-z
-x,y,1/2+z
1/2+x,-y,z
1/2+x,1/2+y,1/2+z
1/2-x,-y,1/2+z
1/2+x,1/2-y,-z
-x,1/2+y,1/2-z
1/2-x,1/2-y,1/2-z
1/2+x,y,1/2-z
1/2-x,1/2+y,z
x,1/2-y,1/2+z
loop_
_atom_site_type_symbol
_atom_site_label
_atom_site_fract_x
_atom_site_fract_y
_atom_site_fract_z
Si Si1 0.250000 0.359077 0.500000
Si Si2 0.825207 0.500000 0.250000
Si Si3 0.925359 0.595840 0.961515
Si Si4 0.721999 0.910345 0.700521
Si Si5 0.598560 0.712232 0.965411
Si Si6 0.750000 0.180948 0.000000
Si Si7 0.563036 0.925439 0.183722
Si Si8 0.110378 0.687381 0.883376
O O1 0.216458 0.396427 0.374548
O O2 0.189638 0.323022 0.566822
O O3 0.773396 0.458280 0.322010
O O4 0.878220 0.532329 0.355200
O O5 0.851206 0.584801 0.883551
O O6 0.984862 0.565577 0.870446
O O7 0.932246 0.659301 0.963151
O O8 0.930320 0.580664 0.136348
O O9 0.759801 0.859212 0.635446
O O10 0.600388 0.706352 0.786941
O O11 0.679176 0.711120 0.020729
O O12 0.574418 0.769178 0.013640
O O13 0.580252 0.870384 0.110177
#
# Coordination Sequence:
#
# PCOD9530391 Si02
#       8
#     8   8  16  16  16   8  16  16
#     4  12  23  39  68 108 144 182 249 305 352 428
#     4  12  24  48  76 104 140 186 236 304 380 428
#     4  10  26  48  70 100 143 188 238 299 361 435
#     4  11  24  42  72 102 140 187 238 305 362 435
#     4  10  22  39  66  97 142 189 228 288 361 421
#     4  10  19  43  62  92 140 184 225 291 356 416
#     4  11  26  49  71 104 145 187 245 305 358 442
#     4  11  24  41  64 107 144 187 239 297 350 438
#
# _framework density 23.527911
#
# number of rings (size 3 to 8) (size 9 to 14) (size 15 to 20)
#    0.000    1.231    3.077    2.308    6.462    4.923 
#    0.000    3.077    0.000    0.000    0.000    0.000 
#    0.000    0.000    0.000    0.000    0.000    0.000 
#
# Total GULP energy -290696.343210 kJ/mol
# GULP energy per Si atom -5590.314292 kJ/mol
# Density = 2.347436 g / cm^3
# Si number density = 23.527911 Si / 1000 Ang^3
#
#
#
# Elastic Constant Matrix: (Units=GPa)
#
#
# Indices 1 2 3 4 5 6 
#
# 1 137.9535 53.8052 39.4704 0.0000 0.0000 0.0000
# 2 53.8052 118.2501 22.8601 0.0000 0.0000 0.0000
# 3 39.4704 22.8601 80.6775 0.0000 0.0000 0.0000
# 4 0.0000 0.0000 0.0000 8.9949 0.0000 0.0000
# 5 0.0000 0.0000 0.0000 0.0000 31.7600 0.0000
# 6 0.0000 0.0000 0.0000 0.0000 0.0000 -13.9834
#
#
#
# Elastic Compliance Matrix: (Units=1/GPa)
#
#
# Indices 1 2 3 4 5 6 
#
# 1 0.009767 -0.003724 -0.003723 0.000000 0.000000 0.000000
# 2 -0.003724 0.010367 -0.001115 0.000000 0.000000 0.000000
# 3 -0.003723 -0.001115 0.014532 0.000000 0.000000 0.000000
# 4 0.000000 0.000000 0.000000 0.111174 0.000000 0.000000
# 5 0.000000 0.000000 0.000000 0.000000 0.031486 0.000000
# 6 0.000000 0.000000 0.000000 0.000000 0.000000 -0.071514
#
#
# Mechanical properties :
#
#
# Convention : Reuss Voigt Hill
#
# Bulk Modulus (GPa) = 57.00999 63.23916 60.12458
# Shear Modulus (GPa) = 38.82477 20.07069 29.44773
#
# Velocity S-wave (km/s) = 4.06662 2.92389 3.54165
# Velocity P-wave (km/s) = 6.80685 6.19157 6.50649
#
# Compressibility (1/GPa) = 0.01754078
#
# Stress axis : x y z
#
# Youngs Moduli (GPa) = 102.39080 96.46150 68.81144
#
# Poissons Ratio (x) = 0.35924 0.25618
# Poissons Ratio (y) = 0.38132 0.07676
# Poissons Ratio (z) = 0.38119 0.10760
#
# Static dielectric constant tensor:
#      x y z
#    x 1.901940 0.000000 0.000000 
#    y 0.000000 1.903400 0.000000 
#    z 0.000000 0.000000 1.931880 
# 
# From -- ./inp_files/6597.got.cif
#   From: 2010.05.17/outbox.cif.g08.bks.cpg/sg73_4_cif.got.tgz:6597.got - 2010.06.03 17:35:07.
