data_PCOD9530725
_publ_section_title
;
Structure prediction by ZEFSAII (Michael W. Deem and Ramdas Pophale) SiO2 
 PCOD9530725
Probable space group: I B C A 
;
_chemical_formula_sum "Si O2"
_cell_formula_units_Z 120
_cell_length_a 15.480709
_cell_length_b 13.246704
_cell_length_c 24.877208
_cell_angle_alpha 90.000000
_cell_angle_beta 90.000000
_cell_angle_gamma 90.000000
_cell_volume 5101.528491
_symmetry_space_group_name_H-M "I B C A "
_symmetry_group_IT_number 73
_symmetry_cell_setting 'orthorhombic'
loop_
_space_group_symop_operation_xyz
x,y,z
-x,1/2-y,z
x,-y,1/2-z
1/2-x,y,-z
-x,-y,-z
x,1/2+y,-z
-x,y,1/2+z
1/2+x,-y,z
1/2+x,1/2+y,1/2+z
1/2-x,-y,1/2+z
1/2+x,1/2-y,-z
-x,1/2+y,1/2-z
1/2-x,1/2-y,1/2-z
1/2+x,y,1/2-z
1/2-x,1/2+y,z
x,1/2-y,1/2+z
loop_
_atom_site_type_symbol
_atom_site_label
_atom_site_fract_x
_atom_site_fract_y
_atom_site_fract_z
Si Si1 0.541895 0.421100 0.892712
Si Si2 0.375235 0.882075 0.930581
Si Si3 0.500000 0.750000 0.855203
Si Si4 0.713795 0.477527 0.057108
Si Si5 0.161516 0.743218 0.844462
Si Si6 0.594502 0.551507 0.198238
Si Si7 0.831822 0.362988 0.839080
Si Si8 0.399860 0.659521 0.546591
O O1 0.574482 0.512567 0.927772
O O2 0.608041 0.360670 0.853829
O O3 0.468460 0.457689 0.852206
O O4 0.499080 0.346423 0.935623
O O5 0.430178 0.816191 0.888568
O O6 0.280662 0.933925 0.922570
O O7 0.377911 0.816660 0.985247
O O8 0.428490 0.677864 0.827308
O O9 0.691414 0.390589 0.099007
O O10 0.628660 0.541799 0.047193
O O11 0.750000 0.440260 0.000000
O O12 0.122312 0.830814 0.805841
O O13 0.256951 0.715485 0.824905
O O14 0.151873 0.786271 0.905427
O O15 0.551716 0.500000 0.250000
O O16 0.673456 0.473399 0.188356
#
# Coordination Sequence:
#
# PCOD9530725 Si02
#       8
#    16  16   8  16  16  16  16  16
#     4  11  21  42  68  99 130 180 224 285 346 413
#     4  11  22  37  62  98 140 184 232 277 337 412
#     4  12  26  38  64 102 138 190 234 288 360 402
#     4  10  20  38  64  93 141 190 224 279 345 411
#     4  11  24  42  76  99 134 187 234 279 350 435
#     4  11  25  49  71  99 136 172 228 303 364 416
#     4  12  24  45  68  95 140 177 231 296 349 421
#     4  10  20  37  60  95 139 179 228 272 330 407
#
# _framework density 23.522362999999999
#
# number of rings (size 3 to 8) (size 9 to 14) (size 15 to 20)
#    0.000    1.067    5.333    2.800    1.867    2.667 
#    2.400    0.667    0.000    0.000    0.000    0.000 
#    0.000    0.000    0.000    0.000    0.000    0.000 
#
# Total GULP energy -334024.886280 kJ/mol
# GULP energy per Si atom -5567.081438 kJ/mol
# Density = 2.346882 g / cm^3
# Si number density = 23.522363 Si / 1000 Ang^3
#
#
#
# Elastic Constant Matrix: (Units=GPa)
#
#
# Indices 1 2 3 4 5 6 
#
# 1 73.5721 1.7555 1.1790 0.0000 0.0000 0.0000
# 2 1.7555 72.8657 11.8747 0.0000 0.0000 0.0000
# 3 1.1790 11.8747 57.3650 0.0000 0.0000 0.0000
# 4 0.0000 0.0000 0.0000 9.5027 0.0000 0.0000
# 5 0.0000 0.0000 0.0000 0.0000 -0.7489 0.0000
# 6 0.0000 0.0000 0.0000 0.0000 0.0000 4.0569
#
#
#
# Elastic Compliance Matrix: (Units=1/GPa)
#
#
# Indices 1 2 3 4 5 6 
#
# 1 0.013603 -0.000292 -0.000219 0.000000 0.000000 0.000000
# 2 -0.000292 0.014209 -0.002935 0.000000 0.000000 0.000000
# 3 -0.000219 -0.002935 0.018044 0.000000 0.000000 0.000000
# 4 0.000000 0.000000 0.000000 0.105233 0.000000 0.000000
# 5 0.000000 0.000000 0.000000 0.000000 -1.335233 0.000000
# 6 0.000000 0.000000 0.000000 0.000000 0.000000 0.246496
#
#
# Mechanical properties :
#
#
# Convention : Reuss Voigt Hill
#
# Bulk Modulus (GPa) = 25.66521 25.93570 25.80045
# Shear Modulus (GPa) = -5.44801 15.16170 4.85685
#
# Velocity S-wave (km/s) = -1.52352 2.54158 1.43849
# Velocity P-wave (km/s) = 2.79997 4.43427 3.70828
#
# Compressibility (1/GPa) = 0.03896325
#
# Stress axis : x y z
#
# Youngs Moduli (GPa) = 73.51547 70.37655 55.41895
#
# Poissons Ratio (x) = 0.02055 0.01214
# Poissons Ratio (y) = 0.02147 0.16267
# Poissons Ratio (z) = 0.01611 0.20658
#
# Static dielectric constant tensor:
#      x y z
#    x 1.984280 0.000000 0.000000 
#    y 0.000000 1.975240 0.000000 
#    z 0.000000 0.000000 1.972270 
# 
# From -- ./inp_files/34580.got.cif
#   From: 2010.05.17/outbox.cif.g08.bks.cpg/sg73_18_cif.got.tgz:34580.got - 2010.06.03 17:35:07.
