data_PCOD9530728
_publ_section_title
;
Structure prediction by ZEFSAII (Michael W. Deem and Ramdas Pophale) SiO2 
 PCOD9530728
Probable space group: I B C A 
;
_chemical_formula_sum "Si O2"
_cell_formula_units_Z 64
_cell_length_a 9.372210
_cell_length_b 11.749117
_cell_length_c 25.510693
_cell_angle_alpha 90.000000
_cell_angle_beta 90.000000
_cell_angle_gamma 90.000000
_cell_volume 2809.114854
_symmetry_space_group_name_H-M "I B C A "
_symmetry_group_IT_number 73
_symmetry_cell_setting 'orthorhombic'
loop_
_space_group_symop_operation_xyz
x,y,z
-x,1/2-y,z
x,-y,1/2-z
1/2-x,y,-z
-x,-y,-z
x,1/2+y,-z
-x,y,1/2+z
1/2+x,-y,z
1/2+x,1/2+y,1/2+z
1/2-x,-y,1/2+z
1/2+x,1/2-y,-z
-x,1/2+y,1/2-z
1/2-x,1/2-y,1/2-z
1/2+x,y,1/2-z
1/2-x,1/2+y,z
x,1/2-y,1/2+z
loop_
_atom_site_type_symbol
_atom_site_label
_atom_site_fract_x
_atom_site_fract_y
_atom_site_fract_z
Si Si1 0.662185 0.361101 0.356857
Si Si2 0.931466 0.494303 0.310971
Si Si3 0.125548 0.667752 0.122511
Si Si4 0.627826 0.025403 0.961193
O O1 0.788484 0.453056 0.341392
O O2 0.521786 0.391366 0.323767
O O3 0.744294 0.241768 0.355515
O O4 0.609590 0.381578 0.416147
O O5 0.897399 0.500000 0.250000
O O6 0.046197 0.400080 0.330651
O O7 0.163214 0.585940 0.074024
O O8 0.000000 0.750000 0.101908
O O9 0.750000 0.062441 0.000000
O O10 0.500000 0.000000 0.000000
#
# Coordination Sequence:
#
# PCOD9530728 Si02
#       4
#    16  16  16  16
#     4  10  21  40  58  85 122 152 197 248 291 349
#     4  10  20  37  61  86 117 158 196 241 296 349
#     4   9  20  37  57  84 118 152 193 244 291 348
#     4  11  22  38  60  84 114 155 195 241 297 348
#
# _framework density 22.782978
#
# number of rings (size 3 to 8) (size 9 to 14) (size 15 to 20)
#    0.000    2.000    0.000    5.250    0.000    4.000 
#    0.000   17.500    0.000    0.000    0.000    0.000 
#    0.000    0.000    0.000    0.000    0.000    0.000 
#
# Total GULP energy -178487.546261 kJ/mol
# GULP energy per Si atom -5577.735821 kJ/mol
# Density = 2.273112 g / cm^3
# Si number density = 22.782978 Si / 1000 Ang^3
#
#
#
# Elastic Constant Matrix: (Units=GPa)
#
#
# Indices 1 2 3 4 5 6 
#
# 1 121.4678 13.9249 33.9297 0.0000 0.0000 0.0000
# 2 13.9249 48.1982 6.2942 0.0000 0.0000 0.0000
# 3 33.9297 6.2942 138.9358 0.0000 0.0000 0.0000
# 4 0.0000 0.0000 0.0000 3.9875 0.0000 0.0000
# 5 0.0000 0.0000 0.0000 0.0000 29.5034 0.0000
# 6 0.0000 0.0000 0.0000 0.0000 0.0000 41.2803
#
#
#
# Elastic Compliance Matrix: (Units=1/GPa)
#
#
# Indices 1 2 3 4 5 6 
#
# 1 0.009093 -0.002351 -0.002114 0.000000 0.000000 0.000000
# 2 -0.002351 0.021479 -0.000399 0.000000 0.000000 0.000000
# 3 -0.002114 -0.000399 0.007732 0.000000 0.000000 0.000000
# 4 0.000000 0.000000 0.000000 0.250784 0.000000 0.000000
# 5 0.000000 0.000000 0.000000 0.000000 0.033894 0.000000
# 6 0.000000 0.000000 0.000000 0.000000 0.000000 0.024225
#
#
# Mechanical properties :
#
#
# Convention : Reuss Voigt Hill
#
# Bulk Modulus (GPa) = 34.99464 46.32216 40.65840
# Shear Modulus (GPa) = 13.64406 31.91777 22.78092
#
# Velocity S-wave (km/s) = 2.44984 3.74698 3.16557
# Velocity P-wave (km/s) = 4.83690 6.25267 5.58979
#
# Compressibility (1/GPa) = 0.02857580
#
# Stress axis : x y z
#
# Youngs Moduli (GPa) = 109.97893 46.55719 129.33414
#
# Poissons Ratio (x) = 0.10945 0.27342
# Poissons Ratio (y) = 0.25855 0.05160
# Poissons Ratio (z) = 0.23250 0.01857
#
# Static dielectric constant tensor:
#      x y z
#    x 1.815460 0.000000 0.000000 
#    y 0.000000 1.988950 0.000000 
#    z 0.000000 0.000000 1.765100 
# 
# From -- ./inp_files/6849.got.cif
#   From: 2010.05.17/outbox.cif.g08.bks.cpg/sg73_4_cif.got.tgz:6849.got - 2010.06.03 17:35:07.
