data_PCOD9530379
_publ_section_title
;
Structure prediction by ZEFSAII (Michael W. Deem and Ramdas Pophale) SiO2 
 PCOD9530379
Probable space group: I B C A 
;
_chemical_formula_sum "Si O2"
_cell_formula_units_Z 80
_cell_length_a 9.706498
_cell_length_b 16.248178
_cell_length_c 19.116397
_cell_angle_alpha 90.000000
_cell_angle_beta 90.000000
_cell_angle_gamma 90.000000
_cell_volume 3014.902547
_symmetry_space_group_name_H-M "I B C A "
_symmetry_group_IT_number 73
_symmetry_cell_setting 'orthorhombic'
loop_
_space_group_symop_operation_xyz
x,y,z
-x,1/2-y,z
x,-y,1/2-z
1/2-x,y,-z
-x,-y,-z
x,1/2+y,-z
-x,y,1/2+z
1/2+x,-y,z
1/2+x,1/2+y,1/2+z
1/2-x,-y,1/2+z
1/2+x,1/2-y,-z
-x,1/2+y,1/2-z
1/2-x,1/2-y,1/2-z
1/2+x,y,1/2-z
1/2-x,1/2+y,z
x,1/2-y,1/2+z
loop_
_atom_site_type_symbol
_atom_site_label
_atom_site_fract_x
_atom_site_fract_y
_atom_site_fract_z
Si Si1 0.601713 0.129892 0.645216
Si Si2 0.495889 0.850156 0.162281
Si Si3 0.532085 0.904799 0.007178
Si Si4 0.250000 0.690608 0.500000
Si Si5 0.706717 0.205705 0.151946
Si Si6 0.528060 0.500000 0.250000
O O1 0.621684 0.116173 0.561682
O O2 0.443372 0.164224 0.651767
O O3 0.690005 0.202348 0.683238
O O4 0.608310 0.044811 0.686700
O O5 0.500000 0.750000 0.174406
O O6 0.558392 0.875826 0.086923
O O7 0.328426 0.857820 0.167155
O O8 0.548544 0.921039 0.214857
O O9 0.386706 0.861291 0.995607
O O10 0.500000 0.000000 0.000000
O O11 0.249083 0.733833 0.573431
#
# Coordination Sequence:
#
# PCOD9530379 Si02
#       6
#    16  16  16   8  16   8
#     4  10  22  42  69  98 133 177 229 279 345 407
#     4  11  26  46  67 102 142 179 236 287 347 414
#     4  10  19  41  64  96 131 168 220 284 339 399
#     4   8  18  34  64  94 128 156 218 274 336 398
#     4   9  21  42  69  95 129 180 222 286 341 403
#     4  12  26  46  64 100 146 188 232 276 344 424
#
# _framework density 26.534853999999999
#
# number of rings (size 3 to 8) (size 9 to 14) (size 15 to 20)
#    0.000    2.000    2.000    0.000   11.200    1.600 
#    7.200    0.000    0.000    0.000    0.000    0.000 
#    0.000    0.000    0.000    0.000    0.000    0.000 
#
# Total GULP energy -222956.264513 kJ/mol
# GULP energy per Si atom -5573.906613 kJ/mol
# Density = 2.647446 g / cm^3
# Si number density = 26.534854 Si / 1000 Ang^3
#
#
#
# Elastic Constant Matrix: (Units=GPa)
#
#
# Indices 1 2 3 4 5 6 
#
# 1 70.3775 29.9106 7.6715 0.0000 0.0000 0.0000
# 2 29.9106 208.6356 70.7725 0.0000 0.0000 0.0000
# 3 7.6715 70.7725 190.5949 0.0000 0.0000 0.0000
# 4 0.0000 0.0000 0.0000 45.1144 0.0000 0.0000
# 5 0.0000 0.0000 0.0000 0.0000 -4.5275 0.0000
# 6 0.0000 0.0000 0.0000 0.0000 0.0000 57.9955
#
#
#
# Elastic Compliance Matrix: (Units=1/GPa)
#
#
# Indices 1 2 3 4 5 6 
#
# 1 0.015139 -0.002247 0.000225 0.000000 0.000000 0.000000
# 2 -0.002247 0.005817 -0.002070 0.000000 0.000000 0.000000
# 3 0.000225 -0.002070 0.006006 0.000000 0.000000 0.000000
# 4 0.000000 0.000000 0.000000 0.022166 0.000000 0.000000
# 5 0.000000 0.000000 0.000000 0.000000 -0.220871 0.000000
# 6 0.000000 0.000000 0.000000 0.000000 0.000000 0.017243
#
#
# Mechanical properties :
#
#
# Convention : Reuss Voigt Hill
#
# Bulk Modulus (GPa) = 53.24848 76.25748 64.75298
# Shear Modulus (GPa) = -35.69970 43.80004 4.05017
#
# Velocity S-wave (km/s) = -3.67193 4.06724 1.23680
# Velocity P-wave (km/s) = 1.46064 7.13145 5.14738
#
# Compressibility (1/GPa) = 0.01877988
#
# Stress axis : x y z
#
# Youngs Moduli (GPa) = 66.05272 171.90426 166.49513
#
# Poissons Ratio (x) = 0.38622 -0.03744
# Poissons Ratio (y) = 0.14840 0.34458
# Poissons Ratio (z) = -0.01485 0.35578
#
# Static dielectric constant tensor:
#      x y z
#    x 2.099600 0.000000 0.000000 
#    y 0.000000 2.001340 0.000000 
#    z 0.000000 0.000000 2.206800 
# 
# From -- ./inp_files/25326.got.cif
#   From: 2010.05.17/outbox.cif.g08.bks.cpg/sg73_13_cif.got.tgz:25326.got - 2010.06.03 17:35:07.
