data_PCOD9530783
_publ_section_title
;
Structure prediction by ZEFSAII (Michael W. Deem and Ramdas Pophale) SiO2 
 PCOD9530783
Probable space group: I B C A 
;
_chemical_formula_sum "Si O2"
_cell_formula_units_Z 96
_cell_length_a 22.202407
_cell_length_b 7.974460
_cell_length_c 24.185239
_cell_angle_alpha 90.000000
_cell_angle_beta 90.000000
_cell_angle_gamma 90.000000
_cell_volume 4282.049930
_symmetry_space_group_name_H-M "I B C A "
_symmetry_group_IT_number 73
_symmetry_cell_setting 'orthorhombic'
loop_
_space_group_symop_operation_xyz
x,y,z
-x,1/2-y,z
x,-y,1/2-z
1/2-x,y,-z
-x,-y,-z
x,1/2+y,-z
-x,y,1/2+z
1/2+x,-y,z
1/2+x,1/2+y,1/2+z
1/2-x,-y,1/2+z
1/2+x,1/2-y,-z
-x,1/2+y,1/2-z
1/2-x,1/2-y,1/2-z
1/2+x,y,1/2-z
1/2-x,1/2+y,z
x,1/2-y,1/2+z
loop_
_atom_site_type_symbol
_atom_site_label
_atom_site_fract_x
_atom_site_fract_y
_atom_site_fract_z
Si Si1 0.294018 0.039598 0.571664
Si Si2 0.365539 0.168088 0.664746
Si Si3 0.892204 0.552932 0.865040
Si Si4 0.667679 0.828360 0.537104
Si Si5 0.816672 0.691576 0.769394
Si Si6 0.513848 0.449586 0.686406
O O1 0.315681 0.856515 0.556039
O O2 0.308308 0.089120 0.634248
O O3 0.330772 0.157787 0.528899
O O4 0.224106 0.059419 0.557942
O O5 0.373079 0.357401 0.641795
O O6 0.358235 0.194756 0.730165
O O7 0.422233 0.046659 0.655348
O O8 0.888825 0.606550 0.928689
O O9 0.845683 0.672459 0.830360
O O10 0.959063 0.553710 0.839749
O O11 0.821428 0.500000 0.750000
O O12 0.750000 0.750000 0.750000
O O13 0.500000 0.250000 0.684431
O O14 0.518166 0.500000 0.750000
#
# Coordination Sequence:
#
# PCOD9530783 Si02
#       6
#    16  16  16  16  16  16
#     4  11  22  38  60  87 115 152 192 240 297 355
#     4  10  21  37  57  85 118 154 197 242 293 352
#     4  10  20  38  58  83 116 155 197 242 292 351
#     4  11  22  38  61  86 116 151 191 240 295 356
#     4  10  21  35  55  84 120 154 190 241 300 355
#     4  10  21  38  60  83 116 158 199 243 293 349
#
# _framework density 22.419167999999999
#
# number of rings (size 3 to 8) (size 9 to 14) (size 15 to 20)
#    0.000    1.667    0.000    7.500    0.000    7.333 
#    0.000    0.833    0.000    0.000    0.000    0.000 
#    0.000    0.000    0.000    0.000    0.000    0.000 
#
# Total GULP energy -268100.065340 kJ/mol
# GULP energy per Si atom -5585.418028 kJ/mol
# Density = 2.236814 g / cm^3
# Si number density = 22.419168 Si / 1000 Ang^3
#
#
#
# Elastic Constant Matrix: (Units=GPa)
#
#
# Indices 1 2 3 4 5 6 
#
# 1 85.2582 14.9181 20.3686 0.0000 0.0000 0.0000
# 2 14.9181 74.7327 15.0849 0.0000 0.0000 0.0000
# 3 20.3686 15.0849 79.8910 0.0000 0.0000 0.0000
# 4 0.0000 0.0000 0.0000 29.4386 0.0000 0.0000
# 5 0.0000 0.0000 0.0000 0.0000 21.6241 0.0000
# 6 0.0000 0.0000 0.0000 0.0000 0.0000 31.0417
#
#
#
# Elastic Compliance Matrix: (Units=1/GPa)
#
#
# Indices 1 2 3 4 5 6 
#
# 1 0.012762 -0.001966 -0.002882 0.000000 0.000000 0.000000
# 2 -0.001966 0.014214 -0.002183 0.000000 0.000000 0.000000
# 3 -0.002882 -0.002183 0.013664 0.000000 0.000000 0.000000
# 4 0.000000 0.000000 0.000000 0.033969 0.000000 0.000000
# 5 0.000000 0.000000 0.000000 0.000000 0.046245 0.000000
# 6 0.000000 0.000000 0.000000 0.000000 0.000000 0.032215
#
#
# Mechanical properties :
#
#
# Convention : Reuss Voigt Hill
#
# Bulk Modulus (GPa) = 37.62504 37.84722 37.73613
# Shear Modulus (GPa) = 28.41081 29.05489 28.73285
#
# Velocity S-wave (km/s) = 3.56371 3.60388 3.58386
# Velocity P-wave (km/s) = 5.80968 5.85112 5.83044
#
# Compressibility (1/GPa) = 0.02657805
#
# Stress axis : x y z
#
# Youngs Moduli (GPa) = 78.35977 70.35321 73.18451
#
# Poissons Ratio (x) = 0.13829 0.21095
# Poissons Ratio (y) = 0.15403 0.15974
# Poissons Ratio (z) = 0.22587 0.15356
#
# Static dielectric constant tensor:
#      x y z
#    x 1.931580 0.000000 0.000000 
#    y 0.000000 1.827160 0.000000 
#    z 0.000000 0.000000 1.817050 
# 
# From -- ./inp_files/30303.got.cif
#   From: 2010.05.17/outbox.cif.g08.bks.cpg/sg73_16_cif.got.tgz:30303.got - 2010.06.03 17:35:07.
