data_PCOD9530197
_publ_section_title
;
Structure prediction by ZEFSAII (Michael W. Deem and Ramdas Pophale) SiO2 
 PCOD9530197
Probable space group: I B C A 
;
_chemical_formula_sum "Si O2"
_cell_formula_units_Z 80
_cell_length_a 32.333857
_cell_length_b 5.485301
_cell_length_c 18.742820
_cell_angle_alpha 90.000000
_cell_angle_beta 90.000000
_cell_angle_gamma 90.000000
_cell_volume 3324.244139
_symmetry_space_group_name_H-M "I B C A "
_symmetry_group_IT_number 73
_symmetry_cell_setting 'orthorhombic'
loop_
_space_group_symop_operation_xyz
x,y,z
-x,1/2-y,z
x,-y,1/2-z
1/2-x,y,-z
-x,-y,-z
x,1/2+y,-z
-x,y,1/2+z
1/2+x,-y,z
1/2+x,1/2+y,1/2+z
1/2-x,-y,1/2+z
1/2+x,1/2-y,-z
-x,1/2+y,1/2-z
1/2-x,1/2-y,1/2-z
1/2+x,y,1/2-z
1/2-x,1/2+y,z
x,1/2-y,1/2+z
loop_
_atom_site_type_symbol
_atom_site_label
_atom_site_fract_x
_atom_site_fract_y
_atom_site_fract_z
Si Si1 0.475849 0.000912 0.836065
Si Si2 0.764345 0.818829 0.169700
Si Si3 0.824459 0.583492 0.004048
Si Si4 0.854065 0.054428 0.152799
Si Si5 0.383726 0.558850 0.359174
O O1 0.500000 0.750000 0.853524
O O2 0.500000 0.250000 0.853216
O O3 0.468839 0.000000 0.750000
O O4 0.431035 0.007396 0.872487
O O5 0.750000 0.750000 0.250000
O O6 0.763182 0.542631 0.137886
O O7 0.809266 0.942124 0.170686
O O8 0.854767 0.586186 0.071389
O O9 0.800072 0.833845 0.002439
O O10 0.852724 0.589364 0.932782
O O11 0.884200 0.833224 0.172717
O O12 0.863727 0.324821 0.181102
#
# Coordination Sequence:
#
# PCOD9530197 Si02
#       5
#    16  16  16  16  16
#     4  10  21  38  57  81 120 155 186 233 293 347
#     4  10  21  38  55  78 117 156 182 236 295 348
#     4   8  16  30  54  78 107 139 184 238 279 323
#     4  10  19  35  59  82 112 151 190 240 290 333
#     4  10  19  35  59  87 109 148 199 239 280 342
#
# _framework density 24.065619999999999
#
# number of rings (size 3 to 8) (size 9 to 14) (size 15 to 20)
#    0.000    2.400    0.000    2.400    0.000    0.000 
#   10.800    0.000    0.000   64.800    0.000    0.000 
#    0.000    0.000    0.000    0.000    0.000    0.000 
#
# Total GULP energy -223078.051683 kJ/mol
# GULP energy per Si atom -5576.951292 kJ/mol
# Density = 2.401085 g / cm^3
# Si number density = 24.065620 Si / 1000 Ang^3
#
#
#
# Elastic Constant Matrix: (Units=GPa)
#
#
# Indices 1 2 3 4 5 6 
#
# 1 127.0093 42.6599 -2.0515 0.0000 0.0000 0.0000
# 2 42.6599 292.4009 8.8975 0.0000 0.0000 0.0000
# 3 -2.0515 8.8975 74.7839 0.0000 0.0000 0.0000
# 4 0.0000 0.0000 0.0000 22.0491 0.0000 0.0000
# 5 0.0000 0.0000 0.0000 0.0000 17.1051 0.0000
# 6 0.0000 0.0000 0.0000 0.0000 0.0000 44.2864
#
#
#
# Elastic Compliance Matrix: (Units=1/GPa)
#
#
# Indices 1 2 3 4 5 6 
#
# 1 0.008289 -0.001221 0.000373 0.000000 0.000000 0.000000
# 2 -0.001221 0.003612 -0.000463 0.000000 0.000000 0.000000
# 3 0.000373 -0.000463 0.013437 0.000000 0.000000 0.000000
# 4 0.000000 0.000000 0.000000 0.045353 0.000000 0.000000
# 5 0.000000 0.000000 0.000000 0.000000 0.058462 0.000000
# 6 0.000000 0.000000 0.000000 0.000000 0.000000 0.022580
#
#
# Mechanical properties :
#
#
# Convention : Reuss Voigt Hill
#
# Bulk Modulus (GPa) = 44.02157 65.91178 54.96668
# Shear Modulus (GPa) = 30.87767 46.33401 38.60584
#
# Velocity S-wave (km/s) = 3.58587 4.39261 4.00958
# Velocity P-wave (km/s) = 5.95623 7.29208 6.65774
#
# Compressibility (1/GPa) = 0.02271614
#
# Stress axis : x y z
#
# Youngs Moduli (GPa) = 120.63482 276.84289 74.42029
#
# Poissons Ratio (x) = 0.33795 -0.02773
# Poissons Ratio (y) = 0.14726 0.03448
# Poissons Ratio (z) = -0.04495 0.12825
#
# Static dielectric constant tensor:
#      x y z
#    x 1.879560 0.000000 0.000000 
#    y 0.000000 2.130580 0.000000 
#    z 0.000000 0.000000 2.017570 
# 
# From -- ./inp_files/3074.got.cif
#   From: 2010.05.17/outbox.cif.g08.bks.cpg/sg73_2_cif.got.tgz:3074.got - 2010.06.03 17:35:07.
