data_PCOD9530811
_publ_section_title
;
Structure prediction by ZEFSAII (Michael W. Deem and Ramdas Pophale) SiO2 
 PCOD9530811
Probable space group: I B C A 
;
_chemical_formula_sum "Si O2"
_cell_formula_units_Z 104
_cell_length_a 13.604069
_cell_length_b 21.905211
_cell_length_c 13.283670
_cell_angle_alpha 90.000000
_cell_angle_beta 90.000000
_cell_angle_gamma 90.000000
_cell_volume 3958.533685
_symmetry_space_group_name_H-M "I B C A "
_symmetry_group_IT_number 73
_symmetry_cell_setting 'orthorhombic'
loop_
_space_group_symop_operation_xyz
x,y,z
-x,1/2-y,z
x,-y,1/2-z
1/2-x,y,-z
-x,-y,-z
x,1/2+y,-z
-x,y,1/2+z
1/2+x,-y,z
1/2+x,1/2+y,1/2+z
1/2-x,-y,1/2+z
1/2+x,1/2-y,-z
-x,1/2+y,1/2-z
1/2-x,1/2-y,1/2-z
1/2+x,y,1/2-z
1/2-x,1/2+y,z
x,1/2-y,1/2+z
loop_
_atom_site_type_symbol
_atom_site_label
_atom_site_fract_x
_atom_site_fract_y
_atom_site_fract_z
Si Si1 0.849412 0.229801 0.803582
Si Si2 0.744599 0.955869 0.616176
Si Si3 0.828742 0.090071 0.611844
Si Si4 0.500000 0.250000 0.367352
Si Si5 0.429322 0.105796 0.629326
Si Si6 0.046886 0.890931 0.898715
Si Si7 0.861253 0.643350 0.614412
O O1 0.750000 0.250000 0.750000
O O2 0.918584 0.224553 0.707287
O O3 0.869345 0.169199 0.865962
O O4 0.880378 0.284842 0.877814
O O5 0.750000 0.934573 0.500000
O O6 0.844516 0.937120 0.672671
O O7 0.642778 0.924342 0.650269
O O8 0.763067 0.028310 0.611536
O O9 0.849453 0.119055 0.499618
O O10 0.746668 0.133476 0.661304
O O11 0.942031 0.087282 0.646446
O O12 0.543755 0.315673 0.408564
O O13 0.448437 0.085575 0.514120
O O14 0.541525 0.114698 0.664994
#
# Coordination Sequence:
#
# PCOD9530811 Si02
#       7
#    16  16  16   8  16  16  16
#     4  12  24  42  66  94 137 180 221 279 347 423
#     4  10  20  38  61 100 128 170 215 286 340 384
#     4  10  21  37  67 100 130 170 223 283 335 400
#     4  12  24  42  64  98 138 180 226 276 356 410
#     4  10  22  39  66  95 130 172 223 280 341 401
#     4  10  24  38  65 103 135 171 232 289 333 414
#     4  10  20  38  62  95 128 171 220 266 342 405
#
# _framework density 26.272354
#
# number of rings (size 3 to 8) (size 9 to 14) (size 15 to 20)
#    0.000    1.538    3.077    1.846    6.462    1.846 
#    5.538    0.000    0.000   10.154    0.000    0.000 
#    0.000    0.000    0.000    0.000    0.000    0.000 
#
# Total GULP energy -289640.334665 kJ/mol
# GULP energy per Si atom -5570.006436 kJ/mol
# Density = 2.621256 g / cm^3
# Si number density = 26.272354 Si / 1000 Ang^3
#
#
#
# Elastic Constant Matrix: (Units=GPa)
#
#
# Indices 1 2 3 4 5 6 
#
# 1 206.2556 57.8887 39.5873 0.0000 0.0000 0.0000
# 2 57.8887 103.0413 23.7389 0.0000 0.0000 0.0000
# 3 39.5873 23.7389 60.4705 0.0003 0.0002 0.0000
# 4 0.0000 0.0000 0.0003 20.7512 0.0001 0.0000
# 5 0.0000 0.0000 0.0002 0.0001 34.8301 0.0000
# 6 0.0000 0.0000 0.0000 0.0000 0.0000 39.0127
#
#
#
# Elastic Compliance Matrix: (Units=1/GPa)
#
#
# Indices 1 2 3 4 5 6 
#
# 1 0.006203 -0.002803 -0.002961 0.000000 0.000000 0.000000
# 2 -0.002803 0.011936 -0.002851 0.000000 0.000000 0.000000
# 3 -0.002961 -0.002851 0.019594 0.000000 0.000000 0.000000
# 4 0.000000 0.000000 0.000000 0.048190 0.000000 0.000000
# 5 0.000000 0.000000 0.000000 0.000000 0.028711 0.000000
# 6 0.000000 0.000000 0.000000 0.000000 0.000000 0.025633
#
#
# Mechanical properties :
#
#
# Convention : Reuss Voigt Hill
#
# Bulk Modulus (GPa) = 48.76855 68.02190 58.39522
# Shear Modulus (GPa) = 30.42632 35.48897 32.95764
#
# Velocity S-wave (km/s) = 3.40680 3.67932 3.54568
# Velocity P-wave (km/s) = 5.83764 6.63304 6.24801
#
# Compressibility (1/GPa) = 0.02050502
#
# Stress axis : x y z
#
# Youngs Moduli (GPa) = 161.20483 83.77786 51.03512
#
# Poissons Ratio (x) = 0.23482 0.15110
# Poissons Ratio (y) = 0.45185 0.14550
# Poissons Ratio (z) = 0.47727 0.23884
#
# Static dielectric constant tensor:
#      x y z
#    x 1.973550 0.000000 0.000000 
#    y 0.000000 2.105600 0.000000 
#    z 0.000000 0.000000 2.175680 
# 
# From -- ./inp_files/22069.got.cif
#   From: 2010.05.17/outbox.cif.g08.bks.cpg/sg73_12_cif.got.tgz:22069.got - 2010.06.03 17:35:07.
