data_PCOD9530120
_publ_section_title
;
Structure prediction by ZEFSAII (Michael W. Deem and Ramdas Pophale) SiO2 
 PCOD9530120
Probable space group: I B C A 
;
_chemical_formula_sum "Si O2"
_cell_formula_units_Z 104
_cell_length_a 15.722300
_cell_length_b 20.237794
_cell_length_c 18.550661
_cell_angle_alpha 90.000000
_cell_angle_beta 90.000000
_cell_angle_gamma 90.000000
_cell_volume 5902.535923
_symmetry_space_group_name_H-M "I B C A "
_symmetry_group_IT_number 73
_symmetry_cell_setting 'orthorhombic'
loop_
_space_group_symop_operation_xyz
x,y,z
-x,1/2-y,z
x,-y,1/2-z
1/2-x,y,-z
-x,-y,-z
x,1/2+y,-z
-x,y,1/2+z
1/2+x,-y,z
1/2+x,1/2+y,1/2+z
1/2-x,-y,1/2+z
1/2+x,1/2-y,-z
-x,1/2+y,1/2-z
1/2-x,1/2-y,1/2-z
1/2+x,y,1/2-z
1/2-x,1/2+y,z
x,1/2-y,1/2+z
loop_
_atom_site_type_symbol
_atom_site_label
_atom_site_fract_x
_atom_site_fract_y
_atom_site_fract_z
Si Si1 0.159268 0.161143 0.848468
Si Si2 0.159839 0.682923 0.675246
Si Si3 0.341686 0.877815 0.669880
Si Si4 0.262416 0.000000 0.750000
Si Si5 0.335017 0.886259 0.185308
Si Si6 0.491171 0.330366 0.905644
Si Si7 0.491552 0.329650 0.073920
O O1 0.160099 0.239859 0.840369
O O2 0.253882 0.139856 0.870473
O O3 0.145865 0.133262 0.768153
O O4 0.081238 0.141543 0.899039
O O5 0.146514 0.669776 0.760220
O O6 0.252509 0.654107 0.658844
O O7 0.085398 0.651057 0.627052
O O8 0.321695 0.948433 0.706940
O O9 0.422399 0.865668 0.620417
O O10 0.201136 0.960610 0.805564
O O11 0.414616 0.863908 0.138545
O O12 0.500000 0.250000 0.894209
O O13 0.475966 0.342609 0.990260
O O14 0.500000 0.250000 0.080342
#
# Coordination Sequence:
#
# PCOD9530120 Si02
#       7
#    16  16  16   8  16  16  16
#     4   9  16  30  51  76 101 136 171 217 264 304
#     4   9  16  30  51  76 101 136 171 217 264 304
#     4  10  19  33  56  74 104 132 179 223 250 311
#     4   8  20  38  54  78  96 142 184 218 264 280
#     4  10  19  33  56  74 104 132 179 223 250 311
#     4  11  21  32  51  85 112 138 166 209 266 317
#     4   9  19  31  47  76 116 140 163 201 266 329
#
# _framework density 17.619544999999999
#
# number of rings (size 3 to 8) (size 9 to 14) (size 15 to 20)
#    0.000    2.769    0.000    4.615    0.000    3.077 
#    0.000    6.154    0.000   22.154    0.000    0.000 
#    0.000    0.000    0.000    0.000    0.000    0.000 
#
# Total GULP energy -289584.802798 kJ/mol
# GULP energy per Si atom -5568.938515 kJ/mol
# Density = 1.757944 g / cm^3
# Si number density = 17.619545 Si / 1000 Ang^3
#
#
#
# Elastic Constant Matrix: (Units=GPa)
#
#
# Indices 1 2 3 4 5 6 
#
# 1 61.6284 -25.6950 36.2447 0.0000 0.0000 0.0000
# 2 -25.6950 35.2886 -12.0094 0.0000 0.0000 0.0000
# 3 36.2447 -12.0094 35.5849 0.0000 0.0000 0.0000
# 4 0.0000 0.0000 0.0000 1.8112 0.0000 0.0000
# 5 0.0000 0.0000 0.0000 0.0000 -22.1635 0.0000
# 6 0.0000 0.0000 0.0000 0.0000 0.0000 -0.7128
#
#
#
# Elastic Compliance Matrix: (Units=1/GPa)
#
#
# Indices 1 2 3 4 5 6 
#
# 1 0.052885 0.022794 -0.046173 0.000001 0.000000 0.000000
# 2 0.022794 0.041839 -0.009096 0.000000 0.000000 0.000000
# 3 -0.046173 -0.009096 0.072060 -0.000001 0.000000 0.000000
# 4 0.000001 0.000000 -0.000001 0.552106 0.000000 -0.000001
# 5 0.000000 0.000000 0.000000 0.000000 -0.045119 0.000001
# 6 0.000000 0.000000 0.000000 -0.000001 0.000001 -1.402853
#
#
# Mechanical properties :
#
#
# Convention : Reuss Voigt Hill
#
# Bulk Modulus (GPa) = 9.81985 14.39804 12.10894
# Shear Modulus (GPa) = -7.93415 4.71776 -1.60819
#
# Velocity S-wave (km/s) = -2.12434 1.63810 -0.95641
# Velocity P-wave (km/s) = 0.65705 3.43034 2.38070
#
# Compressibility (1/GPa) = 0.10183458
#
# Stress axis : x y z
#
# Youngs Moduli (GPa) = 18.90906 23.90097 13.87723
#
# Poissons Ratio (x) = -0.54480 0.64075
# Poissons Ratio (y) = -0.43101 0.12623
# Poissons Ratio (z) = 0.87308 0.21741
#
# Static dielectric constant tensor:
#      x y z
#    x 1.624890 0.000000 0.000000 
#    y 0.000000 1.677570 0.000000 
#    z 0.000000 0.000000 1.588080 
# 
# From -- ./inp_files/26192.got.cif
#   From: 2010.05.17/outbox.cif.g08.bks.cpg/sg73_14_cif.got.tgz:26192.got - 2010.06.03 17:35:07.
