data_PCOD9530597
_publ_section_title
;
Structure prediction by ZEFSAII (Michael W. Deem and Ramdas Pophale) SiO2 
 PCOD9530597
Probable space group: I B C A 
;
_chemical_formula_sum "Si O2"
_cell_formula_units_Z 80
_cell_length_a 15.913860
_cell_length_b 25.544593
_cell_length_c 9.027486
_cell_angle_alpha 90.000000
_cell_angle_beta 90.000000
_cell_angle_gamma 90.000000
_cell_volume 3669.791109
_symmetry_space_group_name_H-M "I B C A "
_symmetry_group_IT_number 73
_symmetry_cell_setting 'orthorhombic'
loop_
_space_group_symop_operation_xyz
x,y,z
-x,1/2-y,z
x,-y,1/2-z
1/2-x,y,-z
-x,-y,-z
x,1/2+y,-z
-x,y,1/2+z
1/2+x,-y,z
1/2+x,1/2+y,1/2+z
1/2-x,-y,1/2+z
1/2+x,1/2-y,-z
-x,1/2+y,1/2-z
1/2-x,1/2-y,1/2-z
1/2+x,y,1/2-z
1/2-x,1/2+y,z
x,1/2-y,1/2+z
loop_
_atom_site_type_symbol
_atom_site_label
_atom_site_fract_x
_atom_site_fract_y
_atom_site_fract_z
Si Si1 0.172708 0.899400 0.116059
Si Si2 0.615569 0.925525 0.859245
Si Si3 0.483972 0.558986 0.562392
Si Si4 0.750000 0.756854 0.500000
Si Si5 0.248778 0.500000 0.250000
Si Si6 0.285450 0.324279 0.748816
O O1 0.192241 0.848972 0.218510
O O2 0.193048 0.953228 0.199081
O O3 0.250000 0.896985 0.000000
O O4 0.087104 0.909364 0.029114
O O5 0.546661 0.939261 0.731467
O O6 0.682878 0.972955 0.864498
O O7 0.661130 0.874093 0.799152
O O8 0.572327 0.915626 0.016295
O O9 0.500000 0.500000 0.500000
O O10 0.710054 0.718529 0.379395
O O11 0.808915 0.794547 0.400993
#
# Coordination Sequence:
#
# PCOD9530597 Si02
#       6
#    16  16  16   8   8  16
#     4  11  20  38  61  88 125 164 207 254 307 357
#     4  11  22  40  56  90 129 162 208 244 312 363
#     4  12  22  37  59  86 132 177 197 242 298 376
#     4  10  20  40  72  92 112 150 218 262 336 358
#     4  10  20  36  56  86 120 162 210 252 280 376
#     4  10  21  41  66  93 118 157 204 273 309 377
#
# _framework density 21.799606000000001
#
# number of rings (size 3 to 8) (size 9 to 14) (size 15 to 20)
#    0.000    1.200    7.000    0.000    2.800    1.600 
#   10.800    0.000    0.000   20.400    0.000    0.000 
#    0.000    0.000    0.000    0.000    0.000    0.000 
#
# Total GULP energy -223157.085759 kJ/mol
# GULP energy per Si atom -5578.927144 kJ/mol
# Density = 2.174999 g / cm^3
# Si number density = 21.799606 Si / 1000 Ang^3
#
#
#
# Elastic Constant Matrix: (Units=GPa)
#
#
# Indices 1 2 3 4 5 6 
#
# 1 50.6692 11.0691 23.4358 0.0000 0.0000 0.0000
# 2 11.0691 114.0265 29.9504 0.0000 0.0000 0.0000
# 3 23.4358 29.9504 82.9290 0.0012 0.0001 -0.0002
# 4 0.0000 0.0000 0.0012 40.1776 0.0000 -0.0001
# 5 0.0000 0.0000 0.0001 0.0000 35.9246 0.0001
# 6 0.0000 0.0000 -0.0002 -0.0001 0.0001 12.4269
#
#
#
# Elastic Compliance Matrix: (Units=1/GPa)
#
#
# Indices 1 2 3 4 5 6 
#
# 1 0.022737 -0.000574 -0.006218 0.000000 0.000000 0.000000
# 2 -0.000574 0.009703 -0.003342 0.000000 0.000000 0.000000
# 3 -0.006218 -0.003342 0.015023 0.000000 0.000000 0.000000
# 4 0.000000 0.000000 0.000000 0.024889 0.000000 0.000000
# 5 0.000000 0.000000 0.000000 0.000000 0.027836 0.000000
# 6 0.000000 0.000000 0.000000 0.000000 0.000000 0.080471
#
#
# Mechanical properties :
#
#
# Convention : Reuss Voigt Hill
#
# Bulk Modulus (GPa) = 36.77185 41.83723 39.30454
# Shear Modulus (GPa) = 23.81020 29.91711 26.86366
#
# Velocity S-wave (km/s) = 3.30848 3.70857 3.51422
# Velocity P-wave (km/s) = 5.61244 6.12955 5.87668
#
# Compressibility (1/GPa) = 0.02719471
#
# Stress axis : x y z
#
# Youngs Moduli (GPa) = 43.98049 103.05562 66.56509
#
# Poissons Ratio (x) = 0.05914 0.41392
# Poissons Ratio (y) = 0.02524 0.22248
# Poissons Ratio (z) = 0.27348 0.34444
#
# Static dielectric constant tensor:
#      x y z
#    x 1.818550 0.000000 0.000000 
#    y 0.000000 1.838510 0.000000 
#    z 0.000000 0.000000 1.921180 
# 
# From -- ./inp_files/5695.got.cif
#   From: 2010.05.17/outbox.cif.g08.bks.cpg/sg73_3_cif.got.tgz:5695.got - 2010.06.03 17:35:07.
