data_PCOD9530733
_publ_section_title
;
Structure prediction by ZEFSAII (Michael W. Deem and Ramdas Pophale) SiO2 
 PCOD9530733
Probable space group: I B C A 
;
_chemical_formula_sum "Si O2"
_cell_formula_units_Z 120
_cell_length_a 13.794700
_cell_length_b 16.760780
_cell_length_c 25.250641
_cell_angle_alpha 90.000000
_cell_angle_beta 90.000000
_cell_angle_gamma 90.000000
_cell_volume 5838.198985
_symmetry_space_group_name_H-M "I B C A "
_symmetry_group_IT_number 73
_symmetry_cell_setting 'orthorhombic'
loop_
_space_group_symop_operation_xyz
x,y,z
-x,1/2-y,z
x,-y,1/2-z
1/2-x,y,-z
-x,-y,-z
x,1/2+y,-z
-x,y,1/2+z
1/2+x,-y,z
1/2+x,1/2+y,1/2+z
1/2-x,-y,1/2+z
1/2+x,1/2-y,-z
-x,1/2+y,1/2-z
1/2-x,1/2-y,1/2-z
1/2+x,y,1/2-z
1/2-x,1/2+y,z
x,1/2-y,1/2+z
loop_
_atom_site_type_symbol
_atom_site_label
_atom_site_fract_x
_atom_site_fract_y
_atom_site_fract_z
Si Si1 0.038669 0.964791 0.694863
Si Si2 0.596814 0.792710 0.059657
Si Si3 0.888941 0.594507 0.345097
Si Si4 0.699033 0.481999 0.108399
Si Si5 0.250000 0.604302 0.000000
Si Si6 0.713974 0.335936 0.372795
Si Si7 0.115252 0.747370 0.782642
Si Si8 0.581012 0.806812 0.329079
O O1 0.972739 0.884336 0.696306
O O2 0.082435 0.000000 0.750000
O O3 0.115199 0.950848 0.647674
O O4 0.967777 0.036871 0.679120
O O5 0.500000 0.750000 0.039821
O O6 0.568287 0.856025 0.105414
O O7 0.667182 0.729395 0.088648
O O8 0.661324 0.840479 0.018467
O O9 0.799898 0.541887 0.364414
O O10 0.850945 0.662260 0.305233
O O11 0.709508 0.446364 0.049590
O O12 0.688139 0.576739 0.107613
O O13 0.667233 0.316718 0.315161
O O14 0.829761 0.328775 0.366328
O O15 0.124521 0.745005 0.719783
O O16 0.000000 0.750000 0.793962
O O17 0.500000 0.750000 0.354769
#
# Coordination Sequence:
#
# PCOD9530733 Si02
#       8
#    16  16  16  16   8  16  16  16
#     4  12  24  41  65  99 141 180 228 282 349 418
#     4  10  22  45  73  96 127 176 228 288 352 412
#     4  10  20  41  63  91 132 178 222 272 331 415
#     4  11  25  43  69  97 133 179 231 285 348 412
#     4  10  26  50  70 100 136 172 236 296 350 416
#     4  11  22  41  67  96 131 180 230 277 343 425
#     4  10  20  37  61  90 135 180 226 267 329 410
#     4  11  25  37  58  99 143 182 222 278 340 406
#
# _framework density 20.554283999999999
#
# number of rings (size 3 to 8) (size 9 to 14) (size 15 to 20)
#    0.000    1.333    2.667    3.600    7.467    2.133 
#    2.400    6.000    0.000    0.000    0.000    0.000 
#    0.000    0.000    0.000    0.000    0.000    0.000 
#
# Total GULP energy -335228.590127 kJ/mol
# GULP energy per Si atom -5587.143169 kJ/mol
# Density = 2.050750 g / cm^3
# Si number density = 20.554284 Si / 1000 Ang^3
#
#
#
# Elastic Constant Matrix: (Units=GPa)
#
#
# Indices 1 2 3 4 5 6 
#
# 1 78.3455 36.5169 49.9287 0.0000 0.0000 0.0000
# 2 36.5169 108.6664 36.1478 0.0000 0.0000 0.0000
# 3 49.9287 36.1478 88.7970 0.0000 0.0000 0.0000
# 4 0.0000 0.0000 0.0000 9.1365 0.0000 0.0000
# 5 0.0000 0.0000 0.0000 0.0000 28.5710 0.0000
# 6 0.0000 0.0000 0.0000 0.0000 0.0000 34.6618
#
#
#
# Elastic Compliance Matrix: (Units=1/GPa)
#
#
# Indices 1 2 3 4 5 6 
#
# 1 0.021061 -0.003630 -0.010365 0.000000 0.000000 0.000000
# 2 -0.003630 0.011269 -0.002547 0.000000 0.000000 0.000000
# 3 -0.010365 -0.002547 0.018126 0.000000 0.000000 0.000000
# 4 0.000000 0.000000 0.000000 0.109451 0.000000 0.000000
# 5 0.000000 0.000000 0.000000 0.000000 0.035001 0.000000
# 6 0.000000 0.000000 0.000000 0.000000 0.000000 0.028850
#
#
# Mechanical properties :
#
#
# Convention : Reuss Voigt Hill
#
# Bulk Modulus (GPa) = 57.55520 57.88840 57.72180
# Shear Modulus (GPa) = 19.03808 24.68822 21.86315
#
# Velocity S-wave (km/s) = 3.04671 3.46948 3.26495
# Velocity P-wave (km/s) = 6.35916 6.65391 6.50821
#
# Compressibility (1/GPa) = 0.01737463
#
# Stress axis : x y z
#
# Youngs Moduli (GPa) = 47.48116 88.73610 55.16904
#
# Poissons Ratio (x) = 0.32208 0.57180
# Poissons Ratio (y) = 0.17234 0.14050
# Poissons Ratio (z) = 0.49212 0.22598
#
# Static dielectric constant tensor:
#      x y z
#    x 1.748300 0.000000 0.000000 
#    y 0.000000 1.734970 0.000000 
#    z 0.000000 0.000000 1.759290 
# 
# From -- ./inp_files/31838.got.cif
#   From: 2010.05.17/outbox.cif.g08.bks.cpg/sg73_16_cif.got.tgz:31838.got - 2010.06.03 17:35:07.
