data_PCOD9530556
_publ_section_title
;
Structure prediction by ZEFSAII (Michael W. Deem and Ramdas Pophale) SiO2 
 PCOD9530556
Probable space group: I B C A 
;
_chemical_formula_sum "Si O2"
_cell_formula_units_Z 112
_cell_length_a 18.323543
_cell_length_b 16.173226
_cell_length_c 17.071815
_cell_angle_alpha 90.000000
_cell_angle_beta 90.000000
_cell_angle_gamma 90.000000
_cell_volume 5059.246068
_symmetry_space_group_name_H-M "I B C A "
_symmetry_group_IT_number 73
_symmetry_cell_setting 'orthorhombic'
loop_
_space_group_symop_operation_xyz
x,y,z
-x,1/2-y,z
x,-y,1/2-z
1/2-x,y,-z
-x,-y,-z
x,1/2+y,-z
-x,y,1/2+z
1/2+x,-y,z
1/2+x,1/2+y,1/2+z
1/2-x,-y,1/2+z
1/2+x,1/2-y,-z
-x,1/2+y,1/2-z
1/2-x,1/2-y,1/2-z
1/2+x,y,1/2-z
1/2-x,1/2+y,z
x,1/2-y,1/2+z
loop_
_atom_site_type_symbol
_atom_site_label
_atom_site_fract_x
_atom_site_fract_y
_atom_site_fract_z
Si Si1 0.838328 0.834775 0.864729
Si Si2 0.120751 0.707265 0.027246
Si Si3 0.969315 0.627641 0.991395
Si Si4 0.288965 0.461498 0.897523
Si Si5 0.102683 0.334783 0.161659
Si Si6 0.137474 0.994425 0.061342
Si Si7 0.682266 0.129920 0.682802
O O1 0.894400 0.764514 0.837305
O O2 0.766731 0.838826 0.810056
O O3 0.867401 0.926654 0.882236
O O4 0.824246 0.805348 0.954682
O O5 0.154232 0.682640 0.109144
O O6 0.082496 0.796521 0.020172
O O7 0.052166 0.645749 0.012537
O O8 0.959721 0.630493 0.896433
O O9 0.936911 0.550010 0.038259
O O10 0.328284 0.375525 0.883108
O O11 0.203111 0.443222 0.898646
O O12 0.307657 0.532979 0.836113
O O13 0.322937 0.503383 0.976186
O O14 0.122040 0.361335 0.249476
#
# Coordination Sequence:
#
# PCOD9530556 Si02
#       7
#    16  16  16  16  16  16  16
#     4  10  20  35  57  88 118 147 197 242 295 350
#     4  10  20  37  59  85 117 154 204 245 280 360
#     4   9  21  38  57  87 113 158 202 236 295 355
#     4   9  18  33  55  86 117 145 192 244 295 344
#     4  10  21  36  57  86 118 153 190 242 304 359
#     4   9  17  34  56  85 113 149 193 243 287 346
#     4  11  20  35  60  88 115 152 194 247 301 350
#
# _framework density 22.137687
#
# number of rings (size 3 to 8) (size 9 to 14) (size 15 to 20)
#    0.000    2.286    1.429    1.286    2.000    0.571 
#    0.000    5.714    0.000    0.000    0.000    0.000 
#    0.000    0.000    0.000    0.000    0.000    0.000 
#
# Total GULP energy -311753.358657 kJ/mol
# GULP energy per Si atom -5567.024262 kJ/mol
# Density = 2.208730 g / cm^3
# Si number density = 22.137687 Si / 1000 Ang^3
#
#
#
# Elastic Constant Matrix: (Units=GPa)
#
#
# Indices 1 2 3 4 5 6 
#
# 1 65.5532 12.9664 4.5418 0.0000 0.0000 0.0000
# 2 12.9664 52.4509 0.6924 0.0000 0.0000 0.0000
# 3 4.5418 0.6924 69.0340 0.0000 0.0000 0.0000
# 4 0.0000 0.0000 0.0000 25.2421 0.0000 0.0000
# 5 0.0000 0.0000 0.0000 0.0000 13.6579 0.0000
# 6 0.0000 0.0000 0.0000 0.0000 0.0000 24.0420
#
#
#
# Elastic Compliance Matrix: (Units=1/GPa)
#
#
# Indices 1 2 3 4 5 6 
#
# 1 0.016111 -0.003969 -0.001020 0.000000 0.000000 0.000000
# 2 -0.003969 0.020046 0.000060 0.000000 0.000000 0.000000
# 3 -0.001020 0.000060 0.014552 0.000000 0.000000 0.000000
# 4 0.000000 0.000000 0.000000 0.039616 0.000000 0.000000
# 5 0.000000 0.000000 0.000000 0.000000 0.073218 0.000000
# 6 0.000000 0.000000 0.000000 0.000000 0.000000 0.041594
#
#
# Mechanical properties :
#
#
# Convention : Reuss Voigt Hill
#
# Bulk Modulus (GPa) = 24.47977 24.82659 24.65318
# Shear Modulus (GPa) = 21.87113 23.84423 22.85768
#
# Velocity S-wave (km/s) = 3.14659 3.28546 3.21678
# Velocity P-wave (km/s) = 4.92781 5.06274 4.99573
#
# Compressibility (1/GPa) = 0.04085006
#
# Stress axis : x y z
#
# Youngs Moduli (GPa) = 62.07107 49.88558 68.71850
#
# Poissons Ratio (x) = 0.19801 0.07010
# Poissons Ratio (y) = 0.24637 -0.00413
# Poissons Ratio (z) = 0.06332 -0.00300
#
# Static dielectric constant tensor:
#      x y z
#    x 1.854060 0.000000 0.000000 
#    y 0.000000 1.894220 0.000000 
#    z 0.000000 0.000000 1.872370 
# 
# From -- ./inp_files/23291.got.cif
#   From: 2010.05.17/outbox.cif.g08.bks.cpg/sg73_12_cif.got.tgz:23291.got - 2010.06.03 17:35:07.
