data_PCOD9530941
_publ_section_title
;
Structure prediction by ZEFSAII (Michael W. Deem and Ramdas Pophale) SiO2 
 PCOD9530941
Probable space group: I B C A 
;
_chemical_formula_sum "Si O2"
_cell_formula_units_Z 104
_cell_length_a 27.801051
_cell_length_b 8.903697
_cell_length_c 23.050421
_cell_angle_alpha 90.000000
_cell_angle_beta 90.000000
_cell_angle_gamma 90.000000
_cell_volume 5705.719909
_symmetry_space_group_name_H-M "I B C A "
_symmetry_group_IT_number 73
_symmetry_cell_setting 'orthorhombic'
loop_
_space_group_symop_operation_xyz
x,y,z
-x,1/2-y,z
x,-y,1/2-z
1/2-x,y,-z
-x,-y,-z
x,1/2+y,-z
-x,y,1/2+z
1/2+x,-y,z
1/2+x,1/2+y,1/2+z
1/2-x,-y,1/2+z
1/2+x,1/2-y,-z
-x,1/2+y,1/2-z
1/2-x,1/2-y,1/2-z
1/2+x,y,1/2-z
1/2-x,1/2+y,z
x,1/2-y,1/2+z
loop_
_atom_site_type_symbol
_atom_site_label
_atom_site_fract_x
_atom_site_fract_y
_atom_site_fract_z
Si Si1 0.965464 0.372501 0.022550
Si Si2 0.539651 0.947218 0.683809
Si Si3 0.569628 0.401953 0.809333
Si Si4 0.750000 0.739464 0.000000
Si Si5 0.623305 0.982551 0.408769
Si Si6 0.905996 0.146029 0.411038
Si Si7 0.681022 0.989237 0.975293
O O1 0.922971 0.443535 0.059355
O O2 0.000000 0.250000 0.052098
O O3 0.940976 0.308708 0.964264
O O4 0.000000 0.500000 0.000000
O O5 0.560973 0.778071 0.688246
O O6 0.483036 0.955094 0.666861
O O7 0.542250 0.000000 0.750000
O O8 0.567461 0.058216 0.640237
O O9 0.574119 0.500000 0.750000
O O10 0.617086 0.437306 0.847071
O O11 0.786513 0.634353 0.964739
O O12 0.715347 0.848097 0.964278
O O13 0.617688 0.805491 0.395962
O O14 0.665286 0.006526 0.456359
O O15 0.866771 0.031906 0.438211
#
# Coordination Sequence:
#
# PCOD9530941 Si02
#       7
#    16  16  16   8  16  16  16
#     4  11  22  32  46  75 112 155 185 217 275 325
#     4  10  22  37  56  77 111 155 200 235 271 318
#     4  10  22  37  55  79 109 155 201 236 271 313
#     4  10  20  40  60  80 116 142 178 222 286 366
#     4  11  22  34  54  79 116 143 188 235 271 334
#     4  11  22  35  52  81 114 146 187 233 275 332
#     4  10  22  37  58  88 113 145 178 223 290 348
#
# _framework density 18.227322999999998
#
# number of rings (size 3 to 8) (size 9 to 14) (size 15 to 20)
#    0.000    1.538    3.077    1.846    6.462    1.231 
#    0.000    0.000    0.000    0.000    0.000    6.462 
#    0.000    0.000    0.000    0.000    0.000    0.000 
#
# Total GULP energy -289627.850030 kJ/mol
# GULP energy per Si atom -5569.766347 kJ/mol
# Density = 1.818584 g / cm^3
# Si number density = 18.227323 Si / 1000 Ang^3
#
#
#
# Elastic Constant Matrix: (Units=GPa)
#
#
# Indices 1 2 3 4 5 6 
#
# 1 61.1556 15.7514 25.2835 0.0000 0.0000 0.0000
# 2 15.7514 84.4297 19.1132 0.0000 0.0000 0.0000
# 3 25.2835 19.1132 74.7860 0.0000 0.0000 0.0000
# 4 0.0000 0.0000 0.0000 24.4130 0.0000 0.0000
# 5 0.0000 0.0000 0.0000 0.0000 10.3825 0.0000
# 6 0.0000 0.0000 0.0000 0.0000 0.0000 28.8581
#
#
#
# Elastic Compliance Matrix: (Units=1/GPa)
#
#
# Indices 1 2 3 4 5 6 
#
# 1 0.019409 -0.002267 -0.005982 0.000000 0.000000 0.000000
# 2 -0.002267 0.012836 -0.002514 0.000000 0.000000 0.000000
# 3 -0.005982 -0.002514 0.016037 0.000000 0.000000 0.000000
# 4 0.000000 0.000000 0.000000 0.040962 0.000000 0.000000
# 5 0.000000 0.000000 0.000000 0.000000 0.096316 0.000000
# 6 0.000000 0.000000 0.000000 0.000000 0.000000 0.034652
#
#
# Mechanical properties :
#
#
# Convention : Reuss Voigt Hill
#
# Bulk Modulus (GPa) = 37.37624 37.85196 37.61410
# Shear Modulus (GPa) = 19.94763 23.41226 21.67995
#
# Velocity S-wave (km/s) = 3.31173 3.58782 3.45254
# Velocity P-wave (km/s) = 5.93073 6.16239 6.04767
#
# Compressibility (1/GPa) = 0.02675496
#
# Stress axis : x y z
#
# Youngs Moduli (GPa) = 51.52290 77.90447 62.35737
#
# Poissons Ratio (x) = 0.17658 0.37305
# Poissons Ratio (y) = 0.11678 0.15678
# Poissons Ratio (z) = 0.30823 0.19587
#
# Static dielectric constant tensor:
#      x y z
#    x 1.610280 0.000000 0.000000 
#    y 0.000000 1.787710 0.000000 
#    z 0.000000 0.000000 1.620810 
# 
# From -- ./inp_files/30482.got.cif
#   From: 2010.05.17/outbox.cif.g08.bks.cpg/sg73_16_cif.got.tgz:30482.got - 2010.06.03 17:35:07.
