data_PCOD9530988
_publ_section_title
;
Structure prediction by ZEFSAII (Michael W. Deem and Ramdas Pophale) SiO2 
 PCOD9530988
Probable space group: I B C A 
;
_chemical_formula_sum "Si O2"
_cell_formula_units_Z 120
_cell_length_a 15.946019
_cell_length_b 17.368729
_cell_length_c 20.281421
_cell_angle_alpha 90.000000
_cell_angle_beta 90.000000
_cell_angle_gamma 90.000000
_cell_volume 5617.184599
_symmetry_space_group_name_H-M "I B C A "
_symmetry_group_IT_number 73
_symmetry_cell_setting 'orthorhombic'
loop_
_space_group_symop_operation_xyz
x,y,z
-x,1/2-y,z
x,-y,1/2-z
1/2-x,y,-z
-x,-y,-z
x,1/2+y,-z
-x,y,1/2+z
1/2+x,-y,z
1/2+x,1/2+y,1/2+z
1/2-x,-y,1/2+z
1/2+x,1/2-y,-z
-x,1/2+y,1/2-z
1/2-x,1/2-y,1/2-z
1/2+x,y,1/2-z
1/2-x,1/2+y,z
x,1/2-y,1/2+z
loop_
_atom_site_type_symbol
_atom_site_label
_atom_site_fract_x
_atom_site_fract_y
_atom_site_fract_z
Si Si1 0.775769 0.632309 0.827801
Si Si2 0.823694 0.440314 0.447581
Si Si3 0.526607 0.166269 0.074464
Si Si4 0.382493 0.724848 0.293330
Si Si5 0.905608 0.239280 0.641136
Si Si6 0.294509 0.111822 0.931373
Si Si7 0.121924 0.607001 0.143679
Si Si8 0.363074 0.000000 0.250000
O O1 0.720934 0.587399 0.881032
O O2 0.711063 0.692468 0.797136
O O3 0.852473 0.681389 0.857505
O O4 0.808241 0.570249 0.776338
O O5 0.750000 0.431810 0.500000
O O6 0.902084 0.384004 0.460400
O O7 0.842614 0.531149 0.442564
O O8 0.500000 0.250000 0.047300
O O9 0.563618 0.183581 0.148781
O O10 0.441457 0.119143 0.083541
O O11 0.412380 0.714331 0.218570
O O12 0.381136 0.813962 0.314671
O O13 0.853170 0.176940 0.599714
O O14 0.000000 0.250000 0.616433
O O15 0.215942 0.095352 0.882411
O O16 0.250000 0.136476 0.000000
O O17 0.089965 0.536473 0.188100
#
# Coordination Sequence:
#
# PCOD9530988 Si02
#       8
#    16  16  16  16  16  16  16   8
#     4  11  22  38  62  97 126 173 219 266 337 403
#     4  10  23  46  65  91 134 174 223 273 326 395
#     4   9  21  41  67  98 126 173 217 268 337 408
#     4  10  20  40  66  91 133 170 206 274 345 402
#     4  12  24  41  65  99 133 168 224 285 337 401
#     4  11  25  46  65  89 134 186 224 274 344 406
#     4  11  20  41  65  94 131 172 221 270 344 410
#     4  12  22  32  64  96 126 166 218 278 338 406
#
# _framework density 21.363015000000001
#
# number of rings (size 3 to 8) (size 9 to 14) (size 15 to 20)
#    0.000    1.333    4.000    2.400    0.000    1.600 
#    2.400    1.333    0.000    0.000    0.000    0.000 
#    0.000    0.000    0.000    0.000    0.000    0.000 
#
# Total GULP energy -335223.657187 kJ/mol
# GULP energy per Si atom -5587.060953 kJ/mol
# Density = 2.131439 g / cm^3
# Si number density = 21.363015 Si / 1000 Ang^3
#
#
#
# Elastic Constant Matrix: (Units=GPa)
#
#
# Indices 1 2 3 4 5 6 
#
# 1 112.5333 76.6546 4.3184 0.0000 0.0000 0.0000
# 2 76.6546 109.5252 32.7429 0.0000 0.0000 0.0000
# 3 4.3184 32.7429 64.3622 0.0000 0.0000 0.0000
# 4 0.0000 0.0000 0.0000 26.5954 0.0000 0.0000
# 5 0.0000 0.0000 0.0000 0.0000 -3.0997 0.0000
# 6 0.0000 0.0000 0.0000 0.0000 0.0000 16.0346
#
#
#
# Elastic Compliance Matrix: (Units=1/GPa)
#
#
# Indices 1 2 3 4 5 6 
#
# 1 0.019031 -0.015258 0.006485 0.000000 0.000000 0.000000
# 2 -0.015258 0.023001 -0.010678 0.000000 0.000000 0.000000
# 3 0.006485 -0.010678 0.020534 0.000000 0.000000 0.000000
# 4 0.000000 0.000000 0.000000 0.037600 0.000000 0.000000
# 5 0.000000 0.000000 0.000000 0.000000 -0.322615 0.000000
# 6 0.000000 0.000000 0.000000 0.000000 0.000000 0.062365
#
#
# Mechanical properties :
#
#
# Convention : Reuss Voigt Hill
#
# Bulk Modulus (GPa) = 42.25612 57.09474 49.67543
# Shear Modulus (GPa) = -44.13286 19.41973 -12.35657
#
# Velocity S-wave (km/s) = -4.55010 3.01829 -2.40762
# Velocity P-wave (km/s) = 2.78954 6.23945 3.94647
#
# Compressibility (1/GPa) = 0.02366521
#
# Stress axis : x y z
#
# Youngs Moduli (GPa) = 52.54643 43.47577 48.69978
#
# Poissons Ratio (x) = 0.66336 -0.31584
# Poissons Ratio (y) = 0.80176 0.52000
# Poissons Ratio (z) = -0.34078 0.46422
#
# Static dielectric constant tensor:
#      x y z
#    x 1.776060 0.000000 0.000000 
#    y 0.000000 1.759310 0.000000 
#    z 0.000000 0.000000 1.957690 
# 
# From -- ./inp_files/29664.got.cif
#   From: 2010.05.17/outbox.cif.g08.bks.cpg/sg73_15_cif.got.tgz:29664.got - 2010.06.03 17:35:07.
