data_PCOD9530091
_publ_section_title
;
Structure prediction by ZEFSAII (Michael W. Deem and Ramdas Pophale) SiO2 
 PCOD9530091
Probable space group: I B C A 
;
_chemical_formula_sum "Si O2"
_cell_formula_units_Z 96
_cell_length_a 26.350745
_cell_length_b 22.514251
_cell_length_c 8.495921
_cell_angle_alpha 90.000000
_cell_angle_beta 90.000000
_cell_angle_gamma 90.000000
_cell_volume 5040.352002
_symmetry_space_group_name_H-M "I B C A "
_symmetry_group_IT_number 73
_symmetry_cell_setting 'orthorhombic'
loop_
_space_group_symop_operation_xyz
x,y,z
-x,1/2-y,z
x,-y,1/2-z
1/2-x,y,-z
-x,-y,-z
x,1/2+y,-z
-x,y,1/2+z
1/2+x,-y,z
1/2+x,1/2+y,1/2+z
1/2-x,-y,1/2+z
1/2+x,1/2-y,-z
-x,1/2+y,1/2-z
1/2-x,1/2-y,1/2-z
1/2+x,y,1/2-z
1/2-x,1/2+y,z
x,1/2-y,1/2+z
loop_
_atom_site_type_symbol
_atom_site_label
_atom_site_fract_x
_atom_site_fract_y
_atom_site_fract_z
Si Si1 0.735847 0.814927 0.183615
Si Si2 0.515376 0.388097 0.577135
Si Si3 0.142832 0.723469 0.961657
Si Si4 0.664212 0.338772 0.297247
Si Si5 0.425078 0.065066 0.302793
Si Si6 0.463873 0.697862 0.172280
O O1 0.750000 0.750000 0.250000
O O2 0.675222 0.816384 0.164040
O O3 0.776467 0.856639 0.272323
O O4 0.750000 0.817047 0.000000
O O5 0.546496 0.434339 0.471801
O O6 0.467817 0.413574 0.675977
O O7 0.494686 0.339439 0.455714
O O8 0.549782 0.350303 0.695946
O O9 0.161961 0.790949 0.938512
O O10 0.085031 0.724071 0.909923
O O11 0.149225 0.697111 0.136153
O O12 0.622398 0.389939 0.311705
O O13 0.408436 0.000000 0.250000
O O14 0.500000 0.750000 0.235830
#
# Coordination Sequence:
#
# PCOD9530091 Si02
#       6
#    16  16  16  16  16  16
#     4   8  16  31  49  76 103 137 172 211 262 331
#     4  10  22  36  50  77 105 143 186 214 265 328
#     4  10  19  32  53  80 114 139 169 221 280 339
#     4  10  20  33  54  82 105 140 181 221 278 325
#     4  11  22  39  56  76 106 147 193 227 260 319
#     4  11  21  31  51  80 116 140 167 216 280 335
#
# _framework density 19.046289000000002
#
# number of rings (size 3 to 8) (size 9 to 14) (size 15 to 20)
#    0.000    2.000    1.667    3.000    4.667    0.000 
#    0.000    0.000    0.000    0.000   13.000    0.000 
#    0.000    0.000    0.000    0.000    0.000    0.000 
#
# Total GULP energy -267414.957992 kJ/mol
# GULP energy per Si atom -5571.144958 kJ/mol
# Density = 1.900294 g / cm^3
# Si number density = 19.046289 Si / 1000 Ang^3
#
#
#
# Elastic Constant Matrix: (Units=GPa)
#
#
# Indices 1 2 3 4 5 6 
#
# 1 65.9148 7.2955 -12.2280 0.0000 0.0000 0.0000
# 2 7.2955 53.4093 4.9100 0.0000 0.0000 0.0000
# 3 -12.2280 4.9100 46.0792 0.0000 0.0000 0.0000
# 4 0.0000 0.0000 0.0000 17.6623 0.0000 0.0000
# 5 0.0000 0.0000 0.0000 0.0000 11.2912 0.0000
# 6 0.0000 0.0000 0.0000 0.0000 0.0000 11.5499
#
#
#
# Elastic Compliance Matrix: (Units=1/GPa)
#
#
# Indices 1 2 3 4 5 6 
#
# 1 0.016321 -0.002654 0.004614 0.000000 0.000000 0.000000
# 2 -0.002654 0.019340 -0.002765 0.000000 0.000000 0.000000
# 3 0.004614 -0.002765 0.023221 0.000000 0.000000 0.000000
# 4 0.000000 0.000000 0.000000 0.056618 0.000000 0.000000
# 5 0.000000 0.000000 0.000000 0.000000 0.088565 0.000000
# 6 0.000000 0.000000 0.000000 0.000000 0.000000 0.086581
#
#
# Mechanical properties :
#
#
# Convention : Reuss Voigt Hill
#
# Bulk Modulus (GPa) = 17.46053 18.37315 17.91684
# Shear Modulus (GPa) = 16.05935 19.12905 17.59420
#
# Velocity S-wave (km/s) = 2.90690 3.17258 3.04264
# Velocity P-wave (km/s) = 4.52262 4.80498 4.66594
#
# Compressibility (1/GPa) = 0.05727204
#
# Stress axis : x y z
#
# Youngs Moduli (GPa) = 61.27183 51.70641 43.06493
#
# Poissons Ratio (x) = 0.13720 -0.19869
# Poissons Ratio (y) = 0.16259 0.11907
# Poissons Ratio (z) = -0.28269 0.14297
#
# Static dielectric constant tensor:
#      x y z
#    x 1.762500 0.000000 0.000000 
#    y 0.000000 1.639920 0.000000 
#    z 0.000000 0.000000 1.713090 
# 
# From -- ./inp_files/6418.got.cif
#   From: 2010.05.17/outbox.cif.g08.bks.cpg/sg73_4_cif.got.tgz:6418.got - 2010.06.03 17:35:07.
