data_PCOD9530709
_publ_section_title
;
Structure prediction by ZEFSAII (Michael W. Deem and Ramdas Pophale) SiO2 
 PCOD9530709
Probable space group: I B C A 
;
_chemical_formula_sum "Si O2"
_cell_formula_units_Z 104
_cell_length_a 20.429067
_cell_length_b 27.025289
_cell_length_c 9.495941
_cell_angle_alpha 90.000000
_cell_angle_beta 90.000000
_cell_angle_gamma 90.000000
_cell_volume 5242.722697
_symmetry_space_group_name_H-M "I B C A "
_symmetry_group_IT_number 73
_symmetry_cell_setting 'orthorhombic'
loop_
_space_group_symop_operation_xyz
x,y,z
-x,1/2-y,z
x,-y,1/2-z
1/2-x,y,-z
-x,-y,-z
x,1/2+y,-z
-x,y,1/2+z
1/2+x,-y,z
1/2+x,1/2+y,1/2+z
1/2-x,-y,1/2+z
1/2+x,1/2-y,-z
-x,1/2+y,1/2-z
1/2-x,1/2-y,1/2-z
1/2+x,y,1/2-z
1/2-x,1/2+y,z
x,1/2-y,1/2+z
loop_
_atom_site_type_symbol
_atom_site_label
_atom_site_fract_x
_atom_site_fract_y
_atom_site_fract_z
Si Si1 0.343101 0.944938 0.241978
Si Si2 0.528804 0.805999 0.947551
Si Si3 0.250000 0.912340 0.000000
Si Si4 0.750000 0.411976 0.000000
Si Si5 0.339493 0.173296 0.580951
Si Si6 0.932325 0.352205 0.658631
Si Si7 0.750000 0.741574 0.500000
Si Si8 0.845961 0.669458 0.378595
O O1 0.297861 0.941620 0.102172
O O2 0.292850 0.937136 0.373990
O O3 0.399904 0.902919 0.221081
O O4 0.371908 0.000000 0.250000
O O5 0.500000 0.750000 0.963708
O O6 0.538504 0.820474 0.785389
O O7 0.486394 0.847252 0.033602
O O8 0.600720 0.811415 0.012481
O O9 0.206983 0.874402 0.091509
O O10 0.808095 0.380081 0.074667
O O11 0.372312 0.171135 0.428489
O O12 0.299850 0.223257 0.579196
O O13 0.379341 0.169893 0.725111
O O14 0.786739 0.707923 0.388164
#
# Coordination Sequence:
#
# PCOD9530709 Si02
#       8
#    16  16   8   8  16  16   8  16
#     4  11  22  42  70 100 132 167 211 270 343 403
#     4  12  25  43  63  88 127 178 229 269 323 389
#     4   9  19  35  61  92 128 160 196 256 328 396
#     4  11  21  41  69 100 136 162 210 270 332 408
#     4  10  20  37  57  86 128 164 208 261 322 379
#     4  11  25  43  65  92 127 172 226 278 322 390
#     4  10  22  30  56  92 126 166 210 258 316 392
#     4  11  22  38  61  90 130 172 212 263 325 384
#
# _framework density 19.837022999999999
#
# number of rings (size 3 to 8) (size 9 to 14) (size 15 to 20)
#    0.000    1.231    3.077    3.231    0.000    3.692 
#    0.000    1.538    0.000    0.000    0.000    0.000 
#    0.000    0.000    0.000    0.000    0.000    0.000 
#
# Total GULP energy -289564.028368 kJ/mol
# GULP energy per Si atom -5568.539007 kJ/mol
# Density = 1.979187 g / cm^3
# Si number density = 19.837023 Si / 1000 Ang^3
#
#
#
# Elastic Constant Matrix: (Units=GPa)
#
#
# Indices 1 2 3 4 5 6 
#
# 1 62.2646 34.8781 7.8533 0.0000 0.0000 0.0000
# 2 34.8781 93.6253 28.3896 0.0000 0.0000 0.0000
# 3 7.8533 28.3896 108.2269 0.0000 0.0000 0.0000
# 4 0.0000 0.0000 0.0000 11.4323 0.0000 0.0000
# 5 0.0000 0.0000 0.0000 0.0000 36.4211 0.0000
# 6 0.0000 0.0000 0.0000 0.0000 0.0000 20.5045
#
#
#
# Elastic Compliance Matrix: (Units=1/GPa)
#
#
# Indices 1 2 3 4 5 6 
#
# 1 0.020326 -0.007741 0.000556 0.000000 0.000000 0.000000
# 2 -0.007741 0.014552 -0.003255 0.000000 0.000000 0.000000
# 3 0.000556 -0.003255 0.010053 0.000000 0.000000 0.000000
# 4 0.000000 0.000000 0.000000 0.087471 0.000000 0.000000
# 5 0.000000 0.000000 0.000000 0.000000 0.027457 0.000000
# 6 0.000000 0.000000 0.000000 0.000000 0.000000 0.048770
#
#
# Mechanical properties :
#
#
# Convention : Reuss Voigt Hill
#
# Bulk Modulus (GPa) = 41.57923 45.15097 43.36510
# Shear Modulus (GPa) = 21.05023 26.53797 23.79410
#
# Velocity S-wave (km/s) = 3.26108 3.66156 3.46711
# Velocity P-wave (km/s) = 5.93173 6.37859 6.15922
#
# Compressibility (1/GPa) = 0.02405047
#
# Stress axis : x y z
#
# Youngs Moduli (GPa) = 49.19706 68.72092 99.46803
#
# Poissons Ratio (x) = 0.53194 -0.05526
# Poissons Ratio (y) = 0.38082 0.32381
# Poissons Ratio (z) = -0.02733 0.22372
#
# Static dielectric constant tensor:
#      x y z
#    x 1.756330 0.000000 0.000000 
#    y 0.000000 1.697130 0.000000 
#    z 0.000000 0.000000 1.762130 
# 
# From -- ./inp_files/6606.got.cif
#   From: 2010.05.17/outbox.cif.g08.bks.cpg/sg73_4_cif.got.tgz:6606.got - 2010.06.03 17:35:07.
