data_PCOD9530591
_publ_section_title
;
Structure prediction by ZEFSAII (Michael W. Deem and Ramdas Pophale) SiO2 
 PCOD9530591
Probable space group: I B C A 
;
_chemical_formula_sum "Si O2"
_cell_formula_units_Z 80
_cell_length_a 23.591677
_cell_length_b 5.407160
_cell_length_c 28.969119
_cell_angle_alpha 90.000000
_cell_angle_beta 90.000000
_cell_angle_gamma 90.000000
_cell_volume 3695.415891
_symmetry_space_group_name_H-M "I B C A "
_symmetry_group_IT_number 73
_symmetry_cell_setting 'orthorhombic'
loop_
_space_group_symop_operation_xyz
x,y,z
-x,1/2-y,z
x,-y,1/2-z
1/2-x,y,-z
-x,-y,-z
x,1/2+y,-z
-x,y,1/2+z
1/2+x,-y,z
1/2+x,1/2+y,1/2+z
1/2-x,-y,1/2+z
1/2+x,1/2-y,-z
-x,1/2+y,1/2-z
1/2-x,1/2-y,1/2-z
1/2+x,y,1/2-z
1/2-x,1/2+y,z
x,1/2-y,1/2+z
loop_
_atom_site_type_symbol
_atom_site_label
_atom_site_fract_x
_atom_site_fract_y
_atom_site_fract_z
Si Si1 0.058241 0.383041 0.204804
Si Si2 0.000000 0.250000 0.363860
Si Si3 0.068280 0.218640 0.525424
Si Si4 0.786175 0.000000 0.750000
Si Si5 0.787517 0.557491 0.147491
Si Si6 0.402908 0.594041 0.117067
O O1 0.087742 0.500000 0.250000
O O2 0.088109 0.201026 0.168714
O O3 0.000000 0.250000 0.221424
O O4 0.039693 0.598358 0.170540
O O5 0.957425 0.420330 0.392046
O O6 0.087158 0.476633 0.502335
O O7 0.091355 0.201433 0.577583
O O8 0.000000 0.250000 0.525964
O O9 0.750000 0.250000 0.750000
O O10 0.812756 0.970884 0.699672
O O11 0.753750 0.816751 0.142247
O O12 0.842274 0.536073 0.115215
#
# Coordination Sequence:
#
# PCOD9530591 Si02
#       6
#    16   8  16   8  16  16
#     4  10  20  36  55  87 133 174 207 253 323 406
#     4  10  22  36  60  88 132 168 210 256 330 392
#     4  10  23  41  67  97 131 166 211 271 336 398
#     4   8  16  36  58  82 116 158 222 266 304 360
#     4  10  23  42  64  91 127 175 222 276 324 383
#     4  11  25  39  66  95 129 171 224 273 336 403
#
# _framework density 21.648440000000001
#
# number of rings (size 3 to 8) (size 9 to 14) (size 15 to 20)
#    0.000    2.000    1.000    1.800    9.800    1.600 
#    7.200    0.000    0.000    3.600    0.000    0.000 
#    0.000    0.000    0.000    0.000    0.000    0.000 
#
# Total GULP energy -223094.791763 kJ/mol
# GULP energy per Si atom -5577.369794 kJ/mol
# Density = 2.159917 g / cm^3
# Si number density = 21.648440 Si / 1000 Ang^3
#
#
#
# Elastic Constant Matrix: (Units=GPa)
#
#
# Indices 1 2 3 4 5 6 
#
# 1 49.0912 24.5184 35.5721 0.0000 0.0000 0.0000
# 2 24.5184 116.1797 30.1688 0.0000 0.0000 0.0000
# 3 35.5721 30.1688 76.3223 0.0000 0.0000 0.0000
# 4 0.0000 0.0000 0.0000 38.1201 0.0000 0.0000
# 5 0.0000 0.0000 0.0000 0.0000 18.3610 0.0000
# 6 0.0000 0.0000 0.0000 0.0000 0.0000 6.0461
#
#
#
# Elastic Compliance Matrix: (Units=1/GPa)
#
#
# Indices 1 2 3 4 5 6 
#
# 1 0.031783 -0.003188 -0.013553 0.000000 0.000000 0.000000
# 2 -0.003188 0.009912 -0.002432 0.000000 0.000000 0.000000
# 3 -0.013553 -0.002432 0.020381 0.000000 0.000000 0.000000
# 4 0.000000 0.000000 0.000000 0.026233 0.000000 0.000000
# 5 0.000000 0.000000 0.000000 0.000000 0.054463 0.000000
# 6 0.000000 0.000000 0.000000 0.000000 0.000000 0.165396
#
#
# Mechanical properties :
#
#
# Convention : Reuss Voigt Hill
#
# Bulk Modulus (GPa) = 42.14285 46.90128 44.52207
# Shear Modulus (GPa) = 14.10737 22.59436 18.35087
#
# Velocity S-wave (km/s) = 2.55553 3.23413 2.91465
# Velocity P-wave (km/s) = 5.31195 5.97144 5.65133
#
# Compressibility (1/GPa) = 0.02372882
#
# Stress axis : x y z
#
# Youngs Moduli (GPa) = 31.46297 100.89092 49.06640
#
# Poissons Ratio (x) = 0.32165 0.66501
# Poissons Ratio (y) = 0.10031 0.11933
# Poissons Ratio (z) = 0.42643 0.24537
#
# Static dielectric constant tensor:
#      x y z
#    x 1.778520 0.000000 0.000000 
#    y 0.000000 1.858020 0.000000 
#    z 0.000000 0.000000 1.784740 
# 
# From -- ./inp_files/33245.got.cif
#   From: 2010.05.17/outbox.cif.g08.bks.cpg/sg73_17_cif.got.tgz:33245.got - 2010.06.03 17:35:07.
