data_PCOD9530900
_publ_section_title
;
Structure prediction by ZEFSAII (Michael W. Deem and Ramdas Pophale) SiO2 
 PCOD9530900
Probable space group: I B C A 
;
_chemical_formula_sum "Si O2"
_cell_formula_units_Z 112
_cell_length_a 14.587934
_cell_length_b 15.407809
_cell_length_c 26.272124
_cell_angle_alpha 90.000000
_cell_angle_beta 90.000000
_cell_angle_gamma 90.000000
_cell_volume 5905.135415
_symmetry_space_group_name_H-M "I B C A "
_symmetry_group_IT_number 73
_symmetry_cell_setting 'orthorhombic'
loop_
_space_group_symop_operation_xyz
x,y,z
-x,1/2-y,z
x,-y,1/2-z
1/2-x,y,-z
-x,-y,-z
x,1/2+y,-z
-x,y,1/2+z
1/2+x,-y,z
1/2+x,1/2+y,1/2+z
1/2-x,-y,1/2+z
1/2+x,1/2-y,-z
-x,1/2+y,1/2-z
1/2-x,1/2-y,1/2-z
1/2+x,y,1/2-z
1/2-x,1/2+y,z
x,1/2-y,1/2+z
loop_
_atom_site_type_symbol
_atom_site_label
_atom_site_fract_x
_atom_site_fract_y
_atom_site_fract_z
Si Si1 0.636061 0.689123 0.280985
Si Si2 0.510966 0.427328 0.570634
Si Si3 0.340379 0.706591 0.183956
Si Si4 0.962660 0.940635 0.842368
Si Si5 0.914732 0.500000 0.750000
Si Si6 0.581243 0.307888 0.408385
Si Si7 0.147000 0.539585 0.477243
Si Si8 0.500000 0.750000 0.369404
O O1 0.609262 0.744169 0.230615
O O2 0.736092 0.713268 0.300456
O O3 0.637194 0.588539 0.263885
O O4 0.573465 0.712076 0.329086
O O5 0.551976 0.488699 0.614580
O O6 0.408431 0.463400 0.554499
O O7 0.577598 0.440023 0.523089
O O8 0.516590 0.331170 0.593194
O O9 0.374880 0.608185 0.179651
O O10 0.358210 0.748897 0.128871
O O11 0.021026 0.981260 0.797734
O O12 0.023657 0.867458 0.869671
O O13 0.500000 0.250000 0.434802
O O14 0.640710 0.372784 0.442890
O O15 0.250000 0.522261 0.500000
#
# Coordination Sequence:
#
# PCOD9530900 Si02
#       8
#    16  16  16  16   8  16  16   8
#     4  11  24  38  60  95 133 165 213 261 312 391
#     4  10  24  43  64  95 127 166 220 276 326 391
#     4  10  22  40  60  95 127 166 218 262 309 390
#     4  10  20  39  63  84 122 170 207 254 323 379
#     4  12  20  38  60  88 130 178 202 256 328 378
#     4   9  19  38  66  89 124 166 210 263 315 382
#     4  10  23  44  68  96 127 170 218 272 335 394
#     4  12  24  42  64  92 134 172 206 268 328 376
#
# _framework density 18.966543000000001
#
# number of rings (size 3 to 8) (size 9 to 14) (size 15 to 20)
#    0.000    1.714    2.857    0.857    4.000    1.714 
#    2.571    0.714    0.000    0.000    0.000    0.000 
#    0.000    0.000    0.000    0.000    0.000    0.000 
#
# Total GULP energy -311920.772957 kJ/mol
# GULP energy per Si atom -5570.013803 kJ/mol
# Density = 1.892337 g / cm^3
# Si number density = 18.966543 Si / 1000 Ang^3
#
#
#
# Elastic Constant Matrix: (Units=GPa)
#
#
# Indices 1 2 3 4 5 6 
#
# 1 66.6467 9.0999 32.7764 0.0000 0.0000 0.0000
# 2 9.0999 120.0541 -4.3788 0.0000 0.0000 0.0000
# 3 32.7764 -4.3788 164.6386 0.0000 0.0000 0.0000
# 4 0.0000 0.0000 0.0000 35.1276 0.0000 0.0000
# 5 0.0000 0.0000 0.0000 0.0000 23.7348 0.0000
# 6 0.0000 0.0000 0.0000 0.0000 0.0000 22.0681
#
#
#
# Elastic Compliance Matrix: (Units=1/GPa)
#
#
# Indices 1 2 3 4 5 6 
#
# 1 0.016866 -0.001402 -0.003395 0.000000 0.000000 0.000000
# 2 -0.001402 0.008454 0.000504 0.000000 0.000000 0.000000
# 3 -0.003395 0.000504 0.006763 0.000000 0.000000 0.000000
# 4 0.000000 0.000000 0.000000 0.028468 0.000000 0.000000
# 5 0.000000 0.000000 0.000000 0.000000 0.042132 0.000000
# 6 0.000000 0.000000 0.000000 0.000000 0.000000 0.045314
#
#
# Mechanical properties :
#
#
# Convention : Reuss Voigt Hill
#
# Bulk Modulus (GPa) = 42.55905 47.37049 44.96477
# Shear Modulus (GPa) = 30.41077 37.10891 33.75984
#
# Velocity S-wave (km/s) = 4.00858 4.42808 4.22354
# Velocity P-wave (km/s) = 6.62666 7.15360 6.89517
#
# Compressibility (1/GPa) = 0.02349676
#
# Stress axis : x y z
#
# Youngs Moduli (GPa) = 59.29253 118.28373 147.85966
#
# Poissons Ratio (x) = 0.16586 0.50197
# Poissons Ratio (y) = 0.08314 -0.07452
# Poissons Ratio (z) = 0.20129 -0.05962
#
# Static dielectric constant tensor:
#      x y z
#    x 1.692880 0.000000 0.000000 
#    y 0.000000 1.690500 0.000000 
#    z 0.000000 0.000000 1.653850 
# 
# From -- ./inp_files/29586.got.cif
#   From: 2010.05.17/outbox.cif.g08.bks.cpg/sg73_15_cif.got.tgz:29586.got - 2010.06.03 17:35:07.
