data_PCOD9530153
_publ_section_title
;
Structure prediction by ZEFSAII (Michael W. Deem and Ramdas Pophale) SiO2 
 PCOD9530153
Probable space group: I B C A 
;
_chemical_formula_sum "Si O2"
_cell_formula_units_Z 80
_cell_length_a 19.057944
_cell_length_b 11.547433
_cell_length_c 15.085793
_cell_angle_alpha 90.000000
_cell_angle_beta 90.000000
_cell_angle_gamma 90.000000
_cell_volume 3319.935466
_symmetry_space_group_name_H-M "I B C A "
_symmetry_group_IT_number 73
_symmetry_cell_setting 'orthorhombic'
loop_
_space_group_symop_operation_xyz
x,y,z
-x,1/2-y,z
x,-y,1/2-z
1/2-x,y,-z
-x,-y,-z
x,1/2+y,-z
-x,y,1/2+z
1/2+x,-y,z
1/2+x,1/2+y,1/2+z
1/2-x,-y,1/2+z
1/2+x,1/2-y,-z
-x,1/2+y,1/2-z
1/2-x,1/2-y,1/2-z
1/2+x,y,1/2-z
1/2-x,1/2+y,z
x,1/2-y,1/2+z
loop_
_atom_site_type_symbol
_atom_site_label
_atom_site_fract_x
_atom_site_fract_y
_atom_site_fract_z
Si Si1 0.205565 0.080643 0.818120
Si Si2 0.467427 0.534997 0.345974
Si Si3 0.391582 0.186696 0.918715
Si Si4 0.500000 0.750000 0.952833
Si Si5 0.656197 0.186418 0.227583
Si Si6 0.750000 0.583223 0.500000
O O1 0.274256 0.121219 0.761616
O O2 0.170817 0.204637 0.834271
O O3 0.222351 0.020394 0.911435
O O4 0.165183 0.000000 0.750000
O O5 0.497671 0.500000 0.250000
O O6 0.442723 0.425206 0.403645
O O7 0.510853 0.634631 0.394837
O O8 0.394387 0.597933 0.320213
O O9 0.378945 0.230659 0.819012
O O10 0.316544 0.152579 0.960166
O O11 0.433270 0.269420 0.984020
#
# Coordination Sequence:
#
# PCOD9530153 Si02
#       6
#    16  16  16   8  16   8
#     4  10  19  34  57  90 126 164 214 268 326 393
#     4  10  22  42  62  83 122 170 209 260 328 392
#     4  10  22  40  63  91 125 164 210 267 327 387
#     4  12  24  40  64  96 128 162 218 272 326 402
#     4   9  19  37  59  83 122 169 211 261 327 393
#     4  10  20  38  62  90 124 164 210 262 320 384
#
# _framework density 24.096854
#
# number of rings (size 3 to 8) (size 9 to 14) (size 15 to 20)
#    0.000    2.000    0.000    4.800    0.000    4.800 
#    0.000   21.000    0.000    0.000    0.000    0.000 
#    0.000    0.000    0.000    0.000    0.000    0.000 
#
# Total GULP energy -223450.756963 kJ/mol
# GULP energy per Si atom -5586.268924 kJ/mol
# Density = 2.404201 g / cm^3
# Si number density = 24.096854 Si / 1000 Ang^3
#
#
#
# Elastic Constant Matrix: (Units=GPa)
#
#
# Indices 1 2 3 4 5 6 
#
# 1 67.5536 -2.0098 0.1607 0.0000 0.0000 0.0000
# 2 -2.0098 60.8145 34.0570 0.0000 0.0000 0.0000
# 3 0.1607 34.0570 114.9584 0.0000 0.0000 0.0000
# 4 0.0000 0.0000 0.0000 29.7337 0.0000 0.0000
# 5 0.0000 0.0000 0.0000 0.0000 26.6770 0.0000
# 6 0.0000 0.0000 0.0000 0.0000 0.0000 6.9788
#
#
#
# Elastic Compliance Matrix: (Units=1/GPa)
#
#
# Indices 1 2 3 4 5 6 
#
# 1 0.014821 0.000601 -0.000199 0.000000 0.000000 0.000000
# 2 0.000601 0.019739 -0.005848 0.000000 0.000000 0.000000
# 3 -0.000199 -0.005848 0.010432 0.000000 0.000000 0.000000
# 4 0.000000 0.000000 0.000000 0.033632 0.000000 0.000000
# 5 0.000000 0.000000 0.000000 0.000000 0.037485 0.000000
# 6 0.000000 0.000000 0.000000 0.000000 0.000000 0.143291
#
#
# Mechanical properties :
#
#
# Convention : Reuss Voigt Hill
#
# Bulk Modulus (GPa) = 29.32601 34.19358 31.75979
# Shear Modulus (GPa) = 17.75201 26.75250 22.25225
#
# Velocity S-wave (km/s) = 2.71716 3.33559 3.04213
# Velocity P-wave (km/s) = 4.69472 5.39034 5.05451
#
# Compressibility (1/GPa) = 0.03409942
#
# Stress axis : x y z
#
# Youngs Moduli (GPa) = 67.46995 50.66226 95.86149
#
# Poissons Ratio (x) = -0.03046 0.01906
# Poissons Ratio (y) = -0.04056 0.56064
# Poissons Ratio (z) = 0.01341 0.29630
#
# Static dielectric constant tensor:
#      x y z
#    x 1.934570 0.000000 0.000000 
#    y 0.000000 1.952010 0.000000 
#    z 0.000000 0.000000 1.916010 
# 
# From -- ./inp_files/16880.got.cif
#   From: 2010.05.17/outbox.cif.g08.bks.cpg/sg73_9_cif.got.tgz:16880.got - 2010.06.03 17:35:07.
