data_PCOD9530475
_publ_section_title
;
Structure prediction by ZEFSAII (Michael W. Deem and Ramdas Pophale) SiO2 
 PCOD9530475
Probable space group: I B C A 
;
_chemical_formula_sum "Si O2"
_cell_formula_units_Z 72
_cell_length_a 12.163019
_cell_length_b 28.699051
_cell_length_c 9.359863
_cell_angle_alpha 90.000000
_cell_angle_beta 90.000000
_cell_angle_gamma 90.000000
_cell_volume 3267.220258
_symmetry_space_group_name_H-M "I B C A "
_symmetry_group_IT_number 73
_symmetry_cell_setting 'orthorhombic'
loop_
_space_group_symop_operation_xyz
x,y,z
-x,1/2-y,z
x,-y,1/2-z
1/2-x,y,-z
-x,-y,-z
x,1/2+y,-z
-x,y,1/2+z
1/2+x,-y,z
1/2+x,1/2+y,1/2+z
1/2-x,-y,1/2+z
1/2+x,1/2-y,-z
-x,1/2+y,1/2-z
1/2-x,1/2-y,1/2-z
1/2+x,y,1/2-z
1/2-x,1/2+y,z
x,1/2-y,1/2+z
loop_
_atom_site_type_symbol
_atom_site_label
_atom_site_fract_x
_atom_site_fract_y
_atom_site_fract_z
Si Si1 0.888733 0.556429 0.721800
Si Si2 0.000887 0.406268 0.022731
Si Si3 0.500000 0.250000 0.752343
Si Si4 0.117315 0.807259 0.002739
Si Si5 0.815554 0.534494 0.128566
O O1 0.895971 0.500000 0.750000
O O2 0.772888 0.568623 0.797934
O O3 0.893500 0.578157 0.563855
O O4 0.985948 0.581505 0.811409
O O5 0.047950 0.355193 0.997459
O O6 0.085647 0.441862 0.949615
O O7 0.577443 0.279649 0.644690
O O8 0.576158 0.219903 0.860266
O O9 0.250000 0.813786 0.000000
O O10 0.852199 0.500000 0.250000
O O11 0.750000 0.509528 0.000000
#
# Coordination Sequence:
#
# PCOD9530475 Si02
#       5
#    16  16   8  16  16
#     4  10  20  34  52  78 113 151 187 225 270 322
#     4  11  21  35  56  81 109 145 187 230 275 328
#     4  10  24  42  64  90 116 150 188 238 304 362
#     4  11  22  41  65  89 118 150 191 241 295 354
#     4   9  19  34  51  74 109 150 186 223 268 319
#
# _framework density 22.037082000000002
#
# number of rings (size 3 to 8) (size 9 to 14) (size 15 to 20)
#    0.000    1.778    0.000    5.333    0.000    3.556 
#    0.000    0.000    0.000    5.333    0.000    0.000 
#    0.000    0.000    0.000    0.000    0.000    0.000 
#
# Total GULP energy -200838.471486 kJ/mol
# GULP energy per Si atom -5578.846430 kJ/mol
# Density = 2.198692 g / cm^3
# Si number density = 22.037082 Si / 1000 Ang^3
#
#
#
# Elastic Constant Matrix: (Units=GPa)
#
#
# Indices 1 2 3 4 5 6 
#
# 1 65.0084 -2.5246 11.8454 0.0000 0.0001 0.0006
# 2 -2.5246 91.5406 33.8118 -0.0001 0.0001 -0.0018
# 3 11.8454 33.8118 99.1170 -0.0002 -0.0001 0.0135
# 4 0.0000 -0.0001 -0.0002 30.6464 0.0002 -0.0012
# 5 0.0001 0.0001 -0.0001 0.0002 39.4320 -0.0028
# 6 0.0006 -0.0018 0.0135 -0.0012 -0.0028 -63.6921
#
#
#
# Elastic Compliance Matrix: (Units=1/GPa)
#
#
# Indices 1 2 3 4 5 6 
#
# 1 0.015859 0.001301 -0.002339 0.000000 0.000000 0.000000
# 2 0.001301 0.012606 -0.004456 0.000000 0.000000 -0.000001
# 3 -0.002339 -0.004456 0.011889 0.000000 0.000000 0.000003
# 4 0.000000 0.000000 0.000000 0.032630 0.000000 -0.000001
# 5 0.000000 0.000000 0.000000 0.000000 0.025360 -0.000001
# 6 0.000000 -0.000001 0.000003 -0.000001 -0.000001 -0.015701
#
#
# Mechanical properties :
#
#
# Convention : Reuss Voigt Hill
#
# Bulk Modulus (GPa) = 34.05226 37.99236 36.02231
# Shear Modulus (GPa) = 48.34662 15.44614 31.89638
#
# Velocity S-wave (km/s) = 4.68896 2.65035 3.80859
# Velocity P-wave (km/s) = 6.69335 5.16173 5.97681
#
# Compressibility (1/GPa) = 0.02936663
#
# Stress axis : x y z
#
# Youngs Moduli (GPa) = 63.05400 79.32855 84.11385
#
# Poissons Ratio (x) = -0.10324 0.19677
# Poissons Ratio (y) = -0.08206 0.37479
# Poissons Ratio (z) = 0.14750 0.35347
#
# Static dielectric constant tensor:
#      x y z
#    x 1.913460 0.000000 0.000000 
#    y 0.000000 1.808310 0.000000 
#    z 0.000000 0.000000 1.942190 
# 
# From -- ./inp_files/4776.got.cif
#   From: 2010.05.17/outbox.cif.g08.bks.cpg/sg73_3_cif.got.tgz:4776.got - 2010.06.03 17:35:07.
