data_PCOD9530112
_publ_section_title
;
Structure prediction by ZEFSAII (Michael W. Deem and Ramdas Pophale) SiO2 
 PCOD9530112
Probable space group: I B C A 
;
_chemical_formula_sum "Si O2"
_cell_formula_units_Z 88
_cell_length_a 5.044263
_cell_length_b 20.866466
_cell_length_c 30.694477
_cell_angle_alpha 90.000000
_cell_angle_beta 90.000000
_cell_angle_gamma 90.000000
_cell_volume 3230.776103
_symmetry_space_group_name_H-M "I B C A "
_symmetry_group_IT_number 73
_symmetry_cell_setting 'orthorhombic'
loop_
_space_group_symop_operation_xyz
x,y,z
-x,1/2-y,z
x,-y,1/2-z
1/2-x,y,-z
-x,-y,-z
x,1/2+y,-z
-x,y,1/2+z
1/2+x,-y,z
1/2+x,1/2+y,1/2+z
1/2-x,-y,1/2+z
1/2+x,1/2-y,-z
-x,1/2+y,1/2-z
1/2-x,1/2-y,1/2-z
1/2+x,y,1/2-z
1/2-x,1/2+y,z
x,1/2-y,1/2+z
loop_
_atom_site_type_symbol
_atom_site_label
_atom_site_fract_x
_atom_site_fract_y
_atom_site_fract_z
Si Si1 0.140263 0.568772 0.768895
Si Si2 0.173714 0.171741 0.455345
Si Si3 0.269297 0.329479 0.862103
Si Si4 0.000000 0.250000 0.783590
Si Si5 0.330013 0.418207 0.455730
Si Si6 0.778707 0.412645 0.864187
O O1 0.062935 0.500000 0.750000
O O2 0.366548 0.603898 0.741517
O O3 0.220482 0.556570 0.818012
O O4 0.250000 0.207817 0.500000
O O5 0.229110 0.204606 0.409036
O O6 0.379438 0.111842 0.456861
O O7 0.880079 0.141675 0.455324
O O8 0.138672 0.296139 0.820747
O O9 0.576138 0.351209 0.860447
O O10 0.083870 0.392584 0.866272
O O11 0.250000 0.250000 0.750000
O O12 0.250000 0.454249 0.500000
O O13 0.292207 0.449147 0.408484
#
# Coordination Sequence:
#
# PCOD9530112 Si02
#       6
#    16  16  16   8  16  16
#     4  10  21  35  51  75 104 133 165 211 265 311
#     4   8  14  27  48  71  97 125 158 209 263 308
#     4  10  21  35  53  76 102 136 179 220 263 318
#     4  12  26  40  52  70 104 146 184 230 270 300
#     4   8  14  25  44  73 101 124 157 204 252 301
#     4  10  19  33  55  78 100 133 174 215 261 320
#
# _framework density 27.238039000000001
#
# number of rings (size 3 to 8) (size 9 to 14) (size 15 to 20)
#    0.000    2.545    0.000    2.182    0.000    4.364 
#    0.000    0.000    0.000   12.000    0.000    5.091 
#    0.000    0.000    0.000    0.000    0.000    0.000 
#
# Total GULP energy -245557.780201 kJ/mol
# GULP energy per Si atom -5580.858641 kJ/mol
# Density = 2.717604 g / cm^3
# Si number density = 27.238039 Si / 1000 Ang^3
#
#
#
# Elastic Constant Matrix: (Units=GPa)
#
#
# Indices 1 2 3 4 5 6 
#
# 1 161.7105 24.4622 9.0117 0.0000 0.0000 0.0000
# 2 24.4622 42.1427 36.0390 0.0000 0.0000 0.0000
# 3 9.0117 36.0390 275.7878 0.0000 0.0000 0.0000
# 4 0.0000 0.0000 0.0000 234.2918 0.0000 0.0000
# 5 0.0000 0.0000 0.0000 0.0000 46.8163 0.0000
# 6 0.0000 0.0000 0.0000 0.0000 0.0000 22.8978
#
#
#
# Elastic Compliance Matrix: (Units=1/GPa)
#
#
# Indices 1 2 3 4 5 6 
#
# 1 0.006806 -0.004233 0.000331 0.000000 0.000000 0.000000
# 2 -0.004233 0.029348 -0.003697 0.000000 0.000000 0.000000
# 3 0.000331 -0.003697 0.004098 0.000000 0.000000 0.000000
# 4 0.000000 0.000000 0.000000 0.004268 0.000000 0.000000
# 5 0.000000 0.000000 0.000000 0.000000 0.021360 0.000000
# 6 0.000000 0.000000 0.000000 0.000000 0.000000 0.043672
#
#
# Mechanical properties :
#
#
# Convention : Reuss Voigt Hill
#
# Bulk Modulus (GPa) = 39.91537 68.74075 54.32806
# Shear Modulus (GPa) = 37.56518 88.14304 62.85411
#
# Velocity S-wave (km/s) = 3.71771 5.69478 4.80895
# Velocity P-wave (km/s) = 5.75453 8.27844 7.12906
#
# Compressibility (1/GPa) = 0.02505301
#
# Stress axis : x y z
#
# Youngs Moduli (GPa) = 146.93233 34.07438 244.00736
#
# Poissons Ratio (x) = 0.14425 -0.08072
# Poissons Ratio (y) = 0.62203 0.90202
# Poissons Ratio (z) = -0.04861 0.12596
#
# Static dielectric constant tensor:
#      x y z
#    x 2.256360 0.000000 0.000000 
#    y 0.000000 1.246190 0.000000 
#    z 0.000000 0.000000 2.235780 
# 
# From -- ./inp_files/33259.got.cif
#   From: 2010.05.17/outbox.cif.g08.bks.cpg/sg73_17_cif.got.tgz:33259.got - 2010.06.03 17:35:07.
