data_PCOD9530874
_publ_section_title
;
Structure prediction by ZEFSAII (Michael W. Deem and Ramdas Pophale) SiO2 
 PCOD9530874
Probable space group: I B C A 
;
_chemical_formula_sum "Si O2"
_cell_formula_units_Z 120
_cell_length_a 11.842105
_cell_length_b 14.867300
_cell_length_c 27.773401
_cell_angle_alpha 90.000000
_cell_angle_beta 90.000000
_cell_angle_gamma 90.000000
_cell_volume 4889.788526
_symmetry_space_group_name_H-M "I B C A "
_symmetry_group_IT_number 73
_symmetry_cell_setting 'orthorhombic'
loop_
_space_group_symop_operation_xyz
x,y,z
-x,1/2-y,z
x,-y,1/2-z
1/2-x,y,-z
-x,-y,-z
x,1/2+y,-z
-x,y,1/2+z
1/2+x,-y,z
1/2+x,1/2+y,1/2+z
1/2-x,-y,1/2+z
1/2+x,1/2-y,-z
-x,1/2+y,1/2-z
1/2-x,1/2-y,1/2-z
1/2+x,y,1/2-z
1/2-x,1/2+y,z
x,1/2-y,1/2+z
loop_
_atom_site_type_symbol
_atom_site_label
_atom_site_fract_x
_atom_site_fract_y
_atom_site_fract_z
Si Si1 0.393864 0.308888 0.295465
Si Si2 0.381299 0.000000 0.250000
Si Si3 0.195428 0.862634 0.384205
Si Si4 0.082203 0.015044 0.865388
Si Si5 0.283627 0.349346 0.211289
Si Si6 0.624213 0.898484 0.013331
Si Si7 0.926735 0.084752 0.952331
Si Si8 0.732219 0.649174 0.108746
O O1 0.500000 0.250000 0.307901
O O2 0.372928 0.381998 0.335479
O O3 0.398017 0.344939 0.241614
O O4 0.283909 0.244780 0.293949
O O5 0.431937 0.987519 0.305852
O O6 0.300560 0.914460 0.240084
O O7 0.311376 0.917590 0.378188
O O8 0.121513 0.884789 0.430098
O O9 0.208848 0.755022 0.389210
O O10 0.987375 0.049603 0.903015
O O11 0.125691 0.916837 0.884161
O O12 0.301594 0.377482 0.157027
O O13 0.612022 0.006505 0.010568
O O14 0.750000 0.868670 0.000000
O O15 0.523814 0.861015 0.980911
O O16 0.812142 0.131593 0.936156
#
# Coordination Sequence:
#
# PCOD9530874 Si02
#       8
#    16   8  16  16  16  16  16  16
#     4  10  21  39  61  89 129 178 217 270 337 399
#     4  10  20  38  68  92 132 180 212 266 340 396
#     4  11  22  43  68  91 143 173 222 291 333 405
#     4  11  22  44  68  99 144 175 222 287 337 407
#     4   9  20  38  58  92 130 167 221 273 322 397
#     4  11  23  45  70  98 129 175 225 288 348 397
#     4  11  23  43  75  95 133 180 223 283 355 408
#     4  10  23  43  65 100 132 180 226 276 346 408
#
# _framework density 24.540939999999999
#
# number of rings (size 3 to 8) (size 9 to 14) (size 15 to 20)
#    0.000    1.600    4.000    0.000    0.000    4.800 
#    0.000    9.333    0.000    0.000    0.000    0.000 
#    0.000    0.000    0.000    0.000    0.000    0.000 
#
# Total GULP energy -334573.669647 kJ/mol
# GULP energy per Si atom -5576.227827 kJ/mol
# Density = 2.448508 g / cm^3
# Si number density = 24.540940 Si / 1000 Ang^3
#
#
#
# Elastic Constant Matrix: (Units=GPa)
#
#
# Indices 1 2 3 4 5 6 
#
# 1 64.2940 14.2321 36.0068 0.0000 0.0000 0.0000
# 2 14.2321 63.8098 -4.1020 0.0000 0.0000 0.0000
# 3 36.0068 -4.1020 105.1240 0.0000 0.0000 0.0000
# 4 0.0000 0.0000 0.0000 25.3433 0.0000 0.0000
# 5 0.0000 0.0000 0.0000 0.0000 12.5179 0.0000
# 6 0.0000 0.0000 0.0000 0.0000 0.0000 18.1453
#
#
#
# Elastic Compliance Matrix: (Units=1/GPa)
#
#
# Indices 1 2 3 4 5 6 
#
# 1 0.020782 -0.005106 -0.007317 0.000000 0.000000 0.000000
# 2 -0.005106 0.016965 0.002411 0.000000 0.000000 0.000000
# 3 -0.007317 0.002411 0.012113 0.000000 0.000000 0.000000
# 4 0.000000 0.000000 0.000000 0.039458 0.000000 0.000000
# 5 0.000000 0.000000 0.000000 0.000000 0.079886 0.000000
# 6 0.000000 0.000000 0.000000 0.000000 0.000000 0.055111
#
#
# Mechanical properties :
#
#
# Convention : Reuss Voigt Hill
#
# Bulk Modulus (GPa) = 33.51691 36.16684 34.84188
# Shear Modulus (GPa) = 19.66306 23.67401 21.66854
#
# Velocity S-wave (km/s) = 2.83368 3.10929 2.97468
# Velocity P-wave (km/s) = 4.93898 5.25924 5.10162
#
# Compressibility (1/GPa) = 0.02983568
#
# Stress axis : x y z
#
# Youngs Moduli (GPa) = 48.11937 58.94392 82.55629
#
# Poissons Ratio (x) = 0.30094 0.60409
# Poissons Ratio (y) = 0.24567 -0.19902
# Poissons Ratio (z) = 0.35210 -0.14210
#
# Static dielectric constant tensor:
#      x y z
#    x 1.945510 0.000000 0.000000 
#    y 0.000000 1.942680 0.000000 
#    z 0.000000 0.000000 2.203140 
# 
# From -- ./inp_files/31833.got.cif
#   From: 2010.05.17/outbox.cif.g08.bks.cpg/sg73_16_cif.got.tgz:31833.got - 2010.06.03 17:35:07.
