data_PCOD9530910
_publ_section_title
;
Structure prediction by ZEFSAII (Michael W. Deem and Ramdas Pophale) SiO2 
 PCOD9530910
Probable space group: I B C A 
;
_chemical_formula_sum "Si O2"
_cell_formula_units_Z 104
_cell_length_a 8.979930
_cell_length_b 19.668242
_cell_length_c 29.407825
_cell_angle_alpha 90.000000
_cell_angle_beta 90.000000
_cell_angle_gamma 90.000000
_cell_volume 5193.993477
_symmetry_space_group_name_H-M "I B C A "
_symmetry_group_IT_number 73
_symmetry_cell_setting 'orthorhombic'
loop_
_space_group_symop_operation_xyz
x,y,z
-x,1/2-y,z
x,-y,1/2-z
1/2-x,y,-z
-x,-y,-z
x,1/2+y,-z
-x,y,1/2+z
1/2+x,-y,z
1/2+x,1/2+y,1/2+z
1/2-x,-y,1/2+z
1/2+x,1/2-y,-z
-x,1/2+y,1/2-z
1/2-x,1/2-y,1/2-z
1/2+x,y,1/2-z
1/2-x,1/2+y,z
x,1/2-y,1/2+z
loop_
_atom_site_type_symbol
_atom_site_label
_atom_site_fract_x
_atom_site_fract_y
_atom_site_fract_z
Si Si1 0.838350 0.928348 0.298558
Si Si2 0.479169 0.421676 0.707949
Si Si3 0.500000 0.750000 0.063352
Si Si4 0.533909 0.123300 0.609194
Si Si5 0.000000 0.750000 0.560156
Si Si6 0.676171 0.120754 0.898914
Si Si7 0.750000 0.752339 0.000000
Si Si8 0.127534 0.990276 0.536543
O O1 0.659086 0.927993 0.291663
O O2 0.876494 0.900331 0.348348
O O3 0.916864 0.892534 0.255367
O O4 0.904495 0.004289 0.297343
O O5 0.429688 0.384117 0.662053
O O6 0.410069 0.810078 0.088019
O O7 0.630190 0.787100 0.033136
O O8 0.584880 0.195005 0.589426
O O9 0.354391 0.125734 0.606504
O O10 0.593699 0.064236 0.576212
O O11 0.127480 0.713375 0.529996
O O12 0.653122 0.061372 0.936506
O O13 0.250000 0.967181 0.500000
O O14 0.000000 0.000000 0.500000
#
# Coordination Sequence:
#
# PCOD9530910 Si02
#       8
#    16  16   8  16   8  16   8  16
#     4  10  20  39  65  93 125 162 204 264 323 382
#     4  10  20  39  64  93 125 162 205 264 323 382
#     4  11  24  44  65  90 128 174 223 258 321 376
#     4  11  24  44  62  96 131 168 214 267 319 380
#     4  11  24  42  63  90 130 172 221 258 315 380
#     4  11  24  45  63  93 132 170 212 270 314 389
#     4  10  24  40  64  86 118 178 214 258 298 382
#     4  12  26  40  65  94 133 168 213 268 319 372
#
# _framework density 20.023129999999998
#
# number of rings (size 3 to 8) (size 9 to 14) (size 15 to 20)
#    0.000    1.231    4.615    1.846    6.462    0.000 
#    8.308    0.769    0.000    3.692    0.000    0.000 
#    0.000    0.000    0.000    0.000    0.000    0.000 
#
# Total GULP energy -289469.481929 kJ/mol
# GULP energy per Si atom -5566.720806 kJ/mol
# Density = 1.997756 g / cm^3
# Si number density = 20.023130 Si / 1000 Ang^3
#
#
#
# Elastic Constant Matrix: (Units=GPa)
#
#
# Indices 1 2 3 4 5 6 
#
# 1 87.1617 3.0192 37.6078 0.0000 0.0000 0.0000
# 2 3.0192 64.1388 32.5241 0.0000 0.0000 0.0000
# 3 37.6078 32.5241 157.0729 0.0000 0.0000 0.0000
# 4 0.0000 0.0000 0.0000 8.9646 0.0000 0.0000
# 5 0.0000 0.0000 0.0000 0.0000 35.0072 0.0000
# 6 0.0000 0.0000 0.0000 0.0000 0.0000 18.9582
#
#
#
# Elastic Compliance Matrix: (Units=1/GPa)
#
#
# Indices 1 2 3 4 5 6 
#
# 1 0.012860 0.001068 -0.003300 0.000000 0.000000 0.000000
# 2 0.001068 0.017509 -0.003881 0.000000 0.000000 0.000000
# 3 -0.003300 -0.003881 0.007960 0.000000 0.000000 0.000000
# 4 0.000000 0.000000 0.000000 0.111550 0.000000 0.000000
# 5 0.000000 0.000000 0.000000 0.000000 0.028566 0.000000
# 6 0.000000 0.000000 0.000000 0.000000 0.000000 0.052748
#
#
# Mechanical properties :
#
#
# Convention : Reuss Voigt Hill
#
# Bulk Modulus (GPa) = 38.31033 50.51953 44.41493
# Shear Modulus (GPa) = 19.83186 28.26747 24.04967
#
# Velocity S-wave (km/s) = 3.15055 3.76139 3.46944
# Velocity P-wave (km/s) = 5.69291 6.64450 6.18703
#
# Compressibility (1/GPa) = 0.02610262
#
# Stress axis : x y z
#
# Youngs Moduli (GPa) = 77.76132 57.11331 125.62343
#
# Poissons Ratio (x) = -0.06100 0.41458
# Poissons Ratio (y) = -0.08306 0.48757
# Poissons Ratio (z) = 0.25663 0.22167
#
# Static dielectric constant tensor:
#      x y z
#    x 1.675580 0.000000 0.000000 
#    y 0.000000 1.716860 0.000000 
#    z 0.000000 0.000000 1.806770 
# 
# From -- ./inp_files/33612.got.cif
#   From: 2010.05.17/outbox.cif.g08.bks.cpg/sg73_17_cif.got.tgz:33612.got - 2010.06.03 17:35:07.
