data_PCOD9530334
_publ_section_title
;
Structure prediction by ZEFSAII (Michael W. Deem and Ramdas Pophale) SiO2 
 PCOD9530334
Probable space group: I B C A 
;
_chemical_formula_sum "Si O2"
_cell_formula_units_Z 120
_cell_length_a 18.253103
_cell_length_b 19.038580
_cell_length_c 15.867099
_cell_angle_alpha 90.000000
_cell_angle_beta 90.000000
_cell_angle_gamma 90.000000
_cell_volume 5514.025741
_symmetry_space_group_name_H-M "I B C A "
_symmetry_group_IT_number 73
_symmetry_cell_setting 'orthorhombic'
loop_
_space_group_symop_operation_xyz
x,y,z
-x,1/2-y,z
x,-y,1/2-z
1/2-x,y,-z
-x,-y,-z
x,1/2+y,-z
-x,y,1/2+z
1/2+x,-y,z
1/2+x,1/2+y,1/2+z
1/2-x,-y,1/2+z
1/2+x,1/2-y,-z
-x,1/2+y,1/2-z
1/2-x,1/2-y,1/2-z
1/2+x,y,1/2-z
1/2-x,1/2+y,z
x,1/2-y,1/2+z
loop_
_atom_site_type_symbol
_atom_site_label
_atom_site_fract_x
_atom_site_fract_y
_atom_site_fract_z
Si Si1 0.050478 0.317752 0.174424
Si Si2 0.886257 0.896744 0.608026
Si Si3 0.441764 0.390639 0.654226
Si Si4 0.086246 0.994725 0.524188
Si Si5 0.576926 0.893420 0.115934
Si Si6 0.387323 0.000000 0.750000
Si Si7 0.821578 0.271977 0.114210
Si Si8 0.342439 0.735899 0.912942
O O1 0.059630 0.374134 0.247469
O O2 0.129932 0.292425 0.147074
O O3 0.000000 0.250000 0.201900
O O4 0.999394 0.352928 0.102482
O O5 0.851268 0.944858 0.683330
O O6 0.861704 0.816667 0.605444
O O7 0.973186 0.893160 0.627455
O O8 0.876817 0.937209 0.518046
O O9 0.407487 0.463256 0.617698
O O10 0.401105 0.321894 0.616070
O O11 0.109973 0.929400 0.465762
O O12 0.000000 0.000000 0.500000
O O13 0.566902 0.953004 0.185345
O O14 0.635955 0.839038 0.150244
O O15 0.736076 0.275713 0.131079
O O16 0.832775 0.271857 0.013351
#
# Coordination Sequence:
#
# PCOD9530334 Si02
#       8
#    16  16  16  16  16   8  16  16
#     4  10  21  35  58  91 123 149 196 260 313 355
#     4  10  21  37  65  91 122 160 207 259 311 377
#     4  11  20  37  62  97 116 153 207 260 309 365
#     4   9  20  34  60  91 119 153 202 248 307 371
#     4  10  19  39  61  89 119 162 197 251 308 372
#     4  10  20  38  64  88 128 160 200 250 326 380
#     4  10  24  40  60  87 125 165 205 258 311 358
#     4  11  23  40  64  88 123 165 216 255 299 372
#
# _framework density 21.762684
#
# number of rings (size 3 to 8) (size 9 to 14) (size 15 to 20)
#    0.000    1.867    2.667    1.200    5.600    1.600 
#    0.000    0.000   11.733    1.600    0.000    0.000 
#    0.000    0.000    0.000    0.000    0.000    0.000 
#
# Total GULP energy -334423.743562 kJ/mol
# GULP energy per Si atom -5573.729059 kJ/mol
# Density = 2.171315 g / cm^3
# Si number density = 21.762684 Si / 1000 Ang^3
#
#
#
# Elastic Constant Matrix: (Units=GPa)
#
#
# Indices 1 2 3 4 5 6 
#
# 1 49.7408 32.5739 19.0086 0.0000 0.0000 0.0000
# 2 32.5739 109.3691 21.9462 0.0000 0.0000 0.0000
# 3 19.0086 21.9462 49.0343 0.0000 0.0000 0.0000
# 4 0.0000 0.0000 0.0000 42.3094 0.0000 0.0000
# 5 0.0000 0.0000 0.0000 0.0000 10.2961 0.0000
# 6 0.0000 0.0000 0.0000 0.0000 0.0000 6.5072
#
#
#
# Elastic Compliance Matrix: (Units=1/GPa)
#
#
# Indices 1 2 3 4 5 6 
#
# 1 0.027357 -0.006614 -0.007645 0.000000 0.000000 0.000000
# 2 -0.006614 0.011644 -0.002648 0.000000 0.000000 0.000000
# 3 -0.007645 -0.002648 0.024543 0.000000 0.000000 0.000000
# 4 0.000000 0.000000 0.000000 0.023635 0.000000 0.000000
# 5 0.000000 0.000000 0.000000 0.000000 0.097124 0.000000
# 6 0.000000 0.000000 0.000000 0.000000 0.000000 0.153677
#
#
# Mechanical properties :
#
#
# Convention : Reuss Voigt Hill
#
# Bulk Modulus (GPa) = 33.63514 39.46683 36.55099
# Shear Modulus (GPa) = 13.09916 20.79690 16.94803
#
# Velocity S-wave (km/s) = 2.45605 3.09467 2.79366
# Velocity P-wave (km/s) = 4.85096 5.56271 5.21898
#
# Compressibility (1/GPa) = 0.02973081
#
# Stress axis : x y z
#
# Youngs Moduli (GPa) = 36.55378 85.87756 40.74543
#
# Poissons Ratio (x) = 0.56798 0.31150
# Poissons Ratio (y) = 0.24176 0.10789
# Poissons Ratio (z) = 0.27945 0.22739
#
# Static dielectric constant tensor:
#      x y z
#    x 1.782070 0.000000 0.000000 
#    y 0.000000 1.877120 0.000000 
#    z 0.000000 0.000000 1.942250 
# 
# From -- ./inp_files/22667.got.cif
#   From: 2010.05.17/outbox.cif.g08.bks.cpg/sg73_12_cif.got.tgz:22667.got - 2010.06.03 17:35:07.
