data_PCOD9530222
_publ_section_title
;
Structure prediction by ZEFSAII (Michael W. Deem and Ramdas Pophale) SiO2 
 PCOD9530222
Probable space group: I B C A 
;
_chemical_formula_sum "Si O2"
_cell_formula_units_Z 120
_cell_length_a 27.520439
_cell_length_b 14.458218
_cell_length_c 14.395186
_cell_angle_alpha 90.000000
_cell_angle_beta 90.000000
_cell_angle_gamma 90.000000
_cell_volume 5727.794220
_symmetry_space_group_name_H-M "I B C A "
_symmetry_group_IT_number 73
_symmetry_cell_setting 'orthorhombic'
loop_
_space_group_symop_operation_xyz
x,y,z
-x,1/2-y,z
x,-y,1/2-z
1/2-x,y,-z
-x,-y,-z
x,1/2+y,-z
-x,y,1/2+z
1/2+x,-y,z
1/2+x,1/2+y,1/2+z
1/2-x,-y,1/2+z
1/2+x,1/2-y,-z
-x,1/2+y,1/2-z
1/2-x,1/2-y,1/2-z
1/2+x,y,1/2-z
1/2-x,1/2+y,z
x,1/2-y,1/2+z
loop_
_atom_site_type_symbol
_atom_site_label
_atom_site_fract_x
_atom_site_fract_y
_atom_site_fract_z
Si Si1 0.037936 0.395182 0.957879
Si Si2 0.059363 0.558193 0.087796
Si Si3 0.000000 0.750000 0.388398
Si Si4 0.139778 0.351400 0.868856
Si Si5 0.306910 0.982315 0.995932
Si Si6 0.393470 0.227526 0.817137
Si Si7 0.135676 0.567541 0.323351
Si Si8 0.853982 0.321482 0.980186
O O1 0.051249 0.497747 0.994229
O O2 0.018219 0.332387 0.042927
O O3 0.086633 0.354453 0.916422
O O4 0.993254 0.403962 0.886661
O O5 0.085601 0.485322 0.153153
O O6 0.097276 0.638528 0.067907
O O7 0.048038 0.777532 0.330095
O O8 0.129141 0.338990 0.760510
O O9 0.169165 0.440816 0.902795
O O10 0.164935 0.261802 0.916322
O O11 0.334169 0.931319 0.081457
O O12 0.250000 0.965656 0.000000
O O13 0.319043 0.090405 0.009371
O O14 0.377742 0.331454 0.788909
O O15 0.370042 0.210739 0.917880
O O16 0.161521 0.500000 0.250000
#
# Coordination Sequence:
#
# PCOD9530222 Si02
#       8
#    16  16   8  16  16  16  16  16
#     4  11  19  37  61  90 135 179 224 267 326 390
#     4  10  19  35  65  89 127 180 218 264 325 386
#     4  12  20  36  60  94 142 188 224 282 312 408
#     4  12  24  44  70  95 135 185 219 282 345 403
#     4  11  25  49  72  96 130 173 224 289 360 412
#     4  12  24  39  66 101 141 179 229 271 340 401
#     4  11  22  44  67  97 134 175 226 279 333 406
#     4  11  21  44  68  95 134 172 219 283 340 404
#
# _framework density 20.950472999999999
#
# number of rings (size 3 to 8) (size 9 to 14) (size 15 to 20)
#    0.000    0.800    8.000    1.600    0.000    3.733 
#    2.400    0.667    0.000    0.000    0.000    0.000 
#    0.000    0.000    0.000    0.000    0.000    0.000 
#
# Total GULP energy -335212.782900 kJ/mol
# GULP energy per Si atom -5586.879715 kJ/mol
# Density = 2.090279 g / cm^3
# Si number density = 20.950473 Si / 1000 Ang^3
#
#
#
# Elastic Constant Matrix: (Units=GPa)
#
#
# Indices 1 2 3 4 5 6 
#
# 1 94.5527 8.7115 22.5884 0.0000 0.0000 0.0000
# 2 8.7115 45.5463 -20.7277 0.0000 0.0000 0.0000
# 3 22.5884 -20.7277 55.5302 0.0000 0.0000 0.0000
# 4 0.0000 0.0000 0.0000 30.7396 0.0000 0.0000
# 5 0.0000 0.0000 0.0000 0.0000 2.7505 0.0000
# 6 0.0000 0.0000 0.0000 0.0000 0.0000 9.2294
#
#
#
# Elastic Compliance Matrix: (Units=1/GPa)
#
#
# Indices 1 2 3 4 5 6 
#
# 1 0.012888 -0.005844 -0.007424 0.000000 0.000000 0.000000
# 2 -0.005844 0.029098 0.013238 0.000000 0.000000 0.000000
# 3 -0.007424 0.013238 0.025970 0.000000 0.000000 0.000000
# 4 0.000000 0.000000 0.000000 0.032531 0.000000 0.000000
# 5 0.000000 0.000000 0.000000 0.000000 0.363568 0.000000
# 6 0.000000 0.000000 0.000000 0.000000 0.000000 0.108349
#
#
# Mechanical properties :
#
#
# Convention : Reuss Voigt Hill
#
# Bulk Modulus (GPa) = 14.72802 24.08595 19.40698
# Shear Modulus (GPa) = 8.40203 20.88104 14.64154
#
# Velocity S-wave (km/s) = 2.00478 3.16046 2.64647
# Velocity P-wave (km/s) = 3.52194 4.98393 4.31530
#
# Compressibility (1/GPa) = 0.06789779
#
# Stress axis : x y z
#
# Youngs Moduli (GPa) = 77.59151 34.36661 38.50670
#
# Poissons Ratio (x) = 0.20082 0.28586
# Poissons Ratio (y) = 0.45341 -0.50977
# Poissons Ratio (z) = 0.57602 -0.45496
#
# Static dielectric constant tensor:
#      x y z
#    x 1.742710 0.000000 0.000000 
#    y 0.000000 1.806200 0.000000 
#    z 0.000000 0.000000 1.814120 
# 
# From -- ./inp_files/20156.got.cif
#   From: 2010.05.17/outbox.cif.g08.bks.cpg/sg73_11_cif.got.tgz:20156.got - 2010.06.03 17:35:07.
