data_PCOD9530754
_publ_section_title
;
Structure prediction by ZEFSAII (Michael W. Deem and Ramdas Pophale) SiO2 
 PCOD9530754
Probable space group: I B C A 
;
_chemical_formula_sum "Si O2"
_cell_formula_units_Z 80
_cell_length_a 20.939175
_cell_length_b 16.501770
_cell_length_c 10.256616
_cell_angle_alpha 90.000000
_cell_angle_beta 90.000000
_cell_angle_gamma 90.000000
_cell_volume 3544.003910
_symmetry_space_group_name_H-M "I B C A "
_symmetry_group_IT_number 73
_symmetry_cell_setting 'orthorhombic'
loop_
_space_group_symop_operation_xyz
x,y,z
-x,1/2-y,z
x,-y,1/2-z
1/2-x,y,-z
-x,-y,-z
x,1/2+y,-z
-x,y,1/2+z
1/2+x,-y,z
1/2+x,1/2+y,1/2+z
1/2-x,-y,1/2+z
1/2+x,1/2-y,-z
-x,1/2+y,1/2-z
1/2-x,1/2-y,1/2-z
1/2+x,y,1/2-z
1/2-x,1/2+y,z
x,1/2-y,1/2+z
loop_
_atom_site_type_symbol
_atom_site_label
_atom_site_fract_x
_atom_site_fract_y
_atom_site_fract_z
Si Si1 0.387564 0.868557 0.466904
Si Si2 0.017107 0.000000 0.250000
Si Si3 0.750000 0.110778 0.500000
Si Si4 0.269243 0.500000 0.250000
Si Si5 0.915888 0.616973 0.829374
Si Si6 0.500000 0.750000 0.061887
Si Si7 0.877652 0.450632 0.418946
O O1 0.316130 0.838703 0.506608
O O2 0.387786 0.887540 0.313171
O O3 0.449915 0.811853 0.490394
O O4 0.388387 0.954614 0.543189
O O5 0.060097 0.063731 0.329861
O O6 0.970219 0.048344 0.156232
O O7 0.740948 0.052087 0.628656
O O8 0.316808 0.559546 0.328077
O O9 0.952041 0.699671 0.849909
O O10 0.870545 0.600188 0.950746
#
# Coordination Sequence:
#
# PCOD9530754 Si02
#       7
#    16   8   8   8  16   8  16
#     4  11  23  43  65  98 137 181 234 296 354 425
#     4  11  18  33  60  94 132 177 223 296 352 410
#     4  10  24  44  70 102 144 188 234 294 352 426
#     4   9  22  37  70 100 134 175 239 288 350 412
#     4  12  22  37  67  95 135 179 234 289 365 410
#     4  12  26  42  62 104 138 188 234 302 358 414
#     4  10  20  37  63  98 135 173 232 299 347 419
#
# _framework density 22.573340999999999
#
# number of rings (size 3 to 8) (size 9 to 14) (size 15 to 20)
#    0.000    1.200    4.000    2.400    5.600    0.000 
#    0.000    1.000    0.000    0.000    0.000    0.000 
#    0.000    0.000    0.000    0.000    0.000    0.000 
#
# Total GULP energy -222921.140904 kJ/mol
# GULP energy per Si atom -5573.028523 kJ/mol
# Density = 2.252196 g / cm^3
# Si number density = 22.573341 Si / 1000 Ang^3
#
#
#
# Elastic Constant Matrix: (Units=GPa)
#
#
# Indices 1 2 3 4 5 6 
#
# 1 114.9227 17.6695 34.0812 0.0000 0.0000 0.0000
# 2 17.6695 42.1677 17.0984 0.0000 0.0000 0.0000
# 3 34.0812 17.0984 138.9155 0.0000 0.0000 0.0000
# 4 0.0000 0.0000 0.0000 10.8196 0.0000 0.0000
# 5 0.0000 0.0000 0.0000 0.0000 45.5838 0.0000
# 6 0.0000 0.0000 0.0000 0.0000 0.0000 8.8578
#
#
#
# Elastic Compliance Matrix: (Units=1/GPa)
#
#
# Indices 1 2 3 4 5 6 
#
# 1 0.009801 -0.003296 -0.001999 0.000000 0.000000 0.000000
# 2 -0.003296 0.026069 -0.002400 0.000000 0.000000 0.000000
# 3 -0.001999 -0.002400 0.007984 0.000000 0.000000 0.000000
# 4 0.000000 0.000000 0.000000 0.092425 0.000000 0.000000
# 5 0.000000 0.000000 0.000000 0.000000 0.021938 0.000000
# 6 0.000000 0.000000 0.000000 0.000000 0.000000 0.112895
#
#
# Mechanical properties :
#
#
# Convention : Reuss Voigt Hill
#
# Bulk Modulus (GPa) = 35.13175 48.18933 41.66054
# Shear Modulus (GPa) = 16.89239 28.19602 22.54420
#
# Velocity S-wave (km/s) = 2.73854 3.53807 3.16366
# Velocity P-wave (km/s) = 5.05931 6.17129 5.64276
#
# Compressibility (1/GPa) = 0.02846428
#
# Stress axis : x y z
#
# Youngs Moduli (GPa) = 102.02938 38.35928 125.24402
#
# Poissons Ratio (x) = 0.12645 0.25034
# Poissons Ratio (y) = 0.33633 0.30058
# Poissons Ratio (z) = 0.20394 0.09206
#
# Static dielectric constant tensor:
#      x y z
#    x 1.950060 0.000000 0.000000 
#    y 0.000000 1.877890 0.000000 
#    z 0.000000 0.000000 1.837970 
# 
# From -- ./inp_files/7029.got.cif
#   From: 2010.05.17/outbox.cif.g08.bks.cpg/sg73_4_cif.got.tgz:7029.got - 2010.06.03 17:35:07.
