data_PCOD9530835
_publ_section_title
;
Structure prediction by ZEFSAII (Michael W. Deem and Ramdas Pophale) SiO2 
 PCOD9530835
Probable space group: I B C A 
;
_chemical_formula_sum "Si O2"
_cell_formula_units_Z 112
_cell_length_a 22.701132
_cell_length_b 15.671128
_cell_length_c 14.252529
_cell_angle_alpha 90.000000
_cell_angle_beta 90.000000
_cell_angle_gamma 90.000000
_cell_volume 5070.370618
_symmetry_space_group_name_H-M "I B C A "
_symmetry_group_IT_number 73
_symmetry_cell_setting 'orthorhombic'
loop_
_space_group_symop_operation_xyz
x,y,z
-x,1/2-y,z
x,-y,1/2-z
1/2-x,y,-z
-x,-y,-z
x,1/2+y,-z
-x,y,1/2+z
1/2+x,-y,z
1/2+x,1/2+y,1/2+z
1/2-x,-y,1/2+z
1/2+x,1/2-y,-z
-x,1/2+y,1/2-z
1/2-x,1/2-y,1/2-z
1/2+x,y,1/2-z
1/2-x,1/2+y,z
x,1/2-y,1/2+z
loop_
_atom_site_type_symbol
_atom_site_label
_atom_site_fract_x
_atom_site_fract_y
_atom_site_fract_z
Si Si1 0.222058 0.857772 0.655980
Si Si2 0.554284 0.689091 0.852193
Si Si3 0.078450 0.996703 0.137934
Si Si4 0.215142 0.680336 0.349365
Si Si5 0.213199 0.475679 0.904205
Si Si6 0.850434 0.741086 0.509513
Si Si7 0.949374 0.681784 0.370174
O O1 0.267166 0.778752 0.663637
O O2 0.184558 0.851099 0.752971
O O3 0.256591 0.945847 0.651175
O O4 0.188009 0.831809 0.560771
O O5 0.500000 0.750000 0.876140
O O6 0.543896 0.590846 0.879351
O O7 0.563319 0.693661 0.740309
O O8 0.611158 0.719135 0.907939
O O9 0.091026 0.000000 0.250000
O O10 0.143204 0.991220 0.090868
O O11 0.040860 0.080885 0.114701
O O12 0.270132 0.615785 0.358793
O O13 0.182704 0.685733 0.449474
O O14 0.250000 0.478100 0.000000
O O15 0.893339 0.701673 0.432842
O O16 0.000000 0.750000 0.394290
#
# Coordination Sequence:
#
# PCOD9530835 Si02
#       7
#    16  16  16  16  16  16  16
#     4  11  23  38  58  88 127 166 206 253 302 362
#     4  10  22  41  64  89 117 155 207 262 314 370
#     4  10  20  38  64  88 116 158 204 251 306 367
#     4  11  23  38  58  88 127 166 206 253 302 362
#     4  12  22  36  61  94 129 168 211 251 302 375
#     4  12  22  38  60  88 126 168 202 248 312 370
#     4  10  22  41  64  89 117 155 207 262 314 370
#
# _framework density 22.089113999999999
#
# number of rings (size 3 to 8) (size 9 to 14) (size 15 to 20)
#    0.000    1.143    0.000    8.143    0.000    4.571 
#    0.000    4.286    0.000    3.429    0.000    0.000 
#    0.000    0.000    0.000    0.000    0.000    0.000 
#
# Total GULP energy -312759.637953 kJ/mol
# GULP energy per Si atom -5584.993535 kJ/mol
# Density = 2.203884 g / cm^3
# Si number density = 22.089114 Si / 1000 Ang^3
#
#
#
# Elastic Constant Matrix: (Units=GPa)
#
#
# Indices 1 2 3 4 5 6 
#
# 1 77.2669 57.8332 42.1772 0.0000 0.0000 0.0000
# 2 57.8332 169.9288 33.2661 0.0000 0.0000 0.0000
# 3 42.1772 33.2661 102.1059 0.0000 0.0000 0.0000
# 4 0.0000 0.0000 0.0000 8.6794 0.0000 0.0000
# 5 0.0000 0.0000 0.0000 0.0000 37.8346 0.0000
# 6 0.0000 0.0000 0.0000 0.0000 0.0000 35.9005
#
#
#
# Elastic Compliance Matrix: (Units=1/GPa)
#
#
# Indices 1 2 3 4 5 6 
#
# 1 0.020998 -0.005819 -0.006778 0.000000 0.000000 0.000000
# 2 -0.005819 0.007899 -0.000169 0.000000 0.000000 0.000000
# 3 -0.006778 -0.000169 0.012649 0.000000 0.000000 0.000000
# 4 0.000000 0.000000 0.000000 0.115216 0.000000 0.000000
# 5 0.000000 0.000000 0.000000 0.000000 0.026431 0.000000
# 6 0.000000 0.000000 0.000000 0.000000 0.000000 0.027855
#
#
# Mechanical properties :
#
#
# Convention : Reuss Voigt Hill
#
# Bulk Modulus (GPa) = 62.45419 68.42828 65.44124
# Shear Modulus (GPa) = 20.66829 30.88456 25.77642
#
# Velocity S-wave (km/s) = 3.06220 3.74328 3.41974
# Velocity P-wave (km/s) = 6.39045 7.05184 6.72928
#
# Compressibility (1/GPa) = 0.01601174
#
# Stress axis : x y z
#
# Youngs Moduli (GPa) = 47.62452 126.60494 79.06008
#
# Poissons Ratio (x) = 0.73677 0.53583
# Poissons Ratio (y) = 0.27715 0.01340
# Poissons Ratio (z) = 0.32278 0.02146
#
# Static dielectric constant tensor:
#      x y z
#    x 1.798200 0.000000 0.000000 
#    y 0.000000 1.841900 0.000000 
#    z 0.000000 0.000000 1.939990 
# 
# From -- ./inp_files/17255.got.cif
#   From: 2010.05.17/outbox.cif.g08.bks.cpg/sg73_9_cif.got.tgz:17255.got - 2010.06.03 17:35:07.
