data_PCOD9530094
_publ_section_title
;
Structure prediction by ZEFSAII (Michael W. Deem and Ramdas Pophale) SiO2 
 PCOD9530094
Probable space group: I B C A 
;
_chemical_formula_sum "Si O2"
_cell_formula_units_Z 96
_cell_length_a 8.638014
_cell_length_b 28.075899
_cell_length_c 17.851235
_cell_angle_alpha 90.000000
_cell_angle_beta 90.000000
_cell_angle_gamma 90.000000
_cell_volume 4329.281666
_symmetry_space_group_name_H-M "I B C A "
_symmetry_group_IT_number 73
_symmetry_cell_setting 'orthorhombic'
loop_
_space_group_symop_operation_xyz
x,y,z
-x,1/2-y,z
x,-y,1/2-z
1/2-x,y,-z
-x,-y,-z
x,1/2+y,-z
-x,y,1/2+z
1/2+x,-y,z
1/2+x,1/2+y,1/2+z
1/2-x,-y,1/2+z
1/2+x,1/2-y,-z
-x,1/2+y,1/2-z
1/2-x,1/2-y,1/2-z
1/2+x,y,1/2-z
1/2-x,1/2+y,z
x,1/2-y,1/2+z
loop_
_atom_site_type_symbol
_atom_site_label
_atom_site_fract_x
_atom_site_fract_y
_atom_site_fract_z
Si Si1 0.874926 0.585398 0.774631
Si Si2 0.900986 0.971628 0.676101
Si Si3 0.930404 0.631496 0.016705
Si Si4 0.590790 0.433316 0.908301
Si Si5 0.368287 0.714205 0.062603
Si Si6 0.338706 0.639226 0.862536
O O1 0.734329 0.566904 0.825517
O O2 0.836826 0.630876 0.725894
O O3 0.939076 0.550758 0.707037
O O4 0.012502 0.588665 0.833282
O O5 0.849267 0.000000 0.750000
O O6 0.905333 0.010184 0.609755
O O7 0.988813 0.582081 0.979014
O O8 0.031891 0.672016 0.975661
O O9 0.750000 0.636928 0.000000
O O10 0.989947 0.637296 0.101679
O O11 0.750665 0.404093 0.907107
O O12 0.500000 0.750000 0.090870
O O13 0.254257 0.687140 0.118973
O O14 0.250000 0.735637 0.000000
#
# Coordination Sequence:
#
# PCOD9530094 Si02
#       6
#    16  16  16  16  16  16
#     4  11  20  35  58  83 111 154 211 253 293 349
#     4  10  19  32  55  80 106 148 211 254 280 347
#     4  10  22  38  58  87 122 156 194 250 309 357
#     4  10  21  35  57  80 116 160 209 248 297 356
#     4   9  18  36  63  90 119 154 192 240 295 368
#     4  10  21  37  57  86 124 150 195 257 301 349
#
# _framework density 22.174579999999999
#
# number of rings (size 3 to 8) (size 9 to 14) (size 15 to 20)
#    0.000    2.000    3.333    3.500    2.333    0.000 
#    0.000    0.833    3.667    4.000    0.000   10.500 
#    0.000   16.000    0.000    0.000    0.000    0.000 
#
# Total GULP energy -267493.568373 kJ/mol
# GULP energy per Si atom -5572.782674 kJ/mol
# Density = 2.212411 g / cm^3
# Si number density = 22.174580 Si / 1000 Ang^3
#
#
#
# Elastic Constant Matrix: (Units=GPa)
#
#
# Indices 1 2 3 4 5 6 
#
# 1 134.3875 31.3203 20.2984 0.0000 0.0000 0.0000
# 2 31.3203 61.5351 31.0879 0.0000 0.0000 0.0000
# 3 20.2984 31.0879 48.3927 0.0001 0.0000 0.0000
# 4 0.0000 0.0000 0.0001 10.2680 0.0000 0.0000
# 5 0.0000 0.0000 0.0000 0.0000 19.9444 0.0000
# 6 0.0000 0.0000 0.0000 0.0000 0.0000 27.0105
#
#
#
# Elastic Compliance Matrix: (Units=1/GPa)
#
#
# Indices 1 2 3 4 5 6 
#
# 1 0.008487 -0.003733 -0.001162 0.000000 0.000000 0.000000
# 2 -0.003733 0.025701 -0.014945 0.000000 0.000000 0.000000
# 3 -0.001162 -0.014945 0.030752 0.000000 0.000000 0.000000
# 4 0.000000 0.000000 0.000000 0.097390 0.000000 0.000000
# 5 0.000000 0.000000 0.000000 0.000000 0.050139 0.000000
# 6 0.000000 0.000000 0.000000 0.000000 0.000000 0.037023
#
#
# Mechanical properties :
#
#
# Convention : Reuss Voigt Hill
#
# Bulk Modulus (GPa) = 39.58632 45.52536 42.55584
# Shear Modulus (GPa) = 16.80161 22.21851 19.51006
#
# Velocity S-wave (km/s) = 2.75562 3.16884 2.96943
# Velocity P-wave (km/s) = 5.29296 5.82784 5.56683
#
# Compressibility (1/GPa) = 0.02526125
#
# Stress axis : x y z
#
# Youngs Moduli (GPa) = 117.83335 38.90914 32.51784
#
# Poissons Ratio (x) = 0.14523 0.03778
# Poissons Ratio (y) = 0.43981 0.48597
# Poissons Ratio (z) = 0.13691 0.58149
#
# Static dielectric constant tensor:
#      x y z
#    x 1.867000 0.000000 0.000000 
#    y 0.000000 1.911810 0.000000 
#    z 0.000000 0.000000 1.822090 
# 
# From -- ./inp_files/24884.got.cif
#   From: 2010.05.17/outbox.cif.g08.bks.cpg/sg73_13_cif.got.tgz:24884.got - 2010.06.03 17:35:07.
