data_PCOD9530487
_publ_section_title
;
Structure prediction by ZEFSAII (Michael W. Deem and Ramdas Pophale) SiO2 
 PCOD9530487
Probable space group: I B C A 
;
_chemical_formula_sum "Si O2"
_cell_formula_units_Z 80
_cell_length_a 21.375841
_cell_length_b 22.697601
_cell_length_c 8.792143
_cell_angle_alpha 90.000000
_cell_angle_beta 90.000000
_cell_angle_gamma 90.000000
_cell_volume 4265.774667
_symmetry_space_group_name_H-M "I B C A "
_symmetry_group_IT_number 73
_symmetry_cell_setting 'orthorhombic'
loop_
_space_group_symop_operation_xyz
x,y,z
-x,1/2-y,z
x,-y,1/2-z
1/2-x,y,-z
-x,-y,-z
x,1/2+y,-z
-x,y,1/2+z
1/2+x,-y,z
1/2+x,1/2+y,1/2+z
1/2-x,-y,1/2+z
1/2+x,1/2-y,-z
-x,1/2+y,1/2-z
1/2-x,1/2-y,1/2-z
1/2+x,y,1/2-z
1/2-x,1/2+y,z
x,1/2-y,1/2+z
loop_
_atom_site_type_symbol
_atom_site_label
_atom_site_fract_x
_atom_site_fract_y
_atom_site_fract_z
Si Si1 0.500000 0.250000 0.829108
Si Si2 0.423634 0.939706 0.453757
Si Si3 0.716176 0.941114 0.838118
Si Si4 0.473511 0.000000 0.750000
Si Si5 0.076662 0.193903 0.919321
Si Si6 0.280779 0.306245 0.666548
O O1 0.474216 0.299431 0.714830
O O2 0.443444 0.235111 0.941886
O O3 0.357365 0.949988 0.373191
O O4 0.479378 0.956044 0.338152
O O5 0.425558 0.870925 0.486008
O O6 0.432994 0.972926 0.613308
O O7 0.725597 0.874282 0.770074
O O8 0.737866 0.000000 0.750000
O O9 0.750000 0.940259 0.000000
O O10 0.145334 0.205404 0.854234
O O11 0.250000 0.308367 0.500000
O O12 0.250000 0.250000 0.750000
#
# Coordination Sequence:
#
# PCOD9530487 Si02
#       6
#     8  16  16   8  16  16
#     4  10  20  34  54  82 110 152 184 234 292 342
#     4  10  20  36  56  83 114 149 188 239 286 344
#     4  10  22  39  58  83 118 152 193 242 292 347
#     4  10  20  34  58  84 114 150 190 230 288 352
#     4  10  20  35  56  80 115 145 191 236 286 345
#     4  10  21  38  60  83 113 151 192 242 288 343
#
# _framework density 18.753921999999999
#
# number of rings (size 3 to 8) (size 9 to 14) (size 15 to 20)
#    0.000    2.000    1.000    2.400    1.400    0.800 
#    0.000    0.000    4.400    0.000    0.000    0.000 
#    0.000    0.000    0.000    0.000    0.000    0.000 
#
# Total GULP energy -222737.485369 kJ/mol
# GULP energy per Si atom -5568.437134 kJ/mol
# Density = 1.871124 g / cm^3
# Si number density = 18.753922 Si / 1000 Ang^3
#
#
#
# Elastic Constant Matrix: (Units=GPa)
#
#
# Indices 1 2 3 4 5 6 
#
# 1 53.5234 43.2608 3.8474 0.0000 0.0000 0.0000
# 2 43.2608 121.3921 42.3567 0.0000 0.0000 0.0000
# 3 3.8474 42.3567 58.0638 0.0000 0.0000 0.0000
# 4 0.0000 0.0000 0.0000 -4.4575 0.0000 0.0000
# 5 0.0000 0.0000 0.0000 0.0000 15.5319 0.0000
# 6 0.0000 0.0000 0.0000 0.0000 0.0000 44.1816
#
#
#
# Elastic Compliance Matrix: (Units=1/GPa)
#
#
# Indices 1 2 3 4 5 6 
#
# 1 0.028422 -0.012706 0.007385 0.000000 0.000000 0.000000
# 2 -0.012706 0.016731 -0.011363 0.000000 0.000000 0.000000
# 3 0.007385 -0.011363 0.025022 0.000000 0.000000 0.000000
# 4 0.000000 0.000000 0.000000 -0.224339 0.000000 0.000000
# 5 0.000000 0.000000 0.000000 0.000000 0.064384 0.000000
# 6 0.000000 0.000000 0.000000 0.000000 0.000000 0.022634
#
#
# Mechanical properties :
#
#
# Convention : Reuss Voigt Hill
#
# Bulk Modulus (GPa) = 27.16770 45.76766 36.46768
# Shear Modulus (GPa) = -232.44096 20.61881 -105.91107
#
# Velocity S-wave (km/s) = -11.14503 3.31938 -7.52308
# Velocity P-wave (km/s) = 12.29218 6.25686 7.48162
#
# Compressibility (1/GPa) = 0.03680841
#
# Stress axis : x y z
#
# Youngs Moduli (GPa) = 35.18379 59.77091 39.96472
#
# Poissons Ratio (x) = 0.75944 -0.29516
# Poissons Ratio (y) = 0.44704 0.45411
# Poissons Ratio (z) = -0.25985 0.67916
#
# Static dielectric constant tensor:
#      x y z
#    x 1.677670 0.000000 0.000000 
#    y 0.000000 1.687750 0.000000 
#    z 0.000000 0.000000 1.630550 
# 
# From -- ./inp_files/6231.got.cif
#   From: 2010.05.17/outbox.cif.g08.bks.cpg/sg73_4_cif.got.tgz:6231.got - 2010.06.03 17:35:07.
