data_PCOD9530162
_publ_section_title
;
Structure prediction by ZEFSAII (Michael W. Deem and Ramdas Pophale) SiO2 
 PCOD9530162
Probable space group: I B C A 
;
_chemical_formula_sum "Si O2"
_cell_formula_units_Z 112
_cell_length_a 18.315859
_cell_length_b 19.757251
_cell_length_c 17.240110
_cell_angle_alpha 90.000000
_cell_angle_beta 90.000000
_cell_angle_gamma 90.000000
_cell_volume 6238.696252
_symmetry_space_group_name_H-M "I B C A "
_symmetry_group_IT_number 73
_symmetry_cell_setting 'orthorhombic'
loop_
_space_group_symop_operation_xyz
x,y,z
-x,1/2-y,z
x,-y,1/2-z
1/2-x,y,-z
-x,-y,-z
x,1/2+y,-z
-x,y,1/2+z
1/2+x,-y,z
1/2+x,1/2+y,1/2+z
1/2-x,-y,1/2+z
1/2+x,1/2-y,-z
-x,1/2+y,1/2-z
1/2-x,1/2-y,1/2-z
1/2+x,y,1/2-z
1/2-x,1/2+y,z
x,1/2-y,1/2+z
loop_
_atom_site_type_symbol
_atom_site_label
_atom_site_fract_x
_atom_site_fract_y
_atom_site_fract_z
Si Si1 0.096492 0.062539 0.792743
Si Si2 0.555002 0.810102 0.420090
Si Si3 0.827450 0.676729 0.782438
Si Si4 0.661121 0.328139 0.721283
Si Si5 0.494682 0.965507 0.916824
Si Si6 0.046924 0.081469 0.183709
Si Si7 0.454800 0.185792 0.400639
O O1 0.140338 0.131589 0.787555
O O2 0.073688 0.035349 0.875993
O O3 0.020180 0.075578 0.745404
O O4 0.135102 0.000000 0.750000
O O5 0.500000 0.750000 0.394416
O O6 0.620746 0.812602 0.359515
O O7 0.525062 0.886712 0.419202
O O8 0.567854 0.797830 0.511497
O O9 0.744903 0.652691 0.794645
O O10 0.832818 0.756374 0.765560
O O11 0.882667 0.666204 0.853579
O O12 0.613471 0.381130 0.772692
O O13 0.442559 0.009113 0.858499
O O14 0.500000 0.000000 0.000000
O O15 0.013196 0.126452 0.113886
O O16 0.500000 0.250000 0.367871
#
# Coordination Sequence:
#
# PCOD9530162 Si02
#       7
#    16  16  16  16  16  16  16
#     4   9  19  35  56  83 111 151 193 239 290 339
#     4  11  23  36  59  92 114 154 198 247 294 347
#     4  10  22  38  59  85 119 156 197 242 300 360
#     4  11  22  37  59  88 117 155 197 246 298 356
#     4  11  20  35  58  89 119 147 197 248 289 345
#     4  10  19  34  60  84 113 151 189 247 289 343
#     4  10  19  35  59  84 116 150 192 242 298 350
#
# _framework density 17.952468
#
# number of rings (size 3 to 8) (size 9 to 14) (size 15 to 20)
#    0.000    1.714    4.286    0.857    2.000    0.571 
#    2.571    0.000    0.000    0.857    0.000    0.000 
#    0.000    0.000    0.000    0.000    0.000    0.000 
#
# Total GULP energy -311737.555731 kJ/mol
# GULP energy per Si atom -5566.742067 kJ/mol
# Density = 1.791161 g / cm^3
# Si number density = 17.952468 Si / 1000 Ang^3
#
#
#
# Elastic Constant Matrix: (Units=GPa)
#
#
# Indices 1 2 3 4 5 6 
#
# 1 104.5464 38.2302 48.0274 0.0000 0.0000 0.0000
# 2 38.2302 100.6415 9.7670 0.0000 0.0000 0.0000
# 3 48.0274 9.7670 80.4687 0.0000 0.0000 0.0000
# 4 0.0000 0.0000 0.0000 30.8993 0.0000 0.0000
# 5 0.0000 0.0000 0.0000 0.0000 12.1742 0.0000
# 6 0.0000 0.0000 0.0000 0.0000 0.0000 13.7264
#
#
#
# Elastic Compliance Matrix: (Units=1/GPa)
#
#
# Indices 1 2 3 4 5 6 
#
# 1 0.015308 -0.004987 -0.008531 0.000000 0.000000 0.000000
# 2 -0.004987 0.011679 0.001559 0.000000 0.000000 0.000000
# 3 -0.008531 0.001559 0.017330 0.000000 0.000000 0.000000
# 4 0.000000 0.000000 0.000000 0.032363 0.000000 0.000000
# 5 0.000000 0.000000 0.000000 0.000000 0.082141 0.000000
# 6 0.000000 0.000000 0.000000 0.000000 0.000000 0.072852
#
#
# Mechanical properties :
#
#
# Convention : Reuss Voigt Hill
#
# Bulk Modulus (GPa) = 49.02333 53.07845 51.05089
# Shear Modulus (GPa) = 19.05552 24.00212 21.52882
#
# Velocity S-wave (km/s) = 3.26151 3.66044 3.46672
# Velocity P-wave (km/s) = 6.44592 6.89169 6.67253
#
# Compressibility (1/GPa) = 0.02039845
#
# Stress axis : x y z
#
# Youngs Moduli (GPa) = 65.32589 85.62116 57.70418
#
# Poissons Ratio (x) = 0.42699 0.49228
# Poissons Ratio (y) = 0.32578 -0.08995
# Poissons Ratio (z) = 0.55730 -0.13347
#
# Static dielectric constant tensor:
#      x y z
#    x 1.604460 0.000000 0.000000 
#    y 0.000000 1.710590 0.000000 
#    z 0.000000 0.000000 1.651910 
# 
# From -- ./inp_files/22762.got.cif
#   From: 2010.05.17/outbox.cif.g08.bks.cpg/sg73_12_cif.got.tgz:22762.got - 2010.06.03 17:35:07.
