data_PCOD9530383
_publ_section_title
;
Structure prediction by ZEFSAII (Michael W. Deem and Ramdas Pophale) SiO2 
 PCOD9530383
Probable space group: I B C A 
;
_chemical_formula_sum "Si O2"
_cell_formula_units_Z 112
_cell_length_a 31.308988
_cell_length_b 14.595283
_cell_length_c 10.234227
_cell_angle_alpha 90.000000
_cell_angle_beta 90.000000
_cell_angle_gamma 90.000000
_cell_volume 4676.668602
_symmetry_space_group_name_H-M "I B C A "
_symmetry_group_IT_number 73
_symmetry_cell_setting 'orthorhombic'
loop_
_space_group_symop_operation_xyz
x,y,z
-x,1/2-y,z
x,-y,1/2-z
1/2-x,y,-z
-x,-y,-z
x,1/2+y,-z
-x,y,1/2+z
1/2+x,-y,z
1/2+x,1/2+y,1/2+z
1/2-x,-y,1/2+z
1/2+x,1/2-y,-z
-x,1/2+y,1/2-z
1/2-x,1/2-y,1/2-z
1/2+x,y,1/2-z
1/2-x,1/2+y,z
x,1/2-y,1/2+z
loop_
_atom_site_type_symbol
_atom_site_label
_atom_site_fract_x
_atom_site_fract_y
_atom_site_fract_z
Si Si1 0.373450 0.709641 0.011128
Si Si2 0.162403 0.545329 0.109980
Si Si3 0.031325 0.661599 0.033582
Si Si4 0.866890 0.894420 0.719530
Si Si5 0.783001 0.449241 0.390250
Si Si6 0.903547 0.896607 0.461456
Si Si7 0.989212 0.641298 0.800666
O O1 0.372077 0.658248 0.148132
O O2 0.369286 0.814525 0.056881
O O3 0.344992 0.654250 0.906019
O O4 0.421135 0.697844 0.953532
O O5 0.174389 0.500000 0.250000
O O6 0.193829 0.520298 0.990396
O O7 0.117848 0.492653 0.076115
O O8 0.017140 0.602878 0.157025
O O9 0.000000 0.750000 0.023050
O O10 0.025737 0.608321 0.898084
O O11 0.819929 0.878342 0.655289
O O12 0.906011 0.887852 0.618145
O O13 0.864208 0.000000 0.750000
O O14 0.769659 0.500000 0.250000
O O15 0.750000 0.908863 0.500000
O O16 0.945035 0.874393 0.378368
O O17 0.000000 0.750000 0.777400
#
# Coordination Sequence:
#
# PCOD9530383 Si02
#       7
#    16  16  16  16  16  16  16
#     4  12  22  39  67  91 134 174 225 290 328 404
#     4  11  24  42  62 101 133 167 233 278 331 410
#     4  10  21  34  55  86 119 167 218 280 334 391
#     4  10  22  43  63 100 132 169 225 273 329 412
#     4  10  19  41  69 102 135 175 216 266 332 410
#     4  11  23  37  66  92 127 179 221 280 344 392
#     4  10  20  36  53  88 122 159 232 272 331 408
#
# _framework density 23.948671999999998
#
# number of rings (size 3 to 8) (size 9 to 14) (size 15 to 20)
#    0.000    1.429    7.143    1.286    6.000    0.000 
#    0.000    0.714    0.000    6.857    0.000    0.000 
#    0.000    0.000    0.000    0.000    0.000    0.000 
#
# Total GULP energy -311783.821590 kJ/mol
# GULP energy per Si atom -5567.568243 kJ/mol
# Density = 2.389416 g / cm^3
# Si number density = 23.948672 Si / 1000 Ang^3
#
#
#
# Elastic Constant Matrix: (Units=GPa)
#
#
# Indices 1 2 3 4 5 6 
#
# 1 60.3514 1.4799 7.9391 0.0000 0.0000 0.0000
# 2 1.4799 57.0340 -13.0209 0.0000 0.0000 0.0000
# 3 7.9391 -13.0209 161.9918 0.0000 0.0000 0.0000
# 4 0.0000 0.0000 0.0000 20.1646 0.0000 0.0000
# 5 0.0000 0.0000 0.0000 0.0000 8.7526 0.0000
# 6 0.0000 0.0000 0.0000 0.0000 0.0000 11.7212
#
#
#
# Elastic Compliance Matrix: (Units=1/GPa)
#
#
# Indices 1 2 3 4 5 6 
#
# 1 0.016699 -0.000632 -0.000869 0.000000 0.000000 0.000000
# 2 -0.000632 0.017885 0.001469 0.000000 0.000000 0.000000
# 3 -0.000869 0.001469 0.006334 0.000000 0.000000 0.000000
# 4 0.000000 0.000000 0.000000 0.049592 0.000000 0.000000
# 5 0.000000 0.000000 0.000000 0.000000 0.114252 0.000000
# 6 0.000000 0.000000 0.000000 0.000000 0.000000 0.085315
#
#
# Mechanical properties :
#
#
# Convention : Reuss Voigt Hill
#
# Bulk Modulus (GPa) = 24.47768 30.24148 27.35958
# Shear Modulus (GPa) = 16.46036 26.99297 21.72666
#
# Velocity S-wave (km/s) = 2.62452 3.36090 3.01527
# Velocity P-wave (km/s) = 4.40763 5.26459 4.85505
#
# Compressibility (1/GPa) = 0.04085355
#
# Stress axis : x y z
#
# Youngs Moduli (GPa) = 59.88224 55.91254 157.88329
#
# Poissons Ratio (x) = 0.03532 0.13723
# Poissons Ratio (y) = 0.03783 -0.23186
# Poissons Ratio (z) = 0.05205 -0.08211
#
# Static dielectric constant tensor:
#      x y z
#    x 2.005110 0.000000 0.000000 
#    y 0.000000 2.039820 0.000000 
#    z 0.000000 0.000000 2.099580 
# 
# From -- ./inp_files/14804.got.cif
#   From: 2010.05.17/outbox.cif.g08.bks.cpg/sg73_8_cif.got.tgz:14804.got - 2010.06.03 17:35:07.
