data_PCOD9530602
_publ_section_title
;
Structure prediction by ZEFSAII (Michael W. Deem and Ramdas Pophale) SiO2 
 PCOD9530602
Probable space group: I B C A 
;
_chemical_formula_sum "Si O2"
_cell_formula_units_Z 120
_cell_length_a 21.048751
_cell_length_b 18.659756
_cell_length_c 16.499308
_cell_angle_alpha 90.000000
_cell_angle_beta 90.000000
_cell_angle_gamma 90.000000
_cell_volume 6480.343410
_symmetry_space_group_name_H-M "I B C A "
_symmetry_group_IT_number 73
_symmetry_cell_setting 'orthorhombic'
loop_
_space_group_symop_operation_xyz
x,y,z
-x,1/2-y,z
x,-y,1/2-z
1/2-x,y,-z
-x,-y,-z
x,1/2+y,-z
-x,y,1/2+z
1/2+x,-y,z
1/2+x,1/2+y,1/2+z
1/2-x,-y,1/2+z
1/2+x,1/2-y,-z
-x,1/2+y,1/2-z
1/2-x,1/2-y,1/2-z
1/2+x,y,1/2-z
1/2-x,1/2+y,z
x,1/2-y,1/2+z
loop_
_atom_site_type_symbol
_atom_site_label
_atom_site_fract_x
_atom_site_fract_y
_atom_site_fract_z
Si Si1 0.618559 0.960299 0.390152
Si Si2 0.789709 0.500000 0.250000
Si Si3 0.425219 0.729632 0.996781
Si Si4 0.167010 0.421476 0.225213
Si Si5 0.886038 0.617815 0.947910
Si Si6 0.548103 0.150292 0.226399
Si Si7 0.909403 0.300543 0.815940
Si Si8 0.032781 0.905899 0.407430
O O1 0.640762 0.919716 0.471161
O O2 0.586803 0.901686 0.331588
O O3 0.669116 0.999666 0.331788
O O4 0.566430 0.018316 0.416496
O O5 0.741572 0.567085 0.242829
O O6 0.500000 0.750000 0.986303
O O7 0.395402 0.718745 0.908539
O O8 0.391436 0.796302 0.040643
O O9 0.428372 0.655572 0.045300
O O10 0.138907 0.500000 0.250000
O O11 0.151873 0.405169 0.131854
O O12 0.137193 0.357951 0.277265
O O13 0.959798 0.594313 0.935903
O O14 0.583966 0.226375 0.233478
O O15 0.480021 0.165954 0.186398
O O16 0.535081 0.115744 0.313081
#
# Coordination Sequence:
#
# PCOD9530602 Si02
#       8
#    16   8  16  16  16  16  16  16
#     4  12  23  41  63  90 130 164 212 266 322 381
#     4  10  26  46  60  88 118 178 224 268 312 352
#     4  10  20  36  56  96 135 161 194 246 327 404
#     4  10  25  41  64  87 121 171 225 269 305 371
#     4  11  22  39  62  96 127 162 213 262 329 383
#     4  11  20  35  63  94 129 167 190 256 335 403
#     4  11  20  38  61  94 132 163 198 252 335 392
#     4  11  22  32  62  96 128 160 202 255 327 401
#
# _framework density 18.517536
#
# number of rings (size 3 to 8) (size 9 to 14) (size 15 to 20)
#    0.400    0.800    5.333    2.000    7.467    0.533 
#    0.000    0.667    0.000    0.000    0.000    0.000 
#    0.000    0.000    0.000    0.000    0.000    0.000 
#
# Total GULP energy -334874.730687 kJ/mol
# GULP energy per Si atom -5581.245511 kJ/mol
# Density = 1.847539 g / cm^3
# Si number density = 18.517536 Si / 1000 Ang^3
#
#
#
# Elastic Constant Matrix: (Units=GPa)
#
#
# Indices 1 2 3 4 5 6 
#
# 1 40.7309 27.6838 17.4259 0.0000 0.0000 0.0000
# 2 27.6838 78.0803 32.9495 0.0000 0.0000 0.0000
# 3 17.4259 32.9495 111.2239 0.0000 0.0000 0.0000
# 4 0.0000 0.0000 0.0000 33.3008 0.0000 0.0000
# 5 0.0000 0.0000 0.0000 0.0000 42.7338 0.0000
# 6 0.0000 0.0000 0.0000 0.0000 0.0000 7.9318
#
#
#
# Elastic Compliance Matrix: (Units=1/GPa)
#
#
# Indices 1 2 3 4 5 6 
#
# 1 0.032705 -0.010781 -0.001930 0.000000 0.000000 0.000000
# 2 -0.010781 0.018191 -0.003700 0.000000 0.000000 0.000000
# 3 -0.001930 -0.003700 0.010389 0.000000 0.000000 0.000000
# 4 0.000000 0.000000 0.000000 0.030029 0.000000 0.000000
# 5 0.000000 0.000000 0.000000 0.000000 0.023401 0.000000
# 6 0.000000 0.000000 0.000000 0.000000 0.000000 0.126074
#
#
# Mechanical properties :
#
#
# Convention : Reuss Voigt Hill
#
# Bulk Modulus (GPa) = 35.13340 42.90595 39.01968
# Shear Modulus (GPa) = 17.66162 26.92502 22.29332
#
# Velocity S-wave (km/s) = 3.09168 3.81731 3.47350
# Velocity P-wave (km/s) = 5.63550 6.53069 6.09954
#
# Compressibility (1/GPa) = 0.02846295
#
# Stress axis : x y z
#
# Youngs Moduli (GPa) = 30.57653 54.97164 96.25239
#
# Poissons Ratio (x) = 0.59266 0.18578
# Poissons Ratio (y) = 0.32965 0.35613
# Poissons Ratio (z) = 0.05902 0.20339
#
# Static dielectric constant tensor:
#      x y z
#    x 1.627360 0.000000 0.000000 
#    y 0.000000 1.639290 0.000000 
#    z 0.000000 0.000000 1.642800 
# 
# From -- ./inp_files/19535.got.cif
#   From: 2010.05.17/outbox.cif.g08.bks.cpg/sg73_10_cif.got.tgz:19535.got - 2010.06.03 17:35:07.
