data_PCOD9530516
_publ_section_title
;
Structure prediction by ZEFSAII (Michael W. Deem and Ramdas Pophale) SiO2 
 PCOD9530516
Probable space group: I B C A 
;
_chemical_formula_sum "Si O2"
_cell_formula_units_Z 88
_cell_length_a 11.233309
_cell_length_b 19.198504
_cell_length_c 17.603611
_cell_angle_alpha 90.000000
_cell_angle_beta 90.000000
_cell_angle_gamma 90.000000
_cell_volume 3796.442767
_symmetry_space_group_name_H-M "I B C A "
_symmetry_group_IT_number 73
_symmetry_cell_setting 'orthorhombic'
loop_
_space_group_symop_operation_xyz
x,y,z
-x,1/2-y,z
x,-y,1/2-z
1/2-x,y,-z
-x,-y,-z
x,1/2+y,-z
-x,y,1/2+z
1/2+x,-y,z
1/2+x,1/2+y,1/2+z
1/2-x,-y,1/2+z
1/2+x,1/2-y,-z
-x,1/2+y,1/2-z
1/2-x,1/2-y,1/2-z
1/2+x,y,1/2-z
1/2-x,1/2+y,z
x,1/2-y,1/2+z
loop_
_atom_site_type_symbol
_atom_site_label
_atom_site_fract_x
_atom_site_fract_y
_atom_site_fract_z
Si Si1 0.000000 0.750000 0.059648
Si Si2 0.338070 0.511129 0.568910
Si Si3 0.308329 0.602431 0.345052
Si Si4 0.255342 0.244618 0.409797
Si Si5 0.626635 0.709770 0.724554
Si Si6 0.502888 0.598919 0.475056
O O1 0.883359 0.757917 0.111004
O O2 0.993578 0.680526 0.010875
O O3 0.250000 0.530776 0.500000
O O4 0.276169 0.535127 0.646538
O O5 0.456449 0.554884 0.546795
O O6 0.372473 0.431302 0.554479
O O7 0.229910 0.664145 0.384929
O O8 0.360027 0.636207 0.268316
O O9 0.418625 0.589623 0.401187
O O10 0.250000 0.251722 0.500000
O O11 0.346583 0.292767 0.365588
O O12 0.500000 0.750000 0.734551
O O13 0.750000 0.750000 0.750000
#
# Coordination Sequence:
#
# PCOD9530516 Si02
#       6
#     8  16  16  16  16  16
#     4  10  20  34  60 100 132 170 222 308 364 418
#     4   9  17  34  56  93 129 190 230 287 358 432
#     4   9  18  35  61  88 130 181 226 282 361 430
#     4  10  21  36  61  96 135 173 229 298 366 426
#     4  10  23  39  65  96 135 188 231 289 368 440
#     4   9  18  31  60  88 135 176 239 287 358 417
#
# _framework density 23.179594999999999
#
# number of rings (size 3 to 8) (size 9 to 14) (size 15 to 20)
#    0.000    2.545    0.000    2.727   12.727    0.727 
#    0.000    0.000    0.000    1.091    0.000    0.000 
#    0.000    0.000    0.000    0.000    0.000    0.000 
#
# Total GULP energy -244993.378651 kJ/mol
# GULP energy per Si atom -5568.031333 kJ/mol
# Density = 2.312684 g / cm^3
# Si number density = 23.179595 Si / 1000 Ang^3
#
#
#
# Elastic Constant Matrix: (Units=GPa)
#
#
# Indices 1 2 3 4 5 6 
#
# 1 109.2953 29.4267 41.5443 0.0000 0.0000 0.0000
# 2 29.4267 76.5539 25.2651 0.0000 0.0000 0.0000
# 3 41.5443 25.2651 104.2627 0.0000 0.0000 0.0000
# 4 0.0000 0.0000 0.0000 22.2607 0.0000 0.0000
# 5 0.0000 0.0000 0.0000 0.0000 27.1322 0.0000
# 6 0.0000 0.0000 0.0000 0.0000 0.0000 37.9557
#
#
#
# Elastic Compliance Matrix: (Units=1/GPa)
#
#
# Indices 1 2 3 4 5 6 
#
# 1 0.011439 -0.003144 -0.003796 0.000000 0.000000 0.000000
# 2 -0.003144 0.015062 -0.002397 0.000000 0.000000 0.000000
# 3 -0.003796 -0.002397 0.011685 0.000000 0.000000 0.000000
# 4 0.000000 0.000000 0.000000 0.044922 0.000000 0.000000
# 5 0.000000 0.000000 0.000000 0.000000 0.036857 0.000000
# 6 0.000000 0.000000 0.000000 0.000000 0.000000 0.026346
#
#
# Mechanical properties :
#
#
# Convention : Reuss Voigt Hill
#
# Bulk Modulus (GPa) = 51.25253 53.62047 52.43650
# Shear Modulus (GPa) = 29.15626 30.39479 29.77552
#
# Velocity S-wave (km/s) = 3.55045 3.62508 3.58796
# Velocity P-wave (km/s) = 6.24233 6.38000 6.31154
#
# Compressibility (1/GPa) = 0.01951123
#
# Stress axis : x y z
#
# Youngs Moduli (GPa) = 87.42029 66.39033 85.58284
#
# Poissons Ratio (x) = 0.20875 0.32488
# Poissons Ratio (y) = 0.27487 0.20515
# Poissons Ratio (z) = 0.33185 0.15914
#
# Static dielectric constant tensor:
#      x y z
#    x 2.010760 0.000000 0.000000 
#    y 0.000000 1.952280 0.000000 
#    z 0.000000 0.000000 2.011040 
# 
# From -- ./inp_files/25353.got.cif
#   From: 2010.05.17/outbox.cif.g08.bks.cpg/sg73_13_cif.got.tgz:25353.got - 2010.06.03 17:35:07.
