data_PCOD9530485
_publ_section_title
;
Structure prediction by ZEFSAII (Michael W. Deem and Ramdas Pophale) SiO2 
 PCOD9530485
Probable space group: I B C A 
;
_chemical_formula_sum "Si O2"
_cell_formula_units_Z 96
_cell_length_a 9.231756
_cell_length_b 21.460518
_cell_length_c 25.406722
_cell_angle_alpha 90.000000
_cell_angle_beta 90.000000
_cell_angle_gamma 90.000000
_cell_volume 5033.535703
_symmetry_space_group_name_H-M "I B C A "
_symmetry_group_IT_number 73
_symmetry_cell_setting 'orthorhombic'
loop_
_space_group_symop_operation_xyz
x,y,z
-x,1/2-y,z
x,-y,1/2-z
1/2-x,y,-z
-x,-y,-z
x,1/2+y,-z
-x,y,1/2+z
1/2+x,-y,z
1/2+x,1/2+y,1/2+z
1/2-x,-y,1/2+z
1/2+x,1/2-y,-z
-x,1/2+y,1/2-z
1/2-x,1/2-y,1/2-z
1/2+x,y,1/2-z
1/2-x,1/2+y,z
x,1/2-y,1/2+z
loop_
_atom_site_type_symbol
_atom_site_label
_atom_site_fract_x
_atom_site_fract_y
_atom_site_fract_z
Si Si1 0.131142 0.872421 0.824007
Si Si2 0.826523 0.344324 0.143283
Si Si3 0.527974 0.502339 0.124748
Si Si4 0.266786 0.563173 0.062100
Si Si5 0.831648 0.735429 0.195324
Si Si6 0.844069 0.560521 0.718290
O O1 0.116566 0.934348 0.860004
O O2 0.278778 0.832977 0.823171
O O3 0.104153 0.893860 0.764004
O O4 0.992866 0.832399 0.841997
O O5 0.807513 0.368967 0.084254
O O6 0.729996 0.285208 0.154377
O O7 0.768740 0.401085 0.181785
O O8 0.385830 0.521118 0.092801
O O9 0.616420 0.458341 0.086424
O O10 0.528612 0.465510 0.180375
O O11 0.250000 0.558100 0.000000
O O12 0.750000 0.750000 0.250000
O O13 0.000000 0.750000 0.201886
O O14 0.783666 0.500000 0.750000
#
# Coordination Sequence:
#
# PCOD9530485 Si02
#       6
#    16  16  16  16  16  16
#     4  10  20  34  54  79 118 151 186 229 284 339
#     4  10  21  35  54  81 110 149 192 229 280 336
#     4   9  20  34  54  85 112 147 190 231 287 341
#     4  10  20  37  59  82 113 149 189 240 287 333
#     4  12  24  37  55  79 113 152 190 229 279 341
#     4   9  18  30  50  80 116 148 180 226 282 346
#
# _framework density 19.072082000000002
#
# number of rings (size 3 to 8) (size 9 to 14) (size 15 to 20)
#    0.000    2.000    1.667    2.000    0.000    8.667 
#    0.000    0.000    0.000    5.000    0.000    0.000 
#    0.000    0.000    0.000    0.000    0.000    0.000 
#
# Total GULP energy -267627.483141 kJ/mol
# GULP energy per Si atom -5575.572565 kJ/mol
# Density = 1.902867 g / cm^3
# Si number density = 19.072082 Si / 1000 Ang^3
#
#
#
# Elastic Constant Matrix: (Units=GPa)
#
#
# Indices 1 2 3 4 5 6 
#
# 1 81.6917 20.9133 24.0275 0.0000 0.0000 0.0000
# 2 20.9133 56.1830 13.8038 0.0000 0.0000 0.0000
# 3 24.0275 13.8038 96.2231 0.0000 0.0000 0.0000
# 4 0.0000 0.0000 0.0000 17.3710 0.0000 0.0000
# 5 0.0000 0.0000 0.0000 0.0000 20.2366 0.0000
# 6 0.0000 0.0000 0.0000 0.0000 0.0000 29.5632
#
#
#
# Elastic Compliance Matrix: (Units=1/GPa)
#
#
# Indices 1 2 3 4 5 6 
#
# 1 0.014273 -0.004599 -0.002904 0.000000 0.000000 0.000000
# 2 -0.004599 0.019931 -0.001711 0.000000 0.000000 0.000000
# 3 -0.002904 -0.001711 0.011363 0.000000 0.000000 0.000000
# 4 0.000000 0.000000 0.000000 0.057567 0.000000 0.000000
# 5 0.000000 0.000000 0.000000 0.000000 0.049416 0.000000
# 6 0.000000 0.000000 0.000000 0.000000 0.000000 0.033826
#
#
# Mechanical properties :
#
#
# Convention : Reuss Voigt Hill
#
# Bulk Modulus (GPa) = 36.84781 39.06522 37.95652
# Shear Modulus (GPa) = 23.38080 25.12436 24.25258
#
# Velocity S-wave (km/s) = 3.50511 3.63345 3.56986
# Velocity P-wave (km/s) = 5.97857 6.17495 6.07755
#
# Compressibility (1/GPa) = 0.02713865
#
# Stress axis : x y z
#
# Youngs Moduli (GPa) = 70.06353 50.17225 88.00388
#
# Poissons Ratio (x) = 0.23076 0.25558
# Poissons Ratio (y) = 0.32224 0.15056
# Poissons Ratio (z) = 0.20348 0.08584
#
# Static dielectric constant tensor:
#      x y z
#    x 1.706780 0.000000 0.000000 
#    y 0.000000 1.726800 0.000000 
#    z 0.000000 0.000000 1.642550 
# 
# From -- ./inp_files/7160.got.cif
#   From: 2010.05.17/outbox.cif.g08.bks.cpg/sg73_4_cif.got.tgz:7160.got - 2010.06.03 17:35:07.
