data_PCOD9530532
_publ_section_title
;
Structure prediction by ZEFSAII (Michael W. Deem and Ramdas Pophale) SiO2 
 PCOD9530532
Probable space group: I B C A 
;
_chemical_formula_sum "Si O2"
_cell_formula_units_Z 88
_cell_length_a 18.648167
_cell_length_b 22.372151
_cell_length_c 9.475460
_cell_angle_alpha 90.000000
_cell_angle_beta 90.000000
_cell_angle_gamma 90.000000
_cell_volume 3953.158198
_symmetry_space_group_name_H-M "I B C A "
_symmetry_group_IT_number 73
_symmetry_cell_setting 'orthorhombic'
loop_
_space_group_symop_operation_xyz
x,y,z
-x,1/2-y,z
x,-y,1/2-z
1/2-x,y,-z
-x,-y,-z
x,1/2+y,-z
-x,y,1/2+z
1/2+x,-y,z
1/2+x,1/2+y,1/2+z
1/2-x,-y,1/2+z
1/2+x,1/2-y,-z
-x,1/2+y,1/2-z
1/2-x,1/2-y,1/2-z
1/2+x,y,1/2-z
1/2-x,1/2+y,z
x,1/2-y,1/2+z
loop_
_atom_site_type_symbol
_atom_site_label
_atom_site_fract_x
_atom_site_fract_y
_atom_site_fract_z
Si Si1 0.422083 0.857451 0.381177
Si Si2 0.689281 0.846095 0.114686
Si Si3 0.146444 0.788270 0.863639
Si Si4 0.818838 0.107464 0.926229
Si Si5 0.966677 0.958761 0.620020
Si Si6 0.000000 0.250000 0.001199
O O1 0.383557 0.865118 0.532729
O O2 0.363403 0.830155 0.273421
O O3 0.468913 0.913794 0.334835
O O4 0.479391 0.805360 0.404931
O O5 0.687588 0.774624 0.147536
O O6 0.696281 0.879606 0.262335
O O7 0.750000 0.858806 0.000000
O O8 0.173136 0.829892 0.990208
O O9 0.066927 0.767817 0.905152
O O10 0.895604 0.074980 0.935056
O O11 0.750000 0.076503 0.000000
O O12 0.944890 0.000000 0.750000
O O13 0.000000 0.000000 0.500000
#
# Coordination Sequence:
#
# PCOD9530532 Si02
#       6
#    16  16  16  16  16   8
#     4  11  23  41  70 103 139 181 232 286 357 412
#     4  11  24  42  66 106 150 186 223 278 351 435
#     4  11  22  37  67 105 146 186 223 276 350 426
#     4  12  26  46  70  99 139 188 238 287 351 424
#     4  12  27  49  73 101 136 182 241 303 349 408
#     4  10  20  34  66 106 144 170 224 276 350 422
#
# _framework density 22.260684000000001
#
# number of rings (size 3 to 8) (size 9 to 14) (size 15 to 20)
#    0.000    0.727    1.818    6.545    5.091    2.182 
#    0.000    6.364    0.000    0.000    0.000    0.000 
#    0.000    0.000    0.000    0.000    0.000    0.000 
#
# Total GULP energy -246172.179422 kJ/mol
# GULP energy per Si atom -5594.822260 kJ/mol
# Density = 2.221002 g / cm^3
# Si number density = 22.260684 Si / 1000 Ang^3
#
#
#
# Elastic Constant Matrix: (Units=GPa)
#
#
# Indices 1 2 3 4 5 6 
#
# 1 100.5223 35.7177 26.6844 0.0000 0.0000 0.0000
# 2 35.7177 65.5101 25.5964 0.0000 0.0000 0.0000
# 3 26.6844 25.5964 113.9854 0.0000 0.0000 0.0000
# 4 0.0000 0.0000 0.0000 53.0607 0.0000 0.0000
# 5 0.0000 0.0000 0.0000 0.0000 34.6498 0.0000
# 6 0.0000 0.0000 0.0000 0.0000 0.0000 13.9738
#
#
#
# Elastic Compliance Matrix: (Units=1/GPa)
#
#
# Indices 1 2 3 4 5 6 
#
# 1 0.012580 -0.006257 -0.001540 0.000000 0.000000 0.000000
# 2 -0.006257 0.019845 -0.002992 0.000000 0.000000 0.000000
# 3 -0.001540 -0.002992 0.009805 0.000000 0.000000 0.000000
# 4 0.000000 0.000000 0.000000 0.018846 0.000000 0.000000
# 5 0.000000 0.000000 0.000000 0.000000 0.028860 0.000000
# 6 0.000000 0.000000 0.000000 0.000000 0.000000 0.071562
#
#
# Mechanical properties :
#
#
# Convention : Reuss Voigt Hill
#
# Bulk Modulus (GPa) = 48.41865 50.66831 49.54348
# Shear Modulus (GPa) = 26.32107 33.13815 29.72961
#
# Velocity S-wave (km/s) = 3.44234 3.86248 3.65844
# Velocity P-wave (km/s) = 6.13168 6.53471 6.33640
#
# Compressibility (1/GPa) = 0.02065320
#
# Stress axis : x y z
#
# Youngs Moduli (GPa) = 79.49004 50.38958 101.98518
#
# Poissons Ratio (x) = 0.31530 0.15705
# Poissons Ratio (y) = 0.49740 0.30510
# Poissons Ratio (z) = 0.12241 0.15074
#
# Static dielectric constant tensor:
#      x y z
#    x 1.880190 0.000000 0.000000 
#    y 0.000000 1.849520 0.000000 
#    z 0.000000 0.000000 1.857590 
# 
# From -- ./inp_files/6316.got.cif
#   From: 2010.05.17/outbox.cif.g08.bks.cpg/sg73_4_cif.got.tgz:6316.got - 2010.06.03 17:35:07.
