data_PCOD9530304
_publ_section_title
;
Structure prediction by ZEFSAII (Michael W. Deem and Ramdas Pophale) SiO2 
 PCOD9530304
Probable space group: I B C A 
;
_chemical_formula_sum "Si O2"
_cell_formula_units_Z 112
_cell_length_a 12.899335
_cell_length_b 14.236341
_cell_length_c 29.829561
_cell_angle_alpha 90.000000
_cell_angle_beta 90.000000
_cell_angle_gamma 90.000000
_cell_volume 5477.880648
_symmetry_space_group_name_H-M "I B C A "
_symmetry_group_IT_number 73
_symmetry_cell_setting 'orthorhombic'
loop_
_space_group_symop_operation_xyz
x,y,z
-x,1/2-y,z
x,-y,1/2-z
1/2-x,y,-z
-x,-y,-z
x,1/2+y,-z
-x,y,1/2+z
1/2+x,-y,z
1/2+x,1/2+y,1/2+z
1/2-x,-y,1/2+z
1/2+x,1/2-y,-z
-x,1/2+y,1/2-z
1/2-x,1/2-y,1/2-z
1/2+x,y,1/2-z
1/2-x,1/2+y,z
x,1/2-y,1/2+z
loop_
_atom_site_type_symbol
_atom_site_label
_atom_site_fract_x
_atom_site_fract_y
_atom_site_fract_z
Si Si1 0.484334 0.499119 0.102796
Si Si2 0.646958 0.008440 0.832342
Si Si3 0.111351 0.696525 0.578897
Si Si4 0.809957 0.778203 0.361082
Si Si5 0.572367 0.822728 0.056777
Si Si6 0.497735 0.000000 0.750000
Si Si7 0.141193 0.906136 0.314463
Si Si8 0.750000 0.719876 0.500000
O O1 0.595424 0.467562 0.122222
O O2 0.418561 0.412671 0.084765
O O3 0.488979 0.583441 0.067736
O O4 0.428498 0.551654 0.144876
O O5 0.657467 0.119667 0.842952
O O6 0.571377 0.980067 0.791803
O O7 0.756838 0.968607 0.818382
O O8 0.193296 0.719890 0.619061
O O9 0.179440 0.720109 0.534549
O O10 0.000000 0.750000 0.580556
O O11 0.885010 0.738805 0.400871
O O12 0.826630 0.700251 0.323260
O O13 0.500000 0.750000 0.030999
O O14 0.673763 0.844135 0.028776
O O15 0.421538 0.080325 0.768651
#
# Coordination Sequence:
#
# PCOD9530304 Si02
#       8
#    16  16  16  16  16   8  16   8
#     4  10  21  35  68  90 117 163 217 256 312 370
#     4  11  20  41  64  93 123 166 209 270 311 385
#     4  11  22  42  62  97 129 165 211 269 313 383
#     4  10  21  38  69  89 120 169 215 250 322 378
#     4  10  19  38  60  91 119 165 209 259 304 387
#     4  10  24  36  60  86 132 160 200 262 324 358
#     4  10  21  40  60  93 124 161 207 263 310 384
#     4  10  24  38  58  88 142 166 200 268 324 372
#
# _framework density 20.445862999999999
#
# number of rings (size 3 to 8) (size 9 to 14) (size 15 to 20)
#    0.000    1.714    2.857    1.714    0.000    0.571 
#    0.000    7.143    6.286    0.000    0.000    0.000 
#    0.000    0.000    0.000    0.000    0.000    0.000 
#
# Total GULP energy -312166.261587 kJ/mol
# GULP energy per Si atom -5574.397528 kJ/mol
# Density = 2.039933 g / cm^3
# Si number density = 20.445863 Si / 1000 Ang^3
#
#
#
# Elastic Constant Matrix: (Units=GPa)
#
#
# Indices 1 2 3 4 5 6 
#
# 1 106.3390 18.6553 27.9172 0.0000 0.0000 0.0000
# 2 18.6553 58.7639 14.6512 0.0000 0.0000 0.0000
# 3 27.9172 14.6512 58.5053 0.0000 0.0000 0.0000
# 4 0.0000 0.0000 0.0000 -2.5721 0.0000 0.0000
# 5 0.0000 0.0000 0.0000 0.0000 -57.8398 0.0000
# 6 0.0000 0.0000 0.0000 0.0000 0.0000 24.0253
#
#
#
# Elastic Compliance Matrix: (Units=1/GPa)
#
#
# Indices 1 2 3 4 5 6 
#
# 1 0.011044 -0.002338 -0.004684 0.000000 0.000000 0.000000
# 2 -0.002338 0.018645 -0.003554 0.000000 0.000000 0.000000
# 3 -0.004684 -0.003554 0.020218 0.000000 0.000000 0.000000
# 4 0.000000 0.000000 0.000000 -0.388782 0.000000 0.000000
# 5 0.000000 0.000000 0.000000 0.000000 -0.017289 0.000000
# 6 0.000000 0.000000 0.000000 0.000000 0.000000 0.041623
#
#
# Mechanical properties :
#
#
# Convention : Reuss Voigt Hill
#
# Bulk Modulus (GPa) = 34.77670 38.45063 36.61367
# Shear Modulus (GPa) = -17.61777 3.54832 -7.03473
#
# Velocity S-wave (km/s) = -2.93862 1.31880 -1.85691
# Velocity P-wave (km/s) = 2.35204 4.60064 3.65363
#
# Compressibility (1/GPa) = 0.02875488
#
# Stress axis : x y z
#
# Youngs Moduli (GPa) = 90.54828 53.63225 49.46180
#
# Poissons Ratio (x) = 0.12540 0.23169
# Poissons Ratio (y) = 0.21171 0.17577
# Poissons Ratio (z) = 0.42416 0.19059
#
# Static dielectric constant tensor:
#      x y z
#    x 1.792110 0.000000 0.000000 
#    y 0.000000 1.685880 0.000000 
#    z 0.000000 0.000000 1.790850 
# 
# From -- ./inp_files/34080.got.cif
#   From: 2010.05.17/outbox.cif.g08.bks.cpg/sg73_18_cif.got.tgz:34080.got - 2010.06.03 17:35:07.
