data_PCOD9530435
_publ_section_title
;
Structure prediction by ZEFSAII (Michael W. Deem and Ramdas Pophale) SiO2 
 PCOD9530435
Probable space group: I B C A 
;
_chemical_formula_sum "Si O2"
_cell_formula_units_Z 96
_cell_length_a 21.022083
_cell_length_b 9.046453
_cell_length_c 25.588605
_cell_angle_alpha 90.000000
_cell_angle_beta 90.000000
_cell_angle_gamma 90.000000
_cell_volume 4866.320270
_symmetry_space_group_name_H-M "I B C A "
_symmetry_group_IT_number 73
_symmetry_cell_setting 'orthorhombic'
loop_
_space_group_symop_operation_xyz
x,y,z
-x,1/2-y,z
x,-y,1/2-z
1/2-x,y,-z
-x,-y,-z
x,1/2+y,-z
-x,y,1/2+z
1/2+x,-y,z
1/2+x,1/2+y,1/2+z
1/2-x,-y,1/2+z
1/2+x,1/2-y,-z
-x,1/2+y,1/2-z
1/2-x,1/2-y,1/2-z
1/2+x,y,1/2-z
1/2-x,1/2+y,z
x,1/2-y,1/2+z
loop_
_atom_site_type_symbol
_atom_site_label
_atom_site_fract_x
_atom_site_fract_y
_atom_site_fract_z
Si Si1 0.781747 0.500000 0.250000
Si Si2 0.189908 0.277569 0.314467
Si Si3 0.361385 0.977184 0.391664
Si Si4 0.250000 0.797410 0.000000
Si Si5 0.046996 0.371587 0.483037
Si Si6 0.783648 0.049582 0.902947
Si Si7 0.861980 0.702796 0.423142
O O1 0.820285 0.362150 0.275474
O O2 0.735467 0.596129 0.288864
O O3 0.133325 0.372525 0.341019
O O4 0.219917 0.184397 0.362527
O O5 0.401115 0.918052 0.440439
O O6 0.285941 0.977016 0.404146
O O7 0.374774 0.152303 0.388636
O O8 0.205298 0.890712 0.038711
O O9 0.299561 0.722663 0.039388
O O10 0.081662 0.318765 0.535867
O O11 0.000000 0.250000 0.459837
O O12 0.000000 0.500000 0.500000
O O13 0.840951 0.939068 0.889816
#
# Coordination Sequence:
#
# PCOD9530435 Si02
#       7
#     8  16  16   8  16  16  16
#     4  10  24  40  60  92 134 158 196 262 332 396
#     4  11  22  38  62  91 130 167 197 252 324 392
#     4  11  22  37  58  87 120 169 212 255 306 372
#     4  10  20  32  54  90 126 164 208 244 298 366
#     4  12  25  42  55  83 131 179 223 256 296 351
#     4  11  21  34  59  92 126 166 210 245 307 384
#     4  11  21  35  55  83 126 169 210 254 291 361
#
# _framework density 19.727430999999999
#
# number of rings (size 3 to 8) (size 9 to 14) (size 15 to 20)
#    0.000    1.000    3.333    6.500    2.333    0.000 
#    0.000    0.000    0.000    0.000    0.000    1.167 
#    0.000    0.000    0.000    0.000    0.000    0.000 
#
# Total GULP energy -267436.024380 kJ/mol
# GULP energy per Si atom -5571.583841 kJ/mol
# Density = 1.968253 g / cm^3
# Si number density = 19.727431 Si / 1000 Ang^3
#
#
#
# Elastic Constant Matrix: (Units=GPa)
#
#
# Indices 1 2 3 4 5 6 
#
# 1 48.1359 34.4930 19.2223 0.0000 0.0000 0.0000
# 2 34.4930 143.2465 48.7096 0.0000 0.0000 0.0000
# 3 19.2223 48.7096 75.7786 0.0000 0.0000 0.0000
# 4 0.0000 0.0000 0.0000 43.4445 0.0000 0.0000
# 5 0.0000 0.0000 0.0000 0.0000 14.0083 0.0000
# 6 0.0000 0.0000 0.0000 0.0000 0.0000 22.5314
#
#
#
# Elastic Compliance Matrix: (Units=1/GPa)
#
#
# Indices 1 2 3 4 5 6 
#
# 1 0.025719 -0.005086 -0.003255 0.000000 0.000000 0.000000
# 2 -0.005086 0.009940 -0.005099 0.000000 0.000000 0.000000
# 3 -0.003255 -0.005099 0.017299 0.000000 0.000000 0.000000
# 4 0.000000 0.000000 0.000000 0.023018 0.000000 0.000000
# 5 0.000000 0.000000 0.000000 0.000000 0.071386 0.000000
# 6 0.000000 0.000000 0.000000 0.000000 0.000000 0.044383
#
#
# Mechanical properties :
#
#
# Convention : Reuss Voigt Hill
#
# Bulk Modulus (GPa) = 38.34579 52.44564 45.39571
# Shear Modulus (GPa) = 21.99576 26.97923 24.48749
#
# Velocity S-wave (km/s) = 3.34276 3.70212 3.52702
# Velocity P-wave (km/s) = 5.86334 6.70202 6.29666
#
# Compressibility (1/GPa) = 0.02607848
#
# Stress axis : x y z
#
# Youngs Moduli (GPa) = 38.88197 100.60833 57.80564
#
# Poissons Ratio (x) = 0.51172 0.18813
# Poissons Ratio (y) = 0.19777 0.29474
# Poissons Ratio (z) = 0.12654 0.51298
#
# Static dielectric constant tensor:
#      x y z
#    x 1.647780 0.000000 0.000000 
#    y 0.000000 1.844430 0.000000 
#    z 0.000000 0.000000 1.787620 
# 
# From -- ./inp_files/32626.got.cif
#   From: 2010.05.17/outbox.cif.g08.bks.cpg/sg73_17_cif.got.tgz:32626.got - 2010.06.03 17:35:07.
