data_PCOD9530279
_publ_section_title
;
Structure prediction by ZEFSAII (Michael W. Deem and Ramdas Pophale) SiO2 
 PCOD9530279
Probable space group: I B C A 
;
_chemical_formula_sum "Si O2"
_cell_formula_units_Z 88
_cell_length_a 14.726008
_cell_length_b 17.394314
_cell_length_c 17.859565
_cell_angle_alpha 90.000000
_cell_angle_beta 90.000000
_cell_angle_gamma 90.000000
_cell_volume 4574.706270
_symmetry_space_group_name_H-M "I B C A "
_symmetry_group_IT_number 73
_symmetry_cell_setting 'orthorhombic'
loop_
_space_group_symop_operation_xyz
x,y,z
-x,1/2-y,z
x,-y,1/2-z
1/2-x,y,-z
-x,-y,-z
x,1/2+y,-z
-x,y,1/2+z
1/2+x,-y,z
1/2+x,1/2+y,1/2+z
1/2-x,-y,1/2+z
1/2+x,1/2-y,-z
-x,1/2+y,1/2-z
1/2-x,1/2-y,1/2-z
1/2+x,y,1/2-z
1/2-x,1/2+y,z
x,1/2-y,1/2+z
loop_
_atom_site_type_symbol
_atom_site_label
_atom_site_fract_x
_atom_site_fract_y
_atom_site_fract_z
Si Si1 0.250000 0.883914 0.500000
Si Si2 0.534518 0.162353 0.085217
Si Si3 0.416076 0.526496 0.949579
Si Si4 0.335488 0.871889 0.053521
Si Si5 0.101725 0.716215 0.727792
Si Si6 0.771538 0.722258 0.356596
O O1 0.162465 0.937552 0.499819
O O2 0.248604 0.829854 0.427825
O O3 0.500000 0.250000 0.085745
O O4 0.456225 0.099278 0.094030
O O5 0.593869 0.155088 0.160404
O O6 0.588615 0.154221 0.007401
O O7 0.373865 0.450864 0.910927
O O8 0.500000 0.500000 0.000000
O O9 0.306313 0.804830 0.110759
O O10 0.250000 0.889019 0.000000
O O11 0.147377 0.690292 0.804860
O O12 0.179519 0.772179 0.692752
O O13 0.000000 0.750000 0.740593
#
# Coordination Sequence:
#
# PCOD9530279 Si02
#       6
#     8  16  16  16  16  16
#     4  12  20  38  62  92 114 148 216 256 300 378
#     4  10  19  37  62  88 121 160 204 254 303 362
#     4  10  23  35  60  91 123 159 195 254 321 365
#     4  11  19  37  59  90 124 156 198 257 313 364
#     4  10  21  37  58  88 122 154 200 251 305 364
#     4  11  22  36  65  90 114 160 204 256 308 365
#
# _framework density 19.236208999999999
#
# number of rings (size 3 to 8) (size 9 to 14) (size 15 to 20)
#    0.000    1.455    3.636    3.273    0.000    3.636 
#    0.000    0.909    0.000   45.818    0.000    0.000 
#    0.000    0.000    0.000    0.000    0.000    0.000 
#
# Total GULP energy -245013.232985 kJ/mol
# GULP energy per Si atom -5568.482568 kJ/mol
# Density = 1.919243 g / cm^3
# Si number density = 19.236209 Si / 1000 Ang^3
#
#
#
# Elastic Constant Matrix: (Units=GPa)
#
#
# Indices 1 2 3 4 5 6 
#
# 1 114.8426 31.4523 26.4072 0.0000 0.0000 0.0000
# 2 31.4523 101.7139 12.8799 0.0000 0.0000 0.0000
# 3 26.4072 12.8799 69.8244 0.0000 0.0000 0.0000
# 4 0.0000 0.0000 0.0000 -2.6891 0.0000 0.0000
# 5 0.0000 0.0000 0.0000 0.0000 37.3751 0.0000
# 6 0.0000 0.0000 0.0000 0.0000 0.0000 38.1088
#
#
#
# Elastic Compliance Matrix: (Units=1/GPa)
#
#
# Indices 1 2 3 4 5 6 
#
# 1 0.010231 -0.002738 -0.003364 0.000000 0.000000 0.000000
# 2 -0.002738 0.010799 -0.000957 0.000000 0.000000 0.000000
# 3 -0.003364 -0.000957 0.015770 0.000000 0.000000 0.000000
# 4 0.000000 0.000000 0.000000 -0.371878 0.000000 0.000000
# 5 0.000000 0.000000 0.000000 0.000000 0.026756 0.000000
# 6 0.000000 0.000000 0.000000 0.000000 0.000000 0.026241
#
#
# Mechanical properties :
#
#
# Convention : Reuss Voigt Hill
#
# Bulk Modulus (GPa) = 44.08513 47.53995 45.81254
# Shear Modulus (GPa) = -19.20103 28.93508 4.86702
#
# Velocity S-wave (km/s) = -3.16281 3.88261 1.59237
# Velocity P-wave (km/s) = 3.10318 6.69828 5.21999
#
# Compressibility (1/GPa) = 0.02268339
#
# Stress axis : x y z
#
# Youngs Moduli (GPa) = 97.74286 92.59967 63.40969
#
# Poissons Ratio (x) = 0.25350 0.21333
# Poissons Ratio (y) = 0.26758 0.06066
# Poissons Ratio (z) = 0.32884 0.08859
#
# Static dielectric constant tensor:
#      x y z
#    x 1.724600 0.000000 0.000000 
#    y 0.000000 1.707220 0.000000 
#    z 0.000000 0.000000 1.696800 
# 
# From -- ./inp_files/21964.got.cif
#   From: 2010.05.17/outbox.cif.g08.bks.cpg/sg73_11_cif.got.tgz:21964.got - 2010.06.03 17:35:07.
