data_PCOD9530260
_publ_section_title
;
Structure prediction by ZEFSAII (Michael W. Deem and Ramdas Pophale) SiO2 
 PCOD9530260
Probable space group: I B C A 
;
_chemical_formula_sum "Si O2"
_cell_formula_units_Z 120
_cell_length_a 11.644843
_cell_length_b 26.761638
_cell_length_c 19.598541
_cell_angle_alpha 90.000000
_cell_angle_beta 90.000000
_cell_angle_gamma 90.000000
_cell_volume 6107.592754
_symmetry_space_group_name_H-M "I B C A "
_symmetry_group_IT_number 73
_symmetry_cell_setting 'orthorhombic'
loop_
_space_group_symop_operation_xyz
x,y,z
-x,1/2-y,z
x,-y,1/2-z
1/2-x,y,-z
-x,-y,-z
x,1/2+y,-z
-x,y,1/2+z
1/2+x,-y,z
1/2+x,1/2+y,1/2+z
1/2-x,-y,1/2+z
1/2+x,1/2-y,-z
-x,1/2+y,1/2-z
1/2-x,1/2-y,1/2-z
1/2+x,y,1/2-z
1/2-x,1/2+y,z
x,1/2-y,1/2+z
loop_
_atom_site_type_symbol
_atom_site_label
_atom_site_fract_x
_atom_site_fract_y
_atom_site_fract_z
Si Si1 0.750000 0.570261 0.000000
Si Si2 0.121445 0.384409 0.873670
Si Si3 0.096681 0.550776 0.149171
Si Si4 0.673878 0.099662 0.781725
Si Si5 0.699797 0.899540 0.073497
Si Si6 0.117945 0.722292 0.682367
Si Si7 0.545268 0.445339 0.403385
Si Si8 0.730610 0.183107 0.310081
O O1 0.816103 0.601124 0.057264
O O2 0.644451 0.544833 0.040289
O O3 0.198111 0.407498 0.811947
O O4 0.125563 0.325294 0.865700
O O5 0.994511 0.406196 0.869448
O O6 0.134945 0.559046 0.226913
O O7 0.211298 0.560252 0.105188
O O8 0.036046 0.498413 0.134253
O O9 0.592380 0.094484 0.847356
O O10 0.682015 0.151494 0.739326
O O11 0.574184 0.924511 0.068075
O O12 0.699265 0.853568 0.127823
O O13 0.750000 0.884378 0.000000
O O14 0.213397 0.764446 0.669327
O O15 0.129903 0.699061 0.758437
O O16 0.000000 0.750000 0.674007
#
# Coordination Sequence:
#
# PCOD9530260 Si02
#       8
#     8  16  16  16  16  16  16  16
#     4  10  24  46  62  86 134 178 224 252 324 392
#     4  10  22  41  67  90 132 173 210 269 322 386
#     4  11  24  40  63  95 127 169 221 271 317 382
#     4   9  21  40  61  92 128 162 210 269 322 371
#     4  11  25  41  62  92 133 169 213 268 321 380
#     4  10  19  36  68  95 122 162 209 263 327 380
#     4  11  25  40  66  92 129 178 217 264 322 383
#     4   9  21  39  62  94 126 160 211 262 319 386
#
# _framework density 19.647675
#
# number of rings (size 3 to 8) (size 9 to 14) (size 15 to 20)
#    0.000    1.867    0.000    2.800   12.133    1.067 
#    1.200    0.000    0.000    0.800    0.000    0.000 
#    0.000    0.000    0.000    0.000    0.000    0.000 
#
# Total GULP energy -334744.395506 kJ/mol
# GULP energy per Si atom -5579.073258 kJ/mol
# Density = 1.960296 g / cm^3
# Si number density = 19.647675 Si / 1000 Ang^3
#
#
#
# Elastic Constant Matrix: (Units=GPa)
#
#
# Indices 1 2 3 4 5 6 
#
# 1 85.7068 11.4628 21.6668 0.0000 0.0000 0.0000
# 2 11.4628 83.6002 26.0649 0.0000 0.0000 0.0000
# 3 21.6668 26.0649 79.9116 -0.0001 0.0000 0.0000
# 4 0.0000 0.0000 -0.0001 27.0001 0.0000 0.0000
# 5 0.0000 0.0000 0.0000 0.0000 21.8380 0.0000
# 6 0.0000 0.0000 0.0000 0.0000 0.0000 12.1719
#
#
#
# Elastic Compliance Matrix: (Units=1/GPa)
#
#
# Indices 1 2 3 4 5 6 
#
# 1 0.012567 -0.000736 -0.003167 0.000000 0.000000 0.000000
# 2 -0.000736 0.013359 -0.004158 0.000000 0.000000 0.000000
# 3 -0.003167 -0.004158 0.014729 0.000000 0.000000 0.000000
# 4 0.000000 0.000000 0.000000 0.037037 0.000000 0.000000
# 5 0.000000 0.000000 0.000000 0.000000 0.045792 0.000000
# 6 0.000000 0.000000 0.000000 0.000000 0.000000 0.082157
#
#
# Mechanical properties :
#
#
# Convention : Reuss Voigt Hill
#
# Bulk Modulus (GPa) = 40.76163 40.84529 40.80346
# Shear Modulus (GPa) = 21.74490 24.87025 23.30757
#
# Velocity S-wave (km/s) = 3.33038 3.56168 3.44797
# Velocity P-wave (km/s) = 5.96489 6.14395 6.05508
#
# Compressibility (1/GPa) = 0.02453288
#
# Stress axis : x y z
#
# Youngs Moduli (GPa) = 79.57485 74.85655 67.89423
#
# Poissons Ratio (x) = 0.05506 0.21505
# Poissons Ratio (y) = 0.05853 0.28229
# Poissons Ratio (z) = 0.25204 0.31124
#
# Static dielectric constant tensor:
#      x y z
#    x 1.708560 0.000000 0.000000 
#    y 0.000000 1.689470 0.000000 
#    z 0.000000 0.000000 1.697870 
# 
# From -- ./inp_files/23984.got.cif
#   From: 2010.05.17/outbox.cif.g08.bks.cpg/sg73_12_cif.got.tgz:23984.got - 2010.06.03 17:35:07.
