data_PCOD9530536
_publ_section_title
;
Structure prediction by ZEFSAII (Michael W. Deem and Ramdas Pophale) SiO2 
 PCOD9530536
Probable space group: I B C A 
;
_chemical_formula_sum "Si O2"
_cell_formula_units_Z 88
_cell_length_a 5.106854
_cell_length_b 21.411184
_cell_length_c 30.852497
_cell_angle_alpha 90.000000
_cell_angle_beta 90.000000
_cell_angle_gamma 90.000000
_cell_volume 3373.528973
_symmetry_space_group_name_H-M "I B C A "
_symmetry_group_IT_number 73
_symmetry_cell_setting 'orthorhombic'
loop_
_space_group_symop_operation_xyz
x,y,z
-x,1/2-y,z
x,-y,1/2-z
1/2-x,y,-z
-x,-y,-z
x,1/2+y,-z
-x,y,1/2+z
1/2+x,-y,z
1/2+x,1/2+y,1/2+z
1/2-x,-y,1/2+z
1/2+x,1/2-y,-z
-x,1/2+y,1/2-z
1/2-x,1/2-y,1/2-z
1/2+x,y,1/2-z
1/2-x,1/2+y,z
x,1/2-y,1/2+z
loop_
_atom_site_type_symbol
_atom_site_label
_atom_site_fract_x
_atom_site_fract_y
_atom_site_fract_z
Si Si1 0.461843 0.164606 0.735521
Si Si2 0.718307 0.657940 0.647316
Si Si3 0.500000 0.250000 0.974419
Si Si4 0.879831 0.955467 0.798105
Si Si5 0.300846 0.459302 0.951013
Si Si6 0.223290 0.165766 0.403803
O O1 0.173941 0.191773 0.731567
O O2 0.610153 0.172293 0.690257
O O3 0.397170 0.096878 0.759171
O O4 0.660516 0.585022 0.658513
O O5 0.430966 0.681190 0.634289
O O6 0.922608 0.676017 0.609595
O O7 0.658327 0.201303 0.944803
O O8 0.250000 0.220278 0.000000
O O9 0.139026 0.996826 0.797001
O O10 0.595489 0.483991 0.946938
O O11 0.241072 0.406958 0.916002
O O12 0.250000 0.434588 0.000000
#
# Coordination Sequence:
#
# PCOD9530536 Si02
#       6
#    16  16   8  16  16  16
#     4  10  20  35  53  81 122 181 233 271 318 378
#     4  11  24  38  58  93 134 175 217 281 350 395
#     4  12  28  52  82 108 130 170 230 296 364 436
#     4  11  22  35  54  86 133 190 243 278 318 387
#     4  10  22  40  62  89 127 172 208 247 318 419
#     4  12  25  44  69 101 135 171 222 291 354 413
#
# _framework density 26.085442
#
# number of rings (size 3 to 8) (size 9 to 14) (size 15 to 20)
#    0.000    1.091    0.000    8.182    0.000   15.273 
#    0.000    0.000    0.000    0.000    0.000   50.909 
#    0.000    0.000    0.000    0.000    0.000    0.000 
#
# Total GULP energy -245670.587172 kJ/mol
# GULP energy per Si atom -5583.422436 kJ/mol
# Density = 2.602607 g / cm^3
# Si number density = 26.085442 Si / 1000 Ang^3
#
#
#
# Elastic Constant Matrix: (Units=GPa)
#
#
# Indices 1 2 3 4 5 6 
#
# 1 191.7415 8.1067 21.2332 0.0000 0.0000 0.0000
# 2 8.1067 84.4391 4.6228 0.0000 0.0000 0.0000
# 3 21.2332 4.6228 76.6274 0.0000 0.0000 0.0000
# 4 0.0000 0.0000 0.0000 22.8867 0.0000 0.0000
# 5 0.0000 0.0000 0.0000 0.0000 40.9931 0.0000
# 6 0.0000 0.0000 0.0000 0.0000 0.0000 30.8953
#
#
#
# Elastic Compliance Matrix: (Units=1/GPa)
#
#
# Indices 1 2 3 4 5 6 
#
# 1 0.005397 -0.000438 -0.001469 0.000000 0.000000 0.000000
# 2 -0.000438 0.011918 -0.000598 0.000000 0.000000 0.000000
# 3 -0.001469 -0.000598 0.013493 0.000000 0.000000 0.000000
# 4 0.000000 0.000000 0.000000 0.043693 0.000000 0.000000
# 5 0.000000 0.000000 0.000000 0.000000 0.024394 0.000000
# 6 0.000000 0.000000 0.000000 0.000000 0.000000 0.032367
#
#
# Mechanical properties :
#
#
# Convention : Reuss Voigt Hill
#
# Bulk Modulus (GPa) = 38.76159 46.74816 42.75487
# Shear Modulus (GPa) = 34.51352 40.21139 37.36245
#
# Velocity S-wave (km/s) = 3.64138 3.93049 3.78869
# Velocity P-wave (km/s) = 5.70713 6.20954 5.96363
#
# Compressibility (1/GPa) = 0.02579873
#
# Stress axis : x y z
#
# Youngs Moduli (GPa) = 185.30420 83.90959 74.11109
#
# Poissons Ratio (x) = 0.03673 0.10887
# Poissons Ratio (y) = 0.08110 0.04430
# Poissons Ratio (z) = 0.27220 0.05015
#
# Static dielectric constant tensor:
#      x y z
#    x 2.092670 0.000000 0.000000 
#    y 0.000000 2.202490 0.000000 
#    z 0.000000 0.000000 2.150840 
# 
# From -- ./inp_files/33268.got.cif
#   From: 2010.05.17/outbox.cif.g08.bks.cpg/sg73_17_cif.got.tgz:33268.got - 2010.06.03 17:35:07.
