data_PCOD9530366
_publ_section_title
;
Structure prediction by ZEFSAII (Michael W. Deem and Ramdas Pophale) SiO2 
 PCOD9530366
Probable space group: I B C A 
;
_chemical_formula_sum "Si O2"
_cell_formula_units_Z 88
_cell_length_a 25.022640
_cell_length_b 9.984135
_cell_length_c 19.073165
_cell_angle_alpha 90.000000
_cell_angle_beta 90.000000
_cell_angle_gamma 90.000000
_cell_volume 4765.037670
_symmetry_space_group_name_H-M "I B C A "
_symmetry_group_IT_number 73
_symmetry_cell_setting 'orthorhombic'
loop_
_space_group_symop_operation_xyz
x,y,z
-x,1/2-y,z
x,-y,1/2-z
1/2-x,y,-z
-x,-y,-z
x,1/2+y,-z
-x,y,1/2+z
1/2+x,-y,z
1/2+x,1/2+y,1/2+z
1/2-x,-y,1/2+z
1/2+x,1/2-y,-z
-x,1/2+y,1/2-z
1/2-x,1/2-y,1/2-z
1/2+x,y,1/2-z
1/2-x,1/2+y,z
x,1/2-y,1/2+z
loop_
_atom_site_type_symbol
_atom_site_label
_atom_site_fract_x
_atom_site_fract_y
_atom_site_fract_z
Si Si1 0.300920 0.380593 0.305041
Si Si2 0.500000 0.750000 0.223654
Si Si3 0.082187 0.941989 0.363135
Si Si4 0.313836 0.631117 0.795829
Si Si5 0.536272 0.629964 0.497775
Si Si6 0.076524 0.265936 0.348472
O O1 0.295805 0.500000 0.250000
O O2 0.358005 0.404666 0.340035
O O3 0.305635 0.243793 0.262904
O O4 0.241759 0.381083 0.339401
O O5 0.464384 0.643055 0.178288
O O6 0.543141 0.690213 0.279411
O O7 0.080365 0.901634 0.444648
O O8 0.074346 0.102565 0.352183
O O9 0.325862 0.500000 0.750000
O O10 0.363570 0.680871 0.840724
O O11 0.500000 0.750000 0.525296
O O12 0.500000 0.500000 0.500000
O O13 0.553732 0.671300 0.419984
#
# Coordination Sequence:
#
# PCOD9530366 Si02
#       6
#    16   8  16  16  16  16
#     4  10  19  40  66  95 129 165 207 263 329 374
#     4  12  22  36  66  98 122 156 220 258 316 388
#     4  12  23  41  66  93 126 174 209 267 320 385
#     4  10  22  37  65 100 129 161 209 268 319 380
#     4  12  25  43  61  88 133 176 211 252 319 383
#     4  12  24  43  64  93 131 168 213 266 320 382
#
# _framework density 18.467849999999999
#
# number of rings (size 3 to 8) (size 9 to 14) (size 15 to 20)
#    0.000    0.727    7.273    0.545    0.000    4.364 
#    0.000    0.909    0.000    2.182    0.000    0.000 
#    0.000    0.000    0.000    0.000    0.000    0.000 
#
# Total GULP energy -245168.443244 kJ/mol
# GULP energy per Si atom -5572.010074 kJ/mol
# Density = 1.842582 g / cm^3
# Si number density = 18.467850 Si / 1000 Ang^3
#
#
#
# Elastic Constant Matrix: (Units=GPa)
#
#
# Indices 1 2 3 4 5 6 
#
# 1 174.9045 55.0093 59.3235 0.0000 0.0000 0.0000
# 2 55.0093 142.3138 40.8009 0.0000 0.0000 0.0000
# 3 59.3235 40.8009 93.6734 0.0000 0.0000 0.0000
# 4 0.0000 0.0000 0.0000 21.8361 0.0000 0.0000
# 5 0.0000 0.0000 0.0000 0.0000 29.6569 0.0000
# 6 0.0000 0.0000 0.0000 0.0000 0.0000 30.0819
#
#
#
# Elastic Compliance Matrix: (Units=1/GPa)
#
#
# Indices 1 2 3 4 5 6 
#
# 1 0.007663 -0.001795 -0.004071 0.000000 0.000000 0.000000
# 2 -0.001795 0.008450 -0.002544 0.000000 0.000000 0.000000
# 3 -0.004071 -0.002544 0.014362 0.000000 0.000000 0.000000
# 4 0.000000 0.000000 0.000000 0.045796 0.000000 0.000000
# 5 0.000000 0.000000 0.000000 0.000000 0.033719 0.000000
# 6 0.000000 0.000000 0.000000 0.000000 0.000000 0.033243
#
#
# Mechanical properties :
#
#
# Convention : Reuss Voigt Hill
#
# Bulk Modulus (GPa) = 73.23427 80.12880 76.68153
# Shear Modulus (GPa) = 30.37628 33.36551 31.87089
#
# Velocity S-wave (km/s) = 4.06004 4.25512 4.15872
# Velocity P-wave (km/s) = 7.85618 8.22337 8.04187
#
# Compressibility (1/GPa) = 0.01365481
#
# Stress axis : x y z
#
# Youngs Moduli (GPa) = 130.50266 118.34659 69.63011
#
# Poissons Ratio (x) = 0.21240 0.28347
# Poissons Ratio (y) = 0.23422 0.17713
# Poissons Ratio (z) = 0.53128 0.30105
#
# Static dielectric constant tensor:
#      x y z
#    x 1.777550 0.000000 0.000000 
#    y 0.000000 1.624550 0.000000 
#    z 0.000000 0.000000 1.653560 
# 
# From -- ./inp_files/27217.got.cif
#   From: 2010.05.17/outbox.cif.g08.bks.cpg/sg73_14_cif.got.tgz:27217.got - 2010.06.03 17:35:07.
