data_PCOD9530174
_publ_section_title
;
Structure prediction by ZEFSAII (Michael W. Deem and Ramdas Pophale) SiO2 
 PCOD9530174
Probable space group: I B C A 
;
_chemical_formula_sum "Si O2"
_cell_formula_units_Z 72
_cell_length_a 14.083952
_cell_length_b 23.215982
_cell_length_c 9.224122
_cell_angle_alpha 90.000000
_cell_angle_beta 90.000000
_cell_angle_gamma 90.000000
_cell_volume 3016.036778
_symmetry_space_group_name_H-M "I B C A "
_symmetry_group_IT_number 73
_symmetry_cell_setting 'orthorhombic'
loop_
_space_group_symop_operation_xyz
x,y,z
-x,1/2-y,z
x,-y,1/2-z
1/2-x,y,-z
-x,-y,-z
x,1/2+y,-z
-x,y,1/2+z
1/2+x,-y,z
1/2+x,1/2+y,1/2+z
1/2-x,-y,1/2+z
1/2+x,1/2-y,-z
-x,1/2+y,1/2-z
1/2-x,1/2-y,1/2-z
1/2+x,y,1/2-z
1/2-x,1/2+y,z
x,1/2-y,1/2+z
loop_
_atom_site_type_symbol
_atom_site_label
_atom_site_fract_x
_atom_site_fract_y
_atom_site_fract_z
Si Si1 0.111246 0.265221 0.099525
Si Si2 0.750000 0.568863 0.500000
Si Si3 0.552800 0.126867 0.073539
Si Si4 0.152805 0.673401 0.124809
Si Si5 0.936481 0.053367 0.658343
O O1 0.164836 0.284654 0.241928
O O2 0.000000 0.250000 0.127236
O O3 0.111542 0.321010 0.994940
O O4 0.154636 0.209248 0.024435
O O5 0.790852 0.614031 0.618126
O O6 0.841947 0.537323 0.434046
O O7 0.457027 0.154820 0.135745
O O8 0.596291 0.096264 0.213234
O O9 0.513029 0.083281 0.948497
O O10 0.977009 0.000000 0.750000
#
# Coordination Sequence:
#
# PCOD9530174 Si02
#       5
#    16   8  16  16  16
#     4  10  19  34  63  95 125 163 210 261 318 378
#     4  10  26  44  58  92 146 162 210 268 324 396
#     4  10  20  39  68  97 120 158 224 274 313 378
#     4  10  21  37  60  92 132 170 204 255 322 392
#     4  11  23  45  68  93 123 170 220 277 324 373
#
# _framework density 23.872387
#
# number of rings (size 3 to 8) (size 9 to 14) (size 15 to 20)
#    0.000    1.778    2.222    2.667    6.222    0.889 
#    4.000    2.222    0.000    0.000    0.000    0.000 
#    0.000    0.000    0.000    0.000    0.000    0.000 
#
# Total GULP energy -201190.274375 kJ/mol
# GULP energy per Si atom -5588.618733 kJ/mol
# Density = 2.381805 g / cm^3
# Si number density = 23.872387 Si / 1000 Ang^3
#
#
#
# Elastic Constant Matrix: (Units=GPa)
#
#
# Indices 1 2 3 4 5 6 
#
# 1 44.7070 6.0079 10.1891 0.0000 0.0000 0.0000
# 2 6.0079 48.6763 13.6413 0.0002 0.0001 0.0000
# 3 10.1891 13.6413 90.1020 0.0003 0.0001 0.0001
# 4 0.0000 0.0002 0.0003 51.7396 0.0001 0.0001
# 5 0.0000 0.0001 0.0001 0.0001 8.1598 0.0000
# 6 0.0000 0.0000 0.0001 0.0001 0.0000 19.6678
#
#
#
# Elastic Compliance Matrix: (Units=1/GPa)
#
#
# Indices 1 2 3 4 5 6 
#
# 1 0.023187 -0.002221 -0.002286 0.000000 0.000000 0.000000
# 2 -0.002221 0.021667 -0.003029 0.000000 0.000000 0.000000
# 3 -0.002286 -0.003029 0.011816 0.000000 0.000000 0.000000
# 4 0.000000 0.000000 0.000000 0.019328 0.000000 0.000000
# 5 0.000000 0.000000 0.000000 0.000000 0.122553 0.000000
# 6 0.000000 0.000000 0.000000 0.000000 0.000000 0.050845
#
#
# Mechanical properties :
#
#
# Convention : Reuss Voigt Hill
#
# Bulk Modulus (GPa) = 24.03999 27.01799 25.52899
# Shear Modulus (GPa) = 17.96410 26.15656 22.06033
#
# Velocity S-wave (km/s) = 2.74616 3.31370 3.04319
# Velocity P-wave (km/s) = 4.48857 5.09736 4.80262
#
# Compressibility (1/GPa) = 0.04159735
#
# Stress axis : x y z
#
# Youngs Moduli (GPa) = 43.12703 46.15323 84.63363
#
# Poissons Ratio (x) = 0.10252 0.19346
# Poissons Ratio (y) = 0.09580 0.25637
# Poissons Ratio (z) = 0.09858 0.13981
#
# Static dielectric constant tensor:
#      x y z
#    x 1.961610 0.000000 0.000000 
#    y 0.000000 1.893870 0.000000 
#    z 0.000000 0.000000 1.967820 
# 
# From -- ./inp_files/4795.got.cif
#   From: 2010.05.17/outbox.cif.g08.bks.cpg/sg73_3_cif.got.tgz:4795.got - 2010.06.03 17:35:07.
