data_PCOD9530226
_publ_section_title
;
Structure prediction by ZEFSAII (Michael W. Deem and Ramdas Pophale) SiO2 
 PCOD9530226
Probable space group: I B C A 
;
_chemical_formula_sum "Si O2"
_cell_formula_units_Z 112
_cell_length_a 28.837010
_cell_length_b 14.527074
_cell_length_c 14.140965
_cell_angle_alpha 90.000000
_cell_angle_beta 90.000000
_cell_angle_gamma 90.000000
_cell_volume 5923.895983
_symmetry_space_group_name_H-M "I B C A "
_symmetry_group_IT_number 73
_symmetry_cell_setting 'orthorhombic'
loop_
_space_group_symop_operation_xyz
x,y,z
-x,1/2-y,z
x,-y,1/2-z
1/2-x,y,-z
-x,-y,-z
x,1/2+y,-z
-x,y,1/2+z
1/2+x,-y,z
1/2+x,1/2+y,1/2+z
1/2-x,-y,1/2+z
1/2+x,1/2-y,-z
-x,1/2+y,1/2-z
1/2-x,1/2-y,1/2-z
1/2+x,y,1/2-z
1/2-x,1/2+y,z
x,1/2-y,1/2+z
loop_
_atom_site_type_symbol
_atom_site_label
_atom_site_fract_x
_atom_site_fract_y
_atom_site_fract_z
Si Si1 0.554802 0.756489 0.374162
Si Si2 0.604955 0.387057 0.996536
Si Si3 0.899153 0.394778 0.517167
Si Si4 0.702400 0.374436 0.549095
Si Si5 0.293856 0.092810 0.942387
Si Si6 0.198847 0.793092 0.255097
Si Si7 0.900292 0.755299 0.326359
O O1 0.500000 0.750000 0.386704
O O2 0.579323 0.668126 0.421620
O O3 0.575084 0.843025 0.431937
O O4 0.568636 0.760895 0.265036
O O5 0.660632 0.380302 0.001237
O O6 0.594666 0.331471 0.898817
O O7 0.594672 0.495974 0.003874
O O8 0.844412 0.368058 0.511764
O O9 0.914480 0.346214 0.614632
O O10 0.750000 0.340387 0.500000
O O11 0.709243 0.483133 0.565004
O O12 0.691263 0.329713 0.649623
O O13 0.297426 0.130642 0.836959
O O14 0.250000 0.127755 0.000000
O O15 0.250000 0.750000 0.250000
O O16 0.153083 0.737449 0.288546
#
# Coordination Sequence:
#
# PCOD9530226 Si02
#       7
#    16  16  16  16  16  16  16
#     4  11  24  42  64  90 123 158 200 260 309 360
#     4   9  22  41  64  91 121 164 201 247 308 361
#     4  10  21  42  65  87 125 160 203 255 301 367
#     4  10  19  36  56  84 119 160 201 241 294 354
#     4   9  20  35  56  84 120 157 197 245 291 355
#     4  11  21  31  55  84 116 159 200 241 298 362
#     4  10  22  39  59  91 122 157 204 255 304 357
#
# _framework density 18.906476000000001
#
# number of rings (size 3 to 8) (size 9 to 14) (size 15 to 20)
#    0.000    2.000    1.429    1.286    2.000    5.714 
#    0.000    1.429    0.000    0.000    0.000    0.000 
#    0.000    0.000    0.000    0.000    0.000    0.000 
#
# Total GULP energy -312388.281387 kJ/mol
# GULP energy per Si atom -5578.362168 kJ/mol
# Density = 1.886344 g / cm^3
# Si number density = 18.906476 Si / 1000 Ang^3
#
#
#
# Elastic Constant Matrix: (Units=GPa)
#
#
# Indices 1 2 3 4 5 6 
#
# 1 54.4816 53.5040 29.4337 0.0000 0.0000 0.0000
# 2 53.5040 104.4429 42.7450 0.0000 0.0000 0.0000
# 3 29.4337 42.7450 107.6011 0.0000 0.0000 0.0000
# 4 0.0000 0.0000 0.0000 14.1055 0.0000 0.0000
# 5 0.0000 0.0000 0.0000 0.0000 20.3950 0.0000
# 6 0.0000 0.0000 0.0000 0.0000 0.0000 10.1061
#
#
#
# Elastic Compliance Matrix: (Units=1/GPa)
#
#
# Indices 1 2 3 4 5 6 
#
# 1 0.037818 -0.018079 -0.003163 0.000000 0.000000 0.000000
# 2 -0.018079 0.020076 -0.003030 0.000000 0.000000 0.000000
# 3 -0.003163 -0.003030 0.011362 0.000000 0.000000 0.000000
# 4 0.000000 0.000000 0.000000 0.070895 0.000000 0.000000
# 5 0.000000 0.000000 0.000000 0.000000 0.049032 0.000000
# 6 0.000000 0.000000 0.000000 0.000000 0.000000 0.098950
#
#
# Mechanical properties :
#
#
# Convention : Reuss Voigt Hill
#
# Bulk Modulus (GPa) = 48.27894 57.54346 52.91120
# Shear Modulus (GPa) = 14.55262 18.31085 16.43174
#
# Velocity S-wave (km/s) = 2.77739 3.11544 2.95126
# Velocity P-wave (km/s) = 5.98968 6.59115 6.29760
#
# Compressibility (1/GPa) = 0.02071296
#
# Stress axis : x y z
#
# Youngs Moduli (GPa) = 26.44232 49.81039 88.00907
#
# Poissons Ratio (x) = 0.90052 0.27837
# Poissons Ratio (y) = 0.47805 0.26666
# Poissons Ratio (z) = 0.08364 0.15092
#
# Static dielectric constant tensor:
#      x y z
#    x 1.668850 0.000000 0.000000 
#    y 0.000000 1.661280 0.000000 
#    z 0.000000 0.000000 1.643330 
# 
# From -- ./inp_files/11254.got.cif
#   From: 2010.05.17/outbox.cif.g08.bks.cpg/sg73_6_cif.got.tgz:11254.got - 2010.06.03 17:35:07.
