data_PCOD9530970
_publ_section_title
;
Structure prediction by ZEFSAII (Michael W. Deem and Ramdas Pophale) SiO2 
 PCOD9530970
Probable space group: I B C A 
;
_chemical_formula_sum "Si O2"
_cell_formula_units_Z 80
_cell_length_a 12.712137
_cell_length_b 24.956955
_cell_length_c 10.714679
_cell_angle_alpha 90.000000
_cell_angle_beta 90.000000
_cell_angle_gamma 90.000000
_cell_volume 3399.298677
_symmetry_space_group_name_H-M "I B C A "
_symmetry_group_IT_number 73
_symmetry_cell_setting 'orthorhombic'
loop_
_space_group_symop_operation_xyz
x,y,z
-x,1/2-y,z
x,-y,1/2-z
1/2-x,y,-z
-x,-y,-z
x,1/2+y,-z
-x,y,1/2+z
1/2+x,-y,z
1/2+x,1/2+y,1/2+z
1/2-x,-y,1/2+z
1/2+x,1/2-y,-z
-x,1/2+y,1/2-z
1/2-x,1/2-y,1/2-z
1/2+x,y,1/2-z
1/2-x,1/2+y,z
x,1/2-y,1/2+z
loop_
_atom_site_type_symbol
_atom_site_label
_atom_site_fract_x
_atom_site_fract_y
_atom_site_fract_z
Si Si1 0.345087 0.476906 0.110152
Si Si2 0.852698 0.662249 0.407621
Si Si3 0.928701 0.429201 0.939296
Si Si4 0.185058 0.226216 0.629462
Si Si5 0.206041 0.889047 0.789289
O O1 0.347999 0.500000 0.250000
O O2 0.453704 0.446338 0.086682
O O3 0.246974 0.435633 0.120455
O O4 0.360368 0.526562 0.014357
O O5 0.750000 0.663963 0.500000
O O6 0.931709 0.623375 0.475698
O O7 0.890543 0.722841 0.391509
O O8 0.809189 0.634306 0.282769
O O9 0.869508 0.415987 0.811550
O O10 0.250000 0.221532 0.500000
O O11 0.250000 0.250000 0.750000
O O12 0.153281 0.165440 0.659476
#
# Coordination Sequence:
#
# PCOD9530970 Si02
#       5
#    16  16  16  16  16
#     4  11  23  41  63  97 139 181 236 288 353 430
#     4   8  15  34  66  88 123 168 214 276 346 399
#     4  10  22  42  64  95 140 184 224 296 355 422
#     4   9  18  36  65  99 129 173 230 287 338 420
#     4  10  20  40  65  95 131 177 229 282 352 419
#
# _framework density 23.534265999999999
#
# number of rings (size 3 to 8) (size 9 to 14) (size 15 to 20)
#    0.000    2.400    2.000    1.200    0.000    0.800 
#   10.800    0.000    0.000   39.600    0.000    0.000 
#    0.000    0.000    0.000    0.000    0.000    0.000 
#
# Total GULP energy -223344.221585 kJ/mol
# GULP energy per Si atom -5583.605540 kJ/mol
# Density = 2.348070 g / cm^3
# Si number density = 23.534266 Si / 1000 Ang^3
#
#
#
# Elastic Constant Matrix: (Units=GPa)
#
#
# Indices 1 2 3 4 5 6 
#
# 1 61.5843 49.7259 14.9036 0.0001 0.0000 0.0000
# 2 49.7259 216.4879 65.8980 -0.0002 0.0001 0.0000
# 3 14.9036 65.8980 118.2680 -0.0018 0.0004 -0.0001
# 4 0.0001 -0.0002 -0.0018 31.3847 0.0000 0.0000
# 5 0.0000 0.0001 0.0004 0.0000 20.4008 -0.0001
# 6 0.0000 0.0000 -0.0001 0.0000 -0.0001 17.3849
#
#
#
# Elastic Compliance Matrix: (Units=1/GPa)
#
#
# Indices 1 2 3 4 5 6 
#
# 1 0.019935 -0.004593 0.000047 0.000000 0.000000 0.000000
# 2 -0.004593 0.006621 -0.003110 0.000000 0.000000 0.000000
# 3 0.000047 -0.003110 0.010182 0.000001 0.000000 0.000000
# 4 0.000000 0.000000 0.000001 0.031863 0.000000 0.000000
# 5 0.000000 0.000000 0.000000 0.000000 0.049018 0.000000
# 6 0.000000 0.000000 0.000000 0.000000 0.000000 0.057521
#
#
# Mechanical properties :
#
#
# Convention : Reuss Voigt Hill
#
# Bulk Modulus (GPa) = 46.67253 73.04393 59.85823
# Shear Modulus (GPa) = 25.30424 31.55494 28.42959
#
# Velocity S-wave (km/s) = 3.28259 3.66568 3.47941
# Velocity P-wave (km/s) = 5.85167 7.00149 6.45224
#
# Compressibility (1/GPa) = 0.02142588
#
# Stress axis : x y z
#
# Youngs Moduli (GPa) = 50.16201 151.03337 98.20786
#
# Poissons Ratio (x) = 0.69376 -0.00464
# Poissons Ratio (y) = 0.23041 0.30546
# Poissons Ratio (z) = -0.00237 0.46977
#
# Static dielectric constant tensor:
#      x y z
#    x 1.873280 0.000000 0.000000 
#    y 0.000000 1.926960 0.000000 
#    z 0.000000 0.000000 2.421710 
# 
# From -- ./inp_files/10785.got.cif
#   From: 2010.05.17/outbox.cif.g08.bks.cpg/sg73_6_cif.got.tgz:10785.got - 2010.06.03 17:35:07.
