data_PCOD9530872
_publ_section_title
;
Structure prediction by ZEFSAII (Michael W. Deem and Ramdas Pophale) SiO2 
 PCOD9530872
Probable space group: I B C A 
;
_chemical_formula_sum "Si O2"
_cell_formula_units_Z 88
_cell_length_a 31.537631
_cell_length_b 15.334200
_cell_length_c 9.720572
_cell_angle_alpha 90.000000
_cell_angle_beta 90.000000
_cell_angle_gamma 90.000000
_cell_volume 4700.910819
_symmetry_space_group_name_H-M "I B C A "
_symmetry_group_IT_number 73
_symmetry_cell_setting 'orthorhombic'
loop_
_space_group_symop_operation_xyz
x,y,z
-x,1/2-y,z
x,-y,1/2-z
1/2-x,y,-z
-x,-y,-z
x,1/2+y,-z
-x,y,1/2+z
1/2+x,-y,z
1/2+x,1/2+y,1/2+z
1/2-x,-y,1/2+z
1/2+x,1/2-y,-z
-x,1/2+y,1/2-z
1/2-x,1/2-y,1/2-z
1/2+x,y,1/2-z
1/2-x,1/2+y,z
x,1/2-y,1/2+z
loop_
_atom_site_type_symbol
_atom_site_label
_atom_site_fract_x
_atom_site_fract_y
_atom_site_fract_z
Si Si1 0.540741 0.478603 0.409392
Si Si2 0.254908 0.403924 0.279990
Si Si3 0.810844 0.837447 0.003048
Si Si4 0.951671 0.782472 0.327951
Si Si5 0.410345 0.847702 0.456607
Si Si6 0.250000 0.311065 0.000000
O O1 0.531368 0.500000 0.250000
O O2 0.500000 0.500000 0.500000
O O3 0.450020 0.625130 0.588512
O O4 0.575948 0.550118 0.453975
O O5 0.239848 0.500000 0.250000
O O6 0.295032 0.402517 0.383022
O O7 0.217286 0.356799 0.362257
O O8 0.264283 0.362435 0.133792
O O9 0.859831 0.839807 0.034275
O O10 0.790730 0.745974 0.954678
O O11 0.929606 0.706222 0.415731
O O12 0.929097 0.804127 0.182820
O O13 0.000000 0.750000 0.304917
#
# Coordination Sequence:
#
# PCOD9530872 Si02
#       6
#    16  16  16  16  16   8
#     4  10  22  41  62  86 124 163 208 262 316 369
#     4  10  21  40  65  90 126 165 200 253 312 384
#     4  10  22  40  60  92 128 159 208 253 313 371
#     4  11  23  41  66  91 125 174 214 258 321 370
#     4  11  25  40  65  95 128 164 215 265 311 379
#     4  10  20  38  68  84 124 166 202 248 318 374
#
# _framework density 18.719776
#
# number of rings (size 3 to 8) (size 9 to 14) (size 15 to 20)
#    0.000    1.818    1.818    3.818    7.636    2.182 
#    3.273    0.909    0.000    0.000    0.000    0.000 
#    0.000    0.000    0.000    0.000    0.000    0.000 
#
# Total GULP energy -245318.980364 kJ/mol
# GULP energy per Si atom -5575.431372 kJ/mol
# Density = 1.867717 g / cm^3
# Si number density = 18.719776 Si / 1000 Ang^3
#
#
#
# Elastic Constant Matrix: (Units=GPa)
#
#
# Indices 1 2 3 4 5 6 
#
# 1 164.3636 27.5857 34.9049 0.0000 0.0000 0.0000
# 2 27.5857 71.5990 8.4769 0.0000 0.0000 0.0000
# 3 34.9049 8.4769 63.8010 0.0000 0.0000 0.0000
# 4 0.0000 0.0000 0.0000 42.0579 0.0000 0.0000
# 5 0.0000 0.0000 0.0000 0.0000 19.1788 0.0000
# 6 0.0000 0.0000 0.0000 0.0000 0.0000 14.9100
#
#
#
# Elastic Compliance Matrix: (Units=1/GPa)
#
#
# Indices 1 2 3 4 5 6 
#
# 1 0.007257 -0.002363 -0.003656 0.000000 0.000000 0.000000
# 2 -0.002363 0.014959 -0.000695 0.000000 0.000000 0.000000
# 3 -0.003656 -0.000695 0.017766 0.000000 0.000000 0.000000
# 4 0.000000 0.000000 0.000000 0.023777 0.000000 0.000000
# 5 0.000000 0.000000 0.000000 0.000000 0.052141 0.000000
# 6 0.000000 0.000000 0.000000 0.000000 0.000000 0.067069
#
#
# Mechanical properties :
#
#
# Convention : Reuss Voigt Hill
#
# Bulk Modulus (GPa) = 37.65838 49.07764 43.36801
# Shear Modulus (GPa) = 24.36060 30.48243 27.42152
#
# Velocity S-wave (km/s) = 3.61131 4.03967 3.83148
# Velocity P-wave (km/s) = 6.12775 6.93054 6.54147
#
# Compressibility (1/GPa) = 0.02655451
#
# Stress axis : x y z
#
# Youngs Moduli (GPa) = 137.79488 66.84758 56.28607
#
# Poissons Ratio (x) = 0.15797 0.20580
# Poissons Ratio (y) = 0.32563 0.03910
# Poissons Ratio (z) = 0.50383 0.04644
#
# Static dielectric constant tensor:
#      x y z
#    x 1.604320 0.000000 0.000000 
#    y 0.000000 1.739570 0.000000 
#    z 0.000000 0.000000 1.569900 
# 
# From -- ./inp_files/8377.got.cif
#   From: 2010.05.17/outbox.cif.g08.bks.cpg/sg73_5_cif.got.tgz:8377.got - 2010.06.03 17:35:07.
