data_PCOD9530933
_publ_section_title
;
Structure prediction by ZEFSAII (Michael W. Deem and Ramdas Pophale) SiO2 
 PCOD9530933
Probable space group: I B C A 
;
_chemical_formula_sum "Si O2"
_cell_formula_units_Z 56
_cell_length_a 9.011745
_cell_length_b 15.585636
_cell_length_c 15.928756
_cell_angle_alpha 90.000000
_cell_angle_beta 90.000000
_cell_angle_gamma 90.000000
_cell_volume 2237.253948
_symmetry_space_group_name_H-M "I B C A "
_symmetry_group_IT_number 73
_symmetry_cell_setting 'orthorhombic'
loop_
_space_group_symop_operation_xyz
x,y,z
-x,1/2-y,z
x,-y,1/2-z
1/2-x,y,-z
-x,-y,-z
x,1/2+y,-z
-x,y,1/2+z
1/2+x,-y,z
1/2+x,1/2+y,1/2+z
1/2-x,-y,1/2+z
1/2+x,1/2-y,-z
-x,1/2+y,1/2-z
1/2-x,1/2-y,1/2-z
1/2+x,y,1/2-z
1/2-x,1/2+y,z
x,1/2-y,1/2+z
loop_
_atom_site_type_symbol
_atom_site_label
_atom_site_fract_x
_atom_site_fract_y
_atom_site_fract_z
Si Si1 0.177088 0.000000 0.250000
Si Si2 0.314675 0.929606 0.411186
Si Si3 0.325411 0.754916 0.088381
Si Si4 0.575350 0.843369 0.330394
O O1 0.273945 0.009476 0.165814
O O2 0.078372 0.085594 0.258442
O O3 0.250000 0.962076 0.500000
O O4 0.227535 0.841310 0.395300
O O5 0.484226 0.894090 0.404204
O O6 0.500000 0.750000 0.084762
O O7 0.245592 0.818056 0.152539
O O8 0.250000 0.778904 0.000000
O O9 0.500000 0.750000 0.315704
#
# Coordination Sequence:
#
# PCOD9530933 Si02
#       4
#     8  16  16  16
#     4  12  26  42  72 106 144 194 246 300 358 426
#     4  10  23  44  67  99 143 188 244 299 355 427
#     4  10  20  39  70 103 139 187 237 292 358 428
#     4  10  24  45  68 103 145 187 242 299 357 428
#
# _framework density 25.030684000000001
#
# number of rings (size 3 to 8) (size 9 to 14) (size 15 to 20)
#    0.000    1.714    0.000    5.143    0.000   12.571 
#    0.000    0.000    0.000    0.000    0.000    0.000 
#    0.000    0.000    0.000    0.000    0.000    0.000 
#
# Total GULP energy -156425.613986 kJ/mol
# GULP energy per Si atom -5586.629071 kJ/mol
# Density = 2.497371 g / cm^3
# Si number density = 25.030684 Si / 1000 Ang^3
#
#
#
# Elastic Constant Matrix: (Units=GPa)
#
#
# Indices 1 2 3 4 5 6 
#
# 1 192.6045 26.5339 36.1110 0.0000 0.0000 0.0000
# 2 26.5339 106.9719 50.3850 0.0000 0.0000 0.0000
# 3 36.1110 50.3850 123.7902 0.0000 0.0000 0.0000
# 4 0.0000 0.0000 0.0000 31.0666 0.0000 0.0000
# 5 0.0000 0.0000 0.0000 0.0000 28.4442 0.0000
# 6 0.0000 0.0000 0.0000 0.0000 0.0000 17.3219
#
#
#
# Elastic Compliance Matrix: (Units=1/GPa)
#
#
# Indices 1 2 3 4 5 6 
#
# 1 0.005542 -0.000759 -0.001308 0.000000 0.000000 0.000000
# 2 -0.000759 0.011669 -0.004528 0.000000 0.000000 0.000000
# 3 -0.001308 -0.004528 0.010303 0.000000 0.000000 0.000000
# 4 0.000000 0.000000 0.000000 0.032189 0.000000 0.000000
# 5 0.000000 0.000000 0.000000 0.000000 0.035157 0.000000
# 6 0.000000 0.000000 0.000000 0.000000 0.000000 0.057730
#
#
# Mechanical properties :
#
#
# Convention : Reuss Voigt Hill
#
# Bulk Modulus (GPa) = 69.81136 72.15847 70.98491
# Shear Modulus (GPa) = 29.31624 36.05565 32.68594
#
# Velocity S-wave (km/s) = 3.42601 3.79945 3.61755
# Velocity P-wave (km/s) = 6.60310 6.93818 6.77271
#
# Compressibility (1/GPa) = 0.01432432
#
# Stress axis : x y z
#
# Youngs Moduli (GPa) = 180.45029 85.69480 97.06087
#
# Poissons Ratio (x) = 0.06501 0.12694
# Poissons Ratio (y) = 0.13689 0.43953
# Poissons Ratio (z) = 0.23599 0.38806
#
# Static dielectric constant tensor:
#      x y z
#    x 2.054430 0.000000 0.000000 
#    y 0.000000 1.951900 0.000000 
#    z 0.000000 0.000000 2.094110 
# 
# From -- ./inp_files/20503.got.cif
#   From: 2010.05.17/outbox.cif.g08.bks.cpg/sg73_11_cif.got.tgz:20503.got - 2010.06.03 17:35:07.
