data_PCOD9530958
_publ_section_title
;
Structure prediction by ZEFSAII (Michael W. Deem and Ramdas Pophale) SiO2 
 PCOD9530958
Probable space group: I B C A 
;
_chemical_formula_sum "Si O2"
_cell_formula_units_Z 72
_cell_length_a 9.554650
_cell_length_b 13.834000
_cell_length_c 22.949603
_cell_angle_alpha 90.000000
_cell_angle_beta 90.000000
_cell_angle_gamma 90.000000
_cell_volume 3033.456220
_symmetry_space_group_name_H-M "I B C A "
_symmetry_group_IT_number 73
_symmetry_cell_setting 'orthorhombic'
loop_
_space_group_symop_operation_xyz
x,y,z
-x,1/2-y,z
x,-y,1/2-z
1/2-x,y,-z
-x,-y,-z
x,1/2+y,-z
-x,y,1/2+z
1/2+x,-y,z
1/2+x,1/2+y,1/2+z
1/2-x,-y,1/2+z
1/2+x,1/2-y,-z
-x,1/2+y,1/2-z
1/2-x,1/2-y,1/2-z
1/2+x,y,1/2-z
1/2-x,1/2+y,z
x,1/2-y,1/2+z
loop_
_atom_site_type_symbol
_atom_site_label
_atom_site_fract_x
_atom_site_fract_y
_atom_site_fract_z
Si Si1 0.784763 0.224703 0.673478
Si Si2 0.682904 0.911031 0.720152
Si Si3 0.841514 0.031323 0.622187
Si Si4 0.076311 0.546372 0.054960
Si Si5 0.500000 0.250000 0.603820
O O1 0.758159 0.154941 0.729860
O O2 0.876979 0.319719 0.685107
O O3 0.840181 0.146022 0.629035
O O4 0.635034 0.260912 0.646641
O O5 0.598927 0.000000 0.750000
O O6 0.782357 0.970590 0.676614
O O7 0.735843 0.017538 0.567508
O O8 0.995755 0.995989 0.610857
O O9 0.041266 0.659698 0.062735
O O10 0.000000 0.500000 0.000000
#
# Coordination Sequence:
#
# PCOD9530958 Si02
#       5
#    16  16  16  16   8
#     4   9  18  35  59  90 122 166 200 242 312 375
#     4   9  17  35  57  89 125 162 199 245 300 372
#     4  10  21  40  61  90 127 158 204 261 305 367
#     4  11  23  43  64  88 119 164 210 261 312 361
#     4  10  20  40  64  82 126 166 202 254 320 374
#
# _framework density 23.735302000000001
#
# number of rings (size 3 to 8) (size 9 to 14) (size 15 to 20)
#    0.000    2.222    2.222    0.667    0.000    0.000 
#   16.000    2.222    0.000    0.000    0.000    0.000 
#    0.000    0.000    0.000    0.000    0.000    0.000 
#
# Total GULP energy -200515.485585 kJ/mol
# GULP energy per Si atom -5569.874600 kJ/mol
# Density = 2.368128 g / cm^3
# Si number density = 23.735302 Si / 1000 Ang^3
#
#
#
# Elastic Constant Matrix: (Units=GPa)
#
#
# Indices 1 2 3 4 5 6 
#
# 1 82.3732 13.5463 15.3826 0.0000 0.0000 0.0000
# 2 13.5463 183.1510 14.5018 0.0000 0.0000 0.0000
# 3 15.3826 14.5018 78.8544 0.0000 0.0000 0.0000
# 4 0.0000 0.0000 0.0000 34.4183 0.0000 0.0000
# 5 0.0000 0.0000 0.0000 0.0000 15.9633 0.0000
# 6 0.0000 0.0000 0.0000 0.0000 0.0000 11.5118
#
#
#
# Elastic Compliance Matrix: (Units=1/GPa)
#
#
# Indices 1 2 3 4 5 6 
#
# 1 0.012701 -0.000754 -0.002339 0.000000 0.000000 0.000000
# 2 -0.000754 0.005585 -0.000880 0.000000 0.000000 0.000000
# 3 -0.002339 -0.000880 0.013300 0.000000 0.000000 0.000000
# 4 0.000000 0.000000 0.000000 0.029054 0.000000 0.000000
# 5 0.000000 0.000000 0.000000 0.000000 0.062644 0.000000
# 6 0.000000 0.000000 0.000000 0.000000 0.000000 0.086867
#
#
# Mechanical properties :
#
#
# Convention : Reuss Voigt Hill
#
# Bulk Modulus (GPa) = 42.30203 47.91554 45.10878
# Shear Modulus (GPa) = 22.12614 32.44188 27.28401
#
# Velocity S-wave (km/s) = 3.05651 3.70106 3.39412
# Velocity P-wave (km/s) = 5.50613 6.20444 5.86569
#
# Compressibility (1/GPa) = 0.02363953
#
# Stress axis : x y z
#
# Youngs Moduli (GPa) = 78.73601 179.03688 75.18963
#
# Poissons Ratio (x) = 0.13503 0.17586
# Poissons Ratio (y) = 0.05938 0.06617
# Poissons Ratio (z) = 0.18415 0.15757
#
# Static dielectric constant tensor:
#      x y z
#    x 1.910680 0.000000 0.000000 
#    y 0.000000 1.924050 0.000000 
#    z 0.000000 0.000000 2.046000 
# 
# From -- ./inp_files/9688.got.cif
#   From: 2010.05.17/outbox.cif.g08.bks.cpg/sg73_5_cif.got.tgz:9688.got - 2010.06.03 17:35:07.
