data_PCOD9530477
_publ_section_title
;
Structure prediction by ZEFSAII (Michael W. Deem and Ramdas Pophale) SiO2 
 PCOD9530477
Probable space group: I B C A 
;
_chemical_formula_sum "Si O2"
_cell_formula_units_Z 112
_cell_length_a 24.796244
_cell_length_b 15.559606
_cell_length_c 13.576349
_cell_angle_alpha 90.000000
_cell_angle_beta 90.000000
_cell_angle_gamma 90.000000
_cell_volume 5238.024078
_symmetry_space_group_name_H-M "I B C A "
_symmetry_group_IT_number 73
_symmetry_cell_setting 'orthorhombic'
loop_
_space_group_symop_operation_xyz
x,y,z
-x,1/2-y,z
x,-y,1/2-z
1/2-x,y,-z
-x,-y,-z
x,1/2+y,-z
-x,y,1/2+z
1/2+x,-y,z
1/2+x,1/2+y,1/2+z
1/2-x,-y,1/2+z
1/2+x,1/2-y,-z
-x,1/2+y,1/2-z
1/2-x,1/2-y,1/2-z
1/2+x,y,1/2-z
1/2-x,1/2+y,z
x,1/2-y,1/2+z
loop_
_atom_site_type_symbol
_atom_site_label
_atom_site_fract_x
_atom_site_fract_y
_atom_site_fract_z
Si Si1 0.072176 0.036627 0.043771
Si Si2 0.250000 0.472086 0.500000
Si Si3 0.989452 0.131325 0.919211
Si Si4 0.151499 0.580832 0.433842
Si Si5 0.883411 0.735905 0.052060
Si Si6 0.500000 0.750000 0.738528
Si Si7 0.120509 0.721221 0.276953
Si Si8 0.664078 0.635927 0.609712
O O1 0.037012 0.112934 0.996533
O O2 0.104843 0.988725 0.956093
O O3 0.116608 0.066858 0.121212
O O4 0.035387 0.963500 0.090462
O O5 0.207401 0.530511 0.440933
O O6 0.282656 0.411953 0.424132
O O7 0.944209 0.197825 0.958738
O O8 0.002754 0.167943 0.811933
O O9 0.149746 0.649325 0.524540
O O10 0.138210 0.636449 0.336526
O O11 0.880742 0.777192 0.159658
O O12 0.858363 0.805771 0.979813
O O13 0.440850 0.747621 0.688793
O O14 0.162854 0.796760 0.302852
#
# Coordination Sequence:
#
# PCOD9530477 Si02
#       8
#    16   8  16  16  16   8  16  16
#     4   9  17  32  54  84 115 153 191 228 284 335
#     4  10  22  44  62  82 112 148 190 250 308 332
#     4   9  17  31  54  81 118 155 184 224 275 336
#     4   9  20  39  60  81 115 152 194 244 286 339
#     4   9  19  37  58  85 116 149 189 234 280 342
#     4  10  20  34  52  86 124 156 190 226 272 342
#     4  10  21  37  59  87 116 154 192 226 278 346
#     4  10  21  38  60  81 111 147 191 242 287 338
#
# _framework density 21.382107999999999
#
# number of rings (size 3 to 8) (size 9 to 14) (size 15 to 20)
#    0.000    2.571    0.000    1.714    0.000    6.857 
#    0.000   25.714    0.000    0.000    0.000    0.000 
#    0.000    0.000    0.000    0.000    0.000    0.000 
#
# Total GULP energy -312173.471710 kJ/mol
# GULP energy per Si atom -5574.526281 kJ/mol
# Density = 2.133344 g / cm^3
# Si number density = 21.382108 Si / 1000 Ang^3
#
#
#
# Elastic Constant Matrix: (Units=GPa)
#
#
# Indices 1 2 3 4 5 6 
#
# 1 106.8517 47.4426 12.9547 0.0000 0.0000 0.0000
# 2 47.4426 104.5900 20.6136 0.0000 0.0000 0.0000
# 3 12.9547 20.6136 60.3495 0.0000 0.0000 0.0000
# 4 0.0000 0.0000 0.0000 12.4720 0.0000 0.0000
# 5 0.0000 0.0000 0.0000 0.0000 14.2671 0.0000
# 6 0.0000 0.0000 0.0000 0.0000 0.0000 34.1333
#
#
#
# Elastic Compliance Matrix: (Units=1/GPa)
#
#
# Indices 1 2 3 4 5 6 
#
# 1 0.011751 -0.005182 -0.000752 0.000000 0.000000 0.000000
# 2 -0.005182 0.012536 -0.003170 0.000000 0.000000 0.000000
# 3 -0.000752 -0.003170 0.017814 0.000000 0.000000 0.000000
# 4 0.000000 0.000000 0.000000 0.080180 0.000000 0.000000
# 5 0.000000 0.000000 0.000000 0.000000 0.070091 0.000000
# 6 0.000000 0.000000 0.000000 0.000000 0.000000 0.029297
#
#
# Mechanical properties :
#
#
# Convention : Reuss Voigt Hill
#
# Bulk Modulus (GPa) = 41.85258 48.20144 45.02701
# Shear Modulus (GPa) = 20.17415 24.89318 22.53366
#
# Velocity S-wave (km/s) = 3.07499 3.41575 3.24984
# Velocity P-wave (km/s) = 5.67658 6.17643 5.93177
#
# Compressibility (1/GPa) = 0.02389339
#
# Stress axis : x y z
#
# Youngs Moduli (GPa) = 85.10065 79.76765 56.13456
#
# Poissons Ratio (x) = 0.41335 0.04224
# Poissons Ratio (y) = 0.44099 0.17793
# Poissons Ratio (z) = 0.06403 0.25284
#
# Static dielectric constant tensor:
#      x y z
#    x 1.805990 0.000000 0.000000 
#    y 0.000000 1.824190 0.000000 
#    z 0.000000 0.000000 1.811190 
# 
# From -- ./inp_files/19460.got.cif
#   From: 2010.05.17/outbox.cif.g08.bks.cpg/sg73_10_cif.got.tgz:19460.got - 2010.06.03 17:35:07.
