data_PCOD9530348
_publ_section_title
;
Structure prediction by ZEFSAII (Michael W. Deem and Ramdas Pophale) SiO2 
 PCOD9530348
Probable space group: I B C A 
;
_chemical_formula_sum "Si O2"
_cell_formula_units_Z 112
_cell_length_a 23.092766
_cell_length_b 18.583551
_cell_length_c 14.249779
_cell_angle_alpha 90.000000
_cell_angle_beta 90.000000
_cell_angle_gamma 90.000000
_cell_volume 6115.229883
_symmetry_space_group_name_H-M "I B C A "
_symmetry_group_IT_number 73
_symmetry_cell_setting 'orthorhombic'
loop_
_space_group_symop_operation_xyz
x,y,z
-x,1/2-y,z
x,-y,1/2-z
1/2-x,y,-z
-x,-y,-z
x,1/2+y,-z
-x,y,1/2+z
1/2+x,-y,z
1/2+x,1/2+y,1/2+z
1/2-x,-y,1/2+z
1/2+x,1/2-y,-z
-x,1/2+y,1/2-z
1/2-x,1/2-y,1/2-z
1/2+x,y,1/2-z
1/2-x,1/2+y,z
x,1/2-y,1/2+z
loop_
_atom_site_type_symbol
_atom_site_label
_atom_site_fract_x
_atom_site_fract_y
_atom_site_fract_z
Si Si1 0.564404 0.564613 0.407676
Si Si2 0.156653 0.279226 0.741181
Si Si3 0.510136 0.424086 0.889825
Si Si4 0.633561 0.434783 0.810881
Si Si5 0.543681 0.813569 0.749971
Si Si6 0.764596 0.224314 0.401558
Si Si7 0.189573 0.427281 0.485188
O O1 0.531639 0.589170 0.503575
O O2 0.535673 0.488406 0.383725
O O3 0.555017 0.625697 0.329256
O O4 0.632400 0.550168 0.428449
O O5 0.133973 0.360295 0.744405
O O6 0.104204 0.224566 0.723465
O O7 0.186629 0.260401 0.839075
O O8 0.206841 0.276682 0.661932
O O9 0.567740 0.451121 0.837786
O O10 0.485235 0.354219 0.838250
O O11 0.658530 0.500000 0.750000
O O12 0.666237 0.420291 0.908671
O O13 0.500000 0.750000 0.781791
O O14 0.750000 0.261680 0.500000
O O15 0.789634 0.146051 0.432706
O O16 0.250000 0.470342 0.500000
#
# Coordination Sequence:
#
# PCOD9530348 Si02
#       7
#    16  16  16  16  16  16  16
#     4  10  22  42  62  91 123 166 207 259 317 371
#     4  11  22  38  65  95 123 168 212 258 314 377
#     4  10  23  42  63  87 130 166 200 259 324 374
#     4  11  21  38  63  90 124 168 213 255 314 380
#     4  12  23  37  61  99 125 161 212 256 307 381
#     4  10  20  41  66  88 127 167 207 257 323 372
#     4  10  19  39  65  86 119 168 205 253 317 373
#
# _framework density 18.314927999999998
#
# number of rings (size 3 to 8) (size 9 to 14) (size 15 to 20)
#    0.000    1.429    5.714    1.286    0.000    0.571 
#    2.571    5.000    0.000    0.000    0.000    0.000 
#    0.000    0.000    0.000    0.000    0.000    0.000 
#
# Total GULP energy -312001.325866 kJ/mol
# GULP energy per Si atom -5571.452248 kJ/mol
# Density = 1.827324 g / cm^3
# Si number density = 18.314928 Si / 1000 Ang^3
#
#
#
# Elastic Constant Matrix: (Units=GPa)
#
#
# Indices 1 2 3 4 5 6 
#
# 1 135.3067 31.4083 28.7802 0.0000 0.0000 0.0000
# 2 31.4083 60.8388 30.2628 0.0000 0.0000 0.0000
# 3 28.7802 30.2628 76.6816 0.0000 0.0000 0.0000
# 4 0.0000 0.0000 0.0000 17.9455 0.0000 0.0000
# 5 0.0000 0.0000 0.0000 0.0000 22.0519 0.0000
# 6 0.0000 0.0000 0.0000 0.0000 0.0000 20.5534
#
#
#
# Elastic Compliance Matrix: (Units=1/GPa)
#
#
# Indices 1 2 3 4 5 6 
#
# 1 0.008600 -0.003526 -0.001836 0.000000 0.000000 0.000000
# 2 -0.003526 0.021898 -0.007319 0.000000 0.000000 0.000000
# 3 -0.001836 -0.007319 0.016618 0.000000 0.000000 0.000000
# 4 0.000000 0.000000 0.000000 0.055724 0.000000 0.000000
# 5 0.000000 0.000000 0.000000 0.000000 0.045348 0.000000
# 6 0.000000 0.000000 0.000000 0.000000 0.000000 0.048654
#
#
# Mechanical properties :
#
#
# Convention : Reuss Voigt Hill
#
# Bulk Modulus (GPa) = 45.96844 50.41441 48.19143
# Shear Modulus (GPa) = 21.79080 24.26854 23.02967
#
# Velocity S-wave (km/s) = 3.45307 3.64410 3.54987
# Velocity P-wave (km/s) = 6.40715 6.72994 6.57053
#
# Compressibility (1/GPa) = 0.02175405
#
# Stress axis : x y z
#
# Youngs Moduli (GPa) = 116.28315 45.66663 60.17461
#
# Poissons Ratio (x) = 0.16104 0.11048
# Poissons Ratio (y) = 0.41006 0.44039
# Poissons Ratio (z) = 0.21349 0.33421
#
# Static dielectric constant tensor:
#      x y z
#    x 1.655120 0.000000 0.000000 
#    y 0.000000 1.616050 0.000000 
#    z 0.000000 0.000000 1.648010 
# 
# From -- ./inp_files/19397.got.cif
#   From: 2010.05.17/outbox.cif.g08.bks.cpg/sg73_10_cif.got.tgz:19397.got - 2010.06.03 17:35:07.
