data_PCOD9530621
_publ_section_title
;
Structure prediction by ZEFSAII (Michael W. Deem and Ramdas Pophale) SiO2 
 PCOD9530621
Probable space group: I B C A 
;
_chemical_formula_sum "Si O2"
_cell_formula_units_Z 96
_cell_length_a 18.932253
_cell_length_b 18.535696
_cell_length_c 11.693719
_cell_angle_alpha 90.000000
_cell_angle_beta 90.000000
_cell_angle_gamma 90.000000
_cell_volume 4103.588944
_symmetry_space_group_name_H-M "I B C A "
_symmetry_group_IT_number 73
_symmetry_cell_setting 'orthorhombic'
loop_
_space_group_symop_operation_xyz
x,y,z
-x,1/2-y,z
x,-y,1/2-z
1/2-x,y,-z
-x,-y,-z
x,1/2+y,-z
-x,y,1/2+z
1/2+x,-y,z
1/2+x,1/2+y,1/2+z
1/2-x,-y,1/2+z
1/2+x,1/2-y,-z
-x,1/2+y,1/2-z
1/2-x,1/2-y,1/2-z
1/2+x,y,1/2-z
1/2-x,1/2+y,z
x,1/2-y,1/2+z
loop_
_atom_site_type_symbol
_atom_site_label
_atom_site_fract_x
_atom_site_fract_y
_atom_site_fract_z
Si Si1 0.755983 0.086232 0.321710
Si Si2 0.691581 0.724867 0.570700
Si Si3 0.890618 0.392755 0.431321
Si Si4 0.619147 0.000000 0.250000
Si Si5 0.423327 0.768690 0.394807
Si Si6 0.617165 0.853771 0.685599
Si Si7 0.250000 0.470050 0.000000
O O1 0.738515 0.163526 0.373595
O O2 0.818360 0.096960 0.230601
O O3 0.782972 0.026710 0.410513
O O4 0.676449 0.058171 0.295812
O O5 0.750000 0.769007 0.500000
O O6 0.629500 0.697853 0.487694
O O7 0.655040 0.778475 0.655996
O O8 0.922235 0.455497 0.348557
O O9 0.893868 0.313203 0.374291
O O10 0.914573 0.382604 0.565123
O O11 0.810715 0.421491 0.446441
O O12 0.500000 0.750000 0.443351
O O13 0.430921 0.825793 0.290915
#
# Coordination Sequence:
#
# PCOD9530621 Si02
#       7
#    16  16  16   8  16  16   8
#     4  11  19  34  59  95 133 169 211 272 337 398
#     4  11  22  36  64  97 130 164 219 286 346 392
#     4  10  23  38  62  91 129 166 213 257 333 395
#     4  10  22  36  60  92 134 168 200 264 326 406
#     4  11  25  43  63  91 130 174 222 276 337 399
#     4  11  22  34  63  93 130 164 215 282 335 395
#     4  10  20  36  58  94 134 166 210 266 334 406
#
# _framework density 23.394155000000001
#
# number of rings (size 3 to 8) (size 9 to 14) (size 15 to 20)
#    0.000    1.333    2.500    3.500    9.333    2.667 
#    0.000    0.000    0.000   17.000    0.000    0.000 
#    0.000    0.000    0.000    0.000    0.000    0.000 
#
# Total GULP energy -267456.682934 kJ/mol
# GULP energy per Si atom -5572.014228 kJ/mol
# Density = 2.334091 g / cm^3
# Si number density = 23.394155 Si / 1000 Ang^3
#
#
#
# Elastic Constant Matrix: (Units=GPa)
#
#
# Indices 1 2 3 4 5 6 
#
# 1 47.5886 -1.2848 6.7112 0.0000 0.0000 0.0000
# 2 -1.2848 100.8542 45.4959 0.0000 0.0000 0.0000
# 3 6.7112 45.4959 113.2286 0.0000 0.0000 0.0000
# 4 0.0000 0.0000 0.0000 40.3989 0.0000 0.0000
# 5 0.0000 0.0000 0.0000 0.0000 -0.3356 0.0000
# 6 0.0000 0.0000 0.0000 0.0000 0.0000 5.5638
#
#
#
# Elastic Compliance Matrix: (Units=1/GPa)
#
#
# Indices 1 2 3 4 5 6 
#
# 1 0.021277 0.001026 -0.001673 0.000000 0.000000 0.000000
# 2 0.001026 0.012160 -0.004947 0.000000 0.000000 0.000000
# 3 -0.001673 -0.004947 0.010918 0.000000 0.000000 0.000000
# 4 0.000000 0.000000 0.000000 0.024753 0.000000 0.000000
# 5 0.000000 0.000000 0.000000 0.000000 -2.979941 0.000000
# 6 0.000000 0.000000 0.000000 0.000000 0.000000 0.179732
#
#
# Mechanical properties :
#
#
# Convention : Reuss Voigt Hill
#
# Bulk Modulus (GPa) = 30.15027 40.39067 35.27047
# Shear Modulus (GPa) = -1.84580 23.17537 10.66478
#
# Velocity S-wave (km/s) = -0.88922 3.15087 2.13744
# Velocity P-wave (km/s) = 3.44407 5.52631 4.60444
#
# Compressibility (1/GPa) = 0.03316719
#
# Stress axis : x y z
#
# Youngs Moduli (GPa) = 46.99880 82.23776 91.58774
#
# Poissons Ratio (x) = -0.08437 0.15326
# Poissons Ratio (y) = -0.04822 0.45306
# Poissons Ratio (z) = 0.07865 0.40681
#
# Static dielectric constant tensor:
#      x y z
#    x 1.835540 0.000000 0.000000 
#    y 0.000000 1.939840 0.000000 
#    z 0.000000 0.000000 2.111010 
# 
# From -- ./inp_files/12909.got.cif
#   From: 2010.05.17/outbox.cif.g08.bks.cpg/sg73_7_cif.got.tgz:12909.got - 2010.06.03 17:35:07.
