data_PCOD9530497
_publ_section_title
;
Structure prediction by ZEFSAII (Michael W. Deem and Ramdas Pophale) SiO2 
 PCOD9530497
Probable space group: I B C A 
;
_chemical_formula_sum "Si O2"
_cell_formula_units_Z 112
_cell_length_a 5.702026
_cell_length_b 34.937124
_cell_length_c 31.631451
_cell_angle_alpha 90.000000
_cell_angle_beta 90.000000
_cell_angle_gamma 90.000000
_cell_volume 6301.376934
_symmetry_space_group_name_H-M "I B C A "
_symmetry_group_IT_number 73
_symmetry_cell_setting 'orthorhombic'
loop_
_space_group_symop_operation_xyz
x,y,z
-x,1/2-y,z
x,-y,1/2-z
1/2-x,y,-z
-x,-y,-z
x,1/2+y,-z
-x,y,1/2+z
1/2+x,-y,z
1/2+x,1/2+y,1/2+z
1/2-x,-y,1/2+z
1/2+x,1/2-y,-z
-x,1/2+y,1/2-z
1/2-x,1/2-y,1/2-z
1/2+x,y,1/2-z
1/2-x,1/2+y,z
x,1/2-y,1/2+z
loop_
_atom_site_type_symbol
_atom_site_label
_atom_site_fract_x
_atom_site_fract_y
_atom_site_fract_z
Si Si1 0.022913 0.485767 0.451066
Si Si2 0.500000 0.750000 0.197079
Si Si3 0.460832 0.602608 0.930475
Si Si4 0.305121 0.354130 0.139458
Si Si5 0.853465 0.669785 0.772324
Si Si6 0.657053 0.713608 0.370624
Si Si7 0.750000 0.648574 0.000000
Si Si8 0.929697 0.166529 0.568603
O O1 0.260907 0.505482 0.433348
O O2 0.068522 0.440828 0.444626
O O3 0.000000 0.500000 0.500000
O O4 0.640120 0.716291 0.220943
O O5 0.667137 0.774139 0.166094
O O6 0.575727 0.609568 0.884012
O O7 0.632239 0.622200 0.964552
O O8 0.223369 0.627586 0.932517
O O9 0.173558 0.353942 0.183979
O O10 0.508156 0.322604 0.144813
O O11 0.124783 0.338090 0.104816
O O12 0.609816 0.661273 0.747579
O O13 0.500000 0.750000 0.378417
O O14 0.772039 0.700534 0.414285
O O15 0.947638 0.672321 0.976036
#
# Coordination Sequence:
#
# PCOD9530497 Si02
#       8
#    16   8  16  16  16  16   8  16
#     4  10  22  35  56  89 134 159 186 230 292 348
#     4  12  22  36  56  84 120 154 198 252 338 384
#     4  10  22  36  61  86 121 163 199 233 300 373
#     4  10  22  38  56  84 114 164 200 249 304 369
#     4  12  25  38  58  89 126 155 205 261 318 384
#     4  11  19  35  58  81 109 155 210 256 316 374
#     4  10  20  34  56  88 104 144 214 250 296 348
#     4  10  21  35  57  82 108 152 213 252 299 365
#
# _framework density 17.773892
#
# number of rings (size 3 to 8) (size 9 to 14) (size 15 to 20)
#    0.000    1.429    2.857    2.571   10.000    0.000 
#    0.000    0.000    0.000    0.000  252.571    0.000 
#    0.000    3.429    0.000    0.000    0.000    0.000 
#
# Total GULP energy -312231.963561 kJ/mol
# GULP energy per Si atom -5575.570778 kJ/mol
# Density = 1.773344 g / cm^3
# Si number density = 17.773892 Si / 1000 Ang^3
#
#
#
# Elastic Constant Matrix: (Units=GPa)
#
#
# Indices 1 2 3 4 5 6 
#
# 1 105.5421 10.3473 34.2263 0.0000 0.0000 0.0000
# 2 10.3473 26.3146 20.1938 0.0000 0.0000 0.0000
# 3 34.2263 20.1938 83.2256 0.0000 0.0000 0.0000
# 4 0.0000 0.0000 0.0000 -64.3815 0.0000 0.0000
# 5 0.0000 0.0000 0.0000 0.0000 38.2160 0.0000
# 6 0.0000 0.0000 0.0000 0.0000 0.0000 4.6222
#
#
#
# Elastic Compliance Matrix: (Units=1/GPa)
#
#
# Indices 1 2 3 4 5 6 
#
# 1 0.010956 -0.001045 -0.004252 0.000000 0.000000 0.000000
# 2 -0.001045 0.046796 -0.010925 0.000000 0.000000 0.000000
# 3 -0.004252 -0.010925 0.016415 0.000000 0.000000 0.000000
# 4 0.000000 0.000000 0.000000 -0.015532 0.000000 0.000000
# 5 0.000000 0.000000 0.000000 0.000000 0.026167 0.000000
# 6 0.000000 0.000000 0.000000 0.000000 0.000000 0.216347
#
#
# Mechanical properties :
#
#
# Convention : Reuss Voigt Hill
#
# Bulk Modulus (GPa) = 23.96731 38.29078 31.12904
# Shear Modulus (GPa) = 14.38845 5.71235 10.05040
#
# Velocity S-wave (km/s) = 2.84831 1.79468 2.38052
# Velocity P-wave (km/s) = 4.93264 5.08769 5.01076
#
# Compressibility (1/GPa) = 0.04172350
#
# Stress axis : x y z
#
# Youngs Moduli (GPa) = 91.27182 21.36918 60.91984
#
# Poissons Ratio (x) = 0.02233 0.25904
# Poissons Ratio (y) = 0.09539 0.66554
# Poissons Ratio (z) = 0.38810 0.23345
#
# Static dielectric constant tensor:
#      x y z
#    x 1.695170 0.000000 0.000000 
#    y 0.000000 1.573600 0.000000 
#    z 0.000000 0.000000 1.652170 
# 
# From -- ./inp_files/33393.got.cif
#   From: 2010.05.17/outbox.cif.g08.bks.cpg/sg73_17_cif.got.tgz:33393.got - 2010.06.03 17:35:07.
