data_PCOD9530555
_publ_section_title
;
Structure prediction by ZEFSAII (Michael W. Deem and Ramdas Pophale) SiO2 
 PCOD9530555
Probable space group: I B C A 
;
_chemical_formula_sum "Si O2"
_cell_formula_units_Z 72
_cell_length_a 18.592941
_cell_length_b 18.431543
_cell_length_c 8.263518
_cell_angle_alpha 90.000000
_cell_angle_beta 90.000000
_cell_angle_gamma 90.000000
_cell_volume 2831.879453
_symmetry_space_group_name_H-M "I B C A "
_symmetry_group_IT_number 73
_symmetry_cell_setting 'orthorhombic'
loop_
_space_group_symop_operation_xyz
x,y,z
-x,1/2-y,z
x,-y,1/2-z
1/2-x,y,-z
-x,-y,-z
x,1/2+y,-z
-x,y,1/2+z
1/2+x,-y,z
1/2+x,1/2+y,1/2+z
1/2-x,-y,1/2+z
1/2+x,1/2-y,-z
-x,1/2+y,1/2-z
1/2-x,1/2-y,1/2-z
1/2+x,y,1/2-z
1/2-x,1/2+y,z
x,1/2-y,1/2+z
loop_
_atom_site_type_symbol
_atom_site_label
_atom_site_fract_x
_atom_site_fract_y
_atom_site_fract_z
Si Si1 0.652305 0.802282 0.536312
Si Si2 0.807607 0.149414 0.369414
Si Si3 0.403972 0.574458 0.303426
Si Si4 0.953277 0.101515 0.447138
Si Si5 0.000000 0.750000 0.971035
O O1 0.703830 0.829422 0.681362
O O2 0.674762 0.727652 0.450543
O O3 0.638525 0.867566 0.409864
O O4 0.574081 0.778244 0.608520
O O5 0.750000 0.119086 0.500000
O O6 0.876366 0.095082 0.362060
O O7 0.365168 0.500000 0.250000
O O8 0.432915 0.605479 0.135282
O O9 0.477622 0.554902 0.399090
O O10 0.981310 0.182295 0.416203
#
# Coordination Sequence:
#
# PCOD9530555 Si02
#       5
#    16  16  16  16   8
#     4  10  20  35  57  89 127 164 209 269 329 393
#     4  11  22  37  60  91 125 166 212 266 329 392
#     4  11  22  37  60  91 125 167 213 266 328 390
#     4  10  20  35  57  87 123 157 202 262 325 390
#     4   8  16  30  52  82 112 150 194 256 334 378
#
# _framework density 25.424811999999999
#
# number of rings (size 3 to 8) (size 9 to 14) (size 15 to 20)
#    0.000    1.778    0.000    6.667    0.000    7.111 
#    0.000    0.000    0.000    5.333    0.000    0.000 
#    0.000    0.000    0.000    0.000    0.000    0.000 
#
# Total GULP energy -200796.955938 kJ/mol
# GULP energy per Si atom -5577.693221 kJ/mol
# Density = 2.536694 g / cm^3
# Si number density = 25.424812 Si / 1000 Ang^3
#
#
#
# Elastic Constant Matrix: (Units=GPa)
#
#
# Indices 1 2 3 4 5 6 
#
# 1 105.8636 5.4230 3.4399 0.0000 0.0000 0.0000
# 2 5.4230 31.8335 13.4831 0.0000 0.0000 0.0000
# 3 3.4399 13.4831 128.7234 0.0000 0.0000 0.0000
# 4 0.0000 0.0000 0.0000 25.3631 0.0000 0.0000
# 5 0.0000 0.0000 0.0000 0.0000 30.9974 0.0000
# 6 0.0000 0.0000 0.0000 0.0000 0.0000 9.5082
#
#
#
# Elastic Compliance Matrix: (Units=1/GPa)
#
#
# Indices 1 2 3 4 5 6 
#
# 1 0.009530 -0.001586 -0.000089 0.000000 0.000000 0.000000
# 2 -0.001586 0.033136 -0.003428 0.000000 0.000000 0.000000
# 3 -0.000089 -0.003428 0.008130 0.000000 0.000000 0.000000
# 4 0.000000 0.000000 0.000000 0.039427 0.000000 0.000000
# 5 0.000000 0.000000 0.000000 0.000000 0.032261 0.000000
# 6 0.000000 0.000000 0.000000 0.000000 0.000000 0.105172
#
#
# Mechanical properties :
#
#
# Convention : Reuss Voigt Hill
#
# Bulk Modulus (GPa) = 24.63655 34.56806 29.60231
# Shear Modulus (GPa) = 19.88926 29.44538 24.66732
#
# Velocity S-wave (km/s) = 2.79996 3.40683 3.11819
# Velocity P-wave (km/s) = 4.49044 5.39454 4.96312
#
# Compressibility (1/GPa) = 0.04059010
#
# Stress axis : x y z
#
# Youngs Moduli (GPa) = 104.92909 30.17887 123.00020
#
# Poissons Ratio (x) = 0.04786 0.01089
# Poissons Ratio (y) = 0.16642 0.42169
# Poissons Ratio (z) = 0.00929 0.10347
#
# Static dielectric constant tensor:
#      x y z
#    x 2.199630 0.000000 0.000000 
#    y 0.000000 2.019320 0.000000 
#    z 0.000000 0.000000 2.033030 
# 
# From -- ./inp_files/6122.got.cif
#   From: 2010.05.17/outbox.cif.g08.bks.cpg/sg73_4_cif.got.tgz:6122.got - 2010.06.03 17:35:07.
