data_PCOD9530158
_publ_section_title
;
Structure prediction by ZEFSAII (Michael W. Deem and Ramdas Pophale) SiO2 
 PCOD9530158
Probable space group: I B C A 
;
_chemical_formula_sum "Si O2"
_cell_formula_units_Z 120
_cell_length_a 18.469355
_cell_length_b 14.826204
_cell_length_c 17.570672
_cell_angle_alpha 90.000000
_cell_angle_beta 90.000000
_cell_angle_gamma 90.000000
_cell_volume 4811.384581
_symmetry_space_group_name_H-M "I B C A "
_symmetry_group_IT_number 73
_symmetry_cell_setting 'orthorhombic'
loop_
_space_group_symop_operation_xyz
x,y,z
-x,1/2-y,z
x,-y,1/2-z
1/2-x,y,-z
-x,-y,-z
x,1/2+y,-z
-x,y,1/2+z
1/2+x,-y,z
1/2+x,1/2+y,1/2+z
1/2-x,-y,1/2+z
1/2+x,1/2-y,-z
-x,1/2+y,1/2-z
1/2-x,1/2-y,1/2-z
1/2+x,y,1/2-z
1/2-x,1/2+y,z
x,1/2-y,1/2+z
loop_
_atom_site_type_symbol
_atom_site_label
_atom_site_fract_x
_atom_site_fract_y
_atom_site_fract_z
Si Si1 0.098819 0.523017 0.455547
Si Si2 0.770109 0.237508 0.161565
Si Si3 0.417658 0.766452 0.084536
Si Si4 0.141026 0.500000 0.250000
Si Si5 0.601111 0.449456 0.616848
Si Si6 0.625274 0.258643 0.083473
Si Si7 0.759888 0.025207 0.118720
Si Si8 0.460133 0.107203 0.176877
O O1 0.085660 0.626095 0.431299
O O2 0.070896 0.504367 0.540321
O O3 0.187122 0.513019 0.453820
O O4 0.067773 0.457780 0.391645
O O5 0.750000 0.250000 0.250000
O O6 0.852267 0.263281 0.139836
O O7 0.707330 0.282649 0.108675
O O8 0.766114 0.131114 0.141114
O O9 0.500000 0.750000 0.109693
O O10 0.399819 0.719760 0.002292
O O11 0.194404 0.523977 0.183194
O O12 0.085004 0.416785 0.247760
O O13 0.622075 0.349244 0.588277
O O14 0.676531 0.498767 0.630970
O O15 0.543041 0.424316 0.681077
O O16 0.568302 0.298682 0.144102
#
# Coordination Sequence:
#
# PCOD9530158 Si02
#       8
#    16  16  16   8  16  16  16  16
#     4   9  19  36  56  80 112 145 176 225 293 345
#     4  10  20  37  58  82 114 152 193 236 293 358
#     4  10  20  38  60  85 115 150 195 249 297 343
#     4  10  22  38  52  74 116 156 182 224 288 348
#     4  10  19  34  59  85 105 139 191 238 278 334
#     4  10  20  37  61  86 114 151 195 244 293 351
#     4   9  19  36  55  73 105 150 184 219 276 343
#     4  11  21  36  57  83 115 148 184 234 290 342
#
# _framework density 24.940846000000001
#
# number of rings (size 3 to 8) (size 9 to 14) (size 15 to 20)
#    0.000    2.133    0.000    4.000    0.000    3.733 
#    0.000   22.000    0.000    0.000    0.000    0.000 
#    0.000    0.000    0.000    0.000    0.000    0.000 
#
# Total GULP energy -334565.290741 kJ/mol
# GULP energy per Si atom -5576.088179 kJ/mol
# Density = 2.488408 g / cm^3
# Si number density = 24.940846 Si / 1000 Ang^3
#
#
#
# Elastic Constant Matrix: (Units=GPa)
#
#
# Indices 1 2 3 4 5 6 
#
# 1 197.6995 -12.3156 27.4254 0.0000 0.0000 0.0000
# 2 -12.3156 29.8140 -6.7819 0.0000 0.0000 0.0000
# 3 27.4254 -6.7819 51.6684 0.0000 0.0000 0.0000
# 4 0.0000 0.0000 0.0000 24.6961 0.0000 0.0000
# 5 0.0000 0.0000 0.0000 0.0000 32.4260 0.0000
# 6 0.0000 0.0000 0.0000 0.0000 0.0000 12.5560
#
#
#
# Elastic Compliance Matrix: (Units=1/GPa)
#
#
# Indices 1 2 3 4 5 6 
#
# 1 0.005540 0.001669 -0.002721 0.000000 0.000000 0.000000
# 2 0.001669 0.035077 0.003718 0.000000 0.000000 0.000000
# 3 -0.002721 0.003718 0.021287 0.000000 0.000000 0.000000
# 4 0.000000 0.000000 0.000000 0.040492 0.000000 0.000000
# 5 0.000000 0.000000 0.000000 0.000000 0.030839 0.000000
# 6 0.000000 0.000000 0.000000 0.000000 0.000000 0.079643
#
#
# Mechanical properties :
#
#
# Convention : Reuss Voigt Hill
#
# Bulk Modulus (GPa) = 14.87321 32.87086 23.87203
# Shear Modulus (GPa) = 21.74317 31.99256 26.86787
#
# Velocity S-wave (km/s) = 2.95581 3.58542 3.28573
# Velocity P-wave (km/s) = 4.19827 5.50894 4.89765
#
# Compressibility (1/GPa) = 0.06723500
#
# Stress axis : x y z
#
# Youngs Moduli (GPa) = 180.51589 28.50905 46.97774
#
# Poissons Ratio (x) = -0.04759 0.12784
# Poissons Ratio (y) = -0.30133 -0.17467
# Poissons Ratio (z) = 0.49124 -0.10600
#
# Static dielectric constant tensor:
#      x y z
#    x 2.075090 0.000000 0.000000 
#    y 0.000000 2.097220 0.000000 
#    z 0.000000 0.000000 2.054160 
# 
# From -- ./inp_files/22670.got.cif
#   From: 2010.05.17/outbox.cif.g08.bks.cpg/sg73_12_cif.got.tgz:22670.got - 2010.06.03 17:35:07.
