data_PCOD9530686
_publ_section_title
;
Structure prediction by ZEFSAII (Michael W. Deem and Ramdas Pophale) SiO2 
 PCOD9530686
Probable space group: I B C A 
;
_chemical_formula_sum "Si O2"
_cell_formula_units_Z 88
_cell_length_a 18.521974
_cell_length_b 16.028934
_cell_length_c 12.698159
_cell_angle_alpha 90.000000
_cell_angle_beta 90.000000
_cell_angle_gamma 90.000000
_cell_volume 3769.924665
_symmetry_space_group_name_H-M "I B C A "
_symmetry_group_IT_number 73
_symmetry_cell_setting 'orthorhombic'
loop_
_space_group_symop_operation_xyz
x,y,z
-x,1/2-y,z
x,-y,1/2-z
1/2-x,y,-z
-x,-y,-z
x,1/2+y,-z
-x,y,1/2+z
1/2+x,-y,z
1/2+x,1/2+y,1/2+z
1/2-x,-y,1/2+z
1/2+x,1/2-y,-z
-x,1/2+y,1/2-z
1/2-x,1/2-y,1/2-z
1/2+x,y,1/2-z
1/2-x,1/2+y,z
x,1/2-y,1/2+z
loop_
_atom_site_type_symbol
_atom_site_label
_atom_site_fract_x
_atom_site_fract_y
_atom_site_fract_z
Si Si1 0.196528 0.500000 0.250000
Si Si2 0.165904 0.523228 0.010404
Si Si3 0.792214 0.175886 0.196128
Si Si4 0.475439 0.095406 0.994182
Si Si5 0.931352 0.708695 0.678354
Si Si6 0.123153 0.338464 0.995894
O O1 0.155225 0.513292 0.138016
O O2 0.239847 0.414985 0.224115
O O3 0.149197 0.431448 0.963892
O O4 0.250000 0.545771 0.000000
O O5 0.108611 0.587853 0.959542
O O6 0.750000 0.250000 0.250000
O O7 0.870426 0.172949 0.249427
O O8 0.814341 0.190315 0.075503
O O9 0.543978 0.146096 0.949608
O O10 0.466684 0.137357 0.107506
O O11 0.500000 0.000000 0.000000
O O12 0.892311 0.774315 0.598177
O O13 0.000000 0.750000 0.733868
#
# Coordination Sequence:
#
# PCOD9530686 Si02
#       6
#     8  16  16  16  16  16
#     4  10  22  42  60  98 132 170 224 276 342 408
#     4  10  20  36  65  90 131 171 219 283 339 402
#     4  11  24  41  68  95 136 178 220 280 348 402
#     4   9  18  39  62  87 119 171 219 267 339 397
#     4  10  21  39  63  91 128 166 225 275 337 408
#     4   9  22  38  63  88 131 169 218 275 334 407
#
# _framework density 23.342642000000001
#
# number of rings (size 3 to 8) (size 9 to 14) (size 15 to 20)
#    0.000    2.182    1.818    0.000    5.091    3.636 
#    0.000    0.000    0.000    0.000    0.000    0.000 
#    0.000    0.000    0.000    0.000    0.000    0.000 
#
# Total GULP energy -245078.451893 kJ/mol
# GULP energy per Si atom -5569.964816 kJ/mol
# Density = 2.328951 g / cm^3
# Si number density = 23.342642 Si / 1000 Ang^3
#
#
#
# Elastic Constant Matrix: (Units=GPa)
#
#
# Indices 1 2 3 4 5 6 
#
# 1 139.9707 22.6143 31.6696 0.0000 0.0000 0.0000
# 2 22.6143 50.1294 18.6740 0.0000 0.0000 0.0000
# 3 31.6696 18.6740 68.4003 0.0000 0.0000 0.0000
# 4 0.0000 0.0000 0.0000 7.4129 0.0000 0.0000
# 5 0.0000 0.0000 0.0000 0.0000 34.8888 0.0000
# 6 0.0000 0.0000 0.0000 0.0000 0.0000 36.5374
#
#
#
# Elastic Compliance Matrix: (Units=1/GPa)
#
#
# Indices 1 2 3 4 5 6 
#
# 1 0.008266 -0.002564 -0.003127 0.000000 0.000000 0.000000
# 2 -0.002564 0.023002 -0.005093 0.000000 0.000000 0.000000
# 3 -0.003127 -0.005093 0.017458 0.000000 0.000000 0.000000
# 4 0.000000 0.000000 0.000000 0.134900 0.000000 0.000000
# 5 0.000000 0.000000 0.000000 0.000000 0.028662 0.000000
# 6 0.000000 0.000000 0.000000 0.000000 0.000000 0.027369
#
#
# Mechanical properties :
#
#
# Convention : Reuss Voigt Hill
#
# Bulk Modulus (GPa) = 36.82092 44.93512 40.87802
# Shear Modulus (GPa) = 18.49937 28.13732 23.31835
#
# Velocity S-wave (km/s) = 2.81822 3.47566 3.16406
# Velocity P-wave (km/s) = 5.13791 5.94970 5.55865
#
# Compressibility (1/GPa) = 0.02715847
#
# Stress axis : x y z
#
# Youngs Moduli (GPa) = 120.97480 43.47416 57.28003
#
# Poissons Ratio (x) = 0.11147 0.17913
# Poissons Ratio (y) = 0.31019 0.29171
# Poissons Ratio (z) = 0.37832 0.22140
#
# Static dielectric constant tensor:
#      x y z
#    x 1.968240 0.000000 0.000000 
#    y 0.000000 1.951010 0.000000 
#    z 0.000000 0.000000 1.902690 
# 
# From -- ./inp_files/17962.got.cif
#   From: 2010.05.17/outbox.cif.g08.bks.cpg/sg73_9_cif.got.tgz:17962.got - 2010.06.03 17:35:07.
