data_PCOD9530171
_publ_section_title
;
Structure prediction by ZEFSAII (Michael W. Deem and Ramdas Pophale) SiO2 
 PCOD9530171
Probable space group: I B C A 
;
_chemical_formula_sum "Si O2"
_cell_formula_units_Z 96
_cell_length_a 22.636817
_cell_length_b 10.814109
_cell_length_c 17.044898
_cell_angle_alpha 90.000000
_cell_angle_beta 90.000000
_cell_angle_gamma 90.000000
_cell_volume 4172.540006
_symmetry_space_group_name_H-M "I B C A "
_symmetry_group_IT_number 73
_symmetry_cell_setting 'orthorhombic'
loop_
_space_group_symop_operation_xyz
x,y,z
-x,1/2-y,z
x,-y,1/2-z
1/2-x,y,-z
-x,-y,-z
x,1/2+y,-z
-x,y,1/2+z
1/2+x,-y,z
1/2+x,1/2+y,1/2+z
1/2-x,-y,1/2+z
1/2+x,1/2-y,-z
-x,1/2+y,1/2-z
1/2-x,1/2-y,1/2-z
1/2+x,y,1/2-z
1/2-x,1/2+y,z
x,1/2-y,1/2+z
loop_
_atom_site_type_symbol
_atom_site_label
_atom_site_fract_x
_atom_site_fract_y
_atom_site_fract_z
Si Si1 0.927967 0.372864 0.291261
Si Si2 0.500000 0.250000 0.089577
Si Si3 0.201745 0.112234 0.698064
Si Si4 0.601611 0.623386 0.079453
Si Si5 0.687139 0.731838 0.853221
Si Si6 0.381671 0.859609 0.484311
Si Si7 0.000000 0.250000 0.658456
O O1 0.922323 0.500000 0.250000
O O2 0.870146 0.351883 0.342837
O O3 0.980439 0.359961 0.352949
O O4 0.947342 0.286204 0.218432
O O5 0.443980 0.196624 0.045509
O O6 0.141730 0.080867 0.652895
O O7 0.189218 0.210095 0.766249
O O8 0.251539 0.160410 0.638364
O O9 0.226394 0.000000 0.750000
O O10 0.609895 0.509428 0.017012
O O11 0.533360 0.648348 0.104498
O O12 0.627070 0.760397 0.055189
O O13 0.670142 0.826823 0.921791
#
# Coordination Sequence:
#
# PCOD9530171 Si02
#       7
#    16   8  16  16  16  16   8
#     4  10  19  34  61  99 132 165 222 290 337 397
#     4   9  21  38  62  90 134 182 222 278 334 408
#     4  11  22  44  74  98 131 176 231 286 344 403
#     4  12  26  44  70  98 141 188 226 286 339 419
#     4  10  22  42  68 101 128 171 225 285 339 407
#     4  11  25  46  65  98 141 183 229 276 353 406
#     4  11  23  38  64  98 130 184 238 272 348 406
#
# _framework density 23.007567999999999
#
# number of rings (size 3 to 8) (size 9 to 14) (size 15 to 20)
#    0.000    1.333    3.333    2.000    0.000    6.667 
#    6.000    1.667    0.000    0.000    0.000    0.000 
#    0.000    0.000    0.000    0.000    0.000    0.000 
#
# Total GULP energy -267310.101815 kJ/mol
# GULP energy per Si atom -5568.960454 kJ/mol
# Density = 2.295520 g / cm^3
# Si number density = 23.007568 Si / 1000 Ang^3
#
#
#
# Elastic Constant Matrix: (Units=GPa)
#
#
# Indices 1 2 3 4 5 6 
#
# 1 81.9134 14.7488 12.9903 0.0000 0.0000 0.0000
# 2 14.7488 63.0633 2.7125 0.0000 0.0000 0.0000
# 3 12.9903 2.7125 48.3779 0.0000 0.0000 0.0000
# 4 0.0000 0.0000 0.0000 29.0706 0.0000 0.0000
# 5 0.0000 0.0000 0.0000 0.0000 27.7009 0.0000
# 6 0.0000 0.0000 0.0000 0.0000 0.0000 27.4047
#
#
#
# Elastic Compliance Matrix: (Units=1/GPa)
#
#
# Indices 1 2 3 4 5 6 
#
# 1 0.013280 -0.002960 -0.003400 0.000000 0.000000 0.000000
# 2 -0.002960 0.016555 -0.000134 0.000000 0.000000 0.000000
# 3 -0.003400 -0.000134 0.021591 0.000000 0.000000 0.000000
# 4 0.000000 0.000000 0.000000 0.034399 0.000000 0.000000
# 5 0.000000 0.000000 0.000000 0.000000 0.036100 0.000000
# 6 0.000000 0.000000 0.000000 0.000000 0.000000 0.036490
#
#
# Mechanical properties :
#
#
# Convention : Reuss Voigt Hill
#
# Bulk Modulus (GPa) = 26.01466 28.25089 27.13278
# Shear Modulus (GPa) = 27.14225 27.69545 27.41885
#
# Velocity S-wave (km/s) = 3.43842 3.47328 3.45589
# Velocity P-wave (km/s) = 5.20530 5.32827 5.26715
#
# Compressibility (1/GPa) = 0.03843986
#
# Stress axis : x y z
#
# Youngs Moduli (GPa) = 75.30067 60.40475 46.31549
#
# Poissons Ratio (x) = 0.17877 0.15747
# Poissons Ratio (y) = 0.22286 0.00618
# Poissons Ratio (z) = 0.25602 0.00807
#
# Static dielectric constant tensor:
#      x y z
#    x 1.834180 0.000000 0.000000 
#    y 0.000000 1.969350 0.000000 
#    z 0.000000 0.000000 1.960650 
# 
# From -- ./inp_files/23574.got.cif
#   From: 2010.05.17/outbox.cif.g08.bks.cpg/sg73_12_cif.got.tgz:23574.got - 2010.06.03 17:35:07.
