data_PCOD9530339
_publ_section_title
;
Structure prediction by ZEFSAII (Michael W. Deem and Ramdas Pophale) SiO2 
 PCOD9530339
Probable space group: I B C A 
;
_chemical_formula_sum "Si O2"
_cell_formula_units_Z 112
_cell_length_a 10.379791
_cell_length_b 24.401911
_cell_length_c 18.124744
_cell_angle_alpha 90.000000
_cell_angle_beta 90.000000
_cell_angle_gamma 90.000000
_cell_volume 4590.757252
_symmetry_space_group_name_H-M "I B C A "
_symmetry_group_IT_number 73
_symmetry_cell_setting 'orthorhombic'
loop_
_space_group_symop_operation_xyz
x,y,z
-x,1/2-y,z
x,-y,1/2-z
1/2-x,y,-z
-x,-y,-z
x,1/2+y,-z
-x,y,1/2+z
1/2+x,-y,z
1/2+x,1/2+y,1/2+z
1/2-x,-y,1/2+z
1/2+x,1/2-y,-z
-x,1/2+y,1/2-z
1/2-x,1/2-y,1/2-z
1/2+x,y,1/2-z
1/2-x,1/2+y,z
x,1/2-y,1/2+z
loop_
_atom_site_type_symbol
_atom_site_label
_atom_site_fract_x
_atom_site_fract_y
_atom_site_fract_z
Si Si1 0.889859 0.285110 0.694460
Si Si2 0.815277 0.841427 0.434190
Si Si3 0.879485 0.109042 0.821342
Si Si4 0.506176 0.059542 0.959332
Si Si5 0.853414 0.588512 0.590161
Si Si6 0.280950 0.830740 0.689971
Si Si7 0.154843 0.480074 0.170176
O O1 0.923291 0.313362 0.616866
O O2 0.798733 0.233555 0.674010
O O3 0.835219 0.328385 0.751062
O O4 0.000000 0.250000 0.732508
O O5 0.750000 0.808486 0.500000
O O6 0.699453 0.851373 0.376780
O O7 0.875422 0.897082 0.468563
O O8 0.886575 0.137789 0.740778
O O9 0.012287 0.094207 0.862116
O O10 0.778544 0.058558 0.817271
O O11 0.533744 0.046417 0.873582
O O12 0.391827 0.088469 0.004430
O O13 0.500000 0.000000 0.000000
O O14 0.760501 0.635102 0.620179
O O15 0.800597 0.529753 0.617262
O O16 0.111956 0.500000 0.250000
#
# Coordination Sequence:
#
# PCOD9530339 Si02
#       7
#    16  16  16  16  16  16  16
#     4  10  22  41  63  88 126 168 209 281 338 389
#     4  10  19  39  63  87 117 168 218 253 322 412
#     4  10  20  36  61  85 123 169 208 269 331 393
#     4   9  20  37  63  89 128 166 210 262 330 394
#     4  11  20  37  61  91 127 168 216 276 330 396
#     4  10  21  39  62  92 122 158 229 271 331 401
#     4  10  20  36  55  94 129 166 222 259 319 414
#
# _framework density 24.396844999999999
#
# number of rings (size 3 to 8) (size 9 to 14) (size 15 to 20)
#    0.000    2.000    2.857    0.857    0.000    0.571 
#    2.571    1.429    0.000    0.000    0.000    0.000 
#    0.000    0.000    0.000    0.000    0.000    0.000 
#
# Total GULP energy -312160.770391 kJ/mol
# GULP energy per Si atom -5574.299471 kJ/mol
# Density = 2.434132 g / cm^3
# Si number density = 24.396845 Si / 1000 Ang^3
#
#
#
# Elastic Constant Matrix: (Units=GPa)
#
#
# Indices 1 2 3 4 5 6 
#
# 1 60.9082 18.5584 19.5875 0.0000 0.0000 0.0000
# 2 18.5584 84.0724 32.6025 0.0000 0.0000 0.0000
# 3 19.5875 32.6025 137.4528 0.0000 0.0000 0.0000
# 4 0.0000 0.0000 0.0000 28.4037 0.0000 0.0000
# 5 0.0000 0.0000 0.0000 0.0000 27.2910 0.0000
# 6 0.0000 0.0000 0.0000 0.0000 0.0000 37.1864
#
#
#
# Elastic Compliance Matrix: (Units=1/GPa)
#
#
# Indices 1 2 3 4 5 6 
#
# 1 0.017992 -0.003279 -0.001786 0.000000 0.000000 0.000000
# 2 -0.003279 0.013697 -0.002782 0.000000 0.000000 0.000000
# 3 -0.001786 -0.002782 0.008190 0.000000 0.000000 0.000000
# 4 0.000000 0.000000 0.000000 0.035207 0.000000 0.000000
# 5 0.000000 0.000000 0.000000 0.000000 0.036642 0.000000
# 6 0.000000 0.000000 0.000000 0.000000 0.000000 0.026892
#
#
# Mechanical properties :
#
#
# Convention : Reuss Voigt Hill
#
# Bulk Modulus (GPa) = 41.34803 47.10336 44.22570
# Shear Modulus (GPa) = 30.79327 32.68857 31.74092
#
# Velocity S-wave (km/s) = 3.55658 3.66439 3.61089
# Velocity P-wave (km/s) = 5.81812 6.10350 5.96252
#
# Compressibility (1/GPa) = 0.02418495
#
# Stress axis : x y z
#
# Youngs Moduli (GPa) = 55.58148 73.00889 122.10744
#
# Poissons Ratio (x) = 0.23939 0.21810
# Poissons Ratio (y) = 0.18225 0.33965
# Poissons Ratio (z) = 0.09928 0.20308
#
# Static dielectric constant tensor:
#      x y z
#    x 2.083130 0.000000 0.000000 
#    y 0.000000 1.977580 0.000000 
#    z 0.000000 0.000000 1.957000 
# 
# From -- ./inp_files/25578.got.cif
#   From: 2010.05.17/outbox.cif.g08.bks.cpg/sg73_13_cif.got.tgz:25578.got - 2010.06.03 17:35:07.
