data_PCOD9530270
_publ_section_title
;
Structure prediction by ZEFSAII (Michael W. Deem and Ramdas Pophale) SiO2 
 PCOD9530270
Probable space group: I B C A 
;
_chemical_formula_sum "Si O2"
_cell_formula_units_Z 96
_cell_length_a 9.192682
_cell_length_b 27.736461
_cell_length_c 18.691168
_cell_angle_alpha 90.000000
_cell_angle_beta 90.000000
_cell_angle_gamma 90.000000
_cell_volume 4765.733193
_symmetry_space_group_name_H-M "I B C A "
_symmetry_group_IT_number 73
_symmetry_cell_setting 'orthorhombic'
loop_
_space_group_symop_operation_xyz
x,y,z
-x,1/2-y,z
x,-y,1/2-z
1/2-x,y,-z
-x,-y,-z
x,1/2+y,-z
-x,y,1/2+z
1/2+x,-y,z
1/2+x,1/2+y,1/2+z
1/2-x,-y,1/2+z
1/2+x,1/2-y,-z
-x,1/2+y,1/2-z
1/2-x,1/2-y,1/2-z
1/2+x,y,1/2-z
1/2-x,1/2+y,z
x,1/2-y,1/2+z
loop_
_atom_site_type_symbol
_atom_site_label
_atom_site_fract_x
_atom_site_fract_y
_atom_site_fract_z
Si Si1 0.480276 0.630837 0.083914
Si Si2 0.250000 0.934742 0.500000
Si Si3 0.305106 0.117364 0.619696
Si Si4 0.410264 0.205195 0.524236
Si Si5 0.797882 0.102796 0.717119
Si Si6 0.058040 0.500000 0.750000
Si Si7 0.932445 0.050905 0.372015
O O1 0.373092 0.598520 0.036107
O O2 0.643664 0.610261 0.089071
O O3 0.407050 0.629422 0.162504
O O4 0.503806 0.681515 0.043132
O O5 0.169603 0.962794 0.562645
O O6 0.380316 0.162427 0.580361
O O7 0.287017 0.126095 0.704874
O O8 0.411995 0.072445 0.606628
O O9 0.500000 0.250000 0.553259
O O10 0.250000 0.221336 0.500000
O O11 0.648486 0.092995 0.674009
O O12 0.853993 0.048596 0.735076
O O13 0.959241 0.507308 0.680865
#
# Coordination Sequence:
#
# PCOD9530270 Si02
#       7
#    16   8  16  16  16   8  16
#     4  10  21  38  59  92 120 154 200 240 300 354
#     4  10  20  36  60  88 116 158 200 240 298 350
#     4  10  19  37  60  87 117 157 199 241 299 351
#     4  10  22  37  61  88 119 154 194 245 298 356
#     4  10  21  36  62  86 118 161 202 248 292 355
#     4  10  20  36  58  86 120 158 204 248 298 346
#     4  10  20  35  60  84 117 159 202 244 299 347
#
# _framework density 20.143806000000001
#
# number of rings (size 3 to 8) (size 9 to 14) (size 15 to 20)
#    0.000    2.000    1.667    2.500    1.167    1.333 
#    0.000    4.167    9.167    5.000    0.000    0.000 
#    0.000    0.000    0.000    0.000    0.000    0.000 
#
# Total GULP energy -268006.182723 kJ/mol
# GULP energy per Si atom -5583.462140 kJ/mol
# Density = 2.009796 g / cm^3
# Si number density = 20.143806 Si / 1000 Ang^3
#
#
#
# Elastic Constant Matrix: (Units=GPa)
#
#
# Indices 1 2 3 4 5 6 
#
# 1 94.8629 34.1988 43.6783 0.0000 0.0000 0.0000
# 2 34.1988 41.6649 27.1922 0.0000 0.0000 0.0001
# 3 43.6783 27.1922 105.6215 -0.0001 0.0000 0.0005
# 4 0.0000 0.0000 -0.0001 7.3986 0.0000 0.0009
# 5 0.0000 0.0000 0.0000 0.0000 31.7859 0.0001
# 6 0.0000 0.0001 0.0005 0.0009 0.0001 -237.1904
#
#
#
# Elastic Compliance Matrix: (Units=1/GPa)
#
#
# Indices 1 2 3 4 5 6 
#
# 1 0.016234 -0.010749 -0.003946 0.000000 0.000000 0.000000
# 2 -0.010749 0.035966 -0.004814 0.000000 0.000000 0.000000
# 3 -0.003946 -0.004814 0.012339 0.000000 0.000000 0.000000
# 4 0.000000 0.000000 0.000000 0.135162 0.000000 0.000001
# 5 0.000000 0.000000 0.000000 0.000000 0.031460 0.000000
# 6 0.000000 0.000000 0.000000 0.000001 0.000000 -0.004216
#
#
# Mechanical properties :
#
#
# Convention : Reuss Voigt Hill
#
# Bulk Modulus (GPa) = 39.18517 50.25424 44.71970
# Shear Modulus (GPa) = 18.21694 -30.46252 -6.12279
#
# Velocity S-wave (km/s) = 3.01049 -3.89299 -1.74532
# Velocity P-wave (km/s) = 5.61952 2.18969 4.26461
#
# Compressibility (1/GPa) = 0.02551986
#
# Stress axis : x y z
#
# Youngs Moduli (GPa) = 61.60092 27.80394 81.04464
#
# Poissons Ratio (x) = 0.29888 0.31978
# Poissons Ratio (y) = 0.66217 0.39016
# Poissons Ratio (z) = 0.24306 0.13385
#
# Static dielectric constant tensor:
#      x y z
#    x 1.749540 0.000000 0.000000 
#    y 0.000000 1.676160 0.000000 
#    z 0.000000 0.000000 1.765130 
# 
# From -- ./inp_files/24917.got.cif
#   From: 2010.05.17/outbox.cif.g08.bks.cpg/sg73_13_cif.got.tgz:24917.got - 2010.06.03 17:35:07.
