data_PCOD9530619
_publ_section_title
;
Structure prediction by ZEFSAII (Michael W. Deem and Ramdas Pophale) SiO2 
 PCOD9530619
Probable space group: I B C A 
;
_chemical_formula_sum "Si O2"
_cell_formula_units_Z 96
_cell_length_a 21.318075
_cell_length_b 10.555023
_cell_length_c 21.515360
_cell_angle_alpha 90.000000
_cell_angle_beta 90.000000
_cell_angle_gamma 90.000000
_cell_volume 4841.230793
_symmetry_space_group_name_H-M "I B C A "
_symmetry_group_IT_number 73
_symmetry_cell_setting 'orthorhombic'
loop_
_space_group_symop_operation_xyz
x,y,z
-x,1/2-y,z
x,-y,1/2-z
1/2-x,y,-z
-x,-y,-z
x,1/2+y,-z
-x,y,1/2+z
1/2+x,-y,z
1/2+x,1/2+y,1/2+z
1/2-x,-y,1/2+z
1/2+x,1/2-y,-z
-x,1/2+y,1/2-z
1/2-x,1/2-y,1/2-z
1/2+x,y,1/2-z
1/2-x,1/2+y,z
x,1/2-y,1/2+z
loop_
_atom_site_type_symbol
_atom_site_label
_atom_site_fract_x
_atom_site_fract_y
_atom_site_fract_z
Si Si1 0.381634 0.798446 0.003282
Si Si2 0.394672 0.453601 0.347762
Si Si3 0.932925 0.175963 0.379036
Si Si4 0.314395 0.048436 0.961178
Si Si5 0.571393 0.299254 0.736225
Si Si6 0.514189 0.567399 0.065526
O O1 0.398078 0.743736 0.935439
O O2 0.355086 0.938859 0.994328
O O3 0.336095 0.693521 0.031030
O O4 0.442879 0.815397 0.045771
O O5 0.331177 0.476431 0.387729
O O6 0.419585 0.574553 0.307521
O O7 0.393684 0.337464 0.299156
O O8 0.449780 0.425667 0.396942
O O9 0.903209 0.193774 0.311281
O O10 0.944445 0.031088 0.394833
O O11 0.000000 0.250000 0.377014
O O12 0.250000 0.038839 0.000000
O O13 0.500000 0.250000 0.751560
O O14 0.500000 0.500000 0.000000
#
# Coordination Sequence:
#
# PCOD9530619 Si02
#       6
#    16  16  16  16  16  16
#     4  12  23  38  63  95 125 165 213 280 342 395
#     4  11  22  36  59  96 130 178 212 259 329 418
#     4  11  17  34  57  91 132 163 198 258 342 402
#     4  12  26  43  61  90 128 173 228 279 323 380
#     4  10  20  36  58  92 136 173 207 260 334 416
#     4  12  19  33  61  97 134 160 204 271 353 414
#
# _framework density 19.829667000000001
#
# number of rings (size 3 to 8) (size 9 to 14) (size 15 to 20)
#    0.000    0.667   10.000    0.500    2.333    0.000 
#    0.000    0.000    0.000    1.000    0.000    0.000 
#    0.000    0.000    0.000    0.000    0.000    0.000 
#
# Total GULP energy -267292.121173 kJ/mol
# GULP energy per Si atom -5568.585858 kJ/mol
# Density = 1.978453 g / cm^3
# Si number density = 19.829667 Si / 1000 Ang^3
#
#
#
# Elastic Constant Matrix: (Units=GPa)
#
#
# Indices 1 2 3 4 5 6 
#
# 1 72.5548 15.5529 35.6630 0.0000 0.0000 0.0000
# 2 15.5529 61.2319 21.0745 0.0000 0.0000 0.0000
# 3 35.6630 21.0745 120.6372 0.0000 0.0000 0.0000
# 4 0.0000 0.0000 0.0000 25.2458 0.0000 0.0000
# 5 0.0000 0.0000 0.0000 0.0000 24.9283 0.0000
# 6 0.0000 0.0000 0.0000 0.0000 0.0000 26.0759
#
#
#
# Elastic Compliance Matrix: (Units=1/GPa)
#
#
# Indices 1 2 3 4 5 6 
#
# 1 0.016528 -0.002678 -0.004418 0.000000 0.000000 0.000000
# 2 -0.002678 0.017810 -0.002320 0.000000 0.000000 0.000000
# 3 -0.004418 -0.002320 0.010001 0.000000 0.000000 0.000000
# 4 0.000000 0.000000 0.000000 0.039611 0.000000 0.000000
# 5 0.000000 0.000000 0.000000 0.000000 0.040115 0.000000
# 6 0.000000 0.000000 0.000000 0.000000 0.000000 0.038350
#
#
# Mechanical properties :
#
#
# Convention : Reuss Voigt Hill
#
# Bulk Modulus (GPa) = 39.20388 44.33387 41.76887
# Shear Modulus (GPa) = 26.35072 27.39222 26.87147
#
# Velocity S-wave (km/s) = 3.64930 3.72072 3.68518
# Velocity P-wave (km/s) = 6.12942 6.39251 6.26235
#
# Compressibility (1/GPa) = 0.02550768
#
# Stress axis : x y z
#
# Youngs Moduli (GPa) = 60.50181 56.14876 99.99256
#
# Poissons Ratio (x) = 0.15034 0.44181
# Poissons Ratio (y) = 0.16199 0.23196
# Poissons Ratio (z) = 0.26732 0.13025
#
# Static dielectric constant tensor:
#      x y z
#    x 1.740450 0.000000 0.000000 
#    y 0.000000 1.753340 0.000000 
#    z 0.000000 0.000000 1.798120 
# 
# From -- ./inp_files/27258.got.cif
#   From: 2010.05.17/outbox.cif.g08.bks.cpg/sg73_14_cif.got.tgz:27258.got - 2010.06.03 17:35:07.
