data_PCOD9530093
_publ_section_title
;
Structure prediction by ZEFSAII (Michael W. Deem and Ramdas Pophale) SiO2 
 PCOD9530093
Probable space group: I B C A 
;
_chemical_formula_sum "Si O2"
_cell_formula_units_Z 112
_cell_length_a 20.591243
_cell_length_b 11.259041
_cell_length_c 20.519099
_cell_angle_alpha 90.000000
_cell_angle_beta 90.000000
_cell_angle_gamma 90.000000
_cell_volume 4757.099675
_symmetry_space_group_name_H-M "I B C A "
_symmetry_group_IT_number 73
_symmetry_cell_setting 'orthorhombic'
loop_
_space_group_symop_operation_xyz
x,y,z
-x,1/2-y,z
x,-y,1/2-z
1/2-x,y,-z
-x,-y,-z
x,1/2+y,-z
-x,y,1/2+z
1/2+x,-y,z
1/2+x,1/2+y,1/2+z
1/2-x,-y,1/2+z
1/2+x,1/2-y,-z
-x,1/2+y,1/2-z
1/2-x,1/2-y,1/2-z
1/2+x,y,1/2-z
1/2-x,1/2+y,z
x,1/2-y,1/2+z
loop_
_atom_site_type_symbol
_atom_site_label
_atom_site_fract_x
_atom_site_fract_y
_atom_site_fract_z
Si Si1 0.677051 0.196215 0.482105
Si Si2 0.166231 0.750489 0.622868
Si Si3 0.122582 0.480706 0.318327
Si Si4 0.294933 0.709909 0.689670
Si Si5 0.437158 0.801943 0.654249
Si Si6 0.399728 0.486285 0.085061
Si Si7 0.408320 0.390723 0.947280
O O1 0.750000 0.172469 0.500000
O O2 0.644513 0.195289 0.553647
O O3 0.662927 0.333144 0.461387
O O4 0.650402 0.088002 0.439424
O O5 0.244066 0.740481 0.631741
O O6 0.135388 0.620199 0.622649
O O7 0.141048 0.843863 0.675471
O O8 0.085897 0.500000 0.250000
O O9 0.184580 0.571059 0.312108
O O10 0.091498 0.520901 0.386433
O O11 0.250000 0.750000 0.750000
O O12 0.365457 0.774910 0.684007
O O13 0.500000 0.750000 0.691156
O O14 0.437297 0.727092 0.586055
O O15 0.443794 0.938875 0.634562
O O16 0.430957 0.437826 0.017369
#
# Coordination Sequence:
#
# PCOD9530093 Si02
#       7
#    16  16  16  16  16  16  16
#     4  10  19  32  54  86 131 170 212 288 362 424
#     4  11  22  35  59  97 131 168 225 297 360 420
#     4  11  21  37  59  91 134 171 221 293 365 420
#     4  11  24  41  64  98 128 180 236 294 355 428
#     4  10  23  43  66  96 138 187 236 287 362 437
#     4  10  21  36  63  96 137 176 230 295 348 438
#     4   9  20  38  59  92 125 178 228 276 354 423
#
# _framework density 23.543756999999999
#
# number of rings (size 3 to 8) (size 9 to 14) (size 15 to 20)
#    0.000    1.714    2.857    2.571    4.000    2.857 
#    0.000    0.000    0.000    6.857    0.000    0.000 
#    0.000    0.000    0.000    0.000    0.000    0.571 
#
# Total GULP energy -311852.258209 kJ/mol
# GULP energy per Si atom -5568.790325 kJ/mol
# Density = 2.349017 g / cm^3
# Si number density = 23.543757 Si / 1000 Ang^3
#
#
#
# Elastic Constant Matrix: (Units=GPa)
#
#
# Indices 1 2 3 4 5 6 
#
# 1 107.6200 46.4679 28.0400 0.0000 0.0000 0.0000
# 2 46.4679 138.4157 36.0415 0.0000 0.0000 0.0000
# 3 28.0400 36.0415 96.3500 0.0000 0.0000 0.0000
# 4 0.0000 0.0000 0.0000 42.3293 0.0000 0.0000
# 5 0.0000 0.0000 0.0000 0.0000 3.0011 0.0000
# 6 0.0000 0.0000 0.0000 0.0000 0.0000 9.8731
#
#
#
# Elastic Compliance Matrix: (Units=1/GPa)
#
#
# Indices 1 2 3 4 5 6 
#
# 1 0.011224 -0.003232 -0.002057 0.000000 0.000000 0.000000
# 2 -0.003232 0.008935 -0.002402 0.000000 0.000000 0.000000
# 3 -0.002057 -0.002402 0.011876 0.000000 0.000000 0.000000
# 4 0.000000 0.000000 0.000000 0.023624 0.000000 0.000000
# 5 0.000000 0.000000 0.000000 0.000000 0.333212 0.000000
# 6 0.000000 0.000000 0.000000 0.000000 0.000000 0.101285
#
#
# Mechanical properties :
#
#
# Convention : Reuss Voigt Hill
#
# Bulk Modulus (GPa) = 60.05179 62.60938 61.33059
# Shear Modulus (GPa) = 9.78304 26.49645 18.13974
#
# Velocity S-wave (km/s) = 2.04066 3.35836 2.77874
# Velocity P-wave (km/s) = 5.57801 6.45667 6.03336
#
# Compressibility (1/GPa) = 0.01665229
#
# Stress axis : x y z
#
# Youngs Moduli (GPa) = 89.09832 111.91843 84.20394
#
# Poissons Ratio (x) = 0.36174 0.17323
# Poissons Ratio (y) = 0.28798 0.20223
# Poissons Ratio (z) = 0.18330 0.26879
#
# Static dielectric constant tensor:
#      x y z
#    x 1.996420 0.000000 0.000000 
#    y 0.000000 1.902300 0.000000 
#    z 0.000000 0.000000 2.095580 
# 
# From -- ./inp_files/30121.got.cif
#   From: 2010.05.17/outbox.cif.g08.bks.cpg/sg73_16_cif.got.tgz:30121.got - 2010.06.03 17:35:07.
