data_PCOD9530492
_publ_section_title
;
Structure prediction by ZEFSAII (Michael W. Deem and Ramdas Pophale) SiO2 
 PCOD9530492
Probable space group: I B C A 
;
_chemical_formula_sum "Si O2"
_cell_formula_units_Z 96
_cell_length_a 23.859334
_cell_length_b 14.972003
_cell_length_c 10.765033
_cell_angle_alpha 90.000000
_cell_angle_beta 90.000000
_cell_angle_gamma 90.000000
_cell_volume 3845.506836
_symmetry_space_group_name_H-M "I B C A "
_symmetry_group_IT_number 73
_symmetry_cell_setting 'orthorhombic'
loop_
_space_group_symop_operation_xyz
x,y,z
-x,1/2-y,z
x,-y,1/2-z
1/2-x,y,-z
-x,-y,-z
x,1/2+y,-z
-x,y,1/2+z
1/2+x,-y,z
1/2+x,1/2+y,1/2+z
1/2-x,-y,1/2+z
1/2+x,1/2-y,-z
-x,1/2+y,1/2-z
1/2-x,1/2-y,1/2-z
1/2+x,y,1/2-z
1/2-x,1/2+y,z
x,1/2-y,1/2+z
loop_
_atom_site_type_symbol
_atom_site_label
_atom_site_fract_x
_atom_site_fract_y
_atom_site_fract_z
Si Si1 0.968594 0.845008 0.584347
Si Si2 0.681872 0.397053 0.278939
Si Si3 0.132483 0.000000 0.250000
Si Si4 0.959248 0.897332 0.860392
Si Si5 0.292755 0.128822 0.854950
Si Si6 0.381294 0.268476 0.918812
Si Si7 0.250000 0.034454 0.500000
O O1 0.978322 0.891846 0.717050
O O2 0.905563 0.819147 0.538871
O O3 0.000000 0.750000 0.595601
O O4 0.995423 0.899227 0.468758
O O5 0.668776 0.500000 0.250000
O O6 0.829766 0.410303 0.259126
O O7 0.629079 0.336419 0.305282
O O8 0.714991 0.405789 0.407966
O O9 0.089972 0.028276 0.138750
O O10 0.209502 0.037467 0.066168
O O11 0.928029 0.803089 0.882055
O O12 0.324321 0.209182 0.921515
O O13 0.228635 0.143262 0.813728
#
# Coordination Sequence:
#
# PCOD9530492 Si02
#       7
#    16  16   8  16  16  16   8
#     4  10  21  41  62  93 123 164 208 277 318 383
#     4  10  21  37  56  87 130 165 208 262 309 368
#     4  10  20  40  62  90 118 172 208 264 320 384
#     4  10  23  41  67  90 128 162 218 265 330 378
#     4  10  20  38  57  87 126 167 212 250 314 380
#     4  10  22  36  62  91 119 171 213 260 317 387
#     4  10  20  34  56  82 128 168 204 262 302 366
#
# _framework density 24.964200000000002
#
# number of rings (size 3 to 8) (size 9 to 14) (size 15 to 20)
#    0.000    2.000    2.500    2.000    2.333    4.000 
#    1.500    3.333    0.000    0.000    0.000    0.000 
#    0.000    0.000    0.000    0.000    0.000    0.000 
#
# Total GULP energy -267852.463196 kJ/mol
# GULP energy per Si atom -5580.259650 kJ/mol
# Density = 2.490738 g / cm^3
# Si number density = 24.964200 Si / 1000 Ang^3
#
#
#
# Elastic Constant Matrix: (Units=GPa)
#
#
# Indices 1 2 3 4 5 6 
#
# 1 58.7047 39.6833 33.7057 0.0000 0.0000 0.0000
# 2 39.6833 89.9307 24.3560 0.0000 0.0000 0.0000
# 3 33.7057 24.3560 115.5392 0.0000 0.0000 0.0000
# 4 0.0000 0.0000 0.0000 27.9522 0.0000 0.0000
# 5 0.0000 0.0000 0.0000 0.0000 29.2216 0.0000
# 6 0.0000 0.0000 0.0000 0.0000 0.0000 23.7730
#
#
#
# Elastic Compliance Matrix: (Units=1/GPa)
#
#
# Indices 1 2 3 4 5 6 
#
# 1 0.027506 -0.010568 -0.005797 0.000000 0.000000 0.000000
# 2 -0.010568 0.015853 -0.000259 0.000000 0.000000 0.000000
# 3 -0.005797 -0.000259 0.010401 0.000000 0.000000 0.000000
# 4 0.000000 0.000000 0.000000 0.035775 0.000000 0.000000
# 5 0.000000 0.000000 0.000000 0.000000 0.034221 0.000000
# 6 0.000000 0.000000 0.000000 0.000000 0.000000 0.042065
#
#
# Mechanical properties :
#
#
# Convention : Reuss Voigt Hill
#
# Bulk Modulus (GPa) = 48.74865 51.07384 49.91125
# Shear Modulus (GPa) = 24.28306 27.28467 25.78386
#
# Velocity S-wave (km/s) = 3.12222 3.30957 3.21726
# Velocity P-wave (km/s) = 5.70680 5.92516 5.81700
#
# Compressibility (1/GPa) = 0.02051339
#
# Stress axis : x y z
#
# Youngs Moduli (GPa) = 36.35565 63.07978 96.14777
#
# Poissons Ratio (x) = 0.66660 0.55732
# Poissons Ratio (y) = 0.38419 0.02490
# Poissons Ratio (z) = 0.21074 0.01634
#
# Static dielectric constant tensor:
#      x y z
#    x 2.061210 0.000000 0.000000 
#    y 0.000000 1.990170 0.000000 
#    z 0.000000 0.000000 2.107950 
# 
# From -- ./inp_files/13692.got.cif
#   From: 2010.05.17/outbox.cif.g08.bks.cpg/sg73_7_cif.got.tgz:13692.got - 2010.06.03 17:35:07.
