data_PCOD9530121
_publ_section_title
;
Structure prediction by ZEFSAII (Michael W. Deem and Ramdas Pophale) SiO2 
 PCOD9530121
Probable space group: I B C A 
;
_chemical_formula_sum "Si O2"
_cell_formula_units_Z 96
_cell_length_a 11.917131
_cell_length_b 17.885826
_cell_length_c 19.983100
_cell_angle_alpha 90.000000
_cell_angle_beta 90.000000
_cell_angle_gamma 90.000000
_cell_volume 4259.352433
_symmetry_space_group_name_H-M "I B C A "
_symmetry_group_IT_number 73
_symmetry_cell_setting 'orthorhombic'
loop_
_space_group_symop_operation_xyz
x,y,z
-x,1/2-y,z
x,-y,1/2-z
1/2-x,y,-z
-x,-y,-z
x,1/2+y,-z
-x,y,1/2+z
1/2+x,-y,z
1/2+x,1/2+y,1/2+z
1/2-x,-y,1/2+z
1/2+x,1/2-y,-z
-x,1/2+y,1/2-z
1/2-x,1/2-y,1/2-z
1/2+x,y,1/2-z
1/2-x,1/2+y,z
x,1/2-y,1/2+z
loop_
_atom_site_type_symbol
_atom_site_label
_atom_site_fract_x
_atom_site_fract_y
_atom_site_fract_z
Si Si1 0.288960 0.180763 0.658567
Si Si2 0.544792 0.333314 0.314640
Si Si3 0.150365 0.348509 0.330247
Si Si4 0.625138 0.835290 0.485204
Si Si5 0.378555 0.341135 0.514697
Si Si6 0.850875 0.921863 0.782842
O O1 0.161113 0.155370 0.647236
O O2 0.283946 0.269183 0.672476
O O3 0.367792 0.167072 0.595770
O O4 0.332636 0.137337 0.722962
O O5 0.500000 0.250000 0.325007
O O6 0.572467 0.344498 0.235144
O O7 0.448241 0.391960 0.330147
O O8 0.107745 0.349013 0.405334
O O9 0.232929 0.418474 0.320636
O O10 0.750000 0.867762 0.500000
O O11 0.626842 0.746997 0.505625
O O12 0.504101 0.866921 0.509379
O O13 0.250000 0.369994 0.500000
O O14 0.877471 0.000000 0.750000
#
# Coordination Sequence:
#
# PCOD9530121 Si02
#       6
#    16  16  16  16  16  16
#     4  10  19  34  55  78 109 151 187 231 287 350
#     4  11  18  31  53  81 107 148 191 225 281 346
#     4  10  19  33  56  77 109 149 187 231 285 345
#     4   9  18  32  50  80 113 147 187 244 296 339
#     4   9  18  31  52  80 111 145 192 243 294 339
#     4  11  22  34  51  82 116 146 186 237 287 341
#
# _framework density 22.538637000000001
#
# number of rings (size 3 to 8) (size 9 to 14) (size 15 to 20)
#    0.000    2.000    3.333    2.000    2.333    4.000 
#    3.000    0.000    0.000    1.000    0.000    4.667 
#    0.000    0.000    0.000    0.000    0.000    0.000 
#
# Total GULP energy -267501.278231 kJ/mol
# GULP energy per Si atom -5572.943296 kJ/mol
# Density = 2.248734 g / cm^3
# Si number density = 22.538637 Si / 1000 Ang^3
#
#
#
# Elastic Constant Matrix: (Units=GPa)
#
#
# Indices 1 2 3 4 5 6 
#
# 1 203.1043 21.9467 17.1495 0.0000 0.0000 0.0000
# 2 21.9467 32.0371 -3.7766 0.0000 0.0000 0.0000
# 3 17.1495 -3.7766 59.1687 0.0000 0.0000 0.0000
# 4 0.0000 0.0000 0.0000 -0.6703 0.0000 0.0000
# 5 0.0000 0.0000 0.0000 0.0000 18.5180 0.0000
# 6 0.0000 0.0000 0.0000 0.0000 0.0000 5.0318
#
#
#
# Elastic Compliance Matrix: (Units=1/GPa)
#
#
# Indices 1 2 3 4 5 6 
#
# 1 0.005512 -0.003994 -0.001852 0.000000 0.000000 0.000000
# 2 -0.003994 0.034345 0.003350 0.000000 0.000000 0.000000
# 3 -0.001852 0.003350 0.017652 0.000000 0.000000 0.000000
# 4 0.000000 0.000000 0.000000 -1.491758 0.000000 0.000000
# 5 0.000000 0.000000 0.000000 0.000000 0.054001 0.000000
# 6 0.000000 0.000000 0.000000 0.000000 0.000000 0.198736
#
#
# Mechanical properties :
#
#
# Convention : Reuss Voigt Hill
#
# Bulk Modulus (GPa) = 19.04231 40.54991 29.79611
# Shear Modulus (GPa) = -4.31401 21.84193 8.76396
#
# Velocity S-wave (km/s) = -1.38499 3.11640 1.97405
# Velocity P-wave (km/s) = 2.43094 5.56593 4.29471
#
# Compressibility (1/GPa) = 0.05251463
#
# Stress axis : x y z
#
# Youngs Moduli (GPa) = 181.43651 29.11649 56.65224
#
# Poissons Ratio (x) = 0.11629 0.10494
# Poissons Ratio (y) = 0.72466 -0.18977
# Poissons Ratio (z) = 0.33609 -0.09753
#
# Static dielectric constant tensor:
#      x y z
#    x 1.994410 0.000000 0.000000 
#    y 0.000000 1.758560 0.000000 
#    z 0.000000 0.000000 1.893480 
# 
# From -- ./inp_files/28910.got.cif
#   From: 2010.05.17/outbox.cif.g08.bks.cpg/sg73_15_cif.got.tgz:28910.got - 2010.06.03 17:35:07.
