data_PCOD9530274
_publ_section_title
;
Structure prediction by ZEFSAII (Michael W. Deem and Ramdas Pophale) SiO2 
 PCOD9530274
Probable space group: I B C A 
;
_chemical_formula_sum "Si O2"
_cell_formula_units_Z 120
_cell_length_a 18.086475
_cell_length_b 18.413116
_cell_length_c 15.056248
_cell_angle_alpha 90.000000
_cell_angle_beta 90.000000
_cell_angle_gamma 90.000000
_cell_volume 5014.157612
_symmetry_space_group_name_H-M "I B C A "
_symmetry_group_IT_number 73
_symmetry_cell_setting 'orthorhombic'
loop_
_space_group_symop_operation_xyz
x,y,z
-x,1/2-y,z
x,-y,1/2-z
1/2-x,y,-z
-x,-y,-z
x,1/2+y,-z
-x,y,1/2+z
1/2+x,-y,z
1/2+x,1/2+y,1/2+z
1/2-x,-y,1/2+z
1/2+x,1/2-y,-z
-x,1/2+y,1/2-z
1/2-x,1/2-y,1/2-z
1/2+x,y,1/2-z
1/2-x,1/2+y,z
x,1/2-y,1/2+z
loop_
_atom_site_type_symbol
_atom_site_label
_atom_site_fract_x
_atom_site_fract_y
_atom_site_fract_z
Si Si1 0.500000 0.250000 0.611232
Si Si2 0.631596 0.331910 0.363442
Si Si3 0.836602 0.572366 0.023432
Si Si4 0.178251 0.072459 0.801203
Si Si5 0.597811 0.194702 0.270044
Si Si6 0.626232 0.155049 0.545969
Si Si7 0.845986 0.572622 0.372485
Si Si8 0.707673 0.288176 0.631112
O O1 0.449740 0.206449 0.681661
O O2 0.547306 0.194586 0.552129
O O3 0.619485 0.395674 0.436868
O O4 0.652928 0.367327 0.269284
O O5 0.582340 0.261694 0.338158
O O6 0.708022 0.296983 0.395362
O O7 0.865246 0.504098 0.081171
O O8 0.830144 0.641796 0.086616
O O9 0.750000 0.552788 0.000000
O O10 0.132131 0.085380 0.890260
O O11 0.265212 0.068422 0.827012
O O12 0.160245 0.000000 0.750000
O O13 0.596169 0.113114 0.307408
O O14 0.681908 0.206393 0.233487
O O15 0.655248 0.130584 0.452010
O O16 0.678900 0.213656 0.591737
#
# Coordination Sequence:
#
# PCOD9530274 Si02
#       8
#     8  16  16  16  16  16  16  16
#     4  10  24  46  68  92 124 186 246 294 316 380
#     4  11  19  36  58  94 130 170 212 269 342 413
#     4  10  22  36  57  95 145 171 195 258 349 422
#     4  12  22  36  65 102 144 172 210 277 358 436
#     4  11  22  39  68  90 123 172 234 277 327 386
#     4  11  23  42  67  95 136 176 232 280 340 405
#     4  12  24  38  63 103 135 177 214 275 358 425
#     4  10  19  37  60  94 130 171 214 278 339 406
#
# _framework density 23.932234999999999
#
# number of rings (size 3 to 8) (size 9 to 14) (size 15 to 20)
#    0.000    1.067    4.000    5.600    0.000    2.667 
#    0.000    0.000    5.867    4.000    0.000    0.000 
#    0.000    0.000    0.000    0.000    0.000    0.000 
#
# Total GULP energy -335135.356318 kJ/mol
# GULP energy per Si atom -5585.589272 kJ/mol
# Density = 2.387776 g / cm^3
# Si number density = 23.932235 Si / 1000 Ang^3
#
#
#
# Elastic Constant Matrix: (Units=GPa)
#
#
# Indices 1 2 3 4 5 6 
#
# 1 42.2765 12.5579 -2.7599 0.0000 0.0000 0.0000
# 2 12.5579 103.2103 42.7195 0.0000 0.0000 0.0000
# 3 -2.7599 42.7195 73.1237 0.0000 0.0000 0.0000
# 4 0.0000 0.0000 0.0000 20.8412 0.0000 0.0000
# 5 0.0000 0.0000 0.0000 0.0000 20.7410 0.0000
# 6 0.0000 0.0000 0.0000 0.0000 0.0000 18.3594
#
#
#
# Elastic Compliance Matrix: (Units=1/GPa)
#
#
# Indices 1 2 3 4 5 6 
#
# 1 0.025248 -0.004572 0.003624 0.000000 0.000000 0.000000
# 2 -0.004572 0.013607 -0.008122 0.000000 0.000000 0.000000
# 3 0.003624 -0.008122 0.018557 0.000000 0.000000 0.000000
# 4 0.000000 0.000000 0.000000 0.047982 0.000000 0.000000
# 5 0.000000 0.000000 0.000000 0.000000 0.048214 0.000000
# 6 0.000000 0.000000 0.000000 0.000000 0.000000 0.054468
#
#
# Mechanical properties :
#
#
# Convention : Reuss Voigt Hill
#
# Bulk Modulus (GPa) = 25.46298 35.96060 30.71179
# Shear Modulus (GPa) = 20.89367 23.06118 21.97742
#
# Velocity S-wave (km/s) = 2.95792 3.10756 3.03367
# Velocity P-wave (km/s) = 4.72530 5.28532 5.01313
#
# Compressibility (1/GPa) = 0.03927270
#
# Stress axis : x y z
#
# Youngs Moduli (GPa) = 39.60633 73.49187 53.88770
#
# Poissons Ratio (x) = 0.33601 -0.19529
# Poissons Ratio (y) = 0.18108 0.43767
# Poissons Ratio (z) = -0.14353 0.59689
#
# Static dielectric constant tensor:
#      x y z
#    x 1.991450 0.000000 0.000000 
#    y 0.000000 1.941030 0.000000 
#    z 0.000000 0.000000 2.009150 
# 
# From -- ./inp_files/18939.got.cif
#   From: 2010.05.17/outbox.cif.g08.bks.cpg/sg73_10_cif.got.tgz:18939.got - 2010.06.03 17:35:07.
