data_PCOD9530386
_publ_section_title
;
Structure prediction by ZEFSAII (Michael W. Deem and Ramdas Pophale) SiO2 
 PCOD9530386
Probable space group: I B C A 
;
_chemical_formula_sum "Si O2"
_cell_formula_units_Z 80
_cell_length_a 13.577166
_cell_length_b 21.354102
_cell_length_c 13.787916
_cell_angle_alpha 90.000000
_cell_angle_beta 90.000000
_cell_angle_gamma 90.000000
_cell_volume 3997.505497
_symmetry_space_group_name_H-M "I B C A "
_symmetry_group_IT_number 73
_symmetry_cell_setting 'orthorhombic'
loop_
_space_group_symop_operation_xyz
x,y,z
-x,1/2-y,z
x,-y,1/2-z
1/2-x,y,-z
-x,-y,-z
x,1/2+y,-z
-x,y,1/2+z
1/2+x,-y,z
1/2+x,1/2+y,1/2+z
1/2-x,-y,1/2+z
1/2+x,1/2-y,-z
-x,1/2+y,1/2-z
1/2-x,1/2-y,1/2-z
1/2+x,y,1/2-z
1/2-x,1/2+y,z
x,1/2-y,1/2+z
loop_
_atom_site_type_symbol
_atom_site_label
_atom_site_fract_x
_atom_site_fract_y
_atom_site_fract_z
Si Si1 0.464397 0.152431 0.259475
Si Si2 0.000000 0.250000 0.904515
Si Si3 0.322141 0.834606 0.651692
Si Si4 0.750000 0.419928 0.000000
Si Si5 0.173472 0.560416 0.193141
Si Si6 0.840774 0.297751 0.559877
O O1 0.451226 0.199368 0.168391
O O2 0.577161 0.162326 0.290250
O O3 0.434116 0.083610 0.223157
O O4 0.400356 0.166568 0.355938
O O5 0.081256 0.278175 0.977021
O O6 0.328195 0.874622 0.552625
O O7 0.239029 0.875903 0.705929
O O8 0.300806 0.764307 0.617016
O O9 0.691226 0.456115 0.081336
O O10 0.206847 0.500000 0.250000
O O11 0.750000 0.327375 0.500000
#
# Coordination Sequence:
#
# PCOD9530386 Si02
#       6
#    16   8  16   8  16  16
#     4  12  24  39  66 103 127 168 224 265 328 398
#     4  12  22  38  66  98 142 164 210 262 340 402
#     4  10  19  42  64  91 130 165 214 261 332 383
#     4   8  20  42  70  80 122 178 208 264 332 370
#     4  10  24  44  66  90 127 175 224 265 321 385
#     4  12  23  38  62 100 133 169 207 266 332 397
#
# _framework density 20.01248
#
# number of rings (size 3 to 8) (size 9 to 14) (size 15 to 20)
#    1.200    0.000    5.000    2.400    2.800    2.400 
#    1.800    1.000    0.000    0.000    0.000    0.000 
#    0.000    0.000    0.000    0.000    0.000    0.000 
#
# Total GULP energy -222682.593749 kJ/mol
# GULP energy per Si atom -5567.064844 kJ/mol
# Density = 1.996693 g / cm^3
# Si number density = 20.012480 Si / 1000 Ang^3
#
#
#
# Elastic Constant Matrix: (Units=GPa)
#
#
# Indices 1 2 3 4 5 6 
#
# 1 55.3350 -4.8268 22.0209 0.0000 0.0000 0.0000
# 2 -4.8268 41.0273 20.2539 0.0000 0.0000 0.0000
# 3 22.0209 20.2539 107.8342 0.0000 -0.0001 0.0000
# 4 0.0000 0.0000 0.0000 12.7182 -0.0001 0.0000
# 5 0.0000 0.0000 -0.0001 -0.0001 2.3474 0.0000
# 6 0.0000 0.0000 0.0000 0.0000 0.0000 3.9615
#
#
#
# Elastic Compliance Matrix: (Units=1/GPa)
#
#
# Indices 1 2 3 4 5 6 
#
# 1 0.020542 0.004946 -0.005124 0.000000 0.000000 0.000000
# 2 0.004946 0.028056 -0.006280 0.000000 0.000000 0.000000
# 3 -0.005124 -0.006280 0.011499 0.000000 0.000000 0.000000
# 4 0.000000 0.000000 0.000000 0.078628 0.000002 0.000000
# 5 0.000000 0.000000 0.000000 0.000002 0.425996 0.000000
# 6 0.000000 0.000000 0.000000 0.000000 0.000000 0.252433
#
#
# Mechanical properties :
#
#
# Convention : Reuss Voigt Hill
#
# Bulk Modulus (GPa) = 21.19412 31.01030 26.10221
# Shear Modulus (GPa) = 5.91159 14.92198 10.41678
#
# Velocity S-wave (km/s) = 1.72057 2.73359 2.28395
# Velocity P-wave (km/s) = 3.81583 5.04901 4.47510
#
# Compressibility (1/GPa) = 0.04718290
#
# Stress axis : x y z
#
# Youngs Moduli (GPa) = 48.67996 35.64300 86.96142
#
# Poissons Ratio (x) = -0.17630 0.44559
# Poissons Ratio (y) = -0.24079 0.54609
# Poissons Ratio (z) = 0.24944 0.22383
#
# Static dielectric constant tensor:
#      x y z
#    x 1.715220 0.000000 0.000000 
#    y 0.000000 1.709950 0.000000 
#    z 0.000000 0.000000 1.739740 
# 
# From -- ./inp_files/10880.got.cif
#   From: 2010.05.17/outbox.cif.g08.bks.cpg/sg73_6_cif.got.tgz:10880.got - 2010.06.03 17:35:07.
