data_PCOD9530060
_publ_section_title
;
Structure prediction by ZEFSAII (Michael W. Deem and Ramdas Pophale) SiO2 
 PCOD9530060
Probable space group: I B C A 
;
_chemical_formula_sum "Si O2"
_cell_formula_units_Z 120
_cell_length_a 26.225359
_cell_length_b 26.551820
_cell_length_c 8.818519
_cell_angle_alpha 90.000000
_cell_angle_beta 90.000000
_cell_angle_gamma 90.000000
_cell_volume 6140.608256
_symmetry_space_group_name_H-M "I B C A "
_symmetry_group_IT_number 73
_symmetry_cell_setting 'orthorhombic'
loop_
_space_group_symop_operation_xyz
x,y,z
-x,1/2-y,z
x,-y,1/2-z
1/2-x,y,-z
-x,-y,-z
x,1/2+y,-z
-x,y,1/2+z
1/2+x,-y,z
1/2+x,1/2+y,1/2+z
1/2-x,-y,1/2+z
1/2+x,1/2-y,-z
-x,1/2+y,1/2-z
1/2-x,1/2-y,1/2-z
1/2+x,y,1/2-z
1/2-x,1/2+y,z
x,1/2-y,1/2+z
loop_
_atom_site_type_symbol
_atom_site_label
_atom_site_fract_x
_atom_site_fract_y
_atom_site_fract_z
Si Si1 0.196418 0.000000 0.750000
Si Si2 0.213052 0.235260 0.389027
Si Si3 0.459256 0.542910 0.455726
Si Si4 0.927603 0.633756 0.498023
Si Si5 0.725305 0.077475 0.334209
Si Si6 0.482820 0.112924 0.282979
Si Si7 0.326702 0.183190 0.868895
Si Si8 0.870679 0.028516 0.542827
O O1 0.234471 0.048264 0.727650
O O2 0.160486 0.011474 0.893139
O O3 0.250000 0.203072 0.500000
O O4 0.250000 0.250000 0.250000
O O5 0.167733 0.210252 0.294390
O O6 0.194749 0.280586 0.497285
O O7 0.500000 0.500000 0.500000
O O8 0.451276 0.578069 0.601989
O O9 0.483768 0.576249 0.324171
O O10 0.407132 0.516717 0.410335
O O11 0.975930 0.640805 0.387630
O O12 0.879560 0.663553 0.435207
O O13 0.907958 0.575634 0.495543
O O14 0.946938 0.643650 0.668872
O O15 0.750000 0.070905 0.500000
O O16 0.711291 0.136587 0.328622
O O17 0.671354 0.048984 0.340451
#
# Coordination Sequence:
#
# PCOD9530060 Si02
#       8
#     8  16  16  16  16  16  16  16
#     4  10  20  34  48  70 114 160 202 224 270 364
#     4   9  18  36  64  92 112 138 186 251 310 364
#     4  11  19  30  51  77 110 147 204 261 283 320
#     4  10  21  35  55  81 115 155 193 250 297 361
#     4   9  19  34  49  74 113 156 190 233 283 354
#     4  10  20  33  51  79 117 152 201 245 301 331
#     4  10  20  38  63  89 115 148 196 246 316 371
#     4  10  19  29  50  73 103 155 203 231 285 332
#
# _framework density 19.542037000000001
#
# number of rings (size 3 to 8) (size 9 to 14) (size 15 to 20)
#    0.000    2.133    2.667    2.400    0.000    2.133 
#    0.000    8.667    0.000    2.400    0.000    0.000 
#    0.000    0.000    0.000    0.000    0.000    0.000 
#
# Total GULP energy -334253.045004 kJ/mol
# GULP energy per Si atom -5570.884083 kJ/mol
# Density = 1.949756 g / cm^3
# Si number density = 19.542037 Si / 1000 Ang^3
#
#
#
# Elastic Constant Matrix: (Units=GPa)
#
#
# Indices 1 2 3 4 5 6 
#
# 1 90.5742 28.6526 33.0556 0.0000 0.0000 0.0000
# 2 28.6526 61.3677 34.6888 0.0000 0.0000 0.0000
# 3 33.0556 34.6888 112.3759 0.0000 0.0000 0.0000
# 4 0.0000 0.0000 0.0000 24.2584 0.0000 0.0000
# 5 0.0000 0.0000 0.0000 0.0000 37.0288 0.0000
# 6 0.0000 0.0000 0.0000 0.0000 0.0000 27.5606
#
#
#
# Elastic Compliance Matrix: (Units=1/GPa)
#
#
# Indices 1 2 3 4 5 6 
#
# 1 0.013489 -0.004912 -0.002452 0.000000 0.000000 0.000000
# 2 -0.004912 0.021529 -0.005201 0.000000 0.000000 0.000000
# 3 -0.002452 -0.005201 0.011225 0.000000 0.000000 0.000000
# 4 0.000000 0.000000 0.000000 0.041223 0.000000 0.000000
# 5 0.000000 0.000000 0.000000 0.000000 0.027006 0.000000
# 6 0.000000 0.000000 0.000000 0.000000 0.000000 0.036284
#
#
# Mechanical properties :
#
#
# Convention : Reuss Voigt Hill
#
# Bulk Modulus (GPa) = 47.36184 50.79020 49.07602
# Shear Modulus (GPa) = 27.33397 28.96428 28.14913
#
# Velocity S-wave (km/s) = 3.74401 3.85405 3.79943
# Velocity P-wave (km/s) = 6.55581 6.77138 6.66447
#
# Compressibility (1/GPa) = 0.02111404
#
# Stress axis : x y z
#
# Youngs Moduli (GPa) = 74.13229 46.45005 89.08567
#
# Poissons Ratio (x) = 0.22818 0.21840
# Poissons Ratio (y) = 0.36417 0.46329
# Poissons Ratio (z) = 0.18174 0.24156
#
# Static dielectric constant tensor:
#      x y z
#    x 1.732450 0.000000 0.000000 
#    y 0.000000 1.744540 0.000000 
#    z 0.000000 0.000000 1.718850 
# 
# From -- ./inp_files/8152.got.cif
#   From: 2010.05.17/outbox.cif.g08.bks.cpg/sg73_5_cif.got.tgz:8152.got - 2010.06.03 17:35:07.
