data_PCOD9530663
_publ_section_title
;
Structure prediction by ZEFSAII (Michael W. Deem and Ramdas Pophale) SiO2 
 PCOD9530663
Probable space group: I B C A 
;
_chemical_formula_sum "Si O2"
_cell_formula_units_Z 104
_cell_length_a 18.845913
_cell_length_b 23.760995
_cell_length_c 12.349558
_cell_angle_alpha 90.000000
_cell_angle_beta 90.000000
_cell_angle_gamma 90.000000
_cell_volume 5530.102984
_symmetry_space_group_name_H-M "I B C A "
_symmetry_group_IT_number 73
_symmetry_cell_setting 'orthorhombic'
loop_
_space_group_symop_operation_xyz
x,y,z
-x,1/2-y,z
x,-y,1/2-z
1/2-x,y,-z
-x,-y,-z
x,1/2+y,-z
-x,y,1/2+z
1/2+x,-y,z
1/2+x,1/2+y,1/2+z
1/2-x,-y,1/2+z
1/2+x,1/2-y,-z
-x,1/2+y,1/2-z
1/2-x,1/2-y,1/2-z
1/2+x,y,1/2-z
1/2-x,1/2+y,z
x,1/2-y,1/2+z
loop_
_atom_site_type_symbol
_atom_site_label
_atom_site_fract_x
_atom_site_fract_y
_atom_site_fract_z
Si Si1 0.584771 0.877232 0.233127
Si Si2 0.278069 0.312370 0.267870
Si Si3 0.949779 0.937002 0.219276
Si Si4 0.385398 0.933690 0.508052
Si Si5 0.689634 0.908569 0.641621
Si Si6 0.834605 0.946826 0.589092
Si Si7 0.750000 0.863403 0.000000
O O1 0.637579 0.824259 0.252281
O O2 0.501895 0.884579 0.257386
O O3 0.590281 0.896842 0.109359
O O4 0.620875 0.922962 0.311975
O O5 0.250000 0.250000 0.250000
O O6 0.230449 0.355079 0.194185
O O7 0.267642 0.328049 0.393708
O O8 0.876433 0.927589 0.285526
O O9 0.976715 0.000000 0.250000
O O10 0.938082 0.937514 0.091263
O O11 0.314530 0.903446 0.467307
O O12 0.366376 0.995288 0.548903
O O13 0.753688 0.953682 0.630247
O O14 0.665635 0.904642 0.515272
#
# Coordination Sequence:
#
# PCOD9530663 Si02
#       7
#    16  16  16  16  16  16   8
#     4  10  25  38  55  90 126 163 206 251 313 387
#     4  10  22  43  65  86 113 158 217 276 321 353
#     4  12  23  35  58  92 131 172 197 243 320 403
#     4  11  21  36  60  86 128 167 202 248 313 383
#     4  10  21  36  57  89 115 154 216 260 300 366
#     4  10  20  37  57  86 126 164 204 255 300 372
#     4  10  20  36  62  92 114 148 208 272 308 370
#
# _framework density 18.806159000000001
#
# number of rings (size 3 to 8) (size 9 to 14) (size 15 to 20)
#    0.000    1.538    3.077    2.308    2.154    3.692 
#    0.000    0.769    0.000    0.000    0.000    0.000 
#    0.000    0.000    0.000    0.000    0.000    0.000 
#
# Total GULP energy -289896.272509 kJ/mol
# GULP energy per Si atom -5574.928317 kJ/mol
# Density = 1.876336 g / cm^3
# Si number density = 18.806159 Si / 1000 Ang^3
#
#
#
# Elastic Constant Matrix: (Units=GPa)
#
#
# Indices 1 2 3 4 5 6 
#
# 1 72.3652 18.2849 21.2934 0.0000 0.0000 0.0000
# 2 18.2849 73.0184 10.4684 0.0000 0.0000 0.0000
# 3 21.2934 10.4684 57.9905 0.0000 0.0000 0.0000
# 4 0.0000 0.0000 0.0000 18.6294 0.0000 0.0000
# 5 0.0000 0.0000 0.0000 0.0000 18.1635 0.0000
# 6 0.0000 0.0000 0.0000 0.0000 0.0000 19.5591
#
#
#
# Elastic Compliance Matrix: (Units=1/GPa)
#
#
# Indices 1 2 3 4 5 6 
#
# 1 0.016230 -0.003295 -0.005365 0.000000 0.000000 0.000000
# 2 -0.003295 0.014728 -0.001449 0.000000 0.000000 0.000000
# 3 -0.005365 -0.001449 0.019476 0.000000 0.000000 0.000000
# 4 0.000000 0.000000 0.000000 0.053679 0.000000 0.000000
# 5 0.000000 0.000000 0.000000 0.000000 0.055056 0.000000
# 6 0.000000 0.000000 0.000000 0.000000 0.000000 0.051127
#
#
# Mechanical properties :
#
#
# Convention : Reuss Voigt Hill
#
# Bulk Modulus (GPa) = 33.09446 33.71862 33.40654
# Shear Modulus (GPa) = 20.78276 21.49221 21.13748
#
# Velocity S-wave (km/s) = 3.32792 3.38424 3.35620
# Velocity P-wave (km/s) = 5.69233 5.76535 5.72896
#
# Compressibility (1/GPa) = 0.03021654
#
# Stress axis : x y z
#
# Youngs Moduli (GPa) = 61.61462 67.89773 51.34638
#
# Poissons Ratio (x) = 0.22373 0.27545
# Poissons Ratio (y) = 0.20303 0.07439
# Poissons Ratio (z) = 0.33054 0.09837
#
# Static dielectric constant tensor:
#      x y z
#    x 1.712670 0.000000 0.000000 
#    y 0.000000 1.617840 0.000000 
#    z 0.000000 0.000000 1.674670 
# 
# From -- ./inp_files/12161.got.cif
#   From: 2010.05.17/outbox.cif.g08.bks.cpg/sg73_7_cif.got.tgz:12161.got - 2010.06.03 17:35:07.
