data_PCOD9530745
_publ_section_title
;
Structure prediction by ZEFSAII (Michael W. Deem and Ramdas Pophale) SiO2 
 PCOD9530745
Probable space group: I B C A 
;
_chemical_formula_sum "Si O2"
_cell_formula_units_Z 112
_cell_length_a 26.356845
_cell_length_b 14.964169
_cell_length_c 14.655553
_cell_angle_alpha 90.000000
_cell_angle_beta 90.000000
_cell_angle_gamma 90.000000
_cell_volume 5780.271493
_symmetry_space_group_name_H-M "I B C A "
_symmetry_group_IT_number 73
_symmetry_cell_setting 'orthorhombic'
loop_
_space_group_symop_operation_xyz
x,y,z
-x,1/2-y,z
x,-y,1/2-z
1/2-x,y,-z
-x,-y,-z
x,1/2+y,-z
-x,y,1/2+z
1/2+x,-y,z
1/2+x,1/2+y,1/2+z
1/2-x,-y,1/2+z
1/2+x,1/2-y,-z
-x,1/2+y,1/2-z
1/2-x,1/2-y,1/2-z
1/2+x,y,1/2-z
1/2-x,1/2+y,z
x,1/2-y,1/2+z
loop_
_atom_site_type_symbol
_atom_site_label
_atom_site_fract_x
_atom_site_fract_y
_atom_site_fract_z
Si Si1 0.230017 0.010949 0.893640
Si Si2 0.027173 0.929298 0.831517
Si Si3 0.616168 0.866747 0.287349
Si Si4 0.078941 0.036480 0.108811
Si Si5 0.048515 0.201096 0.818758
Si Si6 0.264989 0.644358 0.262537
Si Si7 0.888516 0.040562 0.408932
O O1 0.257549 0.086991 0.831301
O O2 0.170417 0.035775 0.885393
O O3 0.237226 0.915218 0.841514
O O4 0.250000 0.008982 0.000000
O O5 0.028826 0.836950 0.777977
O O6 0.980774 0.942991 0.900014
O O7 0.016029 0.000000 0.750000
O O8 0.081108 0.952743 0.875248
O O9 0.599767 0.900662 0.188139
O O10 0.591913 0.772389 0.305083
O O11 0.676321 0.862483 0.291081
O O12 0.591033 0.936922 0.356865
O O13 0.107765 0.050604 0.016238
O O14 0.076476 0.119103 0.867844
O O15 0.000000 0.250000 0.864049
O O16 0.250000 0.750000 0.250000
#
# Coordination Sequence:
#
# PCOD9530745 Si02
#       7
#    16  16  16  16  16  16  16
#     4  11  24  46  66  98 135 174 231 284 336 395
#     4  10  20  37  62  90 125 162 201 256 316 388
#     4  11  21  40  66  83 129 171 215 251 332 379
#     4  11  20  42  61  92 122 174 205 255 321 399
#     4  11  22  41  61  98 130 166 210 269 320 395
#     4  11  25  41  68  96 130 178 228 281 338 400
#     4  11  24  38  68  91 130 165 217 265 327 379
#
# _framework density 19.376252999999998
#
# number of rings (size 3 to 8) (size 9 to 14) (size 15 to 20)
#    0.000    1.143    2.857    5.571    8.000    0.571 
#    5.143    2.857    0.000    0.000    0.000    0.000 
#    0.000    0.000    0.000    0.000    0.000    0.000 
#
# Total GULP energy -312389.369003 kJ/mol
# GULP energy per Si atom -5578.381589 kJ/mol
# Density = 1.933215 g / cm^3
# Si number density = 19.376253 Si / 1000 Ang^3
#
#
#
# Elastic Constant Matrix: (Units=GPa)
#
#
# Indices 1 2 3 4 5 6 
#
# 1 137.1477 36.2417 13.9251 0.0000 0.0000 0.0000
# 2 36.2417 129.1675 31.2857 0.0000 0.0000 0.0000
# 3 13.9251 31.2857 90.6892 0.0000 0.0000 0.0000
# 4 0.0000 0.0000 0.0000 25.4093 0.0000 0.0000
# 5 0.0000 0.0000 0.0000 0.0000-3363.5678 0.0000
# 6 0.0000 0.0000 0.0000 0.0000 0.0000 47.2389
#
#
#
# Elastic Compliance Matrix: (Units=1/GPa)
#
#
# Indices 1 2 3 4 5 6 
#
# 1 0.007895 -0.002097 -0.000489 0.000000 0.000000 0.000000
# 2 -0.002097 0.009005 -0.002784 0.000000 0.000000 0.000000
# 3 -0.000489 -0.002784 0.012062 0.000000 0.000000 0.000000
# 4 0.000000 0.000000 0.000000 0.039356 0.000000 0.000000
# 5 0.000000 0.000000 0.000000 0.000000 -0.000297 0.000000
# 6 0.000000 0.000000 0.000000 0.000000 0.000000 0.021169
#
#
# Mechanical properties :
#
#
# Convention : Reuss Voigt Hill
#
# Bulk Modulus (GPa) = 54.87944 57.76772 56.32358
# Shear Modulus (GPa) = 47.16822 -639.81379 -296.32279
#
# Velocity S-wave (km/s) = 4.93925 -18.19126 -12.37994
# Velocity P-wave (km/s) = 7.80466 20.28179 13.23703
#
# Compressibility (1/GPa) = 0.01822176
#
# Stress axis : x y z
#
# Youngs Moduli (GPa) = 126.66034 111.05411 82.90286
#
# Poissons Ratio (x) = 0.23286 0.04053
# Poissons Ratio (y) = 0.26558 0.23084
# Poissons Ratio (z) = 0.06193 0.30922
#
# Static dielectric constant tensor:
#      x y z
#    x 1.695400 0.000000 0.000000 
#    y 0.000000 1.629870 0.000000 
#    z 0.000000 0.000000 1.689740 
# 
# From -- ./inp_files/19419.got.cif
#   From: 2010.05.17/outbox.cif.g08.bks.cpg/sg73_10_cif.got.tgz:19419.got - 2010.06.03 17:35:07.
