data_PCOD9530899
_publ_section_title
;
Structure prediction by ZEFSAII (Michael W. Deem and Ramdas Pophale) SiO2 
 PCOD9530899
Probable space group: I B C A 
;
_chemical_formula_sum "Si O2"
_cell_formula_units_Z 120
_cell_length_a 23.278184
_cell_length_b 21.428181
_cell_length_c 11.429647
_cell_angle_alpha 90.000000
_cell_angle_beta 90.000000
_cell_angle_gamma 90.000000
_cell_volume 5701.212392
_symmetry_space_group_name_H-M "I B C A "
_symmetry_group_IT_number 73
_symmetry_cell_setting 'orthorhombic'
loop_
_space_group_symop_operation_xyz
x,y,z
-x,1/2-y,z
x,-y,1/2-z
1/2-x,y,-z
-x,-y,-z
x,1/2+y,-z
-x,y,1/2+z
1/2+x,-y,z
1/2+x,1/2+y,1/2+z
1/2-x,-y,1/2+z
1/2+x,1/2-y,-z
-x,1/2+y,1/2-z
1/2-x,1/2-y,1/2-z
1/2+x,y,1/2-z
1/2-x,1/2+y,z
x,1/2-y,1/2+z
loop_
_atom_site_type_symbol
_atom_site_label
_atom_site_fract_x
_atom_site_fract_y
_atom_site_fract_z
Si Si1 0.965912 0.334072 0.229859
Si Si2 0.021172 0.918921 0.075424
Si Si3 0.425204 0.454733 0.390514
Si Si4 0.633240 0.239551 0.775455
Si Si5 0.421172 0.122115 0.362343
Si Si6 0.683015 0.293033 0.021805
Si Si7 0.683201 0.057342 0.527930
Si Si8 0.379955 0.000000 0.250000
O O1 0.992131 0.357979 0.350685
O O2 0.927616 0.393216 0.189201
O O3 0.927960 0.273651 0.242751
O O4 0.020067 0.337851 0.144893
O O5 0.042970 0.980838 0.140025
O O6 0.075692 0.901339 0.994140
O O7 0.964152 0.935995 0.003628
O O8 0.359710 0.465310 0.426137
O O9 0.627066 0.167677 0.815084
O O10 0.663130 0.239070 0.645845
O O11 0.655667 0.272131 0.896399
O O12 0.419192 0.058470 0.288388
O O13 0.674333 0.367616 0.037774
O O14 0.750000 0.280992 0.000000
O O15 0.750000 0.045938 0.500000
O O16 0.660162 0.022957 0.643868
#
# Coordination Sequence:
#
# PCOD9530899 Si02
#       8
#    16  16  16  16  16  16  16   8
#     4  11  23  37  61  99 132 170 211 278 340 408
#     4  10  21  36  63  94 131 168 222 269 332 419
#     4  10  20  39  62  94 126 172 218 270 339 400
#     4  12  24  44  67  98 136 176 224 288 342 409
#     4  11  24  38  65  94 131 175 221 274 339 421
#     4  11  25  46  71  94 130 183 234 282 341 404
#     4  11  23  44  67  95 131 175 227 285 339 394
#     4  12  22  46  70  92 132 184 224 272 348 420
#
# _framework density 21.048155000000001
#
# number of rings (size 3 to 8) (size 9 to 14) (size 15 to 20)
#    0.000    1.067    4.000    2.800    3.733    0.000 
#    2.400    3.333    0.000    0.000    0.000    0.000 
#    0.000    0.000    0.000    0.000    0.000    0.000 
#
# Total GULP energy -334250.521931 kJ/mol
# GULP energy per Si atom -5570.842032 kJ/mol
# Density = 2.100025 g / cm^3
# Si number density = 21.048155 Si / 1000 Ang^3
#
#
#
# Elastic Constant Matrix: (Units=GPa)
#
#
# Indices 1 2 3 4 5 6 
#
# 1 71.6789 26.6120 15.5006 0.0000 0.0000 0.0000
# 2 26.6120 100.6570 27.7700 0.0000 0.0000 0.0000
# 3 15.5006 27.7700 90.8227 0.0000 0.0000 0.0000
# 4 0.0000 0.0000 0.0000 23.3834 0.0000 0.0000
# 5 0.0000 0.0000 0.0000 0.0000 26.1641 0.0000
# 6 0.0000 0.0000 0.0000 0.0000 0.0000 26.1643
#
#
#
# Elastic Compliance Matrix: (Units=1/GPa)
#
#
# Indices 1 2 3 4 5 6 
#
# 1 0.015663 -0.003717 -0.001537 0.000000 0.000000 0.000000
# 2 -0.003717 0.011732 -0.002953 0.000000 0.000000 0.000000
# 3 -0.001537 -0.002953 0.012176 0.000000 0.000000 0.000000
# 4 0.000000 0.000000 0.000000 0.042765 0.000000 0.000000
# 5 0.000000 0.000000 0.000000 0.000000 0.038220 0.000000
# 6 0.000000 0.000000 0.000000 0.000000 0.000000 0.038220
#
#
# Mechanical properties :
#
#
# Convention : Reuss Voigt Hill
#
# Bulk Modulus (GPa) = 43.18200 44.76929 43.97565
# Shear Modulus (GPa) = 27.33592 28.02744 27.68168
#
# Velocity S-wave (km/s) = 3.60770 3.65305 3.63045
# Velocity P-wave (km/s) = 6.15747 6.25373 6.20578
#
# Compressibility (1/GPa) = 0.02315780
#
# Stress axis : x y z
#
# Youngs Moduli (GPa) = 63.84275 85.23595 82.13164
#
# Poissons Ratio (x) = 0.31684 0.12621
# Poissons Ratio (y) = 0.23732 0.24252
# Poissons Ratio (z) = 0.09811 0.25169
#
# Static dielectric constant tensor:
#      x y z
#    x 1.761450 0.000000 0.000000 
#    y 0.000000 1.775930 0.000000 
#    z 0.000000 0.000000 1.875920 
# 
# From -- ./inp_files/13843.got.cif
#   From: 2010.05.17/outbox.cif.g08.bks.cpg/sg73_7_cif.got.tgz:13843.got - 2010.06.03 17:35:07.
