data_PCOD9530584
_publ_section_title
;
Structure prediction by ZEFSAII (Michael W. Deem and Ramdas Pophale) SiO2 
 PCOD9530584
Probable space group: I B C A 
;
_chemical_formula_sum "Si O2"
_cell_formula_units_Z 120
_cell_length_a 13.081769
_cell_length_b 16.832586
_cell_length_c 25.776303
_cell_angle_alpha 90.000000
_cell_angle_beta 90.000000
_cell_angle_gamma 90.000000
_cell_volume 5675.941965
_symmetry_space_group_name_H-M "I B C A "
_symmetry_group_IT_number 73
_symmetry_cell_setting 'orthorhombic'
loop_
_space_group_symop_operation_xyz
x,y,z
-x,1/2-y,z
x,-y,1/2-z
1/2-x,y,-z
-x,-y,-z
x,1/2+y,-z
-x,y,1/2+z
1/2+x,-y,z
1/2+x,1/2+y,1/2+z
1/2-x,-y,1/2+z
1/2+x,1/2-y,-z
-x,1/2+y,1/2-z
1/2-x,1/2-y,1/2-z
1/2+x,y,1/2-z
1/2-x,1/2+y,z
x,1/2-y,1/2+z
loop_
_atom_site_type_symbol
_atom_site_label
_atom_site_fract_x
_atom_site_fract_y
_atom_site_fract_z
Si Si1 0.763127 0.608628 0.820642
Si Si2 0.582443 0.566435 0.988032
Si Si3 0.780495 0.530119 0.928282
Si Si4 0.431385 0.108327 0.096598
Si Si5 0.972412 0.482567 0.688758
Si Si6 0.500000 0.250000 0.747512
Si Si7 0.826182 0.715752 0.666660
Si Si8 0.849807 0.384482 0.212409
O O1 0.742316 0.561118 0.872989
O O2 0.882281 0.583262 0.815939
O O3 0.731903 0.700245 0.830594
O O4 0.699990 0.589843 0.767830
O O5 0.677682 0.525870 0.960261
O O6 0.522574 0.618556 0.945033
O O7 0.500000 0.500000 0.000000
O O8 0.637396 0.590075 0.042760
O O9 0.841135 0.447643 0.925393
O O10 0.384470 0.191533 0.114759
O O11 0.460540 0.056068 0.148653
O O12 0.968354 0.500000 0.750000
O O13 0.085151 0.448124 0.681399
O O14 0.412984 0.287285 0.710859
O O15 0.566372 0.315289 0.777350
O O16 0.743456 0.649161 0.679792
#
# Coordination Sequence:
#
# PCOD9530584 Si02
#       8
#    16  16  16  16  16   8  16  16
#     4  10  22  39  59  87 126 165 210 251 309 381
#     4   9  19  38  63  89 115 151 200 263 323 366
#     4   9  20  38  63  88 115 157 205 257 318 366
#     4  10  22  36  59  92 119 156 210 254 307 377
#     4  11  23  36  55  90 128 164 214 256 301 361
#     4  10  20  36  52  76 114 168 206 236 288 364
#     4  11  23  37  58  90 126 169 206 244 312 376
#     4  11  21  34  55  81 124 168 202 249 299 357
#
# _framework density 21.141866
#
# number of rings (size 3 to 8) (size 9 to 14) (size 15 to 20)
#    0.000    1.867    0.000    4.800    7.467    1.600 
#    0.000    0.000    0.000    8.000    0.000    0.000 
#    0.000    0.000    0.000    0.000    0.000    0.000 
#
# Total GULP energy -334410.312749 kJ/mol
# GULP energy per Si atom -5573.505212 kJ/mol
# Density = 2.109375 g / cm^3
# Si number density = 21.141866 Si / 1000 Ang^3
#
#
#
# Elastic Constant Matrix: (Units=GPa)
#
#
# Indices 1 2 3 4 5 6 
#
# 1 128.1968 34.4309 29.0140 0.0000 0.0000 0.0000
# 2 34.4309 53.0506 11.5696 0.0000 0.0000 0.0000
# 3 29.0140 11.5696 39.7615 0.0000 0.0000 0.0000
# 4 0.0000 0.0000 0.0000 -20.9937 0.0000 0.0000
# 5 0.0000 0.0000 0.0000 0.0000 -79.9985 0.0000
# 6 0.0000 0.0000 0.0000 0.0000 0.0000 23.5665
#
#
#
# Elastic Compliance Matrix: (Units=1/GPa)
#
#
# Indices 1 2 3 4 5 6 
#
# 1 0.010703 -0.005599 -0.006181 0.000000 0.000000 0.000000
# 2 -0.005599 0.023056 -0.002623 0.000000 0.000000 0.000000
# 3 -0.006181 -0.002623 0.030424 0.000000 0.000000 0.000000
# 4 0.000000 0.000000 0.000000 -0.047633 0.000000 0.000000
# 5 0.000000 0.000000 0.000000 0.000000 -0.012500 0.000000
# 6 0.000000 0.000000 0.000000 0.000000 0.000000 0.042433
#
#
# Mechanical properties :
#
#
# Convention : Reuss Voigt Hill
#
# Bulk Modulus (GPa) = 28.26737 41.22643 34.74690
# Shear Modulus (GPa) = 57.41864 -5.75219 25.83322
#
# Velocity S-wave (km/s) = 5.21706 -1.65126 3.49936
# Velocity P-wave (km/s) = 7.04909 3.98832 5.72697
#
# Compressibility (1/GPa) = 0.03537647
#
# Stress axis : x y z
#
# Youngs Moduli (GPa) = 93.43129 43.37340 32.86921
#
# Poissons Ratio (x) = 0.24283 0.20316
# Poissons Ratio (y) = 0.52308 0.08623
# Poissons Ratio (z) = 0.57750 0.11379
#
# Static dielectric constant tensor:
#      x y z
#    x 1.783320 0.000000 0.000000 
#    y 0.000000 1.815170 0.000000 
#    z 0.000000 0.000000 1.882730 
# 
# From -- ./inp_files/14366.got.cif
#   From: 2010.05.17/outbox.cif.g08.bks.cpg/sg73_8_cif.got.tgz:14366.got - 2010.06.03 17:35:07.
