data_PCOD9530345
_publ_section_title
;
Structure prediction by ZEFSAII (Michael W. Deem and Ramdas Pophale) SiO2 
 PCOD9530345
Probable space group: I B C A 
;
_chemical_formula_sum "Si O2"
_cell_formula_units_Z 120
_cell_length_a 14.896272
_cell_length_b 15.116988
_cell_length_c 28.574489
_cell_angle_alpha 90.000000
_cell_angle_beta 90.000000
_cell_angle_gamma 90.000000
_cell_volume 6434.596741
_symmetry_space_group_name_H-M "I B C A "
_symmetry_group_IT_number 73
_symmetry_cell_setting 'orthorhombic'
loop_
_space_group_symop_operation_xyz
x,y,z
-x,1/2-y,z
x,-y,1/2-z
1/2-x,y,-z
-x,-y,-z
x,1/2+y,-z
-x,y,1/2+z
1/2+x,-y,z
1/2+x,1/2+y,1/2+z
1/2-x,-y,1/2+z
1/2+x,1/2-y,-z
-x,1/2+y,1/2-z
1/2-x,1/2-y,1/2-z
1/2+x,y,1/2-z
1/2-x,1/2+y,z
x,1/2-y,1/2+z
loop_
_atom_site_type_symbol
_atom_site_label
_atom_site_fract_x
_atom_site_fract_y
_atom_site_fract_z
Si Si1 0.927662 0.673552 0.402885
Si Si2 0.971123 0.342847 0.313639
Si Si3 0.000856 0.490312 0.944368
Si Si4 0.308613 0.076557 0.837525
Si Si5 0.871297 0.622985 0.611796
Si Si6 0.344895 0.894734 0.890861
Si Si7 0.750589 0.754474 0.555160
Si Si8 0.101454 0.000000 0.250000
O O1 0.883367 0.646381 0.353836
O O2 0.841845 0.705477 0.432585
O O3 0.000000 0.750000 0.399864
O O4 0.971481 0.585282 0.423873
O O5 0.046968 0.357517 0.353147
O O6 0.000000 0.250000 0.290263
O O7 0.882347 0.338362 0.346665
O O8 0.956159 0.427155 0.279471
O O9 0.908481 0.456795 0.920659
O O10 0.076242 0.418541 0.927948
O O11 0.000000 0.500000 0.000000
O O12 0.211153 0.107971 0.852789
O O13 0.333114 0.051476 0.785256
O O14 0.320625 0.988361 0.868540
O O15 0.833934 0.695735 0.575015
O O16 0.264546 0.845421 0.916706
O O17 0.750000 0.768407 0.500000
#
# Coordination Sequence:
#
# PCOD9530345 Si02
#       8
#    16  16  16  16  16  16  16   8
#     4  10  23  39  56  86 126 161 198 257 316 358
#     4  10  19  39  64  89 121 159 206 253 325 371
#     4  10  21  36  57  89 121 162 208 250 298 366
#     4   9  21  41  59  84 124 156 199 257 316 368
#     4  10  21  38  63  85 126 168 197 250 318 366
#     4   9  20  36  57  83 121 165 194 249 315 359
#     4  11  22  36  59  95 121 161 217 252 286 376
#     4  10  22  40  64  92 118 154 212 272 298 398
#
# _framework density 18.649187000000001
#
# number of rings (size 3 to 8) (size 9 to 14) (size 15 to 20)
#    0.000    2.133    1.333    1.600    3.733    1.067 
#    0.000    2.000    0.000    0.000    0.000    0.000 
#    0.000    0.000    0.000    0.000    0.000    0.000 
#
# Total GULP energy -334208.885931 kJ/mol
# GULP energy per Si atom -5570.148099 kJ/mol
# Density = 1.860674 g / cm^3
# Si number density = 18.649187 Si / 1000 Ang^3
#
#
#
# Elastic Constant Matrix: (Units=GPa)
#
#
# Indices 1 2 3 4 5 6 
#
# 1 39.3120 12.2998 10.9566 0.0000 0.0000 0.0000
# 2 12.2998 71.5076 18.4694 0.0000 0.0000 0.0000
# 3 10.9566 18.4694 82.4904 0.0000 0.0000 0.0000
# 4 0.0000 0.0000 0.0000 28.4397 0.0000 0.0000
# 5 0.0000 0.0000 0.0000 0.0000 15.9843 0.0000
# 6 0.0000 0.0000 0.0000 0.0000 0.0000 12.4059
#
#
#
# Elastic Compliance Matrix: (Units=1/GPa)
#
#
# Indices 1 2 3 4 5 6 
#
# 1 0.027459 -0.004013 -0.002749 0.000000 0.000000 0.000000
# 2 -0.004013 0.015429 -0.002922 0.000000 0.000000 0.000000
# 3 -0.002749 -0.002922 0.013142 0.000000 0.000000 0.000000
# 4 0.000000 0.000000 0.000000 0.035162 0.000000 0.000000
# 5 0.000000 0.000000 0.000000 0.000000 0.062561 0.000000
# 6 0.000000 0.000000 0.000000 0.000000 0.000000 0.080607
#
#
# Mechanical properties :
#
#
# Convention : Reuss Voigt Hill
#
# Bulk Modulus (GPa) = 27.27500 30.75127 29.01314
# Shear Modulus (GPa) = 18.80059 21.47159 20.13609
#
# Velocity S-wave (km/s) = 3.17853 3.39682 3.28949
# Velocity P-wave (km/s) = 5.30357 5.64887 5.47894
#
# Compressibility (1/GPa) = 0.03666362
#
# Stress axis : x y z
#
# Youngs Moduli (GPa) = 36.41755 64.81119 76.09283
#
# Poissons Ratio (x) = 0.26010 0.20915
# Poissons Ratio (y) = 0.14615 0.22231
# Poissons Ratio (z) = 0.10010 0.18935
#
# Static dielectric constant tensor:
#      x y z
#    x 1.656370 0.000000 0.000000 
#    y 0.000000 1.690500 0.000000 
#    z 0.000000 0.000000 1.600070 
# 
# From -- ./inp_files/18331.got.cif
#   From: 2010.05.17/outbox.cif.g08.bks.cpg/sg73_10_cif.got.tgz:18331.got - 2010.06.03 17:35:07.
