data_PCOD9530685
_publ_section_title
;
Structure prediction by ZEFSAII (Michael W. Deem and Ramdas Pophale) SiO2 
 PCOD9530685
Probable space group: I B C A 
;
_chemical_formula_sum "Si O2"
_cell_formula_units_Z 104
_cell_length_a 29.835626
_cell_length_b 7.658622
_cell_length_c 18.994654
_cell_angle_alpha 90.000000
_cell_angle_beta 90.000000
_cell_angle_gamma 90.000000
_cell_volume 4340.274292
_symmetry_space_group_name_H-M "I B C A "
_symmetry_group_IT_number 73
_symmetry_cell_setting 'orthorhombic'
loop_
_space_group_symop_operation_xyz
x,y,z
-x,1/2-y,z
x,-y,1/2-z
1/2-x,y,-z
-x,-y,-z
x,1/2+y,-z
-x,y,1/2+z
1/2+x,-y,z
1/2+x,1/2+y,1/2+z
1/2-x,-y,1/2+z
1/2+x,1/2-y,-z
-x,1/2+y,1/2-z
1/2-x,1/2-y,1/2-z
1/2+x,y,1/2-z
1/2-x,1/2+y,z
x,1/2-y,1/2+z
loop_
_atom_site_type_symbol
_atom_site_label
_atom_site_fract_x
_atom_site_fract_y
_atom_site_fract_z
Si Si1 0.897939 0.908725 0.541576
Si Si2 0.660844 0.111866 0.686283
Si Si3 0.153143 0.000000 0.250000
Si Si4 0.273791 0.461103 0.924200
Si Si5 0.489367 0.450675 0.418946
Si Si6 0.581494 0.036670 0.605235
Si Si7 0.814682 0.911731 0.895394
O O1 0.901918 0.714435 0.569303
O O2 0.937182 0.006065 0.586255
O O3 0.910472 0.903122 0.458969
O O4 0.850110 0.997799 0.552840
O O5 0.648352 0.312590 0.703521
O O6 0.614644 0.009847 0.668853
O O7 0.682896 0.000000 0.750000
O O8 0.691630 0.088643 0.615849
O O9 0.162820 0.888289 0.320421
O O10 0.228755 0.470144 0.878161
O O11 0.296975 0.272910 0.924521
O O12 0.250000 0.499458 0.000000
O O13 0.500000 0.250000 0.406125
O O14 0.500000 0.500000 0.500000
O O15 0.528848 0.549812 0.377431
#
# Coordination Sequence:
#
# PCOD9530685 Si02
#       7
#    16  16   8  16  16  16  16
#     4  11  23  40  71 106 144 193 243 319 400 463
#     4  12  27  49  80 108 154 211 265 320 394 482
#     4  12  26  50  72 112 138 208 268 306 390 476
#     4  12  28  48  72 111 152 195 263 333 405 470
#     4  10  20  36  65 106 144 187 238 305 391 475
#     4  11  23  41  71 107 149 188 249 316 390 469
#     4  12  27  43  74 101 150 198 254 322 387 479
#
# _framework density 23.96162
#
# number of rings (size 3 to 8) (size 9 to 14) (size 15 to 20)
#    0.000    0.615    3.077    6.462    7.538    1.231 
#    0.000    0.769    1.692    0.000    0.000    0.000 
#    0.000    0.000    0.000    0.000    0.000    0.000 
#
# Total GULP energy -289628.933592 kJ/mol
# GULP energy per Si atom -5569.787184 kJ/mol
# Density = 2.390708 g / cm^3
# Si number density = 23.961620 Si / 1000 Ang^3
#
#
#
# Elastic Constant Matrix: (Units=GPa)
#
#
# Indices 1 2 3 4 5 6 
#
# 1 133.8017 63.5582 12.2317 0.0000 0.0000 0.0000
# 2 63.5582 81.2603 14.8259 0.0000 0.0000 0.0000
# 3 12.2317 14.8259 93.1224 0.0000 0.0000 0.0000
# 4 0.0000 0.0000 0.0000 165.1662 0.0000 0.0000
# 5 0.0000 0.0000 0.0000 0.0000 4.0045 0.0000
# 6 0.0000 0.0000 0.0000 0.0000 0.0000 -19.8076
#
#
#
# Elastic Compliance Matrix: (Units=1/GPa)
#
#
# Indices 1 2 3 4 5 6 
#
# 1 0.011893 -0.009287 -0.000084 0.000000 0.000000 0.000000
# 2 -0.009287 0.019926 -0.001953 0.000000 0.000000 0.000000
# 3 -0.000084 -0.001953 0.011060 0.000000 0.000000 0.000000
# 4 0.000000 0.000000 0.000000 0.006055 0.000000 0.000000
# 5 0.000000 0.000000 0.000000 0.000000 0.249720 0.000000
# 6 0.000000 0.000000 0.000000 0.000000 0.000000 -0.050486
#
#
# Mechanical properties :
#
#
# Convention : Reuss Voigt Hill
#
# Bulk Modulus (GPa) = 49.42324 54.37955 51.90140
# Shear Modulus (GPa) = 18.01421 44.37720 31.19570
#
# Velocity S-wave (km/s) = 2.74486 4.30817 3.61210
# Velocity P-wave (km/s) = 5.54224 6.89136 6.25329
#
# Compressibility (1/GPa) = 0.02023339
#
# Stress axis : x y z
#
# Youngs Moduli (GPa) = 84.08483 50.18560 90.41264
#
# Poissons Ratio (x) = 0.46606 0.00756
# Poissons Ratio (y) = 0.78087 0.17654
# Poissons Ratio (z) = 0.00703 0.09799
#
# Static dielectric constant tensor:
#      x y z
#    x 2.016550 0.000000 0.000000 
#    y 0.000000 1.965620 0.000000 
#    z 0.000000 0.000000 1.997080 
# 
# From -- ./inp_files/27807.got.cif
#   From: 2010.05.17/outbox.cif.g08.bks.cpg/sg73_14_cif.got.tgz:27807.got - 2010.06.03 17:35:07.
