data_PCOD9530186
_publ_section_title
;
Structure prediction by ZEFSAII (Michael W. Deem and Ramdas Pophale) SiO2 
 PCOD9530186
Probable space group: I B C A 
;
_chemical_formula_sum "Si O2"
_cell_formula_units_Z 96
_cell_length_a 16.514237
_cell_length_b 16.262506
_cell_length_c 18.082120
_cell_angle_alpha 90.000000
_cell_angle_beta 90.000000
_cell_angle_gamma 90.000000
_cell_volume 4856.186193
_symmetry_space_group_name_H-M "I B C A "
_symmetry_group_IT_number 73
_symmetry_cell_setting 'orthorhombic'
loop_
_space_group_symop_operation_xyz
x,y,z
-x,1/2-y,z
x,-y,1/2-z
1/2-x,y,-z
-x,-y,-z
x,1/2+y,-z
-x,y,1/2+z
1/2+x,-y,z
1/2+x,1/2+y,1/2+z
1/2-x,-y,1/2+z
1/2+x,1/2-y,-z
-x,1/2+y,1/2-z
1/2-x,1/2-y,1/2-z
1/2+x,y,1/2-z
1/2-x,1/2+y,z
x,1/2-y,1/2+z
loop_
_atom_site_type_symbol
_atom_site_label
_atom_site_fract_x
_atom_site_fract_y
_atom_site_fract_z
Si Si1 0.529914 0.158287 0.425186
Si Si2 0.680823 0.016905 0.899007
Si Si3 0.724799 0.180654 0.086356
Si Si4 0.083952 0.574028 0.542660
Si Si5 0.010522 0.477603 0.167870
Si Si6 0.277756 0.644454 0.084554
O O1 0.500000 0.250000 0.434857
O O2 0.489978 0.107751 0.493087
O O3 0.493440 0.118661 0.351017
O O4 0.625868 0.152860 0.417716
O O5 0.743488 0.942527 0.887140
O O6 0.722031 0.105069 0.881799
O O7 0.602184 0.997294 0.850505
O O8 0.644873 0.028932 0.983654
O O9 0.633290 0.148191 0.080676
O O10 0.740835 0.271123 0.118832
O O11 0.750000 0.186692 0.000000
O O12 0.048895 0.518228 0.607507
O O13 0.987090 0.500000 0.250000
O O14 0.250000 0.643269 0.000000
#
# Coordination Sequence:
#
# PCOD9530186 Si02
#       6
#    16  16  16  16  16  16
#     4  11  21  37  62  89 115 146 191 242 288 338
#     4  10  19  35  56  81 112 146 190 238 281 336
#     4   9  18  32  53  85 116 139 180 242 290 331
#     4  10  20  35  58  85 114 147 189 241 285 332
#     4  11  23  39  57  80 116 159 195 234 289 346
#     4  11  18  30  57  87 112 144 185 232 291 342
#
# _framework density 19.768598999999998
#
# number of rings (size 3 to 8) (size 9 to 14) (size 15 to 20)
#    0.000    1.667    0.000   10.500    0.000    0.000 
#    0.000    5.833    0.000    3.000    0.000    0.000 
#    0.000    0.000    0.000    0.000    0.000    0.000 
#
# Total GULP energy -267754.378101 kJ/mol
# GULP energy per Si atom -5578.216210 kJ/mol
# Density = 1.972361 g / cm^3
# Si number density = 19.768599 Si / 1000 Ang^3
#
#
#
# Elastic Constant Matrix: (Units=GPa)
#
#
# Indices 1 2 3 4 5 6 
#
# 1 120.6763 41.6034 9.4071 0.0000 0.0000 0.0000
# 2 41.6034 136.0518 25.3523 0.0000 0.0000 0.0000
# 3 9.4071 25.3523 65.6760 0.0000 0.0000 0.0000
# 4 0.0000 0.0000 0.0000 8.5781 0.0000 0.0000
# 5 0.0000 0.0000 0.0000 0.0000 5.0717 0.0000
# 6 0.0000 0.0000 0.0000 0.0000 0.0000 14.9505
#
#
#
# Elastic Compliance Matrix: (Units=1/GPa)
#
#
# Indices 1 2 3 4 5 6 
#
# 1 0.009267 -0.002787 -0.000252 0.000000 0.000000 0.000000
# 2 -0.002787 0.008758 -0.002982 0.000000 0.000000 0.000000
# 3 -0.000252 -0.002982 0.016413 0.000000 0.000000 0.000000
# 4 0.000000 0.000000 0.000000 0.116576 0.000000 0.000000
# 5 0.000000 0.000000 0.000000 0.000000 0.197172 0.000000
# 6 0.000000 0.000000 0.000000 0.000000 0.000000 0.066887
#
#
# Mechanical properties :
#
#
# Convention : Reuss Voigt Hill
#
# Bulk Modulus (GPa) = 44.64650 52.79217 48.71934
# Shear Modulus (GPa) = 11.50538 22.12282 16.81410
#
# Velocity S-wave (km/s) = 2.41509 3.34891 2.91958
# Velocity P-wave (km/s) = 5.51457 6.45884 6.00529
#
# Compressibility (1/GPa) = 0.02239817
#
# Stress axis : x y z
#
# Youngs Moduli (GPa) = 107.90947 114.18206 60.92639
#
# Poissons Ratio (x) = 0.31821 0.01533
# Poissons Ratio (y) = 0.30073 0.18166
# Poissons Ratio (z) = 0.02715 0.34044
#
# Static dielectric constant tensor:
#      x y z
#    x 1.675910 0.000000 0.000000 
#    y 0.000000 1.792890 0.000000 
#    z 0.000000 0.000000 1.682830 
# 
# From -- ./inp_files/22544.got.cif
#   From: 2010.05.17/outbox.cif.g08.bks.cpg/sg73_12_cif.got.tgz:22544.got - 2010.06.03 17:35:07.
