data_PCOD9530272
_publ_section_title
;
Structure prediction by ZEFSAII (Michael W. Deem and Ramdas Pophale) SiO2 
 PCOD9530272
Probable space group: I B C A 
;
_chemical_formula_sum "Si O2"
_cell_formula_units_Z 72
_cell_length_a 15.202841
_cell_length_b 13.836455
_cell_length_c 16.291265
_cell_angle_alpha 90.000000
_cell_angle_beta 90.000000
_cell_angle_gamma 90.000000
_cell_volume 3426.923396
_symmetry_space_group_name_H-M "I B C A "
_symmetry_group_IT_number 73
_symmetry_cell_setting 'orthorhombic'
loop_
_space_group_symop_operation_xyz
x,y,z
-x,1/2-y,z
x,-y,1/2-z
1/2-x,y,-z
-x,-y,-z
x,1/2+y,-z
-x,y,1/2+z
1/2+x,-y,z
1/2+x,1/2+y,1/2+z
1/2-x,-y,1/2+z
1/2+x,1/2-y,-z
-x,1/2+y,1/2-z
1/2-x,1/2-y,1/2-z
1/2+x,y,1/2-z
1/2-x,1/2+y,z
x,1/2-y,1/2+z
loop_
_atom_site_type_symbol
_atom_site_label
_atom_site_fract_x
_atom_site_fract_y
_atom_site_fract_z
Si Si1 0.500000 0.750000 0.294124
Si Si2 0.170730 0.225512 0.064070
Si Si3 0.423716 0.581979 0.572650
Si Si4 0.554374 0.122189 0.561646
Si Si5 0.904123 0.093280 0.690689
O O1 0.452145 0.825614 0.352821
O O2 0.432485 0.686231 0.243382
O O3 0.141190 0.331277 0.096451
O O4 0.171448 0.139083 0.131476
O O5 0.250000 0.232664 0.000000
O O6 0.091598 0.194174 0.005219
O O7 0.387286 0.473645 0.570685
O O8 0.460545 0.595354 0.479489
O O9 0.508199 0.575589 0.634206
O O10 0.887387 0.000000 0.750000
#
# Coordination Sequence:
#
# PCOD9530272 Si02
#       5
#     8  16  16  16  16
#     4  12  18  34  64  92 124 150 214 298 326 350
#     4  11  23  40  59  89 136 179 207 256 339 418
#     4  10  19  37  60  90 118 166 226 268 311 390
#     4  10  20  34  62  89 115 164 226 269 314 380
#     4  11  21  36  66  98 125 162 224 285 326 375
#
# _framework density 21.010097999999999
#
# number of rings (size 3 to 8) (size 9 to 14) (size 15 to 20)
#    0.000    1.333    6.667    1.333    0.000    0.889 
#    0.000    1.111    4.889    0.000    0.000    0.000 
#    0.000    0.000    0.000    0.000    0.000    0.000 
#
# Total GULP energy -200428.546602 kJ/mol
# GULP energy per Si atom -5567.459628 kJ/mol
# Density = 2.096228 g / cm^3
# Si number density = 21.010098 Si / 1000 Ang^3
#
#
#
# Elastic Constant Matrix: (Units=GPa)
#
#
# Indices 1 2 3 4 5 6 
#
# 1 26.8243 34.3699 12.5334 0.0000 0.0000 0.0000
# 2 34.3699 166.4767 48.8340 0.0000 0.0000 0.0000
# 3 12.5334 48.8340 91.5473 0.0000 0.0000 0.0000
# 4 0.0000 0.0000 0.0000 61.6096 0.0000 0.0000
# 5 0.0000 0.0000 0.0000 0.0000 14.0371 0.0000
# 6 0.0000 0.0000 0.0000 0.0000 0.0000 6.0474
#
#
#
# Elastic Compliance Matrix: (Units=1/GPa)
#
#
# Indices 1 2 3 4 5 6 
#
# 1 0.050889 -0.010032 -0.001615 0.000000 0.000000 0.000000
# 2 -0.010032 0.009099 -0.003480 0.000000 0.000000 0.000000
# 3 -0.001615 -0.003480 0.013001 0.000000 0.000000 0.000000
# 4 0.000000 0.000000 0.000000 0.016231 0.000000 0.000000
# 5 0.000000 0.000000 0.000000 0.000000 0.071240 0.000000
# 6 0.000000 0.000000 0.000000 0.000000 0.000000 0.165360
#
#
# Mechanical properties :
#
#
# Convention : Reuss Voigt Hill
#
# Bulk Modulus (GPa) = 23.40122 52.92477 38.16300
# Shear Modulus (GPa) = 13.50183 28.94621 21.22402
#
# Velocity S-wave (km/s) = 2.53777 3.71580 3.18178
# Velocity P-wave (km/s) = 4.44402 6.60715 5.63044
#
# Compressibility (1/GPa) = 0.04273281
#
# Stress axis : x y z
#
# Youngs Moduli (GPa) = 19.65061 109.90283 76.91783
#
# Poissons Ratio (x) = 1.10259 0.12426
# Poissons Ratio (y) = 0.19714 0.26768
# Poissons Ratio (z) = 0.03174 0.38248
#
# Static dielectric constant tensor:
#      x y z
#    x 1.707800 0.000000 0.000000 
#    y 0.000000 1.977370 0.000000 
#    z 0.000000 0.000000 1.815340 
# 
# From -- ./inp_files/16792.got.cif
#   From: 2010.05.17/outbox.cif.g08.bks.cpg/sg73_9_cif.got.tgz:16792.got - 2010.06.03 17:35:07.
