data_PCOD9530392
_publ_section_title
;
Structure prediction by ZEFSAII (Michael W. Deem and Ramdas Pophale) SiO2 
 PCOD9530392
Probable space group: I B C A 
;
_chemical_formula_sum "Si O2"
_cell_formula_units_Z 80
_cell_length_a 12.623182
_cell_length_b 14.095130
_cell_length_c 22.459312
_cell_angle_alpha 90.000000
_cell_angle_beta 90.000000
_cell_angle_gamma 90.000000
_cell_volume 3996.081876
_symmetry_space_group_name_H-M "I B C A "
_symmetry_group_IT_number 73
_symmetry_cell_setting 'orthorhombic'
loop_
_space_group_symop_operation_xyz
x,y,z
-x,1/2-y,z
x,-y,1/2-z
1/2-x,y,-z
-x,-y,-z
x,1/2+y,-z
-x,y,1/2+z
1/2+x,-y,z
1/2+x,1/2+y,1/2+z
1/2-x,-y,1/2+z
1/2+x,1/2-y,-z
-x,1/2+y,1/2-z
1/2-x,1/2-y,1/2-z
1/2+x,y,1/2-z
1/2-x,1/2+y,z
x,1/2-y,1/2+z
loop_
_atom_site_type_symbol
_atom_site_label
_atom_site_fract_x
_atom_site_fract_y
_atom_site_fract_z
Si Si1 0.985527 0.893079 0.482332
Si Si2 0.455869 0.644444 0.154202
Si Si3 0.645241 0.606132 0.234941
Si Si4 0.771221 0.768914 0.166834
Si Si5 0.847372 0.754711 0.034409
O O1 0.875087 0.841678 0.498137
O O2 0.016745 0.884191 0.413275
O O3 0.060798 0.830054 0.523943
O O4 0.000000 0.000000 0.500000
O O5 0.500000 0.750000 0.160078
O O6 0.531770 0.592149 0.201688
O O7 0.330005 0.658452 0.163108
O O8 0.684308 0.500000 0.250000
O O9 0.725212 0.670739 0.194680
O O10 0.643384 0.674848 0.292887
O O11 0.818062 0.744251 0.102779
O O12 0.750000 0.799987 0.000000
#
# Coordination Sequence:
#
# PCOD9530392 Si02
#       5
#    16  16  16  16  16
#     4  11  24  39  65 102 126 167 218 274 329 390
#     4  10  19  43  63  82 131 170 204 267 330 373
#     4  10  23  40  63  92 124 173 220 265 323 383
#     4  10  22  42  64  91 128 174 218 267 322 402
#     4  11  21  44  66  92 132 173 211 265 339 395
#
# _framework density 20.019608999999999
#
# number of rings (size 3 to 8) (size 9 to 14) (size 15 to 20)
#    0.000    1.600    4.000    1.200    2.800    3.200 
#   18.000    0.000    0.000    0.000    0.000    0.000 
#    0.000    0.000    0.000    0.000    0.000    0.000 
#
# Total GULP energy -222755.666346 kJ/mol
# GULP energy per Si atom -5568.891659 kJ/mol
# Density = 1.997404 g / cm^3
# Si number density = 20.019609 Si / 1000 Ang^3
#
#
#
# Elastic Constant Matrix: (Units=GPa)
#
#
# Indices 1 2 3 4 5 6 
#
# 1 60.9728 17.7944 22.4842 0.0000 0.0000 0.0000
# 2 17.7944 115.6052 37.6399 0.0000 0.0000 0.0000
# 3 22.4842 37.6399 132.0874 0.0000 0.0000 0.0000
# 4 0.0000 0.0000 0.0000 22.7955 0.0000 0.0000
# 5 0.0000 0.0000 0.0000 0.0000 29.2863 0.0000
# 6 0.0000 0.0000 0.0000 0.0000 0.0000 6.9799
#
#
#
# Elastic Compliance Matrix: (Units=1/GPa)
#
#
# Indices 1 2 3 4 5 6 
#
# 1 0.017886 -0.001942 -0.002491 0.000000 0.000000 0.000000
# 2 -0.001942 0.009746 -0.002447 0.000000 0.000000 0.000000
# 3 -0.002491 -0.002447 0.008692 0.000000 0.000000 0.000000
# 4 0.000000 0.000000 0.000000 0.043868 0.000000 0.000000
# 5 0.000000 0.000000 0.000000 0.000000 0.034146 0.000000
# 6 0.000000 0.000000 0.000000 0.000000 0.000000 0.143269
#
#
# Mechanical properties :
#
#
# Convention : Reuss Voigt Hill
#
# Bulk Modulus (GPa) = 44.31795 51.61136 47.96466
# Shear Modulus (GPa) = 17.92836 27.19546 22.56191
#
# Velocity S-wave (km/s) = 2.99580 3.68970 3.36071
# Velocity P-wave (km/s) = 5.84395 6.63236 6.25060
#
# Compressibility (1/GPa) = 0.02256422
#
# Stress axis : x y z
#
# Youngs Moduli (GPa) = 55.90909 102.61016 115.04848
#
# Poissons Ratio (x) = 0.19927 0.28661
# Poissons Ratio (y) = 0.10857 0.28147
# Poissons Ratio (z) = 0.13928 0.25104
#
# Static dielectric constant tensor:
#      x y z
#    x 1.782900 0.000000 0.000000 
#    y 0.000000 1.604760 0.000000 
#    z 0.000000 0.000000 1.703550 
# 
# From -- ./inp_files/29448.got.cif
#   From: 2010.05.17/outbox.cif.g08.bks.cpg/sg73_15_cif.got.tgz:29448.got - 2010.06.03 17:35:07.
