data_PCOD9530420
_publ_section_title
;
Structure prediction by ZEFSAII (Michael W. Deem and Ramdas Pophale) SiO2 
 PCOD9530420
Probable space group: I B C A 
;
_chemical_formula_sum "Si O2"
_cell_formula_units_Z 72
_cell_length_a 7.353297
_cell_length_b 17.114695
_cell_length_c 24.814402
_cell_angle_alpha 90.000000
_cell_angle_beta 90.000000
_cell_angle_gamma 90.000000
_cell_volume 3122.878481
_symmetry_space_group_name_H-M "I B C A "
_symmetry_group_IT_number 73
_symmetry_cell_setting 'orthorhombic'
loop_
_space_group_symop_operation_xyz
x,y,z
-x,1/2-y,z
x,-y,1/2-z
1/2-x,y,-z
-x,-y,-z
x,1/2+y,-z
-x,y,1/2+z
1/2+x,-y,z
1/2+x,1/2+y,1/2+z
1/2-x,-y,1/2+z
1/2+x,1/2-y,-z
-x,1/2+y,1/2-z
1/2-x,1/2-y,1/2-z
1/2+x,y,1/2-z
1/2-x,1/2+y,z
x,1/2-y,1/2+z
loop_
_atom_site_type_symbol
_atom_site_label
_atom_site_fract_x
_atom_site_fract_y
_atom_site_fract_z
Si Si1 0.305910 0.806362 0.554503
Si Si2 0.335704 0.904529 0.059143
Si Si3 0.000000 0.250000 0.739970
Si Si4 0.949851 0.429443 0.903498
Si Si5 0.251127 0.173163 0.829299
O O1 0.250000 0.762136 0.500000
O O2 0.513235 0.836286 0.557594
O O3 0.255069 0.778157 0.614623
O O4 0.166955 0.880944 0.552592
O O5 0.155266 0.898060 0.095905
O O6 0.442796 0.980614 0.080492
O O7 0.250000 0.918581 0.000000
O O8 0.863324 0.287696 0.782637
O O9 0.946164 0.179800 0.698814
O O10 0.839313 0.407221 0.849224
#
# Coordination Sequence:
#
# PCOD9530420 Si02
#       5
#    16  16   8  16  16
#     4  10  20  36  55  94 128 147 192 224 290 355
#     4  12  18  30  58  87 134 169 170 218 277 376
#     4  10  20  46  66  72 106 152 216 248 308 316
#     4  10  20  31  53  92 120 151 196 214 286 342
#     4   9  22  38  65  86 103 152 201 257 280 356
#
# _framework density 23.055654000000001
#
# number of rings (size 3 to 8) (size 9 to 14) (size 15 to 20)
#    1.333    0.444    4.444    1.333    0.000    3.556 
#    0.000    1.111    0.000   16.000    0.000    0.000 
#    0.000    0.000    0.000    0.000    0.000    0.000 
#
# Total GULP energy -200447.110851 kJ/mol
# GULP energy per Si atom -5567.975301 kJ/mol
# Density = 2.300318 g / cm^3
# Si number density = 23.055654 Si / 1000 Ang^3
#
#
#
# Elastic Constant Matrix: (Units=GPa)
#
#
# Indices 1 2 3 4 5 6 
#
# 1 111.4391 32.1256 31.1543 0.0000 0.0000 0.0000
# 2 32.1256 82.0596 38.8443 0.0000 0.0000 0.0000
# 3 31.1543 38.8443 153.0869 0.0000 0.0000 0.0000
# 4 0.0000 0.0000 0.0000 54.9823 0.0000 0.0000
# 5 0.0000 0.0000 0.0000 0.0000 11.7643 0.0000
# 6 0.0000 0.0000 0.0000 0.0000 0.0000 29.6207
#
#
#
# Elastic Compliance Matrix: (Units=1/GPa)
#
#
# Indices 1 2 3 4 5 6 
#
# 1 0.010312 -0.003459 -0.001221 0.000000 0.000000 0.000000
# 2 -0.003459 0.015010 -0.003105 0.000000 0.000000 0.000000
# 3 -0.001221 -0.003105 0.007568 0.000000 0.000000 0.000000
# 4 0.000000 0.000000 0.000000 0.018188 0.000000 0.000000
# 5 0.000000 0.000000 0.000000 0.000000 0.085003 0.000000
# 6 0.000000 0.000000 0.000000 0.000000 0.000000 0.033760
#
#
# Mechanical properties :
#
#
# Convention : Reuss Voigt Hill
#
# Bulk Modulus (GPa) = 57.73263 61.20377 59.46820
# Shear Modulus (GPa) = 26.15274 35.57088 30.86181
#
# Velocity S-wave (km/s) = 3.37164 3.93214 3.66263
# Velocity P-wave (km/s) = 6.34446 6.87164 6.61330
#
# Compressibility (1/GPa) = 0.01732123
#
# Stress axis : x y z
#
# Youngs Moduli (GPa) = 96.97428 66.62152 132.12698
#
# Poissons Ratio (x) = 0.23045 0.16131
# Poissons Ratio (y) = 0.33545 0.41022
# Poissons Ratio (z) = 0.11839 0.20684
#
# Static dielectric constant tensor:
#      x y z
#    x 2.290390 0.000000 0.000000 
#    y 0.000000 1.893170 0.000000 
#    z 0.000000 0.000000 1.852620 
# 
# From -- ./inp_files/24735.got.cif
#   From: 2010.05.17/outbox.cif.g08.bks.cpg/sg73_13_cif.got.tgz:24735.got - 2010.06.03 17:35:07.
