data_PCOD9530219
_publ_section_title
;
Structure prediction by ZEFSAII (Michael W. Deem and Ramdas Pophale) SiO2 
 PCOD9530219
Probable space group: I B C A 
;
_chemical_formula_sum "Si O2"
_cell_formula_units_Z 96
_cell_length_a 27.048682
_cell_length_b 17.604848
_cell_length_c 9.083397
_cell_angle_alpha 90.000000
_cell_angle_beta 90.000000
_cell_angle_gamma 90.000000
_cell_volume 4325.404062
_symmetry_space_group_name_H-M "I B C A "
_symmetry_group_IT_number 73
_symmetry_cell_setting 'orthorhombic'
loop_
_space_group_symop_operation_xyz
x,y,z
-x,1/2-y,z
x,-y,1/2-z
1/2-x,y,-z
-x,-y,-z
x,1/2+y,-z
-x,y,1/2+z
1/2+x,-y,z
1/2+x,1/2+y,1/2+z
1/2-x,-y,1/2+z
1/2+x,1/2-y,-z
-x,1/2+y,1/2-z
1/2-x,1/2-y,1/2-z
1/2+x,y,1/2-z
1/2-x,1/2+y,z
x,1/2-y,1/2+z
loop_
_atom_site_type_symbol
_atom_site_label
_atom_site_fract_x
_atom_site_fract_y
_atom_site_fract_z
Si Si1 0.872818 0.423187 0.819937
Si Si2 0.296126 0.196342 0.609501
Si Si3 0.605036 0.801277 0.577326
Si Si4 0.483374 0.666319 0.353792
Si Si5 0.268217 0.866083 0.336064
Si Si6 0.570936 0.368543 0.925622
O O1 0.892923 0.500000 0.750000
O O2 0.892518 0.351848 0.723728
O O3 0.813609 0.420102 0.801068
O O4 0.887724 0.418090 0.991692
O O5 0.250000 0.192117 0.500000
O O6 0.346006 0.185278 0.520078
O O7 0.293491 0.281785 0.673301
O O8 0.280335 0.137403 0.734832
O O9 0.558886 0.822166 0.475321
O O10 0.597914 0.711938 0.608545
O O11 0.500000 0.750000 0.293230
O O12 0.529875 0.636769 0.445456
O O13 0.460053 0.616308 0.222854
O O14 0.250000 0.878016 0.500000
#
# Coordination Sequence:
#
# PCOD9530219 Si02
#       6
#    16  16  16  16  16  16
#     4  12  26  44  63  97 139 178 213 271 338 392
#     4  10  19  35  63  96 121 162 216 272 321 382
#     4  11  21  38  66  93 130 172 218 272 323 390
#     4  10  21  37  66 102 128 160 220 280 328 372
#     4  10  22  37  60  91 128 164 218 268 323 387
#     4  11  22  40  66  97 129 169 218 272 323 395
#
# _framework density 22.194458000000001
#
# number of rings (size 3 to 8) (size 9 to 14) (size 15 to 20)
#    0.000    1.333    3.333    4.500    2.333    0.000 
#    3.000    4.167    0.000    0.000    0.000    0.000 
#    0.000    0.000    0.000    0.000    0.000    0.000 
#
# Total GULP energy -268144.023739 kJ/mol
# GULP energy per Si atom -5586.333828 kJ/mol
# Density = 2.214394 g / cm^3
# Si number density = 22.194458 Si / 1000 Ang^3
#
#
#
# Elastic Constant Matrix: (Units=GPa)
#
#
# Indices 1 2 3 4 5 6 
#
# 1 102.0078 -2.7527 7.6099 0.0000 0.0000 0.0000
# 2 -2.7527 31.7254 5.0878 0.0000 0.0000 0.0000
# 3 7.6099 5.0878 76.8344 0.0000 0.0000 0.0000
# 4 0.0000 0.0000 0.0000 7.4909 0.0000 0.0000
# 5 0.0000 0.0000 0.0000 0.0000 36.3969 0.0000
# 6 0.0000 0.0000 0.0000 0.0000 0.0000 1.1558
#
#
#
# Elastic Compliance Matrix: (Units=1/GPa)
#
#
# Indices 1 2 3 4 5 6 
#
# 1 0.009909 0.001028 -0.001050 0.000000 0.000000 0.000000
# 2 0.001028 0.031965 -0.002218 0.000000 0.000000 0.000000
# 3 -0.001050 -0.002218 0.013266 0.000000 0.000000 0.000000
# 4 0.000000 0.000000 0.000000 0.133496 0.000000 0.000000
# 5 0.000000 0.000000 0.000000 0.000000 0.027475 0.000000
# 6 0.000000 0.000000 0.000000 0.000000 0.000000 0.865200
#
#
# Mechanical properties :
#
#
# Convention : Reuss Voigt Hill
#
# Bulk Modulus (GPa) = 19.73916 25.60639 22.67278
# Shear Modulus (GPa) = 4.53442 22.38356 13.45899
#
# Velocity S-wave (km/s) = 1.43090 3.17917 2.46522
# Velocity P-wave (km/s) = 3.41219 5.00385 4.28261
#
# Compressibility (1/GPa) = 0.05066072
#
# Stress axis : x y z
#
# Youngs Moduli (GPa) = 100.91623 31.28375 75.38153
#
# Poissons Ratio (x) = -0.03216 0.07911
# Poissons Ratio (y) = -0.10375 0.16723
# Poissons Ratio (z) = 0.10591 0.06940
#
# Static dielectric constant tensor:
#      x y z
#    x 1.851310 0.000000 0.000000 
#    y 0.000000 1.824860 0.000000 
#    z 0.000000 0.000000 1.872760 
# 
# From -- ./inp_files/7812.got.cif
#   From: 2010.05.17/outbox.cif.g08.bks.cpg/sg73_4_cif.got.tgz:7812.got - 2010.06.03 17:35:07.
