data_PCOD9530050
_publ_section_title
;
Structure prediction by ZEFSAII (Michael W. Deem and Ramdas Pophale) SiO2 
 PCOD9530050
Probable space group: I B C A 
;
_chemical_formula_sum "Si O2"
_cell_formula_units_Z 64
_cell_length_a 10.123515
_cell_length_b 16.925975
_cell_length_c 12.534469
_cell_angle_alpha 90.000000
_cell_angle_beta 90.000000
_cell_angle_gamma 90.000000
_cell_volume 2147.785798
_symmetry_space_group_name_H-M "I B C A "
_symmetry_group_IT_number 73
_symmetry_cell_setting 'orthorhombic'
loop_
_space_group_symop_operation_xyz
x,y,z
-x,1/2-y,z
x,-y,1/2-z
1/2-x,y,-z
-x,-y,-z
x,1/2+y,-z
-x,y,1/2+z
1/2+x,-y,z
1/2+x,1/2+y,1/2+z
1/2-x,-y,1/2+z
1/2+x,1/2-y,-z
-x,1/2+y,1/2-z
1/2-x,1/2-y,1/2-z
1/2+x,y,1/2-z
1/2-x,1/2+y,z
x,1/2-y,1/2+z
loop_
_atom_site_type_symbol
_atom_site_label
_atom_site_fract_x
_atom_site_fract_y
_atom_site_fract_z
Si Si1 0.080813 0.183967 0.484095
Si Si2 0.000000 0.750000 0.226224
Si Si3 0.153520 0.523336 0.410380
Si Si4 0.326565 0.116915 0.220174
Si Si5 0.750000 0.306852 0.000000
O O1 0.250000 0.202073 0.500000
O O2 0.075433 0.094262 0.532444
O O3 0.082819 0.290474 0.504002
O O4 0.077830 0.192189 0.353833
O O5 0.903234 0.811226 0.280223
O O6 0.250000 0.489814 0.500000
O O7 0.090871 0.450531 0.345688
O O8 0.233719 0.567768 0.316526
O O9 0.251081 0.156485 0.122221
#
# Coordination Sequence:
#
# PCOD9530050 Si02
#       5
#    16   8  16  16   8
#     4   9  20  37  61  92 127 173 216 275 341 404
#     4   8  20  40  60  94 126 180 220 276 344 400
#     4  11  22  39  63 100 132 177 225 286 340 406
#     4  10  22  39  66  93 137 175 227 279 339 413
#     4  10  18  42  60  92 130 178 224 278 342 412
#
# _framework density 29.79813
#
# number of rings (size 3 to 8) (size 9 to 14) (size 15 to 20)
#    0.750    1.500    2.500    0.000    1.750    2.000 
#    0.000    0.000    0.000    6.000    0.000    0.000 
#    0.000    0.000    0.000    0.000    0.000    0.000 
#
# Total GULP energy -178144.484081 kJ/mol
# GULP energy per Si atom -5567.015128 kJ/mol
# Density = 2.973031 g / cm^3
# Si number density = 29.798130 Si / 1000 Ang^3
#
#
#
# Elastic Constant Matrix: (Units=GPa)
#
#
# Indices 1 2 3 4 5 6 
#
# 1 126.3151 18.4067 2.7392 0.0000 0.0000 0.0000
# 2 18.4067 149.0579 8.7595 0.0000 0.0000 0.0000
# 3 2.7392 8.7595 128.2946 0.0001 0.0000 0.0000
# 4 0.0000 0.0000 0.0001 81.5103 0.0000 0.0000
# 5 0.0000 0.0000 0.0000 0.0000 35.4421 0.0000
# 6 0.0000 0.0000 0.0000 0.0000 0.0000 43.0225
#
#
#
# Elastic Compliance Matrix: (Units=1/GPa)
#
#
# Indices 1 2 3 4 5 6 
#
# 1 0.008063 -0.000990 -0.000105 0.000000 0.000000 0.000000
# 2 -0.000990 0.006857 -0.000447 0.000000 0.000000 0.000000
# 3 -0.000105 -0.000447 0.007827 0.000000 0.000000 0.000000
# 4 0.000000 0.000000 0.000000 0.012268 0.000000 0.000000
# 5 0.000000 0.000000 0.000000 0.000000 0.028215 0.000000
# 6 0.000000 0.000000 0.000000 0.000000 0.000000 0.023244
#
#
# Mechanical properties :
#
#
# Convention : Reuss Voigt Hill
#
# Bulk Modulus (GPa) = 50.85085 51.49759 51.17422
# Shear Modulus (GPa) = 52.02242 56.91245 54.46744
#
# Velocity S-wave (km/s) = 4.18284 4.37502 4.28001
# Velocity P-wave (km/s) = 6.35849 6.54528 6.45256
#
# Compressibility (1/GPa) = 0.01966536
#
# Stress axis : x y z
#
# Youngs Moduli (GPa) = 124.02057 145.83057 127.75773
#
# Poissons Ratio (x) = 0.14431 0.01336
# Poissons Ratio (y) = 0.12272 0.05712
# Poissons Ratio (z) = 0.01297 0.06520
#
# Static dielectric constant tensor:
#      x y z
#    x 2.427250 0.000000 0.000000 
#    y 0.000000 2.410260 0.000000 
#    z 0.000000 0.000000 2.201470 
# 
# From -- ./inp_files/11608.got.cif
#   From: 2010.05.17/outbox.cif.g08.bks.cpg/sg73_6_cif.got.tgz:11608.got - 2010.06.03 17:35:07.
