data_PCOD9530796
_publ_section_title
;
Structure prediction by ZEFSAII (Michael W. Deem and Ramdas Pophale) SiO2 
 PCOD9530796
Probable space group: I B C A 
;
_chemical_formula_sum "Si O2"
_cell_formula_units_Z 88
_cell_length_a 18.633924
_cell_length_b 24.100328
_cell_length_c 7.877282
_cell_angle_alpha 90.000000
_cell_angle_beta 90.000000
_cell_angle_gamma 90.000000
_cell_volume 3537.558792
_symmetry_space_group_name_H-M "I B C A "
_symmetry_group_IT_number 73
_symmetry_cell_setting 'orthorhombic'
loop_
_space_group_symop_operation_xyz
x,y,z
-x,1/2-y,z
x,-y,1/2-z
1/2-x,y,-z
-x,-y,-z
x,1/2+y,-z
-x,y,1/2+z
1/2+x,-y,z
1/2+x,1/2+y,1/2+z
1/2-x,-y,1/2+z
1/2+x,1/2-y,-z
-x,1/2+y,1/2-z
1/2-x,1/2-y,1/2-z
1/2+x,y,1/2-z
1/2-x,1/2+y,z
x,1/2-y,1/2+z
loop_
_atom_site_type_symbol
_atom_site_label
_atom_site_fract_x
_atom_site_fract_y
_atom_site_fract_z
Si Si1 0.886409 0.414479 0.948739
Si Si2 0.851977 0.974047 0.572381
Si Si3 0.030956 0.902884 0.190801
Si Si4 0.250000 0.627413 0.500000
Si Si5 0.672312 0.801895 0.049985
Si Si6 0.874441 0.806984 0.564628
O O1 0.848093 0.474210 0.944157
O O2 0.932150 0.408770 0.125044
O O3 0.836069 0.361364 0.960176
O O4 0.945914 0.407941 0.804457
O O5 0.933811 0.953108 0.584450
O O6 0.804808 0.918778 0.572885
O O7 0.831171 0.000000 0.750000
O O8 0.057023 0.846099 0.098106
O O9 0.185806 0.667969 0.436252
O O10 0.664454 0.808360 0.251440
O O11 0.750000 0.780245 0.000000
O O12 0.614230 0.756436 0.988762
#
# Coordination Sequence:
#
# PCOD9530796 Si02
#       6
#    16  16  16   8  16  16
#     4  10  21  38  61  89 119 155 195 247 290 356
#     4   9  19  38  59  82 121 156 194 248 297 350
#     4   9  20  39  60  84 118 156 199 239 298 345
#     4  10  20  38  60  84 120 158 194 244 306 350
#     4  11  23  39  62  88 123 155 200 249 297 356
#     4  10  22  40  61  86 121 161 194 250 296 352
#
# _framework density 24.875910999999999
#
# number of rings (size 3 to 8) (size 9 to 14) (size 15 to 20)
#    0.000    2.182    0.909    2.182    1.273    2.182 
#    3.273    3.636    0.000    0.000    0.000    0.000 
#    0.000    0.000    0.000    0.000    0.000    0.000 
#
# Total GULP energy -245397.537477 kJ/mol
# GULP energy per Si atom -5577.216761 kJ/mol
# Density = 2.481929 g / cm^3
# Si number density = 24.875911 Si / 1000 Ang^3
#
#
#
# Elastic Constant Matrix: (Units=GPa)
#
#
# Indices 1 2 3 4 5 6 
#
# 1 30.9472 -5.2421 14.3579 0.0000 0.0000 0.0000
# 2 -5.2421 134.7864 17.0115 0.0000 0.0000 0.0000
# 3 14.3579 17.0115 60.0543 0.0000 0.0000 0.0000
# 4 0.0000 0.0000 0.0000 18.6265 0.0000 0.0000
# 5 0.0000 0.0000 0.0000 0.0000 -34.9666 0.0000
# 6 0.0000 0.0000 0.0000 0.0000 0.0000 20.1416
#
#
#
# Elastic Compliance Matrix: (Units=1/GPa)
#
#
# Indices 1 2 3 4 5 6 
#
# 1 0.037247 0.002668 -0.009661 0.000000 0.000000 0.000000
# 2 0.002668 0.007885 -0.002872 0.000000 0.000000 0.000000
# 3 -0.009661 -0.002872 0.019775 0.000000 0.000000 0.000000
# 4 0.000000 0.000000 0.000000 0.053687 0.000000 0.000000
# 5 0.000000 0.000000 0.000000 0.000000 -0.028599 0.000000
# 6 0.000000 0.000000 0.000000 0.000000 0.000000 0.049648
#
#
# Mechanical properties :
#
#
# Convention : Reuss Voigt Hill
#
# Bulk Modulus (GPa) = 22.13451 30.89360 26.51406
# Shear Modulus (GPa) = 28.66442 14.07100 21.36771
#
# Velocity S-wave (km/s) = 3.39823 2.38091 2.93400
# Velocity P-wave (km/s) = 4.93098 4.47263 4.70739
#
# Compressibility (1/GPa) = 0.04517832
#
# Stress axis : x y z
#
# Youngs Moduli (GPa) = 26.84771 126.81789 50.56960
#
# Poissons Ratio (x) = -0.33834 0.48854
# Poissons Ratio (y) = -0.07163 0.14521
# Poissons Ratio (z) = 0.25937 0.36416
#
# Static dielectric constant tensor:
#      x y z
#    x 2.073860 0.000000 0.000000 
#    y 0.000000 2.140140 0.000000 
#    z 0.000000 0.000000 2.111230 
# 
# From -- ./inp_files/6287.got.cif
#   From: 2010.05.17/outbox.cif.g08.bks.cpg/sg73_4_cif.got.tgz:6287.got - 2010.06.03 17:35:07.
