data_PCOD9530549
_publ_section_title
;
Structure prediction by ZEFSAII (Michael W. Deem and Ramdas Pophale) SiO2 
 PCOD9530549
Probable space group: I B C A 
;
_chemical_formula_sum "Si O2"
_cell_formula_units_Z 104
_cell_length_a 23.029258
_cell_length_b 11.772091
_cell_length_c 17.784101
_cell_angle_alpha 90.000000
_cell_angle_beta 90.000000
_cell_angle_gamma 90.000000
_cell_volume 4821.314612
_symmetry_space_group_name_H-M "I B C A "
_symmetry_group_IT_number 73
_symmetry_cell_setting 'orthorhombic'
loop_
_space_group_symop_operation_xyz
x,y,z
-x,1/2-y,z
x,-y,1/2-z
1/2-x,y,-z
-x,-y,-z
x,1/2+y,-z
-x,y,1/2+z
1/2+x,-y,z
1/2+x,1/2+y,1/2+z
1/2-x,-y,1/2+z
1/2+x,1/2-y,-z
-x,1/2+y,1/2-z
1/2-x,1/2-y,1/2-z
1/2+x,y,1/2-z
1/2-x,1/2+y,z
x,1/2-y,1/2+z
loop_
_atom_site_type_symbol
_atom_site_label
_atom_site_fract_x
_atom_site_fract_y
_atom_site_fract_z
Si Si1 0.846282 0.604509 0.144737
Si Si2 0.857435 0.282864 0.578791
Si Si3 0.942453 0.500000 0.250000
Si Si4 0.038128 0.859346 0.382491
Si Si5 0.331613 0.839148 0.430627
Si Si6 0.591209 0.486810 0.504169
Si Si7 0.282512 0.533043 0.667067
O O1 0.899510 0.574192 0.198337
O O2 0.843836 0.737114 0.125850
O O3 0.858869 0.538592 0.066686
O O4 0.784315 0.567372 0.175082
O O5 0.895639 0.189076 0.621606
O O6 0.821353 0.221646 0.511681
O O7 0.904818 0.368055 0.539718
O O8 0.817302 0.361194 0.630587
O O9 0.978321 0.580159 0.305123
O O10 0.000000 0.750000 0.397296
O O11 0.040280 0.956648 0.446431
O O12 0.388214 0.915609 0.447611
O O13 0.288244 0.927962 0.391534
O O14 0.305191 0.500000 0.750000
#
# Coordination Sequence:
#
# PCOD9530549 Si02
#       7
#    16  16   8  16  16  16  16
#     4  10  20  35  57  77 119 161 192 234 296 359
#     4   9  20  39  60  86 120 158 195 253 303 355
#     4  10  22  40  54  82 118 154 196 238 300 370
#     4  10  21  39  62  84 113 157 199 250 306 355
#     4   9  20  36  56  79 116 157 196 240 294 351
#     4   8  18  37  59  86 111 146 199 247 294 359
#     4  11  23  35  54  94 121 158 208 246 289 356
#
# _framework density 21.570881
#
# number of rings (size 3 to 8) (size 9 to 14) (size 15 to 20)
#    0.000    2.462    0.769    0.000    2.154   11.692 
#    1.385    0.000    0.000    6.462    0.000    0.000 
#    0.000    0.000    0.000    0.000    0.000    0.000 
#
# Total GULP energy -289968.367577 kJ/mol
# GULP energy per Si atom -5576.314761 kJ/mol
# Density = 2.152178 g / cm^3
# Si number density = 21.570881 Si / 1000 Ang^3
#
#
#
# Elastic Constant Matrix: (Units=GPa)
#
#
# Indices 1 2 3 4 5 6 
#
# 1 32.2397 14.5962 15.4235 0.0000 0.0000 0.0000
# 2 14.5962 112.8885 37.7925 0.0000 0.0000 0.0000
# 3 15.4235 37.7925 86.7309 0.0000 0.0000 0.0000
# 4 0.0000 0.0000 0.0000 35.0607 0.0000 0.0000
# 5 0.0000 0.0000 0.0000 0.0000 -13.6165 0.0000
# 6 0.0000 0.0000 0.0000 0.0000 0.0000 6.5886
#
#
#
# Elastic Compliance Matrix: (Units=1/GPa)
#
#
# Indices 1 2 3 4 5 6 
#
# 1 0.034658 -0.002831 -0.004930 0.000000 0.000000 0.000000
# 2 -0.002831 0.010602 -0.004117 0.000000 0.000000 0.000000
# 3 -0.004930 -0.004117 0.014200 0.000000 0.000000 0.000000
# 4 0.000000 0.000000 0.000000 0.028522 0.000000 0.000000
# 5 0.000000 0.000000 0.000000 0.000000 -0.073440 0.000000
# 6 0.000000 0.000000 0.000000 0.000000 0.000000 0.151778
#
#
# Mechanical properties :
#
#
# Convention : Reuss Voigt Hill
#
# Bulk Modulus (GPa) = 28.00624 40.83151 34.41888
# Shear Modulus (GPa) = 24.75537 16.54301 20.64919
#
# Velocity S-wave (km/s) = 3.39134 2.77233 3.09734
# Velocity P-wave (km/s) = 5.32414 5.40535 5.36490
#
# Compressibility (1/GPa) = 0.03570632
#
# Stress axis : x y z
#
# Youngs Moduli (GPa) = 28.85362 94.31788 70.42086
#
# Poissons Ratio (x) = 0.26699 0.34716
# Poissons Ratio (y) = 0.08168 0.28989
# Poissons Ratio (z) = 0.14224 0.38826
#
# Static dielectric constant tensor:
#      x y z
#    x 1.799620 0.000000 0.000000 
#    y 0.000000 1.783760 0.000000 
#    z 0.000000 0.000000 1.802890 
# 
# From -- ./inp_files/23914.got.cif
#   From: 2010.05.17/outbox.cif.g08.bks.cpg/sg73_12_cif.got.tgz:23914.got - 2010.06.03 17:35:07.
