data_PCOD9530311
_publ_section_title
;
Structure prediction by ZEFSAII (Michael W. Deem and Ramdas Pophale) SiO2 
 PCOD9530311
Probable space group: I B C A 
;
_chemical_formula_sum "Si O2"
_cell_formula_units_Z 112
_cell_length_a 19.377671
_cell_length_b 12.758383
_cell_length_c 20.033422
_cell_angle_alpha 90.000000
_cell_angle_beta 90.000000
_cell_angle_gamma 90.000000
_cell_volume 4952.817811
_symmetry_space_group_name_H-M "I B C A "
_symmetry_group_IT_number 73
_symmetry_cell_setting 'orthorhombic'
loop_
_space_group_symop_operation_xyz
x,y,z
-x,1/2-y,z
x,-y,1/2-z
1/2-x,y,-z
-x,-y,-z
x,1/2+y,-z
-x,y,1/2+z
1/2+x,-y,z
1/2+x,1/2+y,1/2+z
1/2-x,-y,1/2+z
1/2+x,1/2-y,-z
-x,1/2+y,1/2-z
1/2-x,1/2-y,1/2-z
1/2+x,y,1/2-z
1/2-x,1/2+y,z
x,1/2-y,1/2+z
loop_
_atom_site_type_symbol
_atom_site_label
_atom_site_fract_x
_atom_site_fract_y
_atom_site_fract_z
Si Si1 0.297769 0.840354 0.912684
Si Si2 0.976817 0.022944 0.389382
Si Si3 0.068744 0.682627 0.319170
Si Si4 0.827946 0.192854 0.591748
Si Si5 0.609544 0.499465 0.975969
Si Si6 0.116732 0.821848 0.670521
Si Si7 0.746203 0.532160 0.326397
O O1 0.239281 0.756636 0.929213
O O2 0.353749 0.779233 0.867164
O O3 0.336804 0.905080 0.970174
O O4 0.259783 0.929812 0.869849
O O5 0.955961 0.934312 0.336410
O O6 0.055069 0.013370 0.414989
O O7 0.931554 0.001852 0.455548
O O8 0.954517 0.134428 0.359554
O O9 0.113808 0.730718 0.379386
O O10 0.109933 0.690104 0.249920
O O11 0.000000 0.750000 0.312349
O O12 0.854633 0.113049 0.535477
O O13 0.803332 0.117180 0.652276
O O14 0.173090 0.913844 0.658934
O O15 0.750239 0.500000 0.250000
#
# Coordination Sequence:
#
# PCOD9530311 Si02
#       7
#    16  16  16  16  16  16  16
#     4  10  22  41  69  98 134 174 226 278 331 403
#     4  11  24  45  66  92 140 173 221 271 329 404
#     4  12  24  41  67  99 129 172 221 279 335 404
#     4  10  21  42  66  98 131 169 228 273 334 395
#     4  10  24  45  66  95 130 184 220 266 339 392
#     4  11  24  40  65 100 130 172 220 279 337 389
#     4  10  19  38  63  92 135 177 212 273 341 398
#
# _framework density 22.613389000000002
#
# number of rings (size 3 to 8) (size 9 to 14) (size 15 to 20)
#    0.000    1.429    1.429    3.857    2.000    3.429 
#    0.000   15.714    0.000    0.000    0.000    0.000 
#    0.000    0.000    0.000    0.000    0.000    0.000 
#
# Total GULP energy -313620.580358 kJ/mol
# GULP energy per Si atom -5600.367506 kJ/mol
# Density = 2.256192 g / cm^3
# Si number density = 22.613389 Si / 1000 Ang^3
#
#
#
# Elastic Constant Matrix: (Units=GPa)
#
#
# Indices 1 2 3 4 5 6 
#
# 1 81.6385 49.2358 7.3761 0.0000 0.0000 0.0000
# 2 49.2358 115.2934 27.7397 0.0000 0.0000 0.0000
# 3 7.3761 27.7397 58.1852 0.0000 0.0000 0.0000
# 4 0.0000 0.0000 0.0000 10.2649 0.0000 0.0000
# 5 0.0000 0.0000 0.0000 0.0000 29.2081 0.0000
# 6 0.0000 0.0000 0.0000 0.0000 0.0000 44.7026
#
#
#
# Elastic Compliance Matrix: (Units=1/GPa)
#
#
# Indices 1 2 3 4 5 6 
#
# 1 0.016605 -0.007438 0.001441 0.000000 0.000000 0.000000
# 2 -0.007438 0.013129 -0.005316 0.000000 0.000000 0.000000
# 3 0.001441 -0.005316 0.019538 0.000000 0.000000 0.000000
# 4 0.000000 0.000000 0.000000 0.097419 0.000000 0.000000
# 5 0.000000 0.000000 0.000000 0.000000 0.034237 0.000000
# 6 0.000000 0.000000 0.000000 0.000000 0.000000 0.022370
#
#
# Mechanical properties :
#
#
# Convention : Reuss Voigt Hill
#
# Bulk Modulus (GPa) = 37.52941 47.09116 42.31029
# Shear Modulus (GPa) = 21.29418 28.21948 24.75683
#
# Velocity S-wave (km/s) = 3.07198 3.53641 3.31235
# Velocity P-wave (km/s) = 5.40508 6.12736 5.77752
#
# Compressibility (1/GPa) = 0.02664577
#
# Stress axis : x y z
#
# Youngs Moduli (GPa) = 60.22457 76.16814 51.18138
#
# Poissons Ratio (x) = 0.56651 -0.07375
# Poissons Ratio (y) = 0.44793 0.27210
# Poissons Ratio (z) = -0.08678 0.40493
#
# Static dielectric constant tensor:
#      x y z
#    x 1.844500 0.000000 0.000000 
#    y 0.000000 1.822020 0.000000 
#    z 0.000000 0.000000 1.808040 
# 
# From -- ./inp_files/30136.got.cif
#   From: 2010.05.17/outbox.cif.g08.bks.cpg/sg73_16_cif.got.tgz:30136.got - 2010.06.03 17:35:07.
