data_PCOD9530843
_publ_section_title
;
Structure prediction by ZEFSAII (Michael W. Deem and Ramdas Pophale) SiO2 
 PCOD9530843
Probable space group: I B C A 
;
_chemical_formula_sum "Si O2"
_cell_formula_units_Z 112
_cell_length_a 23.712684
_cell_length_b 16.208281
_cell_length_c 14.489195
_cell_angle_alpha 90.000000
_cell_angle_beta 90.000000
_cell_angle_gamma 90.000000
_cell_volume 5568.803947
_symmetry_space_group_name_H-M "I B C A "
_symmetry_group_IT_number 73
_symmetry_cell_setting 'orthorhombic'
loop_
_space_group_symop_operation_xyz
x,y,z
-x,1/2-y,z
x,-y,1/2-z
1/2-x,y,-z
-x,-y,-z
x,1/2+y,-z
-x,y,1/2+z
1/2+x,-y,z
1/2+x,1/2+y,1/2+z
1/2-x,-y,1/2+z
1/2+x,1/2-y,-z
-x,1/2+y,1/2-z
1/2-x,1/2-y,1/2-z
1/2+x,y,1/2-z
1/2-x,1/2+y,z
x,1/2-y,1/2+z
loop_
_atom_site_type_symbol
_atom_site_label
_atom_site_fract_x
_atom_site_fract_y
_atom_site_fract_z
Si Si1 0.352593 0.692569 0.589189
Si Si2 0.500000 0.750000 0.424308
Si Si3 0.750000 0.593435 0.000000
Si Si4 0.315359 0.765913 0.772082
Si Si5 0.115770 0.188665 0.923234
Si Si6 0.037596 0.394557 0.061898
Si Si7 0.323137 0.545702 0.337150
Si Si8 0.578944 0.454676 0.937320
O O1 0.294778 0.645631 0.561599
O O2 0.344745 0.754372 0.673589
O O3 0.367976 0.741168 0.496730
O O4 0.406286 0.635223 0.613861
O O5 0.555723 0.713962 0.376614
O O6 0.520401 0.823174 0.490541
O O7 0.785835 0.541072 0.071500
O O8 0.250000 0.750000 0.750000
O O9 0.337867 0.696476 0.843469
O O10 0.328176 0.856843 0.813257
O O11 0.107089 0.109558 0.989695
O O12 0.977623 0.415948 0.108644
O O13 0.057716 0.471641 0.002108
O O14 0.296426 0.500000 0.250000
O O15 0.379486 0.495357 0.363245
#
# Coordination Sequence:
#
# PCOD9530843 Si02
#       8
#    16   8   8  16  16  16  16  16
#     4  11  20  41  66  89 129 175 224 272 333 399
#     4   8  16  34  62  92 126 172 214 266 328 406
#     4  12  22  44  68  90 134 182 212 280 340 392
#     4  12  24  41  66  97 131 178 229 275 321 411
#     4  10  20  38  64  94 128 173 221 268 336 397
#     4   9  18  36  65  93 129 176 219 270 341 407
#     4  12  25  43  66 101 135 176 229 282 340 406
#     4  10  20  39  65  95 132 176 216 280 346 400
#
# _framework density 20.112037999999998
#
# number of rings (size 3 to 8) (size 9 to 14) (size 15 to 20)
#    0.000    1.429    4.286    1.714    0.000    1.143 
#    0.000   12.143    0.000    0.000    0.000    0.000 
#    0.000    0.000    0.000    0.000    0.000    0.000 
#
# Total GULP energy -312014.443558 kJ/mol
# GULP energy per Si atom -5571.686492 kJ/mol
# Density = 2.006626 g / cm^3
# Si number density = 20.112038 Si / 1000 Ang^3
#
#
#
# Elastic Constant Matrix: (Units=GPa)
#
#
# Indices 1 2 3 4 5 6 
#
# 1 128.0773 35.9408 32.9946 0.0000 0.0000 0.0000
# 2 35.9408 69.6651 6.8556 0.0000 0.0000 0.0000
# 3 32.9946 6.8556 80.6237 0.0000 0.0000 0.0000
# 4 0.0000 0.0000 0.0000 27.2501 0.0000 0.0000
# 5 0.0000 0.0000 0.0000 0.0000 30.1163 0.0000
# 6 0.0000 0.0000 0.0000 0.0000 0.0000 19.0015
#
#
#
# Elastic Compliance Matrix: (Units=1/GPa)
#
#
# Indices 1 2 3 4 5 6 
#
# 1 0.010134 -0.004861 -0.003734 0.000000 0.000000 0.000000
# 2 -0.004861 0.016807 0.000560 0.000000 0.000000 0.000000
# 3 -0.003734 0.000560 0.013884 0.000000 0.000000 0.000000
# 4 0.000000 0.000000 0.000000 0.036697 0.000000 0.000000
# 5 0.000000 0.000000 0.000000 0.000000 0.033205 0.000000
# 6 0.000000 0.000000 0.000000 0.000000 0.000000 0.052627
#
#
# Mechanical properties :
#
#
# Convention : Reuss Voigt Hill
#
# Bulk Modulus (GPa) = 40.39502 47.77200 44.08351
# Shear Modulus (GPa) = 26.64197 28.77860 27.71029
#
# Velocity S-wave (km/s) = 3.64356 3.78685 3.71589
# Velocity P-wave (km/s) = 6.15055 6.55170 6.35429
#
# Compressibility (1/GPa) = 0.02475553
#
# Stress axis : x y z
#
# Youngs Moduli (GPa) = 98.68129 59.49940 72.02683
#
# Poissons Ratio (x) = 0.28920 0.26893
# Poissons Ratio (y) = 0.47965 -0.04034
# Poissons Ratio (z) = 0.36846 -0.03332
#
# Static dielectric constant tensor:
#      x y z
#    x 1.818620 0.000000 0.000000 
#    y 0.000000 1.828750 0.000000 
#    z 0.000000 0.000000 1.693410 
# 
# From -- ./inp_files/19451.got.cif
#   From: 2010.05.17/outbox.cif.g08.bks.cpg/sg73_10_cif.got.tgz:19451.got - 2010.06.03 17:35:07.
