data_PCOD9530665
_publ_section_title
;
Structure prediction by ZEFSAII (Michael W. Deem and Ramdas Pophale) SiO2 
 PCOD9530665
Probable space group: I B C A 
;
_chemical_formula_sum "Si O2"
_cell_formula_units_Z 120
_cell_length_a 15.265600
_cell_length_b 18.086903
_cell_length_c 22.207264
_cell_angle_alpha 90.000000
_cell_angle_beta 90.000000
_cell_angle_gamma 90.000000
_cell_volume 6131.590511
_symmetry_space_group_name_H-M "I B C A "
_symmetry_group_IT_number 73
_symmetry_cell_setting 'orthorhombic'
loop_
_space_group_symop_operation_xyz
x,y,z
-x,1/2-y,z
x,-y,1/2-z
1/2-x,y,-z
-x,-y,-z
x,1/2+y,-z
-x,y,1/2+z
1/2+x,-y,z
1/2+x,1/2+y,1/2+z
1/2-x,-y,1/2+z
1/2+x,1/2-y,-z
-x,1/2+y,1/2-z
1/2-x,1/2-y,1/2-z
1/2+x,y,1/2-z
1/2-x,1/2+y,z
x,1/2-y,1/2+z
loop_
_atom_site_type_symbol
_atom_site_label
_atom_site_fract_x
_atom_site_fract_y
_atom_site_fract_z
Si Si1 0.856463 0.066724 0.349118
Si Si2 0.135178 0.403018 0.142795
Si Si3 0.493897 0.871575 0.922015
Si Si4 0.299355 0.092260 0.941499
Si Si5 0.482698 0.664203 0.062208
Si Si6 0.838532 0.201167 0.252933
Si Si7 0.000000 0.750000 0.680307
Si Si8 0.200340 0.422435 0.942453
O O1 0.769263 0.081178 0.388084
O O2 0.846131 0.130018 0.298227
O O3 0.933925 0.069961 0.400021
O O4 0.870964 0.983398 0.325271
O O5 0.140995 0.335217 0.188749
O O6 0.227591 0.411946 0.108724
O O7 0.056650 0.384759 0.095930
O O8 0.505635 0.816031 0.866793
O O9 0.391897 0.889890 0.923963
O O10 0.513899 0.845083 0.989549
O O11 0.384925 0.136960 0.921994
O O12 0.322914 0.007639 0.958327
O O13 0.250000 0.125677 0.000000
O O14 0.500000 0.750000 0.076599
O O15 0.750000 0.250000 0.250000
O O16 0.915513 0.253605 0.277540
O O17 0.250000 0.388703 0.000000
#
# Coordination Sequence:
#
# PCOD9530665 Si02
#       8
#    16  16  16  16  16  16   8  16
#     4  10  23  42  69  91 129 176 218 272 331 400
#     4  11  24  42  64  98 128 168 227 273 329 391
#     4  11  20  40  60  94 131 171 212 256 335 395
#     4  10  21  38  61  93 128 163 209 262 327 387
#     4  12  25  38  61  98 138 170 211 271 329 400
#     4  11  25  44  67  90 128 175 223 276 329 386
#     4  10  24  42  62  88 130 174 218 260 324 402
#     4  10  20  36  62  93 125 165 209 267 325 388
#
# _framework density 19.570779999999999
#
# number of rings (size 3 to 8) (size 9 to 14) (size 15 to 20)
#    0.000    1.333    3.333    2.000    2.800    1.067 
#    2.400    0.000    0.000    4.800    0.000    0.000 
#    0.000    0.000    0.000    0.000    0.000    0.000 
#
# Total GULP energy -334185.267764 kJ/mol
# GULP energy per Si atom -5569.754463 kJ/mol
# Density = 1.952624 g / cm^3
# Si number density = 19.570780 Si / 1000 Ang^3
#
#
#
# Elastic Constant Matrix: (Units=GPa)
#
#
# Indices 1 2 3 4 5 6 
#
# 1 106.2341 -6.4533 38.5219 0.0000 0.0000 0.0000
# 2 -6.4533 30.7847 27.3550 0.0000 0.0000 0.0000
# 3 38.5219 27.3550 83.7222 0.0000 0.0000 0.0000
# 4 0.0000 0.0000 0.0000 7.6950 0.0000 0.0000
# 5 0.0000 0.0000 0.0000 0.0000 26.8680 0.0000
# 6 0.0000 0.0000 0.0000 0.0000 0.0000 50.4559
#
#
#
# Elastic Compliance Matrix: (Units=1/GPa)
#
#
# Indices 1 2 3 4 5 6 
#
# 1 0.013905 0.012118 -0.010357 0.000000 0.000000 0.000000
# 2 0.012118 0.056334 -0.023982 0.000000 0.000000 0.000000
# 3 -0.010357 -0.023982 0.024546 0.000000 0.000000 0.000000
# 4 0.000000 0.000000 0.000000 0.129955 0.000000 0.000000
# 5 0.000000 0.000000 0.000000 0.000000 0.037219 0.000000
# 6 0.000000 0.000000 0.000000 0.000000 0.000000 0.019819
#
#
# Mechanical properties :
#
#
# Convention : Reuss Voigt Hill
#
# Bulk Modulus (GPa) = 19.86396 37.73201 28.79799
# Shear Modulus (GPa) = 14.57720 27.75828 21.16774
#
# Velocity S-wave (km/s) = 2.73215 3.77019 3.29234
# Velocity P-wave (km/s) = 4.48605 6.18660 5.40364
#
# Compressibility (1/GPa) = 0.05034243
#
# Stress axis : x y z
#
# Youngs Moduli (GPa) = 71.91636 17.75121 40.74041
#
# Poissons Ratio (x) = -0.21511 0.42196
# Poissons Ratio (y) = -0.87151 0.97704
# Poissons Ratio (z) = 0.74487 0.42571
#
# Static dielectric constant tensor:
#      x y z
#    x 1.710220 0.000000 0.000000 
#    y 0.000000 1.748260 0.000000 
#    z 0.000000 0.000000 1.716370 
# 
# From -- ./inp_files/29088.got.cif
#   From: 2010.05.17/outbox.cif.g08.bks.cpg/sg73_15_cif.got.tgz:29088.got - 2010.06.03 17:35:07.
