data_PCOD9530234
_publ_section_title
;
Structure prediction by ZEFSAII (Michael W. Deem and Ramdas Pophale) SiO2 
 PCOD9530234
Probable space group: I B C A 
;
_chemical_formula_sum "Si O2"
_cell_formula_units_Z 72
_cell_length_a 18.705321
_cell_length_b 10.256097
_cell_length_c 17.269611
_cell_angle_alpha 90.000000
_cell_angle_beta 90.000000
_cell_angle_gamma 90.000000
_cell_volume 3313.064113
_symmetry_space_group_name_H-M "I B C A "
_symmetry_group_IT_number 73
_symmetry_cell_setting 'orthorhombic'
loop_
_space_group_symop_operation_xyz
x,y,z
-x,1/2-y,z
x,-y,1/2-z
1/2-x,y,-z
-x,-y,-z
x,1/2+y,-z
-x,y,1/2+z
1/2+x,-y,z
1/2+x,1/2+y,1/2+z
1/2-x,-y,1/2+z
1/2+x,1/2-y,-z
-x,1/2+y,1/2-z
1/2-x,1/2-y,1/2-z
1/2+x,y,1/2-z
1/2-x,1/2+y,z
x,1/2-y,1/2+z
loop_
_atom_site_type_symbol
_atom_site_label
_atom_site_fract_x
_atom_site_fract_y
_atom_site_fract_z
Si Si1 0.487586 0.601698 0.681552
Si Si2 0.126052 0.446948 0.609805
Si Si3 0.338119 0.183157 0.301258
Si Si4 0.750000 0.364327 0.000000
Si Si5 0.812686 0.708904 0.143178
O O1 0.500000 0.750000 0.710516
O O2 0.503551 0.500000 0.750000
O O3 0.541135 0.583280 0.609111
O O4 0.403166 0.600875 0.664591
O O5 0.153231 0.332826 0.668184
O O6 0.183957 0.439347 0.540588
O O7 0.130604 0.594942 0.636920
O O8 0.337472 0.190203 0.208714
O O9 0.260252 0.139757 0.327360
O O10 0.789702 0.277211 0.935683
#
# Coordination Sequence:
#
# PCOD9530234 Si02
#       5
#    16  16  16   8  16
#     4  10  20  36  60  89 121 153 193 250 311 359
#     4  10  19  36  59  81 116 158 198 250 307 359
#     4   9  20  34  60  90 113 150 206 257 304 357
#     4  10  22  34  56  88 120 160 206 244 298 374
#     4  10  19  36  59  87 119 156 202 253 301 359
#
# _framework density 21.732149
#
# number of rings (size 3 to 8) (size 9 to 14) (size 15 to 20)
#    0.000    2.222    0.000    4.000    0.000    5.333 
#    0.000    2.222    0.000   73.333    0.000    0.000 
#    0.000    0.000    0.000    0.000    0.000    0.000 
#
# Total GULP energy -200673.801447 kJ/mol
# GULP energy per Si atom -5574.272262 kJ/mol
# Density = 2.168269 g / cm^3
# Si number density = 21.732149 Si / 1000 Ang^3
#
#
#
# Elastic Constant Matrix: (Units=GPa)
#
#
# Indices 1 2 3 4 5 6 
#
# 1 141.5286 13.2785 21.5908 0.0000 0.0000 0.0000
# 2 13.2785 39.1749 -2.0203 0.0000 0.0000 0.0000
# 3 21.5908 -2.0203 64.1560 0.0000 0.0000 0.0000
# 4 0.0000 0.0000 0.0000 8.6624 0.0000 0.0000
# 5 0.0000 0.0000 0.0000 0.0000 25.7592 0.0000
# 6 0.0000 0.0000 0.0000 0.0000 0.0000 23.9952
#
#
#
# Elastic Compliance Matrix: (Units=1/GPa)
#
#
# Indices 1 2 3 4 5 6 
#
# 1 0.007735 -0.002761 -0.002690 0.000000 0.000000 0.000000
# 2 -0.002761 0.026553 0.001765 0.000000 0.000000 0.000000
# 3 -0.002690 0.001765 0.016548 0.000000 0.000000 0.000000
# 4 0.000000 0.000000 0.000000 0.115441 0.000000 0.000000
# 5 0.000000 0.000000 0.000000 0.000000 0.038821 0.000000
# 6 0.000000 0.000000 0.000000 0.000000 0.000000 0.041675
#
#
# Mechanical properties :
#
#
# Convention : Reuss Voigt Hill
#
# Bulk Modulus (GPa) = 23.00682 34.50641 28.75662
# Shear Modulus (GPa) = 18.61278 25.81740 22.21509
#
# Velocity S-wave (km/s) = 2.92971 3.45045 3.20069
# Velocity P-wave (km/s) = 4.69615 5.63797 5.18847
#
# Compressibility (1/GPa) = 0.04346537
#
# Stress axis : x y z
#
# Youngs Moduli (GPa) = 129.28092 37.66013 60.43062
#
# Poissons Ratio (x) = 0.10396 0.16256
# Poissons Ratio (y) = 0.35689 -0.10667
# Poissons Ratio (z) = 0.34777 -0.06648
#
# Static dielectric constant tensor:
#      x y z
#    x 1.848180 0.000000 0.000000 
#    y 0.000000 1.794850 0.000000 
#    z 0.000000 0.000000 1.805470 
# 
# From -- ./inp_files/18459.got.cif
#   From: 2010.05.17/outbox.cif.g08.bks.cpg/sg73_10_cif.got.tgz:18459.got - 2010.06.03 17:35:07.
