data_PCOD9530915
_publ_section_title
;
Structure prediction by ZEFSAII (Michael W. Deem and Ramdas Pophale) SiO2 
 PCOD9530915
Probable space group: I B C A 
;
_chemical_formula_sum "Si O2"
_cell_formula_units_Z 96
_cell_length_a 14.644409
_cell_length_b 28.871636
_cell_length_c 9.428303
_cell_angle_alpha 90.000000
_cell_angle_beta 90.000000
_cell_angle_gamma 90.000000
_cell_volume 3986.362369
_symmetry_space_group_name_H-M "I B C A "
_symmetry_group_IT_number 73
_symmetry_cell_setting 'orthorhombic'
loop_
_space_group_symop_operation_xyz
x,y,z
-x,1/2-y,z
x,-y,1/2-z
1/2-x,y,-z
-x,-y,-z
x,1/2+y,-z
-x,y,1/2+z
1/2+x,-y,z
1/2+x,1/2+y,1/2+z
1/2-x,-y,1/2+z
1/2+x,1/2-y,-z
-x,1/2+y,1/2-z
1/2-x,1/2-y,1/2-z
1/2+x,y,1/2-z
1/2-x,1/2+y,z
x,1/2-y,1/2+z
loop_
_atom_site_type_symbol
_atom_site_label
_atom_site_fract_x
_atom_site_fract_y
_atom_site_fract_z
Si Si1 0.157160 0.067526 0.916878
Si Si2 0.629415 0.331571 0.734920
Si Si3 0.442125 0.000000 0.250000
Si Si4 0.005393 0.401608 0.630517
Si Si5 0.500000 0.750000 0.380405
Si Si6 0.323032 0.856914 0.184466
Si Si7 0.662353 0.798466 0.963905
O O1 0.181975 0.095903 0.776134
O O2 0.120566 0.017301 0.877865
O O3 0.250000 0.065086 0.000000
O O4 0.074246 0.092262 0.999373
O O5 0.557149 0.372483 0.748393
O O6 0.572979 0.284891 0.695801
O O7 0.719334 0.343095 0.642010
O O8 0.672668 0.330267 0.896297
O O9 0.490915 0.953490 0.193512
O O10 0.914150 0.370912 0.595787
O O11 0.436196 0.778465 0.484092
O O12 0.345946 0.817748 0.303983
O O13 0.750000 0.766090 0.000000
#
# Coordination Sequence:
#
# PCOD9530915 Si02
#       7
#    16  16   8  16   8  16  16
#     4  11  20  41  68  96 133 179 225 270 343 415
#     4  11  22  41  68  92 129 181 221 274 343 411
#     4  10  26  38  66 104 132 172 226 284 346 410
#     4  11  21  41  68  94 133 173 221 277 340 412
#     4  12  24  40  62 100 130 172 226 284 334 404
#     4  10  20  39  65  93 123 175 221 267 333 402
#     4  10  21  39  60  89 125 171 220 266 335 401
#
# _framework density 24.082106
#
# number of rings (size 3 to 8) (size 9 to 14) (size 15 to 20)
#    0.000    1.333    5.000    1.500    0.000    3.333 
#    3.000    0.000    0.000    0.000    0.000    0.000 
#    0.000    0.000    0.000    0.000    0.000    0.000 
#
# Total GULP energy -267223.390950 kJ/mol
# GULP energy per Si atom -5567.153978 kJ/mol
# Density = 2.402729 g / cm^3
# Si number density = 24.082106 Si / 1000 Ang^3
#
#
#
# Elastic Constant Matrix: (Units=GPa)
#
#
# Indices 1 2 3 4 5 6 
#
# 1 186.8986 43.9209 39.7569 0.0026 0.0002 0.0000
# 2 43.9209 90.2466 4.9644 0.0022 0.0008 -0.0001
# 3 39.7569 4.9644 54.7245 -0.0076 0.0036 0.0010
# 4 0.0026 0.0022 -0.0076 64.1165 0.0006 -0.0024
# 5 0.0002 0.0008 0.0036 0.0006 22.1828 -0.0009
# 6 0.0000 -0.0001 0.0010 -0.0024 -0.0009 -4.9732
#
#
#
# Elastic Compliance Matrix: (Units=1/GPa)
#
#
# Indices 1 2 3 4 5 6 
#
# 1 0.007147 -0.003209 -0.004901 -0.000001 0.000001 -0.000001
# 2 -0.003209 0.012577 0.001190 0.000000 -0.000001 0.000000
# 3 -0.004901 0.001190 0.021726 0.000003 -0.000004 0.000004
# 4 -0.000001 0.000000 0.000003 0.015597 0.000000 -0.000008
# 5 0.000001 -0.000001 -0.000004 0.000000 0.045080 -0.000008
# 6 -0.000001 0.000000 0.000004 -0.000008 -0.000008 -0.201078
#
#
# Mechanical properties :
#
#
# Convention : Reuss Voigt Hill
#
# Bulk Modulus (GPa) = 36.21807 56.57268 46.39538
# Shear Modulus (GPa) = -65.86942 32.48039 -16.69452
#
# Velocity S-wave (km/s) = -5.23559 3.67650 -2.63579
# Velocity P-wave (km/s) = 4.63427 6.44707 3.16925
#
# Compressibility (1/GPa) = 0.02761053
#
# Stress axis : x y z
#
# Youngs Moduli (GPa) = 139.91632 79.51094 46.02759
#
# Poissons Ratio (x) = 0.25513 0.22559
# Poissons Ratio (y) = 0.44895 -0.05478
# Poissons Ratio (z) = 0.68576 -0.09463
#
# Static dielectric constant tensor:
#      x y z
#    x 2.048120 0.000000 0.000000 
#    y 0.000000 1.987690 0.000000 
#    z 0.000000 0.000000 1.988870 
# 
# From -- ./inp_files/11203.got.cif
#   From: 2010.05.17/outbox.cif.g08.bks.cpg/sg73_6_cif.got.tgz:11203.got - 2010.06.03 17:35:07.
