data_PCOD9530550
_publ_section_title
;
Structure prediction by ZEFSAII (Michael W. Deem and Ramdas Pophale) SiO2 
 PCOD9530550
Probable space group: I B C A 
;
_chemical_formula_sum "Si O2"
_cell_formula_units_Z 88
_cell_length_a 28.695121
_cell_length_b 13.411823
_cell_length_c 9.521937
_cell_angle_alpha 90.000000
_cell_angle_beta 90.000000
_cell_angle_gamma 90.000000
_cell_volume 3664.554436
_symmetry_space_group_name_H-M "I B C A "
_symmetry_group_IT_number 73
_symmetry_cell_setting 'orthorhombic'
loop_
_space_group_symop_operation_xyz
x,y,z
-x,1/2-y,z
x,-y,1/2-z
1/2-x,y,-z
-x,-y,-z
x,1/2+y,-z
-x,y,1/2+z
1/2+x,-y,z
1/2+x,1/2+y,1/2+z
1/2-x,-y,1/2+z
1/2+x,1/2-y,-z
-x,1/2+y,1/2-z
1/2-x,1/2-y,1/2-z
1/2+x,y,1/2-z
1/2-x,1/2+y,z
x,1/2-y,1/2+z
loop_
_atom_site_type_symbol
_atom_site_label
_atom_site_fract_x
_atom_site_fract_y
_atom_site_fract_z
Si Si1 0.687132 0.000000 0.250000
Si Si2 0.448589 0.869979 0.652283
Si Si3 0.612558 0.368460 0.593989
Si Si4 0.612559 0.368460 0.093990
Si Si5 0.750000 0.000000 0.500000
Si Si6 0.051411 0.630021 0.347717
Si Si7 0.187132 0.000000 0.750000
O O1 0.655749 0.920999 0.332862
O O2 0.716627 0.049898 0.380127
O O3 0.433391 0.887219 0.811366
O O4 0.404498 0.901599 0.559013
O O5 0.450865 0.750000 0.632229
O O6 0.500000 0.909255 0.620713
O O7 0.621431 0.250000 0.592607
O O8 0.595502 0.401599 0.440987
O O9 0.566609 0.387219 0.188634
O O10 0.655749 0.420999 0.167138
O O11 0.783373 0.950102 0.380127
#
# Coordination Sequence:
#
# PCOD9530550 Si02
#       7
#     8  16  16  16   8  16   8
#     4  11  22  42  59  80 106 136 175 226 278 331
#     4   9  17  31  52  80 115 151 182 214 253 300
#     4  10  20  35  57  81 109 145 181 217 260 312
#     4  10  20  35  57  81 109 145 181 217 260 312
#     4  10  24  42  62  78 106 136 168 226 294 334
#     4   9  17  31  52  80 115 151 182 214 253 300
#     4  11  22  42  59  80 106 136 175 226 278 331
#
# _framework density 24.013833000000002
#
# number of rings (size 3 to 8) (size 9 to 14) (size 15 to 20)
#    0.000    2.182    0.000    3.273    0.000    4.364 
#    0.000   10.909    0.000    0.000    0.000    0.000 
#    0.000    0.000    0.000    0.000    0.000    0.000 
#
# Total GULP energy -245523.965110 kJ/mol
# GULP energy per Si atom -5580.090116 kJ/mol
# Density = 2.395918 g / cm^3
# Si number density = 24.013833 Si / 1000 Ang^3
#
#
#
# Elastic Constant Matrix: (Units=GPa)
#
#
# Indices 1 2 3 4 5 6 
#
# 1 102.3163 17.1268 41.8243 0.0000 0.0000 0.0000
# 2 17.1268 69.9044 11.4784 0.0000 0.0000 0.0000
# 3 41.8243 11.4784 139.1616 0.0000 0.0000 0.0000
# 4 0.0000 0.0000 0.0000 29.4010 0.0000 0.0000
# 5 0.0000 0.0000 0.0000 0.0000 -1.7275 0.0000
# 6 0.0000 0.0000 0.0000 0.0000 0.0000 -1.0235
#
#
#
# Elastic Compliance Matrix: (Units=1/GPa)
#
#
# Indices 1 2 3 4 5 6 
#
# 1 0.011490 -0.002279 -0.003265 0.000000 0.000000 0.000000
# 2 -0.002279 0.014954 -0.000548 0.000000 0.000000 0.000000
# 3 -0.003265 -0.000548 0.008212 0.000000 0.000000 0.000000
# 4 0.000000 0.000000 0.000000 0.034012 0.000000 0.000000
# 5 0.000000 0.000000 0.000000 0.000000 -0.578877 0.000000
# 6 0.000000 0.000000 0.000000 0.000000 0.000000 -0.977080
#
#
# Mechanical properties :
#
#
# Convention : Reuss Voigt Hill
#
# Bulk Modulus (GPa) = 44.50242 50.24903 47.37573
# Shear Modulus (GPa) = -3.40689 21.39354 8.99332
#
# Velocity S-wave (km/s) = -1.19239 2.98801 1.93731
# Velocity P-wave (km/s) = 4.08369 5.73365 4.97751
#
# Compressibility (1/GPa) = 0.02247069
#
# Stress axis : x y z
#
# Youngs Moduli (GPa) = 87.03350 66.87332 121.76583
#
# Poissons Ratio (x) = 0.15240 0.39759
# Poissons Ratio (y) = 0.19834 0.06679
# Poissons Ratio (z) = 0.28419 0.03668
#
# Static dielectric constant tensor:
#      x y z
#    x 1.983650 0.000000 0.000000 
#    y 0.000000 1.961360 0.000000 
#    z 0.000000 0.000000 1.892440 
# 
# From -- ./inp_files/8415.got.cif
#   From: 2010.05.17/outbox.cif.g08.bks.cpg/sg73_5_cif.got.tgz:8415.got - 2010.06.03 17:35:07.
