data_PCOD9530243
_publ_section_title
;
Structure prediction by ZEFSAII (Michael W. Deem and Ramdas Pophale) SiO2 
 PCOD9530243
Probable space group: I B C A 
;
_chemical_formula_sum "Si O2"
_cell_formula_units_Z 120
_cell_length_a 17.872096
_cell_length_b 14.658257
_cell_length_c 20.872547
_cell_angle_alpha 90.000000
_cell_angle_beta 90.000000
_cell_angle_gamma 90.000000
_cell_volume 5468.059959
_symmetry_space_group_name_H-M "I B C A "
_symmetry_group_IT_number 73
_symmetry_cell_setting 'orthorhombic'
loop_
_space_group_symop_operation_xyz
x,y,z
-x,1/2-y,z
x,-y,1/2-z
1/2-x,y,-z
-x,-y,-z
x,1/2+y,-z
-x,y,1/2+z
1/2+x,-y,z
1/2+x,1/2+y,1/2+z
1/2-x,-y,1/2+z
1/2+x,1/2-y,-z
-x,1/2+y,1/2-z
1/2-x,1/2-y,1/2-z
1/2+x,y,1/2-z
1/2-x,1/2+y,z
x,1/2-y,1/2+z
loop_
_atom_site_type_symbol
_atom_site_label
_atom_site_fract_x
_atom_site_fract_y
_atom_site_fract_z
Si Si1 0.592459 0.000000 0.250000
Si Si2 0.671667 0.176431 0.467981
Si Si3 0.207442 0.882672 0.337969
Si Si4 0.516337 0.856795 0.709812
Si Si5 0.747540 0.939141 0.399076
Si Si6 0.513459 0.139342 0.438910
Si Si7 0.364657 0.120881 0.505615
Si Si8 0.689757 0.392653 0.269052
O O1 0.647723 0.947911 0.199538
O O2 0.533510 0.916472 0.259157
O O3 0.750000 0.146393 0.500000
O O4 0.678402 0.188798 0.390366
O O5 0.595370 0.117538 0.467704
O O6 0.651516 0.270819 0.502651
O O7 0.264238 0.843163 0.286526
O O8 0.250480 0.955272 0.381760
O O9 0.500000 0.750000 0.714848
O O10 0.497534 0.887305 0.636001
O O11 0.603982 0.868038 0.722474
O O12 0.666638 0.915963 0.427782
O O13 0.809894 0.918108 0.451277
O O14 0.766212 0.884650 0.335208
O O15 0.500000 0.250000 0.438688
O O16 0.448547 0.101863 0.484379
O O17 0.691767 0.500000 0.250000
#
# Coordination Sequence:
#
# PCOD9530243 Si02
#       8
#     8  16  16  16  16  16  16  16
#     4  12  22  42  66  96 136 178 228 288 326 412
#     4  11  22  40  63  90 128 170 218 272 333 403
#     4  11  24  41  63  94 128 177 223 275 340 402
#     4  11  22  38  65 100 137 180 228 278 342 406
#     4  10  19  36  62  89 123 166 217 269 328 397
#     4   9  19  35  62  92 125 167 217 263 326 406
#     4  10  20  37  63  93 123 169 215 270 334 394
#     4  10  20  40  65  91 131 178 224 273 335 402
#
# _framework density 21.945626000000001
#
# number of rings (size 3 to 8) (size 9 to 14) (size 15 to 20)
#    0.000    1.600    6.667    0.000    1.867    0.000 
#    2.400    3.333    0.000    1.600    0.000    0.000 
#    0.000    0.000    0.000    0.000    0.000    0.000 
#
# Total GULP energy -334638.375867 kJ/mol
# GULP energy per Si atom -5577.306264 kJ/mol
# Density = 2.189568 g / cm^3
# Si number density = 21.945626 Si / 1000 Ang^3
#
#
#
# Elastic Constant Matrix: (Units=GPa)
#
#
# Indices 1 2 3 4 5 6 
#
# 1 179.9289 17.7806 62.4928 0.0000 0.0000 0.0000
# 2 17.7806 52.9229 19.3988 0.0000 0.0000 0.0000
# 3 62.4928 19.3988 93.3301 0.0000 0.0000 0.0000
# 4 0.0000 0.0000 0.0000 28.3674 0.0000 0.0000
# 5 0.0000 0.0000 0.0000 0.0000 20.1165 0.0000
# 6 0.0000 0.0000 0.0000 0.0000 0.0000 14.3208
#
#
#
# Elastic Compliance Matrix: (Units=1/GPa)
#
#
# Indices 1 2 3 4 5 6 
#
# 1 0.007267 -0.000712 -0.004718 0.000000 0.000000 0.000000
# 2 -0.000712 0.020524 -0.003789 0.000000 0.000000 0.000000
# 3 -0.004718 -0.003789 0.014661 0.000000 0.000000 0.000000
# 4 0.000000 0.000000 0.000000 0.035252 0.000000 0.000000
# 5 0.000000 0.000000 0.000000 0.000000 0.049710 0.000000
# 6 0.000000 0.000000 0.000000 0.000000 0.000000 0.069828
#
#
# Mechanical properties :
#
#
# Convention : Reuss Voigt Hill
#
# Bulk Modulus (GPa) = 41.64289 58.39179 50.01734
# Shear Modulus (GPa) = 22.35297 27.66159 25.00728
#
# Velocity S-wave (km/s) = 3.19495 3.55415 3.37933
# Velocity P-wave (km/s) = 5.71200 6.59605 6.16988
#
# Compressibility (1/GPa) = 0.02401370
#
# Stress axis : x y z
#
# Youngs Moduli (GPa) = 137.61478 48.72455 68.20770
#
# Poissons Ratio (x) = 0.03470 0.32178
# Poissons Ratio (y) = 0.09800 0.25844
# Poissons Ratio (z) = 0.64922 0.18462
#
# Static dielectric constant tensor:
#      x y z
#    x 1.848540 0.000000 0.000000 
#    y 0.000000 1.863830 0.000000 
#    z 0.000000 0.000000 1.839900 
# 
# From -- ./inp_files/26680.got.cif
#   From: 2010.05.17/outbox.cif.g08.bks.cpg/sg73_14_cif.got.tgz:26680.got - 2010.06.03 17:35:07.
