data_PCOD9530484
_publ_section_title
;
Structure prediction by ZEFSAII (Michael W. Deem and Ramdas Pophale) SiO2 
 PCOD9530484
Probable space group: I B C A 
;
_chemical_formula_sum "Si O2"
_cell_formula_units_Z 120
_cell_length_a 28.612008
_cell_length_b 8.858765
_cell_length_c 24.605321
_cell_angle_alpha 90.000000
_cell_angle_beta 90.000000
_cell_angle_gamma 90.000000
_cell_volume 6236.638252
_symmetry_space_group_name_H-M "I B C A "
_symmetry_group_IT_number 73
_symmetry_cell_setting 'orthorhombic'
loop_
_space_group_symop_operation_xyz
x,y,z
-x,1/2-y,z
x,-y,1/2-z
1/2-x,y,-z
-x,-y,-z
x,1/2+y,-z
-x,y,1/2+z
1/2+x,-y,z
1/2+x,1/2+y,1/2+z
1/2-x,-y,1/2+z
1/2+x,1/2-y,-z
-x,1/2+y,1/2-z
1/2-x,1/2-y,1/2-z
1/2+x,y,1/2-z
1/2-x,1/2+y,z
x,1/2-y,1/2+z
loop_
_atom_site_type_symbol
_atom_site_label
_atom_site_fract_x
_atom_site_fract_y
_atom_site_fract_z
Si Si1 0.830902 0.542740 0.573178
Si Si2 0.597966 0.035891 0.315396
Si Si3 0.607303 0.392372 0.340973
Si Si4 0.692413 0.476199 0.631383
Si Si5 0.800063 0.682439 0.016881
Si Si6 0.735801 0.315846 0.166791
Si Si7 0.504835 0.068174 0.809560
Si Si8 0.319618 0.000000 0.250000
O O1 0.873222 0.464329 0.603959
O O2 0.810853 0.412336 0.535972
O O3 0.836331 0.687427 0.533850
O O4 0.795040 0.607914 0.618303
O O5 0.603822 0.212143 0.331690
O O6 0.639666 0.953002 0.347558
O O7 0.544174 0.001656 0.331869
O O8 0.602438 0.000000 0.250000
O O9 0.555166 0.458998 0.335383
O O10 0.644857 0.441923 0.295774
O O11 0.699446 0.432525 0.568467
O O12 0.711762 0.637555 0.651068
O O13 0.726453 0.360499 0.662602
O O14 0.750000 0.754298 0.000000
O O15 0.713980 0.376712 0.222380
O O16 0.500000 0.250000 0.806750
O O17 0.508314 0.000000 0.750000
#
# Coordination Sequence:
#
# PCOD9530484 Si02
#       8
#    16  16  16  16  16  16  16   8
#     4  10  23  36  59  85 114 153 203 244 311 340
#     4  10  22  37  61  91 125 160 199 242 304 369
#     4  10  20  37  61  88 120 159 201 250 305 367
#     4  11  24  37  55  83 119 152 200 241 295 352
#     4  11  22  39  59  82 119 156 204 262 294 359
#     4  10  23  36  52  83 115 158 190 228 294 355
#     4   9  18  37  61  91 118 160 197 247 300 363
#     4  10  20  34  54  78 124 156 186 232 288 366
#
# _framework density 19.241135
#
# number of rings (size 3 to 8) (size 9 to 14) (size 15 to 20)
#    0.000    1.867    2.000    1.200    8.400    0.533 
#    2.400    0.000    0.000    0.800    0.000    0.000 
#    0.000    0.000    0.000    0.000    0.000    0.000 
#
# Total GULP energy -334467.105228 kJ/mol
# GULP energy per Si atom -5574.451754 kJ/mol
# Density = 1.919734 g / cm^3
# Si number density = 19.241135 Si / 1000 Ang^3
#
#
#
# Elastic Constant Matrix: (Units=GPa)
#
#
# Indices 1 2 3 4 5 6 
#
# 1 107.5850 22.2887 37.2328 0.0000 0.0000 0.0000
# 2 22.2887 45.3444 11.5619 0.0000 0.0000 0.0000
# 3 37.2328 11.5619 55.8718 0.0000 0.0000 0.0000
# 4 0.0000 0.0000 0.0000 24.1231 0.0000 0.0000
# 5 0.0000 0.0000 0.0000 0.0000 8.5722 0.0000
# 6 0.0000 0.0000 0.0000 0.0000 0.0000 -131.7299
#
#
#
# Elastic Compliance Matrix: (Units=1/GPa)
#
#
# Indices 1 2 3 4 5 6 
#
# 1 0.012850 -0.004363 -0.007660 0.000000 0.000000 0.000000
# 2 -0.004363 0.024763 -0.002217 0.000000 0.000000 0.000000
# 3 -0.007660 -0.002217 0.023462 0.000000 0.000000 0.000000
# 4 0.000000 0.000000 0.000000 0.041454 0.000000 0.000000
# 5 0.000000 0.000000 0.000000 0.000000 0.116657 0.000000
# 6 0.000000 0.000000 0.000000 0.000000 0.000000 -0.007591
#
#
# Mechanical properties :
#
#
# Convention : Reuss Voigt Hill
#
# Bulk Modulus (GPa) = 30.68010 38.99647 34.83828
# Shear Modulus (GPa) = 19.92509 -10.62574 4.64968
#
# Velocity S-wave (km/s) = 3.22148 -2.35253 1.55621
# Velocity P-wave (km/s) = 5.46049 3.59611 4.62326
#
# Compressibility (1/GPa) = 0.03259442
#
# Stress axis : x y z
#
# Youngs Moduli (GPa) = 77.82136 40.38226 42.62275
#
# Poissons Ratio (x) = 0.17619 0.32650
# Poissons Ratio (y) = 0.33954 0.09449
# Poissons Ratio (z) = 0.59613 0.08952
#
# Static dielectric constant tensor:
#      x y z
#    x 1.699030 0.000000 0.000000 
#    y 0.000000 1.729760 0.000000 
#    z 0.000000 0.000000 1.679750 
# 
# From -- ./inp_files/30526.got.cif
#   From: 2010.05.17/outbox.cif.g08.bks.cpg/sg73_16_cif.got.tgz:30526.got - 2010.06.03 17:35:07.
