data_PCOD9530766
_publ_section_title
;
Structure prediction by ZEFSAII (Michael W. Deem and Ramdas Pophale) SiO2 
 PCOD9530766
Probable space group: I B C A 
;
_chemical_formula_sum "Si O2"
_cell_formula_units_Z 96
_cell_length_a 11.534395
_cell_length_b 17.154933
_cell_length_c 22.728075
_cell_angle_alpha 90.000000
_cell_angle_beta 90.000000
_cell_angle_gamma 90.000000
_cell_volume 4497.244507
_symmetry_space_group_name_H-M "I B C A "
_symmetry_group_IT_number 73
_symmetry_cell_setting 'orthorhombic'
loop_
_space_group_symop_operation_xyz
x,y,z
-x,1/2-y,z
x,-y,1/2-z
1/2-x,y,-z
-x,-y,-z
x,1/2+y,-z
-x,y,1/2+z
1/2+x,-y,z
1/2+x,1/2+y,1/2+z
1/2-x,-y,1/2+z
1/2+x,1/2-y,-z
-x,1/2+y,1/2-z
1/2-x,1/2-y,1/2-z
1/2+x,y,1/2-z
1/2-x,1/2+y,z
x,1/2-y,1/2+z
loop_
_atom_site_type_symbol
_atom_site_label
_atom_site_fract_x
_atom_site_fract_y
_atom_site_fract_z
Si Si1 0.269046 0.896936 0.649349
Si Si2 0.483257 0.331818 0.642229
Si Si3 0.808433 0.669100 0.229224
Si Si4 0.692891 0.074436 0.875056
Si Si5 0.042019 0.409873 0.561061
Si Si6 0.393940 0.081948 0.544485
O O1 0.150237 0.848892 0.651394
O O2 0.322901 0.884417 0.713416
O O3 0.354283 0.869649 0.596870
O O4 0.237325 0.987299 0.638965
O O5 0.500000 0.250000 0.609103
O O6 0.566134 0.323077 0.698699
O O7 0.534282 0.400955 0.603588
O O8 0.750000 0.750000 0.250000
O O9 0.727264 0.629119 0.179535
O O10 0.558016 0.073563 0.890832
O O11 0.764238 0.101104 0.933820
O O12 0.099150 0.488932 0.534377
O O13 0.967333 0.376388 0.506798
#
# Coordination Sequence:
#
# PCOD9530766 Si02
#       6
#    16  16  16  16  16  16
#     4  11  23  39  62  98 122 168 216 267 329 385
#     4  11  22  41  64  84 129 166 209 262 329 394
#     4  11  24  41  61  88 126 174 212 266 328 390
#     4  10  21  40  63  94 129 165 215 268 320 385
#     4  10  20  37  66  94 125 156 214 266 313 390
#     4   9  20  38  63  95 123 164 205 261 326 375
#
# _framework density 21.346406000000002
#
# number of rings (size 3 to 8) (size 9 to 14) (size 15 to 20)
#    0.000    1.667    3.333    1.000    2.333    0.667 
#    0.000    1.667    7.333    0.000    0.000    0.000 
#    0.000    0.000    0.000    0.000    0.000    0.000 
#
# Total GULP energy -267593.629068 kJ/mol
# GULP energy per Si atom -5574.867272 kJ/mol
# Density = 2.129782 g / cm^3
# Si number density = 21.346406 Si / 1000 Ang^3
#
#
#
# Elastic Constant Matrix: (Units=GPa)
#
#
# Indices 1 2 3 4 5 6 
#
# 1 141.2082 24.6465 46.4967 0.0000 0.0000 0.0000
# 2 24.6465 52.3132 31.5346 0.0000 0.0000 0.0000
# 3 46.4967 31.5346 99.4617 0.0000 0.0000 0.0000
# 4 0.0000 0.0000 0.0000 16.2712 0.0000 0.0000
# 5 0.0000 0.0000 0.0000 0.0000 18.7631 0.0000
# 6 0.0000 0.0000 0.0000 0.0000 0.0000 24.7822
#
#
#
# Elastic Compliance Matrix: (Units=1/GPa)
#
#
# Indices 1 2 3 4 5 6 
#
# 1 0.008536 -0.001998 -0.003357 0.000000 0.000000 0.000000
# 2 -0.001998 0.024100 -0.006707 0.000000 0.000000 0.000000
# 3 -0.003357 -0.006707 0.013750 0.000000 0.000000 0.000000
# 4 0.000000 0.000000 0.000000 0.061458 0.000000 0.000000
# 5 0.000000 0.000000 0.000000 0.000000 0.053296 0.000000
# 6 0.000000 0.000000 0.000000 0.000000 0.000000 0.040351
#
#
# Mechanical properties :
#
#
# Convention : Reuss Voigt Hill
#
# Bulk Modulus (GPa) = 44.91955 55.37096 50.14526
# Shear Modulus (GPa) = 21.45595 24.65033 23.05314
#
# Velocity S-wave (km/s) = 3.17382 3.40189 3.28983
# Velocity P-wave (km/s) = 5.87534 6.43630 6.16221
#
# Compressibility (1/GPa) = 0.02226202
#
# Stress axis : x y z
#
# Youngs Moduli (GPa) = 117.15339 41.49396 72.72798
#
# Poissons Ratio (x) = 0.08290 0.24414
# Poissons Ratio (y) = 0.23407 0.48778
# Poissons Ratio (z) = 0.39327 0.27830
#
# Static dielectric constant tensor:
#      x y z
#    x 1.833880 0.000000 0.000000 
#    y 0.000000 1.794880 0.000000 
#    z 0.000000 0.000000 1.827840 
# 
# From -- ./inp_files/13653.got.cif
#   From: 2010.05.17/outbox.cif.g08.bks.cpg/sg73_7_cif.got.tgz:13653.got - 2010.06.03 17:35:07.
