data_PCOD9530459
_publ_section_title
;
Structure prediction by ZEFSAII (Michael W. Deem and Ramdas Pophale) SiO2 
 PCOD9530459
Probable space group: I B C A 
;
_chemical_formula_sum "Si O2"
_cell_formula_units_Z 88
_cell_length_a 9.189731
_cell_length_b 21.195338
_cell_length_c 24.675191
_cell_angle_alpha 90.000000
_cell_angle_beta 90.000000
_cell_angle_gamma 90.000000
_cell_volume 4806.220247
_symmetry_space_group_name_H-M "I B C A "
_symmetry_group_IT_number 73
_symmetry_cell_setting 'orthorhombic'
loop_
_space_group_symop_operation_xyz
x,y,z
-x,1/2-y,z
x,-y,1/2-z
1/2-x,y,-z
-x,-y,-z
x,1/2+y,-z
-x,y,1/2+z
1/2+x,-y,z
1/2+x,1/2+y,1/2+z
1/2-x,-y,1/2+z
1/2+x,1/2-y,-z
-x,1/2+y,1/2-z
1/2-x,1/2-y,1/2-z
1/2+x,y,1/2-z
1/2-x,1/2+y,z
x,1/2-y,1/2+z
loop_
_atom_site_type_symbol
_atom_site_label
_atom_site_fract_x
_atom_site_fract_y
_atom_site_fract_z
Si Si1 0.102189 0.190509 0.614639
Si Si2 0.074407 0.816754 0.062723
Si Si3 0.973095 0.586934 0.963271
Si Si4 0.778170 0.178258 0.232181
Si Si5 0.486649 0.172362 0.178536
Si Si6 0.250000 0.488304 0.500000
O O1 0.261156 0.195822 0.585137
O O2 0.030307 0.128904 0.589763
O O3 0.121836 0.182909 0.678957
O O4 0.000000 0.250000 0.603184
O O5 0.990726 0.844126 0.115508
O O6 0.000000 0.750000 0.047590
O O7 0.063142 0.865831 0.013647
O O8 0.128433 0.554348 0.971606
O O9 0.846600 0.534394 0.962420
O O10 0.750000 0.250000 0.250000
O O11 0.629429 0.149343 0.210236
O O12 0.852052 0.150368 0.285517
O O13 0.500000 0.250000 0.178298
#
# Coordination Sequence:
#
# PCOD9530459 Si02
#       6
#    16  16  16  16  16   8
#     4  11  21  32  54  86 119 144 178 227 287 349
#     4  10  20  33  53  82 117 142 174 224 290 346
#     4  11  22  41  57  81 104 145 188 240 286 332
#     4   9  16  29  46  74 116 147 175 203 259 342
#     4   8  15  27  44  70 106 145 171 205 256 330
#     4  10  24  42  60  70 106 146 206 238 274 342
#
# _framework density 18.309605999999999
#
# number of rings (size 3 to 8) (size 9 to 14) (size 15 to 20)
#    0.000    2.182    1.818    3.273    2.545    0.000 
#    0.000    0.000    0.000    0.000    0.000    7.636 
#    0.000    0.000    0.000    0.000    0.000    0.000 
#
# Total GULP energy -245255.908984 kJ/mol
# GULP energy per Si atom -5573.997931 kJ/mol
# Density = 1.826793 g / cm^3
# Si number density = 18.309606 Si / 1000 Ang^3
#
#
#
# Elastic Constant Matrix: (Units=GPa)
#
#
# Indices 1 2 3 4 5 6 
#
# 1 69.0344 28.4946 19.5045 0.0000 0.0000 0.0000
# 2 28.4946 57.1712 28.5130 0.0000 0.0000 0.0000
# 3 19.5045 28.5130 109.0968 0.0000 0.0000 0.0000
# 4 0.0000 0.0000 0.0000 -0.6606 0.0000 0.0000
# 5 0.0000 0.0000 0.0000 0.0000 17.3120 0.0000
# 6 0.0000 0.0000 0.0000 0.0000 0.0000 19.0570
#
#
#
# Elastic Compliance Matrix: (Units=1/GPa)
#
#
# Indices 1 2 3 4 5 6 
#
# 1 0.018336 -0.008629 -0.001023 0.000000 0.000000 0.000000
# 2 -0.008629 0.024173 -0.004775 0.000000 0.000000 0.000000
# 3 -0.001023 -0.004775 0.010597 0.000000 0.000000 0.000000
# 4 0.000000 0.000000 0.000000 -1.513723 0.000000 0.000000
# 5 0.000000 0.000000 0.000000 0.000000 0.057763 0.000000
# 6 0.000000 0.000000 0.000000 0.000000 0.000000 0.052474
#
#
# Mechanical properties :
#
#
# Convention : Reuss Voigt Hill
#
# Bulk Modulus (GPa) = 41.23217 43.14739 42.18978
# Shear Modulus (GPa) = -3.80680 17.72770 6.96045
#
# Velocity S-wave (km/s) = -1.44348 3.11500 1.95187
# Velocity P-wave (km/s) = 4.44861 6.04601 5.30775
#
# Compressibility (1/GPa) = 0.02425291
#
# Stress axis : x y z
#
# Youngs Moduli (GPa) = 54.53713 41.36773 94.36555
#
# Poissons Ratio (x) = 0.35695 0.09654
# Poissons Ratio (y) = 0.47058 0.45061
# Poissons Ratio (z) = 0.05579 0.19754
#
# Static dielectric constant tensor:
#      x y z
#    x 1.722410 0.000000 0.000000 
#    y 0.000000 1.607660 0.000000 
#    z 0.000000 0.000000 1.651030 
# 
# From -- ./inp_files/28327.got.cif
#   From: 2010.05.17/outbox.cif.g08.bks.cpg/sg73_15_cif.got.tgz:28327.got - 2010.06.03 17:35:07.
