data_PCOD9530817
_publ_section_title
;
Structure prediction by ZEFSAII (Michael W. Deem and Ramdas Pophale) SiO2 
 PCOD9530817
Probable space group: I B C A 
;
_chemical_formula_sum "Si O2"
_cell_formula_units_Z 88
_cell_length_a 31.101872
_cell_length_b 12.376547
_cell_length_c 12.845268
_cell_angle_alpha 90.000000
_cell_angle_beta 90.000000
_cell_angle_gamma 90.000000
_cell_volume 4944.577574
_symmetry_space_group_name_H-M "I B C A "
_symmetry_group_IT_number 73
_symmetry_cell_setting 'orthorhombic'
loop_
_space_group_symop_operation_xyz
x,y,z
-x,1/2-y,z
x,-y,1/2-z
1/2-x,y,-z
-x,-y,-z
x,1/2+y,-z
-x,y,1/2+z
1/2+x,-y,z
1/2+x,1/2+y,1/2+z
1/2-x,-y,1/2+z
1/2+x,1/2-y,-z
-x,1/2+y,1/2-z
1/2-x,1/2-y,1/2-z
1/2+x,y,1/2-z
1/2-x,1/2+y,z
x,1/2-y,1/2+z
loop_
_atom_site_type_symbol
_atom_site_label
_atom_site_fract_x
_atom_site_fract_y
_atom_site_fract_z
Si Si1 0.458951 0.547992 0.363791
Si Si2 0.528690 0.341144 0.006164
Si Si3 0.674635 0.395407 0.390260
Si Si4 0.888883 0.798468 0.551137
Si Si5 0.250000 0.737466 0.500000
Si Si6 0.316007 0.147031 0.144638
O O1 0.462220 0.500000 0.250000
O O2 0.498791 0.625558 0.395641
O O3 0.462931 0.447724 0.441382
O O4 0.414126 0.609752 0.384197
O O5 0.500000 0.250000 0.948475
O O6 0.574005 0.287876 0.029145
O O7 0.631874 0.349151 0.446447
O O8 0.713698 0.339305 0.451380
O O9 0.681507 0.363584 0.269509
O O10 0.675074 0.525644 0.397131
O O11 0.851648 0.734422 0.610871
O O12 0.272145 0.810355 0.409685
#
# Coordination Sequence:
#
# PCOD9530817 Si02
#       6
#    16  16  16  16   8  16
#     4  10  21  37  57  84 111 150 202 239 292 349
#     4   9  20  38  55  79 113 151 189 241 288 340
#     4  10  21  37  58  85 118 151 194 239 294 360
#     4  10  21  37  57  83 118 150 191 243 294 349
#     4  10  20  38  62  82 118 150 196 244 290 352
#     4  10  21  37  58  88 114 156 192 238 302 349
#
# _framework density 17.797274000000002
#
# number of rings (size 3 to 8) (size 9 to 14) (size 15 to 20)
#    0.000    2.182    0.000    2.182    2.545    2.182 
#    9.818    0.000    8.000    0.000    0.000    0.000 
#    0.000    0.000    0.000    0.000    0.000    0.000 
#
# Total GULP energy -245178.368390 kJ/mol
# GULP energy per Si atom -5572.235645 kJ/mol
# Density = 1.775677 g / cm^3
# Si number density = 17.797274 Si / 1000 Ang^3
#
#
#
# Elastic Constant Matrix: (Units=GPa)
#
#
# Indices 1 2 3 4 5 6 
#
# 1 109.5639 49.0484 45.8712 0.0000 0.0000 0.0000
# 2 49.0484 124.6290 53.1177 0.0000 0.0000 0.0000
# 3 45.8712 53.1177 97.4939 0.0000 0.0000 0.0000
# 4 0.0000 0.0000 0.0000 -18.7277 0.0000 0.0000
# 5 0.0000 0.0000 0.0000 0.0000 28.2652 0.0000
# 6 0.0000 0.0000 0.0000 0.0000 0.0000 32.5339
#
#
#
# Elastic Compliance Matrix: (Units=1/GPa)
#
#
# Indices 1 2 3 4 5 6 
#
# 1 0.012205 -0.003068 -0.004071 0.000000 0.000000 0.000000
# 2 -0.003068 0.011222 -0.004670 0.000000 0.000000 0.000000
# 3 -0.004071 -0.004670 0.014717 0.000000 0.000000 0.000000
# 4 0.000000 0.000000 0.000000 -0.053397 0.000000 0.000000
# 5 0.000000 0.000000 0.000000 0.000000 0.035379 0.000000
# 6 0.000000 0.000000 0.000000 0.000000 0.000000 0.030737
#
#
# Mechanical properties :
#
#
# Convention : Reuss Voigt Hill
#
# Bulk Modulus (GPa) = 68.84746 69.75126 69.29936
# Shear Modulus (GPa) = 63.03269 20.65759 41.84514
#
# Velocity S-wave (km/s) = 5.95768 3.41063 4.85419
# Velocity P-wave (km/s) = 9.27866 7.40182 8.39287
#
# Compressibility (1/GPa) = 0.01452486
#
# Stress axis : x y z
#
# Youngs Moduli (GPa) = 81.93354 89.11128 67.94898
#
# Poissons Ratio (x) = 0.27343 0.27660
# Poissons Ratio (y) = 0.25140 0.31735
# Poissons Ratio (z) = 0.33353 0.41618
#
# Static dielectric constant tensor:
#      x y z
#    x 1.611930 0.000000 0.000000 
#    y 0.000000 1.615370 0.000000 
#    z 0.000000 0.000000 1.592650 
# 
# From -- ./inp_files/9848.got.cif
#   From: 2010.05.17/outbox.cif.g08.bks.cpg/sg73_5_cif.got.tgz:9848.got - 2010.06.03 17:35:07.
