data_PCOD9530066
_publ_section_title
;
Structure prediction by ZEFSAII (Michael W. Deem and Ramdas Pophale) SiO2 
 PCOD9530066
Probable space group: I B C A 
;
_chemical_formula_sum "Si O2"
_cell_formula_units_Z 72
_cell_length_a 5.342130
_cell_length_b 21.535901
_cell_length_c 32.032879
_cell_angle_alpha 90.000000
_cell_angle_beta 90.000000
_cell_angle_gamma 90.000000
_cell_volume 3685.305299
_symmetry_space_group_name_H-M "I B C A "
_symmetry_group_IT_number 73
_symmetry_cell_setting 'orthorhombic'
loop_
_space_group_symop_operation_xyz
x,y,z
-x,1/2-y,z
x,-y,1/2-z
1/2-x,y,-z
-x,-y,-z
x,1/2+y,-z
-x,y,1/2+z
1/2+x,-y,z
1/2+x,1/2+y,1/2+z
1/2-x,-y,1/2+z
1/2+x,1/2-y,-z
-x,1/2+y,1/2-z
1/2-x,1/2-y,1/2-z
1/2+x,y,1/2-z
1/2-x,1/2+y,z
x,1/2-y,1/2+z
loop_
_atom_site_type_symbol
_atom_site_label
_atom_site_fract_x
_atom_site_fract_y
_atom_site_fract_z
Si Si1 0.501409 0.069691 0.981869
Si Si2 0.000000 0.750000 0.971743
Si Si3 0.309670 0.320655 0.734249
Si Si4 0.487971 0.862285 0.094839
Si Si5 0.989067 0.822464 0.138968
O O1 0.515118 0.074783 0.932257
O O2 0.750000 0.100133 0.000000
O O3 0.250000 0.099250 0.000000
O O4 0.500000 0.000000 0.000000
O O5 0.023400 0.808641 0.940478
O O6 0.250000 0.745995 0.000000
O O7 0.250000 0.250000 0.750000
O O8 0.530730 0.348815 0.762839
O O9 0.424496 0.322262 0.688111
O O10 0.752842 0.854387 0.117209
O O11 0.251851 0.852713 0.125325
O O12 0.000000 0.750000 0.125954
#
# Coordination Sequence:
#
# PCOD9530066 Si02
#       5
#    16   8  16  16  16
#     4  10  21  40  62  78  98 140 190 239 294 341
#     4  12  22  32  46  66 100 140 176 214 264 332
#     4  10  19  30  50  69 100 151 206 212 246 324
#     4  12  23  35  51  76 110 141 186 239 282 323
#     4  12  21  34  49  76 111 152 189 225 273 320
#
# _framework density 19.537053
#
# number of rings (size 3 to 8) (size 9 to 14) (size 15 to 20)
#    0.000    0.889    4.444    5.333    3.111    0.000 
#    0.000    0.000    0.000    0.000    0.000    0.000 
#    0.000    0.000    0.000  280.000    0.000   15.556 
#
# Total GULP energy -200785.196398 kJ/mol
# GULP energy per Si atom -5577.366567 kJ/mol
# Density = 1.949259 g / cm^3
# Si number density = 19.537053 Si / 1000 Ang^3
#
#
#
# Elastic Constant Matrix: (Units=GPa)
#
#
# Indices 1 2 3 4 5 6 
#
# 1 201.1120 2.4692 46.1062 0.0000 0.0000 0.0000
# 2 2.4692 45.5077 22.1655 0.0000 0.0000 0.0000
# 3 46.1062 22.1655 107.0990 0.0000 0.0000 0.0000
# 4 0.0000 0.0000 0.0000 17.8762 0.0000 0.0000
# 5 0.0000 0.0000 0.0000 0.0000 50.2784 0.0000
# 6 0.0000 0.0000 0.0000 0.0000 0.0000 -10.7980
#
#
#
# Elastic Compliance Matrix: (Units=1/GPa)
#
#
# Indices 1 2 3 4 5 6 
#
# 1 0.005554 0.000960 -0.002590 0.000000 0.000000 0.000000
# 2 0.000960 0.024604 -0.005505 0.000000 0.000000 0.000000
# 3 -0.002590 -0.005505 0.011591 0.000000 0.000000 0.000000
# 4 0.000000 0.000000 0.000000 0.055940 0.000000 0.000000
# 5 0.000000 0.000000 0.000000 0.000000 0.019889 0.000000
# 6 0.000000 0.000000 0.000000 0.000000 0.000000 -0.092610
#
#
# Mechanical properties :
#
#
# Convention : Reuss Voigt Hill
#
# Bulk Modulus (GPa) = 36.39109 55.02227 45.70668
# Shear Modulus (GPa) = 103.30687 30.33651 66.82169
#
# Velocity S-wave (km/s) = 7.27957 3.94479 5.85464
# Velocity P-wave (km/s) = 9.45111 6.99805 8.31553
#
# Compressibility (1/GPa) = 0.02747925
#
# Stress axis : x y z
#
# Youngs Moduli (GPa) = 180.04068 40.64425 86.27019
#
# Poissons Ratio (x) = -0.03902 0.22342
# Poissons Ratio (y) = -0.17285 0.47495
# Poissons Ratio (z) = 0.46627 0.22376
#
# Static dielectric constant tensor:
#      x y z
#    x 1.779850 0.000000 0.000000 
#    y 0.000000 1.588870 0.000000 
#    z 0.000000 0.000000 1.726040 
# 
# From -- ./inp_files/2132.got.cif
#   From: 2010.05.17/outbox.cif.g08.bks.cpg/sg73_2_cif.got.tgz:2132.got - 2010.06.03 17:35:07.
