data_PCOD9530157
_publ_section_title
;
Structure prediction by ZEFSAII (Michael W. Deem and Ramdas Pophale) SiO2 
 PCOD9530157
Probable space group: I B C A 
;
_chemical_formula_sum "Si O2"
_cell_formula_units_Z 120
_cell_length_a 21.652973
_cell_length_b 14.973214
_cell_length_c 16.391505
_cell_angle_alpha 90.000000
_cell_angle_beta 90.000000
_cell_angle_gamma 90.000000
_cell_volume 5314.365212
_symmetry_space_group_name_H-M "I B C A "
_symmetry_group_IT_number 73
_symmetry_cell_setting 'orthorhombic'
loop_
_space_group_symop_operation_xyz
x,y,z
-x,1/2-y,z
x,-y,1/2-z
1/2-x,y,-z
-x,-y,-z
x,1/2+y,-z
-x,y,1/2+z
1/2+x,-y,z
1/2+x,1/2+y,1/2+z
1/2-x,-y,1/2+z
1/2+x,1/2-y,-z
-x,1/2+y,1/2-z
1/2-x,1/2-y,1/2-z
1/2+x,y,1/2-z
1/2-x,1/2+y,z
x,1/2-y,1/2+z
loop_
_atom_site_type_symbol
_atom_site_label
_atom_site_fract_x
_atom_site_fract_y
_atom_site_fract_z
Si Si1 0.576582 0.139598 0.951371
Si Si2 0.166551 0.486983 0.152444
Si Si3 0.479500 0.342252 0.319587
Si Si4 0.990993 0.000000 0.750000
Si Si5 0.234065 0.833577 0.640523
Si Si6 0.101360 0.474538 0.897606
Si Si7 0.284621 0.630996 0.322357
Si Si8 0.367232 0.831831 0.581247
O O1 0.613911 0.067592 0.895478
O O2 0.510006 0.149076 0.909097
O O3 0.607801 0.237979 0.954099
O O4 0.575077 0.096873 0.039874
O O5 0.154325 0.500000 0.250000
O O6 0.186729 0.586117 0.121984
O O7 0.225610 0.421346 0.141412
O O8 0.500000 0.250000 0.284685
O O9 0.519041 0.406039 0.259953
O O10 0.405344 0.334795 0.331573
O O11 0.949483 0.000011 0.669327
O O12 0.207235 0.733473 0.648354
O O13 0.266275 0.861199 0.727122
O O14 0.293740 0.826361 0.583388
O O15 0.157776 0.430163 0.848028
O O16 0.118893 0.565858 0.944824
#
# Coordination Sequence:
#
# PCOD9530157 Si02
#       8
#    16  16  16   8  16  16  16  16
#     4  11  24  41  60  95 130 166 205 271 324 376
#     4  10  21  36  58  89 130 173 209 255 318 376
#     4   9  21  41  66  90 124 164 210 262 325 368
#     4  10  22  42  68  94 116 168 220 264 304 392
#     4  10  19  35  61  92 126 164 213 260 311 364
#     4  11  23  40  66  90 126 168 217 255 321 391
#     4  10  19  34  58  90 125 164 211 259 301 373
#     4  10  20  40  63  84 123 168 207 257 319 377
#
# _framework density 22.580307999999999
#
# number of rings (size 3 to 8) (size 9 to 14) (size 15 to 20)
#    0.000    1.867    2.667    1.600    1.867    3.733 
#    0.000    4.667    0.000    0.000    0.000    0.000 
#    0.000    0.000    0.000    0.000    0.000    0.000 
#
# Total GULP energy -334091.833772 kJ/mol
# GULP energy per Si atom -5568.197230 kJ/mol
# Density = 2.252891 g / cm^3
# Si number density = 22.580308 Si / 1000 Ang^3
#
#
#
# Elastic Constant Matrix: (Units=GPa)
#
#
# Indices 1 2 3 4 5 6 
#
# 1 46.3217 1.6858 -18.5374 0.0000 0.0000 0.0000
# 2 1.6858 156.0525 14.9980 0.0000 0.0000 0.0000
# 3 -18.5374 14.9980 26.9319 0.0000 0.0000 0.0000
# 4 0.0000 0.0000 0.0000 22.0271 0.0000 0.0000
# 5 0.0000 0.0000 0.0000 0.0000 21.3905 0.0000
# 6 0.0000 0.0000 0.0000 0.0000 0.0000 57.0078
#
#
#
# Elastic Compliance Matrix: (Units=1/GPa)
#
#
# Indices 1 2 3 4 5 6 
#
# 1 0.030688 -0.002495 0.022512 0.000000 0.000000 0.000000
# 2 -0.002495 0.006973 -0.005601 0.000000 0.000000 0.000000
# 3 0.022512 -0.005601 0.055745 0.000000 0.000000 0.000000
# 4 0.000000 0.000000 0.000000 0.045399 0.000000 0.000000
# 5 0.000000 0.000000 0.000000 0.000000 0.046750 0.000000
# 6 0.000000 0.000000 0.000000 0.000000 0.000000 0.017541
#
#
# Mechanical properties :
#
#
# Convention : Reuss Voigt Hill
#
# Bulk Modulus (GPa) = 8.18070 25.06655 16.62362
# Shear Modulus (GPa) = 23.25478 35.49575 29.37526
#
# Velocity S-wave (km/s) = 3.21264 3.96912 3.61075
# Velocity P-wave (km/s) = 4.17040 5.66837 4.97607
#
# Compressibility (1/GPa) = 0.12223899
#
# Stress axis : x y z
#
# Youngs Moduli (GPa) = 32.58594 143.40340 17.93887
#
# Poissons Ratio (x) = 0.35781 -0.40384
# Poissons Ratio (y) = 0.08131 0.10047
# Poissons Ratio (z) = -0.73358 0.80317
#
# Static dielectric constant tensor:
#      x y z
#    x 1.895070 0.000000 0.000000 
#    y 0.000000 0.987180 0.000000 
#    z 0.000000 0.000000 1.904040 
# 
# From -- ./inp_files/23670.got.cif
#   From: 2010.05.17/outbox.cif.g08.bks.cpg/sg73_12_cif.got.tgz:23670.got - 2010.06.03 17:35:07.
