data_PCOD9530511
_publ_section_title
;
Structure prediction by ZEFSAII (Michael W. Deem and Ramdas Pophale) SiO2 
 PCOD9530511
Probable space group: I B C A 
;
_chemical_formula_sum "Si O2"
_cell_formula_units_Z 104
_cell_length_a 19.622616
_cell_length_b 14.209400
_cell_length_c 20.989670
_cell_angle_alpha 90.000000
_cell_angle_beta 90.000000
_cell_angle_gamma 90.000000
_cell_volume 5852.457327
_symmetry_space_group_name_H-M "I B C A "
_symmetry_group_IT_number 73
_symmetry_cell_setting 'orthorhombic'
loop_
_space_group_symop_operation_xyz
x,y,z
-x,1/2-y,z
x,-y,1/2-z
1/2-x,y,-z
-x,-y,-z
x,1/2+y,-z
-x,y,1/2+z
1/2+x,-y,z
1/2+x,1/2+y,1/2+z
1/2-x,-y,1/2+z
1/2+x,1/2-y,-z
-x,1/2+y,1/2-z
1/2-x,1/2-y,1/2-z
1/2+x,y,1/2-z
1/2-x,1/2+y,z
x,1/2-y,1/2+z
loop_
_atom_site_type_symbol
_atom_site_label
_atom_site_fract_x
_atom_site_fract_y
_atom_site_fract_z
Si Si1 0.766387 0.231288 0.676471
Si Si2 0.250000 0.652904 0.500000
Si Si3 0.575164 0.058911 0.074227
Si Si4 0.916208 0.034616 0.435533
Si Si5 0.674745 0.525009 0.679996
Si Si6 0.302591 0.422371 0.871625
Si Si7 0.142556 0.242693 0.925172
O O1 0.750000 0.250000 0.750000
O O2 0.804958 0.133093 0.670921
O O3 0.813161 0.316720 0.652048
O O4 0.697207 0.234241 0.633272
O O5 0.265256 0.588634 0.560255
O O6 0.187459 0.720909 0.515611
O O7 0.495601 0.036292 0.082231
O O8 0.590350 0.170409 0.083204
O O9 0.622804 0.008040 0.125743
O O10 0.592496 0.020410 0.003000
O O11 0.890682 0.142354 0.438850
O O12 0.869710 0.982034 0.383570
O O13 0.647207 0.500000 0.750000
O O14 0.746321 0.469416 0.673077
#
# Coordination Sequence:
#
# PCOD9530511 Si02
#       7
#    16   8  16  16  16  16  16
#     4  11  22  37  61  92 118 152 200 254 302 354
#     4  10  20  34  58  92 120 144 196 258 294 344
#     4  11  24  41  58  89 128 161 203 246 304 373
#     4  11  24  39  61  88 124 167 198 250 311 358
#     4  12  22  40  65  88 121 161 197 252 307 359
#     4  11  20  38  59  89 121 146 207 248 295 362
#     4  11  21  37  61  88 121 159 202 253 299 363
#
# _framework density 17.770313000000002
#
# number of rings (size 3 to 8) (size 9 to 14) (size 15 to 20)
#    0.000    0.923    7.692    0.462    4.308    0.615 
#    0.000    3.077    0.000    0.000    0.000    0.000 
#    0.000    0.000    0.000    0.000    0.000    0.000 
#
# Total GULP energy -290195.511415 kJ/mol
# GULP energy per Si atom -5580.682912 kJ/mol
# Density = 1.772987 g / cm^3
# Si number density = 17.770313 Si / 1000 Ang^3
#
#
#
# Elastic Constant Matrix: (Units=GPa)
#
#
# Indices 1 2 3 4 5 6 
#
# 1 93.2073 37.1395 22.3780 0.0000 0.0000 0.0000
# 2 37.1395 132.9556 11.8599 0.0000 0.0000 0.0000
# 3 22.3780 11.8599 61.7661 0.0000 0.0000 0.0000
# 4 0.0000 0.0000 0.0000 26.1972 0.0000 0.0000
# 5 0.0000 0.0000 0.0000 0.0000 22.1195 0.0000
# 6 0.0000 0.0000 0.0000 0.0000 0.0000 21.1359
#
#
#
# Elastic Compliance Matrix: (Units=1/GPa)
#
#
# Indices 1 2 3 4 5 6 
#
# 1 0.013013 -0.003271 -0.004087 0.000000 0.000000 0.000000
# 2 -0.003271 0.008474 -0.000442 0.000000 0.000000 0.000000
# 3 -0.004087 -0.000442 0.017756 0.000000 0.000000 0.000000
# 4 0.000000 0.000000 0.000000 0.038172 0.000000 0.000000
# 5 0.000000 0.000000 0.000000 0.000000 0.045209 0.000000
# 6 0.000000 0.000000 0.000000 0.000000 0.000000 0.047313
#
#
# Mechanical properties :
#
#
# Convention : Reuss Voigt Hill
#
# Bulk Modulus (GPa) = 42.29376 47.85375 45.07376
# Shear Modulus (GPa) = 25.85083 28.32728 27.08905
#
# Velocity S-wave (km/s) = 3.81822 3.99692 3.90859
# Velocity P-wave (km/s) = 6.57953 6.94896 6.76677
#
# Compressibility (1/GPa) = 0.02364415
#
# Stress axis : x y z
#
# Youngs Moduli (GPa) = 76.84551 118.00329 56.32005
#
# Poissons Ratio (x) = 0.38593 0.23016
# Poissons Ratio (y) = 0.25132 0.02491
# Poissons Ratio (z) = 0.31404 0.05219
#
# Static dielectric constant tensor:
#      x y z
#    x 1.598820 0.000000 0.000000 
#    y 0.000000 1.620900 0.000000 
#    z 0.000000 0.000000 1.608930 
# 
# From -- ./inp_files/23228.got.cif
#   From: 2010.05.17/outbox.cif.g08.bks.cpg/sg73_12_cif.got.tgz:23228.got - 2010.06.03 17:35:07.
