data_PCOD9530501
_publ_section_title
;
Structure prediction by ZEFSAII (Michael W. Deem and Ramdas Pophale) SiO2 
 PCOD9530501
Probable space group: I B C A 
;
_chemical_formula_sum "Si O2"
_cell_formula_units_Z 80
_cell_length_a 24.802267
_cell_length_b 10.925326
_cell_length_c 14.794055
_cell_angle_alpha 90.000000
_cell_angle_beta 90.000000
_cell_angle_gamma 90.000000
_cell_volume 4008.787284
_symmetry_space_group_name_H-M "I B C A "
_symmetry_group_IT_number 73
_symmetry_cell_setting 'orthorhombic'
loop_
_space_group_symop_operation_xyz
x,y,z
-x,1/2-y,z
x,-y,1/2-z
1/2-x,y,-z
-x,-y,-z
x,1/2+y,-z
-x,y,1/2+z
1/2+x,-y,z
1/2+x,1/2+y,1/2+z
1/2-x,-y,1/2+z
1/2+x,1/2-y,-z
-x,1/2+y,1/2-z
1/2-x,1/2-y,1/2-z
1/2+x,y,1/2-z
1/2-x,1/2+y,z
x,1/2-y,1/2+z
loop_
_atom_site_type_symbol
_atom_site_label
_atom_site_fract_x
_atom_site_fract_y
_atom_site_fract_z
Si Si1 0.770352 0.537248 0.604530
Si Si2 0.471863 0.500000 0.750000
Si Si3 0.397210 0.564810 0.920124
Si Si4 0.780096 0.274958 0.597792
Si Si5 0.000000 0.750000 0.324993
Si Si6 0.596633 0.200978 0.962175
O O1 0.750000 0.526204 0.500000
O O2 0.833813 0.566694 0.603363
O O3 0.763840 0.402014 0.644228
O O4 0.737724 0.650242 0.644560
O O5 0.433238 0.535142 0.833516
O O6 0.505160 0.623076 0.729301
O O7 0.406042 0.444693 0.984651
O O8 0.411204 0.696526 0.961415
O O9 0.750000 0.272689 0.500000
O O10 0.843584 0.278978 0.578108
O O11 0.051955 0.729874 0.387544
#
# Coordination Sequence:
#
# PCOD9530501 Si02
#       6
#    16   8  16  16   8  16
#     4   9  15  26  49  82 109 137 178 229 278 322
#     4  10  24  42  58  78 120 158 182 234 308 342
#     4  10  20  35  58  87 112 148 189 242 285 341
#     4   9  15  26  48  82 107 136 173 236 281 313
#     4  10  24  42  58  80 114 156 194 244 284 344
#     4  10  20  34  57  87 110 143 202 240 271 334
#
# _framework density 19.956160000000001
#
# number of rings (size 3 to 8) (size 9 to 14) (size 15 to 20)
#    0.000    2.400    4.000    0.000    0.000    5.600 
#    0.000    0.000    0.000   12.000    0.000    0.000 
#    0.000    0.000    0.000    0.000    0.000    0.000 
#
# Total GULP energy -222870.146345 kJ/mol
# GULP energy per Si atom -5571.753659 kJ/mol
# Density = 1.991074 g / cm^3
# Si number density = 19.956160 Si / 1000 Ang^3
#
#
#
# Elastic Constant Matrix: (Units=GPa)
#
#
# Indices 1 2 3 4 5 6 
#
# 1 63.4995 -7.8334 -7.0524 0.0000 0.0000 0.0000
# 2 -7.8334 117.8478 7.2157 0.0000 0.0000 0.0000
# 3 -7.0524 7.2157 15.6847 0.0000 0.0000 0.0000
# 4 0.0000 0.0000 0.0000 16.3879 0.0000 0.0000
# 5 0.0000 0.0000 0.0000 0.0000 -17.3001 0.0000
# 6 0.0000 0.0000 0.0000 0.0000 0.0000 26.4807
#
#
#
# Elastic Compliance Matrix: (Units=1/GPa)
#
#
# Indices 1 2 3 4 5 6 
#
# 1 0.016627 0.000666 0.007169 0.000000 0.000000 0.000000
# 2 0.000666 0.008758 -0.003730 0.000000 0.000000 0.000000
# 3 0.007169 -0.003730 0.068696 0.000000 0.000000 0.000000
# 4 0.000000 0.000000 0.000000 0.061021 0.000000 0.000000
# 5 0.000000 0.000000 0.000000 0.000000 -0.057803 0.000000
# 6 0.000000 0.000000 0.000000 0.000000 0.000000 0.037763
#
#
# Mechanical properties :
#
#
# Convention : Reuss Voigt Hill
#
# Bulk Modulus (GPa) = 9.77589 20.18798 14.98194
# Shear Modulus (GPa) = 31.06616 18.76051 24.91334
#
# Velocity S-wave (km/s) = 3.94981 3.06941 3.53711
# Velocity P-wave (km/s) = 5.07057 4.76443 4.91988
#
# Compressibility (1/GPa) = 0.10229247
#
# Stress axis : x y z
#
# Youngs Moduli (GPa) = 60.14460 114.17917 14.55694
#
# Poissons Ratio (x) = -0.07607 -0.10436
# Poissons Ratio (y) = -0.04007 0.05429
# Poissons Ratio (z) = -0.43120 0.42584
#
# Static dielectric constant tensor:
#      x y z
#    x 1.656430 0.000000 0.000000 
#    y 0.000000 1.815610 0.000000 
#    z 0.000000 0.000000 1.694960 
# 
# From -- ./inp_files/10846.got.cif
#   From: 2010.05.17/outbox.cif.g08.bks.cpg/sg73_6_cif.got.tgz:10846.got - 2010.06.03 17:35:07.
