data_PCOD9530333
_publ_section_title
;
Structure prediction by ZEFSAII (Michael W. Deem and Ramdas Pophale) SiO2 
 PCOD9530333
Probable space group: I B C A 
;
_chemical_formula_sum "Si O2"
_cell_formula_units_Z 104
_cell_length_a 14.923947
_cell_length_b 20.575505
_cell_length_c 18.367768
_cell_angle_alpha 90.000000
_cell_angle_beta 90.000000
_cell_angle_gamma 90.000000
_cell_volume 5640.149121
_symmetry_space_group_name_H-M "I B C A "
_symmetry_group_IT_number 73
_symmetry_cell_setting 'orthorhombic'
loop_
_space_group_symop_operation_xyz
x,y,z
-x,1/2-y,z
x,-y,1/2-z
1/2-x,y,-z
-x,-y,-z
x,1/2+y,-z
-x,y,1/2+z
1/2+x,-y,z
1/2+x,1/2+y,1/2+z
1/2-x,-y,1/2+z
1/2+x,1/2-y,-z
-x,1/2+y,1/2-z
1/2-x,1/2-y,1/2-z
1/2+x,y,1/2-z
1/2-x,1/2+y,z
x,1/2-y,1/2+z
loop_
_atom_site_type_symbol
_atom_site_label
_atom_site_fract_x
_atom_site_fract_y
_atom_site_fract_z
Si Si1 0.917832 0.490708 0.663925
Si Si2 0.119509 0.364762 0.072267
Si Si3 0.667794 0.282704 0.056631
Si Si4 0.872297 0.989115 0.666232
Si Si5 0.668787 0.357836 0.590104
Si Si6 0.269919 0.923005 0.414156
Si Si7 0.000000 0.750000 0.963786
O O1 0.895712 0.500000 0.750000
O O2 0.906682 0.419500 0.629444
O O3 0.853022 0.535546 0.615788
O O4 0.021922 0.506224 0.654571
O O5 0.224645 0.354861 0.081974
O O6 0.058260 0.301443 0.081122
O O7 0.117674 0.378680 0.984809
O O8 0.646793 0.217933 0.103391
O O9 0.702000 0.347466 0.096778
O O10 0.750000 0.268262 0.000000
O O11 0.575006 0.289369 0.011045
O O12 0.847517 0.915703 0.645313
O O13 0.851372 0.000000 0.750000
O O14 0.816583 0.044061 0.623178
O O15 0.250000 0.929485 0.500000
#
# Coordination Sequence:
#
# PCOD9530333 Si02
#       7
#    16  16  16  16  16  16   8
#     4  11  25  41  61  88 127 165 208 248 304 367
#     4  10  20  35  65  90 118 161 203 253 303 362
#     4  10  21  37  57  93 126 150 197 258 308 358
#     4  11  25  42  62  86 126 168 205 247 308 368
#     4  10  19  39  61  89 119 161 205 246 308 363
#     4  11  24  39  63  96 123 152 206 265 306 356
#     4  10  20  36  60  90 126 158 192 258 316 352
#
# _framework density 18.439229000000001
#
# number of rings (size 3 to 8) (size 9 to 14) (size 15 to 20)
#    0.000    1.538    4.615    1.385    8.615    1.231 
#    0.000    0.769    6.769    0.000    0.000    0.000 
#    0.000    0.000    0.000    0.000    0.000    0.000 
#
# Total GULP energy -289535.808874 kJ/mol
# GULP energy per Si atom -5567.996324 kJ/mol
# Density = 1.839726 g / cm^3
# Si number density = 18.439229 Si / 1000 Ang^3
#
#
#
# Elastic Constant Matrix: (Units=GPa)
#
#
# Indices 1 2 3 4 5 6 
#
# 1 81.7134 41.3652 45.1347 0.0000 0.0000 0.0000
# 2 41.3652 149.9160 69.9057 0.0000 0.0000 0.0000
# 3 45.1347 69.9057 83.2988 0.0000 0.0000 0.0000
# 4 0.0000 0.0000 0.0000 -28.9849 0.0000 0.0000
# 5 0.0000 0.0000 0.0000 0.0000 53.2859 0.0000
# 6 0.0000 0.0000 0.0000 0.0000 0.0000 34.3477
#
#
#
# Elastic Compliance Matrix: (Units=1/GPa)
#
#
# Indices 1 2 3 4 5 6 
#
# 1 0.017506 -0.000669 -0.008924 0.000000 0.000000 0.000000
# 2 -0.000669 0.010984 -0.008856 0.000000 0.000000 0.000000
# 3 -0.008924 -0.008856 0.024272 0.000000 0.000000 0.000000
# 4 0.000000 0.000000 0.000000 -0.034501 0.000000 0.000000
# 5 0.000000 0.000000 0.000000 0.000000 0.018767 0.000000
# 6 0.000000 0.000000 0.000000 0.000000 0.000000 0.029114
#
#
# Mechanical properties :
#
#
# Convention : Reuss Voigt Hill
#
# Bulk Modulus (GPa) = 63.03190 69.74883 66.39037
# Shear Modulus (GPa) = 46.15608 22.29791 34.22700
#
# Velocity S-wave (km/s) = 5.00857 3.48122 4.31304
# Velocity P-wave (km/s) = 8.22834 7.35303 7.80296
#
# Compressibility (1/GPa) = 0.01586498
#
# Stress axis : x y z
#
# Youngs Moduli (GPa) = 57.12431 91.03759 41.19937
#
# Poissons Ratio (x) = 0.06091 0.36766
# Poissons Ratio (y) = 0.03822 0.36485
# Poissons Ratio (z) = 0.50977 0.80621
#
# Static dielectric constant tensor:
#      x y z
#    x 1.640560 0.000000 0.000000 
#    y 0.000000 1.704800 0.000000 
#    z 0.000000 0.000000 1.641300 
# 
# From -- ./inp_files/22085.got.cif
#   From: 2010.05.17/outbox.cif.g08.bks.cpg/sg73_12_cif.got.tgz:22085.got - 2010.06.03 17:35:07.
