data_PCOD9530865
_publ_section_title
;
Structure prediction by ZEFSAII (Michael W. Deem and Ramdas Pophale) SiO2 
 PCOD9530865
Probable space group: I B C A 
;
_chemical_formula_sum "Si O2"
_cell_formula_units_Z 120
_cell_length_a 9.256556
_cell_length_b 27.278758
_cell_length_c 21.811348
_cell_angle_alpha 90.000000
_cell_angle_beta 90.000000
_cell_angle_gamma 90.000000
_cell_volume 5507.525706
_symmetry_space_group_name_H-M "I B C A "
_symmetry_group_IT_number 73
_symmetry_cell_setting 'orthorhombic'
loop_
_space_group_symop_operation_xyz
x,y,z
-x,1/2-y,z
x,-y,1/2-z
1/2-x,y,-z
-x,-y,-z
x,1/2+y,-z
-x,y,1/2+z
1/2+x,-y,z
1/2+x,1/2+y,1/2+z
1/2-x,-y,1/2+z
1/2+x,1/2-y,-z
-x,1/2+y,1/2-z
1/2-x,1/2-y,1/2-z
1/2+x,y,1/2-z
1/2-x,1/2+y,z
x,1/2-y,1/2+z
loop_
_atom_site_type_symbol
_atom_site_label
_atom_site_fract_x
_atom_site_fract_y
_atom_site_fract_z
Si Si1 0.623693 0.594942 0.537235
Si Si2 0.370694 0.154185 0.404440
Si Si3 0.596052 0.352681 0.264430
Si Si4 0.526752 0.462190 0.302408
Si Si5 0.142874 0.923249 0.049294
Si Si6 0.178839 0.294322 0.711657
Si Si7 0.278007 0.492484 0.376772
Si Si8 0.500000 0.250000 0.898182
O O1 0.750000 0.622909 0.500000
O O2 0.517861 0.622050 0.585964
O O3 0.506164 0.583146 0.484990
O O4 0.700777 0.548575 0.570286
O O5 0.343692 0.161778 0.332182
O O6 0.234148 0.125075 0.431705
O O7 0.414645 0.206763 0.432335
O O8 0.560356 0.409005 0.275294
O O9 0.458009 0.318293 0.254711
O O10 0.706509 0.338435 0.211343
O O11 0.560053 0.500000 0.250000
O O12 0.359404 0.467079 0.320393
O O13 0.627801 0.480866 0.358941
O O14 0.128218 0.959733 0.105229
O O15 0.250000 0.948622 0.000000
O O16 0.250000 0.250000 0.750000
O O17 0.116699 0.275963 0.647058
#
# Coordination Sequence:
#
# PCOD9530865 Si02
#       8
#    16  16  16  16  16  16  16   8
#     4  11  22  38  65  94 125 165 220 275 326 387
#     4  10  20  41  62  89 127 161 208 267 341 384
#     4  11  23  40  61  89 130 172 210 272 320 374
#     4  12  27  39  57  90 133 183 219 256 321 393
#     4  10  20  38  66  94 121 169 219 270 333 392
#     4  11  20  38  67  93 120 162 229 262 320 385
#     4  12  22  41  60  88 132 169 224 269 320 380
#     4  10  22  40  70  94 128 170 216 280 328 384
#
# _framework density 21.788367999999998
#
# number of rings (size 3 to 8) (size 9 to 14) (size 15 to 20)
#    0.000    1.067    5.333    2.800    3.733    0.000 
#    0.000    4.667    0.000    0.000    0.000    0.000 
#    0.000    0.000    0.000    0.000    0.000    0.000 
#
# Total GULP energy -334431.386626 kJ/mol
# GULP energy per Si atom -5573.856444 kJ/mol
# Density = 2.173878 g / cm^3
# Si number density = 21.788368 Si / 1000 Ang^3
#
#
#
# Elastic Constant Matrix: (Units=GPa)
#
#
# Indices 1 2 3 4 5 6 
#
# 1 103.6068 26.5026 18.5829 0.0000 0.0000 0.0000
# 2 26.5026 124.5013 22.3521 0.0000 0.0000 0.0000
# 3 18.5829 22.3521 36.1742 0.0000 0.0000 0.0000
# 4 0.0000 0.0000 0.0000 21.2580 0.0000 0.0000
# 5 0.0000 0.0000 0.0000 0.0000 19.7580 0.0000
# 6 0.0000 0.0000 0.0000 0.0000 0.0000 22.9718
#
#
#
# Elastic Compliance Matrix: (Units=1/GPa)
#
#
# Indices 1 2 3 4 5 6 
#
# 1 0.010867 -0.001475 -0.004671 0.000000 0.000000 0.000000
# 2 -0.001475 0.009234 -0.004948 0.000000 0.000000 0.000000
# 3 -0.004671 -0.004948 0.033101 0.000000 0.000000 0.000000
# 4 0.000000 0.000000 0.000000 0.047041 0.000000 0.000000
# 5 0.000000 0.000000 0.000000 0.000000 0.050612 0.000000
# 6 0.000000 0.000000 0.000000 0.000000 0.000000 0.043532
#
#
# Mechanical properties :
#
#
# Convention : Reuss Voigt Hill
#
# Bulk Modulus (GPa) = 32.24344 44.35083 38.29714
# Shear Modulus (GPa) = 22.03476 25.92055 23.97765
#
# Velocity S-wave (km/s) = 3.18356 3.45287 3.32095
# Velocity P-wave (km/s) = 5.32391 6.02461 5.68506
#
# Compressibility (1/GPa) = 0.03101406
#
# Stress axis : x y z
#
# Youngs Moduli (GPa) = 92.02242 108.29140 30.21028
#
# Poissons Ratio (x) = 0.15969 0.14112
# Poissons Ratio (y) = 0.13570 0.14949
# Poissons Ratio (z) = 0.42986 0.53587
#
# Static dielectric constant tensor:
#      x y z
#    x 1.869150 0.000000 0.000000 
#    y 0.000000 1.847550 0.000000 
#    z 0.000000 0.000000 1.891670 
# 
# From -- ./inp_files/28543.got.cif
#   From: 2010.05.17/outbox.cif.g08.bks.cpg/sg73_15_cif.got.tgz:28543.got - 2010.06.03 17:35:07.
