data_PCOD9530067
_publ_section_title
;
Structure prediction by ZEFSAII (Michael W. Deem and Ramdas Pophale) SiO2 
 PCOD9530067
Probable space group: I B C A 
;
_chemical_formula_sum "Si O2"
_cell_formula_units_Z 104
_cell_length_a 18.508315
_cell_length_b 8.817660
_cell_length_c 27.686364
_cell_angle_alpha 90.000000
_cell_angle_beta 90.000000
_cell_angle_gamma 90.000000
_cell_volume 4518.415403
_symmetry_space_group_name_H-M "I B C A "
_symmetry_group_IT_number 73
_symmetry_cell_setting 'orthorhombic'
loop_
_space_group_symop_operation_xyz
x,y,z
-x,1/2-y,z
x,-y,1/2-z
1/2-x,y,-z
-x,-y,-z
x,1/2+y,-z
-x,y,1/2+z
1/2+x,-y,z
1/2+x,1/2+y,1/2+z
1/2-x,-y,1/2+z
1/2+x,1/2-y,-z
-x,1/2+y,1/2-z
1/2-x,1/2-y,1/2-z
1/2+x,y,1/2-z
1/2-x,1/2+y,z
x,1/2-y,1/2+z
loop_
_atom_site_type_symbol
_atom_site_label
_atom_site_fract_x
_atom_site_fract_y
_atom_site_fract_z
Si Si1 0.705186 0.595678 0.597869
Si Si2 0.336859 0.285533 0.988815
Si Si3 0.273282 0.823598 0.838757
Si Si4 0.894798 0.919103 0.175861
Si Si5 0.626400 0.573709 0.430816
Si Si6 0.182099 0.500000 0.750000
Si Si7 0.578620 0.223573 0.774480
O O1 0.665485 0.646916 0.549715
O O2 0.685794 0.441213 0.625235
O O3 0.708430 0.743310 0.632550
O O4 0.788776 0.569296 0.584010
O O5 0.378309 0.424026 0.963704
O O6 0.250000 0.319138 0.000000
O O7 0.376647 0.223000 0.036117
O O8 0.322763 0.681470 0.825133
O O9 0.269043 0.918461 0.789801
O O10 0.917612 0.922179 0.119438
O O11 0.936075 0.838179 0.219919
O O12 0.886614 0.088150 0.195265
O O13 0.129181 0.629107 0.771644
O O14 0.500000 0.250000 0.796783
#
# Coordination Sequence:
#
# PCOD9530067 Si02
#       7
#    16  16  16  16  16   8  16
#     4  10  19  33  49  72 114 167 210 238 272 313
#     4  10  19  30  50  76 110 165 214 242 266 306
#     4  10  21  33  50  76 117 162 203 245 281 327
#     4   9  21  37  57  88 121 136 186 250 289 351
#     4  10  20  32  51  80 116 156 199 249 271 314
#     4  10  22  34  54  84 110 144 200 252 302 364
#     4  10  20  41  67  87 109 140 178 242 319 384
#
# _framework density 23.016918
#
# number of rings (size 3 to 8) (size 9 to 14) (size 15 to 20)
#    0.000    2.154    1.538    2.308    6.462    0.615 
#    0.000    6.154    0.000    0.000    0.000    3.231 
#    0.000    0.000    0.000    0.000    0.000    0.000 
#
# Total GULP energy -290105.161168 kJ/mol
# GULP energy per Si atom -5578.945407 kJ/mol
# Density = 2.296453 g / cm^3
# Si number density = 23.016918 Si / 1000 Ang^3
#
#
#
# Elastic Constant Matrix: (Units=GPa)
#
#
# Indices 1 2 3 4 5 6 
#
# 1 29.5188 25.1748 12.1769 0.0000 0.0000 0.0000
# 2 25.1748 140.3523 78.4678 0.0000 0.0000 0.0000
# 3 12.1769 78.4678 152.6792 0.0000 0.0000 0.0000
# 4 0.0000 0.0000 0.0000 66.9974 0.0000 0.0000
# 5 0.0000 0.0000 0.0000 0.0000 3.8947 0.0000
# 6 0.0000 0.0000 0.0000 0.0000 0.0000 6.1347
#
#
#
# Elastic Compliance Matrix: (Units=1/GPa)
#
#
# Indices 1 2 3 4 5 6 
#
# 1 0.040048 -0.007574 0.000698 0.000000 0.000000 0.000000
# 2 -0.007574 0.011430 -0.005270 0.000000 0.000000 0.000000
# 3 0.000698 -0.005270 0.009203 0.000000 0.000000 0.000000
# 4 0.000000 0.000000 0.000000 0.014926 0.000000 0.000000
# 5 0.000000 0.000000 0.000000 0.000000 0.256758 0.000000
# 6 0.000000 0.000000 0.000000 0.000000 0.000000 0.163006
#
#
# Mechanical properties :
#
#
# Convention : Reuss Voigt Hill
#
# Bulk Modulus (GPa) = 27.48075 61.57659 44.52867
# Shear Modulus (GPa) = 9.40219 29.18742 19.29481
#
# Velocity S-wave (km/s) = 2.02331 3.56488 2.89846
# Velocity P-wave (km/s) = 4.17417 6.61478 5.53078
#
# Compressibility (1/GPa) = 0.03638910
#
# Stress axis : x y z
#
# Youngs Moduli (GPa) = 24.97016 87.48984 108.66556
#
# Poissons Ratio (x) = 0.66263 -0.07590
# Poissons Ratio (y) = 0.18912 0.57269
# Poissons Ratio (z) = -0.01744 0.46109
#
# Static dielectric constant tensor:
#      x y z
#    x 1.823430 0.000000 0.000000 
#    y 0.000000 1.897180 0.000000 
#    z 0.000000 0.000000 2.005130 
# 
# From -- ./inp_files/32979.got.cif
#   From: 2010.05.17/outbox.cif.g08.bks.cpg/sg73_17_cif.got.tgz:32979.got - 2010.06.03 17:35:07.
