data_PCOD9530428
_publ_section_title
;
Structure prediction by ZEFSAII (Michael W. Deem and Ramdas Pophale) SiO2 
 PCOD9530428
Probable space group: I B C A 
;
_chemical_formula_sum "Si O2"
_cell_formula_units_Z 96
_cell_length_a 9.091310
_cell_length_b 17.873959
_cell_length_c 23.772047
_cell_angle_alpha 90.000000
_cell_angle_beta 90.000000
_cell_angle_gamma 90.000000
_cell_volume 3862.903014
_symmetry_space_group_name_H-M "I B C A "
_symmetry_group_IT_number 73
_symmetry_cell_setting 'orthorhombic'
loop_
_space_group_symop_operation_xyz
x,y,z
-x,1/2-y,z
x,-y,1/2-z
1/2-x,y,-z
-x,-y,-z
x,1/2+y,-z
-x,y,1/2+z
1/2+x,-y,z
1/2+x,1/2+y,1/2+z
1/2-x,-y,1/2+z
1/2+x,1/2-y,-z
-x,1/2+y,1/2-z
1/2-x,1/2-y,1/2-z
1/2+x,y,1/2-z
1/2-x,1/2+y,z
x,1/2-y,1/2+z
loop_
_atom_site_type_symbol
_atom_site_label
_atom_site_fract_x
_atom_site_fract_y
_atom_site_fract_z
Si Si1 0.251113 0.394592 0.788842
Si Si2 0.000000 0.250000 0.396924
Si Si3 0.000000 0.250000 0.602529
Si Si4 0.998381 0.000000 0.750000
Si Si5 0.749931 0.655896 0.335940
Si Si6 0.755701 0.473602 0.080437
Si Si7 0.500000 0.000000 0.000000
Si Si8 0.249953 0.651464 0.413247
O O1 0.107703 0.447608 0.786786
O O2 0.395755 0.446545 0.785925
O O3 0.248960 0.348705 0.731085
O O4 0.251491 0.347224 0.845034
O O5 0.106734 0.301838 0.359366
O O6 0.106374 0.195826 0.431553
O O7 0.106850 0.302346 0.639880
O O8 0.107371 0.196193 0.567882
O O9 0.747482 0.571814 0.361809
O O10 0.612565 0.455534 0.043795
O O11 0.753678 0.564344 0.073750
O O12 0.913126 0.458696 0.052530
#
# Coordination Sequence:
#
# PCOD9530428 Si02
#       8
#    16   8   8   8  16  16   8  16
#     4  11  22  35  58  92 128 170 210 242 296 364
#     4  10  24  39  58  93 134 170 204 245 302 363
#     4  10  24  39  58  93 134 170 204 245 302 363
#     4  10  20  32  48  84 124 148 208 270 288 326
#     4  11  23  40  64  91 130 168 205 251 302 360
#     4  11  22  43  70  92 118 159 206 263 310 370
#     4  10  24  40  68  98 116 146 212 266 320 368
#     4  11  23  40  64  91 130 168 205 251 302 360
#
# _framework density 24.851775
#
# number of rings (size 3 to 8) (size 9 to 14) (size 15 to 20)
#    0.000    1.333    0.000    6.000    0.000    6.667 
#    0.000    0.000    0.000   70.000    0.000    0.000 
#    0.000    0.000    0.000    0.000    0.000    0.000 
#
# Total GULP energy -267655.505636 kJ/mol
# GULP energy per Si atom -5576.156367 kJ/mol
# Density = 2.479521 g / cm^3
# Si number density = 24.851775 Si / 1000 Ang^3
#
#
#
# Elastic Constant Matrix: (Units=GPa)
#
#
# Indices 1 2 3 4 5 6 
#
# 1 155.9067 41.8602 2.7015 0.0000 0.0000 0.0000
# 2 41.8602 133.2458 7.0109 0.0000 0.0000 0.0000
# 3 2.7015 7.0109 71.9312 0.0000 0.0000 0.0000
# 4 0.0000 0.0000 0.0000 -28.3625 0.0000 0.0000
# 5 0.0000 0.0000 0.0000 0.0000 191.9645 0.0000
# 6 0.0000 0.0000 0.0000 0.0000 0.0000 50.1945
#
#
#
# Elastic Compliance Matrix: (Units=1/GPa)
#
#
# Indices 1 2 3 4 5 6 
#
# 1 0.007005 -0.002198 -0.000049 0.000000 0.000000 0.000000
# 2 -0.002198 0.008233 -0.000720 0.000000 0.000000 0.000000
# 3 -0.000049 -0.000720 0.013974 0.000000 0.000000 0.000000
# 4 0.000000 0.000000 0.000000 -0.035258 0.000000 0.000000
# 5 0.000000 0.000000 0.000000 0.000000 0.005209 0.000000
# 6 0.000000 0.000000 0.000000 0.000000 0.000000 0.019923
#
#
# Mechanical properties :
#
#
# Convention : Reuss Voigt Hill
#
# Bulk Modulus (GPa) = 42.95744 51.58098 47.26921
# Shear Modulus (GPa) = 152.53143 63.39337 107.96240
#
# Velocity S-wave (km/s) = 7.84281 5.05608 6.59825
# Velocity P-wave (km/s) = 9.96674 7.40849 8.78128
#
# Compressibility (1/GPa) = 0.02327886
#
# Stress axis : x y z
#
# Youngs Moduli (GPa) = 142.75258 121.45696 71.56055
#
# Poissons Ratio (x) = 0.26698 0.00350
# Poissons Ratio (y) = 0.31379 0.05152
# Poissons Ratio (z) = 0.00697 0.08744
#
# Static dielectric constant tensor:
#      x y z
#    x 2.012070 0.000000 0.000000 
#    y 0.000000 2.062960 0.000000 
#    z 0.000000 0.000000 2.100440 
# 
# From -- ./inp_files/31236.got.cif
#   From: 2010.05.17/outbox.cif.g08.bks.cpg/sg73_16_cif.got.tgz:31236.got - 2010.06.03 17:35:07.
