data_PCOD9530651
_publ_section_title
;
Structure prediction by ZEFSAII (Michael W. Deem and Ramdas Pophale) SiO2 
 PCOD9530651
Probable space group: I B C A 
;
_chemical_formula_sum "Si O2"
_cell_formula_units_Z 96
_cell_length_a 16.256060
_cell_length_b 18.684989
_cell_length_c 15.304483
_cell_angle_alpha 90.000000
_cell_angle_beta 90.000000
_cell_angle_gamma 90.000000
_cell_volume 4648.649511
_symmetry_space_group_name_H-M "I B C A "
_symmetry_group_IT_number 73
_symmetry_cell_setting 'orthorhombic'
loop_
_space_group_symop_operation_xyz
x,y,z
-x,1/2-y,z
x,-y,1/2-z
1/2-x,y,-z
-x,-y,-z
x,1/2+y,-z
-x,y,1/2+z
1/2+x,-y,z
1/2+x,1/2+y,1/2+z
1/2-x,-y,1/2+z
1/2+x,1/2-y,-z
-x,1/2+y,1/2-z
1/2-x,1/2-y,1/2-z
1/2+x,y,1/2-z
1/2-x,1/2+y,z
x,1/2-y,1/2+z
loop_
_atom_site_type_symbol
_atom_site_label
_atom_site_fract_x
_atom_site_fract_y
_atom_site_fract_z
Si Si1 0.999425 0.165154 0.584538
Si Si2 0.312107 0.155704 0.423392
Si Si3 0.254660 0.709816 0.843244
Si Si4 0.281238 0.417309 0.233569
Si Si5 0.469936 0.916388 0.764227
Si Si6 0.561519 0.817885 0.899870
O O1 0.092601 0.143334 0.559136
O O2 0.000000 0.250000 0.605151
O O3 0.974735 0.122927 0.670904
O O4 0.944625 0.153762 0.498739
O O5 0.250000 0.135121 0.500000
O O6 0.299721 0.240635 0.405402
O O7 0.281656 0.114285 0.337178
O O8 0.250000 0.750000 0.750000
O O9 0.226739 0.629786 0.821526
O O10 0.347638 0.708106 0.876434
O O11 0.264753 0.500000 0.250000
O O12 0.375754 0.409531 0.202386
O O13 0.530685 0.876811 0.830870
O O14 0.488575 0.000000 0.750000
O O15 0.500000 0.750000 0.894325
#
# Coordination Sequence:
#
# PCOD9530651 Si02
#       6
#    16  16  16  16  16  16
#     4  11  23  39  63  92 121 156 204 257 309 367
#     4  11  21  38  62  87 117 154 199 247 300 360
#     4  10  20  36  61  87 115 154 198 245 299 361
#     4  10  22  40  59  83 117 159 201 243 299 361
#     4  11  23  40  61  87 124 164 204 253 310 373
#     4  11  22  39  62  91 124 158 202 255 308 366
#
# _framework density 20.651160000000001
#
# number of rings (size 3 to 8) (size 9 to 14) (size 15 to 20)
#    0.000    1.333    0.000    8.500    0.000    3.333 
#    0.000    4.167    0.000    0.000    0.000    0.000 
#    0.000    0.000    0.000    0.000    0.000    0.000 
#
# Total GULP energy -268454.063942 kJ/mol
# GULP energy per Si atom -5592.792999 kJ/mol
# Density = 2.060416 g / cm^3
# Si number density = 20.651160 Si / 1000 Ang^3
#
#
#
# Elastic Constant Matrix: (Units=GPa)
#
#
# Indices 1 2 3 4 5 6 
#
# 1 84.2513 13.7184 24.0656 0.0000 0.0000 0.0000
# 2 13.7184 91.9154 36.3897 0.0000 0.0000 0.0000
# 3 24.0656 36.3897 112.2915 0.0000 0.0000 0.0000
# 4 0.0000 0.0000 0.0000 4.5873 0.0000 0.0000
# 5 0.0000 0.0000 0.0000 0.0000 30.8822 0.0000
# 6 0.0000 0.0000 0.0000 0.0000 0.0000 26.0814
#
#
#
# Elastic Compliance Matrix: (Units=1/GPa)
#
#
# Indices 1 2 3 4 5 6 
#
# 1 0.012714 -0.000939 -0.002420 0.000000 0.000000 0.000000
# 2 -0.000939 0.012550 -0.003866 0.000000 0.000000 0.000000
# 3 -0.002420 -0.003866 0.010677 0.000000 0.000000 0.000000
# 4 0.000000 0.000000 0.000000 0.217991 0.000000 0.000000
# 5 0.000000 0.000000 0.000000 0.000000 0.032381 0.000000
# 6 0.000000 0.000000 0.000000 0.000000 0.000000 0.038341
#
#
# Mechanical properties :
#
#
# Convention : Reuss Voigt Hill
#
# Bulk Modulus (GPa) = 46.53350 48.53394 47.53372
# Shear Modulus (GPa) = 14.43967 26.59583 20.51775
#
# Velocity S-wave (km/s) = 2.64714 3.59257 3.15547
# Velocity P-wave (km/s) = 5.65024 6.38448 6.02855
#
# Compressibility (1/GPa) = 0.02148989
#
# Stress axis : x y z
#
# Youngs Moduli (GPa) = 78.65642 79.67971 93.66048
#
# Poissons Ratio (x) = 0.07484 0.22668
# Poissons Ratio (y) = 0.07388 0.36207
# Poissons Ratio (z) = 0.19037 0.30802
#
# Static dielectric constant tensor:
#      x y z
#    x 1.776780 0.000000 0.000000 
#    y 0.000000 1.723530 0.000000 
#    z 0.000000 0.000000 1.739800 
# 
# From -- ./inp_files/17061.got.cif
#   From: 2010.05.17/outbox.cif.g08.bks.cpg/sg73_9_cif.got.tgz:17061.got - 2010.06.03 17:35:07.
