data_PCOD9530937
_publ_section_title
;
Structure prediction by ZEFSAII (Michael W. Deem and Ramdas Pophale) SiO2 
 PCOD9530937
Probable space group: I B C A 
;
_chemical_formula_sum "Si O2"
_cell_formula_units_Z 112
_cell_length_a 11.231152
_cell_length_b 31.100259
_cell_length_c 15.406469
_cell_angle_alpha 90.000000
_cell_angle_beta 90.000000
_cell_angle_gamma 90.000000
_cell_volume 5381.352304
_symmetry_space_group_name_H-M "I B C A "
_symmetry_group_IT_number 73
_symmetry_cell_setting 'orthorhombic'
loop_
_space_group_symop_operation_xyz
x,y,z
-x,1/2-y,z
x,-y,1/2-z
1/2-x,y,-z
-x,-y,-z
x,1/2+y,-z
-x,y,1/2+z
1/2+x,-y,z
1/2+x,1/2+y,1/2+z
1/2-x,-y,1/2+z
1/2+x,1/2-y,-z
-x,1/2+y,1/2-z
1/2-x,1/2-y,1/2-z
1/2+x,y,1/2-z
1/2-x,1/2+y,z
x,1/2-y,1/2+z
loop_
_atom_site_type_symbol
_atom_site_label
_atom_site_fract_x
_atom_site_fract_y
_atom_site_fract_z
Si Si1 0.325187 0.386799 0.291758
Si Si2 0.309625 0.323353 0.594691
Si Si3 0.438143 0.141393 0.625432
Si Si4 0.633964 0.452812 0.266282
Si Si5 0.037475 0.448680 0.902543
Si Si6 0.436555 0.542030 0.089663
Si Si7 0.630479 0.233865 0.058068
O O1 0.274392 0.344925 0.336495
O O2 0.425048 0.368732 0.227155
O O3 0.227167 0.414140 0.238499
O O4 0.362179 0.420253 0.366455
O O5 0.250000 0.323075 0.500000
O O6 0.426989 0.352524 0.594483
O O7 0.344449 0.274719 0.619688
O O8 0.394091 0.096269 0.585293
O O9 0.380993 0.186783 0.599546
O O10 0.689272 0.500000 0.250000
O O11 0.540301 0.447091 0.185990
O O12 0.560316 0.455188 0.355837
O O13 0.109616 0.493240 0.897016
O O14 0.955238 0.452638 0.987538
O O15 0.500000 0.250000 0.018628
O O16 0.750000 0.231720 0.000000
#
# Coordination Sequence:
#
# PCOD9530937 Si02
#       7
#    16  16  16  16  16  16  16
#     4  12  22  34  64  90 126 170 209 269 333 389
#     4  10  21  42  66  91 122 171 224 263 332 416
#     4  11  22  38  61  93 129 161 216 279 327 402
#     4  10  22  37  55  86 126 166 215 259 326 393
#     4  10  20  40  58  82 126 164 218 274 314 391
#     4  10  22  37  59  86 121 169 218 268 317 383
#     4   9  21  42  68  96 130 174 219 280 344 409
#
# _framework density 20.812614
#
# number of rings (size 3 to 8) (size 9 to 14) (size 15 to 20)
#    0.000    1.714    2.857    0.857    2.000    1.714 
#    0.000    4.286    0.000    7.714    0.000    0.000 
#    0.000    0.000    0.000    0.000    0.000    0.000 
#
# Total GULP energy -311973.693804 kJ/mol
# GULP energy per Si atom -5570.958818 kJ/mol
# Density = 2.076524 g / cm^3
# Si number density = 20.812614 Si / 1000 Ang^3
#
#
#
# Elastic Constant Matrix: (Units=GPa)
#
#
# Indices 1 2 3 4 5 6 
#
# 1 47.8966 32.1252 22.2683 0.0000 0.0000 0.0000
# 2 32.1252 152.3632 33.0680 -0.0001 0.0001 0.0001
# 3 22.2683 33.0680 65.7872 -0.0002 0.0001 0.0002
# 4 0.0000 -0.0001 -0.0002 15.7598 0.0000 0.0001
# 5 0.0000 0.0001 0.0001 0.0000 24.0121 -0.0001
# 6 0.0000 0.0001 0.0002 0.0001 -0.0001 50.0938
#
#
#
# Elastic Compliance Matrix: (Units=1/GPa)
#
#
# Indices 1 2 3 4 5 6 
#
# 1 0.026932 -0.004153 -0.007029 0.000000 0.000000 0.000000
# 2 -0.004153 0.008007 -0.002619 0.000000 0.000000 0.000000
# 3 -0.007029 -0.002619 0.018896 0.000000 0.000000 0.000000
# 4 0.000000 0.000000 0.000000 0.063452 0.000000 0.000000
# 5 0.000000 0.000000 0.000000 0.000000 0.041646 0.000000
# 6 0.000000 0.000000 0.000000 0.000000 0.000000 0.019963
#
#
# Mechanical properties :
#
#
# Convention : Reuss Voigt Hill
#
# Bulk Modulus (GPa) = 38.11899 48.99667 43.55783
# Shear Modulus (GPa) = 23.22970 29.87884 26.55427
#
# Velocity S-wave (km/s) = 3.34449 3.79306 3.57581
# Velocity P-wave (km/s) = 5.76795 6.54033 6.16625
#
# Compressibility (1/GPa) = 0.02623364
#
# Stress axis : x y z
#
# Youngs Moduli (GPa) = 37.13114 124.88533 52.92086
#
# Poissons Ratio (x) = 0.51865 0.37196
# Poissons Ratio (y) = 0.15420 0.13861
# Poissons Ratio (z) = 0.26098 0.32709
#
# Static dielectric constant tensor:
#      x y z
#    x 1.816220 0.000000 0.000000 
#    y 0.000000 1.780460 0.000000 
#    z 0.000000 0.000000 1.716570 
# 
# From -- ./inp_files/16352.got.cif
#   From: 2010.05.17/outbox.cif.g08.bks.cpg/sg73_9_cif.got.tgz:16352.got - 2010.06.03 17:35:07.
