data_PCOD9530461
_publ_section_title
;
Structure prediction by ZEFSAII (Michael W. Deem and Ramdas Pophale) SiO2 
 PCOD9530461
Probable space group: I B C A 
;
_chemical_formula_sum "Si O2"
_cell_formula_units_Z 96
_cell_length_a 8.619560
_cell_length_b 21.446871
_cell_length_c 22.751365
_cell_angle_alpha 90.000000
_cell_angle_beta 90.000000
_cell_angle_gamma 90.000000
_cell_volume 4205.876292
_symmetry_space_group_name_H-M "I B C A "
_symmetry_group_IT_number 73
_symmetry_cell_setting 'orthorhombic'
loop_
_space_group_symop_operation_xyz
x,y,z
-x,1/2-y,z
x,-y,1/2-z
1/2-x,y,-z
-x,-y,-z
x,1/2+y,-z
-x,y,1/2+z
1/2+x,-y,z
1/2+x,1/2+y,1/2+z
1/2-x,-y,1/2+z
1/2+x,1/2-y,-z
-x,1/2+y,1/2-z
1/2-x,1/2-y,1/2-z
1/2+x,y,1/2-z
1/2-x,1/2+y,z
x,1/2-y,1/2+z
loop_
_atom_site_type_symbol
_atom_site_label
_atom_site_fract_x
_atom_site_fract_y
_atom_site_fract_z
Si Si1 0.870861 0.800718 0.549753
Si Si2 0.640974 0.928642 0.765523
Si Si3 0.608376 0.097274 0.542019
Si Si4 0.413357 0.028539 0.629205
Si Si5 0.334855 0.629938 0.638410
Si Si6 0.335830 0.382690 0.363602
O O1 0.750000 0.780117 0.500000
O O2 0.783993 0.820399 0.610293
O O3 0.000000 0.750000 0.561182
O O4 0.965107 0.860178 0.522592
O O5 0.499643 0.943758 0.811753
O O6 0.620441 0.890405 0.705483
O O7 0.762686 0.884617 0.799298
O O8 0.695113 0.000000 0.750000
O O9 0.750000 0.079971 0.500000
O O10 0.528711 0.040310 0.575344
O O11 0.698526 0.135264 0.592944
O O12 0.255556 0.066938 0.619515
O O13 0.375682 0.956428 0.631214
O O14 0.505879 0.649672 0.618189
#
# Coordination Sequence:
#
# PCOD9530461 Si02
#       6
#    16  16  16  16  16  16
#     4  11  25  47  73  93 115 160 222 293 362 412
#     4  11  19  32  57  87 135 183 227 256 294 384
#     4  10  22  39  59  88 127 163 216 279 335 397
#     4  10  20  33  53  89 131 182 222 250 309 393
#     4  11  21  33  59  96 127 164 225 281 317 386
#     4  11  20  34  57  91 135 182 219 256 316 394
#
# _framework density 22.825208
#
# number of rings (size 3 to 8) (size 9 to 14) (size 15 to 20)
#    0.000    1.333    3.333    3.500    0.000    0.667 
#    0.000    4.167    0.000   16.000    0.000    4.667 
#    0.000    0.000    0.000    0.000    0.000    0.000 
#
# Total GULP energy -267431.343174 kJ/mol
# GULP energy per Si atom -5571.486316 kJ/mol
# Density = 2.277326 g / cm^3
# Si number density = 22.825208 Si / 1000 Ang^3
#
#
#
# Elastic Constant Matrix: (Units=GPa)
#
#
# Indices 1 2 3 4 5 6 
#
# 1 96.5828 5.5692 -5.1062 0.0000 0.0000 0.0000
# 2 5.5692 33.5779 6.1502 0.0000 0.0000 0.0000
# 3 -5.1062 6.1502 55.6059 0.0000 0.0000 0.0000
# 4 0.0000 0.0000 0.0000 17.0375 0.0000 0.0000
# 5 0.0000 0.0000 0.0000 0.0000 22.0886 0.0000
# 6 0.0000 0.0000 0.0000 0.0000 0.0000 17.4944
#
#
#
# Elastic Compliance Matrix: (Units=1/GPa)
#
#
# Indices 1 2 3 4 5 6 
#
# 1 0.010530 -0.001963 0.001184 0.000000 0.000000 0.000000
# 2 -0.001963 0.030763 -0.003583 0.000000 0.000000 0.000000
# 3 0.001184 -0.003583 0.018489 0.000000 0.000000 0.000000
# 4 0.000000 0.000000 0.000000 0.058694 0.000000 0.000000
# 5 0.000000 0.000000 0.000000 0.000000 0.045272 0.000000
# 6 0.000000 0.000000 0.000000 0.000000 0.000000 0.057161
#
#
# Mechanical properties :
#
#
# Convention : Reuss Voigt Hill
#
# Bulk Modulus (GPa) = 19.58575 22.11035 20.84805
# Shear Modulus (GPa) = 20.27143 23.26765 21.76954
#
# Velocity S-wave (km/s) = 2.98336 3.19624 3.09163
# Velocity P-wave (km/s) = 4.52401 4.83002 4.67952
#
# Compressibility (1/GPa) = 0.05105752
#
# Stress axis : x y z
#
# Youngs Moduli (GPa) = 94.97025 32.50623 54.08702
#
# Poissons Ratio (x) = 0.06382 -0.06404
# Poissons Ratio (y) = 0.18645 0.19379
# Poissons Ratio (z) = -0.11245 0.11646
#
# Static dielectric constant tensor:
#      x y z
#    x 1.969640 0.000000 0.000000 
#    y 0.000000 1.831500 0.000000 
#    z 0.000000 0.000000 1.984850 
# 
# From -- ./inp_files/28409.got.cif
#   From: 2010.05.17/outbox.cif.g08.bks.cpg/sg73_15_cif.got.tgz:28409.got - 2010.06.03 17:35:07.
