data_PCOD9530400
_publ_section_title
;
Structure prediction by ZEFSAII (Michael W. Deem and Ramdas Pophale) SiO2 
 PCOD9530400
Probable space group: I B C A 
;
_chemical_formula_sum "Si O2"
_cell_formula_units_Z 104
_cell_length_a 8.825200
_cell_length_b 22.100033
_cell_length_c 28.715775
_cell_angle_alpha 90.000000
_cell_angle_beta 90.000000
_cell_angle_gamma 90.000000
_cell_volume 5600.644674
_symmetry_space_group_name_H-M "I B C A "
_symmetry_group_IT_number 73
_symmetry_cell_setting 'orthorhombic'
loop_
_space_group_symop_operation_xyz
x,y,z
-x,1/2-y,z
x,-y,1/2-z
1/2-x,y,-z
-x,-y,-z
x,1/2+y,-z
-x,y,1/2+z
1/2+x,-y,z
1/2+x,1/2+y,1/2+z
1/2-x,-y,1/2+z
1/2+x,1/2-y,-z
-x,1/2+y,1/2-z
1/2-x,1/2-y,1/2-z
1/2+x,y,1/2-z
1/2-x,1/2+y,z
x,1/2-y,1/2+z
loop_
_atom_site_type_symbol
_atom_site_label
_atom_site_fract_x
_atom_site_fract_y
_atom_site_fract_z
Si Si1 0.237802 0.418388 0.554331
Si Si2 0.826113 0.765745 0.701755
Si Si3 0.653845 0.636752 0.865405
Si Si4 0.355059 0.207985 0.431775
Si Si5 0.250000 0.618187 0.500000
Si Si6 0.672629 0.305239 0.107696
Si Si7 0.569732 0.464230 0.573621
O O1 0.250000 0.400450 0.500000
O O2 0.234344 0.362494 0.589477
O O3 0.393561 0.453336 0.565727
O O4 0.107274 0.466411 0.564493
O O5 0.750000 0.750000 0.750000
O O6 0.820978 0.835891 0.685679
O O7 0.776143 0.725187 0.656705
O O8 0.000000 0.750000 0.707737
O O9 0.802057 0.660136 0.892671
O O10 0.500885 0.671994 0.884782
O O11 0.620927 0.567128 0.877671
O O12 0.500000 0.250000 0.423652
O O13 0.367477 0.164870 0.476242
O O14 0.211924 0.254515 0.431013
O O15 0.338334 0.575978 0.464054
#
# Coordination Sequence:
#
# PCOD9530400 Si02
#       7
#    16  16  16  16   8  16  16
#     4  11  22  33  55  71 102 140 184 218 249 303
#     4   9  17  33  57  81 106 132 163 204 266 325
#     4   8  18  37  52  70 106 138 162 210 265 319
#     4  10  20  29  48  70  96 127 172 217 249 299
#     4  10  22  32  44  64 104 132 170 214 262 294
#     4   9  20  35  51  76 105 139 169 205 270 313
#     4  10  21  36  50  70  99 139 181 216 256 290
#
# _framework density 18.569292000000001
#
# number of rings (size 3 to 8) (size 9 to 14) (size 15 to 20)
#    0.000    2.462    0.769    1.846    3.231    6.154 
#    0.000    0.000    0.000    0.923    0.000    6.462 
#    0.000    0.000    0.000    0.000    0.000    0.000 
#
# Total GULP energy -289493.242140 kJ/mol
# GULP energy per Si atom -5567.177733 kJ/mol
# Density = 1.852703 g / cm^3
# Si number density = 18.569292 Si / 1000 Ang^3
#
#
#
# Elastic Constant Matrix: (Units=GPa)
#
#
# Indices 1 2 3 4 5 6 
#
# 1 19.3641 -0.3211 5.0168 0.0000 0.0000 0.0000
# 2 -0.3211 59.5062 35.2803 0.0000 0.0000 0.0000
# 3 5.0168 35.2803 81.7739 0.0000 0.0000 0.0000
# 4 0.0000 0.0000 0.0000 15.1574 0.0000 0.0000
# 5 0.0000 0.0000 0.0000 0.0000 20.2086 0.0000
# 6 0.0000 0.0000 0.0000 0.0000 0.0000 24.1701
#
#
#
# Elastic Compliance Matrix: (Units=1/GPa)
#
#
# Indices 1 2 3 4 5 6 
#
# 1 0.052863 0.002967 -0.004523 0.000000 0.000000 0.000000
# 2 0.002967 0.022748 -0.009996 0.000000 0.000000 0.000000
# 3 -0.004523 -0.009996 0.016819 0.000000 0.000000 0.000000
# 4 0.000000 0.000000 0.000000 0.065974 0.000000 0.000000
# 5 0.000000 0.000000 0.000000 0.000000 0.049484 0.000000
# 6 0.000000 0.000000 0.000000 0.000000 0.000000 0.041373
#
#
# Mechanical properties :
#
#
# Convention : Reuss Voigt Hill
#
# Bulk Modulus (GPa) = 14.42482 26.73292 20.57887
# Shear Modulus (GPa) = 16.92195 19.95178 18.43687
#
# Velocity S-wave (km/s) = 3.02203 3.28144 3.15440
# Velocity P-wave (km/s) = 4.46787 5.36513 4.93693
#
# Compressibility (1/GPa) = 0.06932496
#
# Stress axis : x y z
#
# Youngs Moduli (GPa) = 18.91678 43.96076 59.45638
#
# Poissons Ratio (x) = -0.13043 0.26893
# Poissons Ratio (y) = -0.05613 0.59434
# Poissons Ratio (z) = 0.08556 0.43944
#
# Static dielectric constant tensor:
#      x y z
#    x 1.701610 0.000000 0.000000 
#    y 0.000000 1.686730 0.000000 
#    z 0.000000 0.000000 1.698030 
# 
# From -- ./inp_files/6685.got.cif
#   From: 2010.05.17/outbox.cif.g08.bks.cpg/sg73_4_cif.got.tgz:6685.got - 2010.06.03 17:35:07.
