data_PCOD9530583
_publ_section_title
;
Structure prediction by ZEFSAII (Michael W. Deem and Ramdas Pophale) SiO2 
 PCOD9530583
Probable space group: I B C A 
;
_chemical_formula_sum "Si O2"
_cell_formula_units_Z 104
_cell_length_a 20.620011
_cell_length_b 25.855114
_cell_length_c 9.543748
_cell_angle_alpha 90.000000
_cell_angle_beta 90.000000
_cell_angle_gamma 90.000000
_cell_volume 5088.084474
_symmetry_space_group_name_H-M "I B C A "
_symmetry_group_IT_number 73
_symmetry_cell_setting 'orthorhombic'
loop_
_space_group_symop_operation_xyz
x,y,z
-x,1/2-y,z
x,-y,1/2-z
1/2-x,y,-z
-x,-y,-z
x,1/2+y,-z
-x,y,1/2+z
1/2+x,-y,z
1/2+x,1/2+y,1/2+z
1/2-x,-y,1/2+z
1/2+x,1/2-y,-z
-x,1/2+y,1/2-z
1/2-x,1/2-y,1/2-z
1/2+x,y,1/2-z
1/2-x,1/2+y,z
x,1/2-y,1/2+z
loop_
_atom_site_type_symbol
_atom_site_label
_atom_site_fract_x
_atom_site_fract_y
_atom_site_fract_z
Si Si1 0.367819 0.622769 0.179833
Si Si2 0.250000 0.885363 0.500000
Si Si3 0.938796 0.859408 0.420963
Si Si4 0.341525 0.971073 0.382462
Si Si5 0.023186 0.691880 0.699252
Si Si6 0.037007 0.554220 0.010261
Si Si7 0.326133 0.577680 0.476768
O O1 0.304550 0.641430 0.094388
O O2 0.415235 0.670384 0.213663
O O3 0.409870 0.578428 0.099029
O O4 0.344841 0.596045 0.322122
O O5 0.294402 0.924155 0.410734
O O6 0.955040 0.815134 0.536739
O O7 0.866892 0.883130 0.423726
O O8 0.965610 0.843063 0.268974
O O9 0.980457 0.904742 0.495236
O O10 0.415090 0.951907 0.357561
O O11 0.314001 0.000000 0.250000
O O12 0.344061 0.017387 0.496782
O O13 0.000000 0.750000 0.721311
O O14 0.000000 0.500000 0.000000
O O15 0.250000 0.582695 0.500000
#
# Coordination Sequence:
#
# PCOD9530583 Si02
#       7
#    16   8  16  16  16  16  16
#     4   9  22  38  59  86 121 160 209 258 312 370
#     4  10  20  36  50  80 122 162 206 238 286 372
#     4  10  22  38  60  92 117 154 199 256 309 377
#     4  11  22  30  50  79 117 170 203 231 282 355
#     4  10  21  42  68  90 113 150 204 268 333 366
#     4  10  20  36  54  85 122 159 196 251 306 359
#     4  11  21  37  54  81 123 166 204 243 290 362
#
# _framework density 20.439912
#
# number of rings (size 3 to 8) (size 9 to 14) (size 15 to 20)
#    0.000    1.846    2.308    1.385    2.154    3.077 
#    5.538    0.000    1.692    1.846    0.000    0.000 
#    0.000    0.000    0.000    0.000    0.000    0.000 
#
# Total GULP energy -289674.795389 kJ/mol
# GULP energy per Si atom -5570.669142 kJ/mol
# Density = 2.039339 g / cm^3
# Si number density = 20.439912 Si / 1000 Ang^3
#
#
#
# Elastic Constant Matrix: (Units=GPa)
#
#
# Indices 1 2 3 4 5 6 
#
# 1 127.7019 36.7254 2.4392 0.0000 0.0000 0.0000
# 2 36.7254 97.5546 5.5139 0.0000 0.0000 0.0000
# 3 2.4392 5.5139 29.3445 0.0000 0.0000 0.0000
# 4 0.0000 0.0000 0.0000 17.2530 0.0000 0.0000
# 5 0.0000 0.0000 0.0000 0.0000 15.1233 0.0000
# 6 0.0000 0.0000 0.0000 0.0000 0.0000 22.2166
#
#
#
# Elastic Compliance Matrix: (Units=1/GPa)
#
#
# Indices 1 2 3 4 5 6 
#
# 1 0.008782 -0.003300 -0.000110 0.000000 0.000000 0.000000
# 2 -0.003300 0.011601 -0.001906 0.000000 0.000000 0.000000
# 3 -0.000110 -0.001906 0.034445 0.000000 0.000000 0.000000
# 4 0.000000 0.000000 0.000000 0.057961 0.000000 0.000000
# 5 0.000000 0.000000 0.000000 0.000000 0.066123 0.000000
# 6 0.000000 0.000000 0.000000 0.000000 0.000000 0.045011
#
#
# Mechanical properties :
#
#
# Convention : Reuss Voigt Hill
#
# Bulk Modulus (GPa) = 22.62594 38.21758 30.42176
# Shear Modulus (GPa) = 20.05730 24.91342 22.48536
#
# Velocity S-wave (km/s) = 3.13594 3.49501 3.32033
# Velocity P-wave (km/s) = 4.91993 5.91818 5.44199
#
# Compressibility (1/GPa) = 0.04419706
#
# Stress axis : x y z
#
# Youngs Moduli (GPa) = 113.87175 86.20240 29.03171
#
# Poissons Ratio (x) = 0.28445 0.00319
# Poissons Ratio (y) = 0.37575 0.05532
# Poissons Ratio (z) = 0.01252 0.16426
#
# Static dielectric constant tensor:
#      x y z
#    x 1.785500 0.000000 0.000000 
#    y 0.000000 1.755880 0.000000 
#    z 0.000000 0.000000 1.834660 
# 
# From -- ./inp_files/6564.got.cif
#   From: 2010.05.17/outbox.cif.g08.bks.cpg/sg73_4_cif.got.tgz:6564.got - 2010.06.03 17:35:07.
