data_PCOD9530323
_publ_section_title
;
Structure prediction by ZEFSAII (Michael W. Deem and Ramdas Pophale) SiO2 
 PCOD9530323
Probable space group: I B C A 
;
_chemical_formula_sum "Si O2"
_cell_formula_units_Z 72
_cell_length_a 14.176563
_cell_length_b 11.358902
_cell_length_c 19.284358
_cell_angle_alpha 90.000000
_cell_angle_beta 90.000000
_cell_angle_gamma 90.000000
_cell_volume 3105.363829
_symmetry_space_group_name_H-M "I B C A "
_symmetry_group_IT_number 73
_symmetry_cell_setting 'orthorhombic'
loop_
_space_group_symop_operation_xyz
x,y,z
-x,1/2-y,z
x,-y,1/2-z
1/2-x,y,-z
-x,-y,-z
x,1/2+y,-z
-x,y,1/2+z
1/2+x,-y,z
1/2+x,1/2+y,1/2+z
1/2-x,-y,1/2+z
1/2+x,1/2-y,-z
-x,1/2+y,1/2-z
1/2-x,1/2-y,1/2-z
1/2+x,y,1/2-z
1/2-x,1/2+y,z
x,1/2-y,1/2+z
loop_
_atom_site_type_symbol
_atom_site_label
_atom_site_fract_x
_atom_site_fract_y
_atom_site_fract_z
Si Si1 0.208719 0.991192 0.149620
Si Si2 0.250000 0.945269 0.000000
Si Si3 0.150047 0.188051 0.253955
Si Si4 0.042210 0.879572 0.964826
Si Si5 0.577761 0.417141 0.307654
O O1 0.149247 0.874572 0.171038
O O2 0.316549 0.968938 0.176080
O O3 0.159540 0.091966 0.193599
O O4 0.218700 0.015490 0.068577
O O5 0.155197 0.875169 0.979598
O O6 0.250000 0.250000 0.250000
O O7 0.085685 0.294420 0.231852
O O8 0.031497 0.900704 0.882304
O O9 0.000000 0.750000 0.983238
O O10 0.000000 0.000000 0.000000
O O11 0.531208 0.500000 0.250000
#
# Coordination Sequence:
#
# PCOD9530323 Si02
#       5
#    16   8  16  16  16
#     4   9  17  33  58 106 135 179 245 291 356 451
#     4  10  24  44  76 106 146 214 230 306 404 434
#     4   9  15  30  58  94 139 171 238 302 340 434
#     4  11  28  51  72 112 156 192 258 314 368 474
#     4  10  19  38  67  98 139 192 235 308 371 429
#
# _framework density 23.185690000000001
#
# number of rings (size 3 to 8) (size 9 to 14) (size 15 to 20)
#    0.000    2.222    4.444    0.000    3.111    2.667 
#    8.000    3.333    0.000    0.000    0.000    0.000 
#    0.000    0.000    0.000    0.000    0.000    0.000 
#
# Total GULP energy -200805.219863 kJ/mol
# GULP energy per Si atom -5577.922774 kJ/mol
# Density = 2.313292 g / cm^3
# Si number density = 23.185690 Si / 1000 Ang^3
#
#
#
# Elastic Constant Matrix: (Units=GPa)
#
#
# Indices 1 2 3 4 5 6 
#
# 1 122.4431 40.5544 16.4849 0.0000 0.0000 0.0000
# 2 40.5544 156.3940 54.2803 0.0000 0.0000 0.0000
# 3 16.4849 54.2803 154.8147 0.0000 0.0000 0.0000
# 4 0.0000 0.0000 0.0000 21.3742 0.0000 0.0000
# 5 0.0000 0.0000 0.0000 0.0000 38.4112 0.0000
# 6 0.0000 0.0000 0.0000 0.0000 0.0000 -10.8743
#
#
#
# Elastic Compliance Matrix: (Units=1/GPa)
#
#
# Indices 1 2 3 4 5 6 
#
# 1 0.008938 -0.002263 -0.000158 0.000000 0.000000 0.000000
# 2 -0.002263 0.007853 -0.002512 0.000000 0.000000 0.000000
# 3 -0.000158 -0.002512 0.007357 0.000000 0.000000 0.000000
# 4 0.000000 0.000000 0.000000 0.046785 0.000000 0.000000
# 5 0.000000 0.000000 0.000000 0.000000 0.026034 0.000000
# 6 0.000000 0.000000 0.000000 0.000000 0.000000 -0.091960
#
#
# Mechanical properties :
#
#
# Convention : Reuss Voigt Hill
#
# Bulk Modulus (GPa) = 70.02404 72.92124 71.47264
# Shear Modulus (GPa) = 254.65693 31.27104 142.96398
#
# Velocity S-wave (km/s) = 10.49153 3.67648 7.86094
# Velocity P-wave (km/s) = 13.30525 7.03855 10.64357
#
# Compressibility (1/GPa) = 0.01428081
#
# Stress axis : x y z
#
# Youngs Moduli (GPa) = 111.88424 127.34270 135.92358
#
# Poissons Ratio (x) = 0.28814 0.02153
# Poissons Ratio (y) = 0.25316 0.34149
# Poissons Ratio (z) = 0.01772 0.31993
#
# Static dielectric constant tensor:
#      x y z
#    x -1.554290 0.000000 0.000000 
#    y 0.000000 1.903500 0.000000 
#    z 0.000000 0.000000 1.819590 
# 
# From -- ./inp_files/25855.got.cif
#   From: 2010.05.17/outbox.cif.g08.bks.cpg/sg73_13_cif.got.tgz:25855.got - 2010.06.03 17:35:07.
