data_PCOD9530829
_publ_section_title
;
Structure prediction by ZEFSAII (Michael W. Deem and Ramdas Pophale) SiO2 
 PCOD9530829
Probable space group: I B C A 
;
_chemical_formula_sum "Si O2"
_cell_formula_units_Z 96
_cell_length_a 8.838317
_cell_length_b 16.963177
_cell_length_c 28.974424
_cell_angle_alpha 90.000000
_cell_angle_beta 90.000000
_cell_angle_gamma 90.000000
_cell_volume 4344.017628
_symmetry_space_group_name_H-M "I B C A "
_symmetry_group_IT_number 73
_symmetry_cell_setting 'orthorhombic'
loop_
_space_group_symop_operation_xyz
x,y,z
-x,1/2-y,z
x,-y,1/2-z
1/2-x,y,-z
-x,-y,-z
x,1/2+y,-z
-x,y,1/2+z
1/2+x,-y,z
1/2+x,1/2+y,1/2+z
1/2-x,-y,1/2+z
1/2+x,1/2-y,-z
-x,1/2+y,1/2-z
1/2-x,1/2-y,1/2-z
1/2+x,y,1/2-z
1/2-x,1/2+y,z
x,1/2-y,1/2+z
loop_
_atom_site_type_symbol
_atom_site_label
_atom_site_fract_x
_atom_site_fract_y
_atom_site_fract_z
Si Si1 0.431680 0.662713 0.399560
Si Si2 0.574020 0.165724 0.917081
Si Si3 0.692386 0.626815 0.256500
Si Si4 0.055737 0.136814 0.184449
Si Si5 0.937710 0.949454 0.689051
Si Si6 0.569535 0.338509 0.007335
O O1 0.500000 0.750000 0.387280
O O2 0.255035 0.669883 0.414154
O O3 0.436951 0.601258 0.357565
O O4 0.526196 0.627514 0.442659
O O5 0.500000 0.250000 0.925586
O O6 0.504599 0.147352 0.867059
O O7 0.513232 0.121649 0.963129
O O8 0.570770 0.663085 0.221379
O O9 0.595880 0.565664 0.286075
O O10 0.787692 0.673190 0.295772
O O11 0.812854 0.587708 0.222509
O O12 0.081070 0.042422 0.185307
O O13 0.500000 0.250000 0.013403
O O14 0.750000 0.335544 0.000000
#
# Coordination Sequence:
#
# PCOD9530829 Si02
#       6
#    16  16  16  16  16  16
#     4  11  23  40  61  90 121 155 194 242 296 352
#     4  11  23  40  61  90 121 155 194 242 296 352
#     4  10  21  38  61  86 117 160 205 240 285 350
#     4  11  21  38  63  88 116 157 203 245 288 343
#     4  11  21  38  63  88 116 157 203 245 288 343
#     4  10  20  38  63  86 113 156 196 236 292 360
#
# _framework density 22.099357999999999
#
# number of rings (size 3 to 8) (size 9 to 14) (size 15 to 20)
#    0.000    1.333    1.667    8.500    4.667    0.000 
#    0.000    5.833    0.000    0.000    0.000    0.000 
#    0.000    0.000    0.000    0.000    0.000    0.000 
#
# Total GULP energy -267733.760487 kJ/mol
# GULP energy per Si atom -5577.786677 kJ/mol
# Density = 2.204906 g / cm^3
# Si number density = 22.099358 Si / 1000 Ang^3
#
#
#
# Elastic Constant Matrix: (Units=GPa)
#
#
# Indices 1 2 3 4 5 6 
#
# 1 150.8520 9.8426 63.6910 0.0000 0.0000 0.0000
# 2 9.8426 39.0326 22.4489 0.0000 0.0000 0.0000
# 3 63.6910 22.4489 161.8186 0.0000 0.0000 0.0000
# 4 0.0000 0.0000 0.0000 21.6774 0.0000 0.0000
# 5 0.0000 0.0000 0.0000 0.0000 -8.4870 0.0000
# 6 0.0000 0.0000 0.0000 0.0000 0.0000 12.0717
#
#
#
# Elastic Compliance Matrix: (Units=1/GPa)
#
#
# Indices 1 2 3 4 5 6 
#
# 1 0.007952 -0.000223 -0.003099 0.000000 0.000000 0.000000
# 2 -0.000223 0.027847 -0.003775 0.000000 0.000000 0.000000
# 3 -0.003099 -0.003775 0.007923 0.000000 0.000000 0.000000
# 4 0.000000 0.000000 0.000000 0.046131 0.000000 0.000000
# 5 0.000000 0.000000 0.000000 0.000000 -0.117828 0.000000
# 6 0.000000 0.000000 0.000000 0.000000 0.000000 0.082839
#
#
# Mechanical properties :
#
#
# Convention : Reuss Voigt Hill
#
# Bulk Modulus (GPa) = 33.86637 60.40757 47.13697
# Shear Modulus (GPa) = 63.36989 22.10046 42.73517
#
# Velocity S-wave (km/s) = 5.36071 3.16579 4.40224
# Velocity P-wave (km/s) = 7.32627 6.38411 6.87135
#
# Compressibility (1/GPa) = 0.02952782
#
# Stress axis : x y z
#
# Youngs Moduli (GPa) = 125.75531 35.91023 126.21085
#
# Poissons Ratio (x) = 0.00800 0.39112
# Poissons Ratio (y) = 0.02803 0.47651
# Poissons Ratio (z) = 0.38971 0.13558
#
# Static dielectric constant tensor:
#      x y z
#    x 1.832430 0.000000 0.000000 
#    y 0.000000 1.834150 0.000000 
#    z 0.000000 0.000000 1.980120 
# 
# From -- ./inp_files/27500.got.cif
#   From: 2010.05.17/outbox.cif.g08.bks.cpg/sg73_14_cif.got.tgz:27500.got - 2010.06.03 17:35:07.
