data_PCOD9530365
_publ_section_title
;
Structure prediction by ZEFSAII (Michael W. Deem and Ramdas Pophale) SiO2 
 PCOD9530365
Probable space group: I B C A 
;
_chemical_formula_sum "Si O2"
_cell_formula_units_Z 96
_cell_length_a 14.116326
_cell_length_b 19.500748
_cell_length_c 13.929404
_cell_angle_alpha 90.000000
_cell_angle_beta 90.000000
_cell_angle_gamma 90.000000
_cell_volume 3834.471234
_symmetry_space_group_name_H-M "I B C A "
_symmetry_group_IT_number 73
_symmetry_cell_setting 'orthorhombic'
loop_
_space_group_symop_operation_xyz
x,y,z
-x,1/2-y,z
x,-y,1/2-z
1/2-x,y,-z
-x,-y,-z
x,1/2+y,-z
-x,y,1/2+z
1/2+x,-y,z
1/2+x,1/2+y,1/2+z
1/2-x,-y,1/2+z
1/2+x,1/2-y,-z
-x,1/2+y,1/2-z
1/2-x,1/2-y,1/2-z
1/2+x,y,1/2-z
1/2-x,1/2+y,z
x,1/2-y,1/2+z
loop_
_atom_site_type_symbol
_atom_site_label
_atom_site_fract_x
_atom_site_fract_y
_atom_site_fract_z
Si Si1 0.955927 0.321929 0.625790
Si Si2 0.146997 0.476118 0.977976
Si Si3 0.147436 0.374255 0.606406
Si Si4 0.648510 0.259103 0.531908
Si Si5 0.661381 0.335209 0.199636
Si Si6 0.471548 0.037600 0.148357
O O1 0.927936 0.309455 0.515141
O O2 0.863619 0.331791 0.689104
O O3 0.000000 0.250000 0.659850
O O4 0.040298 0.374371 0.643895
O O5 0.168200 0.552159 0.936786
O O6 0.073412 0.446244 0.899888
O O7 0.250000 0.444618 0.000000
O O8 0.086826 0.488523 0.074782
O O9 0.144808 0.313547 0.527155
O O10 0.230392 0.354790 0.678951
O O11 0.750000 0.286741 0.500000
O O12 0.641728 0.235314 0.641376
O O13 0.591902 0.394244 0.159547
O O14 0.480043 0.000000 0.250000
#
# Coordination Sequence:
#
# PCOD9530365 Si02
#       6
#    16  16  16  16  16  16
#     4  10  23  37  62  99 131 167 223 278 313 400
#     4  11  21  43  70  96 136 174 221 273 334 404
#     4  10  19  40  66  92 133 178 212 270 339 400
#     4   9  19  37  64  89 125 176 216 269 332 397
#     4  11  21  43  67  92 132 180 216 268 341 391
#     4  11  24  40  71 102 127 176 225 273 333 403
#
# _framework density 25.036045999999999
#
# number of rings (size 3 to 8) (size 9 to 14) (size 15 to 20)
#    0.000    1.667    3.333    1.500    0.000    8.667 
#    3.000    1.667    0.000    4.000    0.000    0.000 
#    0.000    0.000    0.000    0.000    0.000    0.000 
#
# Total GULP energy -268666.824797 kJ/mol
# GULP energy per Si atom -5597.225517 kJ/mol
# Density = 2.497906 g / cm^3
# Si number density = 25.036046 Si / 1000 Ang^3
#
#
#
# Elastic Constant Matrix: (Units=GPa)
#
#
# Indices 1 2 3 4 5 6 
#
# 1 173.7608 40.7145 57.1553 0.0000 0.0000 0.0000
# 2 40.7145 72.8951 32.1673 0.0000 0.0000 0.0000
# 3 57.1553 32.1673 117.5131 0.0000 0.0000 0.0000
# 4 0.0000 0.0000 0.0000 17.3258 0.0000 0.0000
# 5 0.0000 0.0000 0.0000 0.0000 52.7342 0.0000
# 6 0.0000 0.0000 0.0000 0.0000 0.0000 24.2717
#
#
#
# Elastic Compliance Matrix: (Units=1/GPa)
#
#
# Indices 1 2 3 4 5 6 
#
# 1 0.007345 -0.002873 -0.002786 0.000000 0.000000 0.000000
# 2 -0.002873 0.016727 -0.003181 0.000000 0.000000 0.000000
# 3 -0.002786 -0.003181 0.010735 0.000000 0.000000 0.000000
# 4 0.000000 0.000000 0.000000 0.057718 0.000000 0.000000
# 5 0.000000 0.000000 0.000000 0.000000 0.018963 0.000000
# 6 0.000000 0.000000 0.000000 0.000000 0.000000 0.041200
#
#
# Mechanical properties :
#
#
# Convention : Reuss Voigt Hill
#
# Bulk Modulus (GPa) = 58.38827 69.36034 63.87431
# Shear Modulus (GPa) = 28.39671 34.47512 31.43592
#
# Velocity S-wave (km/s) = 3.37149 3.71485 3.54733
# Velocity P-wave (km/s) = 6.20711 6.79444 6.50741
#
# Compressibility (1/GPa) = 0.01712673
#
# Stress axis : x y z
#
# Youngs Moduli (GPa) = 136.15601 59.78412 93.14903
#
# Poissons Ratio (x) = 0.17175 0.25949
# Poissons Ratio (y) = 0.39116 0.29635
# Poissons Ratio (z) = 0.37930 0.19020
#
# Static dielectric constant tensor:
#      x y z
#    x 2.036630 0.000000 0.000000 
#    y 0.000000 2.021720 0.000000 
#    z 0.000000 0.000000 1.978860 
# 
# From -- ./inp_files/17085.got.cif
#   From: 2010.05.17/outbox.cif.g08.bks.cpg/sg73_9_cif.got.tgz:17085.got - 2010.06.03 17:35:07.
