data_PCOD9530138
_publ_section_title
;
Structure prediction by ZEFSAII (Michael W. Deem and Ramdas Pophale) SiO2 
 PCOD9530138
Probable space group: I B C A 
;
_chemical_formula_sum "Si O2"
_cell_formula_units_Z 72
_cell_length_a 5.348729
_cell_length_b 30.713205
_cell_length_c 23.487768
_cell_angle_alpha 90.000000
_cell_angle_beta 90.000000
_cell_angle_gamma 90.000000
_cell_volume 3858.490910
_symmetry_space_group_name_H-M "I B C A "
_symmetry_group_IT_number 73
_symmetry_cell_setting 'orthorhombic'
loop_
_space_group_symop_operation_xyz
x,y,z
-x,1/2-y,z
x,-y,1/2-z
1/2-x,y,-z
-x,-y,-z
x,1/2+y,-z
-x,y,1/2+z
1/2+x,-y,z
1/2+x,1/2+y,1/2+z
1/2-x,-y,1/2+z
1/2+x,1/2-y,-z
-x,1/2+y,1/2-z
1/2-x,1/2-y,1/2-z
1/2+x,y,1/2-z
1/2-x,1/2+y,z
x,1/2-y,1/2+z
loop_
_atom_site_type_symbol
_atom_site_label
_atom_site_fract_x
_atom_site_fract_y
_atom_site_fract_z
Si Si1 0.248324 0.769435 0.314133
Si Si2 0.000000 0.750000 0.535082
Si Si3 0.657660 0.663363 0.394824
Si Si4 0.963575 0.482497 0.565112
Si Si5 0.670484 0.119007 0.935497
O O1 0.500000 0.750000 0.338043
O O2 0.250000 0.750000 0.250000
O O3 0.272207 0.819615 0.330867
O O4 0.000000 0.750000 0.341833
O O5 0.250000 0.737418 0.500000
O O6 0.090700 0.793874 0.567807
O O7 0.409021 0.633861 0.397865
O O8 0.908955 0.641740 0.419326
O O9 0.236805 0.489825 0.591319
O O10 0.000000 0.500000 0.500000
O O11 0.880976 0.432622 0.566439
O O12 0.750000 0.129414 0.000000
#
# Coordination Sequence:
#
# PCOD9530138 Si02
#       5
#    16   8  16  16  16
#     4  10  21  40  62  78  99 145 196 242 295 341
#     4  12  24  38  48  70 112 162 192 220 270 336
#     4  12  24  36  54  78 112 146 204 236 285 326
#     4  10  19  34  54  72 104 149 210 224 276 343
#     4  12  23  35  52  82 113 155 197 245 272 324
#
# _framework density 18.660145
#
# number of rings (size 3 to 8) (size 9 to 14) (size 15 to 20)
#    0.000    0.889    3.333    6.667    4.667    0.000 
#    0.000    0.000    0.000    0.000    0.000    0.000 
#    0.000    0.000    0.000  280.000    0.000    0.000 
#
# Total GULP energy -200427.880614 kJ/mol
# GULP energy per Si atom -5567.441128 kJ/mol
# Density = 1.861767 g / cm^3
# Si number density = 18.660145 Si / 1000 Ang^3
#
#
#
# Elastic Constant Matrix: (Units=GPa)
#
#
# Indices 1 2 3 4 5 6 
#
# 1 209.9795 67.5904 28.7644 0.0000 0.0000 0.0000
# 2 67.5904 132.1447 42.1733 0.0000 0.0000 0.0000
# 3 28.7644 42.1733 47.7459 0.0000 0.0000 0.0000
# 4 0.0000 0.0000 0.0000 14.9135 0.0000 0.0000
# 5 0.0000 0.0000 0.0000 0.0000 -63.7682 0.0000
# 6 0.0000 0.0000 0.0000 0.0000 0.0000 44.5163
#
#
#
# Elastic Compliance Matrix: (Units=1/GPa)
#
#
# Indices 1 2 3 4 5 6 
#
# 1 0.005750 -0.002556 -0.001206 0.000000 0.000000 0.000000
# 2 -0.002556 0.011674 -0.008772 0.000000 0.000000 0.000000
# 3 -0.001206 -0.008772 0.029419 0.000000 0.000000 0.000000
# 4 0.000000 0.000000 0.000000 0.067053 0.000000 0.000000
# 5 0.000000 0.000000 0.000000 0.000000 -0.015682 0.000000
# 6 0.000000 0.000000 0.000000 0.000000 0.000000 0.022464
#
#
# Mechanical properties :
#
#
# Convention : Reuss Voigt Hill
#
# Bulk Modulus (GPa) = 45.92449 74.10292 60.01371
# Shear Modulus (GPa) = 32.67826 15.88844 24.28335
#
# Velocity S-wave (km/s) = 4.18931 2.92115 3.61133
# Velocity P-wave (km/s) = 6.93289 7.15371 7.04416
#
# Compressibility (1/GPa) = 0.02177487
#
# Stress axis : x y z
#
# Youngs Moduli (GPa) = 173.89875 85.65703 33.99149
#
# Poissons Ratio (x) = 0.21896 0.04101
# Poissons Ratio (y) = 0.44453 0.29817
# Poissons Ratio (z) = 0.20980 0.75137
#
# Static dielectric constant tensor:
#      x y z
#    x 1.730130 0.000000 0.000000 
#    y 0.000000 1.669810 0.000000 
#    z 0.000000 0.000000 2.086160 
# 
# From -- ./inp_files/28016.got.cif
#   From: 2010.05.17/outbox.cif.g08.bks.cpg/sg73_15_cif.got.tgz:28016.got - 2010.06.03 17:35:07.
