data_PCOD9530180
_publ_section_title
;
Structure prediction by ZEFSAII (Michael W. Deem and Ramdas Pophale) SiO2 
 PCOD9530180
Probable space group: I B C A 
;
_chemical_formula_sum "Si O2"
_cell_formula_units_Z 112
_cell_length_a 23.190345
_cell_length_b 23.093208
_cell_length_c 11.480812
_cell_angle_alpha 90.000000
_cell_angle_beta 90.000000
_cell_angle_gamma 90.000000
_cell_volume 6148.427867
_symmetry_space_group_name_H-M "I B C A "
_symmetry_group_IT_number 73
_symmetry_cell_setting 'orthorhombic'
loop_
_space_group_symop_operation_xyz
x,y,z
-x,1/2-y,z
x,-y,1/2-z
1/2-x,y,-z
-x,-y,-z
x,1/2+y,-z
-x,y,1/2+z
1/2+x,-y,z
1/2+x,1/2+y,1/2+z
1/2-x,-y,1/2+z
1/2+x,1/2-y,-z
-x,1/2+y,1/2-z
1/2-x,1/2-y,1/2-z
1/2+x,y,1/2-z
1/2-x,1/2+y,z
x,1/2-y,1/2+z
loop_
_atom_site_type_symbol
_atom_site_label
_atom_site_fract_x
_atom_site_fract_y
_atom_site_fract_z
Si Si1 0.721128 0.675239 0.626891
Si Si2 0.917168 0.845181 0.444554
Si Si3 0.493536 0.066894 0.029382
Si Si4 0.002374 0.152894 0.775997
Si Si5 0.178421 0.800189 0.789437
Si Si6 0.401292 0.139419 0.883814
Si Si7 0.913442 0.230376 0.412536
O O1 0.750000 0.669468 0.500000
O O2 0.769332 0.667460 0.725975
O O3 0.700746 0.742093 0.646919
O O4 0.666458 0.632477 0.640204
O O5 0.963110 0.833152 0.342042
O O6 0.856377 0.840978 0.378523
O O7 0.916792 0.795003 0.540113
O O8 0.945257 0.902674 0.497488
O O9 0.483888 0.091203 0.161281
O O10 0.440479 0.091701 0.950697
O O11 0.500000 0.000000 0.000000
O O12 0.029455 0.199302 0.863360
O O13 0.936893 0.154353 0.732311
O O14 0.135114 0.779314 0.686041
O O15 0.400367 0.193113 0.972530
#
# Coordination Sequence:
#
# PCOD9530180 Si02
#       7
#    16  16  16  16  16  16  16
#     4  11  20  35  55  83 117 157 196 227 280 352
#     4  10  20  34  54  85 118 147 188 237 286 357
#     4  10  23  40  59  83 108 152 197 249 298 345
#     4   9  22  35  55  83 116 152 181 239 295 354
#     4  10  20  34  54  82 120 158 187 231 281 352
#     4  10  20  36  55  86 115 146 193 235 288 361
#     4  10  19  35  53  84 122 150 186 221 297 361
#
# _framework density 18.216038999999999
#
# number of rings (size 3 to 8) (size 9 to 14) (size 15 to 20)
#    0.000    2.000    2.857    0.000    2.000    8.571 
#    0.000    0.000    0.000    0.000    7.429    0.000 
#    0.000    0.000    0.000    0.000    0.000    0.000 
#
# Total GULP energy -311963.143038 kJ/mol
# GULP energy per Si atom -5570.770411 kJ/mol
# Density = 1.817458 g / cm^3
# Si number density = 18.216039 Si / 1000 Ang^3
#
#
#
# Elastic Constant Matrix: (Units=GPa)
#
#
# Indices 1 2 3 4 5 6 
#
# 1 130.2638 25.4838 36.5512 0.0000 0.0000 0.0000
# 2 25.4838 80.1679 15.3107 0.0000 0.0000 0.0000
# 3 36.5512 15.3107 83.8965 0.0000 0.0000 0.0000
# 4 0.0000 0.0000 0.0000 -2.6819 0.0000 0.0000
# 5 0.0000 0.0000 0.0000 0.0000 46.0431 0.0000
# 6 0.0000 0.0000 0.0000 0.0000 0.0000 10.2350
#
#
#
# Elastic Compliance Matrix: (Units=1/GPa)
#
#
# Indices 1 2 3 4 5 6 
#
# 1 0.009110 -0.002215 -0.003565 0.000000 0.000000 0.000000
# 2 -0.002215 0.013463 -0.001492 0.000000 0.000000 0.000000
# 3 -0.003565 -0.001492 0.013745 0.000000 0.000000 0.000000
# 4 0.000000 0.000000 0.000000 -0.372875 0.000000 0.000000
# 5 0.000000 0.000000 0.000000 0.000000 0.021719 0.000000
# 6 0.000000 0.000000 0.000000 0.000000 0.000000 0.097704
#
#
# Mechanical properties :
#
#
# Convention : Reuss Voigt Hill
#
# Bulk Modulus (GPa) = 45.92559 49.89104 47.90831
# Shear Modulus (GPa) = -25.59734 25.18476 -0.20629
#
# Velocity S-wave (km/s) = -3.75268 3.72231 -0.33689
# Velocity P-wave (km/s) = 2.54746 6.77659 5.11916
#
# Compressibility (1/GPa) = 0.02177435
#
# Stress axis : x y z
#
# Youngs Moduli (GPa) = 109.76513 74.27821 72.75484
#
# Poissons Ratio (x) = 0.16454 0.25936
# Poissons Ratio (y) = 0.24315 0.10854
# Poissons Ratio (z) = 0.39130 0.11081
#
# Static dielectric constant tensor:
#      x y z
#    x 1.610250 0.000000 0.000000 
#    y 0.000000 1.617720 0.000000 
#    z 0.000000 0.000000 1.686590 
# 
# From -- ./inp_files/13891.got.cif
#   From: 2010.05.17/outbox.cif.g08.bks.cpg/sg73_7_cif.got.tgz:13891.got - 2010.06.03 17:35:07.
