data_PCOD9530985
_publ_section_title
;
Structure prediction by ZEFSAII (Michael W. Deem and Ramdas Pophale) SiO2 
 PCOD9530985
Probable space group: I B C A 
;
_chemical_formula_sum "Si O2"
_cell_formula_units_Z 72
_cell_length_a 21.680422
_cell_length_b 15.313832
_cell_length_c 9.355078
_cell_angle_alpha 90.000000
_cell_angle_beta 90.000000
_cell_angle_gamma 90.000000
_cell_volume 3105.982629
_symmetry_space_group_name_H-M "I B C A "
_symmetry_group_IT_number 73
_symmetry_cell_setting 'orthorhombic'
loop_
_space_group_symop_operation_xyz
x,y,z
-x,1/2-y,z
x,-y,1/2-z
1/2-x,y,-z
-x,-y,-z
x,1/2+y,-z
-x,y,1/2+z
1/2+x,-y,z
1/2+x,1/2+y,1/2+z
1/2-x,-y,1/2+z
1/2+x,1/2-y,-z
-x,1/2+y,1/2-z
1/2-x,1/2-y,1/2-z
1/2+x,y,1/2-z
1/2-x,1/2+y,z
x,1/2-y,1/2+z
loop_
_atom_site_type_symbol
_atom_site_label
_atom_site_fract_x
_atom_site_fract_y
_atom_site_fract_z
Si Si1 0.702781 0.327608 0.711818
Si Si2 0.518301 0.149497 0.402878
Si Si3 0.750000 0.027505 0.000000
Si Si4 0.084522 0.609884 0.606029
Si Si5 0.638725 0.574519 0.532230
O O1 0.750000 0.250000 0.750000
O O2 0.735950 0.406146 0.629004
O O3 0.639753 0.317938 0.614830
O O4 0.673077 0.362317 0.857368
O O5 0.500000 0.250000 0.406358
O O6 0.541225 0.124582 0.244292
O O7 0.456995 0.106492 0.464833
O O8 0.575764 0.123864 0.506597
O O9 0.695079 0.964804 0.943083
O O10 0.115509 0.515194 0.605350
#
# Coordination Sequence:
#
# PCOD9530985 Si02
#       5
#    16  16   8  16  16
#     4  10  22  40  63  94 129 168 216 277 333 384
#     4  11  22  39  62  93 129 167 213 267 323 386
#     4  10  20  40  66  90 122 170 216 260 328 404
#     4  10  22  42  64  91 129 171 213 265 327 397
#     4  10  23  42  62  88 127 168 213 269 331 397
#
# _framework density 23.181070999999999
#
# number of rings (size 3 to 8) (size 9 to 14) (size 15 to 20)
#    0.000    1.778    0.000    7.333    0.000    9.778 
#    0.000    8.889    0.000    0.000    0.000    0.000 
#    0.000    0.000    0.000    0.000    0.000    0.000 
#
# Total GULP energy -200467.148383 kJ/mol
# GULP energy per Si atom -5568.531900 kJ/mol
# Density = 2.312831 g / cm^3
# Si number density = 23.181071 Si / 1000 Ang^3
#
#
#
# Elastic Constant Matrix: (Units=GPa)
#
#
# Indices 1 2 3 4 5 6 
#
# 1 160.4577 70.9813 36.0158 0.0000 0.0000 0.0000
# 2 70.9813 109.4398 8.6540 0.0000 0.0000 0.0000
# 3 36.0158 8.6540 19.1844 0.0000 0.0000 0.0000
# 4 0.0000 0.0000 0.0000 12.9802 0.0000 0.0000
# 5 0.0000 0.0000 0.0000 0.0000 42.6236 0.0000
# 6 0.0000 0.0000 0.0000 0.0000 0.0000 62.4368
#
#
#
# Elastic Compliance Matrix: (Units=1/GPa)
#
#
# Indices 1 2 3 4 5 6 
#
# 1 0.015514 -0.008046 -0.025496 0.000000 0.000000 0.000000
# 2 -0.008046 0.013649 0.008949 0.000000 0.000000 0.000000
# 3 -0.025496 0.008949 0.095954 0.000000 0.000000 0.000000
# 4 0.000000 0.000000 0.000000 0.077040 0.000000 0.000000
# 5 0.000000 0.000000 0.000000 0.000000 0.023461 0.000000
# 6 0.000000 0.000000 0.000000 0.000000 0.000000 0.016016
#
#
# Mechanical properties :
#
#
# Convention : Reuss Voigt Hill
#
# Bulk Modulus (GPa) = 13.17008 57.82045 35.49526
# Shear Modulus (GPa) = 15.81619 35.17018 25.49318
#
# Velocity S-wave (km/s) = 2.61490 3.89934 3.31983
# Velocity P-wave (km/s) = 3.84846 6.72832 5.48092
#
# Compressibility (1/GPa) = 0.07592970
#
# Stress axis : x y z
#
# Youngs Moduli (GPa) = 64.45623 73.26785 10.42166
#
# Poissons Ratio (x) = 0.58954 0.26571
# Poissons Ratio (y) = 0.51864 -0.09326
# Poissons Ratio (z) = 1.64339 -0.65567
#
# Static dielectric constant tensor:
#      x y z
#    x 2.038390 0.000000 0.000000 
#    y 0.000000 1.774970 0.000000 
#    z 0.000000 0.000000 1.983610 
# 
# From -- ./inp_files/12556.got.cif
#   From: 2010.05.17/outbox.cif.g08.bks.cpg/sg73_7_cif.got.tgz:12556.got - 2010.06.03 17:35:07.
