data_PCOD9530201
_publ_section_title
;
Structure prediction by ZEFSAII (Michael W. Deem and Ramdas Pophale) SiO2 
 PCOD9530201
Probable space group: I B C A 
;
_chemical_formula_sum "Si O2"
_cell_formula_units_Z 112
_cell_length_a 32.076629
_cell_length_b 5.274712
_cell_length_c 27.397671
_cell_angle_alpha 90.000000
_cell_angle_beta 90.000000
_cell_angle_gamma 90.000000
_cell_volume 4635.548394
_symmetry_space_group_name_H-M "I B C A "
_symmetry_group_IT_number 73
_symmetry_cell_setting 'orthorhombic'
loop_
_space_group_symop_operation_xyz
x,y,z
-x,1/2-y,z
x,-y,1/2-z
1/2-x,y,-z
-x,-y,-z
x,1/2+y,-z
-x,y,1/2+z
1/2+x,-y,z
1/2+x,1/2+y,1/2+z
1/2-x,-y,1/2+z
1/2+x,1/2-y,-z
-x,1/2+y,1/2-z
1/2-x,1/2-y,1/2-z
1/2+x,y,1/2-z
1/2-x,1/2+y,z
x,1/2-y,1/2+z
loop_
_atom_site_type_symbol
_atom_site_label
_atom_site_fract_x
_atom_site_fract_y
_atom_site_fract_z
Si Si1 0.847306 0.500000 0.250000
Si Si2 0.000000 0.250000 0.783919
Si Si3 0.723723 0.875137 0.064990
Si Si4 0.860656 0.391308 0.446440
Si Si5 0.387341 0.599708 0.602335
Si Si6 0.440573 0.110331 0.483037
Si Si7 0.089456 0.643959 0.199216
Si Si8 0.222763 0.839931 0.318931
O O1 0.876782 0.644595 0.212011
O O2 0.816757 0.668442 0.283484
O O3 0.003803 0.500000 0.750000
O O4 0.956848 0.260284 0.813715
O O5 0.742280 0.596818 0.055795
O O6 0.682639 0.979469 0.037887
O O7 0.712561 0.862228 0.123170
O O8 0.856413 0.119169 0.419445
O O9 0.895123 0.356572 0.488817
O O10 0.877938 0.609129 0.409993
O O11 0.429879 0.545590 0.572231
O O12 0.393511 0.540323 0.658144
O O13 0.460657 0.881223 0.511387
O O14 0.084179 0.500000 0.250000
O O15 0.251014 0.595151 0.309639
#
# Coordination Sequence:
#
# PCOD9530201 Si02
#       8
#     8   8  16  16  16  16  16  16
#     4  12  24  38  60  84 114 156 214 248 292 364
#     4  10  22  46  62  84 130 166 192 252 308 352
#     4  10  20  33  50  74 105 148 190 235 296 361
#     4  10  19  35  59  85 115 147 191 251 304 345
#     4  10  21  35  59  85 114 146 191 242 289 352
#     4   8  16  32  54  81 109 144 180 235 300 344
#     4  11  26  39  63  93 124 161 206 247 303 361
#     4  10  23  38  54  77 116 155 196 253 306 340
#
# _framework density 24.161110000000001
#
# number of rings (size 3 to 8) (size 9 to 14) (size 15 to 20)
#    0.000    2.000    0.714    2.143    6.000    1.143 
#    0.000    0.000    0.000   23.143    0.000    9.000 
#    0.000    0.000    0.000    0.000    0.000    0.000 
#
# Total GULP energy -313069.328601 kJ/mol
# GULP energy per Si atom -5590.523725 kJ/mol
# Density = 2.410612 g / cm^3
# Si number density = 24.161110 Si / 1000 Ang^3
#
#
#
# Elastic Constant Matrix: (Units=GPa)
#
#
# Indices 1 2 3 4 5 6 
#
# 1 90.3519 1.7428 18.9094 0.0000 0.0000 0.0000
# 2 1.7428 119.8517 7.9425 0.0000 0.0000 0.0000
# 3 18.9094 7.9425 105.2916 0.0000 0.0000 0.0000
# 4 0.0000 0.0000 0.0000 20.6772 0.0000 0.0000
# 5 0.0000 0.0000 0.0000 0.0000 -37.3923 0.0000
# 6 0.0000 0.0000 0.0000 0.0000 0.0000 23.5650
#
#
#
# Elastic Compliance Matrix: (Units=1/GPa)
#
#
# Indices 1 2 3 4 5 6 
#
# 1 0.011500 -0.000031 -0.002063 0.000000 0.000000 0.000000
# 2 -0.000031 0.008386 -0.000627 0.000000 0.000000 0.000000
# 3 -0.002063 -0.000627 0.009915 0.000000 0.000000 0.000000
# 4 0.000000 0.000000 0.000000 0.048363 0.000000 0.000000
# 5 0.000000 0.000000 0.000000 0.000000 -0.026743 0.000000
# 6 0.000000 0.000000 0.000000 0.000000 0.000000 0.042436
#
#
# Mechanical properties :
#
#
# Convention : Reuss Voigt Hill
#
# Bulk Modulus (GPa) = 41.05117 41.40939 41.23028
# Shear Modulus (GPa) = 46.54747 20.49665 33.52206
#
# Velocity S-wave (km/s) = 4.39400 2.91577 3.72887
# Velocity P-wave (km/s) = 6.53992 5.33964 5.97002
#
# Compressibility (1/GPa) = 0.02435984
#
# Stress axis : x y z
#
# Youngs Moduli (GPa) = 86.95506 119.25142 100.85485
#
# Poissons Ratio (x) = 0.00364 0.20807
# Poissons Ratio (y) = 0.00265 0.06324
# Poissons Ratio (z) = 0.17939 0.07478
#
# Static dielectric constant tensor:
#      x y z
#    x 2.028190 0.000000 0.000000 
#    y 0.000000 1.891400 0.000000 
#    z 0.000000 0.000000 1.945130 
# 
# From -- ./inp_files/34944.got.cif
#   From: 2010.05.17/outbox.cif.g08.bks.cpg/sg73_18_cif.got.tgz:34944.got - 2010.06.03 17:35:07.
