data_PCOD9530380
_publ_section_title
;
Structure prediction by ZEFSAII (Michael W. Deem and Ramdas Pophale) SiO2 
 PCOD9530380
Probable space group: I B C A 
;
_chemical_formula_sum "Si O2"
_cell_formula_units_Z 96
_cell_length_a 16.091887
_cell_length_b 13.162739
_cell_length_c 22.456992
_cell_angle_alpha 90.000000
_cell_angle_beta 90.000000
_cell_angle_gamma 90.000000
_cell_volume 4756.689777
_symmetry_space_group_name_H-M "I B C A "
_symmetry_group_IT_number 73
_symmetry_cell_setting 'orthorhombic'
loop_
_space_group_symop_operation_xyz
x,y,z
-x,1/2-y,z
x,-y,1/2-z
1/2-x,y,-z
-x,-y,-z
x,1/2+y,-z
-x,y,1/2+z
1/2+x,-y,z
1/2+x,1/2+y,1/2+z
1/2-x,-y,1/2+z
1/2+x,1/2-y,-z
-x,1/2+y,1/2-z
1/2-x,1/2-y,1/2-z
1/2+x,y,1/2-z
1/2-x,1/2+y,z
x,1/2-y,1/2+z
loop_
_atom_site_type_symbol
_atom_site_label
_atom_site_fract_x
_atom_site_fract_y
_atom_site_fract_z
Si Si1 0.229185 0.240658 0.152939
Si Si2 0.863966 0.592310 0.597336
Si Si3 0.327289 0.128225 0.454699
Si Si4 0.020364 0.393449 0.968688
Si Si5 0.831586 0.386988 0.258766
Si Si6 0.483021 0.128935 0.660452
O O1 0.292963 0.165449 0.119892
O O2 0.182222 0.301282 0.102235
O O3 0.172938 0.174166 0.197193
O O4 0.279880 0.320620 0.193688
O O5 0.832117 0.488592 0.568435
O O6 0.928755 0.645607 0.550727
O O7 0.927723 0.574524 0.652831
O O8 0.250000 0.139151 0.500000
O O9 0.413139 0.154494 0.487897
O O10 0.060933 0.400018 0.902600
O O11 0.000000 0.500000 0.000000
O O12 0.796445 0.500000 0.250000
O O13 0.923704 0.397124 0.285644
O O14 0.500000 0.250000 0.661804
#
# Coordination Sequence:
#
# PCOD9530380 Si02
#       6
#    16  16  16  16  16  16
#     4  11  23  41  67  95 133 170 222 272 333 400
#     4   9  21  42  64  91 125 180 214 258 342 406
#     4  11  22  38  64 101 137 167 217 278 329 403
#     4   8  18  37  64  87 124 172 209 259 330 396
#     4  11  23  42  64  94 127 174 223 278 325 384
#     4  10  19  41  66  84 123 177 217 256 331 396
#
# _framework density 20.182102
#
# number of rings (size 3 to 8) (size 9 to 14) (size 15 to 20)
#    1.000    1.000    1.667    2.000    0.000    0.667 
#    3.000    4.167    3.667    0.000    0.000    0.000 
#    0.000    0.000    0.000    0.000    0.000    0.000 
#
# Total GULP energy -267433.303370 kJ/mol
# GULP energy per Si atom -5571.527154 kJ/mol
# Density = 2.013617 g / cm^3
# Si number density = 20.182102 Si / 1000 Ang^3
#
#
#
# Elastic Constant Matrix: (Units=GPa)
#
#
# Indices 1 2 3 4 5 6 
#
# 1 68.3907 26.2065 72.5681 0.0000 0.0000 0.0000
# 2 26.2065 96.8782 73.5909 0.0000 0.0000 0.0000
# 3 72.5681 73.5909 134.3337 0.0000 0.0000 0.0000
# 4 0.0000 0.0000 0.0000 34.2615 0.0000 0.0000
# 5 0.0000 0.0000 0.0000 0.0000 15.7878 0.0000
# 6 0.0000 0.0000 0.0000 0.0000 0.0000 -6.1916
#
#
#
# Elastic Compliance Matrix: (Units=1/GPa)
#
#
# Indices 1 2 3 4 5 6 
#
# 1 0.038545 0.009232 -0.025880 0.000000 0.000000 0.000000
# 2 0.009232 0.019890 -0.015884 0.000000 0.000000 0.000000
# 3 -0.025880 -0.015884 0.030126 0.000000 0.000000 0.000000
# 4 0.000000 0.000000 0.000000 0.029187 0.000000 0.000000
# 5 0.000000 0.000000 0.000000 0.000000 0.063340 0.000000
# 6 0.000000 0.000000 0.000000 0.000000 0.000000 -0.161510
#
#
# Mechanical properties :
#
#
# Convention : Reuss Voigt Hill
#
# Bulk Modulus (GPa) = 42.55575 71.59261 57.07418
# Shear Modulus (GPa) = 54.06917 17.25401 35.66159
#
# Velocity S-wave (km/s) = 5.18158 2.92707 4.20812
# Velocity P-wave (km/s) = 7.54520 6.85375 7.20777
#
# Compressibility (1/GPa) = 0.02349859
#
# Stress axis : x y z
#
# Youngs Moduli (GPa) = 25.94394 50.27537 33.19402
#
# Poissons Ratio (x) = -0.46414 0.85905
# Poissons Ratio (y) = -0.23952 0.52724
# Poissons Ratio (z) = 0.67142 0.79856
#
# Static dielectric constant tensor:
#      x y z
#    x 1.983490 0.000000 0.000000 
#    y 0.000000 1.766140 0.000000 
#    z 0.000000 0.000000 1.752820 
# 
# From -- ./inp_files/29781.got.cif
#   From: 2010.05.17/outbox.cif.g08.bks.cpg/sg73_15_cif.got.tgz:29781.got - 2010.06.03 17:35:07.
