data_PCOD9530769
_publ_section_title
;
Structure prediction by ZEFSAII (Michael W. Deem and Ramdas Pophale) SiO2 
 PCOD9530769
Probable space group: I B C A 
;
_chemical_formula_sum "Si O2"
_cell_formula_units_Z 112
_cell_length_a 26.473341
_cell_length_b 14.132291
_cell_length_c 13.506792
_cell_angle_alpha 90.000000
_cell_angle_beta 90.000000
_cell_angle_gamma 90.000000
_cell_volume 5053.282027
_symmetry_space_group_name_H-M "I B C A "
_symmetry_group_IT_number 73
_symmetry_cell_setting 'orthorhombic'
loop_
_space_group_symop_operation_xyz
x,y,z
-x,1/2-y,z
x,-y,1/2-z
1/2-x,y,-z
-x,-y,-z
x,1/2+y,-z
-x,y,1/2+z
1/2+x,-y,z
1/2+x,1/2+y,1/2+z
1/2-x,-y,1/2+z
1/2+x,1/2-y,-z
-x,1/2+y,1/2-z
1/2-x,1/2-y,1/2-z
1/2+x,y,1/2-z
1/2-x,1/2+y,z
x,1/2-y,1/2+z
loop_
_atom_site_type_symbol
_atom_site_label
_atom_site_fract_x
_atom_site_fract_y
_atom_site_fract_z
Si Si1 0.995997 0.387211 0.504247
Si Si2 0.787440 0.640953 0.410265
Si Si3 0.691763 0.169539 0.840412
Si Si4 0.105263 0.605626 0.986718
Si Si5 0.000000 0.250000 0.321181
Si Si6 0.255304 0.500000 0.250000
Si Si7 0.885586 0.118187 0.990477
Si Si8 0.890217 0.775261 0.178512
O O1 0.940325 0.361662 0.542174
O O2 0.000000 0.500000 0.500000
O O3 0.050153 0.360075 0.550834
O O4 0.995728 0.339477 0.395896
O O5 0.750000 0.617011 0.500000
O O6 0.771845 0.742804 0.367140
O O7 0.845410 0.653563 0.442174
O O8 0.786189 0.557880 0.330887
O O9 0.659890 0.138088 0.935860
O O10 0.653341 0.206445 0.756474
O O11 0.721232 0.078790 0.802208
O O12 0.111825 0.493871 0.968937
O O13 0.106687 0.635402 0.102638
O O14 0.054527 0.260951 0.272255
O O15 0.881098 0.184836 0.893770
#
# Coordination Sequence:
#
# PCOD9530769 Si02
#       8
#    16  16  16  16   8   8  16  16
#     4   8  16  32  59  94 125 173 213 252 323 400
#     4  12  27  47  69 100 128 175 230 288 341 397
#     4  12  25  44  69  99 127 177 221 280 341 412
#     4  10  20  40  68  91 136 174 219 274 326 398
#     4   8  16  32  56  88 136 170 194 264 318 388
#     4  12  30  48  68  96 134 178 230 288 350 402
#     4  10  20  37  68  96 132 178 211 267 340 400
#     4  10  20  39  61  97 136 166 218 265 325 405
#
# _framework density 22.163813999999999
#
# number of rings (size 3 to 8) (size 9 to 14) (size 15 to 20)
#    0.000    1.714    1.429    3.000    2.000    1.714 
#    2.571    0.000    0.000    0.857    0.000    0.000 
#    0.000    0.000    0.000    0.000    0.000    0.000 
#
# Total GULP energy -312629.546312 kJ/mol
# GULP energy per Si atom -5582.670470 kJ/mol
# Density = 2.211337 g / cm^3
# Si number density = 22.163814 Si / 1000 Ang^3
#
#
#
# Elastic Constant Matrix: (Units=GPa)
#
#
# Indices 1 2 3 4 5 6 
#
# 1 52.2201 -25.7517 -6.7087 0.0000 0.0000 0.0000
# 2 -25.7517 93.4073 -13.6733 0.0000 0.0000 0.0000
# 3 -6.7087 -13.6733 23.1162 0.0000 0.0000 0.0000
# 4 0.0000 0.0000 0.0000 18.8045 0.0000 0.0000
# 5 0.0000 0.0000 0.0000 0.0000 -13.1505 0.0000
# 6 0.0000 0.0000 0.0000 0.0000 0.0000 23.8840
#
#
#
# Elastic Compliance Matrix: (Units=1/GPa)
#
#
# Indices 1 2 3 4 5 6 
#
# 1 0.025050 0.008726 0.012431 0.000000 0.000000 0.000000
# 2 0.008726 0.014760 0.011263 0.000000 0.000000 0.000000
# 3 0.012431 0.011263 0.053529 0.000000 0.000000 0.000000
# 4 0.000000 0.000000 0.000000 0.053179 0.000000 0.000000
# 5 0.000000 0.000000 0.000000 0.000000 -0.076043 0.000000
# 6 0.000000 0.000000 0.000000 0.000000 0.000000 0.041869
#
#
# Mechanical properties :
#
#
# Convention : Reuss Voigt Hill
#
# Bulk Modulus (GPa) = 6.32195 8.49735 7.40965
# Shear Modulus (GPa) = 49.88478 20.23275 35.05876
#
# Velocity S-wave (km/s) = 4.74933 3.02466 3.98150
# Velocity P-wave (km/s) = 5.73877 4.00503 4.94842
#
# Compressibility (1/GPa) = 0.15817908
#
# Stress axis : x y z
#
# Youngs Moduli (GPa) = 39.92057 67.74999 18.68130
#
# Poissons Ratio (x) = -0.59117 -0.23223
# Poissons Ratio (y) = -0.34834 -0.21041
# Poissons Ratio (z) = -0.49626 -0.76307
#
# Static dielectric constant tensor:
#      x y z
#    x 1.869730 0.000000 0.000000 
#    y 0.000000 1.649290 0.000000 
#    z 0.000000 0.000000 1.802270 
# 
# From -- ./inp_files/14839.got.cif
#   From: 2010.05.17/outbox.cif.g08.bks.cpg/sg73_8_cif.got.tgz:14839.got - 2010.06.03 17:35:07.
