data_PCOD9530853
_publ_section_title
;
Structure prediction by ZEFSAII (Michael W. Deem and Ramdas Pophale) SiO2 
 PCOD9530853
Probable space group: I B C A 
;
_chemical_formula_sum "Si O2"
_cell_formula_units_Z 120
_cell_length_a 18.690881
_cell_length_b 12.796092
_cell_length_c 24.035682
_cell_angle_alpha 90.000000
_cell_angle_beta 90.000000
_cell_angle_gamma 90.000000
_cell_volume 5748.619660
_symmetry_space_group_name_H-M "I B C A "
_symmetry_group_IT_number 73
_symmetry_cell_setting 'orthorhombic'
loop_
_space_group_symop_operation_xyz
x,y,z
-x,1/2-y,z
x,-y,1/2-z
1/2-x,y,-z
-x,-y,-z
x,1/2+y,-z
-x,y,1/2+z
1/2+x,-y,z
1/2+x,1/2+y,1/2+z
1/2-x,-y,1/2+z
1/2+x,1/2-y,-z
-x,1/2+y,1/2-z
1/2-x,1/2-y,1/2-z
1/2+x,y,1/2-z
1/2-x,1/2+y,z
x,1/2-y,1/2+z
loop_
_atom_site_type_symbol
_atom_site_label
_atom_site_fract_x
_atom_site_fract_y
_atom_site_fract_z
Si Si1 0.679973 0.851503 0.651382
Si Si2 0.161676 0.282473 0.820758
Si Si3 0.597569 0.331386 0.562798
Si Si4 0.054584 0.908991 0.557319
Si Si5 0.576983 0.307477 0.795009
Si Si6 0.983517 0.500000 0.250000
Si Si7 0.679373 0.443668 0.474273
Si Si8 0.395009 0.058031 0.177620
O O1 0.757069 0.821165 0.675947
O O2 0.626927 0.752511 0.660243
O O3 0.686459 0.892881 0.587469
O O4 0.646644 0.949397 0.685653
O O5 0.120901 0.336386 0.872731
O O6 0.119926 0.300423 0.763406
O O7 0.157137 0.156659 0.827441
O O8 0.576233 0.211662 0.554700
O O9 0.529900 0.404009 0.547385
O O10 0.660105 0.357074 0.520085
O O11 0.064695 0.951070 0.619383
O O12 0.114390 0.974591 0.525802
O O13 0.500000 0.250000 0.796931
O O14 0.559849 0.431897 0.794801
O O15 0.039957 0.423304 0.280157
O O16 0.750000 0.495655 0.500000
#
# Coordination Sequence:
#
# PCOD9530853 Si02
#       8
#    16  16  16  16  16   8  16  16
#     4  11  24  43  63  98 137 170 219 275 336 395
#     4  11  22  40  68  94 129 174 221 270 326 407
#     4  10  20  40  64  93 126 171 227 270 326 389
#     4   9  21  37  62  92 122 171 227 271 319 390
#     4  12  24  41  67  95 129 171 218 271 330 395
#     4  12  22  40  66 100 124 170 216 268 332 394
#     4  11  22  42  63  93 138 177 215 272 338 399
#     4  10  20  38  65  89 130 172 213 267 332 389
#
# _framework density 20.874576999999999
#
# number of rings (size 3 to 8) (size 9 to 14) (size 15 to 20)
#    0.000    1.333    4.000    1.600    1.867    1.600 
#    4.800    2.667    0.000    0.000    0.000    0.000 
#    0.000    0.000    0.000    0.000    0.000    0.000 
#
# Total GULP energy -334398.616468 kJ/mol
# GULP energy per Si atom -5573.310274 kJ/mol
# Density = 2.082707 g / cm^3
# Si number density = 20.874577 Si / 1000 Ang^3
#
#
#
# Elastic Constant Matrix: (Units=GPa)
#
#
# Indices 1 2 3 4 5 6 
#
# 1 129.2535 52.8596 34.4360 0.0000 0.0000 0.0000
# 2 52.8596 66.8169 11.6764 0.0000 0.0000 0.0000
# 3 34.4360 11.6764 63.4559 0.0000 0.0000 0.0000
# 4 0.0000 0.0000 0.0000 127.9279 0.0000 0.0000
# 5 0.0000 0.0000 0.0000 0.0000 27.8375 0.0000
# 6 0.0000 0.0000 0.0000 0.0000 0.0000 34.8476
#
#
#
# Elastic Compliance Matrix: (Units=1/GPa)
#
#
# Indices 1 2 3 4 5 6 
#
# 1 0.012971 -0.009331 -0.005322 0.000000 0.000000 0.000000
# 2 -0.009331 0.022177 0.000983 0.000000 0.000000 0.000000
# 3 -0.005322 0.000983 0.018466 0.000000 0.000000 0.000000
# 4 0.000000 0.000000 0.000000 0.007817 0.000000 0.000000
# 5 0.000000 0.000000 0.000000 0.000000 0.035923 0.000000
# 6 0.000000 0.000000 0.000000 0.000000 0.000000 0.028696
#
#
# Mechanical properties :
#
#
# Convention : Reuss Voigt Hill
#
# Bulk Modulus (GPa) = 38.06122 50.83005 44.44563
# Shear Modulus (GPa) = 30.83617 48.82620 39.83119
#
# Velocity S-wave (km/s) = 3.84762 4.84160 4.37294
# Velocity P-wave (km/s) = 6.16537 7.46042 6.84360
#
# Compressibility (1/GPa) = 0.02627346
#
# Stress axis : x y z
#
# Youngs Moduli (GPa) = 77.09667 45.09273 54.15320
#
# Poissons Ratio (x) = 0.42077 0.28820
# Poissons Ratio (y) = 0.71941 -0.05324
# Poissons Ratio (z) = 0.41030 -0.04433
#
# Static dielectric constant tensor:
#      x y z
#    x 1.768730 0.000000 0.000000 
#    y 0.000000 1.786100 0.000000 
#    z 0.000000 0.000000 1.772470 
# 
# From -- ./inp_files/32452.got.cif
#   From: 2010.05.17/outbox.cif.g08.bks.cpg/sg73_17_cif.got.tgz:32452.got - 2010.06.03 17:35:07.
