data_PCOD9530773
_publ_section_title
;
Structure prediction by ZEFSAII (Michael W. Deem and Ramdas Pophale) SiO2 
 PCOD9530773
Probable space group: I B C A 
;
_chemical_formula_sum "Si O2"
_cell_formula_units_Z 120
_cell_length_a 19.983205
_cell_length_b 12.263844
_cell_length_c 24.764185
_cell_angle_alpha 90.000000
_cell_angle_beta 90.000000
_cell_angle_gamma 90.000000
_cell_volume 6068.981322
_symmetry_space_group_name_H-M "I B C A "
_symmetry_group_IT_number 73
_symmetry_cell_setting 'orthorhombic'
loop_
_space_group_symop_operation_xyz
x,y,z
-x,1/2-y,z
x,-y,1/2-z
1/2-x,y,-z
-x,-y,-z
x,1/2+y,-z
-x,y,1/2+z
1/2+x,-y,z
1/2+x,1/2+y,1/2+z
1/2-x,-y,1/2+z
1/2+x,1/2-y,-z
-x,1/2+y,1/2-z
1/2-x,1/2-y,1/2-z
1/2+x,y,1/2-z
1/2-x,1/2+y,z
x,1/2-y,1/2+z
loop_
_atom_site_type_symbol
_atom_site_label
_atom_site_fract_x
_atom_site_fract_y
_atom_site_fract_z
Si Si1 0.727285 0.238612 0.826737
Si Si2 0.821114 0.901667 0.607940
Si Si3 0.358937 0.269574 0.928798
Si Si4 0.661800 0.126005 0.730281
Si Si5 0.250000 0.159105 0.500000
Si Si6 0.423136 0.555601 0.060946
Si Si7 0.923022 0.291117 0.865670
Si Si8 0.577302 0.998814 0.563087
O O1 0.773215 0.132420 0.842163
O O2 0.689576 0.267547 0.881172
O O3 0.673865 0.201076 0.782599
O O4 0.773344 0.337687 0.805670
O O5 0.774508 0.902204 0.554115
O O6 0.875332 0.804127 0.611789
O O7 0.868890 0.005717 0.602076
O O8 0.313593 0.271139 0.982106
O O9 0.418142 0.185307 0.936746
O O10 0.384255 0.391300 0.917990
O O11 0.599972 0.167724 0.693822
O O12 0.658392 0.000000 0.750000
O O13 0.498287 0.518972 0.071145
O O14 0.407166 0.514774 0.000283
O O15 0.907715 0.393619 0.903782
O O16 0.000000 0.250000 0.867112
#
# Coordination Sequence:
#
# PCOD9530773 Si02
#       8
#    16  16  16  16   8  16  16  16
#     4   9  22  39  63  89 126 156 208 266 321 386
#     4  10  20  39  60  92 122 165 208 254 316 383
#     4  11  22  39  57  92 125 164 209 260 320 376
#     4  10  21  41  65  92 118 165 210 267 329 377
#     4  10  20  38  54  88 126 160 210 250 304 392
#     4  11  23  36  61  87 130 170 209 253 315 383
#     4  11  22  41  67  88 125 167 221 264 320 388
#     4  11  23  38  60  90 126 172 206 261 304 391
#
# _framework density 19.772677000000002
#
# number of rings (size 3 to 8) (size 9 to 14) (size 15 to 20)
#    0.000    1.600    2.667    2.000    1.867    0.533 
#    7.200    2.667    0.000    0.000    0.000    0.000 
#    0.000    0.000    0.000    0.000    0.000    0.000 
#
# Total GULP energy -334522.618269 kJ/mol
# GULP energy per Si atom -5575.376971 kJ/mol
# Density = 1.972767 g / cm^3
# Si number density = 19.772677 Si / 1000 Ang^3
#
#
#
# Elastic Constant Matrix: (Units=GPa)
#
#
# Indices 1 2 3 4 5 6 
#
# 1 37.8488 23.4188 5.7981 0.0000 0.0000 0.0000
# 2 23.4188 99.1635 1.9766 0.0000 0.0000 0.0000
# 3 5.7981 1.9766 28.9708 0.0000 0.0000 0.0000
# 4 0.0000 0.0000 0.0000 18.7535 0.0000 0.0000
# 5 0.0000 0.0000 0.0000 0.0000 20.3700 0.0000
# 6 0.0000 0.0000 0.0000 0.0000 0.0000 -85.3298
#
#
#
# Elastic Compliance Matrix: (Units=1/GPa)
#
#
# Indices 1 2 3 4 5 6 
#
# 1 0.031913 -0.007419 -0.005881 0.000000 0.000000 0.000000
# 2 -0.007419 0.011823 0.000678 0.000000 0.000000 0.000000
# 3 -0.005881 0.000678 0.035648 0.000000 0.000000 0.000000
# 4 0.000000 0.000000 0.000000 0.053323 0.000000 0.000000
# 5 0.000000 0.000000 0.000000 0.000000 0.049092 0.000000
# 6 0.000000 0.000000 0.000000 0.000000 0.000000 -0.011719
#
#
# Mechanical properties :
#
#
# Convention : Reuss Voigt Hill
#
# Bulk Modulus (GPa) = 18.47057 25.37445 21.92251
# Shear Modulus (GPa) = 23.43348 -0.25529 11.58910
#
# Velocity S-wave (km/s) = 3.44633 -0.35971 2.42361
# Velocity P-wave (km/s) = 5.01976 3.56208 4.35238
#
# Compressibility (1/GPa) = 0.05414019
#
# Stress axis : x y z
#
# Youngs Moduli (GPa) = 31.33568 84.58074 28.05193
#
# Poissons Ratio (x) = 0.62754 0.16496
# Poissons Ratio (y) = 0.23249 -0.01903
# Poissons Ratio (z) = 0.18427 -0.05737
#
# Static dielectric constant tensor:
#      x y z
#    x 1.697760 0.000000 0.000000 
#    y 0.000000 1.692220 0.000000 
#    z 0.000000 0.000000 1.717360 
# 
# From -- ./inp_files/30188.got.cif
#   From: 2010.05.17/outbox.cif.g08.bks.cpg/sg73_16_cif.got.tgz:30188.got - 2010.06.03 17:35:07.
