data_PCOD9530544
_publ_section_title
;
Structure prediction by ZEFSAII (Michael W. Deem and Ramdas Pophale) SiO2 
 PCOD9530544
Probable space group: I B C A 
;
_chemical_formula_sum "Si O2"
_cell_formula_units_Z 120
_cell_length_a 13.171641
_cell_length_b 18.715218
_cell_length_c 21.608508
_cell_angle_alpha 90.000000
_cell_angle_beta 90.000000
_cell_angle_gamma 90.000000
_cell_volume 5326.716175
_symmetry_space_group_name_H-M "I B C A "
_symmetry_group_IT_number 73
_symmetry_cell_setting 'orthorhombic'
loop_
_space_group_symop_operation_xyz
x,y,z
-x,1/2-y,z
x,-y,1/2-z
1/2-x,y,-z
-x,-y,-z
x,1/2+y,-z
-x,y,1/2+z
1/2+x,-y,z
1/2+x,1/2+y,1/2+z
1/2-x,-y,1/2+z
1/2+x,1/2-y,-z
-x,1/2+y,1/2-z
1/2-x,1/2-y,1/2-z
1/2+x,y,1/2-z
1/2-x,1/2+y,z
x,1/2-y,1/2+z
loop_
_atom_site_type_symbol
_atom_site_label
_atom_site_fract_x
_atom_site_fract_y
_atom_site_fract_z
Si Si1 0.336210 0.748738 0.824948
Si Si2 0.574046 0.440737 0.349881
Si Si3 0.608252 0.781981 0.687603
Si Si4 0.846104 0.918788 0.143942
Si Si5 0.855407 0.916981 0.486571
Si Si6 0.921406 0.134147 0.483396
Si Si7 0.000000 0.750000 0.088526
Si Si8 0.357415 0.547939 0.086441
O O1 0.369156 0.756696 0.753420
O O2 0.220714 0.769780 0.842202
O O3 0.347956 0.662744 0.833862
O O4 0.422255 0.789604 0.865050
O O5 0.591429 0.367788 0.312265
O O6 0.599381 0.517395 0.320285
O O7 0.640543 0.434065 0.413475
O O8 0.460718 0.448059 0.375967
O O9 0.500000 0.750000 0.662864
O O10 0.895039 0.915098 0.075062
O O11 0.732409 0.945648 0.134206
O O12 0.750000 0.877607 0.500000
O O13 0.961566 0.878869 0.499126
O O14 0.854895 0.983636 0.535877
O O15 0.920538 0.211850 0.455783
O O16 0.853622 0.117108 0.541750
#
# Coordination Sequence:
#
# PCOD9530544 Si02
#       8
#    16  16  16  16  16  16   8  16
#     4  10  24  44  68  87 126 168 209 267 335 371
#     4  11  22  36  64  93 122 161 214 254 303 378
#     4  11  24  47  66  90 123 168 216 267 327 383
#     4  11  20  38  63  94 123 162 208 259 311 378
#     4  11  19  34  56  85 124 167 192 244 311 373
#     4  10  20  35  55  85 128 161 207 243 304 376
#     4  10  22  40  62  88 118 170 212 258 314 386
#     4  11  19  37  59  90 130 165 195 253 318 373
#
# _framework density 22.527950000000001
#
# number of rings (size 3 to 8) (size 9 to 14) (size 15 to 20)
#    0.000    1.333    4.667    2.000    1.867    0.533 
#    9.600    0.000    0.000    3.200    0.000    0.000 
#    0.000    0.000    0.000    0.000    0.000    0.000 
#
# Total GULP energy -334203.395864 kJ/mol
# GULP energy per Si atom -5570.056598 kJ/mol
# Density = 2.247668 g / cm^3
# Si number density = 22.527950 Si / 1000 Ang^3
#
#
#
# Elastic Constant Matrix: (Units=GPa)
#
#
# Indices 1 2 3 4 5 6 
#
# 1 121.4813 0.7210 2.7607 0.0000 0.0000 0.0000
# 2 0.7210 67.2671 -11.1286 0.0000 0.0000 0.0000
# 3 2.7607 -11.1286 26.3430 0.0000 0.0000 0.0000
# 4 0.0000 0.0000 0.0000 17.5097 0.0000 0.0000
# 5 0.0000 0.0000 0.0000 0.0000 5.2435 0.0000
# 6 0.0000 0.0000 0.0000 0.0000 0.0000 22.8077
#
#
#
# Elastic Compliance Matrix: (Units=1/GPa)
#
#
# Indices 1 2 3 4 5 6 
#
# 1 0.008255 -0.000249 -0.000970 0.000000 0.000000 0.000000
# 2 -0.000249 0.015991 0.006781 0.000000 0.000000 0.000000
# 3 -0.000970 0.006781 0.040927 0.000000 0.000000 0.000000
# 4 0.000000 0.000000 0.000000 0.057111 0.000000 0.000000
# 5 0.000000 0.000000 0.000000 0.000000 0.190713 0.000000
# 6 0.000000 0.000000 0.000000 0.000000 0.000000 0.043845
#
#
# Mechanical properties :
#
#
# Convention : Reuss Voigt Hill
#
# Bulk Modulus (GPa) = 13.10661 22.19970 17.65315
# Shear Modulus (GPa) = 13.47162 23.96140 18.71651
#
# Velocity S-wave (km/s) = 2.44805 3.26487 2.88551
# Velocity P-wave (km/s) = 3.71768 4.90797 4.35370
#
# Compressibility (1/GPa) = 0.07629740
#
# Stress axis : x y z
#
# Youngs Moduli (GPa) = 121.13509 62.53636 24.43357
#
# Poissons Ratio (x) = 0.01557 0.02371
# Poissons Ratio (y) = 0.03016 -0.16569
# Poissons Ratio (z) = 0.11754 -0.42408
#
# Static dielectric constant tensor:
#      x y z
#    x 1.860240 0.000000 0.000000 
#    y 0.000000 1.920440 0.000000 
#    z 0.000000 0.000000 1.869220 
# 
# From -- ./inp_files/29644.got.cif
#   From: 2010.05.17/outbox.cif.g08.bks.cpg/sg73_15_cif.got.tgz:29644.got - 2010.06.03 17:35:07.
