data_PCOD9530951
_publ_section_title
;
Structure prediction by ZEFSAII (Michael W. Deem and Ramdas Pophale) SiO2 
 PCOD9530951
Probable space group: I B C A 
;
_chemical_formula_sum "Si O2"
_cell_formula_units_Z 96
_cell_length_a 23.182494
_cell_length_b 15.866727
_cell_length_c 11.558765
_cell_angle_alpha 90.000000
_cell_angle_beta 90.000000
_cell_angle_gamma 90.000000
_cell_volume 4251.664038
_symmetry_space_group_name_H-M "I B C A "
_symmetry_group_IT_number 73
_symmetry_cell_setting 'orthorhombic'
loop_
_space_group_symop_operation_xyz
x,y,z
-x,1/2-y,z
x,-y,1/2-z
1/2-x,y,-z
-x,-y,-z
x,1/2+y,-z
-x,y,1/2+z
1/2+x,-y,z
1/2+x,1/2+y,1/2+z
1/2-x,-y,1/2+z
1/2+x,1/2-y,-z
-x,1/2+y,1/2-z
1/2-x,1/2-y,1/2-z
1/2+x,y,1/2-z
1/2-x,1/2+y,z
x,1/2-y,1/2+z
loop_
_atom_site_type_symbol
_atom_site_label
_atom_site_fract_x
_atom_site_fract_y
_atom_site_fract_z
Si Si1 0.660668 0.297840 0.686996
Si Si2 0.600706 0.452935 0.991315
Si Si3 0.060724 0.206792 0.140309
Si Si4 0.376345 0.868684 0.036648
Si Si5 0.221635 0.606453 0.887225
Si Si6 0.663778 0.897942 0.794008
O O1 0.596586 0.307836 0.741969
O O2 0.666533 0.347654 0.568114
O O3 0.701281 0.331964 0.787360
O O4 0.669920 0.199712 0.673002
O O5 0.585629 0.551888 0.991778
O O6 0.611600 0.429078 0.125395
O O7 0.561878 0.381842 0.929239
O O8 0.663987 0.442414 0.928403
O O9 0.093568 0.279222 0.065479
O O10 0.000000 0.250000 0.164825
O O11 0.348733 0.897752 0.158018
O O12 0.277054 0.559009 0.836202
O O13 0.250000 0.648303 0.000000
#
# Coordination Sequence:
#
# PCOD9530951 Si02
#       6
#    16  16  16  16  16  16
#     4  10  21  40  64  92 127 164 217 269 328 388
#     4  10  21  43  64  92 138 165 212 276 317 382
#     4  10  23  43  69  94 124 169 217 272 335 390
#     4  11  23  40  66  94 131 174 210 272 330 384
#     4   9  20  37  61  89 132 171 212 269 313 383
#     4  10  20  40  62  92 133 172 213 260 322 387
#
# _framework density 22.579394000000001
#
# number of rings (size 3 to 8) (size 9 to 14) (size 15 to 20)
#    0.000    2.000    1.667    1.000    2.333    4.667 
#   15.000    0.000    7.333    0.000    0.000    0.000 
#    0.000    0.000    0.000    0.000    0.000    0.000 
#
# Total GULP energy -267652.945118 kJ/mol
# GULP energy per Si atom -5576.103023 kJ/mol
# Density = 2.252800 g / cm^3
# Si number density = 22.579394 Si / 1000 Ang^3
#
#
#
# Elastic Constant Matrix: (Units=GPa)
#
#
# Indices 1 2 3 4 5 6 
#
# 1 46.4350 -32.6509 5.2880 0.0000 0.0000 0.0000
# 2 -32.6509 69.5743 8.5072 0.0000 0.0000 0.0000
# 3 5.2880 8.5072 112.6497 0.0000 0.0000 0.0000
# 4 0.0000 0.0000 0.0000 64.3119 0.0000 0.0000
# 5 0.0000 0.0000 0.0000 0.0000 10.7282 0.0000
# 6 0.0000 0.0000 0.0000 0.0000 0.0000 -7.9272
#
#
#
# Elastic Compliance Matrix: (Units=1/GPa)
#
#
# Indices 1 2 3 4 5 6 
#
# 1 0.032959 0.015803 -0.002741 0.000000 0.000000 0.000000
# 2 0.015803 0.022084 -0.002410 0.000000 0.000000 0.000000
# 3 -0.002741 -0.002410 0.009188 0.000000 0.000000 0.000000
# 4 0.000000 0.000000 0.000000 0.015549 0.000000 0.000000
# 5 0.000000 0.000000 0.000000 0.000000 0.093212 0.000000
# 6 0.000000 0.000000 0.000000 0.000000 0.000000 -0.126148
#
#
# Mechanical properties :
#
#
# Convention : Reuss Voigt Hill
#
# Bulk Modulus (GPa) = 11.69094 21.21640 16.45367
# Shear Modulus (GPa) = 92.50427 29.92356 61.21392
#
# Velocity S-wave (km/s) = 6.40760 3.64436 5.21243
# Velocity P-wave (km/s) = 7.74158 5.20819 6.59763
#
# Compressibility (1/GPa) = 0.08553631
#
# Stress axis : x y z
#
# Youngs Moduli (GPa) = 30.34035 45.28176 108.84117
#
# Poissons Ratio (x) = -0.71558 0.29829
# Poissons Ratio (y) = -0.47946 0.26226
# Poissons Ratio (z) = 0.08315 0.10911
#
# Static dielectric constant tensor:
#      x y z
#    x 1.898010 0.000000 0.000000 
#    y 0.000000 1.857360 0.000000 
#    z 0.000000 0.000000 1.869660 
# 
# From -- ./inp_files/13643.got.cif
#   From: 2010.05.17/outbox.cif.g08.bks.cpg/sg73_7_cif.got.tgz:13643.got - 2010.06.03 17:35:07.
