data_PCOD9530375
_publ_section_title
;
Structure prediction by ZEFSAII (Michael W. Deem and Ramdas Pophale) SiO2 
 PCOD9530375
Probable space group: I B C A 
;
_chemical_formula_sum "Si O2"
_cell_formula_units_Z 88
_cell_length_a 13.289881
_cell_length_b 11.965699
_cell_length_c 26.795035
_cell_angle_alpha 90.000000
_cell_angle_beta 90.000000
_cell_angle_gamma 90.000000
_cell_volume 4261.019235
_symmetry_space_group_name_H-M "I B C A "
_symmetry_group_IT_number 73
_symmetry_cell_setting 'orthorhombic'
loop_
_space_group_symop_operation_xyz
x,y,z
-x,1/2-y,z
x,-y,1/2-z
1/2-x,y,-z
-x,-y,-z
x,1/2+y,-z
-x,y,1/2+z
1/2+x,-y,z
1/2+x,1/2+y,1/2+z
1/2-x,-y,1/2+z
1/2+x,1/2-y,-z
-x,1/2+y,1/2-z
1/2-x,1/2-y,1/2-z
1/2+x,y,1/2-z
1/2-x,1/2+y,z
x,1/2-y,1/2+z
loop_
_atom_site_type_symbol
_atom_site_label
_atom_site_fract_x
_atom_site_fract_y
_atom_site_fract_z
Si Si1 0.168351 0.766833 0.399932
Si Si2 0.515430 0.931982 0.800334
Si Si3 0.488039 0.932241 0.100815
Si Si4 0.750000 0.698599 0.000000
Si Si5 0.640318 0.279776 0.661406
Si Si6 0.558735 0.144362 0.051770
O O1 0.096362 0.872689 0.394989
O O2 0.227409 0.774389 0.451968
O O3 0.244523 0.744641 0.353915
O O4 0.096080 0.660239 0.407719
O O5 0.589983 0.828434 0.812793
O O6 0.401575 0.881267 0.804617
O O7 0.531648 0.000000 0.750000
O O8 0.533016 0.014686 0.845860
O O9 0.494952 0.033333 0.061445
O O10 0.843581 0.625081 0.018415
O O11 0.593257 0.313035 0.607048
O O12 0.500000 0.250000 0.028832
#
# Coordination Sequence:
#
# PCOD9530375 Si02
#       6
#    16  16  16   8  16  16
#     4  10  23  41  59  92 129 159 213 254 319 365
#     4  10  20  39  66  91 117 162 210 247 314 384
#     4  10  22  41  63  88 124 168 199 271 315 367
#     4  10  24  38  60  94 120 170 220 256 298 398
#     4   9  19  40  61  88 125 165 195 261 315 367
#     4  10  19  41  62  85 126 165 215 254 323 363
#
# _framework density 20.652336999999999
#
# number of rings (size 3 to 8) (size 9 to 14) (size 15 to 20)
#    0.000    2.182    3.636    0.000    2.545    8.727 
#    0.000    5.455    0.000    0.000    0.000    0.000 
#    0.000    0.000    0.000    0.000    0.000    0.000 
#
# Total GULP energy -245308.001404 kJ/mol
# GULP energy per Si atom -5575.181850 kJ/mol
# Density = 2.060533 g / cm^3
# Si number density = 20.652337 Si / 1000 Ang^3
#
#
#
# Elastic Constant Matrix: (Units=GPa)
#
#
# Indices 1 2 3 4 5 6 
#
# 1 80.1892 23.2776 13.9572 0.0000 0.0000 0.0000
# 2 23.2776 85.1371 23.3014 0.0000 0.0000 0.0000
# 3 13.9572 23.3014 84.1815 0.0000 0.0000 0.0000
# 4 0.0000 0.0000 0.0000 368.6086 0.0000 0.0000
# 5 0.0000 0.0000 0.0000 0.0000 23.1459 0.0000
# 6 0.0000 0.0000 0.0000 0.0000 0.0000 16.2497
#
#
#
# Elastic Compliance Matrix: (Units=1/GPa)
#
#
# Indices 1 2 3 4 5 6 
#
# 1 0.013683 -0.003376 -0.001334 0.000000 0.000000 0.000000
# 2 -0.003376 0.013541 -0.003189 0.000000 0.000000 0.000000
# 3 -0.001334 -0.003189 0.012983 0.000000 0.000000 0.000000
# 4 0.000000 0.000000 0.000000 0.002713 0.000000 0.000000
# 5 0.000000 0.000000 0.000000 0.000000 0.043204 0.000000
# 6 0.000000 0.000000 0.000000 0.000000 0.000000 0.061540
#
#
# Mechanical properties :
#
#
# Convention : Reuss Voigt Hill
#
# Bulk Modulus (GPa) = 40.96700 41.17558 41.07129
# Shear Modulus (GPa) = 29.13791 94.19892 61.66841
#
# Velocity S-wave (km/s) = 3.76024 6.76097 5.47038
# Velocity P-wave (km/s) = 6.22351 8.99602 7.73500
#
# Compressibility (1/GPa) = 0.02440989
#
# Stress axis : x y z
#
# Youngs Moduli (GPa) = 73.08504 73.84732 77.02450
#
# Poissons Ratio (x) = 0.24930 0.10276
# Poissons Ratio (y) = 0.24673 0.24560
# Poissons Ratio (z) = 0.09750 0.23547
#
# Static dielectric constant tensor:
#      x y z
#    x 1.810160 0.000000 0.000000 
#    y 0.000000 1.741380 0.000000 
#    z 0.000000 0.000000 1.738520 
# 
# From -- ./inp_files/32100.got.cif
#   From: 2010.05.17/outbox.cif.g08.bks.cpg/sg73_17_cif.got.tgz:32100.got - 2010.06.03 17:35:07.
