data_PCOD9530643
_publ_section_title
;
Structure prediction by ZEFSAII (Michael W. Deem and Ramdas Pophale) SiO2 
 PCOD9530643
Probable space group: I B C A 
;
_chemical_formula_sum "Si O2"
_cell_formula_units_Z 64
_cell_length_a 8.307446
_cell_length_b 20.320193
_cell_length_c 15.723689
_cell_angle_alpha 90.000000
_cell_angle_beta 90.000000
_cell_angle_gamma 90.000000
_cell_volume 2654.298739
_symmetry_space_group_name_H-M "I B C A "
_symmetry_group_IT_number 73
_symmetry_cell_setting 'orthorhombic'
loop_
_space_group_symop_operation_xyz
x,y,z
-x,1/2-y,z
x,-y,1/2-z
1/2-x,y,-z
-x,-y,-z
x,1/2+y,-z
-x,y,1/2+z
1/2+x,-y,z
1/2+x,1/2+y,1/2+z
1/2-x,-y,1/2+z
1/2+x,1/2-y,-z
-x,1/2+y,1/2-z
1/2-x,1/2-y,1/2-z
1/2+x,y,1/2-z
1/2-x,1/2+y,z
x,1/2-y,1/2+z
loop_
_atom_site_type_symbol
_atom_site_label
_atom_site_fract_x
_atom_site_fract_y
_atom_site_fract_z
Si Si1 0.153185 0.062037 0.668649
Si Si2 0.130217 0.646875 0.787271
Si Si3 0.928283 0.313140 0.878020
Si Si4 0.021478 0.547130 0.579385
O O1 0.014180 0.116275 0.658618
O O2 0.257555 0.087973 0.749412
O O3 0.291891 0.058809 0.598459
O O4 0.556674 0.006312 0.657966
O O5 0.046403 0.678041 0.704304
O O6 0.248421 0.692724 0.840922
O O7 0.938820 0.381954 0.927603
O O8 0.000000 0.250000 0.924933
O O9 0.000000 0.500000 0.500000
#
# Coordination Sequence:
#
# PCOD9530643 Si02
#       4
#    16  16  16  16
#     4  10  21  36  59  88 119 156 203 265 318 368
#     4   9  20  36  59  93 123 151 199 260 328 388
#     4  10  20  36  60  89 124 162 200 257 324 385
#     4  11  23  38  58  84 119 165 214 254 298 372
#
# _framework density 24.111830999999999
#
# number of rings (size 3 to 8) (size 9 to 14) (size 15 to 20)
#    0.000    2.000    0.000    3.000    0.000   17.000 
#    0.000    0.000    0.000   30.000    0.000    0.000 
#    0.000    0.000    0.000    0.000    0.000    0.000 
#
# Total GULP energy -178802.516831 kJ/mol
# GULP energy per Si atom -5587.578651 kJ/mol
# Density = 2.405695 g / cm^3
# Si number density = 24.111831 Si / 1000 Ang^3
#
#
#
# Elastic Constant Matrix: (Units=GPa)
#
#
# Indices 1 2 3 4 5 6 
#
# 1 147.9860 5.7185 15.9306 0.0000 0.0000 0.0000
# 2 5.7185 86.8137 13.0437 0.0000 0.0000 0.0000
# 3 15.9306 13.0437 53.7513 0.0000 0.0000 0.0000
# 4 0.0000 0.0000 0.0000 22.3372 0.0000 0.0000
# 5 0.0000 0.0000 0.0000 0.0000 23.2402 0.0000
# 6 0.0000 0.0000 0.0000 0.0000 0.0000 39.2062
#
#
#
# Elastic Compliance Matrix: (Units=1/GPa)
#
#
# Indices 1 2 3 4 5 6 
#
# 1 0.006982 -0.000155 -0.002032 0.000000 0.000000 0.000000
# 2 -0.000155 0.011958 -0.002856 0.000000 0.000000 0.000000
# 3 -0.002032 -0.002856 0.019899 0.000000 0.000000 0.000000
# 4 0.000000 0.000000 0.000000 0.044768 0.000000 0.000000
# 5 0.000000 0.000000 0.000000 0.000000 0.043029 0.000000
# 6 0.000000 0.000000 0.000000 0.000000 0.000000 0.025506
#
#
# Mechanical properties :
#
#
# Convention : Reuss Voigt Hill
#
# Bulk Modulus (GPa) = 34.77680 39.77073 37.27377
# Shear Modulus (GPa) = 29.10141 33.88062 31.49101
#
# Velocity S-wave (km/s) = 3.47787 3.75259 3.61784
# Velocity P-wave (km/s) = 5.53008 5.94189 5.73968
#
# Compressibility (1/GPa) = 0.02875480
#
# Stress axis : x y z
#
# Youngs Moduli (GPa) = 143.22351 83.62444 50.25259
#
# Poissons Ratio (x) = 0.01293 0.10210
# Poissons Ratio (y) = 0.02215 0.14352
# Poissons Ratio (z) = 0.29100 0.23884
#
# Static dielectric constant tensor:
#      x y z
#    x 1.891650 0.000000 0.000000 
#    y 0.000000 1.982280 0.000000 
#    z 0.000000 0.000000 2.066390 
# 
# From -- ./inp_files/20641.got.cif
#   From: 2010.05.17/outbox.cif.g08.bks.cpg/sg73_11_cif.got.tgz:20641.got - 2010.06.03 17:35:07.
