data_PCOD9530629
_publ_section_title
;
Structure prediction by ZEFSAII (Michael W. Deem and Ramdas Pophale) SiO2 
 PCOD9530629
Probable space group: I B C A 
;
_chemical_formula_sum "Si O2"
_cell_formula_units_Z 96
_cell_length_a 16.053078
_cell_length_b 26.133579
_cell_length_c 9.711710
_cell_angle_alpha 90.000000
_cell_angle_beta 90.000000
_cell_angle_gamma 90.000000
_cell_volume 4074.299137
_symmetry_space_group_name_H-M "I B C A "
_symmetry_group_IT_number 73
_symmetry_cell_setting 'orthorhombic'
loop_
_space_group_symop_operation_xyz
x,y,z
-x,1/2-y,z
x,-y,1/2-z
1/2-x,y,-z
-x,-y,-z
x,1/2+y,-z
-x,y,1/2+z
1/2+x,-y,z
1/2+x,1/2+y,1/2+z
1/2-x,-y,1/2+z
1/2+x,1/2-y,-z
-x,1/2+y,1/2-z
1/2-x,1/2-y,1/2-z
1/2+x,y,1/2-z
1/2-x,1/2+y,z
x,1/2-y,1/2+z
loop_
_atom_site_type_symbol
_atom_site_label
_atom_site_fract_x
_atom_site_fract_y
_atom_site_fract_z
Si Si1 0.672733 0.400907 0.572025
Si Si2 0.622160 0.263584 0.189210
Si Si3 0.065917 0.189378 0.546837
Si Si4 0.423019 0.616207 0.010253
Si Si5 0.987943 0.558491 0.217128
Si Si6 0.786128 0.831357 0.827252
O O1 0.750000 0.428637 0.500000
O O2 0.632547 0.356298 0.476944
O O3 0.595756 0.434921 0.624109
O O4 0.712460 0.370210 0.699441
O O5 0.562956 0.294013 0.294654
O O6 0.654741 0.215793 0.281398
O O7 0.592105 0.235440 0.052303
O O8 0.699091 0.301541 0.156938
O O9 0.980096 0.166043 0.494371
O O10 0.464797 0.587148 0.141066
O O11 0.332607 0.634820 0.056808
O O12 0.437880 0.583800 0.872103
O O13 0.005593 0.500000 0.250000
#
# Coordination Sequence:
#
# PCOD9530629 Si02
#       6
#    16  16  16  16  16  16
#     4   9  16  34  63  93 127 166 211 265 338 394
#     4  10  20  36  59  85 129 176 230 266 321 388
#     4  10  21  36  58  90 129 182 220 272 324 385
#     4  10  22  41  63  97 135 173 224 280 343 400
#     4  10  21  39  69 101 129 170 215 282 349 416
#     4   9  19  33  59  91 129 174 220 270 319 387
#
# _framework density 23.562332999999999
#
# number of rings (size 3 to 8) (size 9 to 14) (size 15 to 20)
#    0.000    2.333    1.667    1.500    0.000    2.000 
#    0.000    6.667    0.000    8.000   21.667    0.000 
#    0.000    0.000    0.000    0.000    0.000    0.000 
#
# Total GULP energy -268492.990587 kJ/mol
# GULP energy per Si atom -5593.603971 kJ/mol
# Density = 2.350870 g / cm^3
# Si number density = 23.562333 Si / 1000 Ang^3
#
#
#
# Elastic Constant Matrix: (Units=GPa)
#
#
# Indices 1 2 3 4 5 6 
#
# 1 107.1947 39.9633 33.8641 -0.0003 0.0001 0.0001
# 2 39.9633 106.6066 56.6019 -0.0001 0.0001 0.0000
# 3 33.8641 56.6019 122.1190 -0.0019 0.0001 0.0002
# 4 -0.0003 -0.0001 -0.0019 22.6860 0.0000 0.0001
# 5 0.0001 0.0001 0.0001 0.0000 32.9649 0.0000
# 6 0.0001 0.0000 0.0002 0.0001 0.0000 17.4849
#
#
#
# Elastic Compliance Matrix: (Units=1/GPa)
#
#
# Indices 1 2 3 4 5 6 
#
# 1 0.011053 -0.003337 -0.001518 0.000000 0.000000 0.000000
# 2 -0.003337 0.013450 -0.005309 0.000000 0.000000 0.000000
# 3 -0.001518 -0.005309 0.011070 0.000001 0.000000 0.000000
# 4 0.000000 0.000000 0.000001 0.044080 0.000000 0.000000
# 5 0.000000 0.000000 0.000000 0.000000 0.030335 0.000000
# 6 0.000000 0.000000 0.000000 0.000000 0.000000 0.057192
#
#
# Mechanical properties :
#
#
# Convention : Reuss Voigt Hill
#
# Bulk Modulus (GPa) = 65.59597 66.30876 65.95237
# Shear Modulus (GPa) = 25.96198 28.32658 27.14428
#
# Velocity S-wave (km/s) = 3.32300 3.47103 3.39782
# Velocity P-wave (km/s) = 6.52862 6.65335 6.59128
#
# Compressibility (1/GPa) = 0.01524484
#
# Stress axis : x y z
#
# Youngs Moduli (GPa) = 90.47677 74.35050 90.33250
#
# Poissons Ratio (x) = 0.24812 0.13714
# Poissons Ratio (y) = 0.30194 0.47953
# Poissons Ratio (z) = 0.13736 0.39469
#
# Static dielectric constant tensor:
#      x y z
#    x 1.934990 0.000000 0.000000 
#    y 0.000000 1.856690 0.000000 
#    z 0.000000 0.000000 1.972740 
# 
# From -- ./inp_files/7256.got.cif
#   From: 2010.05.17/outbox.cif.g08.bks.cpg/sg73_4_cif.got.tgz:7256.got - 2010.06.03 17:35:07.
