data_PCOD9530864
_publ_section_title
;
Structure prediction by ZEFSAII (Michael W. Deem and Ramdas Pophale) SiO2 
 PCOD9530864
Probable space group: I B C A 
;
_chemical_formula_sum "Si O2"
_cell_formula_units_Z 104
_cell_length_a 28.788378
_cell_length_b 21.934850
_cell_length_c 8.904021
_cell_angle_alpha 90.000000
_cell_angle_beta 90.000000
_cell_angle_gamma 90.000000
_cell_volume 5622.611039
_symmetry_space_group_name_H-M "I B C A "
_symmetry_group_IT_number 73
_symmetry_cell_setting 'orthorhombic'
loop_
_space_group_symop_operation_xyz
x,y,z
-x,1/2-y,z
x,-y,1/2-z
1/2-x,y,-z
-x,-y,-z
x,1/2+y,-z
-x,y,1/2+z
1/2+x,-y,z
1/2+x,1/2+y,1/2+z
1/2-x,-y,1/2+z
1/2+x,1/2-y,-z
-x,1/2+y,1/2-z
1/2-x,1/2-y,1/2-z
1/2+x,y,1/2-z
1/2-x,1/2+y,z
x,1/2-y,1/2+z
loop_
_atom_site_type_symbol
_atom_site_label
_atom_site_fract_x
_atom_site_fract_y
_atom_site_fract_z
Si Si1 0.292007 0.206606 0.813495
Si Si2 0.697641 0.383191 0.559962
Si Si3 0.000000 0.750000 0.171647
Si Si4 0.848920 0.860790 0.031489
Si Si5 0.364967 0.305335 0.842002
Si Si6 0.434919 0.708055 0.081378
Si Si7 0.198704 0.988332 0.567770
O O1 0.250000 0.250000 0.750000
O O2 0.296165 0.142822 0.726055
O O3 0.304975 0.183536 0.983477
O O4 0.336043 0.248413 0.777950
O O5 0.750000 0.379534 0.500000
O O6 0.665330 0.336632 0.470313
O O7 0.681565 0.451040 0.519522
O O8 0.031398 0.793423 0.276178
O O9 0.033612 0.710481 0.066235
O O10 0.893285 0.840556 0.931776
O O11 0.866623 0.849132 0.200429
O O12 0.831892 0.929776 0.029282
O O13 0.410999 0.275119 0.906213
O O14 0.250000 0.977090 0.500000
O O15 0.200771 0.000000 0.750000
#
# Coordination Sequence:
#
# PCOD9530864 Si02
#       7
#    16  16   8  16  16  16  16
#     4  11  23  35  55  84 121 161 203 259 312 354
#     4  11  23  39  56  81 122 172 221 258 297 345
#     4  10  20  38  66  92 130 150 180 254 332 408
#     4  11  24  38  60  84 124 164 214 253 304 372
#     4  11  21  37  56  88 125 156 201 252 311 367
#     4  10  21  39  61  97 124 154 192 245 332 394
#     4  11  26  43  57  80 121 179 233 266 294 343
#
# _framework density 18.496745000000001
#
# number of rings (size 3 to 8) (size 9 to 14) (size 15 to 20)
#    0.000    1.231    4.615    1.846    8.615    0.000 
#    0.000    0.000    0.000    0.000    0.000   11.846 
#    0.000    0.000    0.000    0.000    0.000    0.000 
#
# Total GULP energy -289648.489306 kJ/mol
# GULP energy per Si atom -5570.163256 kJ/mol
# Density = 1.845465 g / cm^3
# Si number density = 18.496745 Si / 1000 Ang^3
#
#
#
# Elastic Constant Matrix: (Units=GPa)
#
#
# Indices 1 2 3 4 5 6 
#
# 1 96.3737 41.4846 37.2414 0.0000 0.0000 0.0000
# 2 41.4846 114.5099 43.5691 0.0000 0.0000 0.0000
# 3 37.2414 43.5691 91.5167 0.0000 0.0000 0.0000
# 4 0.0000 0.0000 0.0000 29.0593 0.0000 0.0000
# 5 0.0000 0.0000 0.0000 0.0000 26.4562 0.0000
# 6 0.0000 0.0000 0.0000 0.0000 0.0000 19.1055
#
#
#
# Elastic Compliance Matrix: (Units=1/GPa)
#
#
# Indices 1 2 3 4 5 6 
#
# 1 0.013298 -0.003369 -0.003808 0.000000 0.000000 0.000000
# 2 -0.003369 0.011518 -0.004113 0.000000 0.000000 0.000000
# 3 -0.003808 -0.004113 0.014434 0.000000 0.000000 0.000000
# 4 0.000000 0.000000 0.000000 0.034412 0.000000 0.000000
# 5 0.000000 0.000000 0.000000 0.000000 0.037798 0.000000
# 6 0.000000 0.000000 0.000000 0.000000 0.000000 0.052341
#
#
# Mechanical properties :
#
#
# Convention : Reuss Voigt Hill
#
# Bulk Modulus (GPa) = 59.97988 60.77673 60.37830
# Shear Modulus (GPa) = 26.05019 26.93121 26.49070
#
# Velocity S-wave (km/s) = 3.75689 3.81989 3.78852
# Velocity P-wave (km/s) = 7.16356 7.23774 7.20075
#
# Compressibility (1/GPa) = 0.01667226
#
# Stress axis : x y z
#
# Youngs Moduli (GPa) = 75.20084 86.81981 69.27942
#
# Poissons Ratio (x) = 0.29248 0.26378
# Poissons Ratio (y) = 0.25334 0.28492
# Poissons Ratio (z) = 0.28633 0.35706
#
# Static dielectric constant tensor:
#      x y z
#    x 1.658300 0.000000 0.000000 
#    y 0.000000 1.677070 0.000000 
#    z 0.000000 0.000000 1.835720 
# 
# From -- ./inp_files/8490.got.cif
#   From: 2010.05.17/outbox.cif.g08.bks.cpg/sg73_5_cif.got.tgz:8490.got - 2010.06.03 17:35:07.
