data_PCOD9530848
_publ_section_title
;
Structure prediction by ZEFSAII (Michael W. Deem and Ramdas Pophale) SiO2 
 PCOD9530848
Probable space group: I B C A 
;
_chemical_formula_sum "Si O2"
_cell_formula_units_Z 88
_cell_length_a 13.737695
_cell_length_b 17.250774
_cell_length_c 15.292568
_cell_angle_alpha 90.000000
_cell_angle_beta 90.000000
_cell_angle_gamma 90.000000
_cell_volume 3624.122558
_symmetry_space_group_name_H-M "I B C A "
_symmetry_group_IT_number 73
_symmetry_cell_setting 'orthorhombic'
loop_
_space_group_symop_operation_xyz
x,y,z
-x,1/2-y,z
x,-y,1/2-z
1/2-x,y,-z
-x,-y,-z
x,1/2+y,-z
-x,y,1/2+z
1/2+x,-y,z
1/2+x,1/2+y,1/2+z
1/2-x,-y,1/2+z
1/2+x,1/2-y,-z
-x,1/2+y,1/2-z
1/2-x,1/2-y,1/2-z
1/2+x,y,1/2-z
1/2-x,1/2+y,z
x,1/2-y,1/2+z
loop_
_atom_site_type_symbol
_atom_site_label
_atom_site_fract_x
_atom_site_fract_y
_atom_site_fract_z
Si Si1 0.435606 0.028506 0.121855
Si Si2 0.839155 0.916711 0.946782
Si Si3 0.651710 0.882537 0.722026
Si Si4 0.106729 0.265029 0.629653
Si Si5 0.250000 0.317364 0.000000
Si Si6 0.341207 0.427377 0.132143
O O1 0.374335 0.085471 0.183859
O O2 0.547107 0.049902 0.147868
O O3 0.404040 0.941099 0.152660
O O4 0.414010 0.051441 0.020994
O O5 0.881058 0.856955 0.876526
O O6 0.796935 0.991443 0.898988
O O7 0.750000 0.880648 0.000000
O O8 0.617216 0.793277 0.711929
O O9 0.766767 0.893021 0.703195
O O10 0.190507 0.230880 0.569216
O O11 0.000000 0.250000 0.592263
O O12 0.171837 0.369761 0.949042
#
# Coordination Sequence:
#
# PCOD9530848 Si02
#       6
#    16  16  16  16   8  16
#     4  11  23  42  70  99 130 181 230 281 345 404
#     4  12  21  40  70  98 132 173 232 287 340 412
#     4  10  24  44  65  97 140 175 224 282 345 413
#     4  11  22  40  64  94 136 178 217 278 350 413
#     4  10  20  38  64  98 126 174 228 284 332 396
#     4  11  21  42  70  96 133 175 230 287 331 408
#
# _framework density 24.281739000000002
#
# number of rings (size 3 to 8) (size 9 to 14) (size 15 to 20)
#    0.000    1.091    3.636    3.818    0.000    2.909 
#    3.273    3.636    0.000    0.000    0.000    0.000 
#    0.000    0.000    0.000    0.000    0.000    0.000 
#
# Total GULP energy -245858.173037 kJ/mol
# GULP energy per Si atom -5587.685751 kJ/mol
# Density = 2.422647 g / cm^3
# Si number density = 24.281739 Si / 1000 Ang^3
#
#
#
# Elastic Constant Matrix: (Units=GPa)
#
#
# Indices 1 2 3 4 5 6 
#
# 1 124.2502 1.8252 11.6205 0.0000 0.0000 0.0000
# 2 1.8252 96.1537 24.6976 0.0000 0.0000 0.0000
# 3 11.6205 24.6976 64.4454 0.0000 0.0000 0.0000
# 4 0.0000 0.0000 0.0000 5.1789 0.0000 0.0000
# 5 0.0000 0.0000 0.0000 0.0000 16.8674 0.0000
# 6 0.0000 0.0000 0.0000 0.0000 0.0000 53.1321
#
#
#
# Elastic Compliance Matrix: (Units=1/GPa)
#
#
# Indices 1 2 3 4 5 6 
#
# 1 0.008192 0.000248 -0.001572 0.000000 0.000000 0.000000
# 2 0.000248 0.011543 -0.004468 0.000000 0.000000 0.000000
# 3 -0.001572 -0.004468 0.017513 0.000000 0.000000 0.000000
# 4 0.000000 0.000000 0.000000 0.193090 0.000000 0.000000
# 5 0.000000 0.000000 0.000000 0.000000 0.059286 0.000000
# 6 0.000000 0.000000 0.000000 0.000000 0.000000 0.018821
#
#
# Mechanical properties :
#
#
# Convention : Reuss Voigt Hill
#
# Bulk Modulus (GPa) = 38.96666 40.12621 39.54644
# Shear Modulus (GPa) = 15.21682 31.48276 23.34979
#
# Velocity S-wave (km/s) = 2.50607 3.60469 3.10436
# Velocity P-wave (km/s) = 4.94534 5.82118 5.40104
#
# Compressibility (1/GPa) = 0.02566296
#
# Stress axis : x y z
#
# Youngs Moduli (GPa) = 122.07514 86.63229 57.10051
#
# Poissons Ratio (x) = -0.02151 0.08978
# Poissons Ratio (y) = -0.03032 0.25515
# Poissons Ratio (z) = 0.19193 0.38711
#
# Static dielectric constant tensor:
#      x y z
#    x 1.989670 0.000000 0.000000 
#    y 0.000000 1.952310 0.000000 
#    z 0.000000 0.000000 1.947330 
# 
# From -- ./inp_files/21947.got.cif
#   From: 2010.05.17/outbox.cif.g08.bks.cpg/sg73_11_cif.got.tgz:21947.got - 2010.06.03 17:35:07.
