data_PCOD9530411
_publ_section_title
;
Structure prediction by ZEFSAII (Michael W. Deem and Ramdas Pophale) SiO2 
 PCOD9530411
Probable space group: I B C A 
;
_chemical_formula_sum "Si O2"
_cell_formula_units_Z 120
_cell_length_a 23.200055
_cell_length_b 20.784034
_cell_length_c 13.895925
_cell_angle_alpha 90.000000
_cell_angle_beta 90.000000
_cell_angle_gamma 90.000000
_cell_volume 6700.486246
_symmetry_space_group_name_H-M "I B C A "
_symmetry_group_IT_number 73
_symmetry_cell_setting 'orthorhombic'
loop_
_space_group_symop_operation_xyz
x,y,z
-x,1/2-y,z
x,-y,1/2-z
1/2-x,y,-z
-x,-y,-z
x,1/2+y,-z
-x,y,1/2+z
1/2+x,-y,z
1/2+x,1/2+y,1/2+z
1/2-x,-y,1/2+z
1/2+x,1/2-y,-z
-x,1/2+y,1/2-z
1/2-x,1/2-y,1/2-z
1/2+x,y,1/2-z
1/2-x,1/2+y,z
x,1/2-y,1/2+z
loop_
_atom_site_type_symbol
_atom_site_label
_atom_site_fract_x
_atom_site_fract_y
_atom_site_fract_z
Si Si1 0.108392 0.145861 0.339090
Si Si2 0.013877 0.091212 0.073722
Si Si3 0.606398 0.162510 0.943163
Si Si4 0.193331 0.464669 0.854568
Si Si5 0.175561 0.958206 0.925157
Si Si6 0.001635 0.447768 0.858449
Si Si7 0.562940 0.217769 0.334192
Si Si8 0.095577 0.000000 0.750000
O O1 0.102725 0.175391 0.444033
O O2 0.167371 0.105927 0.334189
O O3 0.096731 0.199126 0.260945
O O4 0.056584 0.093751 0.329238
O O5 0.052367 0.150331 0.110166
O O6 0.948318 0.117035 0.081634
O O7 0.021353 0.076695 0.960957
O O8 0.020452 0.022293 0.125804
O O9 0.661607 0.117983 0.925812
O O10 0.599392 0.229036 0.889677
O O11 0.184376 0.500000 0.750000
O O12 0.260140 0.468413 0.885327
O O13 0.165533 0.481439 0.962628
O O14 0.133485 0.987365 0.844355
O O15 0.949031 0.444700 0.784005
O O16 0.500000 0.250000 0.316368
#
# Coordination Sequence:
#
# PCOD9530411 Si02
#       8
#    16  16  16  16  16  16  16   8
#     4  10  22  35  57  85 112 153 189 237 295 343
#     4   9  18  33  49  82 117 154 185 236 289 344
#     4   9  19  39  52  74 114 153 199 229 278 348
#     4  10  22  39  63  86 117 152 193 245 295 352
#     4  10  21  39  59  86 115 158 196 236 294 351
#     4  10  20  30  53  84 123 149 185 232 301 356
#     4  10  21  34  54  78 113 154 197 238 278 342
#     4  12  20  32  56  90 122 156 182 236 288 364
#
# _framework density 17.909147999999998
#
# number of rings (size 3 to 8) (size 9 to 14) (size 15 to 20)
#    0.000    2.133    2.000    0.800    6.533    2.667 
#    0.000    0.667    0.000    0.000    0.000    0.000 
#    0.000    0.000    0.000    0.000    0.000    0.000 
#
# Total GULP energy -334072.223185 kJ/mol
# GULP energy per Si atom -5567.870386 kJ/mol
# Density = 1.786839 g / cm^3
# Si number density = 17.909148 Si / 1000 Ang^3
#
#
#
# Elastic Constant Matrix: (Units=GPa)
#
#
# Indices 1 2 3 4 5 6 
#
# 1 32.9472 5.7073 29.3777 0.0000 0.0000 0.0000
# 2 5.7073 74.0315 62.9141 0.0000 0.0000 0.0000
# 3 29.3777 62.9141 143.9480 0.0000 0.0000 0.0000
# 4 0.0000 0.0000 0.0000 39.5788 0.0000 0.0000
# 5 0.0000 0.0000 0.0000 0.0000 28.9013 0.0000
# 6 0.0000 0.0000 0.0000 0.0000 0.0000 8.4112
#
#
#
# Elastic Compliance Matrix: (Units=1/GPa)
#
#
# Indices 1 2 3 4 5 6 
#
# 1 0.038672 0.005927 -0.010483 0.000000 0.000000 0.000000
# 2 0.005927 0.022398 -0.010999 0.000000 0.000000 0.000000
# 3 -0.010483 -0.010999 0.013894 0.000000 0.000000 0.000000
# 4 0.000000 0.000000 0.000000 0.025266 0.000000 0.000000
# 5 0.000000 0.000000 0.000000 0.000000 0.034601 0.000000
# 6 0.000000 0.000000 0.000000 0.000000 0.000000 0.118889
#
#
# Mechanical properties :
#
#
# Convention : Reuss Voigt Hill
#
# Bulk Modulus (GPa) = 22.80266 49.65831 36.23049
# Shear Modulus (GPa) = 16.69743 25.57342 21.13543
#
# Velocity S-wave (km/s) = 3.05674 3.78293 3.43905
# Velocity P-wave (km/s) = 5.02178 6.84608 6.00363
#
# Compressibility (1/GPa) = 0.04385454
#
# Stress axis : x y z
#
# Youngs Moduli (GPa) = 25.85842 44.64661 71.97529
#
# Poissons Ratio (x) = -0.26464 0.75452
# Poissons Ratio (y) = -0.15327 0.79166
# Poissons Ratio (z) = 0.27108 0.49107
#
# Static dielectric constant tensor:
#      x y z
#    x 1.630150 0.000000 0.000000 
#    y 0.000000 1.594000 0.000000 
#    z 0.000000 0.000000 1.695440 
# 
# From -- ./inp_files/19560.got.cif
#   From: 2010.05.17/outbox.cif.g08.bks.cpg/sg73_10_cif.got.tgz:19560.got - 2010.06.03 17:35:07.
