data_PCOD9530820
_publ_section_title
;
Structure prediction by ZEFSAII (Michael W. Deem and Ramdas Pophale) SiO2 
 PCOD9530820
Probable space group: I B C A 
;
_chemical_formula_sum "Si O2"
_cell_formula_units_Z 104
_cell_length_a 27.808102
_cell_length_b 20.156590
_cell_length_c 9.319913
_cell_angle_alpha 90.000000
_cell_angle_beta 90.000000
_cell_angle_gamma 90.000000
_cell_volume 5223.965115
_symmetry_space_group_name_H-M "I B C A "
_symmetry_group_IT_number 73
_symmetry_cell_setting 'orthorhombic'
loop_
_space_group_symop_operation_xyz
x,y,z
-x,1/2-y,z
x,-y,1/2-z
1/2-x,y,-z
-x,-y,-z
x,1/2+y,-z
-x,y,1/2+z
1/2+x,-y,z
1/2+x,1/2+y,1/2+z
1/2-x,-y,1/2+z
1/2+x,1/2-y,-z
-x,1/2+y,1/2-z
1/2-x,1/2-y,1/2-z
1/2+x,y,1/2-z
1/2-x,1/2+y,z
x,1/2-y,1/2+z
loop_
_atom_site_type_symbol
_atom_site_label
_atom_site_fract_x
_atom_site_fract_y
_atom_site_fract_z
Si Si1 0.798113 0.307223 0.906316
Si Si2 0.632784 0.927600 0.225920
Si Si3 0.154038 0.270048 0.140333
Si Si4 0.304593 0.548116 0.944806
Si Si5 0.435590 0.801144 0.734261
Si Si6 0.192891 0.096594 0.509033
Si Si7 0.500000 0.750000 0.988576
O O1 0.806434 0.262776 0.766588
O O2 0.803132 0.383487 0.856079
O O3 0.750000 0.299423 0.000000
O O4 0.838717 0.284726 0.018444
O O5 0.595148 0.868241 0.236135
O O6 0.673057 0.917455 0.349066
O O7 0.609797 0.000000 0.250000
O O8 0.660359 0.932727 0.075486
O O9 0.102483 0.258777 0.210814
O O10 0.163988 0.340488 0.067508
O O11 0.250000 0.541528 0.000000
O O12 0.316121 0.472217 0.903630
O O13 0.464340 0.788800 0.881133
O O14 0.470845 0.797366 0.597427
O O15 0.250000 0.111299 0.500000
#
# Coordination Sequence:
#
# PCOD9530820 Si02
#       7
#    16  16  16  16  16  16   8
#     4  11  23  35  54  84 123 166 200 248 287 336
#     4  10  20  38  62  86 123 165 201 243 293 355
#     4  12  23  36  61  87 121 153 208 255 292 349
#     4   9  20  36  55  81 126 175 209 234 281 338
#     4  11  22  42  63  91 113 148 194 247 321 375
#     4  10  22  35  54  88 127 173 208 242 277 335
#     4  10  24  42  68  86 114 142 182 258 324 392
#
# _framework density 19.908249000000001
#
# number of rings (size 3 to 8) (size 9 to 14) (size 15 to 20)
#    0.000    1.538    1.538    3.692    4.308    0.615 
#    0.000    0.769    0.000    0.000    0.000    0.000 
#    0.000    0.000    0.000    0.000    0.000    0.000 
#
# Total GULP energy -290223.514699 kJ/mol
# GULP energy per Si atom -5581.221437 kJ/mol
# Density = 1.986294 g / cm^3
# Si number density = 19.908249 Si / 1000 Ang^3
#
#
#
# Elastic Constant Matrix: (Units=GPa)
#
#
# Indices 1 2 3 4 5 6 
#
# 1 79.3915 39.0404 26.1178 0.0000 0.0000 0.0000
# 2 39.0404 126.3667 24.4624 0.0000 0.0000 0.0000
# 3 26.1178 24.4624 71.9369 0.0000 0.0000 0.0000
# 4 0.0000 0.0000 0.0000 31.4770 0.0000 0.0000
# 5 0.0000 0.0000 0.0000 0.0000 32.0211 0.0000
# 6 0.0000 0.0000 0.0000 0.0000 0.0000 22.3726
#
#
#
# Elastic Compliance Matrix: (Units=1/GPa)
#
#
# Indices 1 2 3 4 5 6 
#
# 1 0.016076 -0.004107 -0.004440 0.000000 0.000000 0.000000
# 2 -0.004107 0.009520 -0.001746 0.000000 0.000000 0.000000
# 3 -0.004440 -0.001746 0.016107 0.000000 0.000000 0.000000
# 4 0.000000 0.000000 0.000000 0.031769 0.000000 0.000000
# 5 0.000000 0.000000 0.000000 0.000000 0.031229 0.000000
# 6 0.000000 0.000000 0.000000 0.000000 0.000000 0.044698
#
#
# Mechanical properties :
#
#
# Convention : Reuss Voigt Hill
#
# Bulk Modulus (GPa) = 47.35626 50.77070 49.06348
# Shear Modulus (GPa) = 28.24453 29.71244 28.97849
#
# Velocity S-wave (km/s) = 3.77070 3.86744 3.81937
# Velocity P-wave (km/s) = 6.54190 6.74541 6.64443
#
# Compressibility (1/GPa) = 0.02111653
#
# Stress axis : x y z
#
# Youngs Moduli (GPa) = 62.20403 105.03751 62.08513
#
# Poissons Ratio (x) = 0.43140 0.27566
# Poissons Ratio (y) = 0.25548 0.10842
# Poissons Ratio (z) = 0.27619 0.18343
#
# Static dielectric constant tensor:
#      x y z
#    x 1.685060 0.000000 0.000000 
#    y 0.000000 1.750600 0.000000 
#    z 0.000000 0.000000 1.725980 
# 
# From -- ./inp_files/7909.got.cif
#   From: 2010.05.17/outbox.cif.g08.bks.cpg/sg73_4_cif.got.tgz:7909.got - 2010.06.03 17:35:07.
