data_PCOD9530179
_publ_section_title
;
Structure prediction by ZEFSAII (Michael W. Deem and Ramdas Pophale) SiO2 
 PCOD9530179
Probable space group: I B C A 
;
_chemical_formula_sum "Si O2"
_cell_formula_units_Z 88
_cell_length_a 29.974548
_cell_length_b 5.334262
_cell_length_c 24.394315
_cell_angle_alpha 90.000000
_cell_angle_beta 90.000000
_cell_angle_gamma 90.000000
_cell_volume 3900.458067
_symmetry_space_group_name_H-M "I B C A "
_symmetry_group_IT_number 73
_symmetry_cell_setting 'orthorhombic'
loop_
_space_group_symop_operation_xyz
x,y,z
-x,1/2-y,z
x,-y,1/2-z
1/2-x,y,-z
-x,-y,-z
x,1/2+y,-z
-x,y,1/2+z
1/2+x,-y,z
1/2+x,1/2+y,1/2+z
1/2-x,-y,1/2+z
1/2+x,1/2-y,-z
-x,1/2+y,1/2-z
1/2-x,1/2-y,1/2-z
1/2+x,y,1/2-z
1/2-x,1/2+y,z
x,1/2-y,1/2+z
loop_
_atom_site_type_symbol
_atom_site_label
_atom_site_fract_x
_atom_site_fract_y
_atom_site_fract_z
Si Si1 0.861595 0.507070 0.312331
Si Si2 0.471431 0.000000 0.250000
Si Si3 0.423860 0.007872 0.479089
Si Si4 0.321801 0.012406 0.523375
Si Si5 0.405135 0.486608 0.648378
Si Si6 0.222196 0.865893 0.364878
O O1 0.878164 0.500000 0.250000
O O2 0.886409 0.734118 0.342787
O O3 0.809879 0.582738 0.313758
O O4 0.870008 0.236776 0.339553
O O5 0.500000 0.250000 0.259136
O O6 0.442204 0.954665 0.304624
O O7 0.445825 0.272017 0.492020
O O8 0.374160 0.032101 0.507536
O O9 0.419780 0.963844 0.414451
O O10 0.303135 0.292318 0.515806
O O11 0.310153 0.912730 0.583034
O O12 0.258611 0.086823 0.366365
#
# Coordination Sequence:
#
# PCOD9530179 Si02
#       6
#    16   8  16  16  16  16
#     4  12  23  42  67  93 129 182 245 291 336 412
#     4  12  26  46  76 114 146 174 212 272 354 408
#     4  10  20  36  64  97 130 173 224 277 329 392
#     4  10  19  35  53  80 112 160 216 277 337 392
#     4  12  23  45  72 105 139 176 230 282 339 413
#     4  12  26  39  56  87 130 180 230 296 357 391
#
# _framework density 22.561453
#
# number of rings (size 3 to 8) (size 9 to 14) (size 15 to 20)
#    0.000    0.727    1.818    8.727    0.000    2.909 
#    0.000    0.000    0.000    3.273    0.000    0.000 
#    0.000    0.000    0.000    0.000    0.000    0.000 
#
# Total GULP energy -246012.200185 kJ/mol
# GULP energy per Si atom -5591.186368 kJ/mol
# Density = 2.251010 g / cm^3
# Si number density = 22.561453 Si / 1000 Ang^3
#
#
#
# Elastic Constant Matrix: (Units=GPa)
#
#
# Indices 1 2 3 4 5 6 
#
# 1 56.7847 -3.7142 12.0187 0.0000 0.0000 0.0000
# 2 -3.7142 124.0477 5.1118 0.0000 0.0000 0.0000
# 3 12.0187 5.1118 103.7410 0.0000 0.0000 0.0000
# 4 0.0000 0.0000 0.0000 30.6408 0.0000 0.0000
# 5 0.0000 0.0000 0.0000 0.0000 -841.8356 0.0000
# 6 0.0000 0.0000 0.0000 0.0000 0.0000 16.4910
#
#
#
# Elastic Compliance Matrix: (Units=1/GPa)
#
#
# Indices 1 2 3 4 5 6 
#
# 1 0.018102 0.000630 -0.002128 0.000000 0.000000 0.000000
# 2 0.000630 0.008100 -0.000472 0.000000 0.000000 0.000000
# 3 -0.002128 -0.000472 0.009909 0.000000 0.000000 0.000000
# 4 0.000000 0.000000 0.000000 0.032636 0.000000 0.000000
# 5 0.000000 0.000000 0.000000 0.000000 -0.001188 0.000000
# 6 0.000000 0.000000 0.000000 0.000000 0.000000 0.060639
#
#
# Mechanical properties :
#
#
# Convention : Reuss Voigt Hill
#
# Bulk Modulus (GPa) = 31.08505 34.60068 32.84287
# Shear Modulus (GPa) = 34.99862 -140.86363 -52.93250
#
# Velocity S-wave (km/s) = 3.94287 -7.91019 -4.84896
# Velocity P-wave (km/s) = 5.87675 8.24976 4.09405
#
# Compressibility (1/GPa) = 0.03216980
#
# Stress axis : x y z
#
# Youngs Moduli (GPa) = 55.24252 123.46099 100.91621
#
# Poissons Ratio (x) = -0.07774 0.21477
# Poissons Ratio (y) = -0.03479 0.04764
# Poissons Ratio (z) = 0.11757 0.05828
#
# Static dielectric constant tensor:
#      x y z
#    x 2.350930 0.000000 0.000000 
#    y 0.000000 1.871490 0.000000 
#    z 0.000000 0.000000 1.841000 
# 
# From -- ./inp_files/3099.got.cif
#   From: 2010.05.17/outbox.cif.g08.bks.cpg/sg73_2_cif.got.tgz:3099.got - 2010.06.03 17:35:07.
