data_PCOD9530106
_publ_section_title
;
Structure prediction by ZEFSAII (Michael W. Deem and Ramdas Pophale) SiO2 
 PCOD9530106
Probable space group: I B C A 
;
_chemical_formula_sum "Si O2"
_cell_formula_units_Z 96
_cell_length_a 24.998435
_cell_length_b 8.603662
_cell_length_c 17.090717
_cell_angle_alpha 90.000000
_cell_angle_beta 90.000000
_cell_angle_gamma 90.000000
_cell_volume 3675.838688
_symmetry_space_group_name_H-M "I B C A "
_symmetry_group_IT_number 73
_symmetry_cell_setting 'orthorhombic'
loop_
_space_group_symop_operation_xyz
x,y,z
-x,1/2-y,z
x,-y,1/2-z
1/2-x,y,-z
-x,-y,-z
x,1/2+y,-z
-x,y,1/2+z
1/2+x,-y,z
1/2+x,1/2+y,1/2+z
1/2-x,-y,1/2+z
1/2+x,1/2-y,-z
-x,1/2+y,1/2-z
1/2-x,1/2-y,1/2-z
1/2+x,y,1/2-z
1/2-x,1/2+y,z
x,1/2-y,1/2+z
loop_
_atom_site_type_symbol
_atom_site_label
_atom_site_fract_x
_atom_site_fract_y
_atom_site_fract_z
Si Si1 0.576821 0.006429 0.913538
Si Si2 0.000000 0.250000 0.412929
Si Si3 0.644431 0.302282 0.945833
Si Si4 0.255347 0.871713 0.094635
Si Si5 0.671547 0.856760 0.874647
Si Si6 0.500000 0.750000 0.169303
Si Si7 0.921483 0.995541 0.673892
O O1 0.614819 0.136291 0.952157
O O2 0.534183 0.124881 0.877489
O O3 0.540030 0.873556 0.954431
O O4 0.613421 0.917303 0.847247
O O5 0.958004 0.360258 0.365481
O O6 0.701074 0.267214 0.905601
O O7 0.610225 0.424716 0.897503
O O8 0.656784 0.355400 0.032947
O O9 0.200925 0.807815 0.133024
O O10 0.284854 0.010661 0.138475
O O11 0.250000 0.906375 0.000000
O O12 0.459038 0.634896 0.209950
O O13 0.882632 0.000000 0.750000
#
# Coordination Sequence:
#
# PCOD9530106 Si02
#       7
#    16   8  16  16  16   8  16
#     4   9  19  35  52  76 111 142 177 220 266 321
#     4  10  21  34  53  80 102 138 186 222 262 316
#     4   9  19  34  50  74 107 140 173 215 269 323
#     4   9  17  30  51  77 102 132 170 211 259 316
#     4  10  19  33  53  81 109 140 176 215 265 324
#     4   8  17  36  53  72 106 148 184 220 274 326
#     4  10  19  34  54  76 102 138 183 231 270 312
#
# _framework density 26.116486999999999
#
# number of rings (size 3 to 8) (size 9 to 14) (size 15 to 20)
#    0.000    2.667    0.000    2.000    0.000    5.333 
#    0.000   14.167    0.000    0.000    0.000   46.667 
#    0.000    0.000    0.000    0.000    0.000    0.000 
#
# Total GULP energy -267242.916849 kJ/mol
# GULP energy per Si atom -5567.560768 kJ/mol
# Density = 2.605705 g / cm^3
# Si number density = 26.116487 Si / 1000 Ang^3
#
#
#
# Elastic Constant Matrix: (Units=GPa)
#
#
# Indices 1 2 3 4 5 6 
#
# 1 109.1948 62.7953 14.1982 0.0000 0.0000 0.0000
# 2 62.7953 121.4456 12.0381 0.0000 0.0000 0.0000
# 3 14.1982 12.0381 39.5955 0.0000 0.0000 0.0000
# 4 0.0000 0.0000 0.0000 -11.2902 0.0000 0.0000
# 5 0.0000 0.0000 0.0000 0.0000 -15.0388 0.0000
# 6 0.0000 0.0000 0.0000 0.0000 0.0000 81.8332
#
#
#
# Elastic Compliance Matrix: (Units=1/GPa)
#
#
# Indices 1 2 3 4 5 6 
#
# 1 0.013321 -0.006614 -0.002766 0.000000 0.000000 0.000000
# 2 -0.006614 0.011774 -0.001208 0.000000 0.000000 0.000000
# 3 -0.002766 -0.001208 0.026614 0.000000 0.000000 0.000000
# 4 0.000000 0.000000 0.000000 -0.088572 0.000000 0.000000
# 5 0.000000 0.000000 0.000000 0.000000 -0.066495 0.000000
# 6 0.000000 0.000000 0.000000 0.000000 0.000000 0.012220
#
#
# Mechanical properties :
#
#
# Convention : Reuss Voigt Hill
#
# Bulk Modulus (GPa) = 32.75044 49.81102 41.28073
# Shear Modulus (GPa) = -83.63303 23.18112 -30.22595
#
# Velocity S-wave (km/s) = -5.66503 2.98250 -3.40568
# Velocity P-wave (km/s) = 5.49752 5.56547 0.61307
#
# Compressibility (1/GPa) = 0.03053394
#
# Stress axis : x y z
#
# Youngs Moduli (GPa) = 75.06982 84.93614 37.57357
#
# Poissons Ratio (x) = 0.56174 0.10393
# Poissons Ratio (y) = 0.49648 0.04539
# Poissons Ratio (z) = 0.20764 0.10260
#
# Static dielectric constant tensor:
#      x y z
#    x 2.379690 0.000000 0.000000 
#    y 0.000000 1.266660 0.000000 
#    z 0.000000 0.000000 2.048370 
# 
# From -- ./inp_files/30310.got.cif
#   From: 2010.05.17/outbox.cif.g08.bks.cpg/sg73_16_cif.got.tgz:30310.got - 2010.06.03 17:35:07.
