data_PCOD9530759
_publ_section_title
;
Structure prediction by ZEFSAII (Michael W. Deem and Ramdas Pophale) SiO2 
 PCOD9530759
Probable space group: I B C A 
;
_chemical_formula_sum "Si O2"
_cell_formula_units_Z 96
_cell_length_a 7.465110
_cell_length_b 22.193291
_cell_length_c 29.624964
_cell_angle_alpha 90.000000
_cell_angle_beta 90.000000
_cell_angle_gamma 90.000000
_cell_volume 4908.126534
_symmetry_space_group_name_H-M "I B C A "
_symmetry_group_IT_number 73
_symmetry_cell_setting 'orthorhombic'
loop_
_space_group_symop_operation_xyz
x,y,z
-x,1/2-y,z
x,-y,1/2-z
1/2-x,y,-z
-x,-y,-z
x,1/2+y,-z
-x,y,1/2+z
1/2+x,-y,z
1/2+x,1/2+y,1/2+z
1/2-x,-y,1/2+z
1/2+x,1/2-y,-z
-x,1/2+y,1/2-z
1/2-x,1/2-y,1/2-z
1/2+x,y,1/2-z
1/2-x,1/2+y,z
x,1/2-y,1/2+z
loop_
_atom_site_type_symbol
_atom_site_label
_atom_site_fract_x
_atom_site_fract_y
_atom_site_fract_z
Si Si1 0.930847 0.145638 0.317837
Si Si2 0.982880 0.578977 0.906243
Si Si3 0.037166 0.071062 0.495357
Si Si4 0.708022 0.315648 0.271285
Si Si5 0.557843 0.062142 0.103694
Si Si6 0.413997 0.308571 0.348398
O O1 0.829763 0.137469 0.269555
O O2 0.798894 0.194768 0.340603
O O3 0.125140 0.167525 0.302397
O O4 0.963147 0.091784 0.353125
O O5 0.036192 0.596462 0.957712
O O6 0.768094 0.578307 0.898714
O O7 0.044134 0.510472 0.896665
O O8 0.059661 0.629109 0.873829
O O9 0.250000 0.080439 0.500000
O O10 0.979439 0.086071 0.444421
O O11 0.000000 0.000000 0.500000
O O12 0.750000 0.250000 0.250000
O O13 0.532582 0.313515 0.302693
O O14 0.500000 0.250000 0.371822
#
# Coordination Sequence:
#
# PCOD9530759 Si02
#       6
#    16  16  16  16  16  16
#     4  12  23  38  64  92 118 158 205 261 311 355
#     4  10  20  38  61  93 130 162 204 254 309 376
#     4   8  16  32  59  90 120 160 199 246 300 368
#     4  12  23  40  63  86 119 160 215 260 294 366
#     4  10  20  37  64  93 129 161 203 255 316 374
#     4  12  24  38  63  91 122 164 211 257 304 362
#
# _framework density 19.559398000000002
#
# number of rings (size 3 to 8) (size 9 to 14) (size 15 to 20)
#    0.000    1.333    5.000    1.500    0.000    1.333 
#    0.000    0.833    0.000    8.000    0.000    0.000 
#    0.000    0.000    0.000    0.000    0.000    0.000 
#
# Total GULP energy -267458.810299 kJ/mol
# GULP energy per Si atom -5572.058548 kJ/mol
# Density = 1.951488 g / cm^3
# Si number density = 19.559398 Si / 1000 Ang^3
#
#
#
# Elastic Constant Matrix: (Units=GPa)
#
#
# Indices 1 2 3 4 5 6 
#
# 1 98.7455 24.1760 31.3710 0.0000 0.0000 0.0000
# 2 24.1760 75.9774 70.6392 0.0000 0.0000 0.0000
# 3 31.3710 70.6392 146.8023 0.0000 0.0000 0.0000
# 4 0.0000 0.0000 0.0000 9.8918 0.0000 0.0000
# 5 0.0000 0.0000 0.0000 0.0000 8.7390 0.0000
# 6 0.0000 0.0000 0.0000 0.0000 0.0000 24.1182
#
#
#
# Elastic Compliance Matrix: (Units=1/GPa)
#
#
# Indices 1 2 3 4 5 6 
#
# 1 0.011102 -0.002401 -0.001217 0.000000 0.000000 0.000000
# 2 -0.002401 0.024336 -0.011197 0.000000 0.000000 0.000000
# 3 -0.001217 -0.011197 0.012460 0.000000 0.000000 0.000000
# 4 0.000000 0.000000 0.000000 0.101094 0.000000 0.000000
# 5 0.000000 0.000000 0.000000 0.000000 0.114429 0.000000
# 6 0.000000 0.000000 0.000000 0.000000 0.000000 0.041462
#
#
# Mechanical properties :
#
#
# Convention : Reuss Voigt Hill
#
# Bulk Modulus (GPa) = 54.74273 63.76643 59.25458
# Shear Modulus (GPa) = 14.67986 21.57240 18.12613
#
# Velocity S-wave (km/s) = 2.74255 3.32462 3.04751
# Velocity P-wave (km/s) = 6.17069 6.88547 6.53786
#
# Compressibility (1/GPa) = 0.01826727
#
# Stress axis : x y z
#
# Youngs Moduli (GPa) = 90.07773 41.09093 80.25754
#
# Poissons Ratio (x) = 0.09866 0.09768
# Poissons Ratio (y) = 0.21628 0.89866
# Poissons Ratio (z) = 0.10963 0.46010
#
# Static dielectric constant tensor:
#      x y z
#    x 1.743810 0.000000 0.000000 
#    y 0.000000 1.648540 0.000000 
#    z 0.000000 0.000000 1.757470 
# 
# From -- ./inp_files/31337.got.cif
#   From: 2010.05.17/outbox.cif.g08.bks.cpg/sg73_16_cif.got.tgz:31337.got - 2010.06.03 17:35:07.
