data_PCOD9530539
_publ_section_title
;
Structure prediction by ZEFSAII (Michael W. Deem and Ramdas Pophale) SiO2 
 PCOD9530539
Probable space group: I B C A 
;
_chemical_formula_sum "Si O2"
_cell_formula_units_Z 88
_cell_length_a 17.469082
_cell_length_b 24.066197
_cell_length_c 9.535936
_cell_angle_alpha 90.000000
_cell_angle_beta 90.000000
_cell_angle_gamma 90.000000
_cell_volume 4009.044515
_symmetry_space_group_name_H-M "I B C A "
_symmetry_group_IT_number 73
_symmetry_cell_setting 'orthorhombic'
loop_
_space_group_symop_operation_xyz
x,y,z
-x,1/2-y,z
x,-y,1/2-z
1/2-x,y,-z
-x,-y,-z
x,1/2+y,-z
-x,y,1/2+z
1/2+x,-y,z
1/2+x,1/2+y,1/2+z
1/2-x,-y,1/2+z
1/2+x,1/2-y,-z
-x,1/2+y,1/2-z
1/2-x,1/2-y,1/2-z
1/2+x,y,1/2-z
1/2-x,1/2+y,z
x,1/2-y,1/2+z
loop_
_atom_site_type_symbol
_atom_site_label
_atom_site_fract_x
_atom_site_fract_y
_atom_site_fract_z
Si Si1 0.045630 0.192368 0.525507
Si Si2 0.839747 0.192014 0.251698
Si Si3 0.662980 0.112643 0.484431
Si Si4 0.004894 0.927910 0.505766
Si Si5 0.503868 0.000000 0.250000
Si Si6 0.824730 0.820856 0.705016
O O1 0.078458 0.183890 0.681148
O O2 0.118892 0.185249 0.425063
O O3 0.000000 0.250000 0.509406
O O4 0.998419 0.137890 0.493659
O O5 0.838599 0.164505 0.405228
O O6 0.828223 0.257972 0.236897
O O7 0.764593 0.166691 0.176198
O O8 0.750000 0.090676 0.500000
O O9 0.597773 0.066675 0.514537
O O10 0.650624 0.137501 0.328548
O O11 0.971486 0.956319 0.365652
O O12 0.962987 0.956212 0.637221
#
# Coordination Sequence:
#
# PCOD9530539 Si02
#       6
#    16  16  16  16   8  16
#     4  12  24  36  60  95 126 153 194 250 302 354
#     4  10  20  35  54  82 123 165 196 230 291 365
#     4  10  21  37  59  84 114 152 197 250 297 345
#     4  11  22  41  62  87 118 153 201 244 292 352
#     4  10  24  42  64  82 112 162 200 242 292 346
#     4  10  20  35  54  82 123 165 196 230 291 365
#
# _framework density 21.950368000000001
#
# number of rings (size 3 to 8) (size 9 to 14) (size 15 to 20)
#    0.000    1.455    0.000    6.000    0.000    6.545 
#    0.000    1.818    0.000    8.727    0.000    0.000 
#    0.000    0.000    0.000    0.000    0.000    0.000 
#
# Total GULP energy -244946.035482 kJ/mol
# GULP energy per Si atom -5566.955352 kJ/mol
# Density = 2.190041 g / cm^3
# Si number density = 21.950368 Si / 1000 Ang^3
#
#
#
# Elastic Constant Matrix: (Units=GPa)
#
#
# Indices 1 2 3 4 5 6 
#
# 1 79.5370 29.6090 16.9137 0.0000 0.0000 0.0000
# 2 29.6090 101.4511 25.5383 0.0000 0.0000 0.0000
# 3 16.9137 25.5383 108.5769 0.0000 0.0000 0.0000
# 4 0.0000 0.0000 0.0000 17.1525 0.0000 0.0000
# 5 0.0000 0.0000 0.0000 0.0000 29.5158 0.0000
# 6 0.0000 0.0000 0.0000 0.0000 0.0000 10.5072
#
#
#
# Elastic Compliance Matrix: (Units=1/GPa)
#
#
# Indices 1 2 3 4 5 6 
#
# 1 0.014282 -0.003835 -0.001323 0.000000 0.000000 0.000000
# 2 -0.003835 0.011507 -0.002109 0.000000 0.000000 0.000000
# 3 -0.001323 -0.002109 0.009912 0.000000 0.000000 0.000000
# 4 0.000000 0.000000 0.000000 0.058300 0.000000 0.000000
# 5 0.000000 0.000000 0.000000 0.000000 0.033880 0.000000
# 6 0.000000 0.000000 0.000000 0.000000 0.000000 0.095173
#
#
# Mechanical properties :
#
#
# Convention : Reuss Voigt Hill
#
# Bulk Modulus (GPa) = 47.24328 48.18744 47.71536
# Shear Modulus (GPa) = 20.43780 25.93537 23.18659
#
# Velocity S-wave (km/s) = 3.05469 3.44109 3.25363
# Velocity P-wave (km/s) = 5.83190 6.14725 5.99165
#
# Compressibility (1/GPa) = 0.02116703
#
# Stress axis : x y z
#
# Youngs Moduli (GPa) = 70.01927 86.90177 100.88575
#
# Poissons Ratio (x) = 0.33329 0.13344
# Poissons Ratio (y) = 0.26854 0.21279
# Poissons Ratio (z) = 0.09261 0.18329
#
# Static dielectric constant tensor:
#      x y z
#    x 1.979990 0.000000 0.000000 
#    y 0.000000 1.819470 0.000000 
#    z 0.000000 0.000000 1.833410 
# 
# From -- ./inp_files/6273.got.cif
#   From: 2010.05.17/outbox.cif.g08.bks.cpg/sg73_4_cif.got.tgz:6273.got - 2010.06.03 17:35:07.
