data_PCOD9530603
_publ_section_title
;
Structure prediction by ZEFSAII (Michael W. Deem and Ramdas Pophale) SiO2 
 PCOD9530603
Probable space group: I B C A 
;
_chemical_formula_sum "Si O2"
_cell_formula_units_Z 64
_cell_length_a 21.493133
_cell_length_b 7.365965
_cell_length_c 15.735134
_cell_angle_alpha 90.000000
_cell_angle_beta 90.000000
_cell_angle_gamma 90.000000
_cell_volume 2491.149680
_symmetry_space_group_name_H-M "I B C A "
_symmetry_group_IT_number 73
_symmetry_cell_setting 'orthorhombic'
loop_
_space_group_symop_operation_xyz
x,y,z
-x,1/2-y,z
x,-y,1/2-z
1/2-x,y,-z
-x,-y,-z
x,1/2+y,-z
-x,y,1/2+z
1/2+x,-y,z
1/2+x,1/2+y,1/2+z
1/2-x,-y,1/2+z
1/2+x,1/2-y,-z
-x,1/2+y,1/2-z
1/2-x,1/2-y,1/2-z
1/2+x,y,1/2-z
1/2-x,1/2+y,z
x,1/2-y,1/2+z
loop_
_atom_site_type_symbol
_atom_site_label
_atom_site_fract_x
_atom_site_fract_y
_atom_site_fract_z
Si Si1 0.332592 0.431293 0.345657
Si Si2 0.215681 0.297429 0.411628
Si Si3 0.040267 0.013355 0.350428
Si Si4 0.590333 0.069822 0.651931
O O1 0.340349 0.500000 0.250000
O O2 0.273316 0.303076 0.346289
O O3 0.312090 0.597959 0.404157
O O4 0.402452 0.380538 0.373692
O O5 0.250000 0.323142 0.500000
O O6 0.158065 0.431399 0.391928
O O7 0.067777 0.218355 0.355499
O O8 0.971962 0.979988 0.388529
O O9 0.027087 0.000000 0.250000
O O10 0.599870 0.000000 0.750000
#
# Coordination Sequence:
#
# PCOD9530603 Si02
#       4
#    16  16  16  16
#     4  10  20  36  57  79 105 143 186 229 271 323
#     4  11  22  35  52  79 113 147 180 223 273 325
#     4   8  16  31  53  80 104 132 179 233 271 312
#     4   9  17  32  54  78 106 142 181 223 271 322
#
# _framework density 25.690949
#
# number of rings (size 3 to 8) (size 9 to 14) (size 15 to 20)
#    0.000    2.500    0.000    2.250    0.000    4.000 
#    0.000    1.250    0.000    3.000    0.000    0.000 
#    0.000    0.000    0.000    0.000    0.000    0.000 
#
# Total GULP energy -178420.367488 kJ/mol
# GULP energy per Si atom -5575.636484 kJ/mol
# Density = 2.563247 g / cm^3
# Si number density = 25.690949 Si / 1000 Ang^3
#
#
#
# Elastic Constant Matrix: (Units=GPa)
#
#
# Indices 1 2 3 4 5 6 
#
# 1 266.7745 66.5856 68.4296 0.0000 0.0000 0.0000
# 2 66.5856 39.7970 11.5956 0.0000 0.0000 0.0000
# 3 68.4296 11.5956 61.7261 0.0000 0.0000 0.0000
# 4 0.0000 0.0000 0.0000 16.5618 0.0000 0.0000
# 5 0.0000 0.0000 0.0000 0.0000 32.1452 0.0000
# 6 0.0000 0.0000 0.0000 0.0000 0.0000 22.8283
#
#
#
# Elastic Compliance Matrix: (Units=1/GPa)
#
#
# Indices 1 2 3 4 5 6 
#
# 1 0.008759 -0.012510 -0.007360 0.000000 0.000000 0.000000
# 2 -0.012510 0.044451 0.005519 0.000000 0.000000 0.000000
# 3 -0.007360 0.005519 0.023323 0.000000 0.000000 0.000000
# 4 0.000000 0.000000 0.000000 0.060380 0.000000 0.000000
# 5 0.000000 0.000000 0.000000 0.000000 0.031109 0.000000
# 6 0.000000 0.000000 0.000000 0.000000 0.000000 0.043805
#
#
# Mechanical properties :
#
#
# Convention : Reuss Voigt Hill
#
# Bulk Modulus (GPa) = 20.90753 73.50212 47.20482
# Shear Modulus (GPa) = 19.49517 29.08618 24.29067
#
# Velocity S-wave (km/s) = 2.75768 3.36840 3.07823
# Velocity P-wave (km/s) = 4.27733 6.61819 5.57207
#
# Compressibility (1/GPa) = 0.04782967
#
# Stress axis : x y z
#
# Youngs Moduli (GPa) = 114.16982 22.49670 42.87576
#
# Poissons Ratio (x) = 0.28144 0.31557
# Poissons Ratio (y) = 1.42830 -0.23661
# Poissons Ratio (z) = 0.84029 -0.12415
#
# Static dielectric constant tensor:
#      x y z
#    x 2.226580 0.000000 0.000000 
#    y 0.000000 2.172560 0.000000 
#    z 0.000000 0.000000 2.143460 
# 
# From -- ./inp_files/5944.got.cif
#   From: 2010.05.17/outbox.cif.g08.bks.cpg/sg73_3_cif.got.tgz:5944.got - 2010.06.03 17:35:07.
