data_PCOD9530757
_publ_section_title
;
Structure prediction by ZEFSAII (Michael W. Deem and Ramdas Pophale) SiO2 
 PCOD9530757
Probable space group: I B C A 
;
_chemical_formula_sum "Si O2"
_cell_formula_units_Z 56
_cell_length_a 6.741677
_cell_length_b 20.486183
_cell_length_c 14.212411
_cell_angle_alpha 90.000000
_cell_angle_beta 90.000000
_cell_angle_gamma 90.000000
_cell_volume 1962.893547
_symmetry_space_group_name_H-M "I B C A "
_symmetry_group_IT_number 73
_symmetry_cell_setting 'orthorhombic'
loop_
_space_group_symop_operation_xyz
x,y,z
-x,1/2-y,z
x,-y,1/2-z
1/2-x,y,-z
-x,-y,-z
x,1/2+y,-z
-x,y,1/2+z
1/2+x,-y,z
1/2+x,1/2+y,1/2+z
1/2-x,-y,1/2+z
1/2+x,1/2-y,-z
-x,1/2+y,1/2-z
1/2-x,1/2-y,1/2-z
1/2+x,y,1/2-z
1/2-x,1/2+y,z
x,1/2-y,1/2+z
loop_
_atom_site_type_symbol
_atom_site_label
_atom_site_fract_x
_atom_site_fract_y
_atom_site_fract_z
Si Si1 0.527280 0.458210 0.658626
Si Si2 0.000000 0.750000 0.672075
Si Si3 0.007781 0.582046 0.475209
Si Si4 0.179850 0.660396 0.333432
O O1 0.465316 0.500000 0.750000
O O2 0.556631 0.519367 0.586411
O O3 0.413121 0.414656 0.578888
O O4 0.698269 0.406780 0.690246
O O5 0.902290 0.696027 0.741678
O O6 0.830598 0.788842 0.619579
O O7 0.250000 0.579522 0.500000
O O8 0.006085 0.641889 0.404195
#
# Coordination Sequence:
#
# PCOD9530757 Si02
#       4
#    16   8  16  16
#     4  10  20  37  64  92 126 166 208 270 338 394
#     4  10  22  38  64  92 132 192 228 264 320 392
#     4   9  20  37  59  94 130 160 209 273 333 395
#     4  10  21  40  61  94 135 175 228 271 324 395
#
# _framework density 28.529308
#
# number of rings (size 3 to 8) (size 9 to 14) (size 15 to 20)
#    0.000    2.286    0.000    1.714    0.000    9.143 
#    0.000   15.714    0.000    0.000    0.000    0.000 
#    0.000    0.000    0.000    0.000    0.000    0.000 
#
# Total GULP energy -155966.611831 kJ/mol
# GULP energy per Si atom -5570.236137 kJ/mol
# Density = 2.846437 g / cm^3
# Si number density = 28.529308 Si / 1000 Ang^3
#
#
#
# Elastic Constant Matrix: (Units=GPa)
#
#
# Indices 1 2 3 4 5 6 
#
# 1 88.9381 74.5592 4.1197 0.0000 0.0000 0.0000
# 2 74.5592 153.2012 87.8810 0.0000 0.0000 0.0000
# 3 4.1197 87.8810 187.8406 0.0000 0.0000 0.0000
# 4 0.0000 0.0000 0.0000 26.9410 0.0000 0.0000
# 5 0.0000 0.0000 0.0000 0.0000 4.3100 0.0000
# 6 0.0000 0.0000 0.0000 0.0000 0.0000 97.7653
#
#
#
# Elastic Compliance Matrix: (Units=1/GPa)
#
#
# Indices 1 2 3 4 5 6 
#
# 1 0.023934 -0.015509 0.006731 0.000000 0.000000 0.000000
# 2 -0.015509 0.018971 -0.008536 0.000000 0.000000 0.000000
# 3 0.006731 -0.008536 0.009169 0.000000 0.000000 0.000000
# 4 0.000000 0.000000 0.000000 0.037118 0.000000 0.000000
# 5 0.000000 0.000000 0.000000 0.000000 0.232019 0.000000
# 6 0.000000 0.000000 0.000000 0.000000 0.000000 0.010229
#
#
# Mechanical properties :
#
#
# Convention : Reuss Voigt Hill
#
# Bulk Modulus (GPa) = 57.31593 84.78885 71.05239
# Shear Modulus (GPa) = 13.44508 43.36459 28.40483
#
# Velocity S-wave (km/s) = 2.17324 3.90295 3.15879
# Velocity P-wave (km/s) = 5.14112 7.07779 6.18572
#
# Compressibility (1/GPa) = 0.01744716
#
# Stress axis : x y z
#
# Youngs Moduli (GPa) = 41.78240 52.71074 109.05805
#
# Poissons Ratio (x) = 0.81749 -0.73406
# Poissons Ratio (y) = 0.64800 0.93088
# Poissons Ratio (z) = -0.28123 0.44992
#
# Static dielectric constant tensor:
#      x y z
#    x 2.569930 0.000000 0.000000 
#    y 0.000000 2.242380 0.000000 
#    z 0.000000 0.000000 2.510110 
# 
# From -- ./inp_files/15375.got.cif
#   From: 2010.05.17/outbox.cif.g08.bks.cpg/sg73_8_cif.got.tgz:15375.got - 2010.06.03 17:35:07.
