data_PCOD9530671
_publ_section_title
;
Structure prediction by ZEFSAII (Michael W. Deem and Ramdas Pophale) SiO2 
 PCOD9530671
Probable space group: I B C A 
;
_chemical_formula_sum "Si O2"
_cell_formula_units_Z 56
_cell_length_a 5.571643
_cell_length_b 22.535279
_cell_length_c 18.558754
_cell_angle_alpha 90.000000
_cell_angle_beta 90.000000
_cell_angle_gamma 90.000000
_cell_volume 2330.209861
_symmetry_space_group_name_H-M "I B C A "
_symmetry_group_IT_number 73
_symmetry_cell_setting 'orthorhombic'
loop_
_space_group_symop_operation_xyz
x,y,z
-x,1/2-y,z
x,-y,1/2-z
1/2-x,y,-z
-x,-y,-z
x,1/2+y,-z
-x,y,1/2+z
1/2+x,-y,z
1/2+x,1/2+y,1/2+z
1/2-x,-y,1/2+z
1/2+x,1/2-y,-z
-x,1/2+y,1/2-z
1/2-x,1/2-y,1/2-z
1/2+x,y,1/2-z
1/2-x,1/2+y,z
x,1/2-y,1/2+z
loop_
_atom_site_type_symbol
_atom_site_label
_atom_site_fract_x
_atom_site_fract_y
_atom_site_fract_z
Si Si1 0.250000 0.565040 0.500000
Si Si2 0.250000 0.718818 0.000000
Si Si3 0.000000 0.750000 0.793889
Si Si4 0.170419 0.985908 0.358756
Si Si5 0.401424 0.139857 0.892581
O O1 0.145126 0.520965 0.563212
O O2 0.424767 0.608498 0.546966
O O3 0.500000 0.750000 0.016190
O O4 0.300863 0.677812 0.932286
O O5 0.250000 0.750000 0.750000
O O6 0.984681 0.688381 0.839925
O O7 0.227148 0.916538 0.359812
O O8 0.405944 0.014203 0.325916
#
# Coordination Sequence:
#
# PCOD9530671 Si02
#       5
#     8   8   8  16  16
#     4  10  20  40  70 118 134 166 202 292 384 430
#     4  12  24  36  62 106 134 164 218 284 368 420
#     4  12  32  50  66  90 136 204 254 272 310 390
#     4  10  20  36  63 103 138 165 199 266 362 434
#     4  11  23  43  70 100 146 176 224 291 350 417
#
# _framework density 24.032169
#
# number of rings (size 3 to 8) (size 9 to 14) (size 15 to 20)
#    0.000    1.143    1.429    6.857    2.000    6.857 
#    0.000    0.000    0.000   20.571    0.000    0.000 
#    0.000    0.000    0.000    0.000    0.000    0.000 
#
# Total GULP energy -155884.801488 kJ/mol
# GULP energy per Si atom -5567.314339 kJ/mol
# Density = 2.397747 g / cm^3
# Si number density = 24.032169 Si / 1000 Ang^3
#
#
#
# Elastic Constant Matrix: (Units=GPa)
#
#
# Indices 1 2 3 4 5 6 
#
# 1 114.3143 19.8520 12.8635 0.0000 0.0000 0.0000
# 2 19.8520 156.8333 37.1539 0.0000 0.0000 0.0000
# 3 12.8635 37.1539 92.4774 0.0000 0.0000 0.0000
# 4 0.0000 0.0000 0.0000 39.2028 0.0000 0.0000
# 5 0.0000 0.0000 0.0000 0.0000 0.7675 0.0000
# 6 0.0000 0.0000 0.0000 0.0000 0.0000 8.0455
#
#
#
# Elastic Compliance Matrix: (Units=1/GPa)
#
#
# Indices 1 2 3 4 5 6 
#
# 1 0.009009 -0.000932 -0.000879 0.000000 0.000000 0.000000
# 2 -0.000932 0.007143 -0.002740 0.000000 0.000000 0.000000
# 3 -0.000879 -0.002740 0.012037 0.000000 0.000000 0.000000
# 4 0.000000 0.000000 0.000000 0.025508 0.000000 0.000000
# 5 0.000000 0.000000 0.000000 0.000000 1.302909 0.000000
# 6 0.000000 0.000000 0.000000 0.000000 0.000000 0.124293
#
#
# Mechanical properties :
#
#
# Convention : Reuss Voigt Hill
#
# Bulk Modulus (GPa) = 52.39303 55.92930 54.16117
# Shear Modulus (GPa) = 3.34143 29.18688 16.26416
#
# Velocity S-wave (km/s) = 1.18043 3.48874 2.60429
# Velocity P-wave (km/s) = 4.86892 6.28900 5.62397
#
# Compressibility (1/GPa) = 0.01908651
#
# Stress axis : x y z
#
# Youngs Moduli (GPa) = 111.00556 139.99014 83.07996
#
# Poissons Ratio (x) = 0.13049 0.07299
# Poissons Ratio (y) = 0.10348 0.22766
# Poissons Ratio (z) = 0.09753 0.38361
#
# Static dielectric constant tensor:
#      x y z
#    x 1.987170 0.000000 0.000000 
#    y 0.000000 1.933290 0.000000 
#    z 0.000000 0.000000 2.064310 
# 
# From -- ./inp_files/1521.got.cif
#   From: 2010.05.17/outbox.cif.g08.bks.cpg/sg73_1_cif.got.tgz:1521.got - 2010.06.03 17:35:07.
