data_PCOD9530823
_publ_section_title
;
Structure prediction by ZEFSAII (Michael W. Deem and Ramdas Pophale) SiO2 
 PCOD9530823
Probable space group: I B C A 
;
_chemical_formula_sum "Si O2"
_cell_formula_units_Z 120
_cell_length_a 19.240171
_cell_length_b 13.661848
_cell_length_c 21.293736
_cell_angle_alpha 90.000000
_cell_angle_beta 90.000000
_cell_angle_gamma 90.000000
_cell_volume 5597.192481
_symmetry_space_group_name_H-M "I B C A "
_symmetry_group_IT_number 73
_symmetry_cell_setting 'orthorhombic'
loop_
_space_group_symop_operation_xyz
x,y,z
-x,1/2-y,z
x,-y,1/2-z
1/2-x,y,-z
-x,-y,-z
x,1/2+y,-z
-x,y,1/2+z
1/2+x,-y,z
1/2+x,1/2+y,1/2+z
1/2-x,-y,1/2+z
1/2+x,1/2-y,-z
-x,1/2+y,1/2-z
1/2-x,1/2-y,1/2-z
1/2+x,y,1/2-z
1/2-x,1/2+y,z
x,1/2-y,1/2+z
loop_
_atom_site_type_symbol
_atom_site_label
_atom_site_fract_x
_atom_site_fract_y
_atom_site_fract_z
Si Si1 0.727689 0.341379 0.655413
Si Si2 0.191817 0.963366 0.950849
Si Si3 0.720504 0.371190 0.202789
Si Si4 0.500000 0.750000 0.888484
Si Si5 0.360602 0.513266 0.178735
Si Si6 0.480147 0.563061 0.095329
Si Si7 0.590536 0.434205 0.142941
Si Si8 0.063833 0.127185 0.485479
O O1 0.773322 0.393353 0.601824
O O2 0.763214 0.354141 0.724104
O O3 0.716468 0.225050 0.658322
O O4 0.655916 0.403433 0.655275
O O5 0.139723 0.895520 0.990034
O O6 0.141446 0.044767 0.918087
O O7 0.250000 0.001441 0.000000
O O8 0.785374 0.435646 0.179984
O O9 0.646832 0.422404 0.196438
O O10 0.462110 0.658818 0.855227
O O11 0.558824 0.713712 0.936797
O O12 0.386268 0.500000 0.250000
O O13 0.411714 0.577236 0.136361
O O14 0.541406 0.528847 0.141806
O O15 0.512224 0.637139 0.045205
O O16 0.462234 0.467491 0.053404
#
# Coordination Sequence:
#
# PCOD9530823 Si02
#       8
#    16  16  16   8  16  16  16  16
#     4  10  22  39  61  88 128 158 207 263 308 369
#     4  11  22  38  60  93 121 164 207 256 317 374
#     4  10  22  40  63  89 121 165 210 258 314 365
#     4  10  22  38  58  86 124 160 208 250 306 378
#     4  10  20  38  62  90 119 164 204 257 317 365
#     4   9  19  38  58  82 119 155 200 244 301 371
#     4  10  22  39  61  93 120 166 208 254 312 374
#     4   9  20  36  56  81 121 160 188 247 307 352
#
# _framework density 21.439319999999999
#
# number of rings (size 3 to 8) (size 9 to 14) (size 15 to 20)
#    0.000    2.133    1.333    1.600    5.600    1.067 
#    7.200    0.000    0.000    0.800    0.000    0.000 
#    0.000    0.000    0.000    0.000    0.000    0.000 
#
# Total GULP energy -334328.502721 kJ/mol
# GULP energy per Si atom -5572.141712 kJ/mol
# Density = 2.139052 g / cm^3
# Si number density = 21.439320 Si / 1000 Ang^3
#
#
#
# Elastic Constant Matrix: (Units=GPa)
#
#
# Indices 1 2 3 4 5 6 
#
# 1 96.8667 3.0283 36.3696 0.0000 0.0000 0.0000
# 2 3.0283 50.9531 11.7398 0.0000 0.0000 0.0000
# 3 36.3696 11.7398 28.4861 0.0000 0.0000 0.0000
# 4 0.0000 0.0000 0.0000 3.3401 0.0000 0.0000
# 5 0.0000 0.0000 0.0000 0.0000 36.1526 0.0000
# 6 0.0000 0.0000 0.0000 0.0000 0.0000 21.0700
#
#
#
# Elastic Compliance Matrix: (Units=1/GPa)
#
#
# Indices 1 2 3 4 5 6 
#
# 1 0.021128 0.005480 -0.029234 0.000000 0.000000 0.000000
# 2 0.005480 0.023106 -0.016519 0.000000 0.000000 0.000000
# 3 -0.029234 -0.016519 0.079237 0.000000 0.000000 0.000000
# 4 0.000000 0.000000 0.000000 0.299396 0.000000 0.000000
# 5 0.000000 0.000000 0.000000 0.000000 0.027661 0.000000
# 6 0.000000 0.000000 0.000000 0.000000 0.000000 0.047461
#
#
# Mechanical properties :
#
#
# Convention : Reuss Voigt Hill
#
# Bulk Modulus (GPa) = 23.29620 30.95348 27.12484
# Shear Modulus (GPa) = 8.43392 20.45708 14.44550
#
# Velocity S-wave (km/s) = 1.98555 3.09234 2.59855
# Velocity P-wave (km/s) = 4.01824 5.21720 4.65647
#
# Compressibility (1/GPa) = 0.04292546
#
# Stress axis : x y z
#
# Youngs Moduli (GPa) = 47.32985 43.27830 12.62035
#
# Poissons Ratio (x) = -0.23716 0.36894
# Poissons Ratio (y) = -0.25936 0.20848
# Poissons Ratio (z) = 1.38364 0.71492
#
# Static dielectric constant tensor:
#      x y z
#    x 1.788370 0.000000 0.000000 
#    y 0.000000 1.840460 0.000000 
#    z 0.000000 0.000000 1.812610 
# 
# From -- ./inp_files/29903.got.cif
#   From: 2010.05.17/outbox.cif.g08.bks.cpg/sg73_15_cif.got.tgz:29903.got - 2010.06.03 17:35:07.
