data_PCOD9530861
_publ_section_title
;
Structure prediction by ZEFSAII (Michael W. Deem and Ramdas Pophale) SiO2 
 PCOD9530861
Probable space group: I B C A 
;
_chemical_formula_sum "Si O2"
_cell_formula_units_Z 56
_cell_length_a 7.976212
_cell_length_b 17.280646
_cell_length_c 16.006666
_cell_angle_alpha 90.000000
_cell_angle_beta 90.000000
_cell_angle_gamma 90.000000
_cell_volume 2206.264338
_symmetry_space_group_name_H-M "I B C A "
_symmetry_group_IT_number 73
_symmetry_cell_setting 'orthorhombic'
loop_
_space_group_symop_operation_xyz
x,y,z
-x,1/2-y,z
x,-y,1/2-z
1/2-x,y,-z
-x,-y,-z
x,1/2+y,-z
-x,y,1/2+z
1/2+x,-y,z
1/2+x,1/2+y,1/2+z
1/2-x,-y,1/2+z
1/2+x,1/2-y,-z
-x,1/2+y,1/2-z
1/2-x,1/2-y,1/2-z
1/2+x,y,1/2-z
1/2-x,1/2+y,z
x,1/2-y,1/2+z
loop_
_atom_site_type_symbol
_atom_site_label
_atom_site_fract_x
_atom_site_fract_y
_atom_site_fract_z
Si Si1 0.815824 0.060452 0.322660
Si Si2 0.977491 0.838050 0.770653
Si Si3 0.425403 0.836645 0.047911
Si Si4 0.250000 0.937710 0.500000
O O1 0.991304 0.101049 0.302997
O O2 0.697125 0.135588 0.311286
O O3 0.785767 0.022251 0.411912
O O4 0.787931 0.000000 0.250000
O O5 0.097327 0.848421 0.851959
O O6 0.000000 0.750000 0.743335
O O7 0.500000 0.750000 0.038646
O O8 0.577211 0.890290 0.014480
O O9 0.250000 0.844736 0.000000
#
# Coordination Sequence:
#
# PCOD9530861 Si02
#       4
#    16  16  16   8
#     4  11  24  46  68 102 140 184 234 295 356 430
#     4  10  23  42  68 104 137 181 234 286 359 422
#     4  10  20  38  66 105 143 182 229 291 354 423
#     4  10  24  42  68  98 142 186 238 288 358 428
#
# _framework density 25.382270999999999
#
# number of rings (size 3 to 8) (size 9 to 14) (size 15 to 20)
#    0.000    1.714    1.429    1.714    4.000    1.143 
#    2.571    4.286    0.000    1.714    0.000    0.000 
#    0.000    0.000    0.000    0.000    0.000    0.000 
#
# Total GULP energy -156504.833777 kJ/mol
# GULP energy per Si atom -5589.458349 kJ/mol
# Density = 2.532450 g / cm^3
# Si number density = 25.382271 Si / 1000 Ang^3
#
#
#
# Elastic Constant Matrix: (Units=GPa)
#
#
# Indices 1 2 3 4 5 6 
#
# 1 114.1451 19.5019 30.5474 0.0000 0.0000 0.0000
# 2 19.5019 104.0308 47.9097 0.0000 0.0000 0.0000
# 3 30.5474 47.9097 191.9540 0.0000 0.0000 0.0000
# 4 0.0000 0.0000 0.0000 51.0454 0.0000 0.0000
# 5 0.0000 0.0000 0.0000 0.0000 31.4626 0.0000
# 6 0.0000 0.0000 0.0000 0.0000 0.0000 23.7603
#
#
#
# Elastic Compliance Matrix: (Units=1/GPa)
#
#
# Indices 1 2 3 4 5 6 
#
# 1 0.009281 -0.001197 -0.001178 0.000000 0.000000 0.000000
# 2 -0.001197 0.011015 -0.002559 0.000000 0.000000 0.000000
# 3 -0.001178 -0.002559 0.006036 0.000000 0.000000 0.000000
# 4 0.000000 0.000000 0.000000 0.019590 0.000000 0.000000
# 5 0.000000 0.000000 0.000000 0.000000 0.031784 0.000000
# 6 0.000000 0.000000 0.000000 0.000000 0.000000 0.042087
#
#
# Mechanical properties :
#
#
# Convention : Reuss Voigt Hill
#
# Bulk Modulus (GPa) = 60.74049 67.33865 64.03957
# Shear Modulus (GPa) = 36.99621 42.06505 39.53063
#
# Velocity S-wave (km/s) = 3.82194 4.07536 3.95069
# Velocity P-wave (km/s) = 6.59231 6.98084 6.78936
#
# Compressibility (1/GPa) = 0.01646348
#
# Stress axis : x y z
#
# Youngs Moduli (GPa) = 107.75164 90.78211 165.68048
#
# Poissons Ratio (x) = 0.10869 0.19519
# Poissons Ratio (y) = 0.12900 0.42394
# Poissons Ratio (z) = 0.12694 0.23229
#
# Static dielectric constant tensor:
#      x y z
#    x 2.078290 0.000000 0.000000 
#    y 0.000000 1.972550 0.000000 
#    z 0.000000 0.000000 2.074770 
# 
# From -- ./inp_files/4481.got.cif
#   From: 2010.05.17/outbox.cif.g08.bks.cpg/sg73_3_cif.got.tgz:4481.got - 2010.06.03 17:35:07.
