data_PCOD9530701
_publ_section_title
;
Structure prediction by ZEFSAII (Michael W. Deem and Ramdas Pophale) SiO2 
 PCOD9530701
Probable space group: I B C A 
;
_chemical_formula_sum "Si O2"
_cell_formula_units_Z 72
_cell_length_a 20.125959
_cell_length_b 7.277040
_cell_length_c 19.379484
_cell_angle_alpha 90.000000
_cell_angle_beta 90.000000
_cell_angle_gamma 90.000000
_cell_volume 2838.269008
_symmetry_space_group_name_H-M "I B C A "
_symmetry_group_IT_number 73
_symmetry_cell_setting 'orthorhombic'
loop_
_space_group_symop_operation_xyz
x,y,z
-x,1/2-y,z
x,-y,1/2-z
1/2-x,y,-z
-x,-y,-z
x,1/2+y,-z
-x,y,1/2+z
1/2+x,-y,z
1/2+x,1/2+y,1/2+z
1/2-x,-y,1/2+z
1/2+x,1/2-y,-z
-x,1/2+y,1/2-z
1/2-x,1/2-y,1/2-z
1/2+x,y,1/2-z
1/2-x,1/2+y,z
x,1/2-y,1/2+z
loop_
_atom_site_type_symbol
_atom_site_label
_atom_site_fract_x
_atom_site_fract_y
_atom_site_fract_z
Si Si1 0.000000 0.750000 0.869638
Si Si2 0.463389 0.500000 0.750000
Si Si3 0.146827 0.218528 0.823191
Si Si4 0.250000 0.029538 0.500000
Si Si5 0.367942 0.396232 0.917559
Si Si6 0.288185 0.601885 0.151666
O O1 0.997645 0.923574 0.816430
O O2 0.062622 0.792348 0.917832
O O3 0.412943 0.337090 0.726913
O O4 0.164609 0.432992 0.828895
O O5 0.125525 0.106744 0.892637
O O6 0.220565 0.137977 0.807295
O O7 0.178772 0.122041 0.515884
O O8 0.237397 0.934769 0.426730
O O9 0.329227 0.288202 0.856259
#
# Coordination Sequence:
#
# PCOD9530701 Si02
#       6
#     8   8  16   8  16  16
#     4  10  24  46  62  86 132 168 222 256 314 382
#     4  10  24  42  62  84 122 178 212 264 312 386
#     4  10  21  37  58  93 123 156 218 261 319 377
#     4  10  20  36  68  94 122 162 208 260 332 366
#     4  10  22  40  61  94 125 165 210 270 307 393
#     4  11  20  35  62  92 126 157 200 274 320 371
#
# _framework density 25.367574000000001
#
# number of rings (size 3 to 8) (size 9 to 14) (size 15 to 20)
#    0.000    1.778    4.444    0.667    6.222    0.889 
#    0.000    1.111    0.000    0.000    0.000    0.000 
#    0.000    0.000    0.000    0.000    0.000    0.000 
#
# Total GULP energy -200894.425249 kJ/mol
# GULP energy per Si atom -5580.400701 kJ/mol
# Density = 2.530984 g / cm^3
# Si number density = 25.367574 Si / 1000 Ang^3
#
#
#
# Elastic Constant Matrix: (Units=GPa)
#
#
# Indices 1 2 3 4 5 6 
#
# 1 130.5035 -8.3547 40.9031 0.0000 0.0000 0.0000
# 2 -8.3547 90.2643 13.8386 0.0000 0.0000 0.0000
# 3 40.9031 13.8386 96.5493 0.0000 0.0000 0.0000
# 4 0.0000 0.0000 0.0000 28.3653 0.0000 0.0000
# 5 0.0000 0.0000 0.0000 0.0000 43.8622 0.0000
# 6 0.0000 0.0000 0.0000 0.0000 0.0000 17.1524
#
#
#
# Elastic Compliance Matrix: (Units=1/GPa)
#
#
# Indices 1 2 3 4 5 6 
#
# 1 0.009018 0.001452 -0.004029 0.000000 0.000000 0.000000
# 2 0.001452 0.011561 -0.002272 0.000000 0.000000 0.000000
# 3 -0.004029 -0.002272 0.012390 0.000000 0.000000 0.000000
# 4 0.000000 0.000000 0.000000 0.035254 0.000000 0.000000
# 5 0.000000 0.000000 0.000000 0.000000 0.022799 0.000000
# 6 0.000000 0.000000 0.000000 0.000000 0.000000 0.058301
#
#
# Mechanical properties :
#
#
# Convention : Reuss Voigt Hill
#
# Bulk Modulus (GPa) = 42.97010 45.56567 44.26789
# Shear Modulus (GPa) = 29.97990 35.93800 32.95895
#
# Velocity S-wave (km/s) = 3.44149 3.76798 3.60843
# Velocity P-wave (km/s) = 5.72430 6.07712 5.90334
#
# Compressibility (1/GPa) = 0.02327200
#
# Stress axis : x y z
#
# Youngs Moduli (GPa) = 110.88527 86.49473 80.71090
#
# Poissons Ratio (x) = -0.12562 0.32517
# Poissons Ratio (y) = -0.16105 0.18341
# Poissons Ratio (z) = 0.44673 0.19655
#
# Static dielectric constant tensor:
#      x y z
#    x 2.033360 0.000000 0.000000 
#    y 0.000000 2.108630 0.000000 
#    z 0.000000 0.000000 2.022570 
# 
# From -- ./inp_files/5494.got.cif
#   From: 2010.05.17/outbox.cif.g08.bks.cpg/sg73_3_cif.got.tgz:5494.got - 2010.06.03 17:35:07.
