data_PCOD9530706
_publ_section_title
;
Structure prediction by ZEFSAII (Michael W. Deem and Ramdas Pophale) SiO2 
 PCOD9530706
Probable space group: I B C A 
;
_chemical_formula_sum "Si O2"
_cell_formula_units_Z 112
_cell_length_a 14.212591
_cell_length_b 26.467251
_cell_length_c 13.697913
_cell_angle_alpha 90.000000
_cell_angle_beta 90.000000
_cell_angle_gamma 90.000000
_cell_volume 5152.719460
_symmetry_space_group_name_H-M "I B C A "
_symmetry_group_IT_number 73
_symmetry_cell_setting 'orthorhombic'
loop_
_space_group_symop_operation_xyz
x,y,z
-x,1/2-y,z
x,-y,1/2-z
1/2-x,y,-z
-x,-y,-z
x,1/2+y,-z
-x,y,1/2+z
1/2+x,-y,z
1/2+x,1/2+y,1/2+z
1/2-x,-y,1/2+z
1/2+x,1/2-y,-z
-x,1/2+y,1/2-z
1/2-x,1/2-y,1/2-z
1/2+x,y,1/2-z
1/2-x,1/2+y,z
x,1/2-y,1/2+z
loop_
_atom_site_type_symbol
_atom_site_label
_atom_site_fract_x
_atom_site_fract_y
_atom_site_fract_z
Si Si1 0.109494 0.991520 0.477233
Si Si2 0.233688 0.527479 0.352690
Si Si3 0.923361 0.209243 0.544156
Si Si4 0.806190 0.865745 0.284513
Si Si5 0.179867 0.384115 0.592970
Si Si6 0.933821 0.292837 0.835884
Si Si7 0.253358 0.266172 0.136436
O O1 0.133233 0.938156 0.426431
O O2 0.167082 0.993684 0.578548
O O3 0.165526 0.031414 0.407895
O O4 0.000000 0.000000 0.500000
O O5 0.247017 0.500000 0.250000
O O6 0.182347 0.580918 0.336774
O O7 0.901759 0.157315 0.599900
O O8 0.966559 0.186736 0.440526
O O9 0.827246 0.239123 0.576131
O O10 0.000000 0.250000 0.574100
O O11 0.740773 0.878319 0.190829
O O12 0.893725 0.834522 0.237200
O O13 0.757938 0.826022 0.358672
O O14 0.250000 0.372836 0.500000
O O15 0.852556 0.258433 0.886819
O O16 0.000000 0.250000 0.790987
O O17 0.250000 0.250000 0.250000
#
# Coordination Sequence:
#
# PCOD9530706 Si02
#       7
#    16  16  16  16  16  16  16
#     4  11  26  47  73 109 149 185 248 319 371 442
#     4  11  23  48  74 105 143 194 247 309 370 447
#     4  11  22  37  65  96 130 178 236 284 345 433
#     4  11  22  40  70  95 136 192 234 293 372 431
#     4  12  19  43  75  93 132 196 235 281 373 443
#     4  10  21  39  61  97 133 175 236 288 343 434
#     4  10  20  37  56  88 132 172 217 286 344 417
#
# _framework density 21.736094999999999
#
# number of rings (size 3 to 8) (size 9 to 14) (size 15 to 20)
#    0.000    1.143    7.143    0.429    0.000    4.000 
#   12.857    0.000    0.000    0.000    0.000    0.000 
#    0.000    0.000    0.000    0.000    0.000    0.000 
#
# Total GULP energy -311862.218269 kJ/mol
# GULP energy per Si atom -5568.968183 kJ/mol
# Density = 2.168662 g / cm^3
# Si number density = 21.736095 Si / 1000 Ang^3
#
#
#
# Elastic Constant Matrix: (Units=GPa)
#
#
# Indices 1 2 3 4 5 6 
#
# 1 99.9889 33.3874 -5.1491 0.0000 0.0000 0.0000
# 2 33.3874 133.8256 9.6705 0.0001 0.0000 0.0000
# 3 -5.1491 9.6705 52.6842 0.0001 0.0000 0.0000
# 4 0.0000 0.0001 0.0001 28.4793 0.0000 0.0000
# 5 0.0000 0.0000 0.0000 0.0000 -3.3653 0.0000
# 6 0.0000 0.0000 0.0000 0.0000 0.0000 35.0694
#
#
#
# Elastic Compliance Matrix: (Units=1/GPa)
#
#
# Indices 1 2 3 4 5 6 
#
# 1 0.011042 -0.002871 0.001606 0.000000 0.000000 0.000000
# 2 -0.002871 0.008319 -0.001808 0.000000 0.000000 0.000000
# 3 0.001606 -0.001808 0.019470 0.000000 0.000000 0.000000
# 4 0.000000 0.000000 0.000000 0.035113 0.000000 0.000000
# 5 0.000000 0.000000 0.000000 0.000000 -0.297150 0.000000
# 6 0.000000 0.000000 0.000000 0.000000 0.000000 0.028515
#
#
# Mechanical properties :
#
#
# Convention : Reuss Voigt Hill
#
# Bulk Modulus (GPa) = 30.59344 40.25736 35.42540
# Shear Modulus (GPa) = -28.14518 28.60934 0.23208
#
# Velocity S-wave (km/s) = -3.60232 3.63190 0.32712
# Velocity P-wave (km/s) = 1.78795 6.01239 4.05907
#
# Compressibility (1/GPa) = 0.03268674
#
# Stress axis : x y z
#
# Youngs Moduli (GPa) = 90.55933 120.20235 51.36161
#
# Poissons Ratio (x) = 0.34510 -0.08250
# Poissons Ratio (y) = 0.26000 0.09284
# Poissons Ratio (z) = -0.14546 0.21728
#
# Static dielectric constant tensor:
#      x y z
#    x 1.864360 0.000000 0.000000 
#    y 0.000000 1.805310 0.000000 
#    z 0.000000 0.000000 1.702000 
# 
# From -- ./inp_files/17379.got.cif
#   From: 2010.05.17/outbox.cif.g08.bks.cpg/sg73_9_cif.got.tgz:17379.got - 2010.06.03 17:35:07.
