data_PCOD9530337
_publ_section_title
;
Structure prediction by ZEFSAII (Michael W. Deem and Ramdas Pophale) SiO2 
 PCOD9530337
Probable space group: I B C A 
;
_chemical_formula_sum "Si O2"
_cell_formula_units_Z 88
_cell_length_a 13.639643
_cell_length_b 18.270594
_cell_length_c 18.854594
_cell_angle_alpha 90.000000
_cell_angle_beta 90.000000
_cell_angle_gamma 90.000000
_cell_volume 4698.647400
_symmetry_space_group_name_H-M "I B C A "
_symmetry_group_IT_number 73
_symmetry_cell_setting 'orthorhombic'
loop_
_space_group_symop_operation_xyz
x,y,z
-x,1/2-y,z
x,-y,1/2-z
1/2-x,y,-z
-x,-y,-z
x,1/2+y,-z
-x,y,1/2+z
1/2+x,-y,z
1/2+x,1/2+y,1/2+z
1/2-x,-y,1/2+z
1/2+x,1/2-y,-z
-x,1/2+y,1/2-z
1/2-x,1/2-y,1/2-z
1/2+x,y,1/2-z
1/2-x,1/2+y,z
x,1/2-y,1/2+z
loop_
_atom_site_type_symbol
_atom_site_label
_atom_site_fract_x
_atom_site_fract_y
_atom_site_fract_z
Si Si1 0.737355 0.190030 0.149374
Si Si2 0.250000 0.360844 0.000000
Si Si3 0.278549 0.015606 0.668939
Si Si4 0.101687 0.715928 0.237024
Si Si5 0.067323 0.552532 0.185160
Si Si6 0.923440 0.534436 0.056177
O O1 0.643094 0.236617 0.171526
O O2 0.822826 0.220328 0.198615
O O3 0.722520 0.103730 0.164398
O O4 0.764576 0.189931 0.067724
O O5 0.153033 0.410837 0.983893
O O6 0.168940 0.984613 0.659541
O O7 0.308109 0.000000 0.750000
O O8 0.348363 0.986726 0.605658
O O9 0.091029 0.631635 0.216530
O O10 0.000000 0.750000 0.259354
O O11 0.032164 0.500000 0.250000
O O12 0.992997 0.563464 0.120028
O O13 0.000000 0.500000 0.000000
#
# Coordination Sequence:
#
# PCOD9530337 Si02
#       6
#    16   8  16  16  16  16
#     4  10  21  41  62  88 122 167 202 253 320 370
#     4  10  22  42  58  84 134 168 198 258 322 374
#     4  10  19  39  62  88 124 163 208 262 306 368
#     4  11  22  39  65  92 121 158 213 258 305 371
#     4  11  22  41  65  94 124 163 213 264 311 373
#     4  11  22  35  60  92 126 165 205 257 314 372
#
# _framework density 18.728794000000001
#
# number of rings (size 3 to 8) (size 9 to 14) (size 15 to 20)
#    0.000    1.455    3.636    4.909    0.000    0.000 
#    0.000    4.545    0.000    0.000    0.000    0.000 
#    0.000    0.000    0.000    0.000    0.000    0.000 
#
# Total GULP energy -245146.867542 kJ/mol
# GULP energy per Si atom -5571.519717 kJ/mol
# Density = 1.868617 g / cm^3
# Si number density = 18.728794 Si / 1000 Ang^3
#
#
#
# Elastic Constant Matrix: (Units=GPa)
#
#
# Indices 1 2 3 4 5 6 
#
# 1 120.6639 17.7073 38.6570 0.0000 0.0000 0.0000
# 2 17.7073 75.1046 11.2083 0.0000 0.0000 0.0000
# 3 38.6570 11.2083 133.3397 0.0000 0.0000 0.0000
# 4 0.0000 0.0000 0.0000 26.7335 0.0000 0.0000
# 5 0.0000 0.0000 0.0000 0.0000 43.1403 0.0000
# 6 0.0000 0.0000 0.0000 0.0000 0.0000 -3.1058
#
#
#
# Elastic Compliance Matrix: (Units=1/GPa)
#
#
# Indices 1 2 3 4 5 6 
#
# 1 0.009378 -0.001828 -0.002565 0.000000 0.000000 0.000000
# 2 -0.001828 0.013840 -0.000633 0.000000 0.000000 0.000000
# 3 -0.002565 -0.000633 0.008297 0.000000 0.000000 0.000000
# 4 0.000000 0.000000 0.000000 0.037406 0.000000 0.000000
# 5 0.000000 0.000000 0.000000 0.000000 0.023180 0.000000
# 6 0.000000 0.000000 0.000000 0.000000 0.000000 -0.321974
#
#
# Mechanical properties :
#
#
# Convention : Reuss Voigt Hill
#
# Bulk Modulus (GPa) = 46.59555 51.58373 49.08964
# Shear Modulus (GPa) = -23.51095 30.78931 3.63918
#
# Velocity S-wave (km/s) = -3.54692 4.05897 1.39546
# Velocity P-wave (km/s) = 2.85639 7.04054 5.37253
#
# Compressibility (1/GPa) = 0.02146128
#
# Stress axis : x y z
#
# Youngs Moduli (GPa) = 106.63816 72.25277 120.53256
#
# Poissons Ratio (x) = 0.13209 0.30917
# Poissons Ratio (y) = 0.19495 0.07634
# Poissons Ratio (z) = 0.27353 0.04576
#
# Static dielectric constant tensor:
#      x y z
#    x 1.701810 0.000000 0.000000 
#    y 0.000000 1.619650 0.000000 
#    z 0.000000 0.000000 1.693620 
# 
# From -- ./inp_files/21925.got.cif
#   From: 2010.05.17/outbox.cif.g08.bks.cpg/sg73_11_cif.got.tgz:21925.got - 2010.06.03 17:35:07.
