data_PCOD9530566
_publ_section_title
;
Structure prediction by ZEFSAII (Michael W. Deem and Ramdas Pophale) SiO2 
 PCOD9530566
Probable space group: I B C A 
;
_chemical_formula_sum "Si O2"
_cell_formula_units_Z 88
_cell_length_a 9.375263
_cell_length_b 17.821381
_cell_length_c 23.177466
_cell_angle_alpha 90.000000
_cell_angle_beta 90.000000
_cell_angle_gamma 90.000000
_cell_volume 3872.494123
_symmetry_space_group_name_H-M "I B C A "
_symmetry_group_IT_number 73
_symmetry_cell_setting 'orthorhombic'
loop_
_space_group_symop_operation_xyz
x,y,z
-x,1/2-y,z
x,-y,1/2-z
1/2-x,y,-z
-x,-y,-z
x,1/2+y,-z
-x,y,1/2+z
1/2+x,-y,z
1/2+x,1/2+y,1/2+z
1/2-x,-y,1/2+z
1/2+x,1/2-y,-z
-x,1/2+y,1/2-z
1/2-x,1/2-y,1/2-z
1/2+x,y,1/2-z
1/2-x,1/2+y,z
x,1/2-y,1/2+z
loop_
_atom_site_type_symbol
_atom_site_label
_atom_site_fract_x
_atom_site_fract_y
_atom_site_fract_z
Si Si1 0.496156 0.997383 0.354202
Si Si2 0.108172 0.349592 0.677478
Si Si3 0.255922 0.014779 0.566825
Si Si4 0.252830 0.332013 0.433758
Si Si5 0.075756 0.356403 0.281730
Si Si6 0.000000 0.750000 0.130898
O O1 0.370448 0.038214 0.390102
O O2 0.438670 0.941322 0.305609
O O3 0.596399 0.059937 0.326410
O O4 0.595398 0.961486 0.404153
O O5 0.118812 0.319427 0.612023
O O6 0.261626 0.332522 0.706069
O O7 0.973962 0.334456 0.718096
O O8 0.250000 0.039220 0.500000
O O9 0.239674 0.923232 0.566691
O O10 0.250000 0.309389 0.500000
O O11 0.121436 0.287554 0.406528
O O12 0.962634 0.315236 0.323866
#
# Coordination Sequence:
#
# PCOD9530566 Si02
#       6
#    16  16  16  16  16   8
#     4  11  19  37  57  92 119 159 198 251 313 365
#     4  10  23  38  61  88 123 160 198 261 317 372
#     4  10  20  35  60  89 124 160 201 248 310 365
#     4   9  19  40  62  83 119 162 201 257 312 362
#     4  11  23  39  60  88 120 162 203 252 306 373
#     4  10  20  42  62  82 120 166 204 246 308 364
#
# _framework density 22.724373
#
# number of rings (size 3 to 8) (size 9 to 14) (size 15 to 20)
#    0.000    1.818    5.455    1.091    2.545    4.364 
#    0.000    3.636    0.000    0.000    0.000    0.000 
#    0.000    0.000    0.000    0.000    0.000    0.000 
#
# Total GULP energy -245066.394314 kJ/mol
# GULP energy per Si atom -5569.690780 kJ/mol
# Density = 2.267265 g / cm^3
# Si number density = 22.724373 Si / 1000 Ang^3
#
#
#
# Elastic Constant Matrix: (Units=GPa)
#
#
# Indices 1 2 3 4 5 6 
#
# 1 76.1473 -4.9748 29.8446 0.0000 0.0000 0.0000
# 2 -4.9748 30.6026 1.1489 0.0000 0.0000 0.0000
# 3 29.8446 1.1489 133.1984 0.0000 0.0000 0.0000
# 4 0.0000 0.0000 0.0000 7.9755 0.0000 0.0000
# 5 0.0000 0.0000 0.0000 0.0000 21.6847 0.0000
# 6 0.0000 0.0000 0.0000 0.0000 0.0000 14.5888
#
#
#
# Elastic Compliance Matrix: (Units=1/GPa)
#
#
# Indices 1 2 3 4 5 6 
#
# 1 0.014585 0.002494 -0.003289 0.000000 0.000000 0.000000
# 2 0.002494 0.033114 -0.000845 0.000000 0.000000 0.000000
# 3 -0.003289 -0.000845 0.008252 0.000000 0.000000 0.000000
# 4 0.000000 0.000000 0.000000 0.125384 0.000000 0.000000
# 5 0.000000 0.000000 0.000000 0.000000 0.046115 0.000000
# 6 0.000000 0.000000 0.000000 0.000000 0.000000 0.068546
#
#
# Mechanical properties :
#
#
# Convention : Reuss Voigt Hill
#
# Bulk Modulus (GPa) = 18.98555 32.44286 25.71420
# Shear Modulus (GPa) = 15.78125 23.11179 19.44652
#
# Velocity S-wave (km/s) = 2.63813 3.19258 2.92850
# Velocity P-wave (km/s) = 4.20148 5.28183 4.77233
#
# Compressibility (1/GPa) = 0.05267165
#
# Stress axis : x y z
#
# Youngs Moduli (GPa) = 68.56540 30.19859 121.18419
#
# Poissons Ratio (x) = -0.07533 0.39862
# Poissons Ratio (y) = -0.17103 0.10234
# Poissons Ratio (z) = 0.22554 0.02550
#
# Static dielectric constant tensor:
#      x y z
#    x 1.903570 0.000000 0.000000 
#    y 0.000000 1.907820 0.000000 
#    z 0.000000 0.000000 1.921470 
# 
# From -- ./inp_files/7073.got.cif
#   From: 2010.05.17/outbox.cif.g08.bks.cpg/sg73_4_cif.got.tgz:7073.got - 2010.06.03 17:35:07.
