data_PCOD9530237
_publ_section_title
;
Structure prediction by ZEFSAII (Michael W. Deem and Ramdas Pophale) SiO2 
 PCOD9530237
Probable space group: I B C A 
;
_chemical_formula_sum "Si O2"
_cell_formula_units_Z 128
_cell_length_a 16.636870
_cell_length_b 21.348547
_cell_length_c 17.130637
_cell_angle_alpha 90.000000
_cell_angle_beta 90.000000
_cell_angle_gamma 90.000000
_cell_volume 6084.339755
_symmetry_space_group_name_H-M "I B C A "
_symmetry_group_IT_number 73
_symmetry_cell_setting 'orthorhombic'
loop_
_space_group_symop_operation_xyz
x,y,z
-x,1/2-y,z
x,-y,1/2-z
1/2-x,y,-z
-x,-y,-z
x,1/2+y,-z
-x,y,1/2+z
1/2+x,-y,z
1/2+x,1/2+y,1/2+z
1/2-x,-y,1/2+z
1/2+x,1/2-y,-z
-x,1/2+y,1/2-z
1/2-x,1/2-y,1/2-z
1/2+x,y,1/2-z
1/2-x,1/2+y,z
x,1/2-y,1/2+z
loop_
_atom_site_type_symbol
_atom_site_label
_atom_site_fract_x
_atom_site_fract_y
_atom_site_fract_z
Si Si1 0.637759 0.981810 0.659384
Si Si2 0.177130 0.475119 0.871929
Si Si3 0.570927 0.338474 0.903241
Si Si4 0.215876 0.243379 0.580260
Si Si5 0.595994 0.842189 0.661154
Si Si6 0.583525 0.035927 0.506641
Si Si7 0.841345 0.900765 0.767990
Si Si8 0.299919 0.193024 0.210210
O O1 0.727943 0.967164 0.632430
O O2 0.589175 0.916916 0.655065
O O3 0.637695 0.000000 0.750000
O O4 0.606627 0.033695 0.598068
O O5 0.159370 0.536285 0.819048
O O6 0.140366 0.417874 0.821551
O O7 0.144879 0.492615 0.956597
O O8 0.639409 0.289564 0.927458
O O9 0.479447 0.317909 0.888496
O O10 0.597395 0.357358 0.814575
O O11 0.577516 0.397100 0.963238
O O12 0.250000 0.220501 0.500000
O O13 0.178580 0.183919 0.624372
O O14 0.286677 0.284023 0.621814
O O15 0.613519 0.818570 0.750193
O O16 0.500000 0.000000 0.500000
O O17 0.753856 0.868885 0.776337
O O18 0.250000 0.250000 0.250000
#
# Coordination Sequence:
#
# PCOD9530237 Si02
#       8
#    16  16  16  16  16  16  16  16
#     4  12  23  39  65  97 127 175 221 273 339 407
#     4  10  19  36  60  84 123 162 214 265 315 391
#     4  10  22  40  64  91 134 175 216 275 349 399
#     4  10  23  41  67  95 127 180 228 278 333 405
#     4  11  21  40  65  91 131 169 216 283 336 396
#     4  11  24  40  56  94 135 171 215 271 334 403
#     4   9  17  35  58  86 117 162 210 259 321 392
#     4   9  18  35  60  91 121 156 215 265 318 390
#
# _framework density 21.037614999999999
#
# number of rings (size 3 to 8) (size 9 to 14) (size 15 to 20)
#    0.000    1.750    3.750    0.750    0.000    6.000 
#    0.000    0.000    0.000    9.000    0.000    0.000 
#    0.000    0.000    0.000    0.000    0.000    0.000 
#
# Total GULP energy -356586.397459 kJ/mol
# GULP energy per Si atom -5571.662460 kJ/mol
# Density = 2.098973 g / cm^3
# Si number density = 21.037615 Si / 1000 Ang^3
#
#
#
# Elastic Constant Matrix: (Units=GPa)
#
#
# Indices 1 2 3 4 5 6 
#
# 1 48.1715 -1.6301 35.2496 0.0000 0.0000 0.0000
# 2 -1.6301 48.2562 12.9961 0.0000 -0.0001 0.0000
# 3 35.2496 12.9961 105.3136 0.0000 -0.0001 0.0000
# 4 0.0000 0.0000 0.0000 17.1809 -0.0001 0.0000
# 5 0.0000 -0.0001 -0.0001 -0.0001 -41.5089 0.0000
# 6 0.0000 0.0000 0.0000 0.0000 0.0000 22.7642
#
#
#
# Elastic Compliance Matrix: (Units=1/GPa)
#
#
# Indices 1 2 3 4 5 6 
#
# 1 0.028085 0.003600 -0.009845 0.000000 0.000000 0.000000
# 2 0.003600 0.021897 -0.003907 0.000000 0.000000 0.000000
# 3 -0.009845 -0.003907 0.013273 0.000000 0.000000 0.000000
# 4 0.000000 0.000000 0.000000 0.058204 0.000000 0.000000
# 5 0.000000 0.000000 0.000000 0.000000 -0.024091 0.000000
# 6 0.000000 0.000000 0.000000 0.000000 0.000000 0.043929
#
#
# Mechanical properties :
#
#
# Convention : Reuss Voigt Hill
#
# Bulk Modulus (GPa) = 23.28247 32.77472 28.02860
# Shear Modulus (GPa) = 28.42270 10.02896 19.22583
#
# Velocity S-wave (km/s) = 3.67964 2.18575 3.02632
# Velocity P-wave (km/s) = 5.39853 4.68860 5.05604
#
# Compressibility (1/GPa) = 0.04295077
#
# Stress axis : x y z
#
# Youngs Moduli (GPa) = 35.60650 45.66928 75.34279
#
# Poissons Ratio (x) = -0.16441 0.74171
# Poissons Ratio (y) = -0.12818 0.29437
# Poissons Ratio (z) = 0.35053 0.17843
#
# Static dielectric constant tensor:
#      x y z
#    x 1.780370 0.000000 0.000000 
#    y 0.000000 1.808400 0.000000 
#    z 0.000000 0.000000 1.859350 
# 
# From -- ./inp_files/22857.got.cif
#   From: 2010.05.17/outbox.cif.g08.bks.cpg/sg73_12_cif.got.tgz:22857.got - 2010.06.03 17:35:07.
