data_PCOD9530815
_publ_section_title
;
Structure prediction by ZEFSAII (Michael W. Deem and Ramdas Pophale) SiO2 
 PCOD9530815
Probable space group: I B C A 
;
_chemical_formula_sum "Si O2"
_cell_formula_units_Z 96
_cell_length_a 13.917195
_cell_length_b 21.156993
_cell_length_c 14.048623
_cell_angle_alpha 90.000000
_cell_angle_beta 90.000000
_cell_angle_gamma 90.000000
_cell_volume 4136.560808
_symmetry_space_group_name_H-M "I B C A "
_symmetry_group_IT_number 73
_symmetry_cell_setting 'orthorhombic'
loop_
_space_group_symop_operation_xyz
x,y,z
-x,1/2-y,z
x,-y,1/2-z
1/2-x,y,-z
-x,-y,-z
x,1/2+y,-z
-x,y,1/2+z
1/2+x,-y,z
1/2+x,1/2+y,1/2+z
1/2-x,-y,1/2+z
1/2+x,1/2-y,-z
-x,1/2+y,1/2-z
1/2-x,1/2-y,1/2-z
1/2+x,y,1/2-z
1/2-x,1/2+y,z
x,1/2-y,1/2+z
loop_
_atom_site_type_symbol
_atom_site_label
_atom_site_fract_x
_atom_site_fract_y
_atom_site_fract_z
Si Si1 0.640814 0.924002 0.558849
Si Si2 0.024586 0.324668 0.518955
Si Si3 0.250000 0.031739 0.000000
Si Si4 0.259866 0.173414 0.325483
Si Si5 0.100525 0.215773 0.202581
Si Si6 0.925840 0.500000 0.750000
Si Si7 0.634641 0.612069 0.354113
O O1 0.561722 0.874731 0.523714
O O2 0.727563 0.878951 0.594979
O O3 0.614950 0.961034 0.657476
O O4 0.663525 0.981278 0.486594
O O5 0.077697 0.334390 0.620560
O O6 0.089154 0.341064 0.429567
O O7 0.000000 0.250000 0.517451
O O8 0.216488 0.073087 0.911469
O O9 0.152286 0.189803 0.295852
O O10 0.322873 0.235778 0.345228
O O11 0.312543 0.147506 0.230854
O O12 0.000000 0.250000 0.225324
O O13 0.946679 0.564480 0.688611
#
# Coordination Sequence:
#
# PCOD9530815 Si02
#       7
#    16  16   8  16  16   8  16
#     4  10  20  43  63  94 136 175 224 289 337 413
#     4  11  22  41  63 101 143 169 221 292 356 426
#     4  10  22  40  62  90 124 182 236 272 342 400
#     4  10  20  40  65  90 132 181 213 280 341 402
#     4  10  20  38  61  94 135 173 219 268 343 419
#     4   8  20  38  64  86 124 182 228 276 328 396
#     4  10  21  40  65  92 126 180 231 281 339 415
#
# _framework density 23.207685000000001
#
# number of rings (size 3 to 8) (size 9 to 14) (size 15 to 20)
#    0.000    2.000    3.333    1.000    0.000    3.333 
#    9.000    1.667    0.000    1.000    0.000    0.000 
#    0.000    0.000    0.000    0.000    0.000    0.000 
#
# Total GULP energy -267238.356748 kJ/mol
# GULP energy per Si atom -5567.465766 kJ/mol
# Density = 2.315486 g / cm^3
# Si number density = 23.207685 Si / 1000 Ang^3
#
#
#
# Elastic Constant Matrix: (Units=GPa)
#
#
# Indices 1 2 3 4 5 6 
#
# 1 71.3554 24.5446 38.4841 0.0001 0.0001 -0.0009
# 2 24.5446 85.0396 24.8661 0.0000 0.0000 0.0012
# 3 38.4841 24.8661 88.1378 -0.0002 -0.0001 0.0029
# 4 0.0001 0.0000 -0.0002 20.5935 -0.0001 0.0021
# 5 0.0001 0.0000 -0.0001 -0.0001 6.6347 0.0002
# 6 -0.0009 0.0012 0.0029 0.0021 0.0002 -363.1392
#
#
#
# Elastic Compliance Matrix: (Units=1/GPa)
#
#
# Indices 1 2 3 4 5 6 
#
# 1 0.019175 -0.003364 -0.007424 0.000000 0.000000 0.000000
# 2 -0.003364 0.013407 -0.002314 0.000000 0.000000 0.000000
# 3 -0.007424 -0.002314 0.015240 0.000000 0.000000 0.000000
# 4 0.000000 0.000000 0.000000 0.048559 0.000001 0.000000
# 5 0.000000 0.000000 0.000000 0.000001 0.150723 0.000000
# 6 0.000000 0.000000 0.000000 0.000000 0.000000 -0.002754
#
#
# Mechanical properties :
#
#
# Convention : Reuss Voigt Hill
#
# Bulk Modulus (GPa) = 46.25372 46.70249 46.47811
# Shear Modulus (GPa) = 18.00127 -56.73967 -19.36920
#
# Velocity S-wave (km/s) = 2.78809 -4.94992 -2.89208
# Velocity P-wave (km/s) = 5.50801 3.53576 2.98635
#
# Compressibility (1/GPa) = 0.02161988
#
# Stress axis : x y z
#
# Youngs Moduli (GPa) = 52.15078 74.58998 65.61680
#
# Poissons Ratio (x) = 0.25090 0.48711
# Poissons Ratio (y) = 0.17542 0.15181
# Poissons Ratio (z) = 0.38714 0.17257
#
# Static dielectric constant tensor:
#      x y z
#    x 1.963820 0.000000 0.000000 
#    y 0.000000 1.891640 0.000000 
#    z 0.000000 0.000000 1.865150 
# 
# From -- ./inp_files/17208.got.cif
#   From: 2010.05.17/outbox.cif.g08.bks.cpg/sg73_9_cif.got.tgz:17208.got - 2010.06.03 17:35:07.
