data_PCOD9530639
_publ_section_title
;
Structure prediction by ZEFSAII (Michael W. Deem and Ramdas Pophale) SiO2 
 PCOD9530639
Probable space group: I B C A 
;
_chemical_formula_sum "Si O2"
_cell_formula_units_Z 120
_cell_length_a 8.891807
_cell_length_b 27.196726
_cell_length_c 23.741910
_cell_angle_alpha 90.000000
_cell_angle_beta 90.000000
_cell_angle_gamma 90.000000
_cell_volume 5741.459528
_symmetry_space_group_name_H-M "I B C A "
_symmetry_group_IT_number 73
_symmetry_cell_setting 'orthorhombic'
loop_
_space_group_symop_operation_xyz
x,y,z
-x,1/2-y,z
x,-y,1/2-z
1/2-x,y,-z
-x,-y,-z
x,1/2+y,-z
-x,y,1/2+z
1/2+x,-y,z
1/2+x,1/2+y,1/2+z
1/2-x,-y,1/2+z
1/2+x,1/2-y,-z
-x,1/2+y,1/2-z
1/2-x,1/2-y,1/2-z
1/2+x,y,1/2-z
1/2-x,1/2+y,z
x,1/2-y,1/2+z
loop_
_atom_site_type_symbol
_atom_site_label
_atom_site_fract_x
_atom_site_fract_y
_atom_site_fract_z
Si Si1 0.908644 0.041655 0.579754
Si Si2 0.404672 0.436678 0.032662
Si Si3 0.329294 0.120973 0.060247
Si Si4 0.036307 0.338033 0.764104
Si Si5 0.020844 0.063269 0.695005
Si Si6 0.225217 0.000000 0.250000
Si Si7 0.137926 0.214274 0.867324
Si Si8 0.815258 0.784501 0.299206
O O1 0.755181 0.072937 0.585666
O O2 0.017777 0.064873 0.627256
O O3 0.978591 0.050767 0.517906
O O4 0.886497 0.982626 0.575726
O O5 0.492852 0.391492 0.060770
O O6 0.250000 0.426894 0.000000
O O7 0.307198 0.171851 0.092067
O O8 0.250000 0.127047 0.000000
O O9 0.012277 0.390338 0.735218
O O10 0.202242 0.331096 0.789841
O O11 0.926705 0.317437 0.813495
O O12 0.983054 0.302168 0.712783
O O13 0.881924 0.026748 0.706108
O O14 0.170216 0.038301 0.717870
O O15 0.269114 0.253222 0.852989
O O16 0.000000 0.250000 0.884827
O O17 0.750000 0.750000 0.250000
#
# Coordination Sequence:
#
# PCOD9530639 Si02
#       8
#    16  16  16  16  16   8  16  16
#     4  10  22  37  64  90 122 166 207 259 316 374
#     4  10  21  41  63  95 120 156 218 267 306 377
#     4  10  22  40  68  93 122 163 212 263 326 372
#     4  10  20  36  60  87 119 161 212 253 296 382
#     4  11  24  39  58  88 131 169 211 253 318 375
#     4  10  26  40  50  86 134 172 204 246 312 394
#     4   9  20  39  64  88 121 171 203 251 322 375
#     4   9  18  34  59  86 114 155 206 250 303 363
#
# _framework density 20.900608999999999
#
# number of rings (size 3 to 8) (size 9 to 14) (size 15 to 20)
#    0.000    2.133    0.000    4.000    9.333    1.067 
#    4.800    0.667    2.933    0.000    0.000    0.000 
#    0.000    0.000    0.000    0.000    0.000    0.000 
#
# Total GULP energy -334167.375211 kJ/mol
# GULP energy per Si atom -5569.456254 kJ/mol
# Density = 2.085304 g / cm^3
# Si number density = 20.900609 Si / 1000 Ang^3
#
#
#
# Elastic Constant Matrix: (Units=GPa)
#
#
# Indices 1 2 3 4 5 6 
#
# 1 80.6341 27.7657 -2.7906 0.0000 0.0000 0.0000
# 2 27.7657 107.8327 19.8161 0.0000 0.0000 0.0000
# 3 -2.7906 19.8161 35.8082 0.0000 0.0000 0.0000
# 4 0.0000 0.0000 0.0000 42.1613 0.0000 0.0000
# 5 0.0000 0.0000 0.0000 0.0000 2.1749 0.0000
# 6 0.0000 0.0000 0.0000 0.0000 0.0000 30.6925
#
#
#
# Elastic Compliance Matrix: (Units=1/GPa)
#
#
# Indices 1 2 3 4 5 6 
#
# 1 0.013977 -0.004229 0.003430 0.000000 0.000000 0.000000
# 2 -0.004229 0.011603 -0.006751 0.000000 0.000000 0.000000
# 3 0.003430 -0.006751 0.031930 0.000000 0.000000 0.000000
# 4 0.000000 0.000000 0.000000 0.023718 0.000000 0.000000
# 5 0.000000 0.000000 0.000000 0.000000 0.459794 0.000000
# 6 0.000000 0.000000 0.000000 0.000000 0.000000 0.032581
#
#
# Mechanical properties :
#
#
# Convention : Reuss Voigt Hill
#
# Bulk Modulus (GPa) = 23.57989 34.87304 29.22646
# Shear Modulus (GPa) = 8.29408 26.97132 17.63270
#
# Velocity S-wave (km/s) = 1.99423 3.59619 2.90771
# Velocity P-wave (km/s) = 4.07542 5.82794 5.02861
#
# Compressibility (1/GPa) = 0.04240902
#
# Stress axis : x y z
#
# Youngs Moduli (GPa) = 71.54792 86.18373 31.31886
#
# Poissons Ratio (x) = 0.36448 -0.10741
# Poissons Ratio (y) = 0.30258 0.21142
# Poissons Ratio (z) = -0.24538 0.58180
#
# Static dielectric constant tensor:
#      x y z
#    x 1.811730 0.000000 0.000000 
#    y 0.000000 1.808220 0.000000 
#    z 0.000000 0.000000 1.919350 
# 
# From -- ./inp_files/31406.got.cif
#   From: 2010.05.17/outbox.cif.g08.bks.cpg/sg73_16_cif.got.tgz:31406.got - 2010.06.03 17:35:07.
