data_PCOD9530792
_publ_section_title
;
Structure prediction by ZEFSAII (Michael W. Deem and Ramdas Pophale) SiO2 
 PCOD9530792
Probable space group: I B C A 
;
_chemical_formula_sum "Si O2"
_cell_formula_units_Z 112
_cell_length_a 13.797663
_cell_length_b 29.623599
_cell_length_c 11.427282
_cell_angle_alpha 90.000000
_cell_angle_beta 90.000000
_cell_angle_gamma 90.000000
_cell_volume 4670.746516
_symmetry_space_group_name_H-M "I B C A "
_symmetry_group_IT_number 73
_symmetry_cell_setting 'orthorhombic'
loop_
_space_group_symop_operation_xyz
x,y,z
-x,1/2-y,z
x,-y,1/2-z
1/2-x,y,-z
-x,-y,-z
x,1/2+y,-z
-x,y,1/2+z
1/2+x,-y,z
1/2+x,1/2+y,1/2+z
1/2-x,-y,1/2+z
1/2+x,1/2-y,-z
-x,1/2+y,1/2-z
1/2-x,1/2-y,1/2-z
1/2+x,y,1/2-z
1/2-x,1/2+y,z
x,1/2-y,1/2+z
loop_
_atom_site_type_symbol
_atom_site_label
_atom_site_fract_x
_atom_site_fract_y
_atom_site_fract_z
Si Si1 0.709875 0.843722 0.674941
Si Si2 0.877547 0.099549 0.718832
Si Si3 0.750000 0.263545 0.500000
Si Si4 0.510335 0.341215 0.436766
Si Si5 0.110282 0.201821 0.884506
Si Si6 0.000000 0.750000 0.292184
Si Si7 0.348633 0.478770 0.451479
Si Si8 0.017730 0.537857 0.155462
O O1 0.800670 0.876640 0.696138
O O2 0.740013 0.797792 0.608254
O O3 0.616681 0.860737 0.597332
O O4 0.674148 0.831549 0.806090
O O5 0.921774 0.130349 0.616066
O O6 0.831676 0.056024 0.654158
O O7 0.973691 0.081472 0.783881
O O8 0.837985 0.228297 0.489227
O O9 0.482542 0.325670 0.567590
O O10 0.506662 0.294642 0.365942
O O11 0.087199 0.243006 0.797430
O O12 0.250000 0.498816 0.500000
O O13 0.400939 0.453698 0.559721
O O14 0.425039 0.515560 0.408642
O O15 0.050198 0.500000 0.250000
#
# Coordination Sequence:
#
# PCOD9530792 Si02
#       8
#    16  16   8  16  16   8  16  16
#     4  11  26  41  64  99 137 184 236 292 360 426
#     4  11  25  43  67 100 142 180 228 289 356 419
#     4  12  22  40  62  94 126 182 236 304 350 436
#     4  11  24  40  63  96 133 185 234 297 355 417
#     4  11  21  38  63  87 129 173 242 298 358 413
#     4  10  20  38  60  82 122 182 232 288 350 402
#     4  10  23  43  78 102 135 180 229 275 353 428
#     4   9  22  47  69 107 139 178 224 283 345 427
#
# _framework density 23.979036000000001
#
# number of rings (size 3 to 8) (size 9 to 14) (size 15 to 20)
#    0.000    1.429    0.000    5.143    4.000    5.143 
#    6.429    0.000    0.000    0.000    0.000    0.000 
#    0.000    0.000    0.000    0.000    0.000    0.000 
#
# Total GULP energy -312905.936094 kJ/mol
# GULP energy per Si atom -5587.606002 kJ/mol
# Density = 2.392446 g / cm^3
# Si number density = 23.979036 Si / 1000 Ang^3
#
#
#
# Elastic Constant Matrix: (Units=GPa)
#
#
# Indices 1 2 3 4 5 6 
#
# 1 72.8707 14.4639 26.8032 0.0000 0.0001 0.0000
# 2 14.4639 42.0845 17.7826 -0.0002 0.0000 -0.0001
# 3 26.8032 17.7826 89.9698 -0.0004 0.0002 -0.0004
# 4 0.0000 -0.0002 -0.0004 26.9927 0.0000 -0.0001
# 5 0.0001 0.0000 0.0002 0.0000 40.1824 -0.0001
# 6 0.0000 -0.0001 -0.0004 -0.0001 -0.0001 5.4526
#
#
#
# Elastic Compliance Matrix: (Units=1/GPa)
#
#
# Indices 1 2 3 4 5 6 
#
# 1 0.015947 -0.003790 -0.004002 0.000000 0.000000 0.000000
# 2 -0.003790 0.026828 -0.004173 0.000000 0.000000 0.000000
# 3 -0.004002 -0.004173 0.013132 0.000000 0.000000 0.000001
# 4 0.000000 0.000000 0.000000 0.037047 0.000000 0.000001
# 5 0.000000 0.000000 0.000000 0.000000 0.024887 0.000000
# 6 0.000000 0.000000 0.000001 0.000001 0.000000 0.183400
#
#
# Mechanical properties :
#
#
# Convention : Reuss Voigt Hill
#
# Bulk Modulus (GPa) = 31.27298 35.89158 33.58228
# Shear Modulus (GPa) = 14.88853 24.25057 19.56955
#
# Velocity S-wave (km/s) = 2.49449 3.18358 2.85986
# Velocity P-wave (km/s) = 4.62242 5.33985 4.99403
#
# Compressibility (1/GPa) = 0.03197649
#
# Stress axis : x y z
#
# Youngs Moduli (GPa) = 62.70729 37.27492 76.15038
#
# Poissons Ratio (x) = 0.14127 0.30474
# Poissons Ratio (y) = 0.23765 0.31781
# Poissons Ratio (z) = 0.25094 0.15557
#
# Static dielectric constant tensor:
#      x y z
#    x 1.984550 0.000000 0.000000 
#    y 0.000000 1.902820 0.000000 
#    z 0.000000 0.000000 1.989480 
# 
# From -- ./inp_files/11289.got.cif
#   From: 2010.05.17/outbox.cif.g08.bks.cpg/sg73_6_cif.got.tgz:11289.got - 2010.06.03 17:35:07.
