data_PCOD9530850
_publ_section_title
;
Structure prediction by ZEFSAII (Michael W. Deem and Ramdas Pophale) SiO2 
 PCOD9530850
Probable space group: I B C A 
;
_chemical_formula_sum "Si O2"
_cell_formula_units_Z 72
_cell_length_a 19.151901
_cell_length_b 8.277099
_cell_length_c 18.107120
_cell_angle_alpha 90.000000
_cell_angle_beta 90.000000
_cell_angle_gamma 90.000000
_cell_volume 2870.380147
_symmetry_space_group_name_H-M "I B C A "
_symmetry_group_IT_number 73
_symmetry_cell_setting 'orthorhombic'
loop_
_space_group_symop_operation_xyz
x,y,z
-x,1/2-y,z
x,-y,1/2-z
1/2-x,y,-z
-x,-y,-z
x,1/2+y,-z
-x,y,1/2+z
1/2+x,-y,z
1/2+x,1/2+y,1/2+z
1/2-x,-y,1/2+z
1/2+x,1/2-y,-z
-x,1/2+y,1/2-z
1/2-x,1/2-y,1/2-z
1/2+x,y,1/2-z
1/2-x,1/2+y,z
x,1/2-y,1/2+z
loop_
_atom_site_type_symbol
_atom_site_label
_atom_site_fract_x
_atom_site_fract_y
_atom_site_fract_z
Si Si1 0.010764 0.558430 0.170314
Si Si2 0.724042 0.933152 0.381823
Si Si3 0.842750 0.217709 0.529376
Si Si4 0.837718 0.648000 0.646743
Si Si5 0.500000 0.750000 0.071304
O O1 0.985105 0.500000 0.250000
O O2 0.094701 0.554112 0.168918
O O3 0.987975 0.418796 0.114545
O O4 0.000000 0.750000 0.154127
O O5 0.787720 0.838442 0.428103
O O6 0.673754 0.830206 0.328824
O O7 0.676457 0.044898 0.434370
O O8 0.769605 0.052146 0.333319
O O9 0.833801 0.186718 0.441902
O O10 0.923663 0.271634 0.534639
#
# Coordination Sequence:
#
# PCOD9530850 Si02
#       5
#    16  16  16  16   8
#     4  12  27  48  68  92 134 189 235 283 345 408
#     4  10  20  38  64  99 139 183 208 264 351 428
#     4  11  21  37  67 102 142 171 216 276 350 409
#     4  11  21  38  67  97 133 174 224 270 338 413
#     4  12  26  44  70 108 138 170 232 298 340 410
#
# _framework density 25.083784999999999
#
# number of rings (size 3 to 8) (size 9 to 14) (size 15 to 20)
#    0.000    0.889    3.333    6.667    1.556    0.889 
#    0.000    1.111    0.000    0.000    0.000    0.000 
#    0.000    0.000    0.000    0.000    0.000    0.000 
#
# Total GULP energy -200679.868819 kJ/mol
# GULP energy per Si atom -5574.440801 kJ/mol
# Density = 2.502669 g / cm^3
# Si number density = 25.083785 Si / 1000 Ang^3
#
#
#
# Elastic Constant Matrix: (Units=GPa)
#
#
# Indices 1 2 3 4 5 6 
#
# 1 116.5983 -6.9202 21.6006 0.0000 0.0000 0.0000
# 2 -6.9202 115.0366 17.3745 0.0000 0.0000 0.0000
# 3 21.6006 17.3745 49.1611 0.0000 0.0000 0.0000
# 4 0.0000 0.0000 0.0000 12.8172 0.0000 0.0000
# 5 0.0000 0.0000 0.0000 0.0000 -0.6079 0.0000
# 6 0.0000 0.0000 0.0000 0.0000 0.0000 52.7327
#
#
#
# Elastic Compliance Matrix: (Units=1/GPa)
#
#
# Indices 1 2 3 4 5 6 
#
# 1 0.009509 0.001271 -0.004627 0.000000 0.000000 0.000000
# 2 0.001271 0.009353 -0.003864 0.000000 0.000000 0.000000
# 3 -0.004627 -0.003864 0.023740 0.000000 0.000000 0.000000
# 4 0.000000 0.000000 0.000000 0.078020 0.000000 0.000000
# 5 0.000000 0.000000 0.000000 0.000000 -1.645102 0.000000
# 6 0.000000 0.000000 0.000000 0.000000 0.000000 0.018964
#
#
# Mechanical properties :
#
#
# Convention : Reuss Voigt Hill
#
# Bulk Modulus (GPa) = 35.50955 38.32285 36.91620
# Shear Modulus (GPa) = -3.37453 29.57115 13.09831
#
# Velocity S-wave (km/s) = -1.16113 3.43723 2.28761
# Velocity P-wave (km/s) = 3.51987 5.57349 4.66119
#
# Compressibility (1/GPa) = 0.02816144
#
# Stress axis : x y z
#
# Youngs Moduli (GPa) = 105.16216 106.91834 42.12290
#
# Poissons Ratio (x) = -0.13589 0.19492
# Poissons Ratio (y) = -0.13365 0.16276
# Poissons Ratio (z) = 0.48662 0.41313
#
# Static dielectric constant tensor:
#      x y z
#    x 1.994690 0.000000 0.000000 
#    y 0.000000 2.311970 0.000000 
#    z 0.000000 0.000000 2.027730 
# 
# From -- ./inp_files/5314.got.cif
#   From: 2010.05.17/outbox.cif.g08.bks.cpg/sg73_3_cif.got.tgz:5314.got - 2010.06.03 17:35:07.
