data_PCOD9530927
_publ_section_title
;
Structure prediction by ZEFSAII (Michael W. Deem and Ramdas Pophale) SiO2 
 PCOD9530927
Probable space group: I B C A 
;
_chemical_formula_sum "Si O2"
_cell_formula_units_Z 112
_cell_length_a 14.086194
_cell_length_b 33.820054
_cell_length_c 11.332393
_cell_angle_alpha 90.000000
_cell_angle_beta 90.000000
_cell_angle_gamma 90.000000
_cell_volume 5398.704902
_symmetry_space_group_name_H-M "I B C A "
_symmetry_group_IT_number 73
_symmetry_cell_setting 'orthorhombic'
loop_
_space_group_symop_operation_xyz
x,y,z
-x,1/2-y,z
x,-y,1/2-z
1/2-x,y,-z
-x,-y,-z
x,1/2+y,-z
-x,y,1/2+z
1/2+x,-y,z
1/2+x,1/2+y,1/2+z
1/2-x,-y,1/2+z
1/2+x,1/2-y,-z
-x,1/2+y,1/2-z
1/2-x,1/2-y,1/2-z
1/2+x,y,1/2-z
1/2-x,1/2+y,z
x,1/2-y,1/2+z
loop_
_atom_site_type_symbol
_atom_site_label
_atom_site_fract_x
_atom_site_fract_y
_atom_site_fract_z
Si Si1 0.791997 0.429631 0.132119
Si Si2 0.159007 0.655367 0.924841
Si Si3 0.988343 0.022818 0.624339
Si Si4 0.351154 0.842680 0.038206
Si Si5 0.999454 0.703691 0.311044
Si Si6 0.374267 0.084406 0.295630
Si Si7 0.510366 0.363408 0.124302
O O1 0.814120 0.382930 0.151352
O O2 0.885413 0.456271 0.135902
O O3 0.708925 0.437786 0.225680
O O4 0.750000 0.432329 0.000000
O O5 0.103943 0.689015 0.854672
O O6 0.250000 0.668630 0.000000
O O7 0.082315 0.637894 0.015773
O O8 0.070074 0.055785 0.618439
O O9 0.002978 0.000000 0.750000
O O10 0.000000 0.000000 0.500000
O O11 0.422607 0.810036 0.092069
O O12 0.338201 0.877035 0.135117
O O13 0.250000 0.826344 0.000000
O O14 0.405776 0.863052 0.928984
O O15 0.022064 0.677075 0.197454
O O16 0.000000 0.750000 0.290025
O O17 0.454704 0.100940 0.205551
#
# Coordination Sequence:
#
# PCOD9530927 Si02
#       7
#    16  16  16  16  16  16  16
#     4  11  22  43  75  99 131 178 230 283 340 405
#     4  10  20  39  68  93 122 169 228 275 338 391
#     4  12  29  46  69 103 149 185 224 281 352 430
#     4  10  24  39  67  98 128 163 235 284 335 395
#     4  10  23  39  59  92 136 176 215 272 348 416
#     4  11  24  42  71  97 129 178 230 278 342 405
#     4  10  20  40  65  92 130 170 225 280 329 403
#
# _framework density 20.745716000000002
#
# number of rings (size 3 to 8) (size 9 to 14) (size 15 to 20)
#    0.000    1.429    2.857    3.429    6.000    4.571 
#    0.000    1.429    0.000    0.000    0.000    0.000 
#    0.000    0.000    0.000    0.000    0.000    0.000 
#
# Total GULP energy -312827.119823 kJ/mol
# GULP energy per Si atom -5586.198568 kJ/mol
# Density = 2.069850 g / cm^3
# Si number density = 20.745716 Si / 1000 Ang^3
#
#
#
# Elastic Constant Matrix: (Units=GPa)
#
#
# Indices 1 2 3 4 5 6 
#
# 1 117.7539 24.9630 18.4684 -0.0005 0.0000 -0.0001
# 2 24.9630 70.1318 21.0393 -0.0012 -0.0001 -0.0002
# 3 18.4684 21.0393 68.1742 -0.0070 0.0002 -0.0005
# 4 -0.0005 -0.0012 -0.0070 -6.1699 0.0008 -0.0007
# 5 0.0000 -0.0001 0.0002 0.0008 28.7743 0.0002
# 6 -0.0001 -0.0002 -0.0005 -0.0007 0.0002 11.5493
#
#
#
# Elastic Compliance Matrix: (Units=1/GPa)
#
#
# Indices 1 2 3 4 5 6 
#
# 1 0.009353 -0.002831 -0.001660 0.000002 0.000000 0.000000
# 2 -0.002831 0.016571 -0.004347 0.000002 0.000000 0.000000
# 3 -0.001660 -0.004347 0.016460 -0.000018 0.000000 0.000001
# 4 0.000002 0.000002 -0.000018 -0.162076 0.000004 -0.000010
# 5 0.000000 0.000000 0.000000 0.000004 0.034753 0.000000
# 6 0.000000 0.000000 0.000001 -0.000010 0.000000 0.086586
#
#
# Mechanical properties :
#
#
# Convention : Reuss Voigt Hill
#
# Bulk Modulus (GPa) = 40.47442 42.77791 41.62616
# Shear Modulus (GPa) = 181.43984 19.60333 100.52158
#
# Velocity S-wave (km/s) = 9.36209 3.07731 6.96845
# Velocity P-wave (km/s) = 11.67978 5.76987 9.21164
#
# Compressibility (1/GPa) = 0.02470696
#
# Stress axis : x y z
#
# Youngs Moduli (GPa) = 106.91975 60.34766 60.75511
#
# Poissons Ratio (x) = 0.17085 0.10085
# Poissons Ratio (y) = 0.30270 0.26410
# Poissons Ratio (z) = 0.17748 0.26233
#
# Static dielectric constant tensor:
#      x y z
#    x 1.761620 0.000000 0.000000 
#    y 0.000000 1.728700 0.000000 
#    z 0.000000 0.000000 1.781740 
# 
# From -- ./inp_files/11249.got.cif
#   From: 2010.05.17/outbox.cif.g08.bks.cpg/sg73_6_cif.got.tgz:11249.got - 2010.06.03 17:35:07.
