data_PCOD9530115
_publ_section_title
;
Structure prediction by ZEFSAII (Michael W. Deem and Ramdas Pophale) SiO2 
 PCOD9530115
Probable space group: I B C A 
;
_chemical_formula_sum "Si O2"
_cell_formula_units_Z 112
_cell_length_a 10.029254
_cell_length_b 23.883451
_cell_length_c 24.026418
_cell_angle_alpha 90.000000
_cell_angle_beta 90.000000
_cell_angle_gamma 90.000000
_cell_volume 5755.124703
_symmetry_space_group_name_H-M "I B C A "
_symmetry_group_IT_number 73
_symmetry_cell_setting 'orthorhombic'
loop_
_space_group_symop_operation_xyz
x,y,z
-x,1/2-y,z
x,-y,1/2-z
1/2-x,y,-z
-x,-y,-z
x,1/2+y,-z
-x,y,1/2+z
1/2+x,-y,z
1/2+x,1/2+y,1/2+z
1/2-x,-y,1/2+z
1/2+x,1/2-y,-z
-x,1/2+y,1/2-z
1/2-x,1/2-y,1/2-z
1/2+x,y,1/2-z
1/2-x,1/2+y,z
x,1/2-y,1/2+z
loop_
_atom_site_type_symbol
_atom_site_label
_atom_site_fract_x
_atom_site_fract_y
_atom_site_fract_z
Si Si1 0.892156 0.434921 0.155699
Si Si2 0.763467 0.126636 0.561888
Si Si3 0.292811 0.715143 0.341860
Si Si4 0.675135 0.525277 0.189785
Si Si5 0.155318 0.744134 0.450594
Si Si6 0.244674 0.368526 0.251705
Si Si7 0.074853 0.837843 0.652802
O O1 0.874078 0.404833 0.097203
O O2 0.779055 0.482615 0.162590
O O3 0.857470 0.388134 0.203630
O O4 0.036330 0.461996 0.160633
O O5 0.750000 0.103829 0.500000
O O6 0.799308 0.191809 0.557002
O O7 0.633055 0.127290 0.601249
O O8 0.184529 0.713503 0.391666
O O9 0.252583 0.689388 0.282267
O O10 0.342655 0.779502 0.339880
O O11 0.424049 0.679372 0.357013
O O12 0.640626 0.500000 0.250000
O O13 0.742847 0.584344 0.204360
O O14 0.250000 0.720775 0.500000
O O15 0.000000 0.750000 0.465609
O O16 0.110954 0.369084 0.289762
#
# Coordination Sequence:
#
# PCOD9530115 Si02
#       7
#    16  16  16  16  16  16  16
#     4  10  21  37  58  80 111 146 190 239 295 342
#     4   9  20  37  60  80 110 150 193 233 296 345
#     4  10  20  34  54  84 120 152 195 236 283 342
#     4  10  20  34  55  80 107 143 187 234 288 349
#     4  10  23  38  62  85 117 157 199 239 279 341
#     4  10  19  33  55  84 115 149 190 234 287 347
#     4   9  19  34  53  82 118 159 186 230 292 347
#
# _framework density 19.460916999999998
#
# number of rings (size 3 to 8) (size 9 to 14) (size 15 to 20)
#    0.000    2.286    0.000    2.571    8.000    2.286 
#    5.143    0.714    0.000    0.857    0.000    0.000 
#    0.000    0.000    0.000    0.000    0.000    0.000 
#
# Total GULP energy -312102.451249 kJ/mol
# GULP energy per Si atom -5573.258058 kJ/mol
# Density = 1.941662 g / cm^3
# Si number density = 19.460917 Si / 1000 Ang^3
#
#
#
# Elastic Constant Matrix: (Units=GPa)
#
#
# Indices 1 2 3 4 5 6 
#
# 1 47.9534 -13.0524 46.2925 0.0000 0.0000 0.0000
# 2 -13.0524 46.0963 30.7574 0.0000 0.0000 0.0000
# 3 46.2925 30.7574 110.2724 0.0000 0.0000 0.0000
# 4 0.0000 0.0000 0.0000 -22.3855 0.0000 0.0000
# 5 0.0000 0.0000 0.0000 0.0000 18.9727 0.0000
# 6 0.0000 0.0000 0.0000 0.0000 0.0000 7.7189
#
#
#
# Elastic Compliance Matrix: (Units=1/GPa)
#
#
# Indices 1 2 3 4 5 6 
#
# 1 0.094780 0.065594 -0.058085 0.000000 0.000000 0.000000
# 2 0.065594 0.072050 -0.047633 0.000000 0.000000 0.000000
# 3 -0.058085 -0.047633 0.046738 0.000000 0.000000 0.000000
# 4 0.000000 0.000000 0.000000 -0.044672 0.000000 0.000000
# 5 0.000000 0.000000 0.000000 0.000000 0.052707 0.000000
# 6 0.000000 0.000000 0.000000 0.000000 0.000000 0.129553
#
#
# Mechanical properties :
#
#
# Convention : Reuss Voigt Hill
#
# Bulk Modulus (GPa) = 7.50064 36.92411 22.21237
# Shear Modulus (GPa) = 10.50764 10.21618 10.36191
#
# Velocity S-wave (km/s) = 2.32617 2.29368 2.30999
# Velocity P-wave (km/s) = 3.32826 5.10189 4.30736
#
# Compressibility (1/GPa) = 0.13332201
#
# Stress axis : x y z
#
# Youngs Moduli (GPa) = 10.55071 13.87929 21.39572
#
# Poissons Ratio (x) = -0.91040 1.24276
# Poissons Ratio (y) = -0.69207 1.01914
# Poissons Ratio (z) = 0.61283 0.66111
#
# Static dielectric constant tensor:
#      x y z
#    x 1.717340 0.000000 0.000000 
#    y 0.000000 1.738830 0.000000 
#    z 0.000000 0.000000 1.695320 
# 
# From -- ./inp_files/25558.got.cif
#   From: 2010.05.17/outbox.cif.g08.bks.cpg/sg73_13_cif.got.tgz:25558.got - 2010.06.03 17:35:07.
