data_PCOD9530712
_publ_section_title
;
Structure prediction by ZEFSAII (Michael W. Deem and Ramdas Pophale) SiO2 
 PCOD9530712
Probable space group: I B C A 
;
_chemical_formula_sum "Si O2"
_cell_formula_units_Z 80
_cell_length_a 24.419659
_cell_length_b 8.655493
_cell_length_c 16.868722
_cell_angle_alpha 90.000000
_cell_angle_beta 90.000000
_cell_angle_gamma 90.000000
_cell_volume 3565.443720
_symmetry_space_group_name_H-M "I B C A "
_symmetry_group_IT_number 73
_symmetry_cell_setting 'orthorhombic'
loop_
_space_group_symop_operation_xyz
x,y,z
-x,1/2-y,z
x,-y,1/2-z
1/2-x,y,-z
-x,-y,-z
x,1/2+y,-z
-x,y,1/2+z
1/2+x,-y,z
1/2+x,1/2+y,1/2+z
1/2-x,-y,1/2+z
1/2+x,1/2-y,-z
-x,1/2+y,1/2-z
1/2-x,1/2-y,1/2-z
1/2+x,y,1/2-z
1/2-x,1/2+y,z
x,1/2-y,1/2+z
loop_
_atom_site_type_symbol
_atom_site_label
_atom_site_fract_x
_atom_site_fract_y
_atom_site_fract_z
Si Si1 0.320762 0.165462 0.470113
Si Si2 0.588243 0.177768 0.855457
Si Si3 0.724210 0.349896 0.101157
Si Si4 0.674973 0.500000 0.250000
Si Si5 0.000000 0.250000 0.461187
Si Si6 0.471292 0.044095 0.892065
O O1 0.382395 0.164100 0.440843
O O2 0.312119 0.214023 0.560903
O O3 0.294862 0.002319 0.446327
O O4 0.285108 0.290524 0.419029
O O5 0.532018 0.080087 0.857511
O O6 0.571292 0.355384 0.841993
O O7 0.633808 0.110466 0.797934
O O8 0.711295 0.396832 0.190637
O O9 0.964704 0.363375 0.405913
O O10 0.970622 0.131812 0.521982
#
# Coordination Sequence:
#
# PCOD9530712 Si02
#       6
#    16  16  16   8   8  16
#     4  10  20  37  59  85 114 156 199 249 296 355
#     4   9  20  36  58  83 117 157 199 245 303 358
#     4  10  21  37  60  86 118 152 198 247 300 361
#     4  10  22  38  60  86 120 162 194 250 310 364
#     4   8  16  32  56  86 118 152 196 252 290 336
#     4   9  18  34  57  87 120 153 199 249 297 360
#
# _framework density 22.4376
#
# number of rings (size 3 to 8) (size 9 to 14) (size 15 to 20)
#    0.000    2.800    0.000    2.400    0.000   16.000 
#    0.000    6.000    0.000   33.600    0.000    0.000 
#    0.000    0.000    0.000    0.000    0.000    0.000 
#
# Total GULP energy -222943.641706 kJ/mol
# GULP energy per Si atom -5573.591043 kJ/mol
# Density = 2.238653 g / cm^3
# Si number density = 22.437600 Si / 1000 Ang^3
#
#
#
# Elastic Constant Matrix: (Units=GPa)
#
#
# Indices 1 2 3 4 5 6 
#
# 1 50.8960 -1.1771 -9.1562 0.0000 0.0000 0.0000
# 2 -1.1771 118.1315 -0.1307 0.0000 0.0000 0.0000
# 3 -9.1562 -0.1307 53.5528 0.0000 0.0000 0.0000
# 4 0.0000 0.0000 0.0000 29.7748 0.0000 0.0000
# 5 0.0000 0.0000 0.0000 0.0000 18.6356 0.0000
# 6 0.0000 0.0000 0.0000 0.0000 0.0000 16.1053
#
#
#
# Elastic Compliance Matrix: (Units=1/GPa)
#
#
# Indices 1 2 3 4 5 6 
#
# 1 0.020276 0.000206 0.003467 0.000000 0.000000 0.000000
# 2 0.000206 0.008467 0.000056 0.000000 0.000000 0.000000
# 3 0.003467 0.000056 0.019266 0.000000 0.000000 0.000000
# 4 0.000000 0.000000 0.000000 0.033585 0.000000 0.000000
# 5 0.000000 0.000000 0.000000 0.000000 0.053661 0.000000
# 6 0.000000 0.000000 0.000000 0.000000 0.000000 0.062092
#
#
# Mechanical properties :
#
#
# Convention : Reuss Voigt Hill
#
# Bulk Modulus (GPa) = 18.02847 22.40582 20.21714
# Shear Modulus (GPa) = 23.99479 28.43943 26.21711
#
# Velocity S-wave (km/s) = 3.27372 3.56404 3.42196
# Velocity P-wave (km/s) = 4.72673 5.19077 4.96418
#
# Compressibility (1/GPa) = 0.05546782
#
# Stress axis : x y z
#
# Youngs Moduli (GPa) = 49.31836 118.10204 51.90459
#
# Poissons Ratio (x) = -0.02431 -0.17997
# Poissons Ratio (y) = -0.01015 -0.00290
# Poissons Ratio (z) = -0.17100 -0.00660
#
# Static dielectric constant tensor:
#      x y z
#    x 1.870030 0.000000 0.000000 
#    y 0.000000 1.884910 0.000000 
#    z 0.000000 0.000000 1.935730 
# 
# From -- ./inp_files/23836.got.cif
#   From: 2010.05.17/outbox.cif.g08.bks.cpg/sg73_12_cif.got.tgz:23836.got - 2010.06.03 17:35:07.
