data_PCOD9530385
_publ_section_title
;
Structure prediction by ZEFSAII (Michael W. Deem and Ramdas Pophale) SiO2 
 PCOD9530385
Probable space group: I B C A 
;
_chemical_formula_sum "Si O2"
_cell_formula_units_Z 80
_cell_length_a 23.619363
_cell_length_b 12.602119
_cell_length_c 10.371730
_cell_angle_alpha 90.000000
_cell_angle_beta 90.000000
_cell_angle_gamma 90.000000
_cell_volume 3087.187162
_symmetry_space_group_name_H-M "I B C A "
_symmetry_group_IT_number 73
_symmetry_cell_setting 'orthorhombic'
loop_
_space_group_symop_operation_xyz
x,y,z
-x,1/2-y,z
x,-y,1/2-z
1/2-x,y,-z
-x,-y,-z
x,1/2+y,-z
-x,y,1/2+z
1/2+x,-y,z
1/2+x,1/2+y,1/2+z
1/2-x,-y,1/2+z
1/2+x,1/2-y,-z
-x,1/2+y,1/2-z
1/2-x,1/2-y,1/2-z
1/2+x,y,1/2-z
1/2-x,1/2+y,z
x,1/2-y,1/2+z
loop_
_atom_site_type_symbol
_atom_site_label
_atom_site_fract_x
_atom_site_fract_y
_atom_site_fract_z
Si Si1 0.104931 0.100856 0.786414
Si Si2 0.592388 0.465274 0.921532
Si Si3 0.711921 0.363337 0.375485
Si Si4 0.554780 0.822763 0.301807
Si Si5 0.789212 0.879528 0.877833
O O1 0.154586 0.082051 0.676973
O O2 0.098593 0.227679 0.777562
O O3 0.064560 0.000000 0.750000
O O4 0.100375 0.086597 0.939872
O O5 0.553551 0.391247 0.830127
O O6 0.656515 0.453282 0.870588
O O7 0.571540 0.087386 0.092914
O O8 0.750000 0.390017 0.500000
O O9 0.752735 0.377085 0.252209
O O10 0.694334 0.242404 0.400555
O O11 0.500000 0.750000 0.330404
O O12 0.750000 0.904486 0.000000
#
# Coordination Sequence:
#
# PCOD9530385 Si02
#       5
#    16  16  16  16  16
#     4  12  28  50  80 123 170 226 299 360 448 550
#     4  11  26  51  87 118 169 234 285 380 452 549
#     4  10  22  41  76 119 173 221 278 352 428 540
#     4  11  29  53  83 124 167 228 310 382 467 521
#     4  10  19  41  76 118 168 226 285 342 445 543
#
# _framework density 25.913557000000001
#
# number of rings (size 3 to 8) (size 9 to 14) (size 15 to 20)
#    0.000    1.200    4.000    0.000    5.600    4.800 
#    7.200    0.000    4.400    0.000    0.000    0.000 
#    0.000    0.000    0.000    0.000    0.000    0.000 
#
# Total GULP energy -222976.613649 kJ/mol
# GULP energy per Si atom -5574.415341 kJ/mol
# Density = 2.585458 g / cm^3
# Si number density = 25.913557 Si / 1000 Ang^3
#
#
#
# Elastic Constant Matrix: (Units=GPa)
#
#
# Indices 1 2 3 4 5 6 
#
# 1 109.0948 51.6432 53.4621 0.0000 0.0000 0.0000
# 2 51.6432 224.0470 51.6745 0.0000 0.0000 0.0000
# 3 53.4621 51.6745 171.9524 0.0000 0.0000 0.0000
# 4 0.0000 0.0000 0.0000 36.2264 0.0000 0.0000
# 5 0.0000 0.0000 0.0000 0.0000 13.3428 0.0000
# 6 0.0000 0.0000 0.0000 0.0000 0.0000 46.4028
#
#
#
# Elastic Compliance Matrix: (Units=1/GPa)
#
#
# Indices 1 2 3 4 5 6 
#
# 1 0.011574 -0.001975 -0.003005 0.000000 0.000000 0.000000
# 2 -0.001975 0.005133 -0.000928 0.000000 0.000000 0.000000
# 3 -0.003005 -0.000928 0.007029 0.000000 0.000000 0.000000
# 4 0.000000 0.000000 0.000000 0.027604 0.000000 0.000000
# 5 0.000000 0.000000 0.000000 0.000000 0.074947 0.000000
# 6 0.000000 0.000000 0.000000 0.000000 0.000000 0.021550
#
#
# Mechanical properties :
#
#
# Convention : Reuss Voigt Hill
#
# Bulk Modulus (GPa) = 83.90018 90.96153 87.43086
# Shear Modulus (GPa) = 30.55755 42.41538 36.48647
#
# Velocity S-wave (km/s) = 3.43769 4.05013 3.75641
# Velocity P-wave (km/s) = 6.94292 7.55311 7.25444
#
# Compressibility (1/GPa) = 0.01191893
#
# Stress axis : x y z
#
# Youngs Moduli (GPa) = 86.40266 194.83048 142.27025
#
# Poissons Ratio (x) = 0.38473 0.42752
# Poissons Ratio (y) = 0.17062 0.13210
# Poissons Ratio (z) = 0.25964 0.18090
#
# Static dielectric constant tensor:
#      x y z
#    x 2.252430 0.000000 0.000000 
#    y 0.000000 1.739950 0.000000 
#    z 0.000000 0.000000 2.440840 
# 
# From -- ./inp_files/8346.got.cif
#   From: 2010.05.17/outbox.cif.g08.bks.cpg/sg73_5_cif.got.tgz:8346.got - 2010.06.03 17:35:07.
