data_PCOD9530987
_publ_section_title
;
Structure prediction by ZEFSAII (Michael W. Deem and Ramdas Pophale) SiO2 
 PCOD9530987
Probable space group: I B C A 
;
_chemical_formula_sum "Si O2"
_cell_formula_units_Z 56
_cell_length_a 13.646884
_cell_length_b 15.777326
_cell_length_c 10.540651
_cell_angle_alpha 90.000000
_cell_angle_beta 90.000000
_cell_angle_gamma 90.000000
_cell_volume 2269.521668
_symmetry_space_group_name_H-M "I B C A "
_symmetry_group_IT_number 73
_symmetry_cell_setting 'orthorhombic'
loop_
_space_group_symop_operation_xyz
x,y,z
-x,1/2-y,z
x,-y,1/2-z
1/2-x,y,-z
-x,-y,-z
x,1/2+y,-z
-x,y,1/2+z
1/2+x,-y,z
1/2+x,1/2+y,1/2+z
1/2-x,-y,1/2+z
1/2+x,1/2-y,-z
-x,1/2+y,1/2-z
1/2-x,1/2-y,1/2-z
1/2+x,y,1/2-z
1/2-x,1/2+y,z
x,1/2-y,1/2+z
loop_
_atom_site_type_symbol
_atom_site_label
_atom_site_fract_x
_atom_site_fract_y
_atom_site_fract_z
Si Si1 0.871821 0.337742 0.086303
Si Si2 0.250000 0.009580 0.000000
Si Si3 0.931423 0.580383 0.972326
Si Si4 0.387576 0.774743 0.845070
O O1 0.814869 0.426611 0.084893
O O2 0.843794 0.280649 0.205476
O O3 0.989518 0.357670 0.093558
O O4 0.851868 0.289930 0.953400
O O5 0.329133 0.955505 0.080949
O O6 0.892096 0.631560 0.094143
O O7 0.000000 0.500000 0.000000
O O8 0.500000 0.750000 0.829081
#
# Coordination Sequence:
#
# PCOD9530987 Si02
#       4
#    16   8  16  16
#     4  10  22  41  66  93 125 167 210 257 313 373
#     4  10  22  40  60  96 132 162 206 260 316 376
#     4   9  20  39  61  91 128 165 205 258 317 371
#     4  10  20  40  66  91 125 166 210 258 311 373
#
# _framework density 24.674803000000001
#
# number of rings (size 3 to 8) (size 9 to 14) (size 15 to 20)
#    0.000    2.286    0.000    2.571    0.000    6.857 
#    0.000   22.857    0.000    5.143    0.000    0.000 
#    0.000    0.000    0.000    0.000    0.000    0.000 
#
# Total GULP energy -156233.146610 kJ/mol
# GULP energy per Si atom -5579.755236 kJ/mol
# Density = 2.461864 g / cm^3
# Si number density = 24.674803 Si / 1000 Ang^3
#
#
#
# Elastic Constant Matrix: (Units=GPa)
#
#
# Indices 1 2 3 4 5 6 
#
# 1 178.5431 33.3638 45.9908 0.0000 0.0000 0.0000
# 2 33.3638 91.2460 43.2994 0.0000 0.0000 0.0000
# 3 45.9908 43.2994 119.1726 0.0000 0.0000 0.0000
# 4 0.0000 0.0000 0.0000 13.0560 0.0000 0.0000
# 5 0.0000 0.0000 0.0000 0.0000 19.4435 0.0000
# 6 0.0000 0.0000 0.0000 0.0000 0.0000 48.8224
#
#
#
# Elastic Compliance Matrix: (Units=1/GPa)
#
#
# Indices 1 2 3 4 5 6 
#
# 1 0.006364 -0.001404 -0.001946 0.000000 0.000000 0.000000
# 2 -0.001404 0.013552 -0.004382 0.000000 0.000000 0.000000
# 3 -0.001946 -0.004382 0.010734 0.000000 0.000000 0.000000
# 4 0.000000 0.000000 0.000000 0.076593 0.000000 0.000000
# 5 0.000000 0.000000 0.000000 0.000000 0.051431 0.000000
# 6 0.000000 0.000000 0.000000 0.000000 0.000000 0.020482
#
#
# Mechanical properties :
#
#
# Convention : Reuss Voigt Hill
#
# Bulk Modulus (GPa) = 65.84588 70.47440 68.16014
# Shear Modulus (GPa) = 25.03952 34.01823 29.52887
#
# Velocity S-wave (km/s) = 3.18902 3.71706 3.46312
# Velocity P-wave (km/s) = 6.34848 6.85896 6.60865
#
# Compressibility (1/GPa) = 0.01518698
#
# Stress axis : x y z
#
# Youngs Moduli (GPa) = 157.12165 73.78901 93.15771
#
# Poissons Ratio (x) = 0.10357 0.18130
# Poissons Ratio (y) = 0.22054 0.40824
# Poissons Ratio (z) = 0.30579 0.32336
#
# Static dielectric constant tensor:
#      x y z
#    x 1.983600 0.000000 0.000000 
#    y 0.000000 2.072510 0.000000 
#    z 0.000000 0.000000 2.136760 
# 
# From -- ./inp_files/10221.got.cif
#   From: 2010.05.17/outbox.cif.g08.bks.cpg/sg73_6_cif.got.tgz:10221.got - 2010.06.03 17:35:07.
