data_PCOD9530295
_publ_section_title
;
Structure prediction by ZEFSAII (Michael W. Deem and Ramdas Pophale) SiO2 
 PCOD9530295
Probable space group: I B C A 
;
_chemical_formula_sum "Si O2"
_cell_formula_units_Z 112
_cell_length_a 10.870656
_cell_length_b 31.044395
_cell_length_c 14.655718
_cell_angle_alpha 90.000000
_cell_angle_beta 90.000000
_cell_angle_gamma 90.000000
_cell_volume 4945.908223
_symmetry_space_group_name_H-M "I B C A "
_symmetry_group_IT_number 73
_symmetry_cell_setting 'orthorhombic'
loop_
_space_group_symop_operation_xyz
x,y,z
-x,1/2-y,z
x,-y,1/2-z
1/2-x,y,-z
-x,-y,-z
x,1/2+y,-z
-x,y,1/2+z
1/2+x,-y,z
1/2+x,1/2+y,1/2+z
1/2-x,-y,1/2+z
1/2+x,1/2-y,-z
-x,1/2+y,1/2-z
1/2-x,1/2-y,1/2-z
1/2+x,y,1/2-z
1/2-x,1/2+y,z
x,1/2-y,1/2+z
loop_
_atom_site_type_symbol
_atom_site_label
_atom_site_fract_x
_atom_site_fract_y
_atom_site_fract_z
Si Si1 0.228128 0.679620 0.609430
Si Si2 0.945789 0.894024 0.685776
Si Si3 0.453214 0.129589 0.372835
Si Si4 0.134125 0.734916 0.068544
Si Si5 0.129670 0.483817 0.880053
Si Si6 0.391136 0.465776 0.904254
Si Si7 0.378081 0.862403 0.449991
O O1 0.250000 0.678442 0.500000
O O2 0.137713 0.641190 0.635422
O O3 0.360610 0.668187 0.649396
O O4 0.172013 0.725957 0.635057
O O5 0.894459 0.941713 0.679234
O O6 0.958510 0.878203 0.788342
O O7 0.074169 0.893838 0.628926
O O8 0.378378 0.084802 0.383575
O O9 0.525590 0.137907 0.466173
O O10 0.124078 0.685143 0.095437
O O11 0.000000 0.750000 0.030936
O O12 0.250000 0.733561 0.000000
O O13 0.274492 0.493484 0.869808
O O14 0.022301 0.518429 0.866569
O O15 0.111112 0.470179 0.986155
O O16 0.250000 0.873021 0.500000
#
# Coordination Sequence:
#
# PCOD9530295 Si02
#       7
#    16  16  16  16  16  16  16
#     4  11  20  43  75  89 125 183 236 270 334 417
#     4  12  24  41  68  98 136 176 226 282 344 410
#     4  12  25  42  69 103 131 187 231 280 343 426
#     4  10  19  37  70  95 124 175 222 276 345 401
#     4  10  21  41  68  98 131 179 227 290 342 410
#     4  10  21  41  68  98 134 176 238 279 343 414
#     4  11  24  41  64  98 138 169 223 287 346 403
#
# _framework density 22.64498
#
# number of rings (size 3 to 8) (size 9 to 14) (size 15 to 20)
#    0.000    1.143    5.714    0.857    2.000    1.714 
#    0.000    2.143   15.714    0.000    0.000    0.000 
#    0.000    0.000    0.000    0.000    0.000    0.000 
#
# Total GULP energy -312698.972620 kJ/mol
# GULP energy per Si atom -5583.910225 kJ/mol
# Density = 2.259344 g / cm^3
# Si number density = 22.644980 Si / 1000 Ang^3
#
#
#
# Elastic Constant Matrix: (Units=GPa)
#
#
# Indices 1 2 3 4 5 6 
#
# 1 106.7754 27.4200 -0.2843 -0.0003 0.0000 0.0000
# 2 27.4200 57.0908 20.0073 -0.0003 -0.0001 0.0000
# 3 -0.2843 20.0073 65.1311 -0.0010 0.0000 0.0000
# 4 -0.0003 -0.0003 -0.0010 -19.9602 0.0002 0.0000
# 5 0.0000 -0.0001 0.0000 0.0002 14.3106 0.0000
# 6 0.0000 0.0000 0.0000 0.0000 0.0000 35.9617
#
#
#
# Elastic Compliance Matrix: (Units=1/GPa)
#
#
# Indices 1 2 3 4 5 6 
#
# 1 0.010879 -0.005874 0.001852 0.000000 0.000000 0.000000
# 2 -0.005874 0.022801 -0.007030 0.000000 0.000000 0.000000
# 3 0.001852 -0.007030 0.017521 -0.000001 0.000000 0.000000
# 4 0.000000 0.000000 -0.000001 -0.050100 0.000001 0.000000
# 5 0.000000 0.000000 0.000000 0.000001 0.069878 0.000000
# 6 0.000000 0.000000 0.000000 0.000000 0.000000 0.027807
#
#
# Mechanical properties :
#
#
# Convention : Reuss Voigt Hill
#
# Bulk Modulus (GPa) = 34.36761 35.92036 35.14399
# Shear Modulus (GPa) = 38.28805 18.18606 28.23706
#
# Velocity S-wave (km/s) = 4.11639 2.83697 3.53504
# Velocity P-wave (km/s) = 6.14838 5.16023 5.67585
#
# Compressibility (1/GPa) = 0.02909716
#
# Stress axis : x y z
#
# Youngs Moduli (GPa) = 91.92178 43.85844 57.07397
#
# Poissons Ratio (x) = 0.25762 -0.10569
# Poissons Ratio (y) = 0.53994 0.40121
# Poissons Ratio (z) = -0.17023 0.30831
#
# Static dielectric constant tensor:
#      x y z
#    x 1.936850 0.000000 0.000000 
#    y 0.000000 1.855050 0.000000 
#    z 0.000000 0.000000 1.857440 
# 
# From -- ./inp_files/16346.got.cif
#   From: 2010.05.17/outbox.cif.g08.bks.cpg/sg73_9_cif.got.tgz:16346.got - 2010.06.03 17:35:07.
