data_PCOD9530548
_publ_section_title
;
Structure prediction by ZEFSAII (Michael W. Deem and Ramdas Pophale) SiO2 
 PCOD9530548
Probable space group: I B C A 
;
_chemical_formula_sum "Si O2"
_cell_formula_units_Z 128
_cell_length_a 23.417035
_cell_length_b 12.779589
_cell_length_c 22.997547
_cell_angle_alpha 90.000000
_cell_angle_beta 90.000000
_cell_angle_gamma 90.000000
_cell_volume 6882.247822
_symmetry_space_group_name_H-M "I B C A "
_symmetry_group_IT_number 73
_symmetry_cell_setting 'orthorhombic'
loop_
_space_group_symop_operation_xyz
x,y,z
-x,1/2-y,z
x,-y,1/2-z
1/2-x,y,-z
-x,-y,-z
x,1/2+y,-z
-x,y,1/2+z
1/2+x,-y,z
1/2+x,1/2+y,1/2+z
1/2-x,-y,1/2+z
1/2+x,1/2-y,-z
-x,1/2+y,1/2-z
1/2-x,1/2-y,1/2-z
1/2+x,y,1/2-z
1/2-x,1/2+y,z
x,1/2-y,1/2+z
loop_
_atom_site_type_symbol
_atom_site_label
_atom_site_fract_x
_atom_site_fract_y
_atom_site_fract_z
Si Si1 0.980131 0.635938 0.972988
Si Si2 0.828003 0.027691 0.851309
Si Si3 0.296580 0.525121 0.820767
Si Si4 0.689530 0.247477 0.214465
Si Si5 0.886503 0.818704 0.813835
Si Si6 0.059530 0.536780 0.580034
Si Si7 0.002673 0.557445 0.810443
Si Si8 0.391776 0.876790 0.124346
O O1 0.923704 0.602706 0.936600
O O2 0.000000 0.750000 0.954414
O O3 0.033488 0.560960 0.956749
O O4 0.961931 0.631295 0.040213
O O5 0.762746 0.991203 0.854726
O O6 0.855464 0.931507 0.814729
O O7 0.873209 0.036140 0.904611
O O8 0.821164 0.140844 0.820990
O O9 0.291327 0.500000 0.750000
O O10 0.312649 0.647146 0.822606
O O11 0.341330 0.450726 0.853507
O O12 0.750000 0.250000 0.250000
O O13 0.639577 0.247349 0.261753
O O14 0.951963 0.848953 0.808530
O O15 0.875613 0.745765 0.869764
O O16 0.027329 0.523369 0.641384
O O17 0.999163 0.500000 0.750000
O O18 0.942746 0.601460 0.830542
#
# Coordination Sequence:
#
# PCOD9530548 Si02
#       8
#    16  16  16  16  16  16  16  16
#     4  10  20  43  69  90 117 165 218 270 329 380
#     4  11  21  37  58  89 119 157 212 252 306 383
#     4  12  22  37  56  87 130 171 206 256 315 392
#     4  12  21  35  56  87 126 172 207 247 316 386
#     4  11  19  33  59  81 118 161 209 252 307 384
#     4   9  21  40  63  91 119 155 212 265 313 386
#     4  10  20  35  56  89 127 158 196 259 326 385
#     4  11  22  37  58  88 119 167 216 257 320 384
#
# _framework density 18.598575
#
# number of rings (size 3 to 8) (size 9 to 14) (size 15 to 20)
#    0.000    1.250    3.750    4.875    0.000    0.500 
#    6.750    1.875    0.000    0.000    0.000    0.000 
#    0.000    0.000    0.000    0.000    0.000    0.000 
#
# Total GULP energy -356567.192236 kJ/mol
# GULP energy per Si atom -5571.362379 kJ/mol
# Density = 1.855624 g / cm^3
# Si number density = 18.598575 Si / 1000 Ang^3
#
#
#
# Elastic Constant Matrix: (Units=GPa)
#
#
# Indices 1 2 3 4 5 6 
#
# 1 126.6674 31.3040 33.7199 0.0000 0.0000 0.0000
# 2 31.3040 92.3305 14.4864 0.0000 0.0000 0.0000
# 3 33.7199 14.4864 77.4538 0.0000 0.0000 0.0000
# 4 0.0000 0.0000 0.0000 19.4618 0.0000 0.0000
# 5 0.0000 0.0000 0.0000 0.0000 24.3007 0.0000
# 6 0.0000 0.0000 0.0000 0.0000 0.0000 28.0735
#
#
#
# Elastic Compliance Matrix: (Units=1/GPa)
#
#
# Indices 1 2 3 4 5 6 
#
# 1 0.009522 -0.002656 -0.003649 0.000000 0.000000 0.000000
# 2 -0.002656 0.011899 -0.001069 0.000000 0.000000 0.000000
# 3 -0.003649 -0.001069 0.014699 0.000000 0.000000 0.000000
# 4 0.000000 0.000000 0.000000 0.051383 0.000000 0.000000
# 5 0.000000 0.000000 0.000000 0.000000 0.041151 0.000000
# 6 0.000000 0.000000 0.000000 0.000000 0.000000 0.035621
#
#
# Mechanical properties :
#
#
# Convention : Reuss Voigt Hill
#
# Bulk Modulus (GPa) = 46.78876 50.60805 48.69840
# Shear Modulus (GPa) = 26.86039 28.82998 27.84518
#
# Velocity S-wave (km/s) = 3.80441 3.94142 3.87352
# Velocity P-wave (km/s) = 6.67157 6.92697 6.80047
#
# Compressibility (1/GPa) = 0.02137265
#
# Stress axis : x y z
#
# Youngs Moduli (GPa) = 105.01502 84.04136 68.02976
#
# Poissons Ratio (x) = 0.22322 0.24823
# Poissons Ratio (y) = 0.27892 0.07274
# Poissons Ratio (z) = 0.38319 0.08985
#
# Static dielectric constant tensor:
#      x y z
#    x 1.667320 0.000000 0.000000 
#    y 0.000000 1.748310 0.000000 
#    z 0.000000 0.000000 1.634890 
# 
# From -- ./inp_files/30376.got.cif
#   From: 2010.05.17/outbox.cif.g08.bks.cpg/sg73_16_cif.got.tgz:30376.got - 2010.06.03 17:35:07.
