data_PCOD9530801
_publ_section_title
;
Structure prediction by ZEFSAII (Michael W. Deem and Ramdas Pophale) SiO2 
 PCOD9530801
Probable space group: I B C A 
;
_chemical_formula_sum "Si O2"
_cell_formula_units_Z 96
_cell_length_a 16.024616
_cell_length_b 11.162078
_cell_length_c 22.660544
_cell_angle_alpha 90.000000
_cell_angle_beta 90.000000
_cell_angle_gamma 90.000000
_cell_volume 4053.246495
_symmetry_space_group_name_H-M "I B C A "
_symmetry_group_IT_number 73
_symmetry_cell_setting 'orthorhombic'
loop_
_space_group_symop_operation_xyz
x,y,z
-x,1/2-y,z
x,-y,1/2-z
1/2-x,y,-z
-x,-y,-z
x,1/2+y,-z
-x,y,1/2+z
1/2+x,-y,z
1/2+x,1/2+y,1/2+z
1/2-x,-y,1/2+z
1/2+x,1/2-y,-z
-x,1/2+y,1/2-z
1/2-x,1/2-y,1/2-z
1/2+x,y,1/2-z
1/2-x,1/2+y,z
x,1/2-y,1/2+z
loop_
_atom_site_type_symbol
_atom_site_label
_atom_site_fract_x
_atom_site_fract_y
_atom_site_fract_z
Si Si1 0.001556 0.044939 0.141184
Si Si2 0.620420 0.867291 0.226985
Si Si3 0.574350 0.672588 0.527003
Si Si4 0.622584 0.183415 0.145520
Si Si5 0.636957 0.075820 0.586266
Si Si6 0.287689 0.726331 0.110103
O O1 0.027389 0.109603 0.201438
O O2 0.033343 0.116910 0.084929
O O3 0.061240 0.927836 0.139752
O O4 0.904842 0.021276 0.128527
O O5 0.625485 0.787758 0.284935
O O6 0.668471 0.810826 0.171430
O O7 0.650989 0.000000 0.250000
O O8 0.500000 0.750000 0.499801
O O9 0.607631 0.573630 0.481311
O O10 0.651188 0.747810 0.554912
O O11 0.595968 0.300525 0.110541
O O12 0.718217 0.171837 0.122286
O O13 0.733408 0.108213 0.592192
#
# Coordination Sequence:
#
# PCOD9530801 Si02
#       6
#    16  16  16  16  16  16
#     4  10  20  38  60  88 120 164 193 253 315 366
#     4   9  18  37  58  83 123 159 191 258 303 360
#     4  11  22  40  59  88 128 160 204 264 305 367
#     4   9  19  36  65  83 122 160 204 246 309 365
#     4  10  21  37  64  89 121 161 208 247 308 371
#     4   9  21  37  63  84 120 162 209 247 313 361
#
# _framework density 23.684718
#
# number of rings (size 3 to 8) (size 9 to 14) (size 15 to 20)
#    1.000    1.333    0.000    3.000    0.000    0.000 
#    9.000   19.167   11.000    0.000    0.000    0.000 
#    0.000    0.000    0.000    0.000    0.000    0.000 
#
# Total GULP energy -267534.818676 kJ/mol
# GULP energy per Si atom -5573.642056 kJ/mol
# Density = 2.363081 g / cm^3
# Si number density = 23.684718 Si / 1000 Ang^3
#
#
#
# Elastic Constant Matrix: (Units=GPa)
#
#
# Indices 1 2 3 4 5 6 
#
# 1 105.7011 3.6682 30.9345 0.0000 0.0000 0.0000
# 2 3.6682 25.2485 -6.3721 0.0000 0.0000 0.0000
# 3 30.9345 -6.3721 69.0165 0.0000 0.0000 0.0000
# 4 0.0000 0.0000 0.0000 30.1555 0.0000 0.0000
# 5 0.0000 0.0000 0.0000 0.0000 35.5990 0.0000
# 6 0.0000 0.0000 0.0000 0.0000 0.0000 23.2097
#
#
#
# Elastic Compliance Matrix: (Units=1/GPa)
#
#
# Indices 1 2 3 4 5 6 
#
# 1 0.011098 -0.002936 -0.005245 0.000000 0.000000 0.000000
# 2 -0.002936 0.041328 0.005132 0.000000 0.000000 0.000000
# 3 -0.005245 0.005132 0.017314 0.000000 0.000000 0.000000
# 4 0.000000 0.000000 0.000000 0.033161 0.000000 0.000000
# 5 0.000000 0.000000 0.000000 0.000000 0.028091 0.000000
# 6 0.000000 0.000000 0.000000 0.000000 0.000000 0.043086
#
#
# Mechanical properties :
#
#
# Convention : Reuss Voigt Hill
#
# Bulk Modulus (GPa) = 15.71326 28.49191 22.10259
# Shear Modulus (GPa) = 24.82745 29.24187 27.03466
#
# Velocity S-wave (km/s) = 3.24118 3.51754 3.38218
# Velocity P-wave (km/s) = 4.54486 5.34352 4.96029
#
# Compressibility (1/GPa) = 0.06364052
#
# Stress axis : x y z
#
# Youngs Moduli (GPa) = 90.10952 24.19667 57.75641
#
# Poissons Ratio (x) = 0.07104 0.30295
# Poissons Ratio (y) = 0.26457 -0.29639
# Poissons Ratio (z) = 0.47265 -0.12417
#
# Static dielectric constant tensor:
#      x y z
#    x 2.014390 0.000000 0.000000 
#    y 0.000000 2.104180 0.000000 
#    z 0.000000 0.000000 1.879840 
# 
# From -- ./inp_files/25971.got.cif
#   From: 2010.05.17/outbox.cif.g08.bks.cpg/sg73_13_cif.got.tgz:25971.got - 2010.06.03 17:35:07.
