data_PCOD9530340
_publ_section_title
;
Structure prediction by ZEFSAII (Michael W. Deem and Ramdas Pophale) SiO2 
 PCOD9530340
Probable space group: I B C A 
;
_chemical_formula_sum "Si O2"
_cell_formula_units_Z 88
_cell_length_a 23.738296
_cell_length_b 12.593698
_cell_length_c 11.942368
_cell_angle_alpha 90.000000
_cell_angle_beta 90.000000
_cell_angle_gamma 90.000000
_cell_volume 3570.205915
_symmetry_space_group_name_H-M "I B C A "
_symmetry_group_IT_number 73
_symmetry_cell_setting 'orthorhombic'
loop_
_space_group_symop_operation_xyz
x,y,z
-x,1/2-y,z
x,-y,1/2-z
1/2-x,y,-z
-x,-y,-z
x,1/2+y,-z
-x,y,1/2+z
1/2+x,-y,z
1/2+x,1/2+y,1/2+z
1/2-x,-y,1/2+z
1/2+x,1/2-y,-z
-x,1/2+y,1/2-z
1/2-x,1/2-y,1/2-z
1/2+x,y,1/2-z
1/2-x,1/2+y,z
x,1/2-y,1/2+z
loop_
_atom_site_type_symbol
_atom_site_label
_atom_site_fract_x
_atom_site_fract_y
_atom_site_fract_z
Si Si1 0.762490 0.468448 0.365903
Si Si2 0.917683 0.912433 0.491953
Si Si3 0.320867 0.764316 0.901523
Si Si4 0.902271 0.196202 0.229633
Si Si5 0.363317 0.887080 0.584516
Si Si6 0.500000 0.250000 0.100667
O O1 0.730087 0.500000 0.250000
O O2 0.750000 0.487910 0.500000
O O3 0.770104 0.340521 0.368405
O O4 0.818501 0.540821 0.352051
O O5 0.868109 0.849462 0.557557
O O6 0.909042 0.895577 0.360428
O O7 0.972545 0.846025 0.529513
O O8 0.907058 0.033811 0.524129
O O9 0.344401 0.699797 0.796995
O O10 0.323848 0.682446 0.002677
O O11 0.899074 0.306076 0.159113
O O12 0.952066 0.202378 0.318806
#
# Coordination Sequence:
#
# PCOD9530340 Si02
#       6
#    16  16  16  16  16   8
#     4  11  23  45  71 107 142 181 238 302 371 439
#     4   9  20  36  58  92 130 168 236 288 345 428
#     4   9  20  39  65  90 128 183 231 277 353 437
#     4  10  19  39  63  87 131 182 232 289 363 428
#     4  10  21  42  67  91 130 195 234 285 370 440
#     4  10  20  34  58  94 128 174 230 298 352 426
#
# _framework density 24.648437999999999
#
# number of rings (size 3 to 8) (size 9 to 14) (size 15 to 20)
#    0.000    2.182    1.818    0.545    0.000    1.455 
#    9.818   21.818    0.000    0.000    0.000    0.000 
#    0.000    0.000    0.000    0.000    0.000    0.000 
#
# Total GULP energy -245589.252597 kJ/mol
# GULP energy per Si atom -5581.573923 kJ/mol
# Density = 2.459234 g / cm^3
# Si number density = 24.648438 Si / 1000 Ang^3
#
#
#
# Elastic Constant Matrix: (Units=GPa)
#
#
# Indices 1 2 3 4 5 6 
#
# 1 38.7269 34.1841 24.0681 0.0000 0.0000 0.0000
# 2 34.1841 100.5152 45.0769 0.0000 0.0000 0.0000
# 3 24.0681 45.0769 165.7072 0.0000 0.0000 0.0000
# 4 0.0000 0.0000 0.0000 18.9775 0.0000 0.0000
# 5 0.0000 0.0000 0.0000 0.0000 77.1677 0.0000
# 6 0.0000 0.0000 0.0000 0.0000 0.0000 35.7889
#
#
#
# Elastic Compliance Matrix: (Units=1/GPa)
#
#
# Indices 1 2 3 4 5 6 
#
# 1 0.037627 -0.011783 -0.002260 0.000000 0.000000 0.000000
# 2 -0.011783 0.015021 -0.002375 0.000000 0.000000 0.000000
# 3 -0.002260 -0.002375 0.007009 0.000000 0.000000 0.000000
# 4 0.000000 0.000000 0.000000 0.052694 0.000000 0.000000
# 5 0.000000 0.000000 0.000000 0.000000 0.012959 0.000000
# 6 0.000000 0.000000 0.000000 0.000000 0.000000 0.027942
#
#
# Mechanical properties :
#
#
# Convention : Reuss Voigt Hill
#
# Bulk Modulus (GPa) = 37.28305 56.84529 47.06417
# Shear Modulus (GPa) = 25.63742 39.82817 32.73279
#
# Velocity S-wave (km/s) = 3.22859 4.02412 3.64811
# Velocity P-wave (km/s) = 5.39047 6.68610 6.07294
#
# Compressibility (1/GPa) = 0.02682184
#
# Stress axis : x y z
#
# Youngs Moduli (GPa) = 26.57653 66.57341 142.67480
#
# Poissons Ratio (x) = 0.78444 0.32242
# Poissons Ratio (y) = 0.31316 0.33881
# Poissons Ratio (z) = 0.06006 0.15809
#
# Static dielectric constant tensor:
#      x y z
#    x 2.013130 0.000000 0.000000 
#    y 0.000000 1.936380 0.000000 
#    z 0.000000 0.000000 2.078280 
# 
# From -- ./inp_files/14670.got.cif
#   From: 2010.05.17/outbox.cif.g08.bks.cpg/sg73_8_cif.got.tgz:14670.got - 2010.06.03 17:35:07.
