data_PCOD9530965
_publ_section_title
;
Structure prediction by ZEFSAII (Michael W. Deem and Ramdas Pophale) SiO2 
 PCOD9530965
Probable space group: I B C A 
;
_chemical_formula_sum "Si O2"
_cell_formula_units_Z 72
_cell_length_a 21.635753
_cell_length_b 12.517168
_cell_length_c 11.806088
_cell_angle_alpha 90.000000
_cell_angle_beta 90.000000
_cell_angle_gamma 90.000000
_cell_volume 3197.305332
_symmetry_space_group_name_H-M "I B C A "
_symmetry_group_IT_number 73
_symmetry_cell_setting 'orthorhombic'
loop_
_space_group_symop_operation_xyz
x,y,z
-x,1/2-y,z
x,-y,1/2-z
1/2-x,y,-z
-x,-y,-z
x,1/2+y,-z
-x,y,1/2+z
1/2+x,-y,z
1/2+x,1/2+y,1/2+z
1/2-x,-y,1/2+z
1/2+x,1/2-y,-z
-x,1/2+y,1/2-z
1/2-x,1/2-y,1/2-z
1/2+x,y,1/2-z
1/2-x,1/2+y,z
x,1/2-y,1/2+z
loop_
_atom_site_type_symbol
_atom_site_label
_atom_site_fract_x
_atom_site_fract_y
_atom_site_fract_z
Si Si1 0.455199 0.125455 0.237753
Si Si2 0.792704 0.671931 0.325617
Si Si3 0.093947 0.828468 0.162073
Si Si4 0.707231 0.500000 0.250000
Si Si5 0.133565 0.844177 0.920641
O O1 0.526357 0.136946 0.203303
O O2 0.414700 0.198422 0.151319
O O3 0.431553 0.176449 0.356142
O O4 0.444226 0.000000 0.250000
O O5 0.750000 0.750000 0.250000
O O6 0.853496 0.646751 0.252323
O O7 0.750918 0.568191 0.334231
O O8 0.820827 0.741775 0.427432
O O9 0.115623 0.879740 0.045025
O O10 0.668066 0.424605 0.334350
#
# Coordination Sequence:
#
# PCOD9530965 Si02
#       5
#    16  16  16   8  16
#     4  10  22  43  67  96 136 172 217 284 341 397
#     4   9  21  40  63  89 138 171 218 283 328 382
#     4  10  23  40  68  99 128 179 220 276 346 404
#     4  10  20  40  64  92 136 180 214 282 328 386
#     4  10  21  44  66  96 136 172 225 277 337 402
#
# _framework density 22.518962999999999
#
# number of rings (size 3 to 8) (size 9 to 14) (size 15 to 20)
#    0.000    2.222    1.111    0.000    1.556   11.556 
#    4.000    6.667    0.000    0.000    0.000    0.000 
#    0.000    0.000    0.000    0.000    0.000    0.000 
#
# Total GULP energy -200579.449281 kJ/mol
# GULP energy per Si atom -5571.651369 kJ/mol
# Density = 2.246771 g / cm^3
# Si number density = 22.518963 Si / 1000 Ang^3
#
#
#
# Elastic Constant Matrix: (Units=GPa)
#
#
# Indices 1 2 3 4 5 6 
#
# 1 132.0295 36.0511 28.2857 0.0000 0.0000 0.0000
# 2 36.0511 96.2640 7.1051 0.0000 0.0000 0.0000
# 3 28.2857 7.1051 34.3046 0.0000 0.0000 0.0000
# 4 0.0000 0.0000 0.0000 14.8700 0.0000 0.0000
# 5 0.0000 0.0000 0.0000 0.0000 15.6265 0.0000
# 6 0.0000 0.0000 0.0000 0.0000 0.0000 14.1785
#
#
#
# Elastic Compliance Matrix: (Units=1/GPa)
#
#
# Indices 1 2 3 4 5 6 
#
# 1 0.010092 -0.003214 -0.007655 0.000000 0.000000 0.000000
# 2 -0.003214 0.011573 0.000253 0.000000 0.000000 0.000000
# 3 -0.007655 0.000253 0.035410 0.000000 0.000000 0.000000
# 4 0.000000 0.000000 0.000000 0.067249 0.000000 0.000000
# 5 0.000000 0.000000 0.000000 0.000000 0.063994 0.000000
# 6 0.000000 0.000000 0.000000 0.000000 0.000000 0.070529
#
#
# Mechanical properties :
#
#
# Convention : Reuss Voigt Hill
#
# Bulk Modulus (GPa) = 27.89979 45.05355 36.47667
# Shear Modulus (GPa) = 17.12163 21.67876 19.40019
#
# Velocity S-wave (km/s) = 2.76038 3.10609 2.93832
# Velocity P-wave (km/s) = 4.75142 5.73708 5.26736
#
# Compressibility (1/GPa) = 0.03584256
#
# Stress axis : x y z
#
# Youngs Moduli (GPa) = 99.08993 86.40660 28.24033
#
# Poissons Ratio (x) = 0.27774 0.21619
# Poissons Ratio (y) = 0.31851 -0.00716
# Poissons Ratio (z) = 0.75857 -0.02189
#
# Static dielectric constant tensor:
#      x y z
#    x 1.848070 0.000000 0.000000 
#    y 0.000000 1.938850 0.000000 
#    z 0.000000 0.000000 1.806600 
# 
# From -- ./inp_files/12580.got.cif
#   From: 2010.05.17/outbox.cif.g08.bks.cpg/sg73_7_cif.got.tgz:12580.got - 2010.06.03 17:35:07.
