data_PCOD9530374
_publ_section_title
;
Structure prediction by ZEFSAII (Michael W. Deem and Ramdas Pophale) SiO2 
 PCOD9530374
Probable space group: I B C A 
;
_chemical_formula_sum "Si O2"
_cell_formula_units_Z 104
_cell_length_a 20.084973
_cell_length_b 9.973763
_cell_length_c 22.712076
_cell_angle_alpha 90.000000
_cell_angle_beta 90.000000
_cell_angle_gamma 90.000000
_cell_volume 4549.745762
_symmetry_space_group_name_H-M "I B C A "
_symmetry_group_IT_number 73
_symmetry_cell_setting 'orthorhombic'
loop_
_space_group_symop_operation_xyz
x,y,z
-x,1/2-y,z
x,-y,1/2-z
1/2-x,y,-z
-x,-y,-z
x,1/2+y,-z
-x,y,1/2+z
1/2+x,-y,z
1/2+x,1/2+y,1/2+z
1/2-x,-y,1/2+z
1/2+x,1/2-y,-z
-x,1/2+y,1/2-z
1/2-x,1/2-y,1/2-z
1/2+x,y,1/2-z
1/2-x,1/2+y,z
x,1/2-y,1/2+z
loop_
_atom_site_type_symbol
_atom_site_label
_atom_site_fract_x
_atom_site_fract_y
_atom_site_fract_z
Si Si1 0.500000 0.750000 0.381852
Si Si2 0.143155 0.297207 0.929560
Si Si3 0.087482 0.500000 0.250000
Si Si4 0.187230 0.939846 0.645393
Si Si5 0.646259 0.682473 0.060645
Si Si6 0.025327 0.461186 0.672361
Si Si7 0.663525 0.437459 0.857234
Si Si8 0.000000 0.250000 0.573534
O O1 0.567324 0.743389 0.420391
O O2 0.491305 0.615687 0.342933
O O3 0.184572 0.203056 0.886153
O O4 0.146365 0.446777 0.904366
O O5 0.173048 0.297214 0.994936
O O6 0.135591 0.443712 0.300558
O O7 0.033317 0.590621 0.285018
O O8 0.262586 0.965230 0.666025
O O9 0.165341 0.046875 0.594991
O O10 0.663248 0.798868 0.106831
O O11 0.567362 0.694887 0.045743
O O12 0.102464 0.441397 0.688873
O O13 0.020519 0.375060 0.613634
#
# Coordination Sequence:
#
# PCOD9530374 Si02
#       8
#     8  16   8  16  16  16  16   8
#     4  10  19  41  62 102 128 167 225 270 326 382
#     4  11  22  40  69  99 136 175 218 271 328 395
#     4  12  24  46  72  90 130 178 230 268 324 390
#     4  12  25  45  66  99 135 179 214 270 333 393
#     4  11  22  40  69  99 136 175 218 271 328 395
#     4  10  22  41  68  91 126 172 217 275 315 389
#     4  10  25  42  62  99 138 162 227 266 332 392
#     4  10  19  41  62 102 128 167 225 270 326 382
#
# _framework density 22.858419999999999
#
# number of rings (size 3 to 8) (size 9 to 14) (size 15 to 20)
#    0.000    1.231    3.077    2.308    0.000    4.923 
#    0.000    9.231    0.000    0.000    0.000    0.000 
#    0.000    0.000    0.000    0.000    0.000    0.000 
#
# Total GULP energy -290213.724157 kJ/mol
# GULP energy per Si atom -5581.033157 kJ/mol
# Density = 2.280639 g / cm^3
# Si number density = 22.858420 Si / 1000 Ang^3
#
#
#
# Elastic Constant Matrix: (Units=GPa)
#
#
# Indices 1 2 3 4 5 6 
#
# 1 205.4590 -12.5705 31.0636 0.0000 0.0000 0.0000
# 2 -12.5705 86.9755 1.3492 0.0000 0.0000 0.0000
# 3 31.0636 1.3492 96.7567 0.0000 0.0000 0.0000
# 4 0.0000 0.0000 0.0000 4.8379 0.0000 0.0000
# 5 0.0000 0.0000 0.0000 0.0000 -16.8074 0.0000
# 6 0.0000 0.0000 0.0000 0.0000 0.0000 23.3183
#
#
#
# Elastic Compliance Matrix: (Units=1/GPa)
#
#
# Indices 1 2 3 4 5 6 
#
# 1 0.005167 0.000773 -0.001670 0.000000 0.000000 0.000000
# 2 0.000773 0.011616 -0.000410 0.000000 0.000000 0.000000
# 3 -0.001670 -0.000410 0.010877 0.000000 0.000000 0.000000
# 4 0.000000 0.000000 0.000000 0.206701 0.000000 0.000000
# 5 0.000000 0.000000 0.000000 0.000000 -0.059497 0.000000
# 6 0.000000 0.000000 0.000000 0.000000 0.000000 0.042885
#
#
# Mechanical properties :
#
#
# Convention : Reuss Voigt Hill
#
# Bulk Modulus (GPa) = 39.92751 47.65288 43.79020
# Shear Modulus (GPa) = 21.86171 26.89302 24.37737
#
# Velocity S-wave (km/s) = 3.09592 3.43374 3.26920
# Velocity P-wave (km/s) = 5.50317 6.05087 5.78351
#
# Compressibility (1/GPa) = 0.02504539
#
# Stress axis : x y z
#
# Youngs Moduli (GPa) = 193.54154 86.09171 91.93767
#
# Poissons Ratio (x) = -0.06652 0.15350
# Poissons Ratio (y) = -0.14954 0.03770
# Poissons Ratio (z) = 0.32313 0.03530
#
# Static dielectric constant tensor:
#      x y z
#    x 2.009640 0.000000 0.000000 
#    y 0.000000 1.794100 0.000000 
#    z 0.000000 0.000000 1.886790 
# 
# From -- ./inp_files/32713.got.cif
#   From: 2010.05.17/outbox.cif.g08.bks.cpg/sg73_17_cif.got.tgz:32713.got - 2010.06.03 17:35:07.
