data_PCOD9530881
_publ_section_title
;
Structure prediction by ZEFSAII (Michael W. Deem and Ramdas Pophale) SiO2 
 PCOD9530881
Probable space group: I B C A 
;
_chemical_formula_sum "Si O2"
_cell_formula_units_Z 120
_cell_length_a 8.866591
_cell_length_b 23.164802
_cell_length_c 25.485196
_cell_angle_alpha 90.000000
_cell_angle_beta 90.000000
_cell_angle_gamma 90.000000
_cell_volume 5234.476400
_symmetry_space_group_name_H-M "I B C A "
_symmetry_group_IT_number 73
_symmetry_cell_setting 'orthorhombic'
loop_
_space_group_symop_operation_xyz
x,y,z
-x,1/2-y,z
x,-y,1/2-z
1/2-x,y,-z
-x,-y,-z
x,1/2+y,-z
-x,y,1/2+z
1/2+x,-y,z
1/2+x,1/2+y,1/2+z
1/2-x,-y,1/2+z
1/2+x,1/2-y,-z
-x,1/2+y,1/2-z
1/2-x,1/2-y,1/2-z
1/2+x,y,1/2-z
1/2-x,1/2+y,z
x,1/2-y,1/2+z
loop_
_atom_site_type_symbol
_atom_site_label
_atom_site_fract_x
_atom_site_fract_y
_atom_site_fract_z
Si Si1 0.796595 0.781779 0.627254
Si Si2 0.585218 0.104356 0.708664
Si Si3 0.500000 0.750000 0.669827
Si Si4 0.735810 0.516000 0.800964
Si Si5 0.514801 0.472951 0.374784
Si Si6 0.573263 0.341081 0.095772
Si Si7 0.734861 0.555684 0.441482
Si Si8 0.336398 0.174387 0.742238
O O1 0.617672 0.784289 0.633468
O O2 0.845026 0.720207 0.603849
O O3 0.847798 0.789361 0.688575
O O4 0.894295 0.827978 0.594793
O O5 0.667032 0.043813 0.710751
O O6 0.601229 0.124874 0.649527
O O7 0.415420 0.113808 0.727230
O O8 0.671133 0.153733 0.742242
O O9 0.406339 0.792120 0.708540
O O10 0.635095 0.500000 0.750000
O O11 0.607360 0.513015 0.845261
O O12 0.871507 0.553345 0.829660
O O13 0.625868 0.511717 0.409960
O O14 0.396504 0.437093 0.411152
O O15 0.647869 0.383076 0.054154
O O16 0.750000 0.532079 0.500000
#
# Coordination Sequence:
#
# PCOD9530881 Si02
#       8
#    16  16   8  16  16  16  16  16
#     4  10  21  34  57  84 131 168 208 266 317 389
#     4  11  21  34  52  77 124 166 220 255 310 380
#     4  12  18  32  48  82 120 164 214 262 292 354
#     4  11  24  37  57  88 135 182 211 254 329 416
#     4  10  22  42  61  91 129 162 218 281 337 410
#     4  10  20  39  57  85 121 161 207 266 341 397
#     4  11  23  44  73  96 119 164 230 301 367 412
#     4  11  21  32  50  84 119 176 221 254 293 370
#
# _framework density 22.924928999999999
#
# number of rings (size 3 to 8) (size 9 to 14) (size 15 to 20)
#    0.000    1.333    5.333    2.800    3.733    0.000 
#    0.000    1.333    0.000    1.600    0.000    0.933 
#    0.000    0.000    0.000    0.000    0.000    0.000 
#
# Total GULP energy -334073.205782 kJ/mol
# GULP energy per Si atom -5567.886763 kJ/mol
# Density = 2.287275 g / cm^3
# Si number density = 22.924929 Si / 1000 Ang^3
#
#
#
# Elastic Constant Matrix: (Units=GPa)
#
#
# Indices 1 2 3 4 5 6 
#
# 1 106.1054 -19.1824 27.6704 0.0000 0.0000 0.0000
# 2 -19.1824 43.6089 0.1233 0.0000 0.0000 0.0000
# 3 27.6704 0.1233 54.4622 0.0000 0.0000 0.0000
# 4 0.0000 0.0000 0.0000 25.7384 0.0000 0.0000
# 5 0.0000 0.0000 0.0000 0.0000 24.3933 0.0000
# 6 0.0000 0.0000 0.0000 0.0000 0.0000 26.6308
#
#
#
# Elastic Compliance Matrix: (Units=1/GPa)
#
#
# Indices 1 2 3 4 5 6 
#
# 1 0.011968 0.005282 -0.006093 0.000000 0.000000 0.000000
# 2 0.005282 0.025262 -0.002741 0.000000 0.000000 0.000000
# 3 -0.006093 -0.002741 0.021463 0.000000 0.000000 0.000000
# 4 0.000000 0.000000 0.000000 0.038852 0.000000 0.000000
# 5 0.000000 0.000000 0.000000 0.000000 0.040995 0.000000
# 6 0.000000 0.000000 0.000000 0.000000 0.000000 0.037550
#
#
# Mechanical properties :
#
#
# Convention : Reuss Voigt Hill
#
# Bulk Modulus (GPa) = 19.38345 24.59990 21.99167
# Shear Modulus (GPa) = 24.95120 28.39020 26.67070
#
# Velocity S-wave (km/s) = 3.30265 3.52291 3.41456
# Velocity P-wave (km/s) = 4.79759 5.22511 5.01591
#
# Compressibility (1/GPa) = 0.05159040
#
# Stress axis : x y z
#
# Youngs Moduli (GPa) = 83.55392 39.58484 46.59175
#
# Poissons Ratio (x) = -0.20908 0.28387
# Poissons Ratio (y) = -0.44131 0.12769
# Poissons Ratio (z) = 0.50907 0.10849
#
# Static dielectric constant tensor:
#      x y z
#    x 2.111250 0.000000 0.000000 
#    y 0.000000 1.959610 0.000000 
#    z 0.000000 0.000000 2.098400 
# 
# From -- ./inp_files/33664.got.cif
#   From: 2010.05.17/outbox.cif.g08.bks.cpg/sg73_17_cif.got.tgz:33664.got - 2010.06.03 17:35:07.
