data_PCOD9530452
_publ_section_title
;
Structure prediction by ZEFSAII (Michael W. Deem and Ramdas Pophale) SiO2 
 PCOD9530452
Probable space group: I B C A 
;
_chemical_formula_sum "Si O2"
_cell_formula_units_Z 96
_cell_length_a 21.508331
_cell_length_b 23.705198
_cell_length_c 10.828208
_cell_angle_alpha 90.000000
_cell_angle_beta 90.000000
_cell_angle_gamma 90.000000
_cell_volume 5520.861956
_symmetry_space_group_name_H-M "I B C A "
_symmetry_group_IT_number 73
_symmetry_cell_setting 'orthorhombic'
loop_
_space_group_symop_operation_xyz
x,y,z
-x,1/2-y,z
x,-y,1/2-z
1/2-x,y,-z
-x,-y,-z
x,1/2+y,-z
-x,y,1/2+z
1/2+x,-y,z
1/2+x,1/2+y,1/2+z
1/2-x,-y,1/2+z
1/2+x,1/2-y,-z
-x,1/2+y,1/2-z
1/2-x,1/2-y,1/2-z
1/2+x,y,1/2-z
1/2-x,1/2+y,z
x,1/2-y,1/2+z
loop_
_atom_site_type_symbol
_atom_site_label
_atom_site_fract_x
_atom_site_fract_y
_atom_site_fract_z
Si Si1 0.789028 0.185222 0.126265
Si Si2 0.791825 0.185338 0.622139
Si Si3 0.918753 0.470863 0.404302
Si Si4 0.267858 0.500000 0.750000
Si Si5 0.129083 0.921438 0.855915
Si Si6 0.465572 0.000000 0.250000
Si Si7 0.153574 0.430026 0.659874
O O1 0.745678 0.181250 0.248134
O O2 0.812704 0.249573 0.114438
O O3 0.843759 0.140822 0.148174
O O4 0.750000 0.172190 0.000000
O O5 0.750000 0.175650 0.500000
O O6 0.841470 0.135006 0.626407
O O7 0.907095 0.430354 0.516895
O O8 0.882428 0.529154 0.433558
O O9 0.883793 0.441914 0.287233
O O10 0.987450 0.487527 0.362227
O O11 0.311369 0.537134 0.660891
O O12 0.222229 0.456492 0.679667
O O13 0.078976 0.945852 0.760246
#
# Coordination Sequence:
#
# PCOD9530452 Si02
#       7
#    16  16  16   8  16   8  16
#     4  10  21  34  50  77 108 145 177 209 260 326
#     4  10  20  33  49  74 115 143 170 211 261 327
#     4   9  20  33  52  74 102 142 173 226 271 306
#     4   9  19  26  44  84 103 129 174 206 266 325
#     4  11  19  31  55  72 104 141 174 223 259 329
#     4   9  21  36  46  78 103 131 186 222 276 303
#     4   9  18  31  47  76 110 136 166 214 263 326
#
# _framework density 17.388589
#
# number of rings (size 3 to 8) (size 9 to 14) (size 15 to 20)
#    0.000    2.667    1.667    1.500    4.667    0.000 
#    0.000    0.000    0.000    4.000    0.000    4.667 
#    0.000    0.000    0.000    0.000    0.000    0.000 
#
# Total GULP energy -267290.233588 kJ/mol
# GULP energy per Si atom -5568.546533 kJ/mol
# Density = 1.734901 g / cm^3
# Si number density = 17.388589 Si / 1000 Ang^3
#
#
#
# Elastic Constant Matrix: (Units=GPa)
#
#
# Indices 1 2 3 4 5 6 
#
# 1 93.7412 50.1116 18.6104 0.0000 0.0000 0.0000
# 2 50.1116 134.9885 20.5877 0.0000 0.0000 0.0000
# 3 18.6104 20.5877 68.1717 0.0000 0.0000 0.0000
# 4 0.0000 0.0000 0.0000 17.4800 0.0000 0.0000
# 5 0.0000 0.0000 0.0000 0.0000 -0.0896 0.0000
# 6 0.0000 0.0000 0.0000 0.0000 0.0000 16.5921
#
#
#
# Elastic Compliance Matrix: (Units=1/GPa)
#
#
# Indices 1 2 3 4 5 6 
#
# 1 0.013645 -0.004714 -0.002301 0.000000 0.000000 0.000000
# 2 -0.004714 0.009395 -0.001550 0.000000 0.000000 0.000000
# 3 -0.002301 -0.001550 0.015765 0.000000 0.000000 0.000000
# 4 0.000000 0.000000 0.000000 0.057208 0.000000 0.000000
# 5 0.000000 0.000000 0.000000 0.000000-11.165128 0.000000
# 6 0.000000 0.000000 0.000000 0.000000 0.000000 0.060270
#
#
# Mechanical properties :
#
#
# Convention : Reuss Voigt Hill
#
# Bulk Modulus (GPa) = 46.14018 52.83563 49.48791
# Shear Modulus (GPa) = -0.45519 20.63595 10.09038
#
# Velocity S-wave (km/s) = -0.51219 3.44866 2.41153
# Velocity P-wave (km/s) = 5.12275 6.80507 6.02293
#
# Compressibility (1/GPa) = 0.02167308
#
# Stress axis : x y z
#
# Youngs Moduli (GPa) = 73.28862 106.44462 63.43088
#
# Poissons Ratio (x) = 0.50182 0.14597
# Poissons Ratio (y) = 0.34551 0.09833
# Poissons Ratio (z) = 0.16865 0.16501
#
# Static dielectric constant tensor:
#      x y z
#    x 1.586570 0.000000 0.000000 
#    y 0.000000 1.595020 0.000000 
#    z 0.000000 0.000000 1.664330 
# 
# From -- ./inp_files/13001.got.cif
#   From: 2010.05.17/outbox.cif.g08.bks.cpg/sg73_7_cif.got.tgz:13001.got - 2010.06.03 17:35:07.
