data_PCOD9530898
_publ_section_title
;
Structure prediction by ZEFSAII (Michael W. Deem and Ramdas Pophale) SiO2 
 PCOD9530898
Probable space group: I B C A 
;
_chemical_formula_sum "Si O2"
_cell_formula_units_Z 120
_cell_length_a 13.084084
_cell_length_b 16.432191
_cell_length_c 25.488788
_cell_angle_alpha 90.000000
_cell_angle_beta 90.000000
_cell_angle_gamma 90.000000
_cell_volume 5480.093685
_symmetry_space_group_name_H-M "I B C A "
_symmetry_group_IT_number 73
_symmetry_cell_setting 'orthorhombic'
loop_
_space_group_symop_operation_xyz
x,y,z
-x,1/2-y,z
x,-y,1/2-z
1/2-x,y,-z
-x,-y,-z
x,1/2+y,-z
-x,y,1/2+z
1/2+x,-y,z
1/2+x,1/2+y,1/2+z
1/2-x,-y,1/2+z
1/2+x,1/2-y,-z
-x,1/2+y,1/2-z
1/2-x,1/2-y,1/2-z
1/2+x,y,1/2-z
1/2-x,1/2+y,z
x,1/2-y,1/2+z
loop_
_atom_site_type_symbol
_atom_site_label
_atom_site_fract_x
_atom_site_fract_y
_atom_site_fract_z
Si Si1 0.447052 0.161271 0.279471
Si Si2 0.755278 0.471413 0.437638
Si Si3 0.724899 0.157857 0.573154
Si Si4 0.052935 0.394252 0.107211
Si Si5 0.582540 0.500000 0.750000
Si Si6 0.080800 0.455702 0.859886
Si Si7 0.084181 0.821340 0.667786
Si Si8 0.580925 0.307203 0.981138
O O1 0.500000 0.250000 0.279774
O O2 0.412296 0.149729 0.339235
O O3 0.376492 0.166084 0.227459
O O4 0.516552 0.080737 0.266286
O O5 0.750000 0.462518 0.500000
O O6 0.767618 0.566494 0.422368
O O7 0.649362 0.439230 0.416276
O O8 0.846317 0.426585 0.406614
O O9 0.674213 0.188716 0.626238
O O10 0.817031 0.215376 0.552495
O O11 0.637356 0.146916 0.528599
O O12 0.969514 0.460329 0.123232
O O13 0.996060 0.343816 0.061996
O O14 0.637019 0.528532 0.803825
O O15 0.984277 0.398135 0.849284
O O16 0.000000 0.750000 0.667202
O O17 0.500000 0.250000 0.010403
#
# Coordination Sequence:
#
# PCOD9530898 Si02
#       8
#    16  16  16  16   8  16  16  16
#     4   9  19  39  65  99 133 173 227 278 344 409
#     4  12  24  40  63  95 128 171 231 275 333 417
#     4  11  22  42  64  96 126 174 223 263 350 403
#     4  11  22  40  66  91 126 177 217 276 339 396
#     4   8  18  36  62  94 128 178 230 266 344 410
#     4  10  20  39  62  93 129 171 219 274 328 398
#     4  10  21  39  67  94 133 172 213 280 333 403
#     4  11  24  42  65  91 132 173 217 274 334 410
#
# _framework density 21.897435000000002
#
# number of rings (size 3 to 8) (size 9 to 14) (size 15 to 20)
#    0.000    1.600    4.000    0.800    1.867    2.133 
#    4.800    0.000    0.000    4.800    0.000    0.000 
#    0.000    0.000    0.000    0.000    0.000    0.000 
#
# Total GULP energy -334173.023114 kJ/mol
# GULP energy per Si atom -5569.550385 kJ/mol
# Density = 2.184760 g / cm^3
# Si number density = 21.897435 Si / 1000 Ang^3
#
#
#
# Elastic Constant Matrix: (Units=GPa)
#
#
# Indices 1 2 3 4 5 6 
#
# 1 76.8421 4.9288 43.9908 0.0000 0.0000 0.0000
# 2 4.9288 51.1544 6.2051 0.0000 0.0000 0.0000
# 3 43.9908 6.2051 127.4407 0.0000 0.0000 0.0000
# 4 0.0000 0.0000 0.0000 18.9629 0.0000 0.0000
# 5 0.0000 0.0000 0.0000 0.0000 -6.2260 0.0000
# 6 0.0000 0.0000 0.0000 0.0000 0.0000 -16.1068
#
#
#
# Elastic Compliance Matrix: (Units=1/GPa)
#
#
# Indices 1 2 3 4 5 6 
#
# 1 0.016259 -0.000891 -0.005569 0.000000 0.000000 0.000000
# 2 -0.000891 0.019714 -0.000652 0.000000 0.000000 0.000000
# 3 -0.005569 -0.000652 0.009801 0.000000 0.000000 0.000000
# 4 0.000000 0.000000 0.000000 0.052734 0.000000 0.000000
# 5 0.000000 0.000000 0.000000 0.000000 -0.160616 0.000000
# 6 0.000000 0.000000 0.000000 0.000000 0.000000 -0.062086
#
#
# Mechanical properties :
#
#
# Convention : Reuss Voigt Hill
#
# Bulk Modulus (GPa) = 31.69685 40.63184 36.16434
# Shear Modulus (GPa) = -50.27533 12.68018 -18.79757
#
# Velocity S-wave (km/s) = -4.79680 2.40900 -2.93309
# Velocity P-wave (km/s) = 4.02151 5.13162 2.25400
#
# Compressibility (1/GPa) = 0.03154888
#
# Stress axis : x y z
#
# Youngs Moduli (GPa) = 61.50437 50.72627 102.03153
#
# Poissons Ratio (x) = 0.04520 0.56821
# Poissons Ratio (y) = 0.05480 0.06655
# Poissons Ratio (z) = 0.34252 0.03309
#
# Static dielectric constant tensor:
#      x y z
#    x 1.747790 0.000000 0.000000 
#    y 0.000000 1.806440 0.000000 
#    z 0.000000 0.000000 1.881150 
# 
# From -- ./inp_files/31843.got.cif
#   From: 2010.05.17/outbox.cif.g08.bks.cpg/sg73_16_cif.got.tgz:31843.got - 2010.06.03 17:35:07.
