data_PCOD9530569
_publ_section_title
;
Structure prediction by ZEFSAII (Michael W. Deem and Ramdas Pophale) SiO2 
 PCOD9530569
Probable space group: I B C A 
;
_chemical_formula_sum "Si O2"
_cell_formula_units_Z 96
_cell_length_a 8.717282
_cell_length_b 23.018103
_cell_length_c 23.661647
_cell_angle_alpha 90.000000
_cell_angle_beta 90.000000
_cell_angle_gamma 90.000000
_cell_volume 4747.834758
_symmetry_space_group_name_H-M "I B C A "
_symmetry_group_IT_number 73
_symmetry_cell_setting 'orthorhombic'
loop_
_space_group_symop_operation_xyz
x,y,z
-x,1/2-y,z
x,-y,1/2-z
1/2-x,y,-z
-x,-y,-z
x,1/2+y,-z
-x,y,1/2+z
1/2+x,-y,z
1/2+x,1/2+y,1/2+z
1/2-x,-y,1/2+z
1/2+x,1/2-y,-z
-x,1/2+y,1/2-z
1/2-x,1/2-y,1/2-z
1/2+x,y,1/2-z
1/2-x,1/2+y,z
x,1/2-y,1/2+z
loop_
_atom_site_type_symbol
_atom_site_label
_atom_site_fract_x
_atom_site_fract_y
_atom_site_fract_z
Si Si1 0.045860 0.895053 0.243879
Si Si2 0.662712 0.538433 0.558367
Si Si3 0.780962 0.407304 0.829195
Si Si4 0.678814 0.231139 0.689453
Si Si5 0.685291 0.580805 0.059082
Si Si6 0.686001 0.340101 0.331362
O O1 0.144479 0.929727 0.289166
O O2 0.164905 0.862647 0.203032
O O3 0.933352 0.928860 0.202257
O O4 0.949435 0.851951 0.285776
O O5 0.750000 0.550075 0.500000
O O6 0.742677 0.574687 0.608104
O O7 0.483746 0.552897 0.551770
O O8 0.695738 0.471106 0.572469
O O9 0.796990 0.336708 0.823872
O O10 0.500000 0.250000 0.685869
O O11 0.750000 0.250000 0.750000
O O12 0.781147 0.273922 0.651212
O O13 0.669484 0.622901 0.112196
O O14 0.750000 0.606551 0.000000
#
# Coordination Sequence:
#
# PCOD9530569 Si02
#       6
#    16  16  16  16  16  16
#     4  10  20  35  61  88 130 160 195 247 298 354
#     4  11  25  44  67  88 114 158 206 252 301 356
#     4  11  21  38  60  93 125 161 202 242 299 357
#     4  12  20  32  59  90 127 166 197 237 295 361
#     4  11  25  44  67  88 114 158 206 252 301 356
#     4  11  21  38  60  93 125 161 202 242 299 357
#
# _framework density 20.219743000000001
#
# number of rings (size 3 to 8) (size 9 to 14) (size 15 to 20)
#    0.000    1.000    6.667    2.000    4.667    0.000 
#    0.000    5.833    0.000    0.000    0.000    0.000 
#    0.000    0.000    0.000    0.000    0.000    0.000 
#
# Total GULP energy -267815.532969 kJ/mol
# GULP energy per Si atom -5579.490270 kJ/mol
# Density = 2.017372 g / cm^3
# Si number density = 20.219743 Si / 1000 Ang^3
#
#
#
# Elastic Constant Matrix: (Units=GPa)
#
#
# Indices 1 2 3 4 5 6 
#
# 1 91.7227 5.1038 5.0066 0.0000 0.0000 0.0000
# 2 5.1038 42.3398 43.3021 0.0000 0.0000 0.0000
# 3 5.0066 43.3021 85.3790 0.0000 0.0000 0.0000
# 4 0.0000 0.0000 0.0000 31.8774 0.0000 0.0000
# 5 0.0000 0.0000 0.0000 0.0000 23.1099 0.0000
# 6 0.0000 0.0000 0.0000 0.0000 0.0000 16.0201
#
#
#
# Elastic Compliance Matrix: (Units=1/GPa)
#
#
# Indices 1 2 3 4 5 6 
#
# 1 0.010976 -0.001381 0.000057 0.000000 0.000000 0.000000
# 2 -0.001381 0.049246 -0.024895 0.000000 0.000000 0.000000
# 3 0.000057 -0.024895 0.024335 0.000000 0.000000 0.000000
# 4 0.000000 0.000000 0.000000 0.031370 0.000000 0.000000
# 5 0.000000 0.000000 0.000000 0.000000 0.043271 0.000000
# 6 0.000000 0.000000 0.000000 0.000000 0.000000 0.062421
#
#
# Mechanical properties :
#
#
# Convention : Reuss Voigt Hill
#
# Bulk Modulus (GPa) = 31.13502 36.25185 33.69344
# Shear Modulus (GPa) = 17.55823 25.27009 21.41416
#
# Velocity S-wave (km/s) = 2.95001 3.53905 3.25787
# Velocity P-wave (km/s) = 5.19954 5.88793 5.55441
#
# Compressibility (1/GPa) = 0.03211817
#
# Stress axis : x y z
#
# Youngs Moduli (GPa) = 91.10640 20.30612 41.09227
#
# Poissons Ratio (x) = 0.02805 -0.00234
# Poissons Ratio (y) = 0.12585 1.02301
# Poissons Ratio (z) = -0.00519 0.50553
#
# Static dielectric constant tensor:
#      x y z
#    x 1.787790 0.000000 0.000000 
#    y 0.000000 1.810190 0.000000 
#    z 0.000000 0.000000 1.713140 
# 
# From -- ./inp_files/24893.got.cif
#   From: 2010.05.17/outbox.cif.g08.bks.cpg/sg73_13_cif.got.tgz:24893.got - 2010.06.03 17:35:07.
