data_PCOD9530228
_publ_section_title
;
Structure prediction by ZEFSAII (Michael W. Deem and Ramdas Pophale) SiO2 
 PCOD9530228
Probable space group: I B C A 
;
_chemical_formula_sum "Si O2"
_cell_formula_units_Z 88
_cell_length_a 12.938455
_cell_length_b 22.235292
_cell_length_c 16.923221
_cell_angle_alpha 90.000000
_cell_angle_beta 90.000000
_cell_angle_gamma 90.000000
_cell_volume 4868.646949
_symmetry_space_group_name_H-M "I B C A "
_symmetry_group_IT_number 73
_symmetry_cell_setting 'orthorhombic'
loop_
_space_group_symop_operation_xyz
x,y,z
-x,1/2-y,z
x,-y,1/2-z
1/2-x,y,-z
-x,-y,-z
x,1/2+y,-z
-x,y,1/2+z
1/2+x,-y,z
1/2+x,1/2+y,1/2+z
1/2-x,-y,1/2+z
1/2+x,1/2-y,-z
-x,1/2+y,1/2-z
1/2-x,1/2-y,1/2-z
1/2+x,y,1/2-z
1/2-x,1/2+y,z
x,1/2-y,1/2+z
loop_
_atom_site_type_symbol
_atom_site_label
_atom_site_fract_x
_atom_site_fract_y
_atom_site_fract_z
Si Si1 0.663667 0.607896 0.678017
Si Si2 0.095611 0.589519 0.148160
Si Si3 0.528855 0.000000 0.250000
Si Si4 0.432058 0.152141 0.985344
Si Si5 0.440482 0.308254 0.204242
Si Si6 0.636642 0.786345 0.473395
O O1 0.784253 0.593664 0.669480
O O2 0.601571 0.551240 0.712954
O O3 0.614934 0.626684 0.594457
O O4 0.642218 0.663456 0.736903
O O5 0.043106 0.529409 0.182178
O O6 0.029753 0.642742 0.188836
O O7 0.082907 0.603914 0.055334
O O8 0.551573 0.172944 0.981988
O O9 0.378066 0.215642 0.007819
O O10 0.500000 0.250000 0.235557
O O11 0.388659 0.293847 0.119529
O O12 0.750000 0.804674 0.500000
#
# Coordination Sequence:
#
# PCOD9530228 Si02
#       6
#    16  16   8  16  16  16
#     4  11  23  37  62  85 113 159 197 237 302 347
#     4  10  20  41  60  79 122 151 191 249 298 335
#     4  10  24  40  58  84 110 150 210 254 284 352
#     4  10  21  37  56  88 115 151 198 235 286 366
#     4  10  21  37  55  91 124 150 187 243 283 354
#     4  10  19  36  57  83 125 158 185 229 291 352
#
# _framework density 18.074836000000001
#
# number of rings (size 3 to 8) (size 9 to 14) (size 15 to 20)
#    0.000    1.818    3.636    2.182    2.545    4.364 
#    0.000    1.818    0.000    0.000    0.000    0.000 
#    0.000    0.000    0.000    0.000    0.000    0.000 
#
# Total GULP energy -245580.461363 kJ/mol
# GULP energy per Si atom -5581.374122 kJ/mol
# Density = 1.803370 g / cm^3
# Si number density = 18.074836 Si / 1000 Ang^3
#
#
#
# Elastic Constant Matrix: (Units=GPa)
#
#
# Indices 1 2 3 4 5 6 
#
# 1 155.8546 36.5116 45.9889 0.0000 0.0000 0.0000
# 2 36.5116 80.3924 41.9036 0.0001 0.0000 0.0000
# 3 45.9889 41.9036 81.5060 0.0001 0.0000 0.0000
# 4 0.0000 0.0001 0.0001 31.3522 0.0000 0.0000
# 5 0.0000 0.0000 0.0000 0.0000 7.6035 0.0000
# 6 0.0000 0.0000 0.0000 0.0000 0.0000 2.2980
#
#
#
# Elastic Compliance Matrix: (Units=1/GPa)
#
#
# Indices 1 2 3 4 5 6 
#
# 1 0.007868 -0.001720 -0.003555 0.000000 0.000000 0.000000
# 2 -0.001720 0.017369 -0.007959 0.000000 0.000000 0.000000
# 3 -0.003555 -0.007959 0.018367 0.000000 0.000000 0.000000
# 4 0.000000 0.000000 0.000000 0.031896 0.000000 0.000000
# 5 0.000000 0.000000 0.000000 0.000000 0.131519 -0.000001
# 6 0.000000 0.000000 0.000000 0.000000 -0.000001 0.435164
#
#
# Mechanical properties :
#
#
# Convention : Reuss Voigt Hill
#
# Bulk Modulus (GPa) = 58.35993 62.95126 60.65560
# Shear Modulus (GPa) = 7.41441 21.14066 14.27753
#
# Velocity S-wave (km/s) = 2.02755 3.42368 2.81359
# Velocity P-wave (km/s) = 6.15137 7.10862 6.64725
#
# Compressibility (1/GPa) = 0.01713504
#
# Stress axis : x y z
#
# Youngs Moduli (GPa) = 127.09208 57.57442 54.44628
#
# Poissons Ratio (x) = 0.09906 0.19356
# Poissons Ratio (y) = 0.21866 0.43333
# Poissons Ratio (z) = 0.45182 0.45823
#
# Static dielectric constant tensor:
#      x y z
#    x 1.607660 0.000000 0.000000 
#    y 0.000000 1.614620 0.000000 
#    z 0.000000 0.000000 1.613020 
# 
# From -- ./inp_files/21267.got.cif
#   From: 2010.05.17/outbox.cif.g08.bks.cpg/sg73_11_cif.got.tgz:21267.got - 2010.06.03 17:35:07.
