data_PCOD9530813
_publ_section_title
;
Structure prediction by ZEFSAII (Michael W. Deem and Ramdas Pophale) SiO2 
 PCOD9530813
Probable space group: I B C A 
;
_chemical_formula_sum "Si O2"
_cell_formula_units_Z 120
_cell_length_a 17.200294
_cell_length_b 14.124875
_cell_length_c 25.839725
_cell_angle_alpha 90.000000
_cell_angle_beta 90.000000
_cell_angle_gamma 90.000000
_cell_volume 6277.812938
_symmetry_space_group_name_H-M "I B C A "
_symmetry_group_IT_number 73
_symmetry_cell_setting 'orthorhombic'
loop_
_space_group_symop_operation_xyz
x,y,z
-x,1/2-y,z
x,-y,1/2-z
1/2-x,y,-z
-x,-y,-z
x,1/2+y,-z
-x,y,1/2+z
1/2+x,-y,z
1/2+x,1/2+y,1/2+z
1/2-x,-y,1/2+z
1/2+x,1/2-y,-z
-x,1/2+y,1/2-z
1/2-x,1/2-y,1/2-z
1/2+x,y,1/2-z
1/2-x,1/2+y,z
x,1/2-y,1/2+z
loop_
_atom_site_type_symbol
_atom_site_label
_atom_site_fract_x
_atom_site_fract_y
_atom_site_fract_z
Si Si1 0.877972 0.623173 0.103262
Si Si2 0.583805 0.202529 0.434182
Si Si3 0.483933 0.857401 0.320778
Si Si4 0.338330 0.585449 0.977704
Si Si5 0.840279 0.371682 0.513711
Si Si6 0.575376 0.500000 0.750000
Si Si7 0.658899 0.077366 0.350463
Si Si8 0.177332 0.823430 0.633090
O O1 0.839412 0.521720 0.116992
O O2 0.831058 0.709205 0.130701
O O3 0.964113 0.625152 0.127693
O O4 0.881823 0.639590 0.041894
O O5 0.500000 0.250000 0.436480
O O6 0.603375 0.129147 0.480243
O O7 0.641128 0.290040 0.445819
O O8 0.601004 0.147061 0.381462
O O9 0.500000 0.750000 0.304611
O O10 0.519973 0.926471 0.278962
O O11 0.393217 0.864386 0.332865
O O12 0.358097 0.476579 0.966449
O O13 0.338097 0.644611 0.925638
O O14 0.250000 0.589059 0.000000
O O15 0.750000 0.366401 0.500000
O O16 0.627751 0.549962 0.706075
O O17 0.741113 0.131319 0.350367
#
# Coordination Sequence:
#
# PCOD9530813 Si02
#       8
#    16  16  16  16  16   8  16  16
#     4  10  20  38  61  85 132 168 203 261 322 386
#     4  12  25  36  58  96 138 173 211 262 325 392
#     4   9  22  41  65  93 112 162 213 269 322 382
#     4  11  21  38  59  90 134 175 207 252 310 390
#     4  11  21  35  59  87 125 177 214 249 307 381
#     4  10  24  46  70  82 132 168 206 294 352 368
#     4  11  23  45  62  95 126 173 216 272 336 387
#     4  11  21  38  68  91 125 164 222 261 312 405
#
# _framework density 19.114937000000001
#
# number of rings (size 3 to 8) (size 9 to 14) (size 15 to 20)
#    0.000    1.333    4.000    2.000    1.867    3.733 
#    0.000    7.333    0.000    0.000    0.000    0.000 
#    0.000    0.000    0.000    0.000    0.000    0.000 
#
# Total GULP energy -335156.237601 kJ/mol
# GULP energy per Si atom -5585.937293 kJ/mol
# Density = 1.907143 g / cm^3
# Si number density = 19.114937 Si / 1000 Ang^3
#
#
#
# Elastic Constant Matrix: (Units=GPa)
#
#
# Indices 1 2 3 4 5 6 
#
# 1 65.3336 36.3857 17.7130 0.0000 0.0000 0.0000
# 2 36.3857 115.6377 24.1804 0.0000 0.0000 0.0000
# 3 17.7130 24.1804 95.6079 0.0000 0.0000 0.0000
# 4 0.0000 0.0000 0.0000 40.0756 0.0000 0.0000
# 5 0.0000 0.0000 0.0000 0.0000 15.4797 0.0000
# 6 0.0000 0.0000 0.0000 0.0000 0.0000 12.9208
#
#
#
# Elastic Compliance Matrix: (Units=1/GPa)
#
#
# Indices 1 2 3 4 5 6 
#
# 1 0.018955 -0.005522 -0.002115 0.000000 0.000000 0.000000
# 2 -0.005522 0.010739 -0.001693 0.000000 0.000000 0.000000
# 3 -0.002115 -0.001693 0.011279 0.000000 0.000000 0.000000
# 4 0.000000 0.000000 0.000000 0.024953 0.000000 0.000000
# 5 0.000000 0.000000 0.000000 0.000000 0.064601 0.000000
# 6 0.000000 0.000000 0.000000 0.000000 0.000000 0.077394
#
#
# Mechanical properties :
#
#
# Convention : Reuss Voigt Hill
#
# Bulk Modulus (GPa) = 44.81640 48.12637 46.47139
# Shear Modulus (GPa) = 21.36577 26.91522 24.14049
#
# Velocity S-wave (km/s) = 3.34691 3.75650 3.55760
# Velocity P-wave (km/s) = 6.19938 6.63680 6.42182
#
# Compressibility (1/GPa) = 0.02231326
#
# Stress axis : x y z
#
# Youngs Moduli (GPa) = 52.75718 93.11683 88.65676
#
# Poissons Ratio (x) = 0.51418 0.18752
# Poissons Ratio (y) = 0.29132 0.15010
# Poissons Ratio (z) = 0.11159 0.15765
#
# Static dielectric constant tensor:
#      x y z
#    x 1.676320 0.000000 0.000000 
#    y 0.000000 1.683150 0.000000 
#    z 0.000000 0.000000 1.664640 
# 
# From -- ./inp_files/29879.got.cif
#   From: 2010.05.17/outbox.cif.g08.bks.cpg/sg73_15_cif.got.tgz:29879.got - 2010.06.03 17:35:07.
