data_PCOD9530368
_publ_section_title
;
Structure prediction by ZEFSAII (Michael W. Deem and Ramdas Pophale) SiO2 
 PCOD9530368
Probable space group: I B C A 
;
_chemical_formula_sum "Si O2"
_cell_formula_units_Z 88
_cell_length_a 16.839119
_cell_length_b 20.925999
_cell_length_c 11.184844
_cell_angle_alpha 90.000000
_cell_angle_beta 90.000000
_cell_angle_gamma 90.000000
_cell_volume 3941.263737
_symmetry_space_group_name_H-M "I B C A "
_symmetry_group_IT_number 73
_symmetry_cell_setting 'orthorhombic'
loop_
_space_group_symop_operation_xyz
x,y,z
-x,1/2-y,z
x,-y,1/2-z
1/2-x,y,-z
-x,-y,-z
x,1/2+y,-z
-x,y,1/2+z
1/2+x,-y,z
1/2+x,1/2+y,1/2+z
1/2-x,-y,1/2+z
1/2+x,1/2-y,-z
-x,1/2+y,1/2-z
1/2-x,1/2-y,1/2-z
1/2+x,y,1/2-z
1/2-x,1/2+y,z
x,1/2-y,1/2+z
loop_
_atom_site_type_symbol
_atom_site_label
_atom_site_fract_x
_atom_site_fract_y
_atom_site_fract_z
Si Si1 0.411669 0.087252 0.598969
Si Si2 0.694694 0.024147 0.389519
Si Si3 0.795983 0.767224 0.373371
Si Si4 0.532474 0.000000 0.750000
Si Si5 0.427095 0.129006 0.353899
Si Si6 0.897625 0.150010 0.679564
O O1 0.451650 0.122937 0.491607
O O2 0.370541 0.139213 0.683909
O O3 0.344271 0.039328 0.556567
O O4 0.474448 0.039463 0.661697
O O5 0.750000 0.046901 0.500000
O O6 0.630492 0.081615 0.373764
O O7 0.716694 0.000000 0.250000
O O8 0.750000 0.773521 0.500000
O O9 0.750000 0.750000 0.250000
O O10 0.849023 0.829385 0.345183
O O11 0.857278 0.707815 0.387039
O O12 0.582636 0.943149 0.692977
O O13 0.507993 0.157507 0.300662
#
# Coordination Sequence:
#
# PCOD9530368 Si02
#       6
#    16  16  16   8  16  16
#     4  10  19  40  67 100 140 174 229 297 347 408
#     4  10  20  38  62  98 141 180 221 279 346 413
#     4  12  28  49  70 100 147 188 235 293 358 425
#     4  10  20  40  68 106 136 174 238 302 340 422
#     4  11  23  42  74 100 137 185 240 290 350 415
#     4  10  22  44  70  98 134 186 238 284 347 419
#
# _framework density 22.327863000000001
#
# number of rings (size 3 to 8) (size 9 to 14) (size 15 to 20)
#    0.000    1.455    4.545    2.727    0.000    6.545 
#    4.909    5.455    0.000    0.000    0.000    0.000 
#    0.000    0.000    0.000    0.000    0.000    0.000 
#
# Total GULP energy -244949.136823 kJ/mol
# GULP energy per Si atom -5567.025837 kJ/mol
# Density = 2.227704 g / cm^3
# Si number density = 22.327863 Si / 1000 Ang^3
#
#
#
# Elastic Constant Matrix: (Units=GPa)
#
#
# Indices 1 2 3 4 5 6 
#
# 1 89.5698 60.0607 51.9842 0.0000 0.0000 0.0000
# 2 60.0607 80.4300 31.8443 0.0000 0.0000 0.0000
# 3 51.9842 31.8443 77.3253 0.0000 0.0000 0.0000
# 4 0.0000 0.0000 0.0000 54.3517 0.0000 0.0000
# 5 0.0000 0.0000 0.0000 0.0000 19.9422 0.0000
# 6 0.0000 0.0000 0.0000 0.0000 0.0000 38.5127
#
#
#
# Elastic Compliance Matrix: (Units=1/GPa)
#
#
# Indices 1 2 3 4 5 6 
#
# 1 0.030838 -0.017707 -0.013439 0.000000 0.000000 0.000000
# 2 -0.017707 0.025023 0.001599 0.000000 0.000000 0.000000
# 3 -0.013439 0.001599 0.021309 0.000000 0.000000 0.000000
# 4 0.000000 0.000000 0.000000 0.018399 0.000000 0.000000
# 5 0.000000 0.000000 0.000000 0.000000 0.050145 0.000000
# 6 0.000000 0.000000 0.000000 0.000000 0.000000 0.025965
#
#
# Mechanical properties :
#
#
# Convention : Reuss Voigt Hill
#
# Bulk Modulus (GPa) = 55.32588 59.45595 57.39091
# Shear Modulus (GPa) = 21.11507 29.45705 25.28606
#
# Velocity S-wave (km/s) = 3.07853 3.63615 3.36890
# Velocity P-wave (km/s) = 6.12120 6.65697 6.39470
#
# Compressibility (1/GPa) = 0.01807472
#
# Stress axis : x y z
#
# Youngs Moduli (GPa) = 32.42777 39.96387 46.92872
#
# Poissons Ratio (x) = 0.70764 0.63070
# Poissons Ratio (y) = 0.57420 -0.07505
# Poissons Ratio (z) = 0.43581 -0.06391
#
# Static dielectric constant tensor:
#      x y z
#    x 1.905280 0.000000 0.000000 
#    y 0.000000 1.804820 0.000000 
#    z 0.000000 0.000000 1.938380 
# 
# From -- ./inp_files/11903.got.cif
#   From: 2010.05.17/outbox.cif.g08.bks.cpg/sg73_6_cif.got.tgz:11903.got - 2010.06.03 17:35:07.
