data_PCOD9530097
_publ_section_title
;
Structure prediction by ZEFSAII (Michael W. Deem and Ramdas Pophale) SiO2 
 PCOD9530097
Probable space group: I B C A 
;
_chemical_formula_sum "Si O2"
_cell_formula_units_Z 96
_cell_length_a 29.919487
_cell_length_b 8.123480
_cell_length_c 21.419829
_cell_angle_alpha 90.000000
_cell_angle_beta 90.000000
_cell_angle_gamma 90.000000
_cell_volume 5206.097027
_symmetry_space_group_name_H-M "I B C A "
_symmetry_group_IT_number 73
_symmetry_cell_setting 'orthorhombic'
loop_
_space_group_symop_operation_xyz
x,y,z
-x,1/2-y,z
x,-y,1/2-z
1/2-x,y,-z
-x,-y,-z
x,1/2+y,-z
-x,y,1/2+z
1/2+x,-y,z
1/2+x,1/2+y,1/2+z
1/2-x,-y,1/2+z
1/2+x,1/2-y,-z
-x,1/2+y,1/2-z
1/2-x,1/2-y,1/2-z
1/2+x,y,1/2-z
1/2-x,1/2+y,z
x,1/2-y,1/2+z
loop_
_atom_site_type_symbol
_atom_site_label
_atom_site_fract_x
_atom_site_fract_y
_atom_site_fract_z
Si Si1 0.395347 0.009141 0.522261
Si Si2 0.851845 0.695964 0.916119
Si Si3 0.395929 0.948521 0.320208
Si Si4 0.715909 0.864685 0.165494
Si Si5 0.808827 0.767222 0.693923
Si Si6 0.550493 0.192557 0.574637
O O1 0.356323 0.077706 0.476471
O O2 0.415944 0.156159 0.561909
O O3 0.378306 0.859823 0.563882
O O4 0.434265 0.942004 0.476445
O O5 0.876361 0.600416 0.860150
O O6 0.804441 0.757077 0.890284
O O7 0.356439 0.812623 0.319045
O O8 0.438145 0.879988 0.357767
O O9 0.405785 0.000000 0.250000
O O10 0.698431 0.790920 0.231651
O O11 0.769345 0.851604 0.169624
O O12 0.699225 0.052959 0.164095
O O13 0.500000 0.250000 0.567733
#
# Coordination Sequence:
#
# PCOD9530097 Si02
#       6
#    16  16  16  16  16  16
#     4   9  20  36  60  85 107 149 194 239 285 341
#     4  10  19  36  58  83 116 147 191 234 288 339
#     4  11  21  36  56  82 118 153 185 238 299 345
#     4  10  19  32  56  85 114 147 185 236 269 330
#     4  10  20  32  54  86 115 146 188 224 279 337
#     4  10  20  37  60  83 110 144 193 243 289 347
#
# _framework density 18.439917999999999
#
# number of rings (size 3 to 8) (size 9 to 14) (size 15 to 20)
#    0.000    2.000    1.667    2.500    2.333    0.000 
#    0.000    1.667    0.000   34.000    0.000    0.000 
#    0.000    0.000    0.000    0.000    0.000    0.000 
#
# Total GULP energy -267902.472929 kJ/mol
# GULP energy per Si atom -5581.301519 kJ/mol
# Density = 1.839795 g / cm^3
# Si number density = 18.439918 Si / 1000 Ang^3
#
#
#
# Elastic Constant Matrix: (Units=GPa)
#
#
# Indices 1 2 3 4 5 6 
#
# 1 46.5892 0.5003 14.5790 0.0000 0.0000 0.0000
# 2 0.5003 78.2807 36.3331 0.0000 0.0000 0.0000
# 3 14.5790 36.3331 64.5459 0.0000 0.0000 0.0000
# 4 0.0000 0.0000 0.0000 24.7023 0.0000 0.0000
# 5 0.0000 0.0000 0.0000 0.0000 13.8456 0.0000
# 6 0.0000 0.0000 0.0000 0.0000 0.0000 23.9494
#
#
#
# Elastic Compliance Matrix: (Units=1/GPa)
#
#
# Indices 1 2 3 4 5 6 
#
# 1 0.023658 0.003153 -0.007118 0.000000 0.000000 0.000000
# 2 0.003153 0.017713 -0.010683 0.000000 0.000000 0.000000
# 3 -0.007118 -0.010683 0.023114 0.000000 0.000000 0.000000
# 4 0.000000 0.000000 0.000000 0.040482 0.000000 0.000000
# 5 0.000000 0.000000 0.000000 0.000000 0.072225 0.000000
# 6 0.000000 0.000000 0.000000 0.000000 0.000000 0.041755
#
#
# Mechanical properties :
#
#
# Convention : Reuss Voigt Hill
#
# Bulk Modulus (GPa) = 28.41876 32.47119 30.44498
# Shear Modulus (GPa) = 19.23287 21.69970 20.46629
#
# Velocity S-wave (km/s) = 3.23306 3.43414 3.33512
# Velocity P-wave (km/s) = 5.42051 5.77684 5.60151
#
# Compressibility (1/GPa) = 0.03518802
#
# Stress axis : x y z
#
# Youngs Moduli (GPa) = 42.26926 56.45703 43.26400
#
# Poissons Ratio (x) = -0.17799 0.30796
# Poissons Ratio (y) = -0.13326 0.46217
# Poissons Ratio (z) = 0.30088 0.60311
#
# Static dielectric constant tensor:
#      x y z
#    x 1.598280 0.000000 0.000000 
#    y 0.000000 1.652910 0.000000 
#    z 0.000000 0.000000 1.633670 
# 
# From -- ./inp_files/6433.got.cif
#   From: 2010.05.17/outbox.cif.g08.bks.cpg/sg73_4_cif.got.tgz:6433.got - 2010.06.03 17:35:07.
