data_PCOD9530229
_publ_section_title
;
Structure prediction by ZEFSAII (Michael W. Deem and Ramdas Pophale) SiO2 
 PCOD9530229
Probable space group: I B C A 
;
_chemical_formula_sum "Si O2"
_cell_formula_units_Z 112
_cell_length_a 11.135996
_cell_length_b 17.325134
_cell_length_c 27.184553
_cell_angle_alpha 90.000000
_cell_angle_beta 90.000000
_cell_angle_gamma 90.000000
_cell_volume 5244.787113
_symmetry_space_group_name_H-M "I B C A "
_symmetry_group_IT_number 73
_symmetry_cell_setting 'orthorhombic'
loop_
_space_group_symop_operation_xyz
x,y,z
-x,1/2-y,z
x,-y,1/2-z
1/2-x,y,-z
-x,-y,-z
x,1/2+y,-z
-x,y,1/2+z
1/2+x,-y,z
1/2+x,1/2+y,1/2+z
1/2-x,-y,1/2+z
1/2+x,1/2-y,-z
-x,1/2+y,1/2-z
1/2-x,1/2-y,1/2-z
1/2+x,y,1/2-z
1/2-x,1/2+y,z
x,1/2-y,1/2+z
loop_
_atom_site_type_symbol
_atom_site_label
_atom_site_fract_x
_atom_site_fract_y
_atom_site_fract_z
Si Si1 0.610730 0.393864 0.825643
Si Si2 0.148062 0.317231 0.300667
Si Si3 0.061086 0.976373 0.697381
Si Si4 0.122167 0.292666 0.409009
Si Si5 0.618420 0.557947 0.562747
Si Si6 0.371460 0.978838 0.411616
Si Si7 0.250000 0.676335 0.000000
Si Si8 0.000000 0.750000 0.280783
O O1 0.732760 0.368451 0.799515
O O2 0.561030 0.475096 0.807160
O O3 0.626481 0.399479 0.884191
O O4 0.518174 0.326044 0.812741
O O5 0.045718 0.384100 0.303042
O O6 0.155392 0.273656 0.352711
O O7 0.112436 0.264923 0.255285
O O8 0.128920 0.999424 0.646758
O O9 0.115290 0.000000 0.750000
O O10 0.111189 0.385958 0.411514
O O11 0.213549 0.274746 0.452701
O O12 0.000000 0.250000 0.420086
O O13 0.488500 0.517291 0.563318
O O14 0.740413 0.505645 0.564805
O O15 0.644091 0.619336 0.519666
#
# Coordination Sequence:
#
# PCOD9530229 Si02
#       8
#    16  16  16  16  16  16   8   8
#     4  11  22  40  56  88 124 156 205 255 298 372
#     4  11  21  42  59  84 120 165 204 248 303 369
#     4  10  19  36  57  85 117 155 204 248 298 356
#     4  10  20  39  62  84 120 158 205 243 306 371
#     4  10  20  40  63  90 124 152 208 255 319 363
#     4   9  20  38  61  88 121 161 198 259 306 371
#     4  10  20  40  66  84 118 166 190 270 324 354
#     4  12  24  38  58  88 122 174 200 244 308 364
#
# _framework density 21.354537000000001
#
# number of rings (size 3 to 8) (size 9 to 14) (size 15 to 20)
#    0.000    1.714    6.429    0.429    0.000    2.857 
#    1.286    5.000    0.000    0.000    0.000    0.000 
#    0.000    0.000    0.000    0.000    0.000    0.000 
#
# Total GULP energy -312180.542978 kJ/mol
# GULP energy per Si atom -5574.652553 kJ/mol
# Density = 2.130593 g / cm^3
# Si number density = 21.354537 Si / 1000 Ang^3
#
#
#
# Elastic Constant Matrix: (Units=GPa)
#
#
# Indices 1 2 3 4 5 6 
#
# 1 89.5293 11.0948 18.8653 0.0000 0.0000 0.0000
# 2 11.0948 27.9601 15.3112 0.0000 0.0000 0.0000
# 3 18.8653 15.3112 104.5707 0.0000 0.0000 0.0000
# 4 0.0000 0.0000 0.0000 8.7416 0.0000 0.0000
# 5 0.0000 0.0000 0.0000 0.0000 20.5159 0.0000
# 6 0.0000 0.0000 0.0000 0.0000 0.0000 22.5109
#
#
#
# Elastic Compliance Matrix: (Units=1/GPa)
#
#
# Indices 1 2 3 4 5 6 
#
# 1 0.011987 -0.003884 -0.001594 0.000000 0.000000 0.000000
# 2 -0.003884 0.040141 -0.005177 0.000000 0.000000 0.000000
# 3 -0.001594 -0.005177 0.010608 0.000000 0.000000 0.000000
# 4 0.000000 0.000000 0.000000 0.114396 0.000000 0.000000
# 5 0.000000 0.000000 0.000000 0.000000 0.048743 0.000000
# 6 0.000000 0.000000 0.000000 0.000000 0.000000 0.044423
#
#
# Mechanical properties :
#
#
# Convention : Reuss Voigt Hill
#
# Bulk Modulus (GPa) = 24.13845 34.73363 29.43604
# Shear Modulus (GPa) = 16.37113 22.13959 19.25536
#
# Velocity S-wave (km/s) = 2.77182 3.22337 3.00609
# Velocity P-wave (km/s) = 4.64459 5.49127 5.08558
#
# Compressibility (1/GPa) = 0.04142769
#
# Stress axis : x y z
#
# Youngs Moduli (GPa) = 83.42616 24.91210 94.26456
#
# Poissons Ratio (x) = 0.09675 0.15024
# Poissons Ratio (y) = 0.32399 0.48799
# Poissons Ratio (z) = 0.13297 0.12897
#
# Static dielectric constant tensor:
#      x y z
#    x 1.864710 0.000000 0.000000 
#    y 0.000000 1.755640 0.000000 
#    z 0.000000 0.000000 1.828760 
# 
# From -- ./inp_files/29127.got.cif
#   From: 2010.05.17/outbox.cif.g08.bks.cpg/sg73_15_cif.got.tgz:29127.got - 2010.06.03 17:35:07.
