data_PCOD9530433
_publ_section_title
;
Structure prediction by ZEFSAII (Michael W. Deem and Ramdas Pophale) SiO2 
 PCOD9530433
Probable space group: I B C A 
;
_chemical_formula_sum "Si O2"
_cell_formula_units_Z 96
_cell_length_a 9.822391
_cell_length_b 22.497474
_cell_length_c 21.362832
_cell_angle_alpha 90.000000
_cell_angle_beta 90.000000
_cell_angle_gamma 90.000000
_cell_volume 4720.736956
_symmetry_space_group_name_H-M "I B C A "
_symmetry_group_IT_number 73
_symmetry_cell_setting 'orthorhombic'
loop_
_space_group_symop_operation_xyz
x,y,z
-x,1/2-y,z
x,-y,1/2-z
1/2-x,y,-z
-x,-y,-z
x,1/2+y,-z
-x,y,1/2+z
1/2+x,-y,z
1/2+x,1/2+y,1/2+z
1/2-x,-y,1/2+z
1/2+x,1/2-y,-z
-x,1/2+y,1/2-z
1/2-x,1/2-y,1/2-z
1/2+x,y,1/2-z
1/2-x,1/2+y,z
x,1/2-y,1/2+z
loop_
_atom_site_type_symbol
_atom_site_label
_atom_site_fract_x
_atom_site_fract_y
_atom_site_fract_z
Si Si1 0.088081 0.500000 0.250000
Si Si2 0.044880 0.956035 0.135706
Si Si3 0.085985 0.902892 0.387682
Si Si4 0.105354 0.551031 0.015408
Si Si5 0.798167 0.601034 0.831000
Si Si6 0.500000 0.250000 0.237190
Si Si7 0.253100 0.176285 0.792941
O O1 0.174587 0.462921 0.201260
O O2 0.000971 0.545681 0.208281
O O3 0.169732 0.911634 0.125508
O O4 0.925891 0.937851 0.087760
O O5 0.085891 0.025590 0.126058
O O6 0.096945 0.897768 0.462882
O O7 0.198029 0.868853 0.346842
O O8 0.936479 0.882278 0.365660
O O9 0.250000 0.523439 0.000000
O O10 0.000000 0.500000 0.000000
O O11 0.765911 0.643913 0.773833
O O12 0.394096 0.208542 0.197259
O O13 0.613437 0.217323 0.280375
#
# Coordination Sequence:
#
# PCOD9530433 Si02
#       7
#     8  16  16  16  16   8  16
#     4  10  20  32  52  92 128 168 198 254 298 374
#     4  10  22  34  55  87 133 171 211 248 302 385
#     4  10  22  35  58  85 127 169 213 252 309 389
#     4  10  24  37  56  81 125 178 216 244 285 367
#     4  11  20  33  57  89 125 164 197 257 316 390
#     4  10  24  38  62  88 128 154 206 284 352 382
#     4  11  21  41  59  92 124 158 208 271 345 391
#
# _framework density 20.335808
#
# number of rings (size 3 to 8) (size 9 to 14) (size 15 to 20)
#    0.000    1.667    1.667    3.500   16.333    0.000 
#    0.000    0.000    0.000    0.000    0.000    7.000 
#    0.000    0.000    0.000    0.000    0.000    0.000 
#
# Total GULP energy -267560.837917 kJ/mol
# GULP energy per Si atom -5574.184123 kJ/mol
# Density = 2.028952 g / cm^3
# Si number density = 20.335808 Si / 1000 Ang^3
#
#
#
# Elastic Constant Matrix: (Units=GPa)
#
#
# Indices 1 2 3 4 5 6 
#
# 1 173.9695 42.7365 53.5351 0.0000 0.0000 0.0000
# 2 42.7365 50.9321 24.5118 0.0000 0.0000 0.0000
# 3 53.5351 24.5118 105.2792 0.0000 0.0000 0.0000
# 4 0.0000 0.0000 0.0000 16.4714 0.0000 0.0000
# 5 0.0000 0.0000 0.0000 0.0000 35.7391 0.0000
# 6 0.0000 0.0000 0.0000 0.0000 0.0000 38.4298
#
#
#
# Elastic Compliance Matrix: (Units=1/GPa)
#
#
# Indices 1 2 3 4 5 6 
#
# 1 0.007906 -0.005292 -0.002788 0.000000 0.000000 0.000000
# 2 -0.005292 0.025654 -0.003282 0.000000 0.000000 0.000000
# 3 -0.002788 -0.003282 0.011680 0.000000 0.000000 0.000000
# 4 0.000000 0.000000 0.000000 0.060711 0.000000 0.000000
# 5 0.000000 0.000000 0.000000 0.000000 0.027981 0.000000
# 6 0.000000 0.000000 0.000000 0.000000 0.000000 0.026021
#
#
# Mechanical properties :
#
#
# Convention : Reuss Voigt Hill
#
# Bulk Modulus (GPa) = 44.41229 63.52752 53.96990
# Shear Modulus (GPa) = 26.29040 32.08790 29.18915
#
# Velocity S-wave (km/s) = 3.59947 3.97659 3.79272
# Velocity P-wave (km/s) = 6.25794 7.23819 6.76584
#
# Compressibility (1/GPa) = 0.02251629
#
# Stress axis : x y z
#
# Youngs Moduli (GPa) = 126.48348 38.98033 85.61304
#
# Poissons Ratio (x) = 0.20629 0.23871
# Poissons Ratio (y) = 0.66936 0.28097
# Poissons Ratio (z) = 0.35266 0.12793
#
# Static dielectric constant tensor:
#      x y z
#    x 1.853760 0.000000 0.000000 
#    y 0.000000 1.913680 0.000000 
#    z 0.000000 0.000000 1.809120 
# 
# From -- ./inp_files/28428.got.cif
#   From: 2010.05.17/outbox.cif.g08.bks.cpg/sg73_15_cif.got.tgz:28428.got - 2010.06.03 17:35:07.
