data_PCOD9530638
_publ_section_title
;
Structure prediction by ZEFSAII (Michael W. Deem and Ramdas Pophale) SiO2 
 PCOD9530638
Probable space group: I B C A 
;
_chemical_formula_sum "Si O2"
_cell_formula_units_Z 72
_cell_length_a 9.208396
_cell_length_b 13.773805
_cell_length_c 28.730092
_cell_angle_alpha 90.000000
_cell_angle_beta 90.000000
_cell_angle_gamma 90.000000
_cell_volume 3643.971188
_symmetry_space_group_name_H-M "I B C A "
_symmetry_group_IT_number 73
_symmetry_cell_setting 'orthorhombic'
loop_
_space_group_symop_operation_xyz
x,y,z
-x,1/2-y,z
x,-y,1/2-z
1/2-x,y,-z
-x,-y,-z
x,1/2+y,-z
-x,y,1/2+z
1/2+x,-y,z
1/2+x,1/2+y,1/2+z
1/2-x,-y,1/2+z
1/2+x,1/2-y,-z
-x,1/2+y,1/2-z
1/2-x,1/2-y,1/2-z
1/2+x,y,1/2-z
1/2-x,1/2+y,z
x,1/2-y,1/2+z
loop_
_atom_site_type_symbol
_atom_site_label
_atom_site_fract_x
_atom_site_fract_y
_atom_site_fract_z
Si Si1 0.993536 0.032650 0.052955
Si Si2 0.770055 0.549470 0.815968
Si Si3 0.522080 0.000000 0.250000
Si Si4 0.846987 0.198883 0.104976
Si Si5 0.782250 0.401085 0.895280
O O1 0.892782 0.127940 0.062398
O O2 0.150668 0.057487 0.073366
O O3 0.927663 0.946414 0.084020
O O4 0.000000 0.000000 0.000000
O O5 0.630160 0.559592 0.783334
O O6 0.912729 0.555751 0.784041
O O7 0.786220 0.628552 0.855702
O O8 0.764148 0.445590 0.843318
O O9 0.734534 0.286267 0.099191
O O10 0.000000 0.250000 0.119023
#
# Coordination Sequence:
#
# PCOD9530638 Si02
#       5
#    16  16   8  16  16
#     4  10  20  37  60  86 116 150 190 235 280 332
#     4  10  20  38  58  82 114 149 187 234 287 338
#     4  10  20  36  60  84 112 146 188 238 284 338
#     4   9  19  37  59  82 114 152 188 231 285 340
#     4  10  20  39  61  82 115 153 187 232 287 341
#
# _framework density 19.758662999999999
#
# number of rings (size 3 to 8) (size 9 to 14) (size 15 to 20)
#    0.000    2.222    0.000    4.667    0.000    0.000 
#    0.000   46.667    0.000    0.000    0.000    0.000 
#    0.000    0.000    0.000    0.000    0.000    0.000 
#
# Total GULP energy -200837.586846 kJ/mol
# GULP energy per Si atom -5578.821857 kJ/mol
# Density = 1.971369 g / cm^3
# Si number density = 19.758663 Si / 1000 Ang^3
#
#
#
# Elastic Constant Matrix: (Units=GPa)
#
#
# Indices 1 2 3 4 5 6 
#
# 1 63.0467 25.6441 35.2800 0.0000 0.0000 0.0000
# 2 25.6441 107.7551 38.5128 0.0000 0.0000 0.0000
# 3 35.2800 38.5128 117.6733 0.0000 0.0000 0.0000
# 4 0.0000 0.0000 0.0000 6.9804 0.0000 0.0000
# 5 0.0000 0.0000 0.0000 0.0000 22.3482 0.0000
# 6 0.0000 0.0000 0.0000 0.0000 0.0000 24.2025
#
#
#
# Elastic Compliance Matrix: (Units=1/GPa)
#
#
# Indices 1 2 3 4 5 6 
#
# 1 0.019849 -0.002941 -0.004988 0.000000 0.000000 0.000000
# 2 -0.002941 0.010945 -0.002701 0.000000 0.000000 0.000000
# 3 -0.004988 -0.002701 0.010878 0.000000 0.000000 0.000000
# 4 0.000000 0.000000 0.000000 0.143259 0.000000 0.000000
# 5 0.000000 0.000000 0.000000 0.000000 0.044746 0.000000
# 6 0.000000 0.000000 0.000000 0.000000 0.000000 0.041318
#
#
# Mechanical properties :
#
#
# Convention : Reuss Voigt Hill
#
# Bulk Modulus (GPa) = 48.99047 54.14988 51.57017
# Shear Modulus (GPa) = 16.71910 23.30875 20.01393
#
# Velocity S-wave (km/s) = 2.91205 3.43836 3.18609
# Velocity P-wave (km/s) = 6.01290 6.57482 6.30013
#
# Compressibility (1/GPa) = 0.02041213
#
# Stress axis : x y z
#
# Youngs Moduli (GPa) = 50.38063 91.36274 91.93225
#
# Poissons Ratio (x) = 0.26868 0.45860
# Poissons Ratio (y) = 0.14816 0.24827
# Poissons Ratio (z) = 0.25132 0.24673
#
# Static dielectric constant tensor:
#      x y z
#    x 1.709860 0.000000 0.000000 
#    y 0.000000 1.728520 0.000000 
#    z 0.000000 0.000000 1.689780 
# 
# From -- ./inp_files/4768.got.cif
#   From: 2010.05.17/outbox.cif.g08.bks.cpg/sg73_3_cif.got.tgz:4768.got - 2010.06.03 17:35:07.
