data_PCOD9530496
_publ_section_title
;
Structure prediction by ZEFSAII (Michael W. Deem and Ramdas Pophale) SiO2 
 PCOD9530496
Probable space group: I B C A 
;
_chemical_formula_sum "Si O2"
_cell_formula_units_Z 64
_cell_length_a 5.094067
_cell_length_b 26.911353
_cell_length_c 21.737454
_cell_angle_alpha 90.000000
_cell_angle_beta 90.000000
_cell_angle_gamma 90.000000
_cell_volume 2979.949208
_symmetry_space_group_name_H-M "I B C A "
_symmetry_group_IT_number 73
_symmetry_cell_setting 'orthorhombic'
loop_
_space_group_symop_operation_xyz
x,y,z
-x,1/2-y,z
x,-y,1/2-z
1/2-x,y,-z
-x,-y,-z
x,1/2+y,-z
-x,y,1/2+z
1/2+x,-y,z
1/2+x,1/2+y,1/2+z
1/2-x,-y,1/2+z
1/2+x,1/2-y,-z
-x,1/2+y,1/2-z
1/2-x,1/2-y,1/2-z
1/2+x,y,1/2-z
1/2-x,1/2+y,z
x,1/2-y,1/2+z
loop_
_atom_site_type_symbol
_atom_site_label
_atom_site_fract_x
_atom_site_fract_y
_atom_site_fract_z
Si Si1 0.119708 0.802523 0.067289
Si Si2 0.112358 0.637453 0.898741
Si Si3 0.302149 0.567204 0.208258
Si Si4 0.609503 0.528567 0.578231
O O1 0.363298 0.826463 0.103482
O O2 0.000000 0.750000 0.088284
O O3 0.869286 0.838863 0.070419
O O4 0.250000 0.795449 0.000000
O O5 0.040595 0.585974 0.934423
O O6 0.182478 0.618727 0.830169
O O7 0.022625 0.562987 0.240078
O O8 0.365358 0.529313 0.152999
O O9 0.395557 0.488778 0.558396
#
# Coordination Sequence:
#
# PCOD9530496 Si02
#       4
#    16  16  16  16
#     4  12  23  42  68  92 109 139 198 259 317 358
#     4  10  23  38  59  90 126 157 180 261 296 344
#     4  10  20  34  56  87 123 164 203 236 282 338
#     4  10  20  34  56  87 123 164 203 236 282 338
#
# _framework density 21.476873999999999
#
# number of rings (size 3 to 8) (size 9 to 14) (size 15 to 20)
#    1.500    0.000    0.000    7.500    0.000    3.000 
#    0.000    0.000    0.000   30.000    0.000    0.000 
#    0.000    0.000    0.000    0.000    0.000    0.000 
#
# Total GULP energy -178601.657541 kJ/mol
# GULP energy per Si atom -5581.301798 kJ/mol
# Density = 2.142799 g / cm^3
# Si number density = 21.476874 Si / 1000 Ang^3
#
#
#
# Elastic Constant Matrix: (Units=GPa)
#
#
# Indices 1 2 3 4 5 6 
#
# 1 125.7594 53.1887 6.4089 0.0000 0.0000 0.0000
# 2 53.1887 96.3358 20.5510 0.0000 0.0000 0.0000
# 3 6.4089 20.5510 54.3641 0.0000 0.0000 0.0000
# 4 0.0000 0.0000 0.0000 20.4326 0.0000 0.0000
# 5 0.0000 0.0000 0.0000 0.0000 40.0171 0.0000
# 6 0.0000 0.0000 0.0000 0.0000 0.0000 45.2687
#
#
#
# Elastic Compliance Matrix: (Units=1/GPa)
#
#
# Indices 1 2 3 4 5 6 
#
# 1 0.010427 -0.005977 0.001030 0.000000 0.000000 0.000000
# 2 -0.005977 0.014717 -0.004859 0.000000 0.000000 0.000000
# 3 0.001030 -0.004859 0.020110 0.000000 0.000000 0.000000
# 4 0.000000 0.000000 0.000000 0.048941 0.000000 0.000000
# 5 0.000000 0.000000 0.000000 0.000000 0.024989 0.000000
# 6 0.000000 0.000000 0.000000 0.000000 0.000000 0.022090
#
#
# Mechanical properties :
#
#
# Convention : Reuss Voigt Hill
#
# Bulk Modulus (GPa) = 38.99712 48.52851 43.76281
# Shear Modulus (GPa) = 29.51024 34.23104 31.87064
#
# Velocity S-wave (km/s) = 3.71084 3.99664 3.85639
# Velocity P-wave (km/s) = 6.04628 6.62890 6.34428
#
# Compressibility (1/GPa) = 0.02564292
#
# Stress axis : x y z
#
# Youngs Moduli (GPa) = 95.90516 67.95014 49.72704
#
# Poissons Ratio (x) = 0.40612 -0.05122
# Poissons Ratio (y) = 0.57319 0.24161
# Poissons Ratio (z) = -0.09879 0.33015
#
# Static dielectric constant tensor:
#      x y z
#    x 1.718690 0.000000 0.000000 
#    y 0.000000 1.810010 0.000000 
#    z 0.000000 0.000000 1.821820 
# 
# From -- ./inp_files/24399.got.cif
#   From: 2010.05.17/outbox.cif.g08.bks.cpg/sg73_13_cif.got.tgz:24399.got - 2010.06.03 17:35:07.
