data_PCOD9530341
_publ_section_title
;
Structure prediction by ZEFSAII (Michael W. Deem and Ramdas Pophale) SiO2 
 PCOD9530341
Probable space group: I B C A 
;
_chemical_formula_sum "Si O2"
_cell_formula_units_Z 96
_cell_length_a 13.768424
_cell_length_b 21.124059
_cell_length_c 14.686843
_cell_angle_alpha 90.000000
_cell_angle_beta 90.000000
_cell_angle_gamma 90.000000
_cell_volume 4271.594866
_symmetry_space_group_name_H-M "I B C A "
_symmetry_group_IT_number 73
_symmetry_cell_setting 'orthorhombic'
loop_
_space_group_symop_operation_xyz
x,y,z
-x,1/2-y,z
x,-y,1/2-z
1/2-x,y,-z
-x,-y,-z
x,1/2+y,-z
-x,y,1/2+z
1/2+x,-y,z
1/2+x,1/2+y,1/2+z
1/2-x,-y,1/2+z
1/2+x,1/2-y,-z
-x,1/2+y,1/2-z
1/2-x,1/2-y,1/2-z
1/2+x,y,1/2-z
1/2-x,1/2+y,z
x,1/2-y,1/2+z
loop_
_atom_site_type_symbol
_atom_site_label
_atom_site_fract_x
_atom_site_fract_y
_atom_site_fract_z
Si Si1 0.469212 0.818964 0.004567
Si Si2 0.748241 0.582883 0.720741
Si Si3 0.923390 0.861712 0.305989
Si Si4 0.908522 0.497214 0.886292
Si Si5 0.853799 0.411885 0.038946
Si Si6 0.077106 0.900345 0.159099
O O1 0.500000 0.750000 0.972593
O O2 0.407310 0.856011 0.928848
O O3 0.427768 0.815403 0.107606
O O4 0.564841 0.862499 0.011639
O O5 0.823270 0.638710 0.748333
O O6 0.821629 0.533665 0.672621
O O7 0.665071 0.589955 0.645066
O O8 0.680207 0.572948 0.807901
O O9 0.013381 0.861281 0.235187
O O10 0.921269 0.930679 0.357442
O O11 0.004665 0.458440 0.860899
O O12 0.881741 0.478145 0.989788
O O13 0.750000 0.392169 0.000000
#
# Coordination Sequence:
#
# PCOD9530341 Si02
#       6
#    16  16  16  16  16  16
#     4  11  25  46  65  89 131 178 231 287 325 381
#     4  10  19  39  63  96 132 170 206 269 332 408
#     4  11  23  42  62 100 132 167 225 272 336 415
#     4   9  21  38  62  98 135 166 211 264 331 421
#     4   9  19  42  67  92 125 177 217 261 335 404
#     4  10  21  40  65  93 130 172 219 271 341 404
#
# _framework density 22.474039999999999
#
# number of rings (size 3 to 8) (size 9 to 14) (size 15 to 20)
#    0.000    2.000    1.667    3.000    0.000    6.667 
#   18.000    0.833    0.000    0.000    0.000    0.000 
#    0.000    0.000    0.000    0.000    0.000    0.000 
#
# Total GULP energy -267900.251289 kJ/mol
# GULP energy per Si atom -5581.255235 kJ/mol
# Density = 2.242289 g / cm^3
# Si number density = 22.474040 Si / 1000 Ang^3
#
#
#
# Elastic Constant Matrix: (Units=GPa)
#
#
# Indices 1 2 3 4 5 6 
#
# 1 89.2450 -8.5748 19.5248 0.0000 0.0000 0.0000
# 2 -8.5748 44.5439 10.3268 0.0001 0.0000 0.0000
# 3 19.5248 10.3268 111.0426 0.0001 -0.0001 0.0000
# 4 0.0000 0.0001 0.0001 17.6878 -0.0001 0.0000
# 5 0.0000 0.0000 -0.0001 -0.0001 49.3988 0.0000
# 6 0.0000 0.0000 0.0000 0.0000 0.0000 13.0304
#
#
#
# Elastic Compliance Matrix: (Units=1/GPa)
#
#
# Indices 1 2 3 4 5 6 
#
# 1 0.012000 0.002861 -0.002376 0.000000 0.000000 0.000000
# 2 0.002861 0.023627 -0.002700 0.000000 0.000000 0.000000
# 3 -0.002376 -0.002700 0.009674 0.000000 0.000000 0.000000
# 4 0.000000 0.000000 0.000000 0.056536 0.000000 0.000000
# 5 0.000000 0.000000 0.000000 0.000000 0.020243 0.000000
# 6 0.000000 0.000000 0.000000 0.000000 0.000000 0.076744
#
#
# Mechanical properties :
#
#
# Convention : Reuss Voigt Hill
#
# Bulk Modulus (GPa) = 24.46788 31.93168 28.19978
# Shear Modulus (GPa) = 23.05441 30.92703 26.99072
#
# Velocity S-wave (km/s) = 3.20632 3.71364 3.46927
# Velocity P-wave (km/s) = 4.96167 5.71202 5.35002
#
# Compressibility (1/GPa) = 0.04086990
#
# Stress axis : x y z
#
# Youngs Moduli (GPa) = 83.33473 42.32534 103.36507
#
# Poissons Ratio (x) = -0.12109 0.24560
# Poissons Ratio (y) = -0.23841 0.27911
# Poissons Ratio (z) = 0.19800 0.11429
#
# Static dielectric constant tensor:
#      x y z
#    x 1.821630 0.000000 0.000000 
#    y 0.000000 1.800920 0.000000 
#    z 0.000000 0.000000 2.000100 
# 
# From -- ./inp_files/17036.got.cif
#   From: 2010.05.17/outbox.cif.g08.bks.cpg/sg73_9_cif.got.tgz:17036.got - 2010.06.03 17:35:07.
