data_PCOD9530384
_publ_section_title
;
Structure prediction by ZEFSAII (Michael W. Deem and Ramdas Pophale) SiO2 
 PCOD9530384
Probable space group: I B C A 
;
_chemical_formula_sum "Si O2"
_cell_formula_units_Z 88
_cell_length_a 22.646551
_cell_length_b 11.435794
_cell_length_c 13.172242
_cell_angle_alpha 90.000000
_cell_angle_beta 90.000000
_cell_angle_gamma 90.000000
_cell_volume 3411.364252
_symmetry_space_group_name_H-M "I B C A "
_symmetry_group_IT_number 73
_symmetry_cell_setting 'orthorhombic'
loop_
_space_group_symop_operation_xyz
x,y,z
-x,1/2-y,z
x,-y,1/2-z
1/2-x,y,-z
-x,-y,-z
x,1/2+y,-z
-x,y,1/2+z
1/2+x,-y,z
1/2+x,1/2+y,1/2+z
1/2-x,-y,1/2+z
1/2+x,1/2-y,-z
-x,1/2+y,1/2-z
1/2-x,1/2-y,1/2-z
1/2+x,y,1/2-z
1/2-x,1/2+y,z
x,1/2-y,1/2+z
loop_
_atom_site_type_symbol
_atom_site_label
_atom_site_fract_x
_atom_site_fract_y
_atom_site_fract_z
Si Si1 0.046915 0.650174 0.454705
Si Si2 0.747736 0.911646 0.168912
Si Si3 0.659020 0.775356 0.023752
Si Si4 0.250000 0.590610 0.500000
Si Si5 0.874692 0.881262 0.183559
Si Si6 0.499532 0.925505 0.840357
O O1 0.108744 0.702418 0.421089
O O2 0.032402 0.527823 0.404230
O O3 0.000000 0.750000 0.430248
O O4 0.043319 0.631264 0.576904
O O5 0.700566 0.839977 0.104080
O O6 0.805723 0.841863 0.208610
O O7 0.720021 0.000000 0.250000
O O8 0.772551 0.006393 0.087749
O O9 0.698071 0.677085 0.967687
O O10 0.629708 0.858560 0.939240
O O11 0.944817 0.847570 0.199797
O O12 0.873734 0.000000 0.250000
O O13 0.470072 0.000000 0.750000
#
# Coordination Sequence:
#
# PCOD9530384 Si02
#       6
#    16  16  16   8  16  16
#     4  11  24  42  70  97 135 178 232 288 353 422
#     4  11  24  43  65 100 145 181 230 293 352 420
#     4  12  23  43  67 103 136 183 235 281 352 429
#     4  12  22  42  70  94 134 190 222 290 348 424
#     4  10  19  41  69  95 133 175 225 284 348 410
#     4  10  23  45  70  97 136 182 227 299 353 415
#
# _framework density 25.796129000000001
#
# number of rings (size 3 to 8) (size 9 to 14) (size 15 to 20)
#    0.000    1.091    5.455    1.091    0.000    1.455 
#    6.545    1.818    0.000    0.000    0.000    0.000 
#    0.000    0.000    0.000    0.000    0.000    0.000 
#
# Total GULP energy -245233.704596 kJ/mol
# GULP energy per Si atom -5573.493286 kJ/mol
# Density = 2.573742 g / cm^3
# Si number density = 25.796129 Si / 1000 Ang^3
#
#
#
# Elastic Constant Matrix: (Units=GPa)
#
#
# Indices 1 2 3 4 5 6 
#
# 1 82.6697 20.1414 0.8702 0.0000 0.0000 0.0000
# 2 20.1414 86.0760 30.5711 0.0000 0.0000 0.0000
# 3 0.8702 30.5711 81.2374 0.0000 0.0000 0.0000
# 4 0.0000 0.0000 0.0000 55.9853 0.0000 0.0000
# 5 0.0000 0.0000 0.0000 0.0000 36.0894 0.0000
# 6 0.0000 0.0000 0.0000 0.0000 0.0000 41.3267
#
#
#
# Elastic Compliance Matrix: (Units=1/GPa)
#
#
# Indices 1 2 3 4 5 6 
#
# 1 0.012921 -0.003433 0.001154 0.000000 0.000000 0.000000
# 2 -0.003433 0.014322 -0.005353 0.000000 0.000000 0.000000
# 3 0.001154 -0.005353 0.014312 0.000000 0.000000 0.000000
# 4 0.000000 0.000000 0.000000 0.017862 0.000000 0.000000
# 5 0.000000 0.000000 0.000000 0.000000 0.027709 0.000000
# 6 0.000000 0.000000 0.000000 0.000000 0.000000 0.024197
#
#
# Mechanical properties :
#
#
# Convention : Reuss Voigt Hill
#
# Bulk Modulus (GPa) = 38.03800 39.23872 38.63836
# Shear Modulus (GPa) = 36.94112 39.90700 38.42406
#
# Velocity S-wave (km/s) = 3.78834 3.93748 3.86363
# Velocity P-wave (km/s) = 5.82348 5.99298 5.90884
#
# Compressibility (1/GPa) = 0.02628950
#
# Stress axis : x y z
#
# Youngs Moduli (GPa) = 77.39577 69.82216 69.87322
#
# Poissons Ratio (x) = 0.23970 -0.08060
# Poissons Ratio (y) = 0.26570 0.37402
# Poissons Ratio (z) = -0.08928 0.37375
#
# Static dielectric constant tensor:
#      x y z
#    x 2.072280 0.000000 0.000000 
#    y 0.000000 2.051000 0.000000 
#    z 0.000000 0.000000 2.142230 
# 
# From -- ./inp_files/19281.got.cif
#   From: 2010.05.17/outbox.cif.g08.bks.cpg/sg73_10_cif.got.tgz:19281.got - 2010.06.03 17:35:07.
