data_PCOD9530008
_publ_section_title
;
Structure prediction by ZEFSAII (Michael W. Deem and Ramdas Pophale) SiO2 
 PCOD9530008
Probable space group: I B C A 
;
_chemical_formula_sum "Si O2"
_cell_formula_units_Z 112
_cell_length_a 29.149436
_cell_length_b 10.430426
_cell_length_c 15.127549
_cell_angle_alpha 90.000000
_cell_angle_beta 90.000000
_cell_angle_gamma 90.000000
_cell_volume 4599.395657
_symmetry_space_group_name_H-M "I B C A "
_symmetry_group_IT_number 73
_symmetry_cell_setting 'orthorhombic'
loop_
_space_group_symop_operation_xyz
x,y,z
-x,1/2-y,z
x,-y,1/2-z
1/2-x,y,-z
-x,-y,-z
x,1/2+y,-z
-x,y,1/2+z
1/2+x,-y,z
1/2+x,1/2+y,1/2+z
1/2-x,-y,1/2+z
1/2+x,1/2-y,-z
-x,1/2+y,1/2-z
1/2-x,1/2-y,1/2-z
1/2+x,y,1/2-z
1/2-x,1/2+y,z
x,1/2-y,1/2+z
loop_
_atom_site_type_symbol
_atom_site_label
_atom_site_fract_x
_atom_site_fract_y
_atom_site_fract_z
Si Si1 0.897686 0.972125 0.850096
Si Si2 0.641204 0.691541 0.168860
Si Si3 0.344729 0.468397 0.994587
Si Si4 0.064125 0.419219 0.424999
Si Si5 0.071232 0.500000 0.250000
Si Si6 0.220875 0.859394 0.703555
Si Si7 0.250000 0.096037 0.000000
Si Si8 0.011489 0.123593 0.079975
O O1 0.875635 0.830548 0.859212
O O2 0.951626 0.962782 0.869192
O O3 0.888631 0.000000 0.750000
O O4 0.873071 0.068620 0.917952
O O5 0.666060 0.633280 0.082327
O O6 0.599876 0.594683 0.187976
O O7 0.670348 0.677143 0.259082
O O8 0.382243 0.566200 0.950049
O O9 0.296192 0.521462 0.026070
O O10 0.051476 0.403371 0.322806
O O11 0.040623 0.326782 0.495357
O O12 0.034182 0.548012 0.445378
O O13 0.250000 0.750000 0.750000
O O14 0.231987 0.851798 0.597838
O O15 0.229844 0.000000 0.750000
O O16 0.000000 0.250000 0.134771
#
# Coordination Sequence:
#
# PCOD9530008 Si02
#       8
#    16  16  16  16   8  16   8  16
#     4  11  26  48  72 115 153 194 257 330 394 473
#     4  11  22  49  72 100 151 199 254 318 385 469
#     4  10  22  46  72 102 147 201 254 307 391 451
#     4   9  20  37  64  96 139 184 238 301 364 457
#     4  10  18  38  66  98 128 186 246 292 364 444
#     4  12  26  48  73 110 157 199 264 334 393 473
#     4  12  24  46  80 112 148 206 268 326 392 466
#     4  10  20  41  67  98 145 188 238 302 382 473
#
# _framework density 24.351025
#
# number of rings (size 3 to 8) (size 9 to 14) (size 15 to 20)
#    0.000    1.429    2.143    3.429    1.000    2.857 
#   23.143    0.714    0.000    0.000    0.000    0.000 
#    0.000    0.000    0.000    0.000    0.000    0.000 
#
# Total GULP energy -311791.580950 kJ/mol
# GULP energy per Si atom -5567.706803 kJ/mol
# Density = 2.429560 g / cm^3
# Si number density = 24.351025 Si / 1000 Ang^3
#
#
#
# Elastic Constant Matrix: (Units=GPa)
#
#
# Indices 1 2 3 4 5 6 
#
# 1 117.1723 10.6652 15.2174 0.0000 0.0000 0.0000
# 2 10.6652 43.8586 -5.0217 0.0000 0.0000 0.0000
# 3 15.2174 -5.0217 180.4521 0.0000 0.0000 0.0000
# 4 0.0000 0.0000 0.0000 23.7933 0.0000 0.0000
# 5 0.0000 0.0000 0.0000 0.0000 42.9037 0.0000
# 6 0.0000 0.0000 0.0000 0.0000 0.0000 14.9610
#
#
#
# Elastic Compliance Matrix: (Units=1/GPa)
#
#
# Indices 1 2 3 4 5 6 
#
# 1 0.008844 -0.002243 -0.000808 0.000000 0.000000 0.000000
# 2 -0.002243 0.023442 0.000842 0.000000 0.000000 0.000000
# 3 -0.000808 0.000842 0.005633 0.000000 0.000000 0.000000
# 4 0.000000 0.000000 0.000000 0.042029 0.000000 0.000000
# 5 0.000000 0.000000 0.000000 0.000000 0.023308 0.000000
# 6 0.000000 0.000000 0.000000 0.000000 0.000000 0.066841
#
#
# Mechanical properties :
#
#
# Convention : Reuss Voigt Hill
#
# Bulk Modulus (GPa) = 29.85101 42.57829 36.21465
# Shear Modulus (GPa) = 26.92771 37.70640 32.31705
#
# Velocity S-wave (km/s) = 3.32899 3.93931 3.64694
# Velocity P-wave (km/s) = 5.20206 6.18175 5.71294
#
# Compressibility (1/GPa) = 0.03349970
#
# Stress axis : x y z
#
# Youngs Moduli (GPa) = 113.07658 42.65784 177.51868
#
# Poissons Ratio (x) = 0.09568 0.14347
# Poissons Ratio (y) = 0.25364 -0.14939
# Poissons Ratio (z) = 0.09139 -0.03590
#
# Static dielectric constant tensor:
#      x y z
#    x 2.854460 0.000000 0.000000 
#    y 0.000000 2.726400 0.000000 
#    z 0.000000 0.000000 1.519210 
# 
# From -- ./inp_files/20071.got.cif
#   From: 2010.05.17/outbox.cif.g08.bks.cpg/sg73_11_cif.got.tgz:20071.got - 2010.06.03 17:35:07.
