data_PCOD9530367
_publ_section_title
;
Structure prediction by ZEFSAII (Michael W. Deem and Ramdas Pophale) SiO2 
 PCOD9530367
Probable space group: I B C A 
;
_chemical_formula_sum "Si O2"
_cell_formula_units_Z 80
_cell_length_a 10.046202
_cell_length_b 22.566676
_cell_length_c 16.436897
_cell_angle_alpha 90.000000
_cell_angle_beta 90.000000
_cell_angle_gamma 90.000000
_cell_volume 3726.398819
_symmetry_space_group_name_H-M "I B C A "
_symmetry_group_IT_number 73
_symmetry_cell_setting 'orthorhombic'
loop_
_space_group_symop_operation_xyz
x,y,z
-x,1/2-y,z
x,-y,1/2-z
1/2-x,y,-z
-x,-y,-z
x,1/2+y,-z
-x,y,1/2+z
1/2+x,-y,z
1/2+x,1/2+y,1/2+z
1/2-x,-y,1/2+z
1/2+x,1/2-y,-z
-x,1/2+y,1/2-z
1/2-x,1/2-y,1/2-z
1/2+x,y,1/2-z
1/2-x,1/2+y,z
x,1/2-y,1/2+z
loop_
_atom_site_type_symbol
_atom_site_label
_atom_site_fract_x
_atom_site_fract_y
_atom_site_fract_z
Si Si1 0.250000 0.045807 0.000000
Si Si2 0.750000 0.639994 0.000000
Si Si3 0.658434 0.015722 0.157646
Si Si4 0.161291 0.157733 0.336122
Si Si5 0.001886 0.583633 0.916835
Si Si6 0.543234 0.313450 0.293388
O O1 0.383745 0.082724 0.985456
O O2 0.248700 0.008653 0.915791
O O3 0.813108 0.678099 0.072002
O O4 0.633959 0.599967 0.038479
O O5 0.647738 0.086323 0.157023
O O6 0.698410 0.000000 0.250000
O O7 0.526406 0.977878 0.132451
O O8 0.298174 0.175556 0.289705
O O9 0.032096 0.181491 0.292013
O O10 0.016282 0.634712 0.849859
O O11 0.500000 0.250000 0.328217
#
# Coordination Sequence:
#
# PCOD9530367 Si02
#       6
#     8   8  16  16  16  16
#     4   8  19  38  69 100 138 189 234 291 372 428
#     4  10  23  40  61  98 144 175 224 291 366 422
#     4  10  19  40  67 100 139 184 230 295 360 440
#     4  11  23  44  67  99 134 179 233 294 359 429
#     4   9  21  43  66 102 139 186 233 293 361 434
#     4  11  24  46  70  96 137 188 244 293 348 427
#
# _framework density 21.468447999999999
#
# number of rings (size 3 to 8) (size 9 to 14) (size 15 to 20)
#    1.200    0.800    2.000    1.200    0.000    4.000 
#   10.800    8.000    0.000    1.200    0.000    0.000 
#    0.000    0.000    0.000    0.000    0.000    0.000 
#
# Total GULP energy -222872.539865 kJ/mol
# GULP energy per Si atom -5571.813497 kJ/mol
# Density = 2.141958 g / cm^3
# Si number density = 21.468448 Si / 1000 Ang^3
#
#
#
# Elastic Constant Matrix: (Units=GPa)
#
#
# Indices 1 2 3 4 5 6 
#
# 1 67.4938 32.8039 47.4956 0.0000 0.0000 0.0000
# 2 32.8039 73.9130 -0.1218 0.0000 0.0000 0.0000
# 3 47.4956 -0.1218 144.0938 -0.0001 0.0000 0.0000
# 4 0.0000 0.0000 -0.0001 -5.9428 0.0000 0.0000
# 5 0.0000 0.0000 0.0000 0.0000 44.0637 0.0000
# 6 0.0000 0.0000 0.0000 0.0000 0.0000 11.1650
#
#
#
# Elastic Compliance Matrix: (Units=1/GPa)
#
#
# Indices 1 2 3 4 5 6 
#
# 1 0.026850 -0.011931 -0.008860 0.000000 0.000000 0.000000
# 2 -0.011931 0.018831 0.003949 0.000000 0.000000 0.000000
# 3 -0.008860 0.003949 0.009864 0.000000 0.000000 0.000000
# 4 0.000000 0.000000 0.000000 -0.168272 0.000000 0.000000
# 5 0.000000 0.000000 0.000000 0.000000 0.022694 0.000000
# 6 0.000000 0.000000 0.000000 0.000000 0.000000 0.089566
#
#
# Mechanical properties :
#
#
# Convention : Reuss Voigt Hill
#
# Bulk Modulus (GPa) = 45.74700 49.53956 47.64328
# Shear Modulus (GPa) = 123.44124 23.54539 73.49331
#
# Velocity S-wave (km/s) = 7.59103 3.31530 5.85726
# Velocity P-wave (km/s) = 9.90893 6.14659 8.24522
#
# Compressibility (1/GPa) = 0.02185936
#
# Stress axis : x y z
#
# Youngs Moduli (GPa) = 37.24392 53.10351 101.38138
#
# Poissons Ratio (x) = 0.63358 0.89827
# Poissons Ratio (y) = 0.44436 -0.40031
# Poissons Ratio (z) = 0.32999 -0.20968
#
# Static dielectric constant tensor:
#      x y z
#    x 1.860680 0.000000 0.000000 
#    y 0.000000 1.801100 0.000000 
#    z 0.000000 0.000000 1.853810 
# 
# From -- ./inp_files/21226.got.cif
#   From: 2010.05.17/outbox.cif.g08.bks.cpg/sg73_11_cif.got.tgz:21226.got - 2010.06.03 17:35:07.
