data_PCOD9530429
_publ_section_title
;
Structure prediction by ZEFSAII (Michael W. Deem and Ramdas Pophale) SiO2 
 PCOD9530429
Probable space group: I B C A 
;
_chemical_formula_sum "Si O2"
_cell_formula_units_Z 96
_cell_length_a 25.156290
_cell_length_b 20.757678
_cell_length_c 9.630122
_cell_angle_alpha 90.000000
_cell_angle_beta 90.000000
_cell_angle_gamma 90.000000
_cell_volume 5028.716500
_symmetry_space_group_name_H-M "I B C A "
_symmetry_group_IT_number 73
_symmetry_cell_setting 'orthorhombic'
loop_
_space_group_symop_operation_xyz
x,y,z
-x,1/2-y,z
x,-y,1/2-z
1/2-x,y,-z
-x,-y,-z
x,1/2+y,-z
-x,y,1/2+z
1/2+x,-y,z
1/2+x,1/2+y,1/2+z
1/2-x,-y,1/2+z
1/2+x,1/2-y,-z
-x,1/2+y,1/2-z
1/2-x,1/2-y,1/2-z
1/2+x,y,1/2-z
1/2-x,1/2+y,z
x,1/2-y,1/2+z
loop_
_atom_site_type_symbol
_atom_site_label
_atom_site_fract_x
_atom_site_fract_y
_atom_site_fract_z
Si Si1 0.500000 0.750000 0.277190
Si Si2 0.450389 0.415060 0.492352
Si Si3 0.750000 0.255922 0.500000
Si Si4 0.907791 0.661286 0.742443
Si Si5 0.579430 0.641896 0.793278
Si Si6 0.425720 0.442163 0.969250
Si Si7 0.323704 0.728100 0.250170
O O1 0.544619 0.707358 0.199396
O O2 0.462219 0.696250 0.348826
O O3 0.426719 0.358541 0.587958
O O4 0.446305 0.398209 0.330712
O O5 0.420514 0.481437 0.530319
O O6 0.512822 0.428266 0.513485
O O7 0.706527 0.287371 0.604806
O O8 0.784903 0.221631 0.618939
O O9 0.910103 0.595866 0.830943
O O10 0.852699 0.701171 0.743954
O O11 0.627820 0.680762 0.729902
O O12 0.603279 0.594834 0.907603
#
# Coordination Sequence:
#
# PCOD9530429 Si02
#       7
#     8  16   8  16  16  16  16
#     4  10  20  32  50  76 120 140 168 226 260 312
#     4  11  21  34  51  76 117 161 190 213 249 307
#     4  10  20  42  56  84 110 134 172 246 280 350
#     4  11  21  35  53  84 110 150 181 223 267 333
#     4  11  21  35  53  84 110 150 181 223 267 333
#     4  11  21  34  51  76 117 161 190 213 249 307
#     4  10  22  36  62  84 108 136 184 222 302 324
#
# _framework density 19.090357999999998
#
# number of rings (size 3 to 8) (size 9 to 14) (size 15 to 20)
#    0.000    1.333    3.333    3.000    0.000    8.000 
#    0.000    0.000    0.000    0.000    0.000   81.667 
#    0.000    0.000    0.000    0.000    0.000    0.000 
#
# Total GULP energy -267221.650966 kJ/mol
# GULP energy per Si atom -5567.117728 kJ/mol
# Density = 1.904691 g / cm^3
# Si number density = 19.090358 Si / 1000 Ang^3
#
#
#
# Elastic Constant Matrix: (Units=GPa)
#
#
# Indices 1 2 3 4 5 6 
#
# 1 56.2253 13.9377 -1.3767 0.0000 0.0000 0.0000
# 2 13.9377 78.3150 7.0666 0.0000 0.0000 0.0000
# 3 -1.3767 7.0666 90.1034 0.0000 0.0000 0.0000
# 4 0.0000 0.0000 0.0000 2.9370 0.0000 0.0000
# 5 0.0000 0.0000 0.0000 0.0000 25.4816 0.0000
# 6 0.0000 0.0000 0.0000 0.0000 0.0000 3.3759
#
#
#
# Elastic Compliance Matrix: (Units=1/GPa)
#
#
# Indices 1 2 3 4 5 6 
#
# 1 0.018633 -0.003366 0.000549 0.000000 0.000000 0.000000
# 2 -0.003366 0.013468 -0.001108 0.000000 0.000000 0.000000
# 3 0.000549 -0.001108 0.011194 0.000000 0.000000 0.000000
# 4 0.000000 0.000000 0.000000 0.340486 0.000000 0.000000
# 5 0.000000 0.000000 0.000000 0.000000 0.039244 0.000000
# 6 0.000000 0.000000 0.000000 0.000000 0.000000 0.296215
#
#
# Mechanical properties :
#
#
# Convention : Reuss Voigt Hill
#
# Bulk Modulus (GPa) = 28.21238 29.32211 28.76724
# Shear Modulus (GPa) = 6.76678 20.02663 13.39670
#
# Velocity S-wave (km/s) = 1.88475 3.24241 2.65193
# Velocity P-wave (km/s) = 4.42118 5.42315 4.94760
#
# Compressibility (1/GPa) = 0.03544544
#
# Stress axis : x y z
#
# Youngs Moduli (GPa) = 53.66724 74.25074 89.33659
#
# Poissons Ratio (x) = 0.24990 -0.04902
# Poissons Ratio (y) = 0.18063 0.09896
# Poissons Ratio (z) = -0.02944 0.08225
#
# Static dielectric constant tensor:
#      x y z
#    x 1.696690 0.000000 0.000000 
#    y 0.000000 1.710240 0.000000 
#    z 0.000000 0.000000 1.734730 
# 
# From -- ./inp_files/6494.got.cif
#   From: 2010.05.17/outbox.cif.g08.bks.cpg/sg73_4_cif.got.tgz:6494.got - 2010.06.03 17:35:07.
