data_PCOD9530736
_publ_section_title
;
Structure prediction by ZEFSAII (Michael W. Deem and Ramdas Pophale) SiO2 
 PCOD9530736
Probable space group: I B C A 
;
_chemical_formula_sum "Si O2"
_cell_formula_units_Z 64
_cell_length_a 20.829529
_cell_length_b 17.023397
_cell_length_c 8.442772
_cell_angle_alpha 90.000000
_cell_angle_beta 90.000000
_cell_angle_gamma 90.000000
_cell_volume 2993.716964
_symmetry_space_group_name_H-M "I B C A "
_symmetry_group_IT_number 73
_symmetry_cell_setting 'orthorhombic'
loop_
_space_group_symop_operation_xyz
x,y,z
-x,1/2-y,z
x,-y,1/2-z
1/2-x,y,-z
-x,-y,-z
x,1/2+y,-z
-x,y,1/2+z
1/2+x,-y,z
1/2+x,1/2+y,1/2+z
1/2-x,-y,1/2+z
1/2+x,1/2-y,-z
-x,1/2+y,1/2-z
1/2-x,1/2-y,1/2-z
1/2+x,y,1/2-z
1/2-x,1/2+y,z
x,1/2-y,1/2+z
loop_
_atom_site_type_symbol
_atom_site_label
_atom_site_fract_x
_atom_site_fract_y
_atom_site_fract_z
Si Si1 0.422654 0.395099 0.777028
Si Si2 0.557896 0.071144 0.133584
Si Si3 0.618434 0.223461 0.283930
Si Si4 0.316082 0.338973 0.588452
O O1 0.482386 0.417898 0.668290
O O2 0.426138 0.300205 0.801180
O O3 0.353407 0.404144 0.691998
O O4 0.428253 0.436080 0.947280
O O5 0.590899 0.152629 0.183195
O O6 0.579409 0.000000 0.250000
O O7 0.634837 0.186980 0.451869
O O8 0.681493 0.262309 0.202345
O O9 0.250000 0.357763 0.500000
#
# Coordination Sequence:
#
# PCOD9530736 Si02
#       4
#    16  16  16  16
#     4  10  22  37  58  92 130 170 227 271 339 394
#     4  12  23  39  61  95 136 179 212 279 347 417
#     4  10  20  37  61  91 129 163 226 277 332 393
#     4  10  20  37  66  93 124 165 229 284 330 382
#
# _framework density 21.378105999999999
#
# number of rings (size 3 to 8) (size 9 to 14) (size 15 to 20)
#    1.500    0.000    2.500    3.750    0.000    2.000 
#    0.000    0.000    0.000    6.000    0.000    0.000 
#    0.000    0.000    0.000    0.000    0.000    1.750 
#
# Total GULP energy -178299.439179 kJ/mol
# GULP energy per Si atom -5571.857474 kJ/mol
# Density = 2.132945 g / cm^3
# Si number density = 21.378106 Si / 1000 Ang^3
#
#
#
# Elastic Constant Matrix: (Units=GPa)
#
#
# Indices 1 2 3 4 5 6 
#
# 1 87.3139 51.1598 62.6740 0.0000 0.0000 0.0000
# 2 51.1598 92.2002 49.6016 0.0000 0.0000 0.0000
# 3 62.6740 49.6016 151.2234 0.0000 0.0000 0.0000
# 4 0.0000 0.0000 0.0000 33.4321 0.0000 0.0000
# 5 0.0000 0.0000 0.0000 0.0000 38.8013 0.0000
# 6 0.0000 0.0000 0.0000 0.0000 0.0000 3.3550
#
#
#
# Elastic Compliance Matrix: (Units=1/GPa)
#
#
# Indices 1 2 3 4 5 6 
#
# 1 0.020406 -0.008224 -0.005760 0.000000 0.000000 0.000000
# 2 -0.008224 0.016485 -0.001998 0.000000 0.000000 0.000000
# 3 -0.005760 -0.001998 0.009655 0.000000 0.000000 0.000000
# 4 0.000000 0.000000 0.000000 0.029911 0.000000 0.000000
# 5 0.000000 0.000000 0.000000 0.000000 0.025772 0.000000
# 6 0.000000 0.000000 0.000000 0.000000 0.000000 0.298059
#
#
# Mechanical properties :
#
#
# Convention : Reuss Voigt Hill
#
# Bulk Modulus (GPa) = 68.58165 73.06757 70.82461
# Shear Modulus (GPa) = 11.43866 26.27116 18.85491
#
# Velocity S-wave (km/s) = 2.31565 3.50934 2.97302
# Velocity P-wave (km/s) = 6.26894 7.11854 6.70720
#
# Compressibility (1/GPa) = 0.01458116
#
# Stress axis : x y z
#
# Youngs Moduli (GPa) = 49.00503 60.66288 103.57034
#
# Poissons Ratio (x) = 0.49891 0.59653
# Poissons Ratio (y) = 0.40303 0.20698
# Poissons Ratio (z) = 0.28225 0.12123
#
# Static dielectric constant tensor:
#      x y z
#    x 1.776440 0.000000 0.000000 
#    y 0.000000 1.828170 0.000000 
#    z 0.000000 0.000000 1.851090 
# 
# From -- ./inp_files/5237.got.cif
#   From: 2010.05.17/outbox.cif.g08.bks.cpg/sg73_3_cif.got.tgz:5237.got - 2010.06.03 17:35:07.
