data_PCOD9530387
_publ_section_title
;
Structure prediction by ZEFSAII (Michael W. Deem and Ramdas Pophale) SiO2 
 PCOD9530387
Probable space group: I B C A 
;
_chemical_formula_sum "Si O2"
_cell_formula_units_Z 72
_cell_length_a 6.897341
_cell_length_b 25.321433
_cell_length_c 14.985350
_cell_angle_alpha 90.000000
_cell_angle_beta 90.000000
_cell_angle_gamma 90.000000
_cell_volume 2617.199739
_symmetry_space_group_name_H-M "I B C A "
_symmetry_group_IT_number 73
_symmetry_cell_setting 'orthorhombic'
loop_
_space_group_symop_operation_xyz
x,y,z
-x,1/2-y,z
x,-y,1/2-z
1/2-x,y,-z
-x,-y,-z
x,1/2+y,-z
-x,y,1/2+z
1/2+x,-y,z
1/2+x,1/2+y,1/2+z
1/2-x,-y,1/2+z
1/2+x,1/2-y,-z
-x,1/2+y,1/2-z
1/2-x,1/2-y,1/2-z
1/2+x,y,1/2-z
1/2-x,1/2+y,z
x,1/2-y,1/2+z
loop_
_atom_site_type_symbol
_atom_site_label
_atom_site_fract_x
_atom_site_fract_y
_atom_site_fract_z
Si Si1 0.750000 0.115138 0.000000
Si Si2 0.780027 0.794444 0.631515
Si Si3 0.336379 0.452743 0.131551
Si Si4 0.170290 0.685346 0.841040
Si Si5 0.403957 0.429251 0.333180
O O1 0.848229 0.161163 0.935509
O O2 0.906616 0.069907 0.961068
O O3 0.835330 0.806482 0.733866
O O4 0.547535 0.804015 0.628014
O O5 0.804030 0.731319 0.618400
O O6 0.427780 0.436697 0.225867
O O7 0.315373 0.515679 0.134128
O O8 0.125345 0.423764 0.133885
O O9 0.208636 0.623836 0.856116
#
# Coordination Sequence:
#
# PCOD9530387 Si02
#       5
#     8  16  16  16  16
#     4  12  22  42  58 100 132 164 188 292 318 364
#     4  10  22  38  71  91 127 161 215 255 329 357
#     4  11  24  37  71  88 133 162 219 259 321 362
#     4  10  19  42  66  92 117 172 212 256 293 411
#     4  11  20  42  63  95 116 179 214 253 296 404
#
# _framework density 27.510321000000001
#
# number of rings (size 3 to 8) (size 9 to 14) (size 15 to 20)
#    0.000    1.333    4.444    2.667    0.000    0.889 
#    0.000   10.000    0.000    0.000    0.000    0.000 
#    0.000    0.000    0.000    0.000    0.000    0.000 
#
# Total GULP energy -200727.266364 kJ/mol
# GULP energy per Si atom -5575.757399 kJ/mol
# Density = 2.744771 g / cm^3
# Si number density = 27.510321 Si / 1000 Ang^3
#
#
#
# Elastic Constant Matrix: (Units=GPa)
#
#
# Indices 1 2 3 4 5 6 
#
# 1 41.5465 0.7729 -5.4924 0.0000 0.0000 0.0000
# 2 0.7729 245.6566 8.8494 0.0000 0.0000 0.0000
# 3 -5.4924 8.8494 96.1908 0.0001 0.0000 0.0000
# 4 0.0000 0.0000 0.0001 142.2050 0.0000 -0.0001
# 5 0.0000 0.0000 0.0000 0.0000 15.1310 0.0000
# 6 0.0000 0.0000 0.0000 -0.0001 0.0000 4.5767
#
#
#
# Elastic Compliance Matrix: (Units=1/GPa)
#
#
# Indices 1 2 3 4 5 6 
#
# 1 0.024256 -0.000127 0.001397 0.000000 0.000000 0.000000
# 2 -0.000127 0.004085 -0.000383 0.000000 0.000000 0.000000
# 3 0.001397 -0.000383 0.010511 0.000000 0.000000 0.000000
# 4 0.000000 0.000000 0.000000 0.007032 0.000000 0.000000
# 5 0.000000 0.000000 0.000000 0.000000 0.066090 0.000000
# 6 0.000000 0.000000 0.000000 0.000000 0.000000 0.218500
#
#
# Mechanical properties :
#
#
# Convention : Reuss Voigt Hill
#
# Bulk Modulus (GPa) = 24.61458 43.51708 34.06583
# Shear Modulus (GPa) = 14.60956 57.66680 36.13818
#
# Velocity S-wave (km/s) = 2.30697 4.58338 3.62833
# Velocity P-wave (km/s) = 4.00786 6.62289 5.47383
#
# Compressibility (1/GPa) = 0.04062633
#
# Stress axis : x y z
#
# Youngs Moduli (GPa) = 41.22621 244.80288 95.13849
#
# Poissons Ratio (x) = 0.03100 -0.13288
# Poissons Ratio (y) = 0.00522 0.03644
# Poissons Ratio (z) = -0.05758 0.09377
#
# Static dielectric constant tensor:
#      x y z
#    x 2.955970 0.000000 0.000000 
#    y 0.000000 2.174600 0.000000 
#    z 0.000000 0.000000 1.677930 
# 
# From -- ./inp_files/20701.got.cif
#   From: 2010.05.17/outbox.cif.g08.bks.cpg/sg73_11_cif.got.tgz:20701.got - 2010.06.03 17:35:07.
