data_PCOD9530196
_publ_section_title
;
Structure prediction by ZEFSAII (Michael W. Deem and Ramdas Pophale) SiO2 
 PCOD9530196
Probable space group: I B C A 
;
_chemical_formula_sum "Si O2"
_cell_formula_units_Z 72
_cell_length_a 21.542353
_cell_length_b 5.079444
_cell_length_c 25.191638
_cell_angle_alpha 90.000000
_cell_angle_beta 90.000000
_cell_angle_gamma 90.000000
_cell_volume 2756.549031
_symmetry_space_group_name_H-M "I B C A "
_symmetry_group_IT_number 73
_symmetry_cell_setting 'orthorhombic'
loop_
_space_group_symop_operation_xyz
x,y,z
-x,1/2-y,z
x,-y,1/2-z
1/2-x,y,-z
-x,-y,-z
x,1/2+y,-z
-x,y,1/2+z
1/2+x,-y,z
1/2+x,1/2+y,1/2+z
1/2-x,-y,1/2+z
1/2+x,1/2-y,-z
-x,1/2+y,1/2-z
1/2-x,1/2-y,1/2-z
1/2+x,y,1/2-z
1/2-x,1/2+y,z
x,1/2-y,1/2+z
loop_
_atom_site_type_symbol
_atom_site_label
_atom_site_fract_x
_atom_site_fract_y
_atom_site_fract_z
Si Si1 0.182722 0.112970 0.977224
Si Si2 0.164547 0.500000 0.250000
Si Si3 0.160607 0.969046 0.862233
Si Si4 0.578015 0.978015 0.364630
Si Si5 0.500000 0.250000 0.459234
Si Si6 0.574238 0.000000 0.250000
O O1 0.193106 0.028094 0.917362
O O2 0.250000 0.181493 0.000000
O O3 0.149032 0.886633 0.010682
O O4 0.196826 0.516622 0.192811
O O5 0.118863 0.748248 0.250307
O O6 0.102433 0.176461 0.867272
O O7 0.138095 0.668785 0.860610
O O8 0.544168 0.107267 0.414325
O O9 0.542280 0.000578 0.307727
O O10 0.500000 0.500000 0.500000
#
# Coordination Sequence:
#
# PCOD9530196 Si02
#       6
#    16   8  16  16   8   8
#     4  10  21  35  53  79 111 141 178 229 274 328
#     4   8  16  30  53  82 105 130 176 234 276 330
#     4  10  19  35  59  81 106 143 188 231 285 339
#     4  10  21  37  57  81 109 147 190 238 284 334
#     4  12  26  40  52  78 122 156 190 234 282 342
#     4   8  16  34  55  78 103 132 186 238 278 324
#
# _framework density 26.119616000000001
#
# number of rings (size 3 to 8) (size 9 to 14) (size 15 to 20)
#    0.000    2.222    0.000    2.667    0.000    5.333 
#    0.000    7.778    0.000    5.333    0.000    0.000 
#    0.000    0.000    0.000    0.000    0.000    0.000 
#
# Total GULP energy -200586.507000 kJ/mol
# GULP energy per Si atom -5571.847417 kJ/mol
# Density = 2.606017 g / cm^3
# Si number density = 26.119616 Si / 1000 Ang^3
#
#
#
# Elastic Constant Matrix: (Units=GPa)
#
#
# Indices 1 2 3 4 5 6 
#
# 1 30.5785 9.2873 39.3225 0.0000 0.0000 0.0000
# 2 9.2873 175.9894 -8.0687 0.0000 0.0000 0.0000
# 3 39.3225 -8.0687 263.6232 0.0000 0.0000 0.0000
# 4 0.0000 0.0000 0.0000 34.1225 0.0000 0.0000
# 5 0.0000 0.0000 0.0000 0.0000 166.2914 0.0000
# 6 0.0000 0.0000 0.0000 0.0000 0.0000 16.3710
#
#
#
# Elastic Compliance Matrix: (Units=1/GPa)
#
#
# Indices 1 2 3 4 5 6 
#
# 1 0.041516 -0.002478 -0.006269 0.000000 0.000000 0.000000
# 2 -0.002478 0.005838 0.000548 0.000000 0.000000 0.000000
# 3 -0.006269 0.000548 0.004745 0.000000 0.000000 0.000000
# 4 0.000000 0.000000 0.000000 0.029306 0.000000 0.000000
# 5 0.000000 0.000000 0.000000 0.000000 0.006014 0.000000
# 6 0.000000 0.000000 0.000000 0.000000 0.000000 0.061084
#
#
# Mechanical properties :
#
#
# Convention : Reuss Voigt Hill
#
# Bulk Modulus (GPa) = 28.00911 61.25260 44.63086
# Shear Modulus (GPa) = 28.28041 72.00031 50.14036
#
# Velocity S-wave (km/s) = 3.29405 5.25599 4.38613
# Velocity P-wave (km/s) = 5.02139 7.76760 6.54026
#
# Compressibility (1/GPa) = 0.03570267
#
# Stress axis : x y z
#
# Youngs Moduli (GPa) = 24.08687 171.28900 210.74377
#
# Poissons Ratio (x) = 0.42450 1.32105
# Poissons Ratio (y) = 0.05969 -0.11556
# Poissons Ratio (z) = 0.15099 -0.09393
#
# Static dielectric constant tensor:
#      x y z
#    x 3.288730 0.000000 0.000000 
#    y 0.000000 2.190880 0.000000 
#    z 0.000000 0.000000 2.161130 
# 
# From -- ./inp_files/1719.got.cif
#   From: 2010.05.17/outbox.cif.g08.bks.cpg/sg73_1_cif.got.tgz:1719.got - 2010.06.03 17:35:07.
