data_PCOD9530818
_publ_section_title
;
Structure prediction by ZEFSAII (Michael W. Deem and Ramdas Pophale) SiO2 
 PCOD9530818
Probable space group: I B C A 
;
_chemical_formula_sum "Si O2"
_cell_formula_units_Z 72
_cell_length_a 12.322814
_cell_length_b 16.645422
_cell_length_c 16.114786
_cell_angle_alpha 90.000000
_cell_angle_beta 90.000000
_cell_angle_gamma 90.000000
_cell_volume 3305.439753
_symmetry_space_group_name_H-M "I B C A "
_symmetry_group_IT_number 73
_symmetry_cell_setting 'orthorhombic'
loop_
_space_group_symop_operation_xyz
x,y,z
-x,1/2-y,z
x,-y,1/2-z
1/2-x,y,-z
-x,-y,-z
x,1/2+y,-z
-x,y,1/2+z
1/2+x,-y,z
1/2+x,1/2+y,1/2+z
1/2-x,-y,1/2+z
1/2+x,1/2-y,-z
-x,1/2+y,1/2-z
1/2-x,1/2-y,1/2-z
1/2+x,y,1/2-z
1/2-x,1/2+y,z
x,1/2-y,1/2+z
loop_
_atom_site_type_symbol
_atom_site_label
_atom_site_fract_x
_atom_site_fract_y
_atom_site_fract_z
Si Si1 0.472152 0.550190 0.332494
Si Si2 0.179448 0.128628 0.889291
Si Si3 0.085679 0.902750 0.427877
Si Si4 0.500000 0.250000 0.335362
Si Si5 0.614213 0.718641 0.828660
O O1 0.452293 0.500000 0.250000
O O2 0.590656 0.591907 0.326939
O O3 0.469965 0.487214 0.407534
O O4 0.387115 0.623623 0.339714
O O5 0.296906 0.090048 0.883000
O O6 0.197609 0.223392 0.873110
O O7 0.123060 0.115711 0.978628
O O8 0.014114 0.829747 0.390553
O O9 0.401497 0.257215 0.268018
O O10 0.500000 0.750000 0.867629
#
# Coordination Sequence:
#
# PCOD9530818 Si02
#       5
#    16  16  16   8  16
#     4  11  20  42  60  88 123 160 201 249 300 347
#     4  10  23  41  59  89 127 156 203 245 301 358
#     4  11  23  39  61  94 119 160 201 248 295 366
#     4  10  20  38  62  82 122 154 202 238 306 346
#     4   8  18  39  59  83 115 160 193 244 295 352
#
# _framework density 21.782278000000002
#
# number of rings (size 3 to 8) (size 9 to 14) (size 15 to 20)
#    0.667    1.333    2.222    0.667    4.667    1.778 
#    4.000    2.222    0.000    0.000    0.000    0.000 
#    0.000    0.000    0.000    0.000    0.000    0.000 
#
# Total GULP energy -200510.836818 kJ/mol
# GULP energy per Si atom -5569.745467 kJ/mol
# Density = 2.173270 g / cm^3
# Si number density = 21.782278 Si / 1000 Ang^3
#
#
#
# Elastic Constant Matrix: (Units=GPa)
#
#
# Indices 1 2 3 4 5 6 
#
# 1 28.3956 27.4750 2.1644 0.0000 0.0000 0.0000
# 2 27.4750 180.5000 45.0520 0.0000 0.0000 0.0000
# 3 2.1644 45.0520 70.6188 0.0000 0.0000 0.0000
# 4 0.0000 0.0000 0.0000 25.1202 0.0000 0.0000
# 5 0.0000 0.0000 0.0000 0.0000 9.6735 0.0000
# 6 0.0000 0.0000 0.0000 0.0000 0.0000 11.7645
#
#
#
# Elastic Compliance Matrix: (Units=1/GPa)
#
#
# Indices 1 2 3 4 5 6 
#
# 1 0.041942 -0.007212 0.003315 0.000000 0.000000 0.000000
# 2 -0.007212 0.007829 -0.004774 0.000000 0.000000 0.000000
# 3 0.003315 -0.004774 0.017104 0.000000 0.000000 0.000000
# 4 0.000000 0.000000 0.000000 0.039809 0.000000 0.000000
# 5 0.000000 0.000000 0.000000 0.000000 0.103375 0.000000
# 6 0.000000 0.000000 0.000000 0.000000 0.000000 0.085001
#
#
# Mechanical properties :
#
#
# Convention : Reuss Voigt Hill
#
# Bulk Modulus (GPa) = 20.18762 47.65523 33.92143
# Shear Modulus (GPa) = 15.20157 22.96652 19.08405
#
# Velocity S-wave (km/s) = 2.64462 3.25062 2.96316
# Velocity P-wave (km/s) = 4.31432 6.00119 5.22626
#
# Compressibility (1/GPa) = 0.04953531
#
# Stress axis : x y z
#
# Youngs Moduli (GPa) = 23.84247 127.72320 58.46441
#
# Poissons Ratio (x) = 0.92110 -0.19383
# Poissons Ratio (y) = 0.17195 0.27910
# Poissons Ratio (z) = -0.07904 0.60973
#
# Static dielectric constant tensor:
#      x y z
#    x 1.830810 0.000000 0.000000 
#    y 0.000000 1.827920 0.000000 
#    z 0.000000 0.000000 1.852740 
# 
# From -- ./inp_files/21148.got.cif
#   From: 2010.05.17/outbox.cif.g08.bks.cpg/sg73_11_cif.got.tgz:21148.got - 2010.06.03 17:35:07.
