data_PCOD9530734
_publ_section_title
;
Structure prediction by ZEFSAII (Michael W. Deem and Ramdas Pophale) SiO2 
 PCOD9530734
Probable space group: I B C A 
;
_chemical_formula_sum "Si O2"
_cell_formula_units_Z 120
_cell_length_a 17.858408
_cell_length_b 18.474136
_cell_length_c 15.516872
_cell_angle_alpha 90.000000
_cell_angle_beta 90.000000
_cell_angle_gamma 90.000000
_cell_volume 5119.305589
_symmetry_space_group_name_H-M "I B C A "
_symmetry_group_IT_number 73
_symmetry_cell_setting 'orthorhombic'
loop_
_space_group_symop_operation_xyz
x,y,z
-x,1/2-y,z
x,-y,1/2-z
1/2-x,y,-z
-x,-y,-z
x,1/2+y,-z
-x,y,1/2+z
1/2+x,-y,z
1/2+x,1/2+y,1/2+z
1/2-x,-y,1/2+z
1/2+x,1/2-y,-z
-x,1/2+y,1/2-z
1/2-x,1/2-y,1/2-z
1/2+x,y,1/2-z
1/2-x,1/2+y,z
x,1/2-y,1/2+z
loop_
_atom_site_type_symbol
_atom_site_label
_atom_site_fract_x
_atom_site_fract_y
_atom_site_fract_z
Si Si1 0.308809 0.774095 0.176304
Si Si2 0.750000 0.721390 0.500000
Si Si3 0.832098 0.599203 0.586913
Si Si4 0.417718 0.609330 0.738286
Si Si5 0.472801 0.935803 0.064143
Si Si6 0.568718 0.349475 0.821613
Si Si7 0.832495 0.948042 0.517236
Si Si8 0.808010 0.540062 0.324301
O O1 0.250000 0.750000 0.250000
O O2 0.269957 0.766911 0.084223
O O3 0.345427 0.851220 0.197150
O O4 0.379586 0.719860 0.176078
O O5 0.819908 0.669163 0.527428
O O6 0.892489 0.600819 0.662989
O O7 0.839310 0.523880 0.536042
O O8 0.749141 0.592585 0.628858
O O9 0.443292 0.550438 0.663926
O O10 0.493972 0.656541 0.734957
O O11 0.538036 0.878709 0.085712
O O12 0.402190 0.901908 0.014131
O O13 0.500000 0.000000 0.000000
O O14 0.622322 0.414584 0.790531
O O15 0.750000 0.919376 0.500000
O O16 0.836686 0.976973 0.613558
O O17 0.763006 0.500000 0.250000
#
# Coordination Sequence:
#
# PCOD9530734 Si02
#       8
#    16   8  16  16  16  16  16  16
#     4  12  23  47  76 101 138 185 252 314 370 443
#     4  12  22  42  80  96 136 182 244 308 370 426
#     4  11  21  41  67 101 129 189 240 290 361 444
#     4  10  24  40  70 100 138 185 234 301 365 442
#     4  10  22  41  66 100 147 188 227 296 371 444
#     4  10  22  42  68  95 142 189 231 302 370 436
#     4  10  20  37  61  90 138 181 232 285 343 438
#     4  11  21  35  61  97 135 181 231 286 356 429
#
# _framework density 23.440678999999999
#
# number of rings (size 3 to 8) (size 9 to 14) (size 15 to 20)
#    0.800    0.533    6.000    0.400    3.733    1.067 
#    1.200    0.000    8.800    0.000    0.000    0.000 
#    0.000    0.000    0.000    0.000    0.000    0.000 
#
# Total GULP energy -334652.242052 kJ/mol
# GULP energy per Si atom -5577.537368 kJ/mol
# Density = 2.338733 g / cm^3
# Si number density = 23.440679 Si / 1000 Ang^3
#
#
#
# Elastic Constant Matrix: (Units=GPa)
#
#
# Indices 1 2 3 4 5 6 
#
# 1 118.3072 17.9942 32.1016 0.0000 0.0000 0.0000
# 2 17.9942 54.0778 30.8898 0.0000 0.0000 0.0000
# 3 32.1016 30.8898 136.8003 0.0000 0.0000 0.0000
# 4 0.0000 0.0000 0.0000 24.2314 0.0000 0.0000
# 5 0.0000 0.0000 0.0000 0.0000 49.0531 0.0000
# 6 0.0000 0.0000 0.0000 0.0000 0.0000 0.4865
#
#
#
# Elastic Compliance Matrix: (Units=1/GPa)
#
#
# Indices 1 2 3 4 5 6 
#
# 1 0.009232 -0.002106 -0.001691 0.000000 0.000000 0.000000
# 2 -0.002106 0.021711 -0.004408 0.000000 0.000000 0.000000
# 3 -0.001691 -0.004408 0.008702 0.000000 0.000000 0.000000
# 4 0.000000 0.000000 0.000000 0.041269 0.000000 0.000000
# 5 0.000000 0.000000 0.000000 0.000000 0.020386 0.000000
# 6 0.000000 0.000000 0.000000 0.000000 0.000000 2.055392
#
#
# Mechanical properties :
#
#
# Convention : Reuss Voigt Hill
#
# Bulk Modulus (GPa) = 43.03940 52.35073 47.69506
# Shear Modulus (GPa) = 2.29269 29.96751 16.13010
#
# Velocity S-wave (km/s) = 0.99005 3.57941 2.62606
# Velocity P-wave (km/s) = 4.43935 6.28209 5.43932
#
# Compressibility (1/GPa) = 0.02323453
#
# Stress axis : x y z
#
# Youngs Moduli (GPa) = 108.32282 46.06046 114.91566
#
# Poissons Ratio (x) = 0.09700 0.19429
# Poissons Ratio (y) = 0.22813 0.50656
# Poissons Ratio (z) = 0.18315 0.20304
#
# Static dielectric constant tensor:
#      x y z
#    x 1.820710 0.000000 0.000000 
#    y 0.000000 1.991290 0.000000 
#    z 0.000000 0.000000 1.932780 
# 
# From -- ./inp_files/18942.got.cif
#   From: 2010.05.17/outbox.cif.g08.bks.cpg/sg73_10_cif.got.tgz:18942.got - 2010.06.03 17:35:07.
