data_PCOD9530316
_publ_section_title
;
Structure prediction by ZEFSAII (Michael W. Deem and Ramdas Pophale) SiO2 
 PCOD9530316
Probable space group: I B C A 
;
_chemical_formula_sum "Si O2"
_cell_formula_units_Z 112
_cell_length_a 12.892715
_cell_length_b 19.018236
_cell_length_c 20.277573
_cell_angle_alpha 90.000000
_cell_angle_beta 90.000000
_cell_angle_gamma 90.000000
_cell_volume 4971.993914
_symmetry_space_group_name_H-M "I B C A "
_symmetry_group_IT_number 73
_symmetry_cell_setting 'orthorhombic'
loop_
_space_group_symop_operation_xyz
x,y,z
-x,1/2-y,z
x,-y,1/2-z
1/2-x,y,-z
-x,-y,-z
x,1/2+y,-z
-x,y,1/2+z
1/2+x,-y,z
1/2+x,1/2+y,1/2+z
1/2-x,-y,1/2+z
1/2+x,1/2-y,-z
-x,1/2+y,1/2-z
1/2-x,1/2-y,1/2-z
1/2+x,y,1/2-z
1/2-x,1/2+y,z
x,1/2-y,1/2+z
loop_
_atom_site_type_symbol
_atom_site_label
_atom_site_fract_x
_atom_site_fract_y
_atom_site_fract_z
Si Si1 0.062695 0.419321 0.426007
Si Si2 0.422616 0.802781 0.900468
Si Si3 0.214582 0.059276 0.111167
Si Si4 0.015078 0.419477 0.074980
Si Si5 0.748103 0.375695 0.754592
Si Si6 0.252243 0.600388 0.602804
Si Si7 0.612354 0.257053 0.243013
O O1 0.185679 0.404607 0.423796
O O2 0.043293 0.499728 0.407100
O O3 0.997559 0.367269 0.380837
O O4 0.010571 0.411421 0.497660
O O5 0.500000 0.750000 0.939357
O O6 0.320765 0.839994 0.929112
O O7 0.389228 0.761456 0.834854
O O8 0.240591 0.066860 0.188860
O O9 0.100032 0.091971 0.104423
O O10 0.218922 0.979170 0.083004
O O11 0.125726 0.384144 0.091988
O O12 0.724462 0.398975 0.680738
O O13 0.858352 0.337922 0.749307
O O14 0.682320 0.305183 0.773092
O O15 0.500000 0.250000 0.272470
#
# Coordination Sequence:
#
# PCOD9530316 Si02
#       7
#    16  16  16  16  16  16  16
#     4  10  21  39  64  90 120 165 215 250 325 374
#     4  10  19  38  65  84 119 164 214 252 300 393
#     4  11  20  37  60  94 125 165 200 268 324 381
#     4  10  22  38  63  92 124 160 204 275 314 378
#     4  10  21  35  57  87 122 162 202 256 311 377
#     4  10  22  38  58  97 127 156 217 254 326 375
#     4   9  19  35  56  82 112 168 207 237 300 379
#
# _framework density 22.526173
#
# number of rings (size 3 to 8) (size 9 to 14) (size 15 to 20)
#    0.000    2.000    1.429    2.571    2.000    0.571 
#    0.000    1.429   18.857    0.000    0.000    0.000 
#    0.000    0.000    0.000    0.000    0.000    0.000 
#
# Total GULP energy -311860.761505 kJ/mol
# GULP energy per Si atom -5568.942170 kJ/mol
# Density = 2.247490 g / cm^3
# Si number density = 22.526173 Si / 1000 Ang^3
#
#
#
# Elastic Constant Matrix: (Units=GPa)
#
#
# Indices 1 2 3 4 5 6 
#
# 1 190.3991 34.1721 13.4507 0.0000 0.0000 0.0000
# 2 34.1721 51.4725 4.9815 0.0000 0.0000 0.0000
# 3 13.4507 4.9815 38.8121 0.0000 0.0000 0.0000
# 4 0.0000 0.0000 0.0000 3.3403 0.0000 0.0000
# 5 0.0000 0.0000 0.0000 0.0000 23.7787 0.0000
# 6 0.0000 0.0000 0.0000 0.0000 0.0000 34.7528
#
#
#
# Elastic Compliance Matrix: (Units=1/GPa)
#
#
# Indices 1 2 3 4 5 6 
#
# 1 0.006060 -0.003868 -0.001604 0.000000 0.000000 0.000000
# 2 -0.003868 0.022141 -0.001501 0.000000 0.000000 0.000000
# 3 -0.001604 -0.001501 0.026514 0.000000 0.000000 0.000000
# 4 0.000000 0.000000 0.000000 0.299376 0.000000 0.000000
# 5 0.000000 0.000000 0.000000 0.000000 0.042054 0.000000
# 6 0.000000 0.000000 0.000000 0.000000 0.000000 0.028775
#
#
# Mechanical properties :
#
#
# Convention : Reuss Voigt Hill
#
# Bulk Modulus (GPa) = 24.52862 42.87693 33.70278
# Shear Modulus (GPa) = 11.05084 27.57965 19.31525
#
# Velocity S-wave (km/s) = 2.21730 3.50285 2.93142
# Velocity P-wave (km/s) = 4.17945 5.95278 5.14312
#
# Compressibility (1/GPa) = 0.04076870
#
# Stress axis : x y z
#
# Youngs Moduli (GPa) = 165.02818 45.16530 37.71653
#
# Poissons Ratio (x) = 0.17469 0.06048
# Poissons Ratio (y) = 0.63828 0.05663
# Poissons Ratio (z) = 0.26464 0.06781
#
# Static dielectric constant tensor:
#      x y z
#    x 1.956970 0.000000 0.000000 
#    y 0.000000 1.875840 0.000000 
#    z 0.000000 0.000000 1.863890 
# 
# From -- ./inp_files/29032.got.cif
#   From: 2010.05.17/outbox.cif.g08.bks.cpg/sg73_15_cif.got.tgz:29032.got - 2010.06.03 17:35:07.
