data_PCOD9530564
_publ_section_title
;
Structure prediction by ZEFSAII (Michael W. Deem and Ramdas Pophale) SiO2 
 PCOD9530564
Probable space group: I B C A 
;
_chemical_formula_sum "Si O2"
_cell_formula_units_Z 80
_cell_length_a 14.374712
_cell_length_b 10.743524
_cell_length_c 22.629559
_cell_angle_alpha 90.000000
_cell_angle_beta 90.000000
_cell_angle_gamma 90.000000
_cell_volume 3494.797378
_symmetry_space_group_name_H-M "I B C A "
_symmetry_group_IT_number 73
_symmetry_cell_setting 'orthorhombic'
loop_
_space_group_symop_operation_xyz
x,y,z
-x,1/2-y,z
x,-y,1/2-z
1/2-x,y,-z
-x,-y,-z
x,1/2+y,-z
-x,y,1/2+z
1/2+x,-y,z
1/2+x,1/2+y,1/2+z
1/2-x,-y,1/2+z
1/2+x,1/2-y,-z
-x,1/2+y,1/2-z
1/2-x,1/2-y,1/2-z
1/2+x,y,1/2-z
1/2-x,1/2+y,z
x,1/2-y,1/2+z
loop_
_atom_site_type_symbol
_atom_site_label
_atom_site_fract_x
_atom_site_fract_y
_atom_site_fract_z
Si Si1 0.361276 0.907634 0.815622
Si Si2 0.750000 0.307553 0.500000
Si Si3 0.399150 0.799501 0.414363
Si Si4 0.469065 0.000000 0.250000
Si Si5 0.686936 0.055501 0.884085
Si Si6 0.889305 0.734455 0.788904
O O1 0.376952 0.794511 0.860628
O O2 0.278981 0.984207 0.846691
O O3 0.344530 0.842539 0.751236
O O4 0.457929 0.980348 0.804040
O O5 0.672662 0.224571 0.532434
O O6 0.789555 0.395538 0.551199
O O7 0.500000 0.750000 0.434166
O O8 0.383496 0.940613 0.392104
O O9 0.399571 0.885676 0.252488
O O10 0.655419 0.178499 0.847397
O O11 0.000000 0.750000 0.800677
#
# Coordination Sequence:
#
# PCOD9530564 Si02
#       6
#    16   8  16   8  16  16
#     4  10  22  38  59  94 130 162 205 257 321 394
#     4  10  26  44  62  94 126 164 226 280 330 392
#     4  11  23  43  68  91 125 170 217 270 328 395
#     4  10  20  36  60  94 130 164 208 256 318 398
#     4  11  23  41  63  88 125 168 211 271 329 384
#     4  10  20  35  59  91 126 162 206 257 320 397
#
# _framework density 22.891169000000001
#
# number of rings (size 3 to 8) (size 9 to 14) (size 15 to 20)
#    0.000    1.600    0.000    5.400    0.000   10.400 
#    0.000    0.000    0.000    0.000    0.000    0.000 
#    0.000    0.000    0.000    0.000    0.000    0.000 
#
# Total GULP energy -223016.517390 kJ/mol
# GULP energy per Si atom -5575.412935 kJ/mol
# Density = 2.283907 g / cm^3
# Si number density = 22.891169 Si / 1000 Ang^3
#
#
#
# Elastic Constant Matrix: (Units=GPa)
#
#
# Indices 1 2 3 4 5 6 
#
# 1 79.3555 24.0473 59.2032 0.0000 0.0000 0.0000
# 2 24.0473 85.1880 34.9306 0.0000 0.0000 0.0000
# 3 59.2032 34.9306 159.7422 0.0000 0.0000 0.0000
# 4 0.0000 0.0000 0.0000 23.3272 0.0000 0.0000
# 5 0.0000 0.0000 0.0000 0.0000 48.2340 0.0000
# 6 0.0000 0.0000 0.0000 0.0000 0.0000 4.1884
#
#
#
# Elastic Compliance Matrix: (Units=1/GPa)
#
#
# Indices 1 2 3 4 5 6 
#
# 1 0.017913 -0.002564 -0.006078 0.000000 0.000000 0.000000
# 2 -0.002564 0.013262 -0.001950 0.000000 0.000000 0.000000
# 3 -0.006078 -0.001950 0.008939 0.000000 0.000000 0.000000
# 4 0.000000 0.000000 0.000000 0.042868 0.000000 0.000000
# 5 0.000000 0.000000 0.000000 0.000000 0.020732 0.000000
# 6 0.000000 0.000000 0.000000 0.000000 0.000000 0.238755
#
#
# Mechanical properties :
#
#
# Convention : Reuss Voigt Hill
#
# Bulk Modulus (GPa) = 52.82597 62.29420 57.56009
# Shear Modulus (GPa) = 13.51483 28.89022 21.20252
#
# Velocity S-wave (km/s) = 2.43244 3.55641 3.04671
# Velocity P-wave (km/s) = 5.56921 6.64352 6.12995
#
# Compressibility (1/GPa) = 0.01893008
#
# Stress axis : x y z
#
# Youngs Moduli (GPa) = 55.82459 75.40317 111.86813
#
# Poissons Ratio (x) = 0.19336 0.67996
# Poissons Ratio (y) = 0.14315 0.21810
# Poissons Ratio (z) = 0.33931 0.14701
#
# Static dielectric constant tensor:
#      x y z
#    x 1.935110 0.000000 0.000000 
#    y 0.000000 2.103710 0.000000 
#    z 0.000000 0.000000 1.833070 
# 
# From -- ./inp_files/13466.got.cif
#   From: 2010.05.17/outbox.cif.g08.bks.cpg/sg73_7_cif.got.tgz:13466.got - 2010.06.03 17:35:07.
