data_PCOD9530080
_publ_section_title
;
Structure prediction by ZEFSAII (Michael W. Deem and Ramdas Pophale) SiO2 
 PCOD9530080
Probable space group: I B C A 
;
_chemical_formula_sum "Si O2"
_cell_formula_units_Z 88
_cell_length_a 13.565472
_cell_length_b 16.037986
_cell_length_c 19.093272
_cell_angle_alpha 90.000000
_cell_angle_beta 90.000000
_cell_angle_gamma 90.000000
_cell_volume 4153.986673
_symmetry_space_group_name_H-M "I B C A "
_symmetry_group_IT_number 73
_symmetry_cell_setting 'orthorhombic'
loop_
_space_group_symop_operation_xyz
x,y,z
-x,1/2-y,z
x,-y,1/2-z
1/2-x,y,-z
-x,-y,-z
x,1/2+y,-z
-x,y,1/2+z
1/2+x,-y,z
1/2+x,1/2+y,1/2+z
1/2-x,-y,1/2+z
1/2+x,1/2-y,-z
-x,1/2+y,1/2-z
1/2-x,1/2-y,1/2-z
1/2+x,y,1/2-z
1/2-x,1/2+y,z
x,1/2-y,1/2+z
loop_
_atom_site_type_symbol
_atom_site_label
_atom_site_fract_x
_atom_site_fract_y
_atom_site_fract_z
Si Si1 0.642896 0.053596 0.814227
Si Si2 0.506737 0.067504 0.440448
Si Si3 0.365688 0.483905 0.169267
Si Si4 0.105880 0.204294 0.318135
Si Si5 0.000000 0.750000 0.437704
Si Si6 0.325556 0.756472 0.173411
O O1 0.580397 0.055131 0.884455
O O2 0.748332 0.015646 0.831086
O O3 0.658446 0.150329 0.794698
O O4 0.601634 0.000000 0.750000
O O5 0.502859 0.159963 0.473121
O O6 0.500000 0.000000 0.500000
O O7 0.597707 0.048535 0.388696
O O8 0.394190 0.500000 0.250000
O O9 0.399778 0.389308 0.151962
O O10 0.208779 0.247914 0.344977
O O11 0.134199 0.197435 0.235180
O O12 0.000000 0.250000 0.325996
O O13 0.901448 0.749968 0.390014
#
# Coordination Sequence:
#
# PCOD9530080 Si02
#       6
#    16  16  16  16   8  16
#     4   9  20  37  61  90 124 160 204 258 304 367
#     4  11  24  41  64  90 124 167 207 255 313 375
#     4  10  21  38  61  90 122 160 208 255 311 368
#     4  10  19  31  52  91 127 154 201 258 302 368
#     4  10  20  42  62  80 122 166 210 248 310 388
#     4   9  18  32  56  86 124 167 195 249 322 362
#
# _framework density 21.184467999999999
#
# number of rings (size 3 to 8) (size 9 to 14) (size 15 to 20)
#    0.000    2.182    0.909    1.636    5.091    2.182 
#    1.636    0.000    0.000    2.182    0.000    0.000 
#    0.000    0.000    0.000    0.000    0.000    0.000 
#
# Total GULP energy -245375.463752 kJ/mol
# GULP energy per Si atom -5576.715085 kJ/mol
# Density = 2.113625 g / cm^3
# Si number density = 21.184468 Si / 1000 Ang^3
#
#
#
# Elastic Constant Matrix: (Units=GPa)
#
#
# Indices 1 2 3 4 5 6 
#
# 1 131.6306 31.6660 -4.4562 0.0000 0.0000 0.0000
# 2 31.6660 126.2067 42.8714 0.0000 0.0000 0.0000
# 3 -4.4562 42.8714 42.0384 0.0000 0.0000 0.0000
# 4 0.0000 0.0000 0.0000 35.9393 0.0000 0.0000
# 5 0.0000 0.0000 0.0000 0.0000 14.9446 0.0000
# 6 0.0000 0.0000 0.0000 0.0000 0.0000 25.4909
#
#
#
# Elastic Compliance Matrix: (Units=1/GPa)
#
#
# Indices 1 2 3 4 5 6 
#
# 1 0.008676 -0.003809 0.004804 0.000000 0.000000 0.000000
# 2 -0.003809 0.013795 -0.014472 0.000000 0.000000 0.000000
# 3 0.004804 -0.014472 0.039056 0.000000 0.000000 0.000000
# 4 0.000000 0.000000 0.000000 0.027825 0.000000 0.000000
# 5 0.000000 0.000000 0.000000 0.000000 0.066914 0.000000
# 6 0.000000 0.000000 0.000000 0.000000 0.000000 0.039230
#
#
# Mechanical properties :
#
#
# Convention : Reuss Voigt Hill
#
# Bulk Modulus (GPa) = 28.92444 48.89312 38.90878
# Shear Modulus (GPa) = 21.36988 30.59460 25.98224
#
# Velocity S-wave (km/s) = 3.17953 3.80439 3.50591
# Velocity P-wave (km/s) = 5.21176 6.51365 5.89873
#
# Compressibility (1/GPa) = 0.03457284
#
# Stress axis : x y z
#
# Youngs Moduli (GPa) = 115.26209 72.48865 25.60419
#
# Poissons Ratio (x) = 0.27608 -0.12300
# Poissons Ratio (y) = 0.43899 0.37055
# Poissons Ratio (z) = -0.55369 1.04908
#
# Static dielectric constant tensor:
#      x y z
#    x 1.805240 0.000000 0.000000 
#    y 0.000000 1.833570 0.000000 
#    z 0.000000 0.000000 1.736590 
# 
# From -- ./inp_files/18544.got.cif
#   From: 2010.05.17/outbox.cif.g08.bks.cpg/sg73_10_cif.got.tgz:18544.got - 2010.06.03 17:35:07.
