data_PCOD9530752
_publ_section_title
;
Structure prediction by ZEFSAII (Michael W. Deem and Ramdas Pophale) SiO2 
 PCOD9530752
Probable space group: I B C A 
;
_chemical_formula_sum "Si O2"
_cell_formula_units_Z 80
_cell_length_a 27.266347
_cell_length_b 16.015149
_cell_length_c 8.801355
_cell_angle_alpha 90.000000
_cell_angle_beta 90.000000
_cell_angle_gamma 90.000000
_cell_volume 3843.328261
_symmetry_space_group_name_H-M "I B C A "
_symmetry_group_IT_number 73
_symmetry_cell_setting 'orthorhombic'
loop_
_space_group_symop_operation_xyz
x,y,z
-x,1/2-y,z
x,-y,1/2-z
1/2-x,y,-z
-x,-y,-z
x,1/2+y,-z
-x,y,1/2+z
1/2+x,-y,z
1/2+x,1/2+y,1/2+z
1/2-x,-y,1/2+z
1/2+x,1/2-y,-z
-x,1/2+y,1/2-z
1/2-x,1/2-y,1/2-z
1/2+x,y,1/2-z
1/2-x,1/2+y,z
x,1/2-y,1/2+z
loop_
_atom_site_type_symbol
_atom_site_label
_atom_site_fract_x
_atom_site_fract_y
_atom_site_fract_z
Si Si1 0.649485 0.203416 0.950502
Si Si2 0.045767 0.406971 0.555704
Si Si3 0.250000 0.384915 0.000000
Si Si4 0.208792 0.500000 0.250000
Si Si5 0.639832 0.634678 0.384201
Si Si6 0.944050 0.891390 0.594877
O O1 0.645500 0.183809 0.772922
O O2 0.700215 0.166702 0.013547
O O3 0.652649 0.301427 0.982559
O O4 0.602966 0.156043 0.026060
O O5 0.084316 0.387350 0.423231
O O6 0.053824 0.507236 0.576664
O O7 0.054177 0.372030 0.725310
O O8 0.993881 0.372116 0.496637
O O9 0.241682 0.440628 0.148311
O O10 0.173598 0.446416 0.361560
#
# Coordination Sequence:
#
# PCOD9530752 Si02
#       6
#    16  16   8   8  16  16
#     4  11  24  40  60  90 125 161 210 261 316 370
#     4  10  20  37  63  91 127 165 204 251 308 375
#     4  10  24  42  64  92 122 162 208 260 312 374
#     4  10  24  42  66  90 120 164 210 258 314 382
#     4  11  23  41  63  91 126 165 208 262 318 382
#     4  10  21  37  61  93 125 165 207 252 307 372
#
# _framework density 20.815290999999998
#
# number of rings (size 3 to 8) (size 9 to 14) (size 15 to 20)
#    0.000    1.600    0.000    4.800    0.000   12.800 
#    0.000    4.000    0.000    0.000    0.000    0.000 
#    0.000    0.000    0.000    0.000    0.000    0.000 
#
# Total GULP energy -223231.435792 kJ/mol
# GULP energy per Si atom -5580.785895 kJ/mol
# Density = 2.076791 g / cm^3
# Si number density = 20.815291 Si / 1000 Ang^3
#
#
#
# Elastic Constant Matrix: (Units=GPa)
#
#
# Indices 1 2 3 4 5 6 
#
# 1 126.9982 22.0924 21.4596 0.0000 0.0000 0.0000
# 2 22.0924 41.6620 -2.8838 0.0000 0.0000 0.0000
# 3 21.4596 -2.8838 50.3273 0.0000 0.0000 0.0000
# 4 0.0000 0.0000 0.0000 22.1253 0.0000 0.0000
# 5 0.0000 0.0000 0.0000 0.0000 26.1952 0.0000
# 6 0.0000 0.0000 0.0000 0.0000 0.0000 9.4422
#
#
#
# Elastic Compliance Matrix: (Units=1/GPa)
#
#
# Indices 1 2 3 4 5 6 
#
# 1 0.009547 -0.005366 -0.004378 0.000000 0.000000 0.000000
# 2 -0.005366 0.027114 0.003842 0.000000 0.000000 0.000000
# 3 -0.004378 0.003842 0.021957 0.000000 0.000000 0.000000
# 4 0.000000 0.000000 0.000000 0.045197 0.000000 0.000000
# 5 0.000000 0.000000 0.000000 0.000000 0.038175 0.000000
# 6 0.000000 0.000000 0.000000 0.000000 0.000000 0.105907
#
#
# Mechanical properties :
#
#
# Convention : Reuss Voigt Hill
#
# Bulk Modulus (GPa) = 21.36153 33.36930 27.36542
# Shear Modulus (GPa) = 18.16152 23.44052 20.80102
#
# Velocity S-wave (km/s) = 2.95703 3.35941 3.16462
# Velocity P-wave (km/s) = 4.68438 5.57795 5.15058
#
# Compressibility (1/GPa) = 0.04681313
#
# Stress axis : x y z
#
# Youngs Moduli (GPa) = 104.74041 36.88133 45.54342
#
# Poissons Ratio (x) = 0.19790 0.19941
# Poissons Ratio (y) = 0.56202 -0.17496
# Poissons Ratio (z) = 0.45860 -0.14169
#
# Static dielectric constant tensor:
#      x y z
#    x 1.742990 0.000000 0.000000 
#    y 0.000000 1.799630 0.000000 
#    z 0.000000 0.000000 1.719190 
# 
# From -- ./inp_files/7751.got.cif
#   From: 2010.05.17/outbox.cif.g08.bks.cpg/sg73_4_cif.got.tgz:7751.got - 2010.06.03 17:35:07.
