data_PCOD9530369
_publ_section_title
;
Structure prediction by ZEFSAII (Michael W. Deem and Ramdas Pophale) SiO2 
 PCOD9530369
Probable space group: I B C A 
;
_chemical_formula_sum "Si O2"
_cell_formula_units_Z 120
_cell_length_a 15.639367
_cell_length_b 15.926168
_cell_length_c 22.044739
_cell_angle_alpha 90.000000
_cell_angle_beta 90.000000
_cell_angle_gamma 90.000000
_cell_volume 5490.797472
_symmetry_space_group_name_H-M "I B C A "
_symmetry_group_IT_number 73
_symmetry_cell_setting 'orthorhombic'
loop_
_space_group_symop_operation_xyz
x,y,z
-x,1/2-y,z
x,-y,1/2-z
1/2-x,y,-z
-x,-y,-z
x,1/2+y,-z
-x,y,1/2+z
1/2+x,-y,z
1/2+x,1/2+y,1/2+z
1/2-x,-y,1/2+z
1/2+x,1/2-y,-z
-x,1/2+y,1/2-z
1/2-x,1/2-y,1/2-z
1/2+x,y,1/2-z
1/2-x,1/2+y,z
x,1/2-y,1/2+z
loop_
_atom_site_type_symbol
_atom_site_label
_atom_site_fract_x
_atom_site_fract_y
_atom_site_fract_z
Si Si1 0.997108 0.848543 0.383246
Si Si2 0.556329 0.597918 0.735846
Si Si3 0.861007 0.379523 0.773366
Si Si4 0.833604 0.962379 0.350327
Si Si5 0.500000 0.250000 0.600620
Si Si6 0.334721 0.792204 0.822276
Si Si7 0.788493 0.611358 0.064400
Si Si8 0.517821 0.402741 0.517538
O O1 0.911159 0.903778 0.373055
O O2 0.005441 0.857114 0.454634
O O3 0.000000 0.750000 0.367444
O O4 0.064058 0.888941 0.336276
O O5 0.552801 0.500000 0.750000
O O6 0.461166 0.633148 0.754174
O O7 0.631446 0.640604 0.773557
O O8 0.814156 0.419463 0.714890
O O9 0.861183 0.445243 0.828721
O O10 0.812976 0.294769 0.790390
O O11 0.763751 0.964618 0.403925
O O12 0.421081 0.229557 0.642106
O O13 0.476489 0.335258 0.563986
O O14 0.278459 0.824401 0.878848
O O15 0.886102 0.594321 0.045859
O O16 0.750000 0.638870 0.000000
O O17 0.500000 0.500000 0.500000
#
# Coordination Sequence:
#
# PCOD9530369 Si02
#       8
#    16  16  16  16   8  16  16  16
#     4  11  21  38  65  95 128 166 219 275 327 397
#     4  11  20  36  65 104 131 167 213 281 337 387
#     4  10  19  40  67  96 127 178 215 270 341 407
#     4  10  21  40  65  90 133 172 219 261 342 403
#     4  10  22  38  62  94 128 172 220 272 338 394
#     4  11  23  39  66  94 138 166 226 273 335 393
#     4  11  25  45  63  92 134 184 218 275 332 400
#     4  11  25  42  66  95 128 175 227 279 332 395
#
# _framework density 21.854749000000002
#
# number of rings (size 3 to 8) (size 9 to 14) (size 15 to 20)
#    0.000    1.333    6.000    1.600    5.600    0.533 
#    2.400    4.667    0.000    0.000    0.000    0.000 
#    0.000    0.000    0.000    0.000    0.000    0.000 
#
# Total GULP energy -334140.846123 kJ/mol
# GULP energy per Si atom -5569.014102 kJ/mol
# Density = 2.180501 g / cm^3
# Si number density = 21.854749 Si / 1000 Ang^3
#
#
#
# Elastic Constant Matrix: (Units=GPa)
#
#
# Indices 1 2 3 4 5 6 
#
# 1 45.9441 6.5960 22.0846 0.0000 0.0000 0.0000
# 2 6.5960 97.7309 26.3990 0.0000 0.0000 0.0000
# 3 22.0846 26.3990 111.2009 0.0000 0.0000 0.0000
# 4 0.0000 0.0000 0.0000 34.7803 0.0000 0.0000
# 5 0.0000 0.0000 0.0000 0.0000 16.3586 0.0000
# 6 0.0000 0.0000 0.0000 0.0000 0.0000 14.1978
#
#
#
# Elastic Compliance Matrix: (Units=1/GPa)
#
#
# Indices 1 2 3 4 5 6 
#
# 1 0.024074 -0.000356 -0.004697 0.000000 0.000000 0.000000
# 2 -0.000356 0.010939 -0.002526 0.000000 0.000000 0.000000
# 3 -0.004697 -0.002526 0.010525 0.000000 0.000000 0.000000
# 4 0.000000 0.000000 0.000000 0.028752 0.000000 0.000000
# 5 0.000000 0.000000 0.000000 0.000000 0.061130 0.000000
# 6 0.000000 0.000000 0.000000 0.000000 0.000000 0.070433
#
#
# Mechanical properties :
#
#
# Convention : Reuss Voigt Hill
#
# Bulk Modulus (GPa) = 32.91604 40.55945 36.73774
# Shear Modulus (GPa) = 21.63211 26.38708 24.00960
#
# Velocity S-wave (km/s) = 3.14954 3.47851 3.31811
# Velocity P-wave (km/s) = 5.32167 5.89341 5.61482
#
# Compressibility (1/GPa) = 0.03038033
#
# Stress axis : x y z
#
# Youngs Moduli (GPa) = 41.53806 91.41967 95.01020
#
# Poissons Ratio (x) = 0.03256 0.44623
# Poissons Ratio (y) = 0.01479 0.24000
# Poissons Ratio (z) = 0.19509 0.23093
#
# Static dielectric constant tensor:
#      x y z
#    x 1.867460 0.000000 0.000000 
#    y 0.000000 1.820870 0.000000 
#    z 0.000000 0.000000 1.880300 
# 
# From -- ./inp_files/29885.got.cif
#   From: 2010.05.17/outbox.cif.g08.bks.cpg/sg73_15_cif.got.tgz:29885.got - 2010.06.03 17:35:07.
