data_PCOD9530481
_publ_section_title
;
Structure prediction by ZEFSAII (Michael W. Deem and Ramdas Pophale) SiO2 
 PCOD9530481
Probable space group: I B C A 
;
_chemical_formula_sum "Si O2"
_cell_formula_units_Z 96
_cell_length_a 31.352443
_cell_length_b 5.376225
_cell_length_c 30.675570
_cell_angle_alpha 90.000000
_cell_angle_beta 90.000000
_cell_angle_gamma 90.000000
_cell_volume 5170.606221
_symmetry_space_group_name_H-M "I B C A "
_symmetry_group_IT_number 73
_symmetry_cell_setting 'orthorhombic'
loop_
_space_group_symop_operation_xyz
x,y,z
-x,1/2-y,z
x,-y,1/2-z
1/2-x,y,-z
-x,-y,-z
x,1/2+y,-z
-x,y,1/2+z
1/2+x,-y,z
1/2+x,1/2+y,1/2+z
1/2-x,-y,1/2+z
1/2+x,1/2-y,-z
-x,1/2+y,1/2-z
1/2-x,1/2-y,1/2-z
1/2+x,y,1/2-z
1/2-x,1/2+y,z
x,1/2-y,1/2+z
loop_
_atom_site_type_symbol
_atom_site_label
_atom_site_fract_x
_atom_site_fract_y
_atom_site_fract_z
Si Si1 0.858328 0.730738 0.828354
Si Si2 0.425000 0.021900 0.883064
Si Si3 0.000000 0.750000 0.826211
Si Si4 0.448575 0.287631 0.477986
Si Si5 0.387550 0.500000 0.250000
Si Si6 0.276179 0.510895 0.801492
Si Si7 0.935537 0.130173 0.312221
O O1 0.878242 0.879525 0.868943
O O2 0.816786 0.562751 0.830856
O O3 0.897055 0.563119 0.811325
O O4 0.855111 0.918070 0.788004
O O5 0.461031 0.170893 0.856550
O O6 0.434190 0.086028 0.932804
O O7 0.432916 0.751961 0.860955
O O8 0.979766 0.510833 0.803080
O O9 0.500000 0.250000 0.478036
O O10 0.434473 0.502034 0.512739
O O11 0.420645 0.673328 0.276400
O O12 0.288293 0.500000 0.750000
O O13 0.242799 0.284719 0.809224
#
# Coordination Sequence:
#
# PCOD9530481 Si02
#       7
#    16  16   8  16   8  16  16
#     4  10  22  36  58  78 109 154 187 235 288 344
#     4  10  21  36  59  76 112 147 185 232 284 342
#     4  10  20  34  54  74 100 144 190 236 276 334
#     4  10  22  36  59  87 114 145 183 233 287 351
#     4  10  20  36  56  74 104 146 196 238 284 336
#     4  10  22  35  56  86 117 148 189 239 287 345
#     4  10  21  34  58  71 104 146 195 241 279 331
#
# _framework density 18.566488
#
# number of rings (size 3 to 8) (size 9 to 14) (size 15 to 20)
#    0.000    2.000    0.833    2.000   12.833    1.333 
#    0.000    0.000  132.000    0.000    0.000    0.000 
#    0.000    4.000    0.000    0.000    0.000    0.000 
#
# Total GULP energy -267313.104192 kJ/mol
# GULP energy per Si atom -5569.023004 kJ/mol
# Density = 1.852423 g / cm^3
# Si number density = 18.566488 Si / 1000 Ang^3
#
#
#
# Elastic Constant Matrix: (Units=GPa)
#
#
# Indices 1 2 3 4 5 6 
#
# 1 63.9972 11.8170 2.1888 0.0000 0.0000 0.0000
# 2 11.8170 60.4750 12.2105 0.0000 0.0000 0.0000
# 3 2.1888 12.2105 50.7675 0.0000 0.0000 0.0000
# 4 0.0000 0.0000 0.0000 12.6468 0.0000 0.0000
# 5 0.0000 0.0000 0.0000 0.0000 5.3003 0.0000
# 6 0.0000 0.0000 0.0000 0.0000 0.0000 22.0049
#
#
#
# Elastic Compliance Matrix: (Units=1/GPa)
#
#
# Indices 1 2 3 4 5 6 
#
# 1 0.016211 -0.003181 0.000066 0.000000 0.000000 0.000000
# 2 -0.003181 0.018004 -0.004193 0.000000 0.000000 0.000000
# 3 0.000066 -0.004193 0.020703 0.000000 0.000000 0.000000
# 4 0.000000 0.000000 0.000000 0.079071 0.000000 0.000000
# 5 0.000000 0.000000 0.000000 0.000000 0.188669 0.000000
# 6 0.000000 0.000000 0.000000 0.000000 0.000000 0.045444
#
#
# Mechanical properties :
#
#
# Convention : Reuss Voigt Hill
#
# Bulk Modulus (GPa) = 24.81256 25.29691 25.05473
# Shear Modulus (GPa) = 12.62138 17.92529 15.27334
#
# Velocity S-wave (km/s) = 2.61011 3.11056 2.87126
# Velocity P-wave (km/s) = 4.74097 5.15320 4.95137
#
# Compressibility (1/GPa) = 0.04030217
#
# Stress axis : x y z
#
# Youngs Moduli (GPa) = 61.68733 55.54330 48.30146
#
# Poissons Ratio (x) = 0.17668 -0.00320
# Poissons Ratio (y) = 0.19623 0.20253
# Poissons Ratio (z) = -0.00408 0.23290
#
# Static dielectric constant tensor:
#      x y z
#    x 1.656370 0.000000 0.000000 
#    y 0.000000 3.941230 0.000000 
#    z 0.000000 0.000000 1.647590 
# 
# From -- ./inp_files/34897.got.cif
#   From: 2010.05.17/outbox.cif.g08.bks.cpg/sg73_18_cif.got.tgz:34897.got - 2010.06.03 17:35:07.
