data_PCOD9530826
_publ_section_title
;
Structure prediction by ZEFSAII (Michael W. Deem and Ramdas Pophale) SiO2 
 PCOD9530826
Probable space group: I B C A 
;
_chemical_formula_sum "Si O2"
_cell_formula_units_Z 96
_cell_length_a 22.531823
_cell_length_b 14.186704
_cell_length_c 14.152138
_cell_angle_alpha 90.000000
_cell_angle_beta 90.000000
_cell_angle_gamma 90.000000
_cell_volume 4523.763511
_symmetry_space_group_name_H-M "I B C A "
_symmetry_group_IT_number 73
_symmetry_cell_setting 'orthorhombic'
loop_
_space_group_symop_operation_xyz
x,y,z
-x,1/2-y,z
x,-y,1/2-z
1/2-x,y,-z
-x,-y,-z
x,1/2+y,-z
-x,y,1/2+z
1/2+x,-y,z
1/2+x,1/2+y,1/2+z
1/2-x,-y,1/2+z
1/2+x,1/2-y,-z
-x,1/2+y,1/2-z
1/2-x,1/2-y,1/2-z
1/2+x,y,1/2-z
1/2-x,1/2+y,z
x,1/2-y,1/2+z
loop_
_atom_site_type_symbol
_atom_site_label
_atom_site_fract_x
_atom_site_fract_y
_atom_site_fract_z
Si Si1 0.786108 0.696967 0.167735
Si Si2 0.036419 0.499148 0.645324
Si Si3 0.340125 0.896930 0.666791
Si Si4 0.514137 0.143462 0.516499
Si Si5 0.718177 0.510243 0.145359
Si Si6 0.152459 0.648081 0.037082
O O1 0.750000 0.750000 0.250000
O O2 0.838620 0.649967 0.230520
O O3 0.741801 0.616256 0.127299
O O4 0.813778 0.771305 0.095496
O O5 0.010446 0.500000 0.750000
O O6 0.103884 0.464082 0.653119
O O7 0.007327 0.422803 0.575181
O O8 0.028071 0.599328 0.595904
O O9 0.340667 0.830991 0.574500
O O10 0.278871 0.952198 0.657853
O O11 0.500000 0.250000 0.492867
O O12 0.582060 0.140193 0.553019
O O13 0.688451 0.500000 0.250000
O O14 0.680839 0.453263 0.067269
#
# Coordination Sequence:
#
# PCOD9530826 Si02
#       6
#    16  16  16  16  16  16
#     4  11  22  40  66  97 136 172 223 269 329 407
#     4  10  22  45  70  93 136 176 224 282 340 402
#     4  10  22  41  65  94 131 173 220 268 338 396
#     4  10  25  44  68 103 134 175 236 281 333 403
#     4  10  20  38  62  91 131 171 212 268 331 392
#     4  11  23  44  63  97 140 169 226 280 322 405
#
# _framework density 21.221268999999999
#
# number of rings (size 3 to 8) (size 9 to 14) (size 15 to 20)
#    0.000    1.667    3.333    2.000    4.667    1.333 
#    9.000    1.667    0.000    0.000    0.000    0.000 
#    0.000    0.000    0.000    0.000    0.000    0.000 
#
# Total GULP energy -267979.942450 kJ/mol
# GULP energy per Si atom -5582.915468 kJ/mol
# Density = 2.117297 g / cm^3
# Si number density = 21.221269 Si / 1000 Ang^3
#
#
#
# Elastic Constant Matrix: (Units=GPa)
#
#
# Indices 1 2 3 4 5 6 
#
# 1 55.3784 22.2334 18.7218 0.0000 0.0000 0.0000
# 2 22.2334 113.7919 41.3552 0.0000 0.0000 0.0000
# 3 18.7218 41.3552 109.7456 0.0000 0.0000 0.0000
# 4 0.0000 0.0000 0.0000 28.4598 0.0000 0.0000
# 5 0.0000 0.0000 0.0000 0.0000 21.3045 0.0000
# 6 0.0000 0.0000 0.0000 0.0000 0.0000 17.1632
#
#
#
# Elastic Compliance Matrix: (Units=1/GPa)
#
#
# Indices 1 2 3 4 5 6 
#
# 1 0.020065 -0.003101 -0.002254 0.000000 0.000000 0.000000
# 2 -0.003101 0.010662 -0.003489 0.000000 0.000000 0.000000
# 3 -0.002254 -0.003489 0.010811 0.000000 0.000000 0.000000
# 4 0.000000 0.000000 0.000000 0.035137 0.000000 0.000000
# 5 0.000000 0.000000 0.000000 0.000000 0.046939 0.000000
# 6 0.000000 0.000000 0.000000 0.000000 0.000000 0.058264
#
#
# Mechanical properties :
#
#
# Convention : Reuss Voigt Hill
#
# Bulk Modulus (GPa) = 41.92946 49.28184 45.60565
# Shear Modulus (GPa) = 24.09457 26.49252 25.29354
#
# Velocity S-wave (km/s) = 3.37322 3.53710 3.45613
# Velocity P-wave (km/s) = 5.91376 6.32097 6.12075
#
# Compressibility (1/GPa) = 0.02384958
#
# Stress axis : x y z
#
# Youngs Moduli (GPa) = 49.83873 93.79335 92.49702
#
# Poissons Ratio (x) = 0.29086 0.20852
# Poissons Ratio (y) = 0.15455 0.32269
# Poissons Ratio (z) = 0.11235 0.32721
#
# Static dielectric constant tensor:
#      x y z
#    x 1.763250 0.000000 0.000000 
#    y 0.000000 1.853780 0.000000 
#    z 0.000000 0.000000 1.851630 
# 
# From -- ./inp_files/18630.got.cif
#   From: 2010.05.17/outbox.cif.g08.bks.cpg/sg73_10_cif.got.tgz:18630.got - 2010.06.03 17:35:07.
