data_PCOD9530456
_publ_section_title
;
Structure prediction by ZEFSAII (Michael W. Deem and Ramdas Pophale) SiO2 
 PCOD9530456
Probable space group: I B C A 
;
_chemical_formula_sum "Si O2"
_cell_formula_units_Z 80
_cell_length_a 9.554883
_cell_length_b 19.685605
_cell_length_c 22.120812
_cell_angle_alpha 90.000000
_cell_angle_beta 90.000000
_cell_angle_gamma 90.000000
_cell_volume 4160.784327
_symmetry_space_group_name_H-M "I B C A "
_symmetry_group_IT_number 73
_symmetry_cell_setting 'orthorhombic'
loop_
_space_group_symop_operation_xyz
x,y,z
-x,1/2-y,z
x,-y,1/2-z
1/2-x,y,-z
-x,-y,-z
x,1/2+y,-z
-x,y,1/2+z
1/2+x,-y,z
1/2+x,1/2+y,1/2+z
1/2-x,-y,1/2+z
1/2+x,1/2-y,-z
-x,1/2+y,1/2-z
1/2-x,1/2-y,1/2-z
1/2+x,y,1/2-z
1/2-x,1/2+y,z
x,1/2-y,1/2+z
loop_
_atom_site_type_symbol
_atom_site_label
_atom_site_fract_x
_atom_site_fract_y
_atom_site_fract_z
Si Si1 0.040547 0.890062 0.510978
Si Si2 0.956693 0.500000 0.750000
Si Si3 0.250000 0.727073 0.000000
Si Si4 0.338095 0.474877 0.942436
Si Si5 0.211163 0.927373 0.180899
Si Si6 0.121631 0.194986 0.391616
O O1 0.120968 0.823412 0.490399
O O2 0.976010 0.929449 0.453452
O O3 0.943215 0.861400 0.563847
O O4 0.130377 0.946748 0.545600
O O5 0.845870 0.444774 0.723072
O O6 0.067022 0.461458 0.794573
O O7 0.272123 0.768659 0.938328
O O8 0.258606 0.462986 0.881205
O O9 0.250000 0.451842 0.000000
O O10 0.185140 0.848190 0.163763
O O11 0.000000 0.250000 0.375594
#
# Coordination Sequence:
#
# PCOD9530456 Si02
#       6
#    16   8   8  16  16  16
#     4  10  20  33  52  96 130 154 189 234 317 383
#     4  10  26  42  68  86 116 162 214 270 304 344
#     4  10  20  34  52  88 134 166 190 226 300 396
#     4  11  20  33  63  95 122 147 187 260 321 360
#     4  11  22  44  62  92 120 159 209 256 311 361
#     4  10  20  35  57  83 125 166 192 239 296 373
#
# _framework density 19.227143000000002
#
# number of rings (size 3 to 8) (size 9 to 14) (size 15 to 20)
#    0.000    1.600    3.000    2.400    2.800    0.000 
#    0.000    1.000    0.000    0.000    0.000    0.000 
#    0.000    0.000    0.000    0.000    0.000    0.000 
#
# Total GULP energy -222746.334010 kJ/mol
# GULP energy per Si atom -5568.658350 kJ/mol
# Density = 1.918338 g / cm^3
# Si number density = 19.227143 Si / 1000 Ang^3
#
#
#
# Elastic Constant Matrix: (Units=GPa)
#
#
# Indices 1 2 3 4 5 6 
#
# 1 93.8597 46.7842 53.3925 0.0000 0.0000 0.0000
# 2 46.7842 108.6189 46.2354 0.0000 0.0000 0.0000
# 3 53.3925 46.2354 82.6456 0.0000 0.0000 0.0000
# 4 0.0000 0.0000 0.0000 21.3689 0.0000 0.0000
# 5 0.0000 0.0000 0.0000 0.0000 26.0074 0.0000
# 6 0.0000 0.0000 0.0000 0.0000 0.0000 40.1266
#
#
#
# Elastic Compliance Matrix: (Units=1/GPa)
#
#
# Indices 1 2 3 4 5 6 
#
# 1 0.017886 -0.003656 -0.009510 0.000000 0.000000 0.000000
# 2 -0.003656 0.012831 -0.004817 0.000000 0.000000 0.000000
# 3 -0.009510 -0.004817 0.020938 0.000000 0.000000 0.000000
# 4 0.000000 0.000000 0.000000 0.046797 0.000000 0.000000
# 5 0.000000 0.000000 0.000000 0.000000 0.038451 0.000000
# 6 0.000000 0.000000 0.000000 0.000000 0.000000 0.024921
#
#
# Mechanical properties :
#
#
# Convention : Reuss Voigt Hill
#
# Bulk Modulus (GPa) = 63.73058 64.21648 63.97353
# Shear Modulus (GPa) = 24.62811 26.74806 25.68808
#
# Velocity S-wave (km/s) = 3.58285 3.73387 3.65914
# Velocity P-wave (km/s) = 7.09464 7.21529 7.15522
#
# Compressibility (1/GPa) = 0.01569105
#
# Stress axis : x y z
#
# Youngs Moduli (GPa) = 55.90872 77.93383 47.75926
#
# Poissons Ratio (x) = 0.28491 0.45419
# Poissons Ratio (y) = 0.20439 0.23004
# Poissons Ratio (z) = 0.53170 0.37537
#
# Static dielectric constant tensor:
#      x y z
#    x 1.873070 0.000000 0.000000 
#    y 0.000000 1.706600 0.000000 
#    z 0.000000 0.000000 1.692820 
# 
# From -- ./inp_files/25332.got.cif
#   From: 2010.05.17/outbox.cif.g08.bks.cpg/sg73_13_cif.got.tgz:25332.got - 2010.06.03 17:35:07.
