data_PCOD9530048
_publ_section_title
;
Structure prediction by ZEFSAII (Michael W. Deem and Ramdas Pophale) SiO2 
 PCOD9530048
Probable space group: I B C A 
;
_chemical_formula_sum "Si O2"
_cell_formula_units_Z 72
_cell_length_a 12.835031
_cell_length_b 33.531384
_cell_length_c 8.712523
_cell_angle_alpha 90.000000
_cell_angle_beta 90.000000
_cell_angle_gamma 90.000000
_cell_volume 3749.663875
_symmetry_space_group_name_H-M "I B C A "
_symmetry_group_IT_number 73
_symmetry_cell_setting 'orthorhombic'
loop_
_space_group_symop_operation_xyz
x,y,z
-x,1/2-y,z
x,-y,1/2-z
1/2-x,y,-z
-x,-y,-z
x,1/2+y,-z
-x,y,1/2+z
1/2+x,-y,z
1/2+x,1/2+y,1/2+z
1/2-x,-y,1/2+z
1/2+x,1/2-y,-z
-x,1/2+y,1/2-z
1/2-x,1/2-y,1/2-z
1/2+x,y,1/2-z
1/2-x,1/2+y,z
x,1/2-y,1/2+z
loop_
_atom_site_type_symbol
_atom_site_label
_atom_site_fract_x
_atom_site_fract_y
_atom_site_fract_z
Si Si1 0.000000 0.250000 0.701456
Si Si2 0.750000 0.868504 0.000000
Si Si3 0.868036 0.931202 0.801775
Si Si4 0.563887 0.041046 0.968725
Si Si5 0.272807 0.000000 0.250000
Si Si6 0.363677 0.208710 0.044496
O O1 0.057958 0.281807 0.593789
O O2 0.085231 0.228577 0.807752
O O3 0.701467 0.895159 0.135353
O O4 0.661560 0.838095 0.938661
O O5 0.892331 0.938110 0.621721
O O6 0.978617 0.931236 0.886941
O O7 0.803150 0.971061 0.843863
O O8 0.654809 0.028237 0.852757
O O9 0.500000 0.000000 0.000000
O O10 0.250000 0.226352 0.000000
#
# Coordination Sequence:
#
# PCOD9530048 Si02
#       6
#     8   8  16  16   8  16
#     4  10  18  40  80 100 126 184 218 260 330 410
#     4  10  26  42  60  92 146 162 208 284 344 384
#     4  12  25  40  62  88 125 169 215 280 334 391
#     4  12  22  39  63  88 112 162 231 276 327 386
#     4  12  22  40  68  84 116 168 234 284 324 382
#     4   9  21  40  68 103 137 166 221 271 324 415
#
# _framework density 19.201720999999999
#
# number of rings (size 3 to 8) (size 9 to 14) (size 15 to 20)
#    0.667    0.444    4.444    2.667    0.000    1.778 
#    0.000    0.000    9.778    0.000    0.000    0.000 
#    0.000    0.000    0.000    0.000    0.000    0.000 
#
# Total GULP energy -200820.312162 kJ/mol
# GULP energy per Si atom -5578.342005 kJ/mol
# Density = 1.915802 g / cm^3
# Si number density = 19.201721 Si / 1000 Ang^3
#
#
#
# Elastic Constant Matrix: (Units=GPa)
#
#
# Indices 1 2 3 4 5 6 
#
# 1 133.0274 44.5716 66.8356 -0.0006 -0.0012 0.0008
# 2 44.5716 101.6886 45.6187 0.0407 -0.0019 0.0006
# 3 66.8356 45.6187 133.4957 -0.1475 0.0038 0.0005
# 4 -0.0006 0.0407 -0.1475 -309.7527 0.0780 -0.0188
# 5 -0.0012 -0.0019 0.0038 0.0780 41.8527 0.0002
# 6 0.0008 0.0006 0.0005 -0.0188 0.0002 28.3496
#
#
#
# Elastic Compliance Matrix: (Units=1/GPa)
#
#
# Indices 1 2 3 4 5 6 
#
# 1 0.010629 -0.002683 -0.004405 0.000002 0.000001 0.000000
# 2 -0.002683 0.012292 -0.002857 0.000003 0.000001 0.000000
# 3 -0.004405 -0.002857 0.010673 -0.000005 -0.000001 0.000000
# 4 0.000002 0.000003 -0.000005 -0.003228 0.000006 -0.000002
# 5 0.000001 0.000001 -0.000001 0.000006 0.023893 0.000000
# 6 0.000000 0.000000 0.000000 -0.000002 0.000000 0.035274
#
#
# Mechanical properties :
#
#
# Convention : Reuss Voigt Hill
#
# Bulk Modulus (GPa) = 72.97281 75.80706 74.38994
# Shear Modulus (GPa) = 43.86358 -33.83105 5.01627
#
# Velocity S-wave (km/s) = 4.78468 -4.20202 1.61805
# Velocity P-wave (km/s) = 8.28311 4.00279 6.50509
#
# Compressibility (1/GPa) = 0.01370373
#
# Stress axis : x y z
#
# Youngs Moduli (GPa) = 94.08023 81.35606 93.69863
#
# Poissons Ratio (x) = 0.21827 0.41272
# Poissons Ratio (y) = 0.25241 0.26771
# Poissons Ratio (z) = 0.41440 0.23244
#
# Static dielectric constant tensor:
#      x y z
#    x 1.710560 0.000000 0.000000 
#    y 0.000000 1.654960 0.000000 
#    z 0.000000 0.000000 1.699350 
# 
# From -- ./inp_files/4908.got.cif
#   From: 2010.05.17/outbox.cif.g08.bks.cpg/sg73_3_cif.got.tgz:4908.got - 2010.06.03 17:35:07.
