data_PCOD9530268
_publ_section_title
;
Structure prediction by ZEFSAII (Michael W. Deem and Ramdas Pophale) SiO2 
 PCOD9530268
Probable space group: I B C A 
;
_chemical_formula_sum "Si O2"
_cell_formula_units_Z 120
_cell_length_a 19.695477
_cell_length_b 15.335621
_cell_length_c 19.430999
_cell_angle_alpha 90.000000
_cell_angle_beta 90.000000
_cell_angle_gamma 90.000000
_cell_volume 5868.985003
_symmetry_space_group_name_H-M "I B C A "
_symmetry_group_IT_number 73
_symmetry_cell_setting 'orthorhombic'
loop_
_space_group_symop_operation_xyz
x,y,z
-x,1/2-y,z
x,-y,1/2-z
1/2-x,y,-z
-x,-y,-z
x,1/2+y,-z
-x,y,1/2+z
1/2+x,-y,z
1/2+x,1/2+y,1/2+z
1/2-x,-y,1/2+z
1/2+x,1/2-y,-z
-x,1/2+y,1/2-z
1/2-x,1/2-y,1/2-z
1/2+x,y,1/2-z
1/2-x,1/2+y,z
x,1/2-y,1/2+z
loop_
_atom_site_type_symbol
_atom_site_label
_atom_site_fract_x
_atom_site_fract_y
_atom_site_fract_z
Si Si1 0.750000 0.892517 0.000000
Si Si2 0.558833 0.680412 0.158019
Si Si3 0.663940 0.580580 0.715902
Si Si4 0.077521 0.000916 0.830923
Si Si5 0.229219 0.519947 0.376448
Si Si6 0.798484 0.192669 0.847661
Si Si7 0.331469 0.709011 0.106076
Si Si8 0.929155 0.698919 0.677560
O O1 0.776961 0.956572 0.058761
O O2 0.692721 0.832088 0.034768
O O3 0.500000 0.750000 0.150509
O O4 0.536202 0.581899 0.141470
O O5 0.618825 0.709725 0.107077
O O6 0.583031 0.688334 0.238983
O O7 0.622728 0.500000 0.750000
O O8 0.726176 0.532137 0.679114
O O9 0.689302 0.646401 0.774236
O O10 0.632751 0.636938 0.654711
O O11 0.154990 0.970689 0.844549
O O12 0.067380 0.100844 0.852689
O O13 0.064315 0.000000 0.750000
O O14 0.270607 0.609431 0.391613
O O15 0.737761 0.261387 0.855405
O O16 0.868513 0.245489 0.857148
O O17 0.000000 0.750000 0.670422
#
# Coordination Sequence:
#
# PCOD9530268 Si02
#       8
#     8  16  16  16  16  16  16  16
#     4  10  24  38  52  88 116 150 202 264 304 352
#     4  10  21  37  57  90 124 166 199 248 317 379
#     4   9  18  29  50  88 118 145 187 239 303 367
#     4  10  19  37  59  85 124 159 197 244 317 376
#     4  10  20  35  56  86 118 155 197 254 309 365
#     4  11  19  33  60  88 118 153 199 246 311 369
#     4  11  20  36  59  84 119 156 200 255 301 368
#     4  10  21  35  55  92 134 167 198 246 314 392
#
# _framework density 20.446465
#
# number of rings (size 3 to 8) (size 9 to 14) (size 15 to 20)
#    0.000    1.867    2.667    3.200    1.867    0.533 
#    7.200    0.000    0.000    4.000    0.000    0.000 
#    0.000    0.000    0.000    0.000    0.000    0.000 
#
# Total GULP energy -334256.407334 kJ/mol
# GULP energy per Si atom -5570.940122 kJ/mol
# Density = 2.039993 g / cm^3
# Si number density = 20.446465 Si / 1000 Ang^3
#
#
#
# Elastic Constant Matrix: (Units=GPa)
#
#
# Indices 1 2 3 4 5 6 
#
# 1 74.8331 56.3512 2.5655 0.0000 0.0000 0.0000
# 2 56.3512 190.3598 34.2212 0.0000 0.0000 0.0000
# 3 2.5655 34.2212 45.0197 0.0000 0.0000 0.0000
# 4 0.0000 0.0000 0.0000 18.2135 0.0000 0.0000
# 5 0.0000 0.0000 0.0000 0.0000 8.3698 0.0000
# 6 0.0000 0.0000 0.0000 0.0000 0.0000 12.9226
#
#
#
# Elastic Compliance Matrix: (Units=1/GPa)
#
#
# Indices 1 2 3 4 5 6 
#
# 1 0.017643 -0.005840 0.003434 0.000000 0.000000 0.000000
# 2 -0.005840 0.008018 -0.005762 0.000000 0.000000 0.000000
# 3 0.003434 -0.005762 0.026397 0.000000 0.000000 0.000000
# 4 0.000000 0.000000 0.000000 0.054904 0.000000 0.000000
# 5 0.000000 0.000000 0.000000 0.000000 0.119478 0.000000
# 6 0.000000 0.000000 0.000000 0.000000 0.000000 0.077384
#
#
# Mechanical properties :
#
#
# Convention : Reuss Voigt Hill
#
# Bulk Modulus (GPa) = 27.99441 55.16537 41.57989
# Shear Modulus (GPa) = 15.05724 22.37284 18.71504
#
# Velocity S-wave (km/s) = 2.71665 3.31148 3.02871
# Velocity P-wave (km/s) = 4.85403 6.45447 5.71059
#
# Compressibility (1/GPa) = 0.03572142
#
# Stress axis : x y z
#
# Youngs Moduli (GPa) = 56.67945 124.72189 37.88358
#
# Poissons Ratio (x) = 0.72839 -0.13009
# Poissons Ratio (y) = 0.33101 0.21828
# Poissons Ratio (z) = -0.19463 0.71863
#
# Static dielectric constant tensor:
#      x y z
#    x 1.713750 0.000000 0.000000 
#    y 0.000000 1.854760 0.000000 
#    z 0.000000 0.000000 1.752290 
# 
# From -- ./inp_files/26997.got.cif
#   From: 2010.05.17/outbox.cif.g08.bks.cpg/sg73_14_cif.got.tgz:26997.got - 2010.06.03 17:35:07.
