data_PCOD9530009
_publ_section_title
;
Structure prediction by ZEFSAII (Michael W. Deem and Ramdas Pophale) SiO2 
 PCOD9530009
Probable space group: I B C A 
;
_chemical_formula_sum "Si O2"
_cell_formula_units_Z 56
_cell_length_a 13.564027
_cell_length_b 12.429152
_cell_length_c 14.723162
_cell_angle_alpha 90.000000
_cell_angle_beta 90.000000
_cell_angle_gamma 90.000000
_cell_volume 2482.168360
_symmetry_space_group_name_H-M "I B C A "
_symmetry_group_IT_number 73
_symmetry_cell_setting 'orthorhombic'
loop_
_space_group_symop_operation_xyz
x,y,z
-x,1/2-y,z
x,-y,1/2-z
1/2-x,y,-z
-x,-y,-z
x,1/2+y,-z
-x,y,1/2+z
1/2+x,-y,z
1/2+x,1/2+y,1/2+z
1/2-x,-y,1/2+z
1/2+x,1/2-y,-z
-x,1/2+y,1/2-z
1/2-x,1/2-y,1/2-z
1/2+x,y,1/2-z
1/2-x,1/2+y,z
x,1/2-y,1/2+z
loop_
_atom_site_type_symbol
_atom_site_label
_atom_site_fract_x
_atom_site_fract_y
_atom_site_fract_z
Si Si1 0.499376 0.087586 0.140778
Si Si2 0.959702 0.364793 0.067878
Si Si3 0.838024 0.245912 0.819728
Si Si4 0.250000 0.804867 0.500000
O O1 0.587375 0.147555 0.192326
O O2 0.399818 0.142776 0.176895
O O3 0.506958 0.959985 0.134248
O O4 0.505118 0.120200 0.033354
O O5 0.000000 0.250000 0.101301
O O6 0.841849 0.367230 0.047099
O O7 0.750000 0.250000 0.750000
O O8 0.794413 0.234338 0.920206
#
# Coordination Sequence:
#
# PCOD9530009 Si02
#       4
#    16  16  16   8
#     4   9  19  39  64 100 135 174 232 284 361 414
#     4  10  18  38  67  96 138 181 227 295 349 430
#     4  10  20  41  67  95 136 169 230 295 337 422
#     4  10  20  38  66 100 124 182 230 272 362 416
#
# _framework density 22.560918000000001
#
# number of rings (size 3 to 8) (size 9 to 14) (size 15 to 20)
#    0.000    2.286    5.714    0.000    0.000    1.143 
#   10.286    1.429    0.000    0.000    0.000    0.000 
#    0.000    0.000    0.000    0.000    0.000    0.000 
#
# Total GULP energy -156455.626390 kJ/mol
# GULP energy per Si atom -5587.700942 kJ/mol
# Density = 2.250957 g / cm^3
# Si number density = 22.560918 Si / 1000 Ang^3
#
#
#
# Elastic Constant Matrix: (Units=GPa)
#
#
# Indices 1 2 3 4 5 6 
#
# 1 166.8998 83.5991 66.9547 0.0000 0.0000 0.0000
# 2 83.5991 203.4207 51.9892 0.0000 0.0000 0.0000
# 3 66.9547 51.9892 84.2835 0.0000 0.0000 0.0000
# 4 0.0000 0.0000 0.0000 32.1946 0.0000 0.0000
# 5 0.0000 0.0000 0.0000 0.0000 45.6024 0.0000
# 6 0.0000 0.0000 0.0000 0.0000 0.0000 3.5730
#
#
#
# Elastic Compliance Matrix: (Units=1/GPa)
#
#
# Indices 1 2 3 4 5 6 
#
# 1 0.009683 -0.002390 -0.006218 0.000000 0.000000 0.000000
# 2 -0.002390 0.006426 -0.002065 0.000000 0.000000 0.000000
# 3 -0.006218 -0.002065 0.018078 0.000000 0.000000 0.000000
# 4 0.000000 0.000000 0.000000 0.031061 0.000000 0.000000
# 5 0.000000 0.000000 0.000000 0.000000 0.021929 0.000000
# 6 0.000000 0.000000 0.000000 0.000000 0.000000 0.279878
#
#
# Mechanical properties :
#
#
# Convention : Reuss Voigt Hill
#
# Bulk Modulus (GPa) = 77.87640 95.52111 86.69875
# Shear Modulus (GPa) = 12.73296 33.07805 22.90550
#
# Velocity S-wave (km/s) = 2.37825 3.83321 3.18979
# Velocity P-wave (km/s) = 6.49112 7.87543 7.21655
#
# Compressibility (1/GPa) = 0.01284086
#
# Stress axis : x y z
#
# Youngs Moduli (GPa) = 103.26939 155.61714 55.31583
#
# Poissons Ratio (x) = 0.37199 0.34395
# Poissons Ratio (y) = 0.24685 0.11422
# Poissons Ratio (z) = 0.64213 0.32133
#
# Static dielectric constant tensor:
#      x y z
#    x 1.901840 0.000000 0.000000 
#    y 0.000000 1.827560 0.000000 
#    z 0.000000 0.000000 1.863850 
# 
# From -- ./inp_files/10301.got.cif
#   From: 2010.05.17/outbox.cif.g08.bks.cpg/sg73_6_cif.got.tgz:10301.got - 2010.06.03 17:35:07.
