data_PCOD9530668
_publ_section_title
;
Structure prediction by ZEFSAII (Michael W. Deem and Ramdas Pophale) SiO2 
 PCOD9530668
Probable space group: I B C A 
;
_chemical_formula_sum "Si O2"
_cell_formula_units_Z 88
_cell_length_a 8.459686
_cell_length_b 24.007417
_cell_length_c 19.680456
_cell_angle_alpha 90.000000
_cell_angle_beta 90.000000
_cell_angle_gamma 90.000000
_cell_volume 3997.006334
_symmetry_space_group_name_H-M "I B C A "
_symmetry_group_IT_number 73
_symmetry_cell_setting 'orthorhombic'
loop_
_space_group_symop_operation_xyz
x,y,z
-x,1/2-y,z
x,-y,1/2-z
1/2-x,y,-z
-x,-y,-z
x,1/2+y,-z
-x,y,1/2+z
1/2+x,-y,z
1/2+x,1/2+y,1/2+z
1/2-x,-y,1/2+z
1/2+x,1/2-y,-z
-x,1/2+y,1/2-z
1/2-x,1/2-y,1/2-z
1/2+x,y,1/2-z
1/2-x,1/2+y,z
x,1/2-y,1/2+z
loop_
_atom_site_type_symbol
_atom_site_label
_atom_site_fract_x
_atom_site_fract_y
_atom_site_fract_z
Si Si1 0.787491 0.000000 0.250000
Si Si2 0.991165 0.814574 0.330691
Si Si3 0.464969 0.081448 0.095322
Si Si4 0.076229 0.136509 0.528522
Si Si5 0.316239 0.028304 0.397427
Si Si6 0.785039 0.120066 0.276260
O O1 0.872860 0.982306 0.319747
O O2 0.706548 0.941041 0.234757
O O3 0.155628 0.841338 0.309317
O O4 0.000000 0.750000 0.311799
O O5 0.968198 0.822723 0.411040
O O6 0.857514 0.849865 0.289809
O O7 0.636689 0.051026 0.100318
O O8 0.419933 0.107604 0.167755
O O9 0.341925 0.033307 0.074042
O O10 0.469995 0.128475 0.037724
O O11 0.250000 0.149998 0.500000
O O12 0.086231 0.075077 0.563415
#
# Coordination Sequence:
#
# PCOD9530668 Si02
#       6
#     8  16  16  16  16  16
#     4  10  20  36  66 102 140 172 218 286 346 426
#     4  12  27  50  73 102 139 192 242 299 351 425
#     4  10  23  39  65 104 145 191 225 292 349 444
#     4  10  23  45  66  95 144 187 241 287 360 417
#     4  10  20  36  62  96 145 188 223 280 360 416
#     4  11  25  44  74 107 144 177 241 289 371 420
#
# _framework density 22.016476000000001
#
# number of rings (size 3 to 8) (size 9 to 14) (size 15 to 20)
#    0.000    1.455    1.818    2.182    7.636    4.364 
#    3.273    0.000    0.000    0.000    0.000    0.000 
#    0.000    0.000    0.000    0.000    0.000    0.000 
#
# Total GULP energy -245730.403036 kJ/mol
# GULP energy per Si atom -5584.781887 kJ/mol
# Density = 2.196637 g / cm^3
# Si number density = 22.016476 Si / 1000 Ang^3
#
#
#
# Elastic Constant Matrix: (Units=GPa)
#
#
# Indices 1 2 3 4 5 6 
#
# 1 58.5900 26.6737 26.7057 0.0000 0.0000 0.0000
# 2 26.6737 130.3087 25.0586 0.0000 0.0000 0.0000
# 3 26.7057 25.0586 111.8071 0.0000 0.0000 0.0000
# 4 0.0000 0.0000 0.0000 22.0726 0.0000 0.0000
# 5 0.0000 0.0000 0.0000 0.0000 27.2576 0.0000
# 6 0.0000 0.0000 0.0000 0.0000 0.0000 13.9399
#
#
#
# Elastic Compliance Matrix: (Units=1/GPa)
#
#
# Indices 1 2 3 4 5 6 
#
# 1 0.020501 -0.003401 -0.004134 0.000000 0.000000 0.000000
# 2 -0.003401 0.008584 -0.001111 0.000000 0.000000 0.000000
# 3 -0.004134 -0.001111 0.010181 0.000000 0.000000 0.000000
# 4 0.000000 0.000000 0.000000 0.045305 0.000000 0.000000
# 5 0.000000 0.000000 0.000000 0.000000 0.036687 0.000000
# 6 0.000000 0.000000 0.000000 0.000000 0.000000 0.071737
#
#
# Mechanical properties :
#
#
# Convention : Reuss Voigt Hill
#
# Bulk Modulus (GPa) = 45.51457 50.84243 48.17850
# Shear Modulus (GPa) = 22.97664 27.47186 25.22425
#
# Velocity S-wave (km/s) = 3.23400 3.53623 3.38849
# Velocity P-wave (km/s) = 5.88752 6.31002 6.10242
#
# Compressibility (1/GPa) = 0.02197098
#
# Stress axis : x y z
#
# Youngs Moduli (GPa) = 48.77865 116.49482 98.22606
#
# Poissons Ratio (x) = 0.39624 0.40610
# Poissons Ratio (y) = 0.16592 0.10917
# Poissons Ratio (z) = 0.20167 0.12948
#
# Static dielectric constant tensor:
#      x y z
#    x 1.834710 0.000000 0.000000 
#    y 0.000000 1.772550 0.000000 
#    z 0.000000 0.000000 1.868710 
# 
# From -- ./inp_files/6317.got.cif
#   From: 2010.05.17/outbox.cif.g08.bks.cpg/sg73_4_cif.got.tgz:6317.got - 2010.06.03 17:35:07.
