data_PCOD9530448
_publ_section_title
;
Structure prediction by ZEFSAII (Michael W. Deem and Ramdas Pophale) SiO2 
 PCOD9530448
Probable space group: I B C A 
;
_chemical_formula_sum "Si O2"
_cell_formula_units_Z 80
_cell_length_a 7.536562
_cell_length_b 21.202528
_cell_length_c 22.955895
_cell_angle_alpha 90.000000
_cell_angle_beta 90.000000
_cell_angle_gamma 90.000000
_cell_volume 3668.218115
_symmetry_space_group_name_H-M "I B C A "
_symmetry_group_IT_number 73
_symmetry_cell_setting 'orthorhombic'
loop_
_space_group_symop_operation_xyz
x,y,z
-x,1/2-y,z
x,-y,1/2-z
1/2-x,y,-z
-x,-y,-z
x,1/2+y,-z
-x,y,1/2+z
1/2+x,-y,z
1/2+x,1/2+y,1/2+z
1/2-x,-y,1/2+z
1/2+x,1/2-y,-z
-x,1/2+y,1/2-z
1/2-x,1/2-y,1/2-z
1/2+x,y,1/2-z
1/2-x,1/2+y,z
x,1/2-y,1/2+z
loop_
_atom_site_type_symbol
_atom_site_label
_atom_site_fract_x
_atom_site_fract_y
_atom_site_fract_z
Si Si1 0.500000 0.250000 0.844397
Si Si2 0.136188 0.000000 0.750000
Si Si3 0.692078 0.275804 0.563247
Si Si4 0.440647 0.885197 0.182233
Si Si5 0.869823 0.410542 0.399533
Si Si6 0.759763 0.956289 0.876044
O O1 0.667188 0.244262 0.887897
O O2 0.501378 0.186078 0.807139
O O3 0.040568 0.933933 0.764861
O O4 0.229395 0.984351 0.689034
O O5 0.500000 0.250000 0.579131
O O6 0.750000 0.251166 0.500000
O O7 0.673006 0.351683 0.559887
O O8 0.239636 0.889075 0.158397
O O9 0.568676 0.912148 0.130821
O O10 0.798649 0.481050 0.413660
O O11 0.080411 0.420203 0.392038
#
# Coordination Sequence:
#
# PCOD9530448 Si02
#       6
#     8   8  16  16  16  16
#     4  10  22  42  64  88 120 160 202 254 302 354
#     4  10  20  32  60  90 114 164 212 234 292 360
#     4  11  22  41  65  89 114 155 205 246 304 373
#     4  10  21  36  59  86 122 160 203 250 297 354
#     4  10  21  34  59  87 115 154 203 244 301 360
#     4  11  19  35  57  85 121 160 197 247 294 351
#
# _framework density 21.808955000000001
#
# number of rings (size 3 to 8) (size 9 to 14) (size 15 to 20)
#    0.000    1.600    5.000    1.800    2.800    0.000 
#    0.000    2.000    2.200    0.000    0.000    0.000 
#    0.000    0.000    0.000    0.000    0.000    0.000 
#
# Total GULP energy -222959.734849 kJ/mol
# GULP energy per Si atom -5573.993371 kJ/mol
# Density = 2.175932 g / cm^3
# Si number density = 21.808955 Si / 1000 Ang^3
#
#
#
# Elastic Constant Matrix: (Units=GPa)
#
#
# Indices 1 2 3 4 5 6 
#
# 1 120.6484 17.6736 12.2278 0.0000 0.0000 0.0000
# 2 17.6736 150.5986 13.1165 0.0000 0.0000 0.0000
# 3 12.2278 13.1165 32.4462 0.0000 0.0000 0.0000
# 4 0.0000 0.0000 0.0000 -81.8936 0.0000 0.0000
# 5 0.0000 0.0000 0.0000 0.0000 -4.9480 0.0000
# 6 0.0000 0.0000 0.0000 0.0000 0.0000 13.8365
#
#
#
# Elastic Compliance Matrix: (Units=1/GPa)
#
#
# Indices 1 2 3 4 5 6 
#
# 1 0.008701 -0.000762 -0.002971 0.000000 0.000000 0.000000
# 2 -0.000762 0.006949 -0.002522 0.000000 0.000000 0.000000
# 3 -0.002971 -0.002522 0.032959 0.000000 0.000000 0.000000
# 4 0.000000 0.000000 0.000000 -0.012211 0.000000 0.000000
# 5 0.000000 0.000000 0.000000 0.000000 -0.202100 0.000000
# 6 0.000000 0.000000 0.000000 0.000000 0.000000 0.072273
#
#
# Mechanical properties :
#
#
# Convention : Reuss Voigt Hill
#
# Bulk Modulus (GPa) = 27.70136 43.30320 35.50228
# Shear Modulus (GPa) = -72.58533 2.77732 -34.90400
#
# Velocity S-wave (km/s) = -5.77534 1.12971 -4.00489
# Velocity P-wave (km/s) = 5.63413 4.64763 2.25199
#
# Compressibility (1/GPa) = 0.03609931
#
# Stress axis : x y z
#
# Youngs Moduli (GPa) = 114.92475 143.89958 30.34035
#
# Poissons Ratio (x) = 0.10971 0.09014
# Poissons Ratio (y) = 0.08762 0.07652
# Poissons Ratio (z) = 0.34145 0.36291
#
# Static dielectric constant tensor:
#      x y z
#    x 1.858180 0.000000 0.000000 
#    y 0.000000 1.839160 0.000000 
#    z 0.000000 0.000000 1.763270 
# 
# From -- ./inp_files/27180.got.cif
#   From: 2010.05.17/outbox.cif.g08.bks.cpg/sg73_14_cif.got.tgz:27180.got - 2010.06.03 17:35:07.
