data_PCOD9530451
_publ_section_title
;
Structure prediction by ZEFSAII (Michael W. Deem and Ramdas Pophale) SiO2 
 PCOD9530451
Probable space group: I B C A 
;
_chemical_formula_sum "Si O2"
_cell_formula_units_Z 88
_cell_length_a 18.093937
_cell_length_b 20.195507
_cell_length_c 9.407231
_cell_angle_alpha 90.000000
_cell_angle_beta 90.000000
_cell_angle_gamma 90.000000
_cell_volume 3437.554899
_symmetry_space_group_name_H-M "I B C A "
_symmetry_group_IT_number 73
_symmetry_cell_setting 'orthorhombic'
loop_
_space_group_symop_operation_xyz
x,y,z
-x,1/2-y,z
x,-y,1/2-z
1/2-x,y,-z
-x,-y,-z
x,1/2+y,-z
-x,y,1/2+z
1/2+x,-y,z
1/2+x,1/2+y,1/2+z
1/2-x,-y,1/2+z
1/2+x,1/2-y,-z
-x,1/2+y,1/2-z
1/2-x,1/2-y,1/2-z
1/2+x,y,1/2-z
1/2-x,1/2+y,z
x,1/2-y,1/2+z
loop_
_atom_site_type_symbol
_atom_site_label
_atom_site_fract_x
_atom_site_fract_y
_atom_site_fract_z
Si Si1 0.750000 0.215924 0.500000
Si Si2 0.456713 0.382967 0.432259
Si Si3 0.764117 0.448956 0.355410
Si Si4 0.412634 0.881429 0.882900
Si Si5 0.854989 0.368960 0.806420
Si Si6 0.095355 0.731308 0.421066
O O1 0.710133 0.172651 0.619659
O O2 0.816832 0.254387 0.572493
O O3 0.438820 0.403608 0.272303
O O4 0.533693 0.410379 0.495343
O O5 0.399952 0.398354 0.560324
O O6 0.446146 0.301823 0.416051
O O7 0.800171 0.500000 0.250000
O O8 0.750000 0.487127 0.500000
O O9 0.825582 0.394782 0.391173
O O10 0.688977 0.420798 0.290327
O O11 0.420981 0.804466 0.927828
O O12 0.907208 0.320954 0.710384
#
# Coordination Sequence:
#
# PCOD9530451 Si02
#       6
#     8  16  16  16  16  16
#     4  10  20  32  64  98 142 184 230 288 356 444
#     4  11  25  40  70 100 154 192 234 279 367 456
#     4  12  28  49  78 103 135 184 252 318 376 416
#     4  12  25  45  66 106 147 194 241 300 357 443
#     4  11  22  43  68 103 143 189 242 306 360 441
#     4  11  20  38  62 102 144 194 235 281 361 436
#
# _framework density 25.599592000000001
#
# number of rings (size 3 to 8) (size 9 to 14) (size 15 to 20)
#    0.000    0.727    1.818    7.636    3.818    1.455 
#    0.000    1.818    0.000    0.000    0.000    0.000 
#    0.000    0.000    0.000    0.000    0.000    0.000 
#
# Total GULP energy -245912.238664 kJ/mol
# GULP energy per Si atom -5588.914515 kJ/mol
# Density = 2.554133 g / cm^3
# Si number density = 25.599592 Si / 1000 Ang^3
#
#
#
# Elastic Constant Matrix: (Units=GPa)
#
#
# Indices 1 2 3 4 5 6 
#
# 1 111.2004 3.3094 39.7551 0.0000 0.0000 0.0000
# 2 3.3094 30.2028 13.4421 0.0000 0.0000 0.0000
# 3 39.7551 13.4421 183.1196 0.0000 0.0000 0.0000
# 4 0.0000 0.0000 0.0000 22.8779 0.0000 0.0000
# 5 0.0000 0.0000 0.0000 0.0000 47.9537 0.0000
# 6 0.0000 0.0000 0.0000 0.0000 0.0000 16.8003
#
#
#
# Elastic Compliance Matrix: (Units=1/GPa)
#
#
# Indices 1 2 3 4 5 6 
#
# 1 0.009750 -0.000131 -0.002107 0.000000 0.000000 0.000000
# 2 -0.000131 0.034229 -0.002484 0.000000 0.000000 0.000000
# 3 -0.002107 -0.002484 0.006101 0.000000 0.000000 0.000000
# 4 0.000000 0.000000 0.000000 0.043710 0.000000 0.000000
# 5 0.000000 0.000000 0.000000 0.000000 0.020853 0.000000
# 6 0.000000 0.000000 0.000000 0.000000 0.000000 0.059523
#
#
# Mechanical properties :
#
#
# Convention : Reuss Voigt Hill
#
# Bulk Modulus (GPa) = 24.60857 48.61512 36.61185
# Shear Modulus (GPa) = 25.36064 35.39414 30.37739
#
# Velocity S-wave (km/s) = 3.15090 3.72237 3.44849
# Velocity P-wave (km/s) = 4.78239 6.12426 5.49445
#
# Compressibility (1/GPa) = 0.04063624
#
# Stress axis : x y z
#
# Youngs Moduli (GPa) = 102.56435 29.21459 163.91471
#
# Poissons Ratio (x) = 0.00381 0.34539
# Poissons Ratio (y) = 0.01339 0.40722
# Poissons Ratio (z) = 0.21612 0.07258
#
# Static dielectric constant tensor:
#      x y z
#    x 2.081970 0.000000 0.000000 
#    y 0.000000 2.034090 0.000000 
#    z 0.000000 0.000000 2.010730 
# 
# From -- ./inp_files/6313.got.cif
#   From: 2010.05.17/outbox.cif.g08.bks.cpg/sg73_4_cif.got.tgz:6313.got - 2010.06.03 17:35:07.
