data_PCOD9530798
_publ_section_title
;
Structure prediction by ZEFSAII (Michael W. Deem and Ramdas Pophale) SiO2 
 PCOD9530798
Probable space group: I B C A 
;
_chemical_formula_sum "Si O2"
_cell_formula_units_Z 120
_cell_length_a 25.648279
_cell_length_b 24.524862
_cell_length_c 9.582804
_cell_angle_alpha 90.000000
_cell_angle_beta 90.000000
_cell_angle_gamma 90.000000
_cell_volume 6027.780192
_symmetry_space_group_name_H-M "I B C A "
_symmetry_group_IT_number 73
_symmetry_cell_setting 'orthorhombic'
loop_
_space_group_symop_operation_xyz
x,y,z
-x,1/2-y,z
x,-y,1/2-z
1/2-x,y,-z
-x,-y,-z
x,1/2+y,-z
-x,y,1/2+z
1/2+x,-y,z
1/2+x,1/2+y,1/2+z
1/2-x,-y,1/2+z
1/2+x,1/2-y,-z
-x,1/2+y,1/2-z
1/2-x,1/2-y,1/2-z
1/2+x,y,1/2-z
1/2-x,1/2+y,z
x,1/2-y,1/2+z
loop_
_atom_site_type_symbol
_atom_site_label
_atom_site_fract_x
_atom_site_fract_y
_atom_site_fract_z
Si Si1 0.604045 0.116469 0.965353
Si Si2 0.065101 0.613361 0.764563
Si Si3 0.477918 0.960772 0.120154
Si Si4 0.200713 0.562689 0.590635
Si Si5 0.744012 0.128491 0.346959
Si Si6 0.147907 0.189490 0.767405
Si Si7 0.642155 0.800968 0.093569
Si Si8 0.627513 0.500000 0.750000
O O1 0.578765 0.059506 0.921827
O O2 0.609603 0.151437 0.824748
O O3 0.568523 0.132199 0.101221
O O4 0.662534 0.108020 0.023382
O O5 0.097228 0.658951 0.847678
O O6 0.095240 0.555088 0.766639
O O7 0.011307 0.593452 0.836583
O O8 0.476414 0.000000 0.250000
O O9 0.500000 0.000000 0.000000
O O10 0.250000 0.549899 0.500000
O O11 0.222512 0.586691 0.734320
O O12 0.164671 0.511111 0.619710
O O13 0.750000 0.102384 0.500000
O O14 0.796148 0.158386 0.288133
O O15 0.698050 0.171624 0.376056
O O16 0.146767 0.244248 0.675485
O O17 0.133197 0.203889 0.927160
#
# Coordination Sequence:
#
# PCOD9530798 Si02
#       8
#    16  16  16  16  16  16  16   8
#     4  11  23  42  65  95 133 169 220 276 335 395
#     4  11  22  44  68  93 129 176 217 286 333 399
#     4  12  24  44  71 101 129 173 231 276 336 398
#     4  11  21  40  61  90 132 182 213 270 321 401
#     4  10  21  39  64  95 132 178 228 270 321 399
#     4  11  24  40  64 101 133 178 222 276 334 401
#     4  11  23  40  67  95 136 175 225 276 333 401
#     4  10  20  38  60  86 126 172 216 262 340 380
#
# _framework density 19.907826
#
# number of rings (size 3 to 8) (size 9 to 14) (size 15 to 20)
#    0.000    1.067    6.000    2.000    1.867    0.533 
#    1.200    0.667    0.000    3.200    0.000    0.000 
#    0.000    0.000    0.000    0.000    0.000    0.000 
#
# Total GULP energy -334424.879605 kJ/mol
# GULP energy per Si atom -5573.747993 kJ/mol
# Density = 1.986251 g / cm^3
# Si number density = 19.907826 Si / 1000 Ang^3
#
#
#
# Elastic Constant Matrix: (Units=GPa)
#
#
# Indices 1 2 3 4 5 6 
#
# 1 69.2961 23.4710 41.5439 0.0000 0.0000 0.0000
# 2 23.4710 54.4206 47.3142 0.0000 0.0000 0.0000
# 3 41.5439 47.3142 170.1338 0.0000 0.0000 0.0000
# 4 0.0000 0.0000 0.0000 32.8476 0.0000 0.0000
# 5 0.0000 0.0000 0.0000 0.0000 25.6996 0.0000
# 6 0.0000 0.0000 0.0000 0.0000 0.0000 1.1789
#
#
#
# Elastic Compliance Matrix: (Units=1/GPa)
#
#
# Indices 1 2 3 4 5 6 
#
# 1 0.017950 -0.005184 -0.002941 0.000000 0.000000 0.000000
# 2 -0.005184 0.025732 -0.005890 0.000000 0.000000 0.000000
# 3 -0.002941 -0.005890 0.008234 0.000000 0.000000 0.000000
# 4 0.000000 0.000000 0.000000 0.030444 0.000000 0.000000
# 5 0.000000 0.000000 0.000000 0.000000 0.038911 0.000000
# 6 0.000000 0.000000 0.000000 0.000000 0.000000 0.848215
#
#
# Mechanical properties :
#
#
# Convention : Reuss Voigt Hill
#
# Bulk Modulus (GPa) = 41.86796 57.61207 49.74001
# Shear Modulus (GPa) = 4.97275 24.04665 14.50970
#
# Velocity S-wave (km/s) = 1.58218 3.47926 2.70264
# Velocity P-wave (km/s) = 4.94108 6.71882 5.89732
#
# Compressibility (1/GPa) = 0.02388461
#
# Stress axis : x y z
#
# Youngs Moduli (GPa) = 55.70965 38.86147 121.44728
#
# Poissons Ratio (x) = 0.20148 0.35722
# Poissons Ratio (y) = 0.28882 0.71535
# Poissons Ratio (z) = 0.16386 0.22890
#
# Static dielectric constant tensor:
#      x y z
#    x 1.775810 0.000000 0.000000 
#    y 0.000000 1.680660 0.000000 
#    z 0.000000 0.000000 1.712720 
# 
# From -- ./inp_files/8060.got.cif
#   From: 2010.05.17/outbox.cif.g08.bks.cpg/sg73_5_cif.got.tgz:8060.got - 2010.06.03 17:35:07.
