data_PCOD9530613
_publ_section_title
;
Structure prediction by ZEFSAII (Michael W. Deem and Ramdas Pophale) SiO2 
 PCOD9530613
Probable space group: I B C A 
;
_chemical_formula_sum "Si O2"
_cell_formula_units_Z 120
_cell_length_a 30.624179
_cell_length_b 8.116782
_cell_length_c 23.408064
_cell_angle_alpha 90.000000
_cell_angle_beta 90.000000
_cell_angle_gamma 90.000000
_cell_volume 5818.537433
_symmetry_space_group_name_H-M "I B C A "
_symmetry_group_IT_number 73
_symmetry_cell_setting 'orthorhombic'
loop_
_space_group_symop_operation_xyz
x,y,z
-x,1/2-y,z
x,-y,1/2-z
1/2-x,y,-z
-x,-y,-z
x,1/2+y,-z
-x,y,1/2+z
1/2+x,-y,z
1/2+x,1/2+y,1/2+z
1/2-x,-y,1/2+z
1/2+x,1/2-y,-z
-x,1/2+y,1/2-z
1/2-x,1/2-y,1/2-z
1/2+x,y,1/2-z
1/2-x,1/2+y,z
x,1/2-y,1/2+z
loop_
_atom_site_type_symbol
_atom_site_label
_atom_site_fract_x
_atom_site_fract_y
_atom_site_fract_z
Si Si1 0.408912 0.500000 0.750000
Si Si2 0.386476 0.729344 0.888153
Si Si3 0.952902 0.821999 0.715440
Si Si4 0.796801 0.794616 0.814228
Si Si5 0.197571 0.313125 0.816419
Si Si6 0.956930 0.358402 0.466424
Si Si7 0.455391 0.217478 0.911873
Si Si8 0.125629 0.618142 0.364951
O O1 0.436288 0.332021 0.753021
O O2 0.381110 0.515306 0.693512
O O3 0.419617 0.805438 0.838619
O O4 0.338581 0.768416 0.863245
O O5 0.410133 0.798795 0.943858
O O6 0.382761 0.536061 0.905202
O O7 0.000000 0.750000 0.696403
O O8 0.953062 0.000000 0.750000
O O9 0.746803 0.748767 0.825988
O O10 0.811397 0.751250 0.748814
O O11 0.828349 0.705125 0.858678
O O12 0.801530 0.989851 0.816091
O O13 0.959433 0.539432 0.440199
O O14 0.956054 0.343224 0.534727
O O15 0.000000 0.250000 0.448573
O O16 0.500000 0.250000 0.876890
O O17 0.411761 0.248070 0.876701
#
# Coordination Sequence:
#
# PCOD9530613 Si02
#       8
#     8  16  16  16  16  16  16  16
#     4  10  24  38  54  82 120 160 202 250 294 368
#     4  11  23  37  58  85 117 156 201 255 306 360
#     4  11  23  37  55  77 118 162 201 242 299 363
#     4  10  20  36  58  84 120 155 205 248 307 369
#     4  10  21  35  57  85 116 161 198 253 305 366
#     4  11  22  41  62  90 122 155 208 260 309 368
#     4  11  23  39  65  90 120 160 204 257 312 366
#     4  11  22  39  58  86 118 157 201 250 308 366
#
# _framework density 20.623737999999999
#
# number of rings (size 3 to 8) (size 9 to 14) (size 15 to 20)
#    0.000    1.333    0.667    6.800    5.600    3.733 
#    0.000    0.000    0.000    0.800    0.000    5.600 
#    0.000    0.000    0.000    0.000    0.000    0.000 
#
# Total GULP energy -334183.310548 kJ/mol
# GULP energy per Si atom -5569.721842 kJ/mol
# Density = 2.057680 g / cm^3
# Si number density = 20.623738 Si / 1000 Ang^3
#
#
#
# Elastic Constant Matrix: (Units=GPa)
#
#
# Indices 1 2 3 4 5 6 
#
# 1 117.6011 41.1392 26.4066 0.0000 0.0000 0.0000
# 2 41.1392 115.8537 8.4088 0.0000 0.0000 0.0000
# 3 26.4066 8.4088 28.8310 0.0000 0.0000 0.0000
# 4 0.0000 0.0000 0.0000 22.2250 0.0000 0.0000
# 5 0.0000 0.0000 0.0000 0.0000 34.6821 0.0000
# 6 0.0000 0.0000 0.0000 0.0000 0.0000 42.4466
#
#
#
# Elastic Compliance Matrix: (Units=1/GPa)
#
#
# Indices 1 2 3 4 5 6 
#
# 1 0.011968 -0.003529 -0.009932 0.000000 0.000000 0.000000
# 2 -0.003529 0.009859 0.000357 0.000000 0.000000 0.000000
# 3 -0.009932 0.000357 0.043678 0.000000 0.000000 0.000000
# 4 0.000000 0.000000 0.000000 0.044994 0.000000 0.000000
# 5 0.000000 0.000000 0.000000 0.000000 0.028833 0.000000
# 6 0.000000 0.000000 0.000000 0.000000 0.000000 0.023559
#
#
# Mechanical properties :
#
#
# Convention : Reuss Voigt Hill
#
# Bulk Modulus (GPa) = 25.44804 46.02167 35.73485
# Shear Modulus (GPa) = 24.72805 32.29280 28.51043
#
# Velocity S-wave (km/s) = 3.46643 3.96132 3.72211
# Velocity P-wave (km/s) = 5.32799 6.57922 5.98638
#
# Compressibility (1/GPa) = 0.03929576
#
# Stress axis : x y z
#
# Youngs Moduli (GPa) = 83.55569 101.43241 22.89477
#
# Poissons Ratio (x) = 0.35795 0.22740
# Poissons Ratio (y) = 0.29486 -0.00817
# Poissons Ratio (z) = 0.82991 -0.03619
#
# Static dielectric constant tensor:
#      x y z
#    x 1.810270 0.000000 0.000000 
#    y 0.000000 -0.437590 0.000000 
#    z 0.000000 0.000000 1.816340 
# 
# From -- ./inp_files/33010.got.cif
#   From: 2010.05.17/outbox.cif.g08.bks.cpg/sg73_17_cif.got.tgz:33010.got - 2010.06.03 17:35:07.
