data_PCOD9530143
_publ_section_title
;
Structure prediction by ZEFSAII (Michael W. Deem and Ramdas Pophale) SiO2 
 PCOD9530143
Probable space group: I B C A 
;
_chemical_formula_sum "Si O2"
_cell_formula_units_Z 80
_cell_length_a 32.852738
_cell_length_b 5.279203
_cell_length_c 23.354358
_cell_angle_alpha 90.000000
_cell_angle_beta 90.000000
_cell_angle_gamma 90.000000
_cell_volume 4050.492810
_symmetry_space_group_name_H-M "I B C A "
_symmetry_group_IT_number 73
_symmetry_cell_setting 'orthorhombic'
loop_
_space_group_symop_operation_xyz
x,y,z
-x,1/2-y,z
x,-y,1/2-z
1/2-x,y,-z
-x,-y,-z
x,1/2+y,-z
-x,y,1/2+z
1/2+x,-y,z
1/2+x,1/2+y,1/2+z
1/2-x,-y,1/2+z
1/2+x,1/2-y,-z
-x,1/2+y,1/2-z
1/2-x,1/2-y,1/2-z
1/2+x,y,1/2-z
1/2-x,1/2+y,z
x,1/2-y,1/2+z
loop_
_atom_site_type_symbol
_atom_site_label
_atom_site_fract_x
_atom_site_fract_y
_atom_site_fract_z
Si Si1 0.766390 0.298399 0.814881
Si Si2 0.983933 0.500071 0.314133
Si Si3 0.899936 0.472333 0.141147
Si Si4 0.140455 0.476299 0.316592
Si Si5 0.049297 0.737387 0.967618
O O1 0.750000 0.250000 0.750000
O O2 0.739415 0.521935 0.841946
O O3 0.812338 0.395766 0.814298
O O4 0.002286 0.500000 0.250000
O O5 0.936056 0.515734 0.312407
O O6 0.000000 0.250000 0.344364
O O7 0.000000 0.750000 0.342957
O O8 0.881066 0.752860 0.146825
O O9 0.924995 0.378039 0.085388
O O10 0.868168 0.251611 0.156684
O O11 0.126257 0.500000 0.250000
O O12 0.000000 0.750000 0.962438
O O13 0.059655 0.528626 0.016922
#
# Coordination Sequence:
#
# PCOD9530143 Si02
#       5
#    16  16  16  16  16
#     4  10  19  34  56  76 113 169 196 229 263 333
#     4  10  20  34  50  68 104 155 192 217 265 334
#     4  12  24  36  55  87 118 146 200 252 299 355
#     4  12  23  35  55  86 128 164 189 229 299 342
#     4  10  22  42  65  84 108 151 205 264 322 357
#
# _framework density 19.750682999999999
#
# number of rings (size 3 to 8) (size 9 to 14) (size 15 to 20)
#    0.000    1.200    2.000    6.000    2.800    4.000 
#    0.000    0.000    0.000    0.000    0.000    0.000 
#    0.000   56.000    0.000    0.000    0.000    0.000 
#
# Total GULP energy -222793.504873 kJ/mol
# GULP energy per Si atom -5569.837622 kJ/mol
# Density = 1.970573 g / cm^3
# Si number density = 19.750683 Si / 1000 Ang^3
#
#
#
# Elastic Constant Matrix: (Units=GPa)
#
#
# Indices 1 2 3 4 5 6 
#
# 1 86.8462 33.0358 8.0099 0.0000 0.0000 0.0000
# 2 33.0358 175.9292 10.8092 0.0000 0.0000 0.0000
# 3 8.0099 10.8092 59.0540 0.0000 0.0000 0.0000
# 4 0.0000 0.0000 0.0000 42.3939 0.0000 0.0000
# 5 0.0000 0.0000 0.0000 0.0000 12.1780 0.0000
# 6 0.0000 0.0000 0.0000 0.0000 0.0000 38.8800
#
#
#
# Elastic Compliance Matrix: (Units=1/GPa)
#
#
# Indices 1 2 3 4 5 6 
#
# 1 0.012495 -0.002268 -0.001280 0.000000 0.000000 0.000000
# 2 -0.002268 0.006160 -0.000820 0.000000 0.000000 0.000000
# 3 -0.001280 -0.000820 0.017257 0.000000 0.000000 0.000000
# 4 0.000000 0.000000 0.000000 0.023588 0.000000 0.000000
# 5 0.000000 0.000000 0.000000 0.000000 0.082115 0.000000
# 6 0.000000 0.000000 0.000000 0.000000 0.000000 0.025720
#
#
# Mechanical properties :
#
#
# Convention : Reuss Voigt Hill
#
# Bulk Modulus (GPa) = 36.79447 47.28214 42.03830
# Shear Modulus (GPa) = 27.00795 36.68869 31.84832
#
# Velocity S-wave (km/s) = 3.70191 4.31465 4.01997
# Velocity P-wave (km/s) = 6.07800 6.98664 6.54810
#
# Compressibility (1/GPa) = 0.02717800
#
# Stress axis : x y z
#
# Youngs Moduli (GPa) = 80.03025 162.32939 57.94645
#
# Poissons Ratio (x) = 0.36812 0.07416
# Poissons Ratio (y) = 0.18149 0.04752
# Poissons Ratio (z) = 0.10242 0.13311
#
# Static dielectric constant tensor:
#      x y z
#    x 1.634150 0.000000 0.000000 
#    y 0.000000 1.845670 0.000000 
#    z 0.000000 0.000000 1.766460 
# 
# From -- ./inp_files/30601.got.cif
#   From: 2010.05.17/outbox.cif.g08.bks.cpg/sg73_16_cif.got.tgz:30601.got - 2010.06.03 17:35:07.
