data_PCOD9530760
_publ_section_title
;
Structure prediction by ZEFSAII (Michael W. Deem and Ramdas Pophale) SiO2 
 PCOD9530760
Probable space group: I B C A 
;
_chemical_formula_sum "Si O2"
_cell_formula_units_Z 56
_cell_length_a 13.878243
_cell_length_b 18.124797
_cell_length_c 9.476672
_cell_angle_alpha 90.000000
_cell_angle_beta 90.000000
_cell_angle_gamma 90.000000
_cell_volume 2383.765269
_symmetry_space_group_name_H-M "I B C A "
_symmetry_group_IT_number 73
_symmetry_cell_setting 'orthorhombic'
loop_
_space_group_symop_operation_xyz
x,y,z
-x,1/2-y,z
x,-y,1/2-z
1/2-x,y,-z
-x,-y,-z
x,1/2+y,-z
-x,y,1/2+z
1/2+x,-y,z
1/2+x,1/2+y,1/2+z
1/2-x,-y,1/2+z
1/2+x,1/2-y,-z
-x,1/2+y,1/2-z
1/2-x,1/2-y,1/2-z
1/2+x,y,1/2-z
1/2-x,1/2+y,z
x,1/2-y,1/2+z
loop_
_atom_site_type_symbol
_atom_site_label
_atom_site_fract_x
_atom_site_fract_y
_atom_site_fract_z
Si Si1 0.000000 0.250000 0.015413
Si Si2 0.166365 0.352574 0.099154
Si Si3 0.583861 0.894332 0.879987
Si Si4 0.391805 0.483057 0.109280
O O1 0.919651 0.206358 0.102139
O O2 0.949386 0.313367 0.924899
O O3 0.164707 0.383821 0.259218
O O4 0.250000 0.317415 0.000000
O O5 0.142722 0.423088 0.002329
O O6 0.488879 0.940984 0.831759
O O7 0.606309 0.941725 0.020051
O O8 0.333298 0.500000 0.250000
#
# Coordination Sequence:
#
# PCOD9530760 Si02
#       4
#     8  16  16  16
#     4  10  22  40  66  92 130 178 226 280 338 402
#     4  11  24  41  63  94 130 172 225 282 341 405
#     4  10  20  38  64  92 128 174 223 272 328 399
#     4  10  20  37  64  94 127 172 216 265 335 403
#
# _framework density 23.492246999999999
#
# number of rings (size 3 to 8) (size 9 to 14) (size 15 to 20)
#    0.000    1.714    0.000    6.857    0.000    5.714 
#    0.000    1.429    0.000    0.000    0.000    0.000 
#    0.000    0.000    0.000    0.000    0.000    0.000 
#
# Total GULP energy -155891.958721 kJ/mol
# GULP energy per Si atom -5567.569954 kJ/mol
# Density = 2.343878 g / cm^3
# Si number density = 23.492247 Si / 1000 Ang^3
#
#
#
# Elastic Constant Matrix: (Units=GPa)
#
#
# Indices 1 2 3 4 5 6 
#
# 1 66.7922 23.7839 27.9551 0.0000 0.0000 0.0000
# 2 23.7839 164.4915 63.6023 0.0000 0.0000 0.0000
# 3 27.9551 63.6023 98.0678 0.0000 0.0000 0.0000
# 4 0.0000 0.0000 0.0000 12.7005 0.0000 0.0000
# 5 0.0000 0.0000 0.0000 0.0000 14.6986 0.0000
# 6 0.0000 0.0000 0.0000 0.0000 0.0000 8.1319
#
#
#
# Elastic Compliance Matrix: (Units=1/GPa)
#
#
# Indices 1 2 3 4 5 6 
#
# 1 0.017075 -0.000783 -0.004359 0.000000 0.000000 0.000000
# 2 -0.000783 0.008150 -0.005062 0.000000 0.000000 0.000000
# 3 -0.004359 -0.005062 0.014723 0.000000 0.000000 0.000000
# 4 0.000000 0.000000 0.000000 0.078737 0.000000 0.000000
# 5 0.000000 0.000000 0.000000 0.000000 0.068034 0.000000
# 6 0.000000 0.000000 0.000000 0.000000 0.000000 0.122972
#
#
# Mechanical properties :
#
#
# Convention : Reuss Voigt Hill
#
# Bulk Modulus (GPa) = 51.18245 62.22602 56.70423
# Shear Modulus (GPa) = 14.85379 21.37355 18.11367
#
# Velocity S-wave (km/s) = 2.51726 3.01958 2.77979
# Velocity P-wave (km/s) = 5.50300 6.22114 5.87306
#
# Compressibility (1/GPa) = 0.01953795
#
# Stress axis : x y z
#
# Youngs Moduli (GPa) = 58.56399 122.69851 67.92086
#
# Poissons Ratio (x) = 0.09611 0.29610
# Poissons Ratio (y) = 0.04587 0.34385
# Poissons Ratio (z) = 0.25531 0.62116
#
# Static dielectric constant tensor:
#      x y z
#    x 2.176560 0.000000 0.000000 
#    y 0.000000 1.842930 0.000000 
#    z 0.000000 0.000000 2.850130 
# 
# From -- ./inp_files/4529.got.cif
#   From: 2010.05.17/outbox.cif.g08.bks.cpg/sg73_3_cif.got.tgz:4529.got - 2010.06.03 17:35:07.
