data_PCOD9530986
_publ_section_title
;
Structure prediction by ZEFSAII (Michael W. Deem and Ramdas Pophale) SiO2 
 PCOD9530986
Probable space group: I B C A 
;
_chemical_formula_sum "Si O2"
_cell_formula_units_Z 96
_cell_length_a 14.486522
_cell_length_b 13.781858
_cell_length_c 21.028469
_cell_angle_alpha 90.000000
_cell_angle_beta 90.000000
_cell_angle_gamma 90.000000
_cell_volume 4198.358841
_symmetry_space_group_name_H-M "I B C A "
_symmetry_group_IT_number 73
_symmetry_cell_setting 'orthorhombic'
loop_
_space_group_symop_operation_xyz
x,y,z
-x,1/2-y,z
x,-y,1/2-z
1/2-x,y,-z
-x,-y,-z
x,1/2+y,-z
-x,y,1/2+z
1/2+x,-y,z
1/2+x,1/2+y,1/2+z
1/2-x,-y,1/2+z
1/2+x,1/2-y,-z
-x,1/2+y,1/2-z
1/2-x,1/2-y,1/2-z
1/2+x,y,1/2-z
1/2-x,1/2+y,z
x,1/2-y,1/2+z
loop_
_atom_site_type_symbol
_atom_site_label
_atom_site_fract_x
_atom_site_fract_y
_atom_site_fract_z
Si Si1 0.589245 0.691637 0.545044
Si Si2 0.745990 0.685730 0.083100
Si Si3 0.769578 0.000000 0.250000
Si Si4 0.785630 0.973021 0.889416
Si Si5 0.500000 0.250000 0.198933
Si Si6 0.603820 0.650891 0.404841
Si Si7 0.338238 0.702097 0.719733
O O1 0.500000 0.750000 0.570504
O O2 0.672939 0.768540 0.533566
O O3 0.639067 0.604253 0.584489
O O4 0.562321 0.649901 0.475546
O O5 0.782628 0.576947 0.076334
O O6 0.832372 0.753066 0.100462
O O7 0.678221 0.694247 0.145125
O O8 0.708492 0.009806 0.313661
O O9 0.835600 0.092352 0.243952
O O10 0.681763 0.931102 0.899091
O O11 0.529173 0.336478 0.150735
O O12 0.581868 0.235821 0.248798
O O13 0.250000 0.750000 0.750000
#
# Coordination Sequence:
#
# PCOD9530986 Si02
#       7
#    16  16   8  16   8  16  16
#     4  11  24  42  65 101 135 176 229 287 335 404
#     4  10  22  41  65  94 128 176 222 277 343 406
#     4  10  20  40  66  90 130 168 218 268 328 416
#     4  10  21  42  67  95 131 179 221 276 345 408
#     4  12  22  40  64  94 128 178 222 274 338 402
#     4  11  22  43  68  88 135 182 223 269 343 414
#     4  11  21  40  66  91 127 169 220 278 339 404
#
# _framework density 22.866077000000001
#
# number of rings (size 3 to 8) (size 9 to 14) (size 15 to 20)
#    0.000    1.333    4.167    3.000    1.167    2.667 
#    3.000    2.500    0.000    0.000    0.000    0.000 
#    0.000    0.000    0.000    0.000    0.000    0.000 
#
# Total GULP energy -267820.921782 kJ/mol
# GULP energy per Si atom -5579.602537 kJ/mol
# Density = 2.281403 g / cm^3
# Si number density = 22.866077 Si / 1000 Ang^3
#
#
#
# Elastic Constant Matrix: (Units=GPa)
#
#
# Indices 1 2 3 4 5 6 
#
# 1 115.2363 13.5445 10.5561 0.0000 0.0000 0.0000
# 2 13.5445 115.3881 -6.4441 0.0000 0.0000 0.0000
# 3 10.5561 -6.4441 92.9807 0.0000 0.0000 0.0000
# 4 0.0000 0.0000 0.0000 29.7677 0.0000 0.0000
# 5 0.0000 0.0000 0.0000 0.0000 33.8922 0.0000
# 6 0.0000 0.0000 0.0000 0.0000 0.0000 11.7691
#
#
#
# Elastic Compliance Matrix: (Units=1/GPa)
#
#
# Indices 1 2 3 4 5 6 
#
# 1 0.008908 -0.001106 -0.001088 0.000000 0.000000 0.000000
# 2 -0.001106 0.008837 0.000738 0.000000 0.000000 0.000000
# 3 -0.001088 0.000738 0.010930 0.000000 0.000000 0.000000
# 4 0.000000 0.000000 0.000000 0.033593 0.000000 0.000000
# 5 0.000000 0.000000 0.000000 0.000000 0.029505 0.000000
# 6 0.000000 0.000000 0.000000 0.000000 0.000000 0.084968
#
#
# Mechanical properties :
#
#
# Convention : Reuss Voigt Hill
#
# Bulk Modulus (GPa) = 38.81653 39.87977 39.34815
# Shear Modulus (GPa) = 26.56167 35.48239 31.02203
#
# Velocity S-wave (km/s) = 3.41195 3.94350 3.68731
# Velocity P-wave (km/s) = 5.70389 6.18169 5.94759
#
# Compressibility (1/GPa) = 0.02576222
#
# Stress axis : x y z
#
# Youngs Moduli (GPa) = 112.26471 113.15435 91.49471
#
# Poissons Ratio (x) = 0.12519 0.09954
# Poissons Ratio (y) = 0.12420 -0.06753
# Poissons Ratio (z) = 0.12214 -0.08352
#
# Static dielectric constant tensor:
#      x y z
#    x 1.831960 0.000000 0.000000 
#    y 0.000000 1.837020 0.000000 
#    z 0.000000 0.000000 2.037640 
# 
# From -- ./inp_files/29510.got.cif
#   From: 2010.05.17/outbox.cif.g08.bks.cpg/sg73_15_cif.got.tgz:29510.got - 2010.06.03 17:35:07.
