data_PCOD9530336
_publ_section_title
;
Structure prediction by ZEFSAII (Michael W. Deem and Ramdas Pophale) SiO2 
 PCOD9530336
Probable space group: I B C A 
;
_chemical_formula_sum "Si O2"
_cell_formula_units_Z 104
_cell_length_a 20.590170
_cell_length_b 9.643955
_cell_length_c 23.954758
_cell_angle_alpha 90.000000
_cell_angle_beta 90.000000
_cell_angle_gamma 90.000000
_cell_volume 4756.712416
_symmetry_space_group_name_H-M "I B C A "
_symmetry_group_IT_number 73
_symmetry_cell_setting 'orthorhombic'
loop_
_space_group_symop_operation_xyz
x,y,z
-x,1/2-y,z
x,-y,1/2-z
1/2-x,y,-z
-x,-y,-z
x,1/2+y,-z
-x,y,1/2+z
1/2+x,-y,z
1/2+x,1/2+y,1/2+z
1/2-x,-y,1/2+z
1/2+x,1/2-y,-z
-x,1/2+y,1/2-z
1/2-x,1/2-y,1/2-z
1/2+x,y,1/2-z
1/2-x,1/2+y,z
x,1/2-y,1/2+z
loop_
_atom_site_type_symbol
_atom_site_label
_atom_site_fract_x
_atom_site_fract_y
_atom_site_fract_z
Si Si1 0.675854 0.199997 0.523890
Si Si2 0.103791 0.690650 0.737177
Si Si3 0.239682 0.654358 0.696637
Si Si4 0.871218 0.504323 0.067867
Si Si5 0.761829 0.581854 0.626584
Si Si6 0.421523 0.000000 0.250000
Si Si7 0.462805 0.984652 0.669035
O O1 0.750000 0.227648 0.500000
O O2 0.641027 0.342324 0.542266
O O3 0.687491 0.097072 0.576541
O O4 0.634697 0.114476 0.478891
O O5 0.165855 0.617159 0.709895
O O6 0.081018 0.627104 0.796116
O O7 0.050055 0.637268 0.694331
O O8 0.112989 0.854352 0.738294
O O9 0.250000 0.750000 0.750000
O O10 0.247985 0.761783 0.646490
O O11 0.278705 0.518752 0.678312
O O12 0.806075 0.477469 0.104339
O O13 0.935311 0.487559 0.106386
O O14 0.465455 0.038349 0.305237
#
# Coordination Sequence:
#
# PCOD9530336 Si02
#       7
#    16  16  16  16  16   8  16
#     4  10  21  36  58  82 121 163 220 254 301 374
#     4  10  21  39  58  91 125 161 196 240 310 390
#     4  12  24  34  55  89 136 164 193 235 299 383
#     4  11  21  38  58  85 118 162 208 262 304 355
#     4  11  21  37  53  83 125 171 197 240 301 362
#     4  10  22  38  66  96 118 156 210 256 310 388
#     4  10  19  39  62  83 120 155 203 259 315 362
#
# _framework density 21.86384
#
# number of rings (size 3 to 8) (size 9 to 14) (size 15 to 20)
#    0.000    1.538    3.077    4.615    6.462    0.000 
#    0.000    0.000    0.000    0.000    0.000   22.615 
#    0.000    0.000    0.000    0.000    0.000    0.000 
#
# Total GULP energy -289760.730870 kJ/mol
# GULP energy per Si atom -5572.321747 kJ/mol
# Density = 2.181408 g / cm^3
# Si number density = 21.863840 Si / 1000 Ang^3
#
#
#
# Elastic Constant Matrix: (Units=GPa)
#
#
# Indices 1 2 3 4 5 6 
#
# 1 34.7718 31.8851 33.1647 0.0000 0.0000 0.0000
# 2 31.8851 152.6235 55.8661 0.0000 0.0000 0.0000
# 3 33.1647 55.8661 101.4185 0.0000 0.0000 0.0000
# 4 0.0000 0.0000 0.0000 42.1571 0.0000 0.0000
# 5 0.0000 0.0000 0.0000 0.0000 22.7471 0.0000
# 6 0.0000 0.0000 0.0000 0.0000 0.0000 5.1012
#
#
#
# Elastic Compliance Matrix: (Units=1/GPa)
#
#
# Indices 1 2 3 4 5 6 
#
# 1 0.044633 -0.004988 -0.011848 0.000000 0.000000 0.000000
# 2 -0.004988 0.008764 -0.003197 0.000000 0.000000 0.000000
# 3 -0.011848 -0.003197 0.015495 0.000000 0.000000 0.000000
# 4 0.000000 0.000000 0.000000 0.023721 0.000000 0.000000
# 5 0.000000 0.000000 0.000000 0.000000 0.043962 0.000000
# 6 0.000000 0.000000 0.000000 0.000000 0.000000 0.196034
#
#
# Mechanical properties :
#
#
# Convention : Reuss Voigt Hill
#
# Bulk Modulus (GPa) = 34.68861 58.96062 46.82462
# Shear Modulus (GPa) = 13.07933 25.19425 19.13679
#
# Velocity S-wave (km/s) = 2.44850 3.39827 2.96171
# Velocity P-wave (km/s) = 4.88812 6.51333 5.75835
#
# Compressibility (1/GPa) = 0.02882791
#
# Stress axis : x y z
#
# Youngs Moduli (GPa) = 22.40506 114.10077 64.53525
#
# Poissons Ratio (x) = 0.56909 0.76461
# Poissons Ratio (y) = 0.11175 0.20630
# Poissons Ratio (z) = 0.26545 0.36475
#
# Static dielectric constant tensor:
#      x y z
#    x 2.815490 0.000000 0.000000 
#    y 0.000000 1.788240 0.000000 
#    z 0.000000 0.000000 1.875010 
# 
# From -- ./inp_files/32866.got.cif
#   From: 2010.05.17/outbox.cif.g08.bks.cpg/sg73_17_cif.got.tgz:32866.got - 2010.06.03 17:35:07.
