data_PCOD9530188
_publ_section_title
;
Structure prediction by ZEFSAII (Michael W. Deem and Ramdas Pophale) SiO2 
 PCOD9530188
Probable space group: I B C A 
;
_chemical_formula_sum "Si O2"
_cell_formula_units_Z 112
_cell_length_a 30.750113
_cell_length_b 5.455243
_cell_length_c 29.094959
_cell_angle_alpha 90.000000
_cell_angle_beta 90.000000
_cell_angle_gamma 90.000000
_cell_volume 4880.660132
_symmetry_space_group_name_H-M "I B C A "
_symmetry_group_IT_number 73
_symmetry_cell_setting 'orthorhombic'
loop_
_space_group_symop_operation_xyz
x,y,z
-x,1/2-y,z
x,-y,1/2-z
1/2-x,y,-z
-x,-y,-z
x,1/2+y,-z
-x,y,1/2+z
1/2+x,-y,z
1/2+x,1/2+y,1/2+z
1/2-x,-y,1/2+z
1/2+x,1/2-y,-z
-x,1/2+y,1/2-z
1/2-x,1/2-y,1/2-z
1/2+x,y,1/2-z
1/2-x,1/2+y,z
x,1/2-y,1/2+z
loop_
_atom_site_type_symbol
_atom_site_label
_atom_site_fract_x
_atom_site_fract_y
_atom_site_fract_z
Si Si1 0.092207 0.157265 0.816377
Si Si2 0.261128 0.466525 0.825314
Si Si3 0.369210 0.382858 0.090657
Si Si4 0.359046 0.500000 0.250000
Si Si5 0.351224 0.238441 0.339473
Si Si6 0.000000 0.250000 0.780573
Si Si7 0.272393 0.597315 0.428704
Si Si8 0.951114 0.758845 0.028433
O O1 0.116571 0.265465 0.860733
O O2 0.113289 0.276951 0.771289
O O3 0.042141 0.218517 0.812251
O O4 0.103490 0.873342 0.822076
O O5 0.253368 0.719935 0.800803
O O6 0.311330 0.448635 0.839995
O O7 0.234420 0.444983 0.873425
O O8 0.359964 0.657291 0.109981
O O9 0.322957 0.325904 0.066798
O O10 0.410043 0.312246 0.059597
O O11 0.336411 0.409557 0.296661
O O12 0.003254 0.500000 0.750000
O O13 0.257004 0.327321 0.445553
O O14 0.000000 0.750000 0.049699
O O15 0.948876 0.537450 0.990806
#
# Coordination Sequence:
#
# PCOD9530188 Si02
#       8
#    16  16  16   8  16   8  16  16
#     4  11  24  41  64  94 129 177 231 287 338 410
#     4  10  19  35  57  88 128 169 218 271 338 387
#     4  11  24  39  73 105 129 180 236 283 337 420
#     4  10  22  40  54  88 128 182 226 282 342 386
#     4  11  22  38  65  93 132 178 233 284 336 399
#     4  12  26  46  64  88 134 182 220 282 370 404
#     4  10  19  35  60  97 137 175 219 275 341 395
#     4  10  25  50  74 102 144 181 216 280 358 422
#
# _framework density 22.947717999999998
#
# number of rings (size 3 to 8) (size 9 to 14) (size 15 to 20)
#    0.000    1.429    3.571    3.000    7.000    0.000 
#    0.000    0.714    0.000    2.571    0.000    0.000 
#    0.000    0.000    0.000    0.000    0.000    0.000 
#
# Total GULP energy -311963.265411 kJ/mol
# GULP energy per Si atom -5570.772597 kJ/mol
# Density = 2.289549 g / cm^3
# Si number density = 22.947718 Si / 1000 Ang^3
#
#
#
# Elastic Constant Matrix: (Units=GPa)
#
#
# Indices 1 2 3 4 5 6 
#
# 1 160.0846 24.9769 26.5061 0.0000 0.0000 0.0000
# 2 24.9769 117.9875 -0.6565 0.0000 0.0000 0.0000
# 3 26.5061 -0.6565 43.1169 0.0000 0.0000 0.0000
# 4 0.0000 0.0000 0.0000 5.1924 0.0000 0.0000
# 5 0.0000 0.0000 0.0000 0.0000 -39.9164 0.0000
# 6 0.0000 0.0000 0.0000 0.0000 0.0000 33.0609
#
#
#
# Elastic Compliance Matrix: (Units=1/GPa)
#
#
# Indices 1 2 3 4 5 6 
#
# 1 0.007229 -0.001555 -0.004468 0.000000 0.000000 0.000000
# 2 -0.001555 0.008811 0.001090 0.000000 0.000000 0.000000
# 3 -0.004468 0.001090 0.025956 0.000000 0.000000 0.000000
# 4 0.000000 0.000000 0.000000 0.192590 0.000000 0.000000
# 5 0.000000 0.000000 0.000000 0.000000 -0.025052 0.000000
# 6 0.000000 0.000000 0.000000 0.000000 0.000000 0.030247
#
#
# Mechanical properties :
#
#
# Convention : Reuss Voigt Hill
#
# Bulk Modulus (GPa) = 31.12330 46.98243 39.05287
# Shear Modulus (GPa) = 19.20446 17.69154 18.44800
#
# Velocity S-wave (km/s) = 2.89602 2.77961 2.83841
# Velocity P-wave (km/s) = 4.97742 5.55156 5.27231
#
# Compressibility (1/GPa) = 0.03213027
#
# Stress axis : x y z
#
# Youngs Moduli (GPa) = 138.32989 113.49757 38.52692
#
# Poissons Ratio (x) = 0.17651 0.17213
# Poissons Ratio (y) = 0.21513 -0.04200
# Poissons Ratio (z) = 0.61802 -0.12374
#
# Static dielectric constant tensor:
#      x y z
#    x 1.894880 0.000000 0.000000 
#    y 0.000000 2.158110 0.000000 
#    z 0.000000 0.000000 1.843570 
# 
# From -- ./inp_files/3289.got.cif
#   From: 2010.05.17/outbox.cif.g08.bks.cpg/sg73_2_cif.got.tgz:3289.got - 2010.06.03 17:35:07.
