data_PCOD9530175
_publ_section_title
;
Structure prediction by ZEFSAII (Michael W. Deem and Ramdas Pophale) SiO2 
 PCOD9530175
Probable space group: I B C A 
;
_chemical_formula_sum "Si O2"
_cell_formula_units_Z 88
_cell_length_a 9.742359
_cell_length_b 12.969725
_cell_length_c 30.211417
_cell_angle_alpha 90.000000
_cell_angle_beta 90.000000
_cell_angle_gamma 90.000000
_cell_volume 3817.385259
_symmetry_space_group_name_H-M "I B C A "
_symmetry_group_IT_number 73
_symmetry_cell_setting 'orthorhombic'
loop_
_space_group_symop_operation_xyz
x,y,z
-x,1/2-y,z
x,-y,1/2-z
1/2-x,y,-z
-x,-y,-z
x,1/2+y,-z
-x,y,1/2+z
1/2+x,-y,z
1/2+x,1/2+y,1/2+z
1/2-x,-y,1/2+z
1/2+x,1/2-y,-z
-x,1/2+y,1/2-z
1/2-x,1/2-y,1/2-z
1/2+x,y,1/2-z
1/2-x,1/2+y,z
x,1/2-y,1/2+z
loop_
_atom_site_type_symbol
_atom_site_label
_atom_site_fract_x
_atom_site_fract_y
_atom_site_fract_z
Si Si1 0.511067 0.124459 0.303479
Si Si2 0.000000 0.250000 0.846897
Si Si3 0.000000 0.250000 0.053596
Si Si4 0.250000 0.727893 0.500000
Si Si5 0.591813 0.953067 0.604681
Si Si6 0.308761 0.351977 0.725489
Si Si7 0.373563 0.394204 0.082104
O O1 0.500000 0.250000 0.312316
O O2 0.458994 0.060240 0.345338
O O3 0.668292 0.096187 0.291393
O O4 0.408758 0.103626 0.262900
O O5 0.906024 0.320025 0.815264
O O6 0.898756 0.188891 0.879397
O O7 0.944138 0.156156 0.082257
O O8 0.128360 0.212081 0.024255
O O9 0.326529 0.658025 0.463294
O O10 0.753179 0.968150 0.599432
O O11 0.512441 0.042218 0.579276
O O12 0.250000 0.250000 0.750000
#
# Coordination Sequence:
#
# PCOD9530175 Si02
#       7
#    16   8   8   8  16  16  16
#     4  10  19  37  64  93 130 173 222 272 330 390
#     4  12  23  41  70  98 132 184 236 269 349 404
#     4  10  23  43  72  96 128 176 214 277 339 414
#     4  10  24  46  66 102 132 174 228 278 356 404
#     4  11  25  43  67 100 135 176 225 274 341 399
#     4  10  19  34  66  95 129 177 221 277 330 397
#     4  11  27  43  69  99 136 176 225 288 338 415
#
# _framework density 23.052429
#
# number of rings (size 3 to 8) (size 9 to 14) (size 15 to 20)
#    0.000    1.455    3.636    2.727    5.091    5.091 
#    0.000    0.909    4.000    0.000    0.000    0.000 
#    0.000    0.000    0.000    0.000    0.000    0.000 
#
# Total GULP energy -246171.377203 kJ/mol
# GULP energy per Si atom -5594.804027 kJ/mol
# Density = 2.299996 g / cm^3
# Si number density = 23.052429 Si / 1000 Ang^3
#
#
#
# Elastic Constant Matrix: (Units=GPa)
#
#
# Indices 1 2 3 4 5 6 
#
# 1 150.1254 -11.4075 49.1807 0.0000 0.0000 0.0000
# 2 -11.4075 27.4068 5.4355 0.0000 0.0000 0.0000
# 3 49.1807 5.4355 122.4966 0.0000 0.0000 0.0000
# 4 0.0000 0.0000 0.0000 12.6927 0.0000 0.0000
# 5 0.0000 0.0000 0.0000 0.0000 33.9700 0.0000
# 6 0.0000 0.0000 0.0000 0.0000 0.0000 33.8608
#
#
#
# Elastic Compliance Matrix: (Units=1/GPa)
#
#
# Indices 1 2 3 4 5 6 
#
# 1 0.008092 0.004048 -0.003428 0.000000 0.000000 0.000000
# 2 0.004048 0.038836 -0.003348 0.000000 0.000000 0.000000
# 3 -0.003428 -0.003348 0.009689 0.000000 0.000000 0.000000
# 4 0.000000 0.000000 0.000000 0.078785 0.000000 0.000000
# 5 0.000000 0.000000 0.000000 0.000000 0.029438 0.000000
# 6 0.000000 0.000000 0.000000 0.000000 0.000000 0.029533
#
#
# Mechanical properties :
#
#
# Convention : Reuss Voigt Hill
#
# Bulk Modulus (GPa) = 19.54698 42.93846 31.24272
# Shear Modulus (GPa) = 23.05393 33.22606 28.13999
#
# Velocity S-wave (km/s) = 3.16581 3.80060 3.49764
# Velocity P-wave (km/s) = 4.67557 6.15843 5.46750
#
# Compressibility (1/GPa) = 0.05115881
#
# Stress axis : x y z
#
# Youngs Moduli (GPa) = 123.58165 25.74917 103.21496
#
# Poissons Ratio (x) = -0.10423 0.35386
# Poissons Ratio (y) = -0.50026 0.34561
# Poissons Ratio (z) = 0.42368 0.08622
#
# Static dielectric constant tensor:
#      x y z
#    x 1.841280 0.000000 0.000000 
#    y 0.000000 1.885310 0.000000 
#    z 0.000000 0.000000 1.995270 
# 
# From -- ./inp_files/33560.got.cif
#   From: 2010.05.17/outbox.cif.g08.bks.cpg/sg73_17_cif.got.tgz:33560.got - 2010.06.03 17:35:07.
