data_PCOD9530834
_publ_section_title
;
Structure prediction by ZEFSAII (Michael W. Deem and Ramdas Pophale) SiO2 
 PCOD9530834
Probable space group: I B C A 
;
_chemical_formula_sum "Si O2"
_cell_formula_units_Z 56
_cell_length_a 18.638011
_cell_length_b 9.641353
_cell_length_c 13.476655
_cell_angle_alpha 90.000000
_cell_angle_beta 90.000000
_cell_angle_gamma 90.000000
_cell_volume 2421.696189
_symmetry_space_group_name_H-M "I B C A "
_symmetry_group_IT_number 73
_symmetry_cell_setting 'orthorhombic'
loop_
_space_group_symop_operation_xyz
x,y,z
-x,1/2-y,z
x,-y,1/2-z
1/2-x,y,-z
-x,-y,-z
x,1/2+y,-z
-x,y,1/2+z
1/2+x,-y,z
1/2+x,1/2+y,1/2+z
1/2-x,-y,1/2+z
1/2+x,1/2-y,-z
-x,1/2+y,1/2-z
1/2-x,1/2-y,1/2-z
1/2+x,y,1/2-z
1/2-x,1/2+y,z
x,1/2-y,1/2+z
loop_
_atom_site_type_symbol
_atom_site_label
_atom_site_fract_x
_atom_site_fract_y
_atom_site_fract_z
Si Si1 0.818934 0.831933 0.063322
Si Si2 0.164227 0.000000 0.750000
Si Si3 0.090029 0.563155 0.561704
Si Si4 0.528199 0.888931 0.643815
O O1 0.797009 0.913225 0.164383
O O2 0.860026 0.691009 0.093257
O O3 0.750000 0.791925 0.000000
O O4 0.866144 0.935947 0.992208
O O5 0.106258 0.089068 0.689100
O O6 0.043246 0.626336 0.472686
O O7 0.033484 0.505965 0.642061
O O8 0.500000 0.750000 0.690472
#
# Coordination Sequence:
#
# PCOD9530834 Si02
#       4
#    16   8  16  16
#     4  11  23  45  65  96 141 190 237 278 335 424
#     4  10  26  38  68 102 138 178 230 294 348 404
#     4  10  21  39  68  93 131 185 225 283 354 403
#     4  10  20  38  64 100 136 167 227 291 352 412
#
# _framework density 23.124286000000001
#
# number of rings (size 3 to 8) (size 9 to 14) (size 15 to 20)
#    0.000    1.714    2.857    0.857    4.000    0.000 
#    0.000   14.286    0.000    0.000    0.000    0.000 
#    0.000    0.000    0.000    0.000    0.000    0.000 
#
# Total GULP energy -156130.282631 kJ/mol
# GULP energy per Si atom -5576.081523 kJ/mol
# Density = 2.307165 g / cm^3
# Si number density = 23.124286 Si / 1000 Ang^3
#
#
#
# Elastic Constant Matrix: (Units=GPa)
#
#
# Indices 1 2 3 4 5 6 
#
# 1 58.9159 15.6882 10.0952 0.0000 0.0000 0.0000
# 2 15.6882 90.5972 8.3840 0.0000 0.0000 0.0000
# 3 10.0952 8.3840 98.7545 0.0000 0.0000 0.0000
# 4 0.0000 0.0000 0.0000 6.2355 0.0000 0.0000
# 5 0.0000 0.0000 0.0000 0.0000 44.4351 0.0000
# 6 0.0000 0.0000 0.0000 0.0000 0.0000 30.6290
#
#
#
# Elastic Compliance Matrix: (Units=1/GPa)
#
#
# Indices 1 2 3 4 5 6 
#
# 1 0.018039 -0.002976 -0.001591 0.000000 0.000000 0.000000
# 2 -0.002976 0.011616 -0.000682 0.000000 0.000000 0.000000
# 3 -0.001591 -0.000682 0.010347 0.000000 0.000000 0.000000
# 4 0.000000 0.000000 0.000000 0.160371 0.000000 0.000000
# 5 0.000000 0.000000 0.000000 0.000000 0.022505 0.000000
# 6 0.000000 0.000000 0.000000 0.000000 0.000000 0.032649
#
#
# Mechanical properties :
#
#
# Convention : Reuss Voigt Hill
#
# Bulk Modulus (GPa) = 33.89555 35.17803 34.53679
# Shear Modulus (GPa) = 18.12515 30.53326 24.32920
#
# Velocity S-wave (km/s) = 2.80271 3.63767 3.24714
# Velocity P-wave (km/s) = 5.01631 5.73491 5.38760
#
# Compressibility (1/GPa) = 0.02950240
#
# Stress axis : x y z
#
# Youngs Moduli (GPa) = 55.43677 86.08535 96.64929
#
# Poissons Ratio (x) = 0.25622 0.15380
# Poissons Ratio (y) = 0.16500 0.06591
# Poissons Ratio (z) = 0.08822 0.05870
#
# Static dielectric constant tensor:
#      x y z
#    x 1.858130 0.000000 0.000000 
#    y 0.000000 1.937790 0.000000 
#    z 0.000000 0.000000 1.732520 
# 
# From -- ./inp_files/4428.got.cif
#   From: 2010.05.17/outbox.cif.g08.bks.cpg/sg73_3_cif.got.tgz:4428.got - 2010.06.03 17:35:07.
