data_PCOD9530905
_publ_section_title
;
Structure prediction by ZEFSAII (Michael W. Deem and Ramdas Pophale) SiO2 
 PCOD9530905
Probable space group: I B C A 
;
_chemical_formula_sum "Si O2"
_cell_formula_units_Z 104
_cell_length_a 15.631314
_cell_length_b 11.415874
_cell_length_c 25.195427
_cell_angle_alpha 90.000000
_cell_angle_beta 90.000000
_cell_angle_gamma 90.000000
_cell_volume 4496.000770
_symmetry_space_group_name_H-M "I B C A "
_symmetry_group_IT_number 73
_symmetry_cell_setting 'orthorhombic'
loop_
_space_group_symop_operation_xyz
x,y,z
-x,1/2-y,z
x,-y,1/2-z
1/2-x,y,-z
-x,-y,-z
x,1/2+y,-z
-x,y,1/2+z
1/2+x,-y,z
1/2+x,1/2+y,1/2+z
1/2-x,-y,1/2+z
1/2+x,1/2-y,-z
-x,1/2+y,1/2-z
1/2-x,1/2-y,1/2-z
1/2+x,y,1/2-z
1/2-x,1/2+y,z
x,1/2-y,1/2+z
loop_
_atom_site_type_symbol
_atom_site_label
_atom_site_fract_x
_atom_site_fract_y
_atom_site_fract_z
Si Si1 0.858344 0.680061 0.706491
Si Si2 0.899076 0.753434 0.322985
Si Si3 0.231559 0.624065 0.649006
Si Si4 0.530815 0.116293 0.621595
Si Si5 0.276393 0.500000 0.250000
Si Si6 0.368548 0.549039 0.097758
Si Si7 0.052146 0.375962 0.493686
O O1 0.893065 0.747589 0.758574
O O2 0.817850 0.754963 0.658383
O O3 0.924972 0.594317 0.677949
O O4 0.781596 0.605619 0.729669
O O5 0.832516 0.855966 0.341310
O O6 0.862437 0.646353 0.356884
O O7 0.000000 0.750000 0.336394
O O8 0.185107 0.553063 0.697364
O O9 0.208244 0.545128 0.599115
O O10 0.500000 0.250000 0.627907
O O11 0.584654 0.116942 0.566941
O O12 0.452752 0.029011 0.610731
O O13 0.381708 0.614869 0.041965
O O14 0.000000 0.250000 0.498038
O O15 0.000000 0.500000 0.500000
#
# Coordination Sequence:
#
# PCOD9530905 Si02
#       7
#    16  16  16  16   8  16  16
#     4  11  22  40  61  95 137 183 240 290 363 451
#     4  11  25  40  62 101 140 181 236 291 360 444
#     4  11  22  41  64  91 139 182 234 291 369 435
#     4  10  20  39  64 102 132 183 233 293 360 445
#     4  10  22  38  60  86 126 192 222 290 364 426
#     4  11  22  40  69 102 133 187 238 301 367 439
#     4   9  20  40  71 106 143 186 242 301 378 440
#
# _framework density 23.131667
#
# number of rings (size 3 to 8) (size 9 to 14) (size 15 to 20)
#    0.000    1.538    1.538    4.615    4.308    0.000 
#    0.000    0.000    0.000    5.538    0.000    0.000 
#    0.000    0.000    0.000    0.000    0.000    0.000 
#
# Total GULP energy -289574.348989 kJ/mol
# GULP energy per Si atom -5568.737481 kJ/mol
# Density = 2.307902 g / cm^3
# Si number density = 23.131667 Si / 1000 Ang^3
#
#
#
# Elastic Constant Matrix: (Units=GPa)
#
#
# Indices 1 2 3 4 5 6 
#
# 1 79.7039 8.8626 40.5059 0.0000 0.0000 0.0000
# 2 8.8626 86.3673 31.2057 0.0000 0.0000 0.0000
# 3 40.5059 31.2057 121.7461 0.0000 0.0000 0.0000
# 4 0.0000 0.0000 0.0000 35.1851 0.0000 0.0000
# 5 0.0000 0.0000 0.0000 0.0000 19.8140 0.0000
# 6 0.0000 0.0000 0.0000 0.0000 0.0000 28.6534
#
#
#
# Elastic Compliance Matrix: (Units=1/GPa)
#
#
# Indices 1 2 3 4 5 6 
#
# 1 0.015106 0.000293 -0.005101 0.000000 0.000000 0.000000
# 2 0.000293 0.012766 -0.003370 0.000000 0.000000 0.000000
# 3 -0.005101 -0.003370 0.010775 0.000000 0.000000 0.000000
# 4 0.000000 0.000000 0.000000 0.028421 0.000000 0.000000
# 5 0.000000 0.000000 0.000000 0.000000 0.050469 0.000000
# 6 0.000000 0.000000 0.000000 0.000000 0.000000 0.034900
#
#
# Mechanical properties :
#
#
# Convention : Reuss Voigt Hill
#
# Bulk Modulus (GPa) = 44.86035 49.88508 47.37272
# Shear Modulus (GPa) = 28.37313 30.54671 29.45992
#
# Velocity S-wave (km/s) = 3.50607 3.63789 3.57259
# Velocity P-wave (km/s) = 5.98545 6.26564 6.12715
#
# Compressibility (1/GPa) = 0.02229140
#
# Stress axis : x y z
#
# Youngs Moduli (GPa) = 66.19773 78.33391 92.81028
#
# Poissons Ratio (x) = -0.02295 0.47343
# Poissons Ratio (y) = -0.01939 0.31273
# Poissons Ratio (z) = 0.33768 0.26395
#
# Static dielectric constant tensor:
#      x y z
#    x 1.950290 0.000000 0.000000 
#    y 0.000000 1.954730 0.000000 
#    z 0.000000 0.000000 1.929620 
# 
# From -- ./inp_files/32411.got.cif
#   From: 2010.05.17/outbox.cif.g08.bks.cpg/sg73_17_cif.got.tgz:32411.got - 2010.06.03 17:35:07.
