data_PCOD9530903
_publ_section_title
;
Structure prediction by ZEFSAII (Michael W. Deem and Ramdas Pophale) SiO2 
 PCOD9530903
Probable space group: I B C A 
;
_chemical_formula_sum "Si O2"
_cell_formula_units_Z 104
_cell_length_a 22.208237
_cell_length_b 29.361170
_cell_length_c 7.762770
_cell_angle_alpha 90.000000
_cell_angle_beta 90.000000
_cell_angle_gamma 90.000000
_cell_volume 5061.790424
_symmetry_space_group_name_H-M "I B C A "
_symmetry_group_IT_number 73
_symmetry_cell_setting 'orthorhombic'
loop_
_space_group_symop_operation_xyz
x,y,z
-x,1/2-y,z
x,-y,1/2-z
1/2-x,y,-z
-x,-y,-z
x,1/2+y,-z
-x,y,1/2+z
1/2+x,-y,z
1/2+x,1/2+y,1/2+z
1/2-x,-y,1/2+z
1/2+x,1/2-y,-z
-x,1/2+y,1/2-z
1/2-x,1/2-y,1/2-z
1/2+x,y,1/2-z
1/2-x,1/2+y,z
x,1/2-y,1/2+z
loop_
_atom_site_type_symbol
_atom_site_label
_atom_site_fract_x
_atom_site_fract_y
_atom_site_fract_z
Si Si1 0.861532 0.187878 0.656288
Si Si2 0.182178 0.220767 0.526704
Si Si3 0.930694 0.988793 0.952098
Si Si4 0.250000 0.367551 0.500000
Si Si5 0.918747 0.917744 0.445270
Si Si6 0.946908 0.394432 0.158365
Si Si7 0.296629 0.126821 0.343620
O O1 0.861785 0.238776 0.580333
O O2 0.843465 0.195611 0.856987
O O3 0.806514 0.161494 0.567161
O O4 0.919554 0.155609 0.626814
O O5 0.250000 0.239813 0.500000
O O6 0.194321 0.181693 0.668394
O O7 0.901157 0.028665 0.063054
O O8 0.921730 0.000000 0.750000
O O9 0.920230 0.934729 0.964961
O O10 0.000000 0.000000 0.000000
O O11 0.229197 0.393768 0.330863
O O12 0.928570 0.906016 0.646428
O O13 0.862237 0.891087 0.378453
O O14 0.981300 0.902336 0.357041
O O15 0.250000 0.119382 0.500000
#
# Coordination Sequence:
#
# PCOD9530903 Si02
#       7
#    16  16  16   8  16  16  16
#     4  12  22  37  61  88 124 161 220 269 322 385
#     4  11  20  38  58  88 118 165 219 272 315 377
#     4   8  16  33  60  89 119 160 206 256 314 380
#     4  12  22  36  64  94 120 170 214 270 318 378
#     4  10  20  39  63  93 129 166 209 273 331 394
#     4  10  21  37  61  94 127 165 213 266 332 400
#     4  11  22  40  64  93 129 167 221 270 324 379
#
# _framework density 20.546088999999998
#
# number of rings (size 3 to 8) (size 9 to 14) (size 15 to 20)
#    0.000    1.538    5.385    1.385    2.154    0.000 
#    0.000    0.769    1.692    0.000    0.000    0.000 
#    0.000    0.000    0.000    0.000    0.000    0.000 
#
# Total GULP energy -289933.648553 kJ/mol
# GULP energy per Si atom -5575.647088 kJ/mol
# Density = 2.049933 g / cm^3
# Si number density = 20.546089 Si / 1000 Ang^3
#
#
#
# Elastic Constant Matrix: (Units=GPa)
#
#
# Indices 1 2 3 4 5 6 
#
# 1 94.5626 48.9183 42.9116 0.0000 0.0000 0.0000
# 2 48.9183 99.1969 32.1571 0.0000 0.0000 0.0000
# 3 42.9116 32.1571 83.0074 0.0000 0.0000 0.0000
# 4 0.0000 0.0000 0.0000 14.3758 0.0000 0.0000
# 5 0.0000 0.0000 0.0000 0.0000 19.1341 0.0000
# 6 0.0000 0.0000 0.0000 0.0000 0.0000 -35.9129
#
#
#
# Elastic Compliance Matrix: (Units=1/GPa)
#
#
# Indices 1 2 3 4 5 6 
#
# 1 0.016569 -0.006169 -0.006176 0.000000 0.000000 0.000000
# 2 -0.006169 0.013826 -0.002167 0.000000 0.000000 0.000000
# 3 -0.006176 -0.002167 0.016079 0.000000 0.000000 0.000000
# 4 0.000000 0.000000 0.000000 0.069561 0.000000 0.000000
# 5 0.000000 0.000000 0.000000 0.000000 0.052263 0.000000
# 6 0.000000 0.000000 0.000000 0.000000 0.000000 -0.027845
#
#
# Mechanical properties :
#
#
# Convention : Reuss Voigt Hill
#
# Bulk Modulus (GPa) = 57.30444 58.30454 57.80449
# Shear Modulus (GPa) = 28.52392 9.70472 19.11432
#
# Velocity S-wave (km/s) = 3.73002 2.17569 3.05341
# Velocity P-wave (km/s) = 6.81923 5.89496 6.37387
#
# Compressibility (1/GPa) = 0.01745065
#
# Stress axis : x y z
#
# Youngs Moduli (GPa) = 60.35525 72.33006 62.19237
#
# Poissons Ratio (x) = 0.44618 0.38407
# Poissons Ratio (y) = 0.37232 0.13477
# Poissons Ratio (z) = 0.37273 0.15674
#
# Static dielectric constant tensor:
#      x y z
#    x 1.712960 0.000000 0.000000 
#    y 0.000000 1.819840 0.000000 
#    z 0.000000 0.000000 1.818530 
# 
# From -- ./inp_files/6680.got.cif
#   From: 2010.05.17/outbox.cif.g08.bks.cpg/sg73_4_cif.got.tgz:6680.got - 2010.06.03 17:35:07.
