data_PCOD9530343
_publ_section_title
;
Structure prediction by ZEFSAII (Michael W. Deem and Ramdas Pophale) SiO2 
 PCOD9530343
Probable space group: I B C A 
;
_chemical_formula_sum "Si O2"
_cell_formula_units_Z 120
_cell_length_a 15.267561
_cell_length_b 19.609116
_cell_length_c 18.740615
_cell_angle_alpha 90.000000
_cell_angle_beta 90.000000
_cell_angle_gamma 90.000000
_cell_volume 5610.628562
_symmetry_space_group_name_H-M "I B C A "
_symmetry_group_IT_number 73
_symmetry_cell_setting 'orthorhombic'
loop_
_space_group_symop_operation_xyz
x,y,z
-x,1/2-y,z
x,-y,1/2-z
1/2-x,y,-z
-x,-y,-z
x,1/2+y,-z
-x,y,1/2+z
1/2+x,-y,z
1/2+x,1/2+y,1/2+z
1/2-x,-y,1/2+z
1/2+x,1/2-y,-z
-x,1/2+y,1/2-z
1/2-x,1/2-y,1/2-z
1/2+x,y,1/2-z
1/2-x,1/2+y,z
x,1/2-y,1/2+z
loop_
_atom_site_type_symbol
_atom_site_label
_atom_site_fract_x
_atom_site_fract_y
_atom_site_fract_z
Si Si1 0.064690 0.525456 0.563006
Si Si2 0.379344 0.849281 0.091185
Si Si3 0.250000 0.939138 0.000000
Si Si4 0.950455 0.080363 0.232976
Si Si5 0.281784 0.644507 0.788560
Si Si6 0.872912 0.558023 0.304269
Si Si7 0.554842 0.318678 0.559267
Si Si8 0.726710 0.290640 0.647260
O O1 0.165510 0.525020 0.534533
O O2 0.072970 0.478206 0.632308
O O3 0.034864 0.602965 0.583188
O O4 0.000000 0.500000 0.500000
O O5 0.421246 0.891359 0.155264
O O6 0.325795 0.783935 0.118049
O O7 0.299914 0.894302 0.059111
O O8 0.441579 0.828847 0.026493
O O9 0.876396 0.110946 0.283733
O O10 0.052464 0.100809 0.237701
O O11 0.947722 0.000000 0.250000
O O12 0.209488 0.601063 0.830259
O O13 0.238515 0.653175 0.709611
O O14 0.296354 0.719439 0.817442
O O15 0.839447 0.500000 0.250000
O O16 0.500000 0.250000 0.576929
O O17 0.652321 0.306430 0.589935
#
# Coordination Sequence:
#
# PCOD9530343 Si02
#       8
#    16  16   8  16  16  16  16  16
#     4  11  24  44  66 100 136 177 228 274 344 412
#     4  10  19  39  64  85 118 170 220 250 334 398
#     4  10  20  38  66  88 126 180 202 266 332 398
#     4  10  23  39  63  91 125 168 212 272 333 403
#     4  10  23  38  63  91 127 171 221 279 340 405
#     4  11  23  40  63  96 131 165 222 282 339 407
#     4  11  23  40  65  92 129 176 219 276 337 404
#     4  10  20  40  59  89 125 168 223 271 332 409
#
# _framework density 21.387978
#
# number of rings (size 3 to 8) (size 9 to 14) (size 15 to 20)
#    0.000    1.600    2.667    2.800    3.733    5.333 
#    2.400    4.667    0.000    0.000    0.000    0.000 
#    0.000    0.000    0.000    0.000    0.000    0.000 
#
# Total GULP energy -334353.028346 kJ/mol
# GULP energy per Si atom -5572.550472 kJ/mol
# Density = 2.133930 g / cm^3
# Si number density = 21.387978 Si / 1000 Ang^3
#
#
#
# Elastic Constant Matrix: (Units=GPa)
#
#
# Indices 1 2 3 4 5 6 
#
# 1 95.5029 36.6572 -4.4017 0.0000 0.0000 0.0000
# 2 36.6572 59.3210 5.5933 0.0000 0.0000 0.0000
# 3 -4.4017 5.5933 47.1725 0.0000 0.0000 0.0000
# 4 0.0000 0.0000 0.0000 20.7719 0.0000 0.0000
# 5 0.0000 0.0000 0.0000 0.0000 31.4120 0.0000
# 6 0.0000 0.0000 0.0000 0.0000 0.0000 25.7900
#
#
#
# Elastic Compliance Matrix: (Units=1/GPa)
#
#
# Indices 1 2 3 4 5 6 
#
# 1 0.013981 -0.008861 0.002355 0.000000 0.000000 0.000000
# 2 -0.008861 0.022665 -0.003514 0.000000 0.000000 0.000000
# 3 0.002355 -0.003514 0.021835 0.000000 0.000000 0.000000
# 4 0.000000 0.000000 0.000000 0.048142 0.000000 0.000000
# 5 0.000000 0.000000 0.000000 0.000000 0.031835 0.000000
# 6 0.000000 0.000000 0.000000 0.000000 0.000000 0.038775
#
#
# Mechanical properties :
#
#
# Convention : Reuss Voigt Hill
#
# Bulk Modulus (GPa) = 26.01467 30.85489 28.43478
# Shear Modulus (GPa) = 23.79974 26.53795 25.16885
#
# Velocity S-wave (km/s) = 3.33943 3.52630 3.43414
# Velocity P-wave (km/s) = 5.20179 5.57112 5.38962
#
# Compressibility (1/GPa) = 0.03843986
#
# Stress axis : x y z
#
# Youngs Moduli (GPa) = 71.52688 44.12153 45.79753
#
# Poissons Ratio (x) = 0.39098 -0.10786
# Poissons Ratio (y) = 0.63383 0.16094
# Poissons Ratio (z) = -0.16846 0.15505
#
# Static dielectric constant tensor:
#      x y z
#    x 1.809950 0.000000 0.000000 
#    y 0.000000 1.806490 0.000000 
#    z 0.000000 0.000000 1.944270 
# 
# From -- ./inp_files/26231.got.cif
#   From: 2010.05.17/outbox.cif.g08.bks.cpg/sg73_14_cif.got.tgz:26231.got - 2010.06.03 17:35:07.
