data_PCOD9530851
_publ_section_title
;
Structure prediction by ZEFSAII (Michael W. Deem and Ramdas Pophale) SiO2 
 PCOD9530851
Probable space group: I B C A 
;
_chemical_formula_sum "Si O2"
_cell_formula_units_Z 56
_cell_length_a 18.373116
_cell_length_b 24.799924
_cell_length_c 5.527582
_cell_angle_alpha 90.000000
_cell_angle_beta 90.000000
_cell_angle_gamma 90.000000
_cell_volume 2518.653133
_symmetry_space_group_name_H-M "I B C A "
_symmetry_group_IT_number 73
_symmetry_cell_setting 'orthorhombic'
loop_
_space_group_symop_operation_xyz
x,y,z
-x,1/2-y,z
x,-y,1/2-z
1/2-x,y,-z
-x,-y,-z
x,1/2+y,-z
-x,y,1/2+z
1/2+x,-y,z
1/2+x,1/2+y,1/2+z
1/2-x,-y,1/2+z
1/2+x,1/2-y,-z
-x,1/2+y,1/2-z
1/2-x,1/2-y,1/2-z
1/2+x,y,1/2-z
1/2-x,1/2+y,z
x,1/2-y,1/2+z
loop_
_atom_site_type_symbol
_atom_site_label
_atom_site_fract_x
_atom_site_fract_y
_atom_site_fract_z
Si Si1 0.665429 0.271435 0.739471
Si Si2 0.250000 0.967645 0.500000
Si Si3 0.028258 0.562108 0.493535
Si Si4 0.676234 0.602290 0.843209
O O1 0.750000 0.250000 0.750000
O O2 0.633074 0.244836 0.498076
O O3 0.661669 0.335310 0.704028
O O4 0.314045 0.928228 0.587527
O O5 0.264061 0.000000 0.250000
O O6 0.114182 0.569685 0.517026
O O7 0.000000 0.500000 0.500000
O O8 0.997775 0.586918 0.741991
O O9 0.750000 0.601035 0.000000
#
# Coordination Sequence:
#
# PCOD9530851 Si02
#       4
#    16   8  16  16
#     4  10  20  38  65 107 140 166 220 315 372 415
#     4  12  28  38  60 106 144 170 242 308 346 412
#     4  10  26  46  66  93 145 197 236 287 356 436
#     4  12  26  43  78 106 140 191 250 300 370 430
#
# _framework density 22.234107000000002
#
# number of rings (size 3 to 8) (size 9 to 14) (size 15 to 20)
#    0.000    1.143    4.286    1.714    8.000    2.286 
#    0.000    0.000    0.000    5.143    0.000    0.000 
#    0.000    0.000    0.000    0.000    0.000    0.000 
#
# Total GULP energy -156285.451235 kJ/mol
# GULP energy per Si atom -5581.623258 kJ/mol
# Density = 2.218350 g / cm^3
# Si number density = 22.234107 Si / 1000 Ang^3
#
#
#
# Elastic Constant Matrix: (Units=GPa)
#
#
# Indices 1 2 3 4 5 6 
#
# 1 93.7863 29.9474 43.1692 0.0000 0.0000 0.0000
# 2 29.9474 155.6784 49.6903 0.0000 0.0000 0.0000
# 3 43.1692 49.6903 229.4620 0.0000 0.0000 0.0000
# 4 0.0000 0.0000 0.0000 -9.7649 0.0000 0.0000
# 5 0.0000 0.0000 0.0000 0.0000 37.3336 0.0000
# 6 0.0000 0.0000 0.0000 0.0000 0.0000 8.5896
#
#
#
# Elastic Compliance Matrix: (Units=1/GPa)
#
#
# Indices 1 2 3 4 5 6 
#
# 1 0.012087 -0.001718 -0.001902 0.000000 0.000000 0.000000
# 2 -0.001718 0.007145 -0.001224 0.000000 0.000000 0.000000
# 3 -0.001902 -0.001224 0.004981 0.000000 0.000000 0.000000
# 4 0.000000 0.000000 0.000000 -0.102408 0.000000 0.000000
# 5 0.000000 0.000000 0.000000 0.000000 0.026786 0.000000
# 6 0.000000 0.000000 0.000000 0.000000 0.000000 0.116420
#
#
# Mechanical properties :
#
#
# Convention : Reuss Voigt Hill
#
# Bulk Modulus (GPa) = 68.84952 80.50449 74.67700
# Shear Modulus (GPa) = 62.86199 30.97298 46.91749
#
# Velocity S-wave (km/s) = 5.32298 3.73639 4.59863
# Velocity P-wave (km/s) = 8.29529 7.40948 7.86487
#
# Compressibility (1/GPa) = 0.01452443
#
# Stress axis : x y z
#
# Youngs Moduli (GPa) = 82.73680 139.96466 200.76824
#
# Poissons Ratio (x) = 0.24046 0.38183
# Poissons Ratio (y) = 0.14214 0.24573
# Poissons Ratio (z) = 0.15735 0.17131
#
# Static dielectric constant tensor:
#      x y z
#    x 2.079320 0.000000 0.000000 
#    y 0.000000 1.828720 0.000000 
#    z 0.000000 0.000000 1.858690 
# 
# From -- ./inp_files/1023.got.cif
#   From: 2010.05.17/outbox.cif.g08.bks.cpg/sg73_1_cif.got.tgz:1023.got - 2010.06.03 17:35:07.
