data_PCOD9530849
_publ_section_title
;
Structure prediction by ZEFSAII (Michael W. Deem and Ramdas Pophale) SiO2 
 PCOD9530849
Probable space group: I B C A 
;
_chemical_formula_sum "Si O2"
_cell_formula_units_Z 88
_cell_length_a 26.372161
_cell_length_b 5.107200
_cell_length_c 32.862703
_cell_angle_alpha 90.000000
_cell_angle_beta 90.000000
_cell_angle_gamma 90.000000
_cell_volume 4426.208477
_symmetry_space_group_name_H-M "I B C A "
_symmetry_group_IT_number 73
_symmetry_cell_setting 'orthorhombic'
loop_
_space_group_symop_operation_xyz
x,y,z
-x,1/2-y,z
x,-y,1/2-z
1/2-x,y,-z
-x,-y,-z
x,1/2+y,-z
-x,y,1/2+z
1/2+x,-y,z
1/2+x,1/2+y,1/2+z
1/2-x,-y,1/2+z
1/2+x,1/2-y,-z
-x,1/2+y,1/2-z
1/2-x,1/2-y,1/2-z
1/2+x,y,1/2-z
1/2-x,1/2+y,z
x,1/2-y,1/2+z
loop_
_atom_site_type_symbol
_atom_site_label
_atom_site_fract_x
_atom_site_fract_y
_atom_site_fract_z
Si Si1 0.602675 0.865140 0.374881
Si Si2 0.217882 0.245813 0.355901
Si Si3 0.464846 0.500000 0.750000
Si Si4 0.391998 0.149467 0.526787
Si Si5 0.056280 0.370143 0.162362
Si Si6 0.278462 0.268399 0.546623
O O1 0.656810 0.785927 0.353527
O O2 0.563421 0.650093 0.358465
O O3 0.597022 0.859060 0.424449
O O4 0.591629 0.157633 0.359522
O O5 0.247117 0.505104 0.341229
O O6 0.220285 0.253918 0.404838
O O7 0.500000 0.250000 0.738347
O O8 0.434084 0.411341 0.789599
O O9 0.408512 0.901103 0.499793
O O10 0.331108 0.169278 0.529506
O O11 0.000000 0.250000 0.159388
O O12 0.233316 0.068205 0.536940
#
# Coordination Sequence:
#
# PCOD9530849 Si02
#       6
#    16  16   8  16  16  16
#     4  11  22  37  59  86 116 158 201 235 289 347
#     4   9  17  31  50  76 111 150 195 240 278 327
#     4  10  20  38  64  98 128 142 162 220 306 376
#     4  11  22  34  49  71 106 151 197 246 285 317
#     4  11  22  39  64  93 121 145 176 229 295 367
#     4   9  17  28  43  66  97 135 182 238 298 346
#
# _framework density 19.881578000000001
#
# number of rings (size 3 to 8) (size 9 to 14) (size 15 to 20)
#    0.000    1.818    0.000    6.000    0.000    8.000 
#    0.000    0.000    0.000   10.909    0.000   12.727 
#    0.000    0.000    0.000    0.000    0.000    0.000 
#
# Total GULP energy -245014.267941 kJ/mol
# GULP energy per Si atom -5568.506090 kJ/mol
# Density = 1.983633 g / cm^3
# Si number density = 19.881578 Si / 1000 Ang^3
#
#
#
# Elastic Constant Matrix: (Units=GPa)
#
#
# Indices 1 2 3 4 5 6 
#
# 1 31.1097 0.4667 14.2639 0.0000 0.0000 0.0000
# 2 0.4667 116.6198 27.6281 0.0000 0.0000 0.0000
# 3 14.2639 27.6281 104.1374 0.0000 0.0000 0.0000
# 4 0.0000 0.0000 0.0000 29.7426 0.0000 0.0000
# 5 0.0000 0.0000 0.0000 0.0000 47.0770 0.0000
# 6 0.0000 0.0000 0.0000 0.0000 0.0000 27.4385
#
#
#
# Elastic Compliance Matrix: (Units=1/GPa)
#
#
# Indices 1 2 3 4 5 6 
#
# 1 0.034417 0.001045 -0.004991 0.000000 0.000000 0.000000
# 2 0.001045 0.009182 -0.002579 0.000000 0.000000 0.000000
# 3 -0.004991 -0.002579 0.010971 0.000000 0.000000 0.000000
# 4 0.000000 0.000000 0.000000 0.033622 0.000000 0.000000
# 5 0.000000 0.000000 0.000000 0.000000 0.021242 0.000000
# 6 0.000000 0.000000 0.000000 0.000000 0.000000 0.036445
#
#
# Mechanical properties :
#
#
# Convention : Reuss Voigt Hill
#
# Bulk Modulus (GPa) = 24.08583 37.39825 30.74204
# Shear Modulus (GPa) = 28.94037 34.81882 31.87960
#
# Velocity S-wave (km/s) = 3.81942 4.18941 4.00868
# Velocity P-wave (km/s) = 5.62064 6.50022 6.07637
#
# Compressibility (1/GPa) = 0.04151819
#
# Stress axis : x y z
#
# Youngs Moduli (GPa) = 29.05522 108.91246 91.15264
#
# Poissons Ratio (x) = -0.11379 0.45498
# Poissons Ratio (y) = -0.03036 0.23509
# Poissons Ratio (z) = 0.14503 0.28089
#
# Static dielectric constant tensor:
#      x y z
#    x 1.739450 0.000000 0.000000 
#    y 0.000000 1.724160 0.000000 
#    z 0.000000 0.000000 1.711230 
# 
# From -- ./inp_files/34841.got.cif
#   From: 2010.05.17/outbox.cif.g08.bks.cpg/sg73_18_cif.got.tgz:34841.got - 2010.06.03 17:35:07.
