data_PCOD9530922
_publ_section_title
;
Structure prediction by ZEFSAII (Michael W. Deem and Ramdas Pophale) SiO2 
 PCOD9530922
Probable space group: I B C A 
;
_chemical_formula_sum "Si O2"
_cell_formula_units_Z 96
_cell_length_a 13.706935
_cell_length_b 15.023724
_cell_length_c 20.531894
_cell_angle_alpha 90.000000
_cell_angle_beta 90.000000
_cell_angle_gamma 90.000000
_cell_volume 4228.116677
_symmetry_space_group_name_H-M "I B C A "
_symmetry_group_IT_number 73
_symmetry_cell_setting 'orthorhombic'
loop_
_space_group_symop_operation_xyz
x,y,z
-x,1/2-y,z
x,-y,1/2-z
1/2-x,y,-z
-x,-y,-z
x,1/2+y,-z
-x,y,1/2+z
1/2+x,-y,z
1/2+x,1/2+y,1/2+z
1/2-x,-y,1/2+z
1/2+x,1/2-y,-z
-x,1/2+y,1/2-z
1/2-x,1/2-y,1/2-z
1/2+x,y,1/2-z
1/2-x,1/2+y,z
x,1/2-y,1/2+z
loop_
_atom_site_type_symbol
_atom_site_label
_atom_site_fract_x
_atom_site_fract_y
_atom_site_fract_z
Si Si1 0.540519 0.573509 0.193067
Si Si2 0.898967 0.538121 0.570950
Si Si3 0.676887 0.951838 0.179965
Si Si4 0.366348 0.931952 0.943443
Si Si5 0.388926 0.761373 0.419482
Si Si6 0.331899 0.809101 0.282042
O O1 0.533758 0.500000 0.250000
O O2 0.598387 0.525870 0.134508
O O3 0.429046 0.595881 0.173741
O O4 0.596893 0.653921 0.226846
O O5 0.856246 0.480944 0.512005
O O6 0.855682 0.638433 0.564103
O O7 0.015851 0.559466 0.567213
O O8 0.769085 0.887989 0.185085
O O9 0.676560 0.000000 0.250000
O O10 0.680266 0.017643 0.118330
O O11 0.336861 0.828250 0.943383
O O12 0.500000 0.750000 0.442666
O O13 0.386018 0.759327 0.340576
O O14 0.250000 0.750000 0.250000
#
# Coordination Sequence:
#
# PCOD9530922 Si02
#       6
#    16  16  16  16  16  16
#     4  10  20  39  66  93 126 170 216 266 328 388
#     4   9  18  38  68  96 124 172 216 266 325 387
#     4  10  22  39  64  94 129 167 214 268 325 385
#     4   9  19  39  66  95 129 168 216 267 326 389
#     4  10  21  38  66  94 125 170 218 258 326 393
#     4  12  25  37  63  93 134 167 219 272 323 382
#
# _framework density 22.705144000000001
#
# number of rings (size 3 to 8) (size 9 to 14) (size 15 to 20)
#    0.000    2.000    1.667    1.500    4.667    0.000 
#    3.000    0.833    0.000    0.000    0.000    0.000 
#    0.000    0.000    0.000    0.000    0.000    0.000 
#
# Total GULP energy -267946.970837 kJ/mol
# GULP energy per Si atom -5582.228559 kJ/mol
# Density = 2.265347 g / cm^3
# Si number density = 22.705144 Si / 1000 Ang^3
#
#
#
# Elastic Constant Matrix: (Units=GPa)
#
#
# Indices 1 2 3 4 5 6 
#
# 1 73.3558 3.1869 -0.0532 0.0000 0.0000 0.0000
# 2 3.1869 103.9532 56.6722 0.0000 0.0000 0.0000
# 3 -0.0532 56.6722 131.2885 0.0000 0.0000 0.0000
# 4 0.0000 0.0000 0.0000 30.1888 0.0000 0.0000
# 5 0.0000 0.0000 0.0000 0.0000 18.0479 0.0000
# 6 0.0000 0.0000 0.0000 0.0000 0.0000 69.9103
#
#
#
# Elastic Compliance Matrix: (Units=1/GPa)
#
#
# Indices 1 2 3 4 5 6 
#
# 1 0.013656 -0.000551 0.000244 0.000000 0.000000 0.000000
# 2 -0.000551 0.012602 -0.005440 0.000000 0.000000 0.000000
# 3 0.000244 -0.005440 0.009965 0.000000 0.000000 0.000000
# 4 0.000000 0.000000 0.000000 0.033125 0.000000 0.000000
# 5 0.000000 0.000000 0.000000 0.000000 0.055408 0.000000
# 6 0.000000 0.000000 0.000000 0.000000 0.000000 0.014304
#
#
# Mechanical properties :
#
#
# Convention : Reuss Voigt Hill
#
# Bulk Modulus (GPa) = 40.44024 47.57879 44.00952
# Shear Modulus (GPa) = 31.48620 40.21551 35.85086
#
# Velocity S-wave (km/s) = 3.72794 4.21314 3.97794
# Velocity P-wave (km/s) = 6.03156 6.68341 6.36583
#
# Compressibility (1/GPa) = 0.02472784
#
# Stress axis : x y z
#
# Youngs Moduli (GPa) = 73.22612 79.34957 100.34874
#
# Poissons Ratio (x) = 0.04376 -0.02444
# Poissons Ratio (y) = 0.04038 0.54592
# Poissons Ratio (z) = -0.01784 0.43168
#
# Static dielectric constant tensor:
#      x y z
#    x 1.975630 0.000000 0.000000 
#    y 0.000000 1.885310 0.000000 
#    z 0.000000 0.000000 1.853830 
# 
# From -- ./inp_files/25977.got.cif
#   From: 2010.05.17/outbox.cif.g08.bks.cpg/sg73_13_cif.got.tgz:25977.got - 2010.06.03 17:35:07.
