data_PCOD9530474
_publ_section_title
;
Structure prediction by ZEFSAII (Michael W. Deem and Ramdas Pophale) SiO2 
 PCOD9530474
Probable space group: I B C A 
;
_chemical_formula_sum "Si O2"
_cell_formula_units_Z 64
_cell_length_a 7.816651
_cell_length_b 11.157917
_cell_length_c 32.689368
_cell_angle_alpha 90.000000
_cell_angle_beta 90.000000
_cell_angle_gamma 90.000000
_cell_volume 2851.086362
_symmetry_space_group_name_H-M "I B C A "
_symmetry_group_IT_number 73
_symmetry_cell_setting 'orthorhombic'
loop_
_space_group_symop_operation_xyz
x,y,z
-x,1/2-y,z
x,-y,1/2-z
1/2-x,y,-z
-x,-y,-z
x,1/2+y,-z
-x,y,1/2+z
1/2+x,-y,z
1/2+x,1/2+y,1/2+z
1/2-x,-y,1/2+z
1/2+x,1/2-y,-z
-x,1/2+y,1/2-z
1/2-x,1/2-y,1/2-z
1/2+x,y,1/2-z
1/2-x,1/2+y,z
x,1/2-y,1/2+z
loop_
_atom_site_type_symbol
_atom_site_label
_atom_site_fract_x
_atom_site_fract_y
_atom_site_fract_z
Si Si1 0.388049 0.865545 0.799025
Si Si2 0.250000 0.580172 0.000000
Si Si3 0.972096 0.084007 0.060337
Si Si4 0.639762 0.642977 0.894569
Si Si5 0.632229 0.000000 0.750000
O O1 0.500000 0.750000 0.791221
O O2 0.333494 0.862519 0.845867
O O3 0.245898 0.889655 0.765052
O O4 0.518786 0.973041 0.789526
O O5 0.138518 0.495613 0.028981
O O6 0.382320 0.643406 0.031058
O O7 0.827758 0.156846 0.085253
O O8 0.063166 0.984228 0.089524
O O9 0.500000 0.750000 0.903447
#
# Coordination Sequence:
#
# PCOD9530474 Si02
#       5
#    16   8  16  16   8
#     4  10  20  34  52  77 108 144 190 239 285 342
#     4   8  16  32  56  78 108 144 178 232 284 334
#     4   9  17  34  55  79 112 144 183 233 284 347
#     4  10  20  34  54  80 112 149 187 234 295 352
#     4  10  20  34  54  76 104 148 192 236 294 338
#
# _framework density 22.447585
#
# number of rings (size 3 to 8) (size 9 to 14) (size 15 to 20)
#    0.000    2.500    0.000    2.250    0.000    0.000 
#    0.000   12.500    0.000   21.000    0.000    0.000 
#    0.000    0.000    0.000    0.000    0.000    0.000 
#
# Total GULP energy -178288.073192 kJ/mol
# GULP energy per Si atom -5571.502287 kJ/mol
# Density = 2.239649 g / cm^3
# Si number density = 22.447585 Si / 1000 Ang^3
#
#
#
# Elastic Constant Matrix: (Units=GPa)
#
#
# Indices 1 2 3 4 5 6 
#
# 1 142.7715 31.7555 83.8014 0.0000 0.0000 0.0000
# 2 31.7555 53.0628 40.7514 0.0000 0.0000 0.0000
# 3 83.8014 40.7514 135.5894 0.0000 0.0000 0.0000
# 4 0.0000 0.0000 0.0000 29.0580 0.0000 0.0000
# 5 0.0000 0.0000 0.0000 0.0000 18.0168 0.0000
# 6 0.0000 0.0000 0.0000 0.0000 0.0000 32.4807
#
#
#
# Elastic Compliance Matrix: (Units=1/GPa)
#
#
# Indices 1 2 3 4 5 6 
#
# 1 0.011121 -0.001790 -0.006335 0.000000 0.000000 0.000000
# 2 -0.001790 0.024789 -0.006344 0.000000 0.000000 0.000000
# 3 -0.006335 -0.006344 0.013198 0.000000 0.000000 0.000000
# 4 0.000000 0.000000 0.000000 0.034414 0.000000 0.000000
# 5 0.000000 0.000000 0.000000 0.000000 0.055504 0.000000
# 6 0.000000 0.000000 0.000000 0.000000 0.000000 0.030788
#
#
# Mechanical properties :
#
#
# Convention : Reuss Voigt Hill
#
# Bulk Modulus (GPa) = 49.58175 71.56002 60.57088
# Shear Modulus (GPa) = 24.33399 27.58547 25.95973
#
# Velocity S-wave (km/s) = 3.29604 3.50935 3.40437
# Velocity P-wave (km/s) = 6.05152 6.95475 6.51880
#
# Compressibility (1/GPa) = 0.02016871
#
# Stress axis : x y z
#
# Youngs Moduli (GPa) = 89.92053 40.34067 75.77179
#
# Poissons Ratio (x) = 0.07220 0.48004
# Poissons Ratio (y) = 0.16094 0.48070
# Poissons Ratio (z) = 0.56968 0.25592
#
# Static dielectric constant tensor:
#      x y z
#    x 1.924770 0.000000 0.000000 
#    y 0.000000 1.860260 0.000000 
#    z 0.000000 0.000000 1.792490 
# 
# From -- ./inp_files/8259.got.cif
#   From: 2010.05.17/outbox.cif.g08.bks.cpg/sg73_5_cif.got.tgz:8259.got - 2010.06.03 17:35:07.
