data_PCOD9530465
_publ_section_title
;
Structure prediction by ZEFSAII (Michael W. Deem and Ramdas Pophale) SiO2 
 PCOD9530465
Probable space group: I B C A 
;
_chemical_formula_sum "Si O2"
_cell_formula_units_Z 96
_cell_length_a 13.166997
_cell_length_b 17.649604
_cell_length_c 21.081447
_cell_angle_alpha 90.000000
_cell_angle_beta 90.000000
_cell_angle_gamma 90.000000
_cell_volume 4899.165596
_symmetry_space_group_name_H-M "I B C A "
_symmetry_group_IT_number 73
_symmetry_cell_setting 'orthorhombic'
loop_
_space_group_symop_operation_xyz
x,y,z
-x,1/2-y,z
x,-y,1/2-z
1/2-x,y,-z
-x,-y,-z
x,1/2+y,-z
-x,y,1/2+z
1/2+x,-y,z
1/2+x,1/2+y,1/2+z
1/2-x,-y,1/2+z
1/2+x,1/2-y,-z
-x,1/2+y,1/2-z
1/2-x,1/2-y,1/2-z
1/2+x,y,1/2-z
1/2-x,1/2+y,z
x,1/2-y,1/2+z
loop_
_atom_site_type_symbol
_atom_site_label
_atom_site_fract_x
_atom_site_fract_y
_atom_site_fract_z
Si Si1 0.572831 0.607149 0.510294
Si Si2 0.167202 0.874932 0.627667
Si Si3 0.197873 0.254520 0.567940
Si Si4 0.490571 0.474308 0.678758
Si Si5 0.880588 0.597344 0.912953
Si Si6 0.817094 0.505194 0.098813
O O1 0.605876 0.610674 0.437993
O O2 0.618969 0.680276 0.546120
O O3 0.455191 0.600328 0.526596
O O4 0.629132 0.535621 0.540349
O O5 0.220039 0.794334 0.614610
O O6 0.083568 0.901048 0.678143
O O7 0.257909 0.936004 0.633556
O O8 0.250000 0.231857 0.500000
O O9 0.141877 0.185110 0.601277
O O10 0.508158 0.500000 0.750000
O O11 0.436840 0.543490 0.638836
O O12 0.596562 0.459780 0.643116
O O13 0.770163 0.561851 0.921873
#
# Coordination Sequence:
#
# PCOD9530465 Si02
#       6
#    16  16  16  16  16  16
#     4   9  18  33  53  83 116 141 166 215 279 337
#     4   9  19  35  55  78 112 144 173 221 280 328
#     4   9  18  33  54  85 119 144 168 211 277 344
#     4  10  22  38  54  75 106 148 196 239 270 305
#     4  10  20  33  57  84 106 143 185 220 269 332
#     4   9  19  32  52  78 107 140 181 227 275 325
#
# _framework density 19.595172999999999
#
# number of rings (size 3 to 8) (size 9 to 14) (size 15 to 20)
#    0.000    2.667    0.000    2.000    0.000   14.000 
#    0.000    3.333    0.000    6.000    0.000    0.000 
#    0.000    0.000    0.000    0.000    0.000    0.000 
#
# Total GULP energy -267647.202690 kJ/mol
# GULP energy per Si atom -5575.983389 kJ/mol
# Density = 1.955057 g / cm^3
# Si number density = 19.595173 Si / 1000 Ang^3
#
#
#
# Elastic Constant Matrix: (Units=GPa)
#
#
# Indices 1 2 3 4 5 6 
#
# 1 127.7928 33.2873 19.4278 0.0000 0.0000 0.0000
# 2 33.2873 63.5534 11.0353 0.0000 0.0000 0.0000
# 3 19.4278 11.0353 23.3967 0.0000 0.0000 0.0000
# 4 0.0000 0.0000 0.0000 13.6876 0.0000 0.0000
# 5 0.0000 0.0000 0.0000 0.0000 8.2167 0.0000
# 6 0.0000 0.0000 0.0000 0.0000 0.0000 14.5754
#
#
#
# Elastic Compliance Matrix: (Units=1/GPa)
#
#
# Indices 1 2 3 4 5 6 
#
# 1 0.009834 -0.004066 -0.006248 0.000000 0.000000 0.000000
# 2 -0.004066 0.018819 -0.005500 0.000000 0.000000 0.000000
# 3 -0.006248 -0.005500 0.050524 0.000000 0.000000 0.000000
# 4 0.000000 0.000000 0.000000 0.073059 0.000000 0.000000
# 5 0.000000 0.000000 0.000000 0.000000 0.121703 0.000000
# 6 0.000000 0.000000 0.000000 0.000000 0.000000 0.068609
#
#
# Mechanical properties :
#
#
# Convention : Reuss Voigt Hill
#
# Bulk Modulus (GPa) = 21.03114 38.02707 29.52911
# Shear Modulus (GPa) = 12.81965 17.36211 15.09088
#
# Velocity S-wave (km/s) = 2.56056 2.97987 2.77814
# Velocity P-wave (km/s) = 4.41566 5.59357 5.03915
#
# Compressibility (1/GPa) = 0.04754854
#
# Stress axis : x y z
#
# Youngs Moduli (GPa) = 101.68676 53.13655 19.79274
#
# Poissons Ratio (x) = 0.21605 0.12367
# Poissons Ratio (y) = 0.41345 0.10886
# Poissons Ratio (z) = 0.63536 0.29226
#
# Static dielectric constant tensor:
#      x y z
#    x 1.716010 0.000000 0.000000 
#    y 0.000000 1.722060 0.000000 
#    z 0.000000 0.000000 1.689420 
# 
# From -- ./inp_files/12035.got.cif
#   From: 2010.05.17/outbox.cif.g08.bks.cpg/sg73_7_cif.got.tgz:12035.got - 2010.06.03 17:35:07.
