data_PCOD9530964
_publ_section_title
;
Structure prediction by ZEFSAII (Michael W. Deem and Ramdas Pophale) SiO2 
 PCOD9530964
Probable space group: I B C A 
;
_chemical_formula_sum "Si O2"
_cell_formula_units_Z 120
_cell_length_a 23.500465
_cell_length_b 23.229596
_cell_length_c 10.267230
_cell_angle_alpha 90.000000
_cell_angle_beta 90.000000
_cell_angle_gamma 90.000000
_cell_volume 5604.945620
_symmetry_space_group_name_H-M "I B C A "
_symmetry_group_IT_number 73
_symmetry_cell_setting 'orthorhombic'
loop_
_space_group_symop_operation_xyz
x,y,z
-x,1/2-y,z
x,-y,1/2-z
1/2-x,y,-z
-x,-y,-z
x,1/2+y,-z
-x,y,1/2+z
1/2+x,-y,z
1/2+x,1/2+y,1/2+z
1/2-x,-y,1/2+z
1/2+x,1/2-y,-z
-x,1/2+y,1/2-z
1/2-x,1/2-y,1/2-z
1/2+x,y,1/2-z
1/2-x,1/2+y,z
x,1/2-y,1/2+z
loop_
_atom_site_type_symbol
_atom_site_label
_atom_site_fract_x
_atom_site_fract_y
_atom_site_fract_z
Si Si1 0.059244 0.777904 0.218530
Si Si2 0.422454 0.503678 0.071785
Si Si3 0.730308 0.413424 0.144569
Si Si4 0.975959 0.908097 0.722491
Si Si5 0.894338 0.708660 0.488859
Si Si6 0.315299 0.000000 0.750000
Si Si7 0.097523 0.911416 0.641435
Si Si8 0.728822 0.783995 0.128142
O O1 0.054035 0.846660 0.209228
O O2 0.065600 0.767284 0.373725
O O3 0.000000 0.750000 0.174328
O O4 0.104048 0.749167 0.117593
O O5 0.458452 0.446334 0.096554
O O6 0.450776 0.553691 0.160840
O O7 0.358946 0.495753 0.129349
O O8 0.417629 0.528896 0.929453
O O9 0.773517 0.445764 0.239531
O O10 0.663647 0.418732 0.179351
O O11 0.742240 0.345924 0.139930
O O12 0.750000 0.434897 0.000000
O O13 0.043961 0.900532 0.735743
O O14 0.904654 0.644000 0.543309
O O15 0.836616 0.706212 0.404699
O O16 0.750000 0.750000 0.250000
O O17 0.750000 0.751635 0.000000
#
# Coordination Sequence:
#
# PCOD9530964 Si02
#       8
#    16  16  16  16  16   8  16  16
#     4  12  25  42  63 101 135 178 220 273 337 402
#     4  10  22  42  67  93 125 174 216 270 338 390
#     4  11  22  40  66  92 122 175 217 269 342 393
#     4  10  23  38  64  95 128 168 220 267 325 404
#     4  12  24  40  68  93 133 177 222 274 335 400
#     4  10  20  40  64  92 120 162 220 260 320 414
#     4  12  21  42  65  92 129 175 217 276 335 406
#     4  11  23  43  65  96 129 172 226 276 334 397
#
# _framework density 21.409663999999999
#
# number of rings (size 3 to 8) (size 9 to 14) (size 15 to 20)
#    0.000    1.067    6.667    1.600    1.867    1.067 
#    0.000    2.000    0.000    0.000    0.000    0.000 
#    0.000    0.000    0.000    0.000    0.000    0.000 
#
# Total GULP energy -334674.446576 kJ/mol
# GULP energy per Si atom -5577.907443 kJ/mol
# Density = 2.136093 g / cm^3
# Si number density = 21.409664 Si / 1000 Ang^3
#
#
#
# Elastic Constant Matrix: (Units=GPa)
#
#
# Indices 1 2 3 4 5 6 
#
# 1 128.0201 3.9427 21.9209 0.0000 0.0000 0.0000
# 2 3.9427 66.6674 23.1780 0.0000 0.0000 0.0000
# 3 21.9209 23.1780 68.4915 0.0000 0.0000 0.0000
# 4 0.0000 0.0000 0.0000 19.0180 0.0000 0.0000
# 5 0.0000 0.0000 0.0000 0.0000 15.3790 0.0000
# 6 0.0000 0.0000 0.0000 0.0000 0.0000 26.0402
#
#
#
# Elastic Compliance Matrix: (Units=1/GPa)
#
#
# Indices 1 2 3 4 5 6 
#
# 1 0.008278 0.000489 -0.002815 0.000000 0.000000 0.000000
# 2 0.000489 0.017029 -0.005919 0.000000 0.000000 0.000000
# 3 -0.002815 -0.005919 0.017504 0.000000 0.000000 0.000000
# 4 0.000000 0.000000 0.000000 0.052582 0.000000 0.000000
# 5 0.000000 0.000000 0.000000 0.000000 0.065024 0.000000
# 6 0.000000 0.000000 0.000000 0.000000 0.000000 0.038402
#
#
# Mechanical properties :
#
#
# Convention : Reuss Voigt Hill
#
# Bulk Modulus (GPa) = 37.99212 40.14026 39.06619
# Shear Modulus (GPa) = 22.31319 26.36329 24.33824
#
# Velocity S-wave (km/s) = 3.23182 3.51290 3.37529
# Velocity P-wave (km/s) = 5.63117 5.93661 5.78590
#
# Compressibility (1/GPa) = 0.02632125
#
# Stress axis : x y z
#
# Youngs Moduli (GPa) = 120.79892 58.72405 57.12852
#
# Poissons Ratio (x) = -0.02872 0.16082
# Poissons Ratio (y) = -0.05908 0.33815
# Poissons Ratio (z) = 0.34005 0.34760
#
# Static dielectric constant tensor:
#      x y z
#    x 1.826040 0.000000 0.000000 
#    y 0.000000 1.719080 0.000000 
#    z 0.000000 0.000000 1.834510 
# 
# From -- ./inp_files/13119.got.cif
#   From: 2010.05.17/outbox.cif.g08.bks.cpg/sg73_7_cif.got.tgz:13119.got - 2010.06.03 17:35:07.
