data_PCOD9530119
_publ_section_title
;
Structure prediction by ZEFSAII (Michael W. Deem and Ramdas Pophale) SiO2 
 PCOD9530119
Probable space group: I B C A 
;
_chemical_formula_sum "Si O2"
_cell_formula_units_Z 104
_cell_length_a 22.122003
_cell_length_b 12.608481
_cell_length_c 16.283003
_cell_angle_alpha 90.000000
_cell_angle_beta 90.000000
_cell_angle_gamma 90.000000
_cell_volume 4541.734243
_symmetry_space_group_name_H-M "I B C A "
_symmetry_group_IT_number 73
_symmetry_cell_setting 'orthorhombic'
loop_
_space_group_symop_operation_xyz
x,y,z
-x,1/2-y,z
x,-y,1/2-z
1/2-x,y,-z
-x,-y,-z
x,1/2+y,-z
-x,y,1/2+z
1/2+x,-y,z
1/2+x,1/2+y,1/2+z
1/2-x,-y,1/2+z
1/2+x,1/2-y,-z
-x,1/2+y,1/2-z
1/2-x,1/2-y,1/2-z
1/2+x,y,1/2-z
1/2-x,1/2+y,z
x,1/2-y,1/2+z
loop_
_atom_site_type_symbol
_atom_site_label
_atom_site_fract_x
_atom_site_fract_y
_atom_site_fract_z
Si Si1 0.114851 0.590545 0.356195
Si Si2 0.404139 0.734608 0.776178
Si Si3 0.908646 0.230999 0.518572
Si Si4 0.678961 0.547105 0.490366
Si Si5 0.471138 0.902279 0.651504
Si Si6 0.362820 0.947422 0.835246
Si Si7 0.000000 0.250000 0.394812
O O1 0.131244 0.639793 0.267785
O O2 0.118398 0.691733 0.415459
O O3 0.154892 0.508817 0.406990
O O4 0.042132 0.573118 0.345984
O O5 0.442500 0.811953 0.712908
O O6 0.362749 0.821457 0.821080
O O7 0.455280 0.685743 0.835693
O O8 0.953970 0.148746 0.563740
O O9 0.948896 0.296486 0.454398
O O10 0.855279 0.158850 0.486314
O O11 0.750000 0.559540 0.500000
O O12 0.661486 0.486179 0.576286
O O13 0.431487 0.007003 0.662945
O O14 0.336726 0.000000 0.750000
#
# Coordination Sequence:
#
# PCOD9530119 Si02
#       7
#    16  16  16  16  16  16   8
#     4  11  20  40  61  91 133 170 213 277 342 409
#     4  10  19  33  55  92 132 161 198 265 354 419
#     4  10  21  36  62  91 127 161 214 278 347 415
#     4  11  26  44  63  90 127 185 244 277 325 410
#     4   9  17  35  57  91 126 161 193 265 344 416
#     4   9  20  37  64  89 123 170 217 275 344 399
#     4  12  18  30  56  94 130 156 198 264 360 428
#
# _framework density 22.898741000000001
#
# number of rings (size 3 to 8) (size 9 to 14) (size 15 to 20)
#    0.000    1.846    3.077    2.769    2.154    1.846 
#    0.000    3.077    0.000    0.000    0.000    0.000 
#    0.000    0.000    0.000    0.000    0.000    0.000 
#
# Total GULP energy -289648.785782 kJ/mol
# GULP energy per Si atom -5570.168957 kJ/mol
# Density = 2.284662 g / cm^3
# Si number density = 22.898741 Si / 1000 Ang^3
#
#
#
# Elastic Constant Matrix: (Units=GPa)
#
#
# Indices 1 2 3 4 5 6 
#
# 1 74.1548 23.2237 27.1325 0.0000 0.0000 0.0000
# 2 23.2237 60.9663 20.7353 0.0000 0.0000 0.0000
# 3 27.1325 20.7353 93.5448 0.0000 0.0000 0.0000
# 4 0.0000 0.0000 0.0000 25.8082 0.0000 0.0000
# 5 0.0000 0.0000 0.0000 0.0000 10.9004 0.0000
# 6 0.0000 0.0000 0.0000 0.0000 0.0000 8.2837
#
#
#
# Elastic Compliance Matrix: (Units=1/GPa)
#
#
# Indices 1 2 3 4 5 6 
#
# 1 0.016385 -0.005002 -0.003644 0.000000 0.000000 0.000000
# 2 -0.005002 0.019267 -0.002820 0.000000 0.000000 0.000000
# 3 -0.003644 -0.002820 0.012372 0.000000 0.000000 0.000000
# 4 0.000000 0.000000 0.000000 0.038747 0.000000 0.000000
# 5 0.000000 0.000000 0.000000 0.000000 0.091740 0.000000
# 6 0.000000 0.000000 0.000000 0.000000 0.000000 0.120719
#
#
# Mechanical properties :
#
#
# Convention : Reuss Voigt Hill
#
# Bulk Modulus (GPa) = 39.85253 41.20545 40.52899
# Shear Modulus (GPa) = 15.12741 19.50342 17.31541
#
# Velocity S-wave (km/s) = 2.57304 2.92160 2.75284
# Velocity P-wave (km/s) = 5.12533 5.42353 5.27654
#
# Compressibility (1/GPa) = 0.02509251
#
# Stress axis : x y z
#
# Youngs Moduli (GPa) = 61.03108 51.90201 80.82787
#
# Poissons Ratio (x) = 0.25963 0.29451
# Poissons Ratio (y) = 0.30529 0.22792
# Poissons Ratio (z) = 0.22238 0.14636
#
# Static dielectric constant tensor:
#      x y z
#    x 1.809290 0.000000 0.000000 
#    y 0.000000 1.895630 0.000000 
#    z 0.000000 0.000000 2.036960 
# 
# From -- ./inp_files/18813.got.cif
#   From: 2010.05.17/outbox.cif.g08.bks.cpg/sg73_10_cif.got.tgz:18813.got - 2010.06.03 17:35:07.
