data_PCOD9530047
_publ_section_title
;
Structure prediction by ZEFSAII (Michael W. Deem and Ramdas Pophale) SiO2 
 PCOD9530047
Probable space group: I B C A 
;
_chemical_formula_sum "Si O2"
_cell_formula_units_Z 80
_cell_length_a 13.383847
_cell_length_b 13.339245
_cell_length_c 19.442206
_cell_angle_alpha 90.000000
_cell_angle_beta 90.000000
_cell_angle_gamma 90.000000
_cell_volume 3471.025090
_symmetry_space_group_name_H-M "I B C A "
_symmetry_group_IT_number 73
_symmetry_cell_setting 'orthorhombic'
loop_
_space_group_symop_operation_xyz
x,y,z
-x,1/2-y,z
x,-y,1/2-z
1/2-x,y,-z
-x,-y,-z
x,1/2+y,-z
-x,y,1/2+z
1/2+x,-y,z
1/2+x,1/2+y,1/2+z
1/2-x,-y,1/2+z
1/2+x,1/2-y,-z
-x,1/2+y,1/2-z
1/2-x,1/2-y,1/2-z
1/2+x,y,1/2-z
1/2-x,1/2+y,z
x,1/2-y,1/2+z
loop_
_atom_site_type_symbol
_atom_site_label
_atom_site_fract_x
_atom_site_fract_y
_atom_site_fract_z
Si Si1 0.000000 0.250000 0.552149
Si Si2 0.350385 0.869350 0.461127
Si Si3 0.659797 0.813353 0.376179
Si Si4 0.952092 0.612839 0.242877
Si Si5 0.250000 0.936649 0.000000
Si Si6 0.129155 0.697033 0.320312
O O1 0.944497 0.167298 0.505722
O O2 0.919264 0.299402 0.603494
O O3 0.250000 0.831622 0.500000
O O4 0.351532 0.803944 0.392575
O O5 0.326187 0.987282 0.459859
O O6 0.565660 0.855250 0.335471
O O7 0.685835 0.872532 0.446067
O O8 0.756034 0.827652 0.327874
O O9 0.917466 0.500000 0.250000
O O10 0.891280 0.692192 0.289601
O O11 0.064061 0.625503 0.271660
#
# Coordination Sequence:
#
# PCOD9530047 Si02
#       6
#     8  16  16  16   8  16
#     4  10  18  40  70  88 136 170 214 262 340 382
#     4  10  22  40  66 100 131 173 213 275 330 393
#     4  12  22  45  69  96 141 171 222 277 340 391
#     4  10  25  41  68  95 128 178 229 266 335 402
#     4  10  22  40  70 102 130 178 216 270 342 402
#     4  10  23  45  64  97 136 174 214 290 327 385
#
# _framework density 23.047944999999999
#
# number of rings (size 3 to 8) (size 9 to 14) (size 15 to 20)
#    0.600    1.200    3.000    0.600    8.400    2.400 
#   10.800    2.000    0.000    0.000    0.000    0.000 
#    0.000    0.000    0.000    0.000    0.000    0.000 
#
# Total GULP energy -223471.483458 kJ/mol
# GULP energy per Si atom -5586.787086 kJ/mol
# Density = 2.299549 g / cm^3
# Si number density = 23.047945 Si / 1000 Ang^3
#
#
#
# Elastic Constant Matrix: (Units=GPa)
#
#
# Indices 1 2 3 4 5 6 
#
# 1 83.7477 -3.6081 28.2688 0.0000 0.0000 0.0000
# 2 -3.6081 92.6535 11.9311 0.0000 0.0000 0.0000
# 3 28.2688 11.9311 82.6777 0.0000 0.0000 0.0000
# 4 0.0000 0.0000 0.0000 19.3266 0.0000 0.0000
# 5 0.0000 0.0000 0.0000 0.0000 20.4041 0.0000
# 6 0.0000 0.0000 0.0000 0.0000 0.0000 3.7359
#
#
#
# Elastic Compliance Matrix: (Units=1/GPa)
#
#
# Indices 1 2 3 4 5 6 
#
# 1 0.013618 0.001151 -0.004822 0.000000 0.000000 0.000000
# 2 0.001151 0.011095 -0.001995 0.000000 0.000000 0.000000
# 3 -0.004822 -0.001995 0.014032 0.000000 0.000000 0.000000
# 4 0.000000 0.000000 0.000000 0.051742 0.000000 0.000000
# 5 0.000000 0.000000 0.000000 0.000000 0.049010 0.000000
# 6 0.000000 0.000000 0.000000 0.000000 0.000000 0.267670
#
#
# Mechanical properties :
#
#
# Convention : Reuss Voigt Hill
#
# Bulk Modulus (GPa) = 36.47913 36.91807 36.69860
# Shear Modulus (GPa) = 11.69221 23.52579 17.60900
#
# Velocity S-wave (km/s) = 2.25477 3.19836 2.76708
# Velocity P-wave (km/s) = 4.75821 5.44904 5.11530
#
# Compressibility (1/GPa) = 0.02741293
#
# Stress axis : x y z
#
# Youngs Moduli (GPa) = 73.43225 90.13404 71.26650
#
# Poissons Ratio (x) = -0.10377 0.34367
# Poissons Ratio (y) = -0.08454 0.14215
# Poissons Ratio (z) = 0.35412 0.17979
#
# Static dielectric constant tensor:
#      x y z
#    x 1.865300 0.000000 0.000000 
#    y 0.000000 1.830320 0.000000 
#    z 0.000000 0.000000 1.901240 
# 
# From -- ./inp_files/25909.got.cif
#   From: 2010.05.17/outbox.cif.g08.bks.cpg/sg73_13_cif.got.tgz:25909.got - 2010.06.03 17:35:07.
