data_PCOD9530693
_publ_section_title
;
Structure prediction by ZEFSAII (Michael W. Deem and Ramdas Pophale) SiO2 
 PCOD9530693
Probable space group: I B C A 
;
_chemical_formula_sum "Si O2"
_cell_formula_units_Z 72
_cell_length_a 16.343331
_cell_length_b 10.216174
_cell_length_c 21.708006
_cell_angle_alpha 90.000000
_cell_angle_beta 90.000000
_cell_angle_gamma 90.000000
_cell_volume 3624.505730
_symmetry_space_group_name_H-M "I B C A "
_symmetry_group_IT_number 73
_symmetry_cell_setting 'orthorhombic'
loop_
_space_group_symop_operation_xyz
x,y,z
-x,1/2-y,z
x,-y,1/2-z
1/2-x,y,-z
-x,-y,-z
x,1/2+y,-z
-x,y,1/2+z
1/2+x,-y,z
1/2+x,1/2+y,1/2+z
1/2-x,-y,1/2+z
1/2+x,1/2-y,-z
-x,1/2+y,1/2-z
1/2-x,1/2-y,1/2-z
1/2+x,y,1/2-z
1/2-x,1/2+y,z
x,1/2-y,1/2+z
loop_
_atom_site_type_symbol
_atom_site_label
_atom_site_fract_x
_atom_site_fract_y
_atom_site_fract_z
Si Si1 0.835319 0.997451 0.600436
Si Si2 0.586197 0.315211 0.504306
Si Si3 0.750000 0.361779 0.000000
Si Si4 0.238964 0.875118 0.793137
Si Si5 0.911152 0.275093 0.636494
O O1 0.895948 0.934070 0.550345
O O2 0.804890 0.896418 0.652047
O O3 0.759081 0.046794 0.559506
O O4 0.871992 0.130611 0.627996
O O5 0.500000 0.250000 0.522392
O O6 0.668160 0.224867 0.507381
O O7 0.578207 0.340320 0.431092
O O8 0.250000 0.750000 0.750000
O O9 0.150729 0.860487 0.824423
O O10 0.244428 0.000000 0.750000
O O11 0.000000 0.250000 0.664398
#
# Coordination Sequence:
#
# PCOD9530693 Si02
#       5
#    16  16   8  16  16
#     4  11  21  40  66  94 134 166 222 268 331 402
#     4  10  22  38  65 104 134 167 213 275 347 407
#     4  10  20  36  66  96 134 172 208 268 352 392
#     4  12  25  46  68  90 126 178 230 269 319 389
#     4  10  23  43  64  97 132 167 213 279 333 392
#
# _framework density 19.864778000000001
#
# number of rings (size 3 to 8) (size 9 to 14) (size 15 to 20)
#    0.000    1.333    2.222    4.667    0.000    9.778 
#    4.000    0.000    0.000    0.000    0.000    0.000 
#    0.000    0.000    0.000    0.000    0.000    0.000 
#
# Total GULP energy -201047.451137 kJ/mol
# GULP energy per Si atom -5584.651420 kJ/mol
# Density = 1.981956 g / cm^3
# Si number density = 19.864778 Si / 1000 Ang^3
#
#
#
# Elastic Constant Matrix: (Units=GPa)
#
#
# Indices 1 2 3 4 5 6 
#
# 1 85.8029 -1.2489 10.9241 0.0000 0.0000 0.0000
# 2 -1.2489 65.1601 22.4737 0.0000 0.0000 0.0000
# 3 10.9241 22.4737 57.1633 0.0000 0.0000 0.0000
# 4 0.0000 0.0000 0.0000 38.9454 0.0000 0.0000
# 5 0.0000 0.0000 0.0000 0.0000 23.3451 0.0000
# 6 0.0000 0.0000 0.0000 0.0000 0.0000 17.9514
#
#
#
# Elastic Compliance Matrix: (Units=1/GPa)
#
#
# Indices 1 2 3 4 5 6 
#
# 1 0.012024 0.001183 -0.002763 0.000000 0.000000 0.000000
# 2 0.001183 0.017871 -0.007252 0.000000 0.000000 0.000000
# 3 -0.002763 -0.007252 0.020873 0.000000 0.000000 0.000000
# 4 0.000000 0.000000 0.000000 0.025677 0.000000 0.000000
# 5 0.000000 0.000000 0.000000 0.000000 0.042836 0.000000
# 6 0.000000 0.000000 0.000000 0.000000 0.000000 0.055706
#
#
# Mechanical properties :
#
#
# Convention : Reuss Voigt Hill
#
# Bulk Modulus (GPa) = 30.20783 30.26934 30.23859
# Shear Modulus (GPa) = 24.54788 27.78022 26.16405
#
# Velocity S-wave (km/s) = 3.51914 3.74366 3.63313
# Velocity P-wave (km/s) = 5.63491 5.82730 5.73191
#
# Compressibility (1/GPa) = 0.03310400
#
# Stress axis : x y z
#
# Youngs Moduli (GPa) = 83.16968 55.95749 47.90905
#
# Poissons Ratio (x) = -0.06622 0.13237
# Poissons Ratio (y) = -0.09842 0.34744
# Poissons Ratio (z) = 0.22980 0.40580
#
# Static dielectric constant tensor:
#      x y z
#    x 1.651920 0.000000 0.000000 
#    y 0.000000 1.726360 0.000000 
#    z 0.000000 0.000000 1.695650 
# 
# From -- ./inp_files/6023.got.cif
#   From: 2010.05.17/outbox.cif.g08.bks.cpg/sg73_4_cif.got.tgz:6023.got - 2010.06.03 17:35:07.
