data_PCOD9530747
_publ_section_title
;
Structure prediction by ZEFSAII (Michael W. Deem and Ramdas Pophale) SiO2 
 PCOD9530747
Probable space group: I B C A 
;
_chemical_formula_sum "Si O2"
_cell_formula_units_Z 112
_cell_length_a 11.514632
_cell_length_b 20.071950
_cell_length_c 24.703399
_cell_angle_alpha 90.000000
_cell_angle_beta 90.000000
_cell_angle_gamma 90.000000
_cell_volume 5709.477190
_symmetry_space_group_name_H-M "I B C A "
_symmetry_group_IT_number 73
_symmetry_cell_setting 'orthorhombic'
loop_
_space_group_symop_operation_xyz
x,y,z
-x,1/2-y,z
x,-y,1/2-z
1/2-x,y,-z
-x,-y,-z
x,1/2+y,-z
-x,y,1/2+z
1/2+x,-y,z
1/2+x,1/2+y,1/2+z
1/2-x,-y,1/2+z
1/2+x,1/2-y,-z
-x,1/2+y,1/2-z
1/2-x,1/2-y,1/2-z
1/2+x,y,1/2-z
1/2-x,1/2+y,z
x,1/2-y,1/2+z
loop_
_atom_site_type_symbol
_atom_site_label
_atom_site_fract_x
_atom_site_fract_y
_atom_site_fract_z
Si Si1 0.630701 0.542646 0.669464
Si Si2 0.636705 0.730410 0.844381
Si Si3 0.586621 0.400507 0.712767
Si Si4 0.041144 0.066404 0.571230
Si Si5 0.852628 0.874132 0.148425
Si Si6 0.525879 0.415666 0.043145
Si Si7 0.777487 0.359501 0.438905
O O1 0.639382 0.463927 0.681279
O O2 0.593003 0.579269 0.724911
O O3 0.536958 0.558681 0.623759
O O4 0.753552 0.571428 0.651691
O O5 0.500000 0.750000 0.848188
O O6 0.646054 0.670026 0.801586
O O7 0.694638 0.801671 0.834436
O O8 0.683713 0.699315 0.899717
O O9 0.456702 0.393777 0.688929
O O10 0.971578 0.100021 0.520769
O O11 0.161122 0.104431 0.581064
O O12 0.067359 0.991259 0.551371
O O13 0.905148 0.872584 0.087437
O O14 0.388943 0.408463 0.057617
O O15 0.750000 0.336990 0.500000
#
# Coordination Sequence:
#
# PCOD9530747 Si02
#       7
#    16  16  16  16  16  16  16
#     4  11  24  40  62 101 122 156 213 266 328 363
#     4  10  20  41  65  87 118 172 214 248 305 385
#     4  10  23  41  63  87 124 168 209 259 311 383
#     4  10  22  36  61  95 130 159 203 266 318 374
#     4  11  23  41  65  93 124 166 217 258 316 387
#     4  10  20  37  62  93 124 169 204 249 317 388
#     4  10  20  38  62  89 125 170 206 249 317 377
#
# _framework density 19.616506999999999
#
# number of rings (size 3 to 8) (size 9 to 14) (size 15 to 20)
#    0.000    1.714    4.286    0.000    4.000    4.571 
#    2.571    3.571    0.000    0.000    0.000    0.000 
#    0.000    0.000    0.000    0.000    0.000    0.000 
#
# Total GULP energy -312502.851084 kJ/mol
# GULP energy per Si atom -5580.408055 kJ/mol
# Density = 1.957186 g / cm^3
# Si number density = 19.616507 Si / 1000 Ang^3
#
#
#
# Elastic Constant Matrix: (Units=GPa)
#
#
# Indices 1 2 3 4 5 6 
#
# 1 46.6356 32.8134 25.8541 0.0000 0.0000 0.0000
# 2 32.8134 111.4907 33.2984 0.0000 0.0000 0.0000
# 3 25.8541 33.2984 117.2951 0.0000 0.0000 0.0000
# 4 0.0000 0.0000 0.0000 25.7781 0.0000 0.0000
# 5 0.0000 0.0000 0.0000 0.0000 12.4226 0.0000
# 6 0.0000 0.0000 0.0000 0.0000 0.0000 28.1770
#
#
#
# Elastic Compliance Matrix: (Units=1/GPa)
#
#
# Indices 1 2 3 4 5 6 
#
# 1 0.028921 -0.007220 -0.004325 0.000000 0.000000 0.000000
# 2 -0.007220 0.011603 -0.001702 0.000000 0.000000 0.000000
# 3 -0.004325 -0.001702 0.009962 0.000000 0.000000 0.000000
# 4 0.000000 0.000000 0.000000 0.038793 0.000000 0.000000
# 5 0.000000 0.000000 0.000000 0.000000 0.080498 0.000000
# 6 0.000000 0.000000 0.000000 0.000000 0.000000 0.035490
#
#
# Mechanical properties :
#
#
# Convention : Reuss Voigt Hill
#
# Bulk Modulus (GPa) = 41.68299 51.03924 46.36111
# Shear Modulus (GPa) = 20.85435 25.50593 23.18014
#
# Velocity S-wave (km/s) = 3.26406 3.60978 3.44126
# Velocity P-wave (km/s) = 5.95823 6.59159 6.28289
#
# Compressibility (1/GPa) = 0.02399060
#
# Stress axis : x y z
#
# Youngs Moduli (GPa) = 34.57731 86.18621 100.38026
#
# Poissons Ratio (x) = 0.62227 0.43415
# Poissons Ratio (y) = 0.24965 0.17089
# Poissons Ratio (z) = 0.14955 0.14673
#
# Static dielectric constant tensor:
#      x y z
#    x 1.667260 0.000000 0.000000 
#    y 0.000000 1.716620 0.000000 
#    z 0.000000 0.000000 1.720120 
# 
# From -- ./inp_files/29038.got.cif
#   From: 2010.05.17/outbox.cif.g08.bks.cpg/sg73_15_cif.got.tgz:29038.got - 2010.06.03 17:35:07.
