data_PCOD9530029
_publ_section_title
;
Structure prediction by ZEFSAII (Michael W. Deem and Ramdas Pophale) SiO2 
 PCOD9530029
Probable space group: I B C A 
;
_chemical_formula_sum "Si O2"
_cell_formula_units_Z 88
_cell_length_a 12.526252
_cell_length_b 26.126720
_cell_length_c 11.228437
_cell_angle_alpha 90.000000
_cell_angle_beta 90.000000
_cell_angle_gamma 90.000000
_cell_volume 3674.729214
_symmetry_space_group_name_H-M "I B C A "
_symmetry_group_IT_number 73
_symmetry_cell_setting 'orthorhombic'
loop_
_space_group_symop_operation_xyz
x,y,z
-x,1/2-y,z
x,-y,1/2-z
1/2-x,y,-z
-x,-y,-z
x,1/2+y,-z
-x,y,1/2+z
1/2+x,-y,z
1/2+x,1/2+y,1/2+z
1/2-x,-y,1/2+z
1/2+x,1/2-y,-z
-x,1/2+y,1/2-z
1/2-x,1/2-y,1/2-z
1/2+x,y,1/2-z
1/2-x,1/2+y,z
x,1/2-y,1/2+z
loop_
_atom_site_type_symbol
_atom_site_label
_atom_site_fract_x
_atom_site_fract_y
_atom_site_fract_z
Si Si1 0.250000 0.263793 0.000000
Si Si2 0.366682 0.097313 0.887387
Si Si3 0.062727 0.179875 0.960010
Si Si4 0.750000 0.495039 0.000000
Si Si5 0.500000 0.250000 0.348774
Si Si6 0.550378 0.527293 0.120816
Si Si7 0.860319 0.815149 0.703320
O O1 0.152455 0.224330 0.968197
O O2 0.269287 0.302325 0.110023
O O3 0.376516 0.127841 0.011653
O O4 0.487337 0.079563 0.862035
O O5 0.330474 0.138339 0.790069
O O6 0.303793 0.044877 0.906728
O O7 0.988907 0.199645 0.069945
O O8 0.976975 0.174385 0.856354
O O9 0.671486 0.529312 0.077869
O O10 0.393973 0.264058 0.276233
O O11 0.541564 0.500000 0.250000
O O12 0.500000 0.500000 0.000000
#
# Coordination Sequence:
#
# PCOD9530029 Si02
#       7
#     8  16  16   8   8  16  16
#     4  12  21  42  69 100 138 200 234 293 347 420
#     4  10  25  44  72 103 140 191 233 307 367 431
#     4  11  22  42  63  97 146 183 242 286 347 433
#     4  10  23  50  73 114 138 190 250 307 379 472
#     4  10  18  40  60  86 136 196 216 292 342 406
#     4  10  24  49  80 105 150 194 239 314 397 454
#     4  11  23  42  66 100 145 185 248 290 355 431
#
# _framework density 23.947341999999999
#
# number of rings (size 3 to 8) (size 9 to 14) (size 15 to 20)
#    0.000    1.455    3.636    0.545    5.091    5.818 
#    6.545    0.000    0.000    0.000    0.000    0.000 
#    0.000    0.000    0.000    0.000    0.000    0.000 
#
# Total GULP energy -245127.850953 kJ/mol
# GULP energy per Si atom -5571.087522 kJ/mol
# Density = 2.389284 g / cm^3
# Si number density = 23.947342 Si / 1000 Ang^3
#
#
#
# Elastic Constant Matrix: (Units=GPa)
#
#
# Indices 1 2 3 4 5 6 
#
# 1 84.1079 22.8630 29.0034 0.0000 0.0000 0.0000
# 2 22.8630 44.4641 10.6171 -0.0002 0.0000 0.0000
# 3 29.0034 10.6171 110.8938 -0.0001 0.0000 -0.0001
# 4 0.0000 -0.0002 -0.0001 10.0395 0.0000 0.0000
# 5 0.0000 0.0000 0.0000 0.0000 46.6852 0.0000
# 6 0.0000 0.0000 -0.0001 0.0000 0.0000 29.6524
#
#
#
# Elastic Compliance Matrix: (Units=1/GPa)
#
#
# Indices 1 2 3 4 5 6 
#
# 1 0.014873 -0.006876 -0.003232 0.000000 0.000000 0.000000
# 2 -0.006876 0.026195 -0.000710 0.000000 0.000000 0.000000
# 3 -0.003232 -0.000710 0.009931 0.000000 0.000000 0.000000
# 4 0.000000 0.000000 0.000000 0.099607 0.000000 0.000000
# 5 0.000000 0.000000 0.000000 0.000000 0.021420 0.000000
# 6 0.000000 0.000000 0.000000 0.000000 0.000000 0.033724
#
#
# Mechanical properties :
#
#
# Convention : Reuss Voigt Hill
#
# Bulk Modulus (GPa) = 34.05468 40.49252 37.27360
# Shear Modulus (GPa) = 21.08177 29.07425 25.07801
#
# Velocity S-wave (km/s) = 2.97027 3.48816 3.23958
# Velocity P-wave (km/s) = 5.10048 5.75923 5.43983
#
# Compressibility (1/GPa) = 0.02936454
#
# Stress axis : x y z
#
# Youngs Moduli (GPa) = 67.23629 38.17528 100.69706
#
# Poissons Ratio (x) = 0.26249 0.32541
# Poissons Ratio (y) = 0.46231 0.07146
# Poissons Ratio (z) = 0.21728 0.02709
#
# Static dielectric constant tensor:
#      x y z
#    x 2.150490 0.000000 0.000000 
#    y 0.000000 1.868570 0.000000 
#    z 0.000000 0.000000 2.087370 
# 
# From -- ./inp_files/9924.got.cif
#   From: 2010.05.17/outbox.cif.g08.bks.cpg/sg73_5_cif.got.tgz:9924.got - 2010.06.03 17:35:07.
