data_PCOD9530911
_publ_section_title
;
Structure prediction by ZEFSAII (Michael W. Deem and Ramdas Pophale) SiO2 
 PCOD9530911
Probable space group: I B C A 
;
_chemical_formula_sum "Si O2"
_cell_formula_units_Z 104
_cell_length_a 9.862310
_cell_length_b 24.216389
_cell_length_c 19.358284
_cell_angle_alpha 90.000000
_cell_angle_beta 90.000000
_cell_angle_gamma 90.000000
_cell_volume 4623.329974
_symmetry_space_group_name_H-M "I B C A "
_symmetry_group_IT_number 73
_symmetry_cell_setting 'orthorhombic'
loop_
_space_group_symop_operation_xyz
x,y,z
-x,1/2-y,z
x,-y,1/2-z
1/2-x,y,-z
-x,-y,-z
x,1/2+y,-z
-x,y,1/2+z
1/2+x,-y,z
1/2+x,1/2+y,1/2+z
1/2-x,-y,1/2+z
1/2+x,1/2-y,-z
-x,1/2+y,1/2-z
1/2-x,1/2-y,1/2-z
1/2+x,y,1/2-z
1/2-x,1/2+y,z
x,1/2-y,1/2+z
loop_
_atom_site_type_symbol
_atom_site_label
_atom_site_fract_x
_atom_site_fract_y
_atom_site_fract_z
Si Si1 0.827542 0.929939 0.105905
Si Si2 0.937208 0.053110 0.535696
Si Si3 0.000000 0.250000 0.362023
Si Si4 0.041488 0.361843 0.140602
Si Si5 0.535561 0.939105 0.272951
Si Si6 0.306837 0.665127 0.301152
Si Si7 0.264302 0.689606 0.147189
O O1 0.693512 0.963683 0.082490
O O2 0.771850 0.873723 0.134925
O O3 0.929528 0.950627 0.164490
O O4 0.893486 0.914327 0.032779
O O5 0.030491 0.092447 0.580921
O O6 0.000000 0.000000 0.500000
O O7 0.943306 0.303158 0.321674
O O8 0.852980 0.226344 0.389073
O O9 0.183708 0.331227 0.145995
O O10 0.021478 0.399503 0.210737
O O11 0.924766 0.315157 0.131023
O O12 0.656970 0.899712 0.297512
O O13 0.580326 0.000000 0.250000
O O14 0.257448 0.692740 0.230155
#
# Coordination Sequence:
#
# PCOD9530911 Si02
#       7
#    16  16   8  16  16  16  16
#     4  10  20  43  63  88 135 177 227 279 343 397
#     4  10  22  42  65  93 130 187 230 270 333 420
#     4  12  22  38  68  96 138 172 224 288 358 418
#     4  10  22  41  64  97 141 170 232 277 343 411
#     4  11  22  40  64  98 139 178 222 281 346 411
#     4  11  22  40  62 102 134 181 223 285 347 412
#     4  10  20  39  64  94 131 178 218 282 346 405
#
# _framework density 22.494609000000001
#
# number of rings (size 3 to 8) (size 9 to 14) (size 15 to 20)
#    0.000    1.538    3.077    2.308    0.000    1.231 
#   19.385    0.000    0.000    7.385    0.000    1.077 
#    0.000    0.000    0.000    0.000    0.000    0.000 
#
# Total GULP energy -289561.728507 kJ/mol
# GULP energy per Si atom -5568.494779 kJ/mol
# Density = 2.244341 g / cm^3
# Si number density = 22.494609 Si / 1000 Ang^3
#
#
#
# Elastic Constant Matrix: (Units=GPa)
#
#
# Indices 1 2 3 4 5 6 
#
# 1 119.7087 49.7587 22.0421 0.0000 0.0000 0.0000
# 2 49.7587 83.1553 10.1671 0.0000 0.0000 0.0000
# 3 22.0421 10.1671 70.8844 0.0000 0.0000 0.0000
# 4 0.0000 0.0000 0.0000 -48.9718 0.0000 0.0000
# 5 0.0000 0.0000 0.0000 0.0000 28.5449 0.0000
# 6 0.0000 0.0000 0.0000 0.0000 0.0000 26.4704
#
#
#
# Elastic Compliance Matrix: (Units=1/GPa)
#
#
# Indices 1 2 3 4 5 6 
#
# 1 0.011591 -0.006611 -0.002656 0.000000 0.000000 0.000000
# 2 -0.006611 0.016011 -0.000241 0.000000 0.000000 0.000000
# 3 -0.002656 -0.000241 0.014968 0.000000 0.000000 0.000000
# 4 0.000000 0.000000 0.000000 -0.020420 0.000000 0.000000
# 5 0.000000 0.000000 0.000000 0.000000 0.035033 0.000000
# 6 0.000000 0.000000 0.000000 0.000000 0.000000 0.037778
#
#
# Mechanical properties :
#
#
# Convention : Reuss Voigt Hill
#
# Bulk Modulus (GPa) = 42.45528 48.63159 45.54343
# Shear Modulus (GPa) = 41.04192 13.99407 27.51800
#
# Velocity S-wave (km/s) = 4.27608 2.49691 3.50139
# Velocity P-wave (km/s) = 6.57984 5.47530 6.05282
#
# Compressibility (1/GPa) = 0.02355420
#
# Stress axis : x y z
#
# Youngs Moduli (GPa) = 86.27711 62.45728 66.80964
#
# Poissons Ratio (x) = 0.41290 0.17744
# Poissons Ratio (y) = 0.57037 0.01609
# Poissons Ratio (z) = 0.22915 0.01504
#
# Static dielectric constant tensor:
#      x y z
#    x 2.313740 0.000000 0.000000 
#    y 0.000000 1.785730 0.000000 
#    z 0.000000 0.000000 1.858020 
# 
# From -- ./inp_files/24945.got.cif
#   From: 2010.05.17/outbox.cif.g08.bks.cpg/sg73_13_cif.got.tgz:24945.got - 2010.06.03 17:35:07.
