data_PCOD9530524
_publ_section_title
;
Structure prediction by ZEFSAII (Michael W. Deem and Ramdas Pophale) SiO2 
 PCOD9530524
Probable space group: I B C A 
;
_chemical_formula_sum "Si O2"
_cell_formula_units_Z 104
_cell_length_a 8.435530
_cell_length_b 25.329317
_cell_length_c 21.937411
_cell_angle_alpha 90.000000
_cell_angle_beta 90.000000
_cell_angle_gamma 90.000000
_cell_volume 4687.283541
_symmetry_space_group_name_H-M "I B C A "
_symmetry_group_IT_number 73
_symmetry_cell_setting 'orthorhombic'
loop_
_space_group_symop_operation_xyz
x,y,z
-x,1/2-y,z
x,-y,1/2-z
1/2-x,y,-z
-x,-y,-z
x,1/2+y,-z
-x,y,1/2+z
1/2+x,-y,z
1/2+x,1/2+y,1/2+z
1/2-x,-y,1/2+z
1/2+x,1/2-y,-z
-x,1/2+y,1/2-z
1/2-x,1/2-y,1/2-z
1/2+x,y,1/2-z
1/2-x,1/2+y,z
x,1/2-y,1/2+z
loop_
_atom_site_type_symbol
_atom_site_label
_atom_site_fract_x
_atom_site_fract_y
_atom_site_fract_z
Si Si1 0.740302 0.329128 0.718503
Si Si2 0.618079 0.500000 0.750000
Si Si3 0.750000 0.628448 0.000000
Si Si4 0.166943 0.078751 0.626325
Si Si5 0.000000 0.250000 0.263998
Si Si6 0.143812 0.460034 0.336748
Si Si7 0.073472 0.692175 0.970316
Si Si8 0.667711 0.370537 0.854588
O O1 0.766282 0.379360 0.675903
O O2 0.600258 0.291009 0.696204
O O3 0.887189 0.288444 0.724591
O O4 0.697016 0.346567 0.787662
O O5 0.516584 0.469564 0.699736
O O6 0.730474 0.541913 0.718385
O O7 0.760780 0.595018 0.938118
O O8 0.922055 0.658683 0.997029
O O9 0.979325 0.089172 0.635848
O O10 0.183314 0.015678 0.632225
O O11 0.176491 0.405846 0.371357
O O12 0.115215 0.674198 0.901601
O O13 0.000000 0.750000 0.971445
O O14 0.250000 0.688597 0.000000
#
# Coordination Sequence:
#
# PCOD9530524 Si02
#       8
#    16   8   8  16   8  16  16  16
#     4  11  22  42  65  99 138 179 225 289 361 427
#     4  10  20  34  62  96 140 178 224 272 350 428
#     4  10  26  50  74 102 142 190 246 294 362 442
#     4  11  24  46  69 100 142 188 236 295 363 438
#     4  10  24  38  60 102 136 172 218 282 356 414
#     4  11  22  39  64 100 138 183 228 287 354 424
#     4  11  25  50  76 106 141 192 249 299 358 434
#     4  11  25  43  70 104 143 185 232 298 363 432
#
# _framework density 22.187691000000001
#
# number of rings (size 3 to 8) (size 9 to 14) (size 15 to 20)
#    0.000    1.231    3.846    1.846    1.077    4.923 
#    4.154    1.538    0.000    0.000    0.000    0.000 
#    0.000    0.000    0.000    0.000    0.000    0.000 
#
# Total GULP energy -289831.801079 kJ/mol
# GULP energy per Si atom -5573.688482 kJ/mol
# Density = 2.213719 g / cm^3
# Si number density = 22.187691 Si / 1000 Ang^3
#
#
#
# Elastic Constant Matrix: (Units=GPa)
#
#
# Indices 1 2 3 4 5 6 
#
# 1 95.3188 12.2607 16.6465 0.0000 0.0000 0.0000
# 2 12.2607 76.4544 31.7074 0.0000 0.0000 0.0000
# 3 16.6465 31.7074 100.0610 0.0000 0.0000 0.0000
# 4 0.0000 0.0000 0.0000 16.6113 0.0000 0.0000
# 5 0.0000 0.0000 0.0000 0.0000 18.3744 0.0000
# 6 0.0000 0.0000 0.0000 0.0000 0.0000 42.2327
#
#
#
# Elastic Compliance Matrix: (Units=1/GPa)
#
#
# Indices 1 2 3 4 5 6 
#
# 1 0.010892 -0.001146 -0.001449 0.000000 0.000000 0.000000
# 2 -0.001146 0.015179 -0.004619 0.000000 0.000000 0.000000
# 3 -0.001449 -0.004619 0.011699 0.000000 0.000000 0.000000
# 4 0.000000 0.000000 0.000000 0.060200 0.000000 0.000000
# 5 0.000000 0.000000 0.000000 0.000000 0.054423 0.000000
# 6 0.000000 0.000000 0.000000 0.000000 0.000000 0.023678
#
#
# Mechanical properties :
#
#
# Convention : Reuss Voigt Hill
#
# Bulk Modulus (GPa) = 42.84227 43.67369 43.25798
# Shear Modulus (GPa) = 25.21692 29.52501 27.37096
#
# Velocity S-wave (km/s) = 3.37490 3.65182 3.51609
# Velocity P-wave (km/s) = 5.87686 6.12434 6.00188
#
# Compressibility (1/GPa) = 0.02334143
#
# Stress axis : x y z
#
# Youngs Moduli (GPa) = 91.81453 65.87963 85.47930
#
# Poissons Ratio (x) = 0.07548 0.12385
# Poissons Ratio (y) = 0.10520 0.39486
# Poissons Ratio (z) = 0.13303 0.30432
#
# Static dielectric constant tensor:
#      x y z
#    x 1.932710 0.000000 0.000000 
#    y 0.000000 1.912500 0.000000 
#    z 0.000000 0.000000 2.076320 
# 
# From -- ./inp_files/28522.got.cif
#   From: 2010.05.17/outbox.cif.g08.bks.cpg/sg73_15_cif.got.tgz:28522.got - 2010.06.03 17:35:07.
