data_PCOD9530472
_publ_section_title
;
Structure prediction by ZEFSAII (Michael W. Deem and Ramdas Pophale) SiO2 
 PCOD9530472
Probable space group: I B C A 
;
_chemical_formula_sum "Si O2"
_cell_formula_units_Z 104
_cell_length_a 25.211235
_cell_length_b 9.088264
_cell_length_c 27.737600
_cell_angle_alpha 90.000000
_cell_angle_beta 90.000000
_cell_angle_gamma 90.000000
_cell_volume 6355.415308
_symmetry_space_group_name_H-M "I B C A "
_symmetry_group_IT_number 73
_symmetry_cell_setting 'orthorhombic'
loop_
_space_group_symop_operation_xyz
x,y,z
-x,1/2-y,z
x,-y,1/2-z
1/2-x,y,-z
-x,-y,-z
x,1/2+y,-z
-x,y,1/2+z
1/2+x,-y,z
1/2+x,1/2+y,1/2+z
1/2-x,-y,1/2+z
1/2+x,1/2-y,-z
-x,1/2+y,1/2-z
1/2-x,1/2-y,1/2-z
1/2+x,y,1/2-z
1/2-x,1/2+y,z
x,1/2-y,1/2+z
loop_
_atom_site_type_symbol
_atom_site_label
_atom_site_fract_x
_atom_site_fract_y
_atom_site_fract_z
Si Si1 0.860782 0.446741 0.800610
Si Si2 0.963152 0.000000 0.250000
Si Si3 0.274519 0.233031 0.659687
Si Si4 0.500000 0.250000 0.320821
Si Si5 0.750000 0.987008 0.500000
Si Si6 0.190501 0.932170 0.301819
Si Si7 0.114918 0.742020 0.358729
Si Si8 0.203982 0.763544 0.434578
O O1 0.834102 0.500000 0.750000
O O2 0.920304 0.406601 0.782251
O O3 0.827869 0.321035 0.826999
O O4 0.866905 0.587207 0.835120
O O5 0.994711 0.891415 0.285135
O O6 0.284061 0.060879 0.665998
O O7 0.230966 0.296334 0.696690
O O8 0.248439 0.263705 0.607840
O O9 0.551993 0.250384 0.354239
O O10 0.785166 0.880078 0.466721
O O11 0.785854 0.093569 0.532891
O O12 0.182342 0.000000 0.250000
O O13 0.137168 0.871088 0.324649
O O14 0.146996 0.759366 0.408424
#
# Coordination Sequence:
#
# PCOD9530472 Si02
#       8
#    16   8  16   8   8  16  16  16
#     4   9  17  31  46  69 103 144 170 204 233 286
#     4   8  20  30  50  68 100 142 188 206 252 266
#     4  11  19  31  48  73 110 133 171 204 246 302
#     4  10  20  36  52  70 102 140 176 232 234 286
#     4  10  20  36  56  74 104 120 152 206 270 332
#     4  11  21  28  45  73 105 147 171 204 235 294
#     4  10  20  34  51  73 101 134 182 208 254 288
#     4  10  20  34  52  78  97 131 160 202 261 324
#
# _framework density 16.363997999999999
#
# number of rings (size 3 to 8) (size 9 to 14) (size 15 to 20)
#    0.462    1.538    0.000    6.462    1.077    0.000 
#    0.000    0.000    0.000    0.923    0.000    0.000 
#    0.000    0.000    0.000    0.000    0.000    0.000 
#
# Total GULP energy -289858.346723 kJ/mol
# GULP energy per Si atom -5574.198975 kJ/mol
# Density = 1.632675 g / cm^3
# Si number density = 16.363998 Si / 1000 Ang^3
#
#
#
# Elastic Constant Matrix: (Units=GPa)
#
#
# Indices 1 2 3 4 5 6 
#
# 1 87.5502 18.5169 29.5334 0.0000 0.0000 0.0000
# 2 18.5169 41.1636 17.3068 0.0000 0.0000 0.0000
# 3 29.5334 17.3068 85.7244 0.0000 0.0000 0.0000
# 4 0.0000 0.0000 0.0000 17.4399 0.0000 0.0000
# 5 0.0000 0.0000 0.0000 0.0000 28.7635 0.0000
# 6 0.0000 0.0000 0.0000 0.0000 0.0000 19.1253
#
#
#
# Elastic Compliance Matrix: (Units=1/GPa)
#
#
# Indices 1 2 3 4 5 6 
#
# 1 0.013663 -0.004554 -0.003788 0.000000 0.000000 0.000000
# 2 -0.004554 0.028064 -0.004097 0.000000 0.000000 0.000000
# 3 -0.003788 -0.004097 0.013797 0.000000 0.000000 0.000000
# 4 0.000000 0.000000 0.000000 0.057340 0.000000 0.000000
# 5 0.000000 0.000000 0.000000 0.000000 0.034766 0.000000
# 6 0.000000 0.000000 0.000000 0.000000 0.000000 0.052287
#
#
# Mechanical properties :
#
#
# Convention : Reuss Voigt Hill
#
# Bulk Modulus (GPa) = 32.62886 38.35025 35.48956
# Shear Modulus (GPa) = 21.27572 23.00450 22.14011
#
# Velocity S-wave (km/s) = 3.60968 3.75347 3.68227
# Velocity P-wave (km/s) = 6.11193 6.50164 6.30980
#
# Compressibility (1/GPa) = 0.03064771
#
# Stress axis : x y z
#
# Youngs Moduli (GPa) = 73.19132 35.63256 72.47752
#
# Poissons Ratio (x) = 0.16225 0.27453
# Poissons Ratio (y) = 0.33328 0.29695
# Poissons Ratio (z) = 0.27723 0.14599
#
# Static dielectric constant tensor:
#      x y z
#    x 1.561630 0.000000 0.000000 
#    y 0.000000 1.557980 0.000000 
#    z 0.000000 0.000000 1.563170 
# 
# From -- ./inp_files/32880.got.cif
#   From: 2010.05.17/outbox.cif.g08.bks.cpg/sg73_17_cif.got.tgz:32880.got - 2010.06.03 17:35:07.
