data_PCOD9530737
_publ_section_title
;
Structure prediction by ZEFSAII (Michael W. Deem and Ramdas Pophale) SiO2 
 PCOD9530737
Probable space group: I B C A 
;
_chemical_formula_sum "Si O2"
_cell_formula_units_Z 96
_cell_length_a 20.448127
_cell_length_b 21.245992
_cell_length_c 8.758924
_cell_angle_alpha 90.000000
_cell_angle_beta 90.000000
_cell_angle_gamma 90.000000
_cell_volume 3805.233447
_symmetry_space_group_name_H-M "I B C A "
_symmetry_group_IT_number 73
_symmetry_cell_setting 'orthorhombic'
loop_
_space_group_symop_operation_xyz
x,y,z
-x,1/2-y,z
x,-y,1/2-z
1/2-x,y,-z
-x,-y,-z
x,1/2+y,-z
-x,y,1/2+z
1/2+x,-y,z
1/2+x,1/2+y,1/2+z
1/2-x,-y,1/2+z
1/2+x,1/2-y,-z
-x,1/2+y,1/2-z
1/2-x,1/2-y,1/2-z
1/2+x,y,1/2-z
1/2-x,1/2+y,z
x,1/2-y,1/2+z
loop_
_atom_site_type_symbol
_atom_site_label
_atom_site_fract_x
_atom_site_fract_y
_atom_site_fract_z
Si Si1 0.120802 0.805069 0.360365
Si Si2 0.602135 0.880157 0.429268
Si Si3 0.000000 0.250000 0.227608
Si Si4 0.159239 0.000000 0.250000
Si Si5 0.955283 0.121767 0.403404
Si Si6 0.750000 0.007029 0.000000
Si Si7 0.750000 0.834503 0.000000
Si Si8 0.332364 0.403212 0.772815
O O1 0.117172 0.822582 0.183580
O O2 0.063085 0.755960 0.380007
O O3 0.088668 0.863122 0.450758
O O4 0.192491 0.794852 0.421008
O O5 0.526635 0.899390 0.457392
O O6 0.641600 0.864556 0.582052
O O7 0.627067 0.941741 0.336812
O O8 0.021811 0.313171 0.318420
O O9 0.199434 0.029159 0.106461
O O10 0.903526 0.080855 0.303839
O O11 0.710360 0.046460 0.870885
O O12 0.711793 0.869968 0.857712
#
# Coordination Sequence:
#
# PCOD9530737 Si02
#       8
#    16  16   8   8  16   8   8  16
#     4  10  21  37  62  89 122 164 207 259 317 379
#     4  10  20  38  61  88 123 164 207 260 316 375
#     4  10  20  38  62  90 122 166 214 260 318 386
#     4  10  22  38  60  88 120 160 212 260 316 382
#     4  10  21  38  62  91 123 164 213 262 316 379
#     4  10  22  39  59  90 126 172 212 258 319 377
#     4  10  20  37  61  92 122 160 208 260 315 377
#     4  10  21  39  62  88 124 164 207 254 314 377
#
# _framework density 25.228411999999999
#
# number of rings (size 3 to 8) (size 9 to 14) (size 15 to 20)
#    0.000    2.000    0.000    4.500    0.000    5.333 
#    0.000   12.500    0.000    0.000    0.000    0.000 
#    0.000    0.000    0.000    0.000    0.000    0.000 
#
# Total GULP energy -267270.202976 kJ/mol
# GULP energy per Si atom -5568.129229 kJ/mol
# Density = 2.517099 g / cm^3
# Si number density = 25.228412 Si / 1000 Ang^3
#
#
#
# Elastic Constant Matrix: (Units=GPa)
#
#
# Indices 1 2 3 4 5 6 
#
# 1 202.8783 37.3037 73.4376 0.0000 0.0000 0.0000
# 2 37.3037 32.9912 14.2877 0.0000 0.0000 0.0000
# 3 73.4376 14.2877 146.0373 0.0000 0.0000 0.0000
# 4 0.0000 0.0000 0.0000 14.2994 0.0000 0.0000
# 5 0.0000 0.0000 0.0000 0.0000 39.8138 0.0000
# 6 0.0000 0.0000 0.0000 0.0000 0.0000 20.4390
#
#
#
# Elastic Compliance Matrix: (Units=1/GPa)
#
#
# Indices 1 2 3 4 5 6 
#
# 1 0.007287 -0.006947 -0.002985 0.000000 0.000000 0.000000
# 2 -0.006947 0.038275 -0.000251 0.000000 0.000000 0.000000
# 3 -0.002985 -0.000251 0.008373 0.000000 0.000000 0.000000
# 4 0.000000 0.000000 0.000000 0.069933 0.000000 0.000000
# 5 0.000000 0.000000 0.000000 0.000000 0.025117 0.000000
# 6 0.000000 0.000000 0.000000 0.000000 0.000000 0.048926
#
#
# Mechanical properties :
#
#
# Convention : Reuss Voigt Hill
#
# Bulk Modulus (GPa) = 29.78931 70.21831 50.00381
# Shear Modulus (GPa) = 21.78979 32.03564 26.91272
#
# Velocity S-wave (km/s) = 2.94207 3.56732 3.26968
# Velocity P-wave (km/s) = 4.83472 6.69785 5.84105
#
# Compressibility (1/GPa) = 0.03356909
#
# Stress axis : x y z
#
# Youngs Moduli (GPa) = 137.23566 26.12694 119.43089
#
# Poissons Ratio (x) = 0.18149 0.35646
# Poissons Ratio (y) = 0.95333 0.03002
# Poissons Ratio (z) = 0.40960 0.00657
#
# Static dielectric constant tensor:
#      x y z
#    x 2.061760 0.000000 0.000000 
#    y 0.000000 2.164820 0.000000 
#    z 0.000000 0.000000 2.041280 
# 
# From -- ./inp_files/7229.got.cif
#   From: 2010.05.17/outbox.cif.g08.bks.cpg/sg73_4_cif.got.tgz:7229.got - 2010.06.03 17:35:07.
