data_PCOD9530358
_publ_section_title
;
Structure prediction by ZEFSAII (Michael W. Deem and Ramdas Pophale) SiO2 
 PCOD9530358
Probable space group: I B C A 
;
_chemical_formula_sum "Si O2"
_cell_formula_units_Z 88
_cell_length_a 13.900225
_cell_length_b 15.533785
_cell_length_c 17.772421
_cell_angle_alpha 90.000000
_cell_angle_beta 90.000000
_cell_angle_gamma 90.000000
_cell_volume 3837.476354
_symmetry_space_group_name_H-M "I B C A "
_symmetry_group_IT_number 73
_symmetry_cell_setting 'orthorhombic'
loop_
_space_group_symop_operation_xyz
x,y,z
-x,1/2-y,z
x,-y,1/2-z
1/2-x,y,-z
-x,-y,-z
x,1/2+y,-z
-x,y,1/2+z
1/2+x,-y,z
1/2+x,1/2+y,1/2+z
1/2-x,-y,1/2+z
1/2+x,1/2-y,-z
-x,1/2+y,1/2-z
1/2-x,1/2-y,1/2-z
1/2+x,y,1/2-z
1/2-x,1/2+y,z
x,1/2-y,1/2+z
loop_
_atom_site_type_symbol
_atom_site_label
_atom_site_fract_x
_atom_site_fract_y
_atom_site_fract_z
Si Si1 0.997861 0.500832 0.657502
Si Si2 0.250000 0.738132 0.500000
Si Si3 0.806617 0.559458 0.312310
Si Si4 0.869885 0.655708 0.611536
Si Si5 0.420686 0.319897 0.898845
Si Si6 0.137241 0.268743 0.752512
O O1 0.979191 0.500000 0.750000
O O2 0.952560 0.585087 0.619131
O O3 0.956805 0.417060 0.613580
O O4 0.113080 0.495884 0.645959
O O5 0.169392 0.799092 0.537549
O O6 0.317265 0.685776 0.558745
O O7 0.757641 0.500000 0.250000
O O8 0.725887 0.605784 0.359483
O O9 0.870142 0.632162 0.269558
O O10 0.895197 0.733333 0.668172
O O11 0.500000 0.250000 0.929695
O O12 0.405240 0.287094 0.814027
O O13 0.250000 0.250000 0.750000
#
# Coordination Sequence:
#
# PCOD9530358 Si02
#       6
#    16   8  16  16  16  16
#     4  11  22  38  68 102 127 170 225 287 347 389
#     4  12  26  44  66  94 144 194 222 268 340 426
#     4  10  21  38  65 101 130 166 223 291 340 385
#     4  11  23  41  66  99 135 174 226 278 333 408
#     4  12  23  45  70  98 139 184 222 288 347 401
#     4  10  19  39  69  96 127 169 231 281 332 390
#
# _framework density 22.931737999999999
#
# number of rings (size 3 to 8) (size 9 to 14) (size 15 to 20)
#    0.000    1.091    7.273    0.545    2.545    0.727 
#    0.000   10.000    0.000    0.000    0.000    0.000 
#    0.000    0.000    0.000    0.000    0.000    0.000 
#
# Total GULP energy -245621.070068 kJ/mol
# GULP energy per Si atom -5582.297047 kJ/mol
# Density = 2.287954 g / cm^3
# Si number density = 22.931738 Si / 1000 Ang^3
#
#
#
# Elastic Constant Matrix: (Units=GPa)
#
#
# Indices 1 2 3 4 5 6 
#
# 1 117.1330 8.6145 10.6084 0.0000 0.0000 0.0000
# 2 8.6145 40.8396 -7.7685 0.0000 0.0000 0.0000
# 3 10.6084 -7.7685 47.5291 0.0000 0.0000 0.0000
# 4 0.0000 0.0000 0.0000 90.3266 0.0000 0.0000
# 5 0.0000 0.0000 0.0000 0.0000 -16.8366 0.0000
# 6 0.0000 0.0000 0.0000 0.0000 0.0000 53.8736
#
#
#
# Elastic Compliance Matrix: (Units=1/GPa)
#
#
# Indices 1 2 3 4 5 6 
#
# 1 0.008924 -0.002334 -0.002373 0.000000 0.000000 0.000000
# 2 -0.002334 0.025882 0.004751 0.000000 0.000000 0.000000
# 3 -0.002373 0.004751 0.022346 0.000000 0.000000 0.000000
# 4 0.000000 0.000000 0.000000 0.011071 0.000000 0.000000
# 5 0.000000 0.000000 0.000000 0.000000 -0.059395 0.000000
# 6 0.000000 0.000000 0.000000 0.000000 0.000000 0.018562
#
#
# Mechanical properties :
#
#
# Convention : Reuss Voigt Hill
#
# Bulk Modulus (GPa) = 17.47019 25.37896 21.42457
# Shear Modulus (GPa) = 107.80019 38.40920 73.10469
#
# Velocity S-wave (km/s) = 6.86376 4.09704 5.65230
# Velocity P-wave (km/s) = 8.39344 5.78551 7.20840
#
# Compressibility (1/GPa) = 0.05724037
#
# Stress axis : x y z
#
# Youngs Moduli (GPa) = 112.05889 38.63674 44.75074
#
# Poissons Ratio (x) = 0.09017 0.10620
# Poissons Ratio (y) = 0.26152 -0.21262
# Poissons Ratio (z) = 0.26594 -0.18357
#
# Static dielectric constant tensor:
#      x y z
#    x 1.890880 0.000000 0.000000 
#    y 0.000000 1.871200 0.000000 
#    z 0.000000 0.000000 1.767940 
# 
# From -- ./inp_files/22446.got.cif
#   From: 2010.05.17/outbox.cif.g08.bks.cpg/sg73_12_cif.got.tgz:22446.got - 2010.06.03 17:35:07.
