data_PCOD9530795
_publ_section_title
;
Structure prediction by ZEFSAII (Michael W. Deem and Ramdas Pophale) SiO2 
 PCOD9530795
Probable space group: I B C A 
;
_chemical_formula_sum "Si O2"
_cell_formula_units_Z 112
_cell_length_a 18.594646
_cell_length_b 23.311650
_cell_length_c 12.641235
_cell_angle_alpha 90.000000
_cell_angle_beta 90.000000
_cell_angle_gamma 90.000000
_cell_volume 5479.619894
_symmetry_space_group_name_H-M "I B C A "
_symmetry_group_IT_number 73
_symmetry_cell_setting 'orthorhombic'
loop_
_space_group_symop_operation_xyz
x,y,z
-x,1/2-y,z
x,-y,1/2-z
1/2-x,y,-z
-x,-y,-z
x,1/2+y,-z
-x,y,1/2+z
1/2+x,-y,z
1/2+x,1/2+y,1/2+z
1/2-x,-y,1/2+z
1/2+x,1/2-y,-z
-x,1/2+y,1/2-z
1/2-x,1/2-y,1/2-z
1/2+x,y,1/2-z
1/2-x,1/2+y,z
x,1/2-y,1/2+z
loop_
_atom_site_type_symbol
_atom_site_label
_atom_site_fract_x
_atom_site_fract_y
_atom_site_fract_z
Si Si1 0.970560 0.500000 0.750000
Si Si2 0.867471 0.036550 0.425039
Si Si3 0.764850 0.630016 0.620704
Si Si4 0.681403 0.256696 0.174614
Si Si5 0.969948 0.909815 0.904964
Si Si6 0.121627 0.351536 0.760484
Si Si7 0.250000 0.676712 0.500000
Si Si8 0.124706 0.405781 0.994731
O O1 0.917814 0.537663 0.678354
O O2 0.016691 0.532889 0.836373
O O3 0.793738 0.065706 0.389396
O O4 0.908011 0.075786 0.511088
O O5 0.861085 0.972416 0.473505
O O6 0.750000 0.648567 0.500000
O O7 0.825284 0.675713 0.658291
O O8 0.695735 0.635031 0.696259
O O9 0.750000 0.250000 0.250000
O O10 0.618956 0.216603 0.218090
O O11 0.706792 0.219911 0.074141
O O12 0.942295 0.866307 0.817843
O O13 0.045152 0.893973 0.959523
O O14 0.122960 0.388737 0.869474
O O15 0.188273 0.633722 0.455951
#
# Coordination Sequence:
#
# PCOD9530795 Si02
#       8
#     8  16  16  16  16  16   8  16
#     4  10  22  38  58  84 126 176 204 250 316 382
#     4  11  23  38  59  93 125 165 209 255 316 380
#     4  11  21  40  63  91 123 164 210 266 310 378
#     4   9  20  37  64  85 114 158 205 251 316 367
#     4  11  20  38  61  86 125 162 209 250 311 380
#     4  10  21  39  63  95 119 166 211 259 320 383
#     4  10  20  38  60  84 118 152 202 260 310 378
#     4  10  23  38  60  90 127 166 200 255 322 383
#
# _framework density 20.439373
#
# number of rings (size 3 to 8) (size 9 to 14) (size 15 to 20)
#    0.000    1.714    2.143    3.429    1.000    6.857 
#    0.000    0.000    0.000   30.000    0.000    0.000 
#    0.000    0.000    0.000    0.000    0.000    0.000 
#
# Total GULP energy -312063.595841 kJ/mol
# GULP energy per Si atom -5572.564211 kJ/mol
# Density = 2.039285 g / cm^3
# Si number density = 20.439373 Si / 1000 Ang^3
#
#
#
# Elastic Constant Matrix: (Units=GPa)
#
#
# Indices 1 2 3 4 5 6 
#
# 1 62.7640 32.0964 23.7858 0.0000 0.0000 0.0000
# 2 32.0964 83.6448 11.4336 0.0000 0.0000 0.0000
# 3 23.7858 11.4336 67.6703 0.0000 0.0000 0.0000
# 4 0.0000 0.0000 0.0000 15.2554 0.0000 0.0000
# 5 0.0000 0.0000 0.0000 0.0000 37.3627 0.0000
# 6 0.0000 0.0000 0.0000 0.0000 0.0000 61.9908
#
#
#
# Elastic Compliance Matrix: (Units=1/GPa)
#
#
# Indices 1 2 3 4 5 6 
#
# 1 0.022344 -0.007678 -0.006556 0.000000 0.000000 0.000000
# 2 -0.007678 0.014876 0.000185 0.000000 0.000000 0.000000
# 3 -0.006556 0.000185 0.017051 0.000000 0.000000 0.000000
# 4 0.000000 0.000000 0.000000 0.065551 0.000000 0.000000
# 5 0.000000 0.000000 0.000000 0.000000 0.026765 0.000000
# 6 0.000000 0.000000 0.000000 0.000000 0.000000 0.016131
#
#
# Mechanical properties :
#
#
# Convention : Reuss Voigt Hill
#
# Bulk Modulus (GPa) = 38.20765 38.74562 38.47664
# Shear Modulus (GPa) = 25.05776 32.70599 28.88188
#
# Velocity S-wave (km/s) = 3.50516 4.00452 3.76314
# Velocity P-wave (km/s) = 5.92582 6.35446 6.14388
#
# Compressibility (1/GPa) = 0.02617277
#
# Stress axis : x y z
#
# Youngs Moduli (GPa) = 44.75561 67.22219 58.64824
#
# Poissons Ratio (x) = 0.51610 0.38452
# Poissons Ratio (y) = 0.34361 -0.01086
# Poissons Ratio (z) = 0.29344 -0.01245
#
# Static dielectric constant tensor:
#      x y z
#    x 1.803970 0.000000 0.000000 
#    y 0.000000 1.753730 0.000000 
#    z 0.000000 0.000000 1.743420 
# 
# From -- ./inp_files/13092.got.cif
#   From: 2010.05.17/outbox.cif.g08.bks.cpg/sg73_7_cif.got.tgz:13092.got - 2010.06.03 17:35:07.
