data_PCOD9530720
_publ_section_title
;
Structure prediction by ZEFSAII (Michael W. Deem and Ramdas Pophale) SiO2 
 PCOD9530720
Probable space group: I B C A 
;
_chemical_formula_sum "Si O2"
_cell_formula_units_Z 96
_cell_length_a 21.222138
_cell_length_b 14.131361
_cell_length_c 15.648035
_cell_angle_alpha 90.000000
_cell_angle_beta 90.000000
_cell_angle_gamma 90.000000
_cell_volume 4692.809601
_symmetry_space_group_name_H-M "I B C A "
_symmetry_group_IT_number 73
_symmetry_cell_setting 'orthorhombic'
loop_
_space_group_symop_operation_xyz
x,y,z
-x,1/2-y,z
x,-y,1/2-z
1/2-x,y,-z
-x,-y,-z
x,1/2+y,-z
-x,y,1/2+z
1/2+x,-y,z
1/2+x,1/2+y,1/2+z
1/2-x,-y,1/2+z
1/2+x,1/2-y,-z
-x,1/2+y,1/2-z
1/2-x,1/2-y,1/2-z
1/2+x,y,1/2-z
1/2-x,1/2+y,z
x,1/2-y,1/2+z
loop_
_atom_site_type_symbol
_atom_site_label
_atom_site_fract_x
_atom_site_fract_y
_atom_site_fract_z
Si Si1 0.364310 0.674160 0.972064
Si Si2 0.887048 0.672773 0.902654
Si Si3 0.518668 0.580006 0.567956
Si Si4 0.005481 0.000000 0.750000
Si Si5 0.789937 0.989264 0.425644
Si Si6 0.111636 0.655742 0.217000
Si Si7 0.717949 0.000000 0.750000
O O1 0.312989 0.592031 0.957591
O O2 0.385659 0.702566 0.875899
O O3 0.349262 0.763750 0.030395
O O4 0.420929 0.628934 0.027043
O O5 0.852316 0.570786 0.903237
O O6 0.887652 0.713164 0.805794
O O7 0.959084 0.651077 0.926694
O O8 0.500000 0.500000 0.500000
O O9 0.528220 0.536371 0.663380
O O10 0.051468 0.913868 0.721477
O O11 0.750000 0.944063 0.500000
O O12 0.748263 0.985959 0.339429
O O13 0.172846 0.588250 0.226335
#
# Coordination Sequence:
#
# PCOD9530720 Si02
#       7
#    16  16  16   8  16  16   8
#     4  11  20  36  58  82 109 142 186 227 268 322
#     4  10  21  36  55  82 111 142 182 223 272 329
#     4  11  18  35  56  82 110 145 179 220 267 324
#     4   9  16  30  55  76 110 148 179 215 266 326
#     4  10  20  37  60  79 104 142 183 226 273 321
#     4   8  15  32  54  74 102 148 183 210 258 330
#     4   7  14  32  57  76  94 136 187 215 256 330
#
# _framework density 20.456828000000002
#
# number of rings (size 3 to 8) (size 9 to 14) (size 15 to 20)
#    0.000    2.333    3.333    2.500    0.000    0.667 
#    3.000    4.167    0.000    6.000    0.000    0.000 
#    0.000    0.000    0.000    0.000    0.000    0.000 
#
# Total GULP energy -267254.059639 kJ/mol
# GULP energy per Si atom -5567.792909 kJ/mol
# Density = 2.041027 g / cm^3
# Si number density = 20.456828 Si / 1000 Ang^3
#
#
#
# Elastic Constant Matrix: (Units=GPa)
#
#
# Indices 1 2 3 4 5 6 
#
# 1 25.9857 -6.2339 25.6792 0.0000 0.0000 0.0000
# 2 -6.2339 52.9140 33.4001 0.0000 0.0000 0.0000
# 3 25.6792 33.4001 204.5363 0.0000 0.0000 0.0000
# 4 0.0000 0.0000 0.0000 32.6171 0.0000 0.0000
# 5 0.0000 0.0000 0.0000 0.0000 25.6182 0.0000
# 6 0.0000 0.0000 0.0000 0.0000 0.0000 6.1141
#
#
#
# Elastic Compliance Matrix: (Units=1/GPa)
#
#
# Indices 1 2 3 4 5 6 
#
# 1 0.048850 0.010733 -0.007886 0.000000 0.000000 0.000000
# 2 0.010733 0.023428 -0.005173 0.000000 0.000000 0.000000
# 3 -0.007886 -0.005173 0.006724 0.000000 0.000000 0.000000
# 4 0.000000 0.000000 0.000000 0.030659 0.000000 0.000000
# 5 0.000000 0.000000 0.000000 0.000000 0.039035 0.000000
# 6 0.000000 0.000000 0.000000 0.000000 0.000000 0.163557
#
#
# Mechanical properties :
#
#
# Convention : Reuss Voigt Hill
#
# Bulk Modulus (GPa) = 13.44990 43.23630 28.34310
# Shear Modulus (GPa) = 14.63319 28.24258 21.43789
#
# Velocity S-wave (km/s) = 2.67745 3.71967 3.24073
# Velocity P-wave (km/s) = 4.01838 6.29517 5.28093
#
# Compressibility (1/GPa) = 0.07435001
#
# Stress axis : x y z
#
# Youngs Moduli (GPa) = 20.47076 42.68316 148.72290
#
# Poissons Ratio (x) = -0.45810 1.17278
# Poissons Ratio (y) = -0.21971 0.76938
# Poissons Ratio (z) = 0.16143 0.22081
#
# Static dielectric constant tensor:
#      x y z
#    x 1.733170 0.000000 0.000000 
#    y 0.000000 1.811520 0.000000 
#    z 0.000000 0.000000 2.039950 
# 
# From -- ./inp_files/17334.got.cif
#   From: 2010.05.17/outbox.cif.g08.bks.cpg/sg73_9_cif.got.tgz:17334.got - 2010.06.03 17:35:07.
