data_PCOD9530330
_publ_section_title
;
Structure prediction by ZEFSAII (Michael W. Deem and Ramdas Pophale) SiO2 
 PCOD9530330
Probable space group: I B C A 
;
_chemical_formula_sum "Si O2"
_cell_formula_units_Z 120
_cell_length_a 23.425722
_cell_length_b 8.332817
_cell_length_c 26.609545
_cell_angle_alpha 90.000000
_cell_angle_beta 90.000000
_cell_angle_gamma 90.000000
_cell_volume 5194.243176
_symmetry_space_group_name_H-M "I B C A "
_symmetry_group_IT_number 73
_symmetry_cell_setting 'orthorhombic'
loop_
_space_group_symop_operation_xyz
x,y,z
-x,1/2-y,z
x,-y,1/2-z
1/2-x,y,-z
-x,-y,-z
x,1/2+y,-z
-x,y,1/2+z
1/2+x,-y,z
1/2+x,1/2+y,1/2+z
1/2-x,-y,1/2+z
1/2+x,1/2-y,-z
-x,1/2+y,1/2-z
1/2-x,1/2-y,1/2-z
1/2+x,y,1/2-z
1/2-x,1/2+y,z
x,1/2-y,1/2+z
loop_
_atom_site_type_symbol
_atom_site_label
_atom_site_fract_x
_atom_site_fract_y
_atom_site_fract_z
Si Si1 0.117114 0.477516 0.618403
Si Si2 0.831372 0.971460 0.328928
Si Si3 0.377031 0.122711 0.509105
Si Si4 0.781611 0.282247 0.355419
Si Si5 0.079365 0.000000 0.750000
Si Si6 0.994467 0.562730 0.327178
Si Si7 0.299366 0.888732 0.460394
Si Si8 0.585151 0.382408 0.406524
O O1 0.108372 0.536542 0.560997
O O2 0.174292 0.570670 0.635441
O O3 0.112770 0.286134 0.611502
O O4 0.067808 0.503881 0.660220
O O5 0.806729 0.149010 0.317417
O O6 0.875473 0.910136 0.286577
O O7 0.778431 0.855245 0.338658
O O8 0.869141 0.999110 0.379539
O O9 0.357745 0.296760 0.526480
O O10 0.423094 0.119090 0.465653
O O11 0.321008 0.064832 0.476753
O O12 0.776306 0.181360 0.407761
O O13 0.033298 0.050802 0.792363
O O14 0.025898 0.580021 0.380334
O O15 0.000000 0.750000 0.307104
O O16 0.250000 0.856752 0.500000
#
# Coordination Sequence:
#
# PCOD9530330 Si02
#       8
#    16  16  16  16   8  16  16  16
#     4  10  22  39  60  93 127 171 216 256 310 372
#     4  11  23  41  63  93 126 166 207 263 326 375
#     4  11  20  33  56  84 129 168 212 253 297 366
#     4  11  24  37  61  92 133 168 206 258 310 378
#     4  10  24  44  70  92 118 154 212 274 332 390
#     4   9  21  42  68  88 115 164 210 264 329 378
#     4  11  22  32  52  88 125 177 213 242 293 370
#     4  10  19  39  60  85 128 168 213 259 306 374
#
# _framework density 23.102499000000002
#
# number of rings (size 3 to 8) (size 9 to 14) (size 15 to 20)
#    0.000    1.600    2.667    2.000    3.733    2.133 
#    0.000    2.667    0.000    0.000    0.000    0.000 
#    0.000    0.000    0.000    0.000    0.000    0.000 
#
# Total GULP energy -334004.640164 kJ/mol
# GULP energy per Si atom -5566.744003 kJ/mol
# Density = 2.304992 g / cm^3
# Si number density = 23.102499 Si / 1000 Ang^3
#
#
#
# Elastic Constant Matrix: (Units=GPa)
#
#
# Indices 1 2 3 4 5 6 
#
# 1 97.8741 11.1043 39.8080 0.0000 0.0000 0.0000
# 2 11.1043 33.2786 -1.4787 0.0000 0.0000 0.0000
# 3 39.8080 -1.4787 103.0427 0.0000 0.0000 0.0000
# 4 0.0000 0.0000 0.0000 14.3492 0.0000 0.0000
# 5 0.0000 0.0000 0.0000 0.0000 34.9803 0.0000
# 6 0.0000 0.0000 0.0000 0.0000 0.0000 13.4560
#
#
#
# Elastic Compliance Matrix: (Units=1/GPa)
#
#
# Indices 1 2 3 4 5 6 
#
# 1 0.012756 -0.004478 -0.004992 0.000000 0.000000 0.000000
# 2 -0.004478 0.031641 0.002184 0.000000 0.000000 0.000000
# 3 -0.004992 0.002184 0.011665 0.000000 0.000000 0.000000
# 4 0.000000 0.000000 0.000000 0.069690 0.000000 0.000000
# 5 0.000000 0.000000 0.000000 0.000000 0.028587 0.000000
# 6 0.000000 0.000000 0.000000 0.000000 0.000000 0.074316
#
#
# Mechanical properties :
#
#
# Convention : Reuss Voigt Hill
#
# Bulk Modulus (GPa) = 24.10301 37.00695 30.55498
# Shear Modulus (GPa) = 19.45097 24.87456 22.16277
#
# Velocity S-wave (km/s) = 2.90477 3.28488 3.10065
# Velocity P-wave (km/s) = 4.65897 5.51730 5.10620
#
# Compressibility (1/GPa) = 0.04148860
#
# Stress axis : x y z
#
# Youngs Moduli (GPa) = 78.39640 31.60501 85.72923
#
# Poissons Ratio (x) = 0.14153 0.42797
# Poissons Ratio (y) = 0.35106 -0.18724
# Poissons Ratio (z) = 0.39136 -0.06903
#
# Static dielectric constant tensor:
#      x y z
#    x 1.889740 0.000000 0.000000 
#    y 0.000000 1.971080 0.000000 
#    z 0.000000 0.000000 1.947830 
# 
# From -- ./inp_files/32905.got.cif
#   From: 2010.05.17/outbox.cif.g08.bks.cpg/sg73_17_cif.got.tgz:32905.got - 2010.06.03 17:35:07.
