data_PCOD9530984
_publ_section_title
;
Structure prediction by ZEFSAII (Michael W. Deem and Ramdas Pophale) SiO2 
 PCOD9530984
Probable space group: I B C A 
;
_chemical_formula_sum "Si O2"
_cell_formula_units_Z 120
_cell_length_a 24.780922
_cell_length_b 15.895896
_cell_length_c 13.626921
_cell_angle_alpha 90.000000
_cell_angle_beta 90.000000
_cell_angle_gamma 90.000000
_cell_volume 5367.848026
_symmetry_space_group_name_H-M "I B C A "
_symmetry_group_IT_number 73
_symmetry_cell_setting 'orthorhombic'
loop_
_space_group_symop_operation_xyz
x,y,z
-x,1/2-y,z
x,-y,1/2-z
1/2-x,y,-z
-x,-y,-z
x,1/2+y,-z
-x,y,1/2+z
1/2+x,-y,z
1/2+x,1/2+y,1/2+z
1/2-x,-y,1/2+z
1/2+x,1/2-y,-z
-x,1/2+y,1/2-z
1/2-x,1/2-y,1/2-z
1/2+x,y,1/2-z
1/2-x,1/2+y,z
x,1/2-y,1/2+z
loop_
_atom_site_type_symbol
_atom_site_label
_atom_site_fract_x
_atom_site_fract_y
_atom_site_fract_z
Si Si1 0.373966 0.880839 0.665327
Si Si2 0.048158 0.309433 0.371692
Si Si3 0.704762 0.000000 0.250000
Si Si4 0.200286 0.262034 0.546833
Si Si5 0.011388 0.648408 0.925572
Si Si6 0.346785 0.724427 0.360826
Si Si7 0.584858 0.415918 0.309265
Si Si8 0.202370 0.861195 0.780211
O O1 0.338215 0.966146 0.668543
O O2 0.347246 0.821844 0.582810
O O3 0.438010 0.880685 0.642902
O O4 0.360472 0.837498 0.771065
O O5 0.029395 0.367088 0.461746
O O6 0.096668 0.251981 0.407454
O O7 0.069163 0.347296 0.271477
O O8 0.000000 0.250000 0.344050
O O9 0.747025 0.077125 0.233677
O O10 0.250000 0.312612 0.500000
O O11 0.184699 0.198611 0.458820
O O12 0.216623 0.210499 0.642270
O O13 0.000000 0.750000 0.917557
O O14 0.956131 0.601045 0.897577
O O15 0.318087 0.808129 0.314506
O O16 0.573429 0.500000 0.250000
O O17 0.649188 0.407963 0.323684
#
# Coordination Sequence:
#
# PCOD9530984 Si02
#       8
#    16  16   8  16  16  16  16  16
#     4  11  24  41  66  98 133 172 213 275 330 390
#     4  10  21  38  67  97 124 162 211 269 329 382
#     4  12  24  44  62  92 140 176 214 266 328 392
#     4  11  21  39  65  92 117 164 224 274 315 371
#     4  11  22  42  69  99 127 161 220 278 327 384
#     4  10  20  40  66  90 121 162 220 270 317 379
#     4  11  23  41  66  92 134 174 211 262 329 406
#     4  10  23  43  64  92 128 176 221 267 326 382
#
# _framework density 22.355328
#
# number of rings (size 3 to 8) (size 9 to 14) (size 15 to 20)
#    0.000    1.333    2.000    5.200    2.800    2.667 
#    0.000    8.667    0.000    0.000    0.000    0.000 
#    0.000    0.000    0.000    0.000    0.000    0.000 
#
# Total GULP energy -334513.341715 kJ/mol
# GULP energy per Si atom -5575.222362 kJ/mol
# Density = 2.230445 g / cm^3
# Si number density = 22.355328 Si / 1000 Ang^3
#
#
#
# Elastic Constant Matrix: (Units=GPa)
#
#
# Indices 1 2 3 4 5 6 
#
# 1 122.0017 6.4015 19.3727 0.0000 0.0000 0.0000
# 2 6.4015 26.3735 -20.8763 0.0000 0.0000 0.0000
# 3 19.3727 -20.8763 61.8486 0.0000 0.0000 0.0000
# 4 0.0000 0.0000 0.0000 -4.4826 0.0000 0.0000
# 5 0.0000 0.0000 0.0000 0.0000 22.7334 0.0000
# 6 0.0000 0.0000 0.0000 0.0000 0.0000 33.0895
#
#
#
# Elastic Compliance Matrix: (Units=1/GPa)
#
#
# Indices 1 2 3 4 5 6 
#
# 1 0.009322 -0.006242 -0.005027 0.000000 0.000000 0.000000
# 2 -0.006242 0.055920 0.020830 0.000000 0.000000 0.000000
# 3 -0.005027 0.020830 0.024774 0.000000 0.000000 0.000000
# 4 0.000000 0.000000 0.000000 -0.223086 0.000000 0.000000
# 5 0.000000 0.000000 0.000000 0.000000 0.043988 0.000000
# 6 0.000000 0.000000 0.000000 0.000000 0.000000 0.030221
#
#
# Mechanical properties :
#
#
# Convention : Reuss Voigt Hill
#
# Bulk Modulus (GPa) = 9.16250 24.44663 16.80457
# Shear Modulus (GPa) = -120.18240 23.95646 -48.11297
#
# Velocity S-wave (km/s) = -7.34008 3.27712 -4.64421
# Velocity P-wave (km/s) = 8.22972 5.02778 4.60704
#
# Compressibility (1/GPa) = 0.10914047
#
# Stress axis : x y z
#
# Youngs Moduli (GPa) = 107.26908 17.88253 40.36458
#
# Poissons Ratio (x) = 0.11162 0.20291
# Poissons Ratio (y) = 0.66956 -0.84081
# Poissons Ratio (z) = 0.53923 -0.37250
#
# Static dielectric constant tensor:
#      x y z
#    x 2.054760 0.000000 0.000000 
#    y 0.000000 1.723380 0.000000 
#    z 0.000000 0.000000 2.216470 
# 
# From -- ./inp_files/18251.got.cif
#   From: 2010.05.17/outbox.cif.g08.bks.cpg/sg73_10_cif.got.tgz:18251.got - 2010.06.03 17:35:07.
