data_PCOD9530142
_publ_section_title
;
Structure prediction by ZEFSAII (Michael W. Deem and Ramdas Pophale) SiO2 
 PCOD9530142
Probable space group: I B C A 
;
_chemical_formula_sum "Si O2"
_cell_formula_units_Z 112
_cell_length_a 13.359657
_cell_length_b 29.080886
_cell_length_c 11.006738
_cell_angle_alpha 90.000000
_cell_angle_beta 90.000000
_cell_angle_gamma 90.000000
_cell_volume 4276.235069
_symmetry_space_group_name_H-M "I B C A "
_symmetry_group_IT_number 73
_symmetry_cell_setting 'orthorhombic'
loop_
_space_group_symop_operation_xyz
x,y,z
-x,1/2-y,z
x,-y,1/2-z
1/2-x,y,-z
-x,-y,-z
x,1/2+y,-z
-x,y,1/2+z
1/2+x,-y,z
1/2+x,1/2+y,1/2+z
1/2-x,-y,1/2+z
1/2+x,1/2-y,-z
-x,1/2+y,1/2-z
1/2-x,1/2-y,1/2-z
1/2+x,y,1/2-z
1/2-x,1/2+y,z
x,1/2-y,1/2+z
loop_
_atom_site_type_symbol
_atom_site_label
_atom_site_fract_x
_atom_site_fract_y
_atom_site_fract_z
Si Si1 0.391083 0.187817 0.438936
Si Si2 0.592234 0.655913 0.799813
Si Si3 0.135206 0.162525 0.819331
Si Si4 0.405925 0.549466 0.295131
Si Si5 0.180246 0.060889 0.810619
Si Si6 0.868824 0.704380 0.434167
Si Si7 0.857915 0.531721 0.944266
O O1 0.362577 0.164902 0.566978
O O2 0.342195 0.163051 0.323660
O O3 0.362364 0.241060 0.422618
O O4 0.512893 0.188549 0.439087
O O5 0.481850 0.677656 0.809159
O O6 0.568272 0.602601 0.772541
O O7 0.657110 0.677999 0.691674
O O8 0.159076 0.110779 0.862374
O O9 0.171734 0.193370 0.930908
O O10 0.445663 0.500000 0.250000
O O11 0.293324 0.550705 0.235164
O O12 0.423781 0.543803 0.440449
O O13 0.120419 0.056148 0.683035
O O14 0.151965 0.021578 0.906248
O O15 0.750000 0.545584 0.000000
#
# Coordination Sequence:
#
# PCOD9530142 Si02
#       7
#    16  16  16  16  16  16  16
#     4   9  17  35  56  80 110 142 177 214 269 336
#     4  10  21  35  53  84 115 134 177 228 272 312
#     4  10  20  33  55  83 109 135 178 224 270 311
#     4  11  21  36  54  76 105 150 182 219 260 322
#     4  10  19  34  56  74 100 140 183 224 248 318
#     4   9  18  32  58  82 107 143 176 217 268 325
#     4   9  17  34  52  71  94 136 188 214 243 306
#
# _framework density 26.191264
#
# number of rings (size 3 to 8) (size 9 to 14) (size 15 to 20)
#    0.000    2.286    2.857    1.714    2.000    3.429 
#    2.571    0.714    0.000    5.143    0.000    0.000 
#    0.000    0.000    0.000    0.000    0.000    0.000 
#
# Total GULP energy -312690.710074 kJ/mol
# GULP energy per Si atom -5583.762680 kJ/mol
# Density = 2.613165 g / cm^3
# Si number density = 26.191264 Si / 1000 Ang^3
#
#
#
# Elastic Constant Matrix: (Units=GPa)
#
#
# Indices 1 2 3 4 5 6 
#
# 1 59.1195 -30.2471 20.5103 0.0002 0.0000 0.0000
# 2 -30.2471 66.5835 36.9146 -0.0007 -0.0001 0.0005
# 3 20.5103 36.9146 136.3230 0.0037 -0.0003 0.0009
# 4 0.0002 -0.0007 0.0037 63.7475 -0.0003 -0.0013
# 5 0.0000 -0.0001 -0.0003 -0.0003 32.1013 0.0002
# 6 0.0000 0.0005 0.0009 -0.0013 0.0002 26.9740
#
#
#
# Elastic Compliance Matrix: (Units=1/GPa)
#
#
# Indices 1 2 3 4 5 6 
#
# 1 0.029955 0.018952 -0.009639 0.000001 0.000000 0.000000
# 2 0.018952 0.029662 -0.010883 0.000001 0.000000 0.000000
# 3 -0.009639 -0.010883 0.011733 -0.000001 0.000000 0.000000
# 4 0.000001 0.000001 -0.000001 0.015687 0.000000 0.000001
# 5 0.000000 0.000000 0.000000 0.000000 0.031151 0.000000
# 6 0.000000 0.000000 0.000000 0.000001 0.000000 0.037073
#
#
# Mechanical properties :
#
#
# Convention : Reuss Voigt Hill
#
# Bulk Modulus (GPa) = 14.66092 35.15350 24.90721
# Shear Modulus (GPa) = 27.60328 40.22110 33.91219
#
# Velocity S-wave (km/s) = 3.24992 3.92301 3.60222
# Velocity P-wave (km/s) = 4.43762 5.82847 5.17994
#
# Compressibility (1/GPa) = 0.06820856
#
# Stress axis : x y z
#
# Youngs Moduli (GPa) = 33.38342 33.71337 85.23120
#
# Poissons Ratio (x) = -0.63892 0.82152
# Poissons Ratio (y) = -0.63267 0.92761
# Poissons Ratio (z) = 0.32177 0.36692
#
# Static dielectric constant tensor:
#      x y z
#    x 2.276140 0.000000 0.000000 
#    y 0.000000 1.941650 0.000000 
#    z 0.000000 0.000000 2.073760 
# 
# From -- ./inp_files/13153.got.cif
#   From: 2010.05.17/outbox.cif.g08.bks.cpg/sg73_7_cif.got.tgz:13153.got - 2010.06.03 17:35:07.
