data_PCOD9530426
_publ_section_title
;
Structure prediction by ZEFSAII (Michael W. Deem and Ramdas Pophale) SiO2 
 PCOD9530426
Probable space group: I B C A 
;
_chemical_formula_sum "Si O2"
_cell_formula_units_Z 104
_cell_length_a 9.718084
_cell_length_b 23.658307
_cell_length_c 22.538047
_cell_angle_alpha 90.000000
_cell_angle_beta 90.000000
_cell_angle_gamma 90.000000
_cell_volume 5181.799347
_symmetry_space_group_name_H-M "I B C A "
_symmetry_group_IT_number 73
_symmetry_cell_setting 'orthorhombic'
loop_
_space_group_symop_operation_xyz
x,y,z
-x,1/2-y,z
x,-y,1/2-z
1/2-x,y,-z
-x,-y,-z
x,1/2+y,-z
-x,y,1/2+z
1/2+x,-y,z
1/2+x,1/2+y,1/2+z
1/2-x,-y,1/2+z
1/2+x,1/2-y,-z
-x,1/2+y,1/2-z
1/2-x,1/2-y,1/2-z
1/2+x,y,1/2-z
1/2-x,1/2+y,z
x,1/2-y,1/2+z
loop_
_atom_site_type_symbol
_atom_site_label
_atom_site_fract_x
_atom_site_fract_y
_atom_site_fract_z
Si Si1 0.750915 0.054491 0.068389
Si Si2 0.517262 0.412361 0.347340
Si Si3 0.755911 0.166594 0.203564
Si Si4 0.366772 0.279301 0.681826
Si Si5 0.264338 0.444722 0.645036
Si Si6 0.606152 0.500000 0.250000
Si Si7 0.471862 0.624509 0.372758
O O1 0.900360 0.071503 0.093202
O O2 0.644019 0.105864 0.080327
O O3 0.716239 0.000879 0.110259
O O4 0.750000 0.038865 0.000000
O O5 0.607263 0.363220 0.318939
O O6 0.359434 0.401048 0.360227
O O7 0.525731 0.464231 0.299704
O O8 0.726002 0.224940 0.167818
O O9 0.783461 0.183169 0.271320
O O10 0.622642 0.127990 0.187418
O O11 0.500000 0.250000 0.713549
O O12 0.439041 0.317515 0.631438
O O13 0.296693 0.458297 0.713230
O O14 0.410373 0.422361 0.622631
#
# Coordination Sequence:
#
# PCOD9530426 Si02
#       7
#    16  16  16  16  16   8  16
#     4  10  22  41  59  78 109 149 197 248 295 346
#     4  10  21  34  53  82 114 154 195 235 286 345
#     4   9  19  34  52  80 116 151 188 229 281 343
#     4   9  18  33  56  84 112 151 196 232 276 337
#     4  11  22  33  52  82 114 151 189 231 284 347
#     4  10  20  32  48  74 120 162 190 222 276 342
#     4  10  21  36  53  80 114 151 189 233 287 336
#
# _framework density 20.070247999999999
#
# number of rings (size 3 to 8) (size 9 to 14) (size 15 to 20)
#    0.000    2.154    0.000    3.231    0.000   14.769 
#    0.000    0.000    0.000    0.000    0.000   81.846 
#    0.000    0.000    0.000    0.000    0.000    0.000 
#
# Total GULP energy -289688.697201 kJ/mol
# GULP energy per Si atom -5570.936485 kJ/mol
# Density = 2.002457 g / cm^3
# Si number density = 20.070248 Si / 1000 Ang^3
#
#
#
# Elastic Constant Matrix: (Units=GPa)
#
#
# Indices 1 2 3 4 5 6 
#
# 1 102.4120 9.8930 11.2678 0.0000 0.0000 0.0000
# 2 9.8930 53.1921 4.0211 0.0000 0.0000 0.0000
# 3 11.2678 4.0211 64.4547 0.0000 0.0000 0.0000
# 4 0.0000 0.0000 0.0000 8.2425 0.0000 0.0000
# 5 0.0000 0.0000 0.0000 0.0000 6.1215 0.0000
# 6 0.0000 0.0000 0.0000 0.0000 0.0000 26.2831
#
#
#
# Elastic Compliance Matrix: (Units=1/GPa)
#
#
# Indices 1 2 3 4 5 6 
#
# 1 0.010117 -0.001756 -0.001659 0.000000 0.000000 0.000000
# 2 -0.001756 0.019194 -0.000890 0.000000 0.000000 0.000000
# 3 -0.001659 -0.000890 0.015860 0.000000 0.000000 0.000000
# 4 0.000000 0.000000 0.000000 0.121322 0.000000 0.000000
# 5 0.000000 0.000000 0.000000 0.000000 0.163358 0.000000
# 6 0.000000 0.000000 0.000000 0.000000 0.000000 0.038047
#
#
# Mechanical properties :
#
#
# Convention : Reuss Voigt Hill
#
# Bulk Modulus (GPa) = 27.35264 30.04697 28.69981
# Shear Modulus (GPa) = 12.86354 21.12123 16.99238
#
# Velocity S-wave (km/s) = 2.53440 3.24754 2.91287
# Velocity P-wave (km/s) = 4.71405 5.39123 5.06397
#
# Compressibility (1/GPa) = 0.03655954
#
# Stress axis : x y z
#
# Youngs Moduli (GPa) = 98.84691 52.10040 63.05030
#
# Poissons Ratio (x) = 0.09150 0.10460
# Poissons Ratio (y) = 0.17359 0.05614
# Poissons Ratio (z) = 0.16399 0.04639
#
# Static dielectric constant tensor:
#      x y z
#    x 1.741530 0.000000 0.000000 
#    y 0.000000 1.817890 0.000000 
#    z 0.000000 0.000000 1.661360 
# 
# From -- ./inp_files/24948.got.cif
#   From: 2010.05.17/outbox.cif.g08.bks.cpg/sg73_13_cif.got.tgz:24948.got - 2010.06.03 17:35:07.
