data_PCOD9530779
_publ_section_title
;
Structure prediction by ZEFSAII (Michael W. Deem and Ramdas Pophale) SiO2 
 PCOD9530779
Probable space group: I B C A 
;
_chemical_formula_sum "Si O2"
_cell_formula_units_Z 96
_cell_length_a 19.349223
_cell_length_b 24.155693
_cell_length_c 10.200587
_cell_angle_alpha 90.000000
_cell_angle_beta 90.000000
_cell_angle_gamma 90.000000
_cell_volume 4767.692044
_symmetry_space_group_name_H-M "I B C A "
_symmetry_group_IT_number 73
_symmetry_cell_setting 'orthorhombic'
loop_
_space_group_symop_operation_xyz
x,y,z
-x,1/2-y,z
x,-y,1/2-z
1/2-x,y,-z
-x,-y,-z
x,1/2+y,-z
-x,y,1/2+z
1/2+x,-y,z
1/2+x,1/2+y,1/2+z
1/2-x,-y,1/2+z
1/2+x,1/2-y,-z
-x,1/2+y,1/2-z
1/2-x,1/2-y,1/2-z
1/2+x,y,1/2-z
1/2-x,1/2+y,z
x,1/2-y,1/2+z
loop_
_atom_site_type_symbol
_atom_site_label
_atom_site_fract_x
_atom_site_fract_y
_atom_site_fract_z
Si Si1 0.606273 0.381025 0.286488
Si Si2 0.828213 0.000000 0.250000
Si Si3 0.624787 0.813546 0.970431
Si Si4 0.000000 0.250000 0.843831
Si Si5 0.750000 0.971521 0.500000
Si Si6 0.445997 0.645854 0.211222
Si Si7 0.162653 0.632146 0.571141
Si Si8 0.250000 0.769880 0.000000
O O1 0.628690 0.444321 0.270787
O O2 0.523045 0.378145 0.291801
O O3 0.634750 0.358061 0.424005
O O4 0.637883 0.345686 0.166212
O O5 0.784248 0.005824 0.383572
O O6 0.599353 0.856545 0.080561
O O7 0.556223 0.778972 0.934589
O O8 0.685909 0.773077 0.019941
O O9 0.041193 0.290448 0.748833
O O10 0.800053 0.926931 0.569842
O O11 0.400530 0.625744 0.331572
O O12 0.214031 0.684388 0.598890
#
# Coordination Sequence:
#
# PCOD9530779 Si02
#       8
#    16   8  16   8   8  16  16   8
#     4  10  23  42  64  88 123 163 214 266 314 372
#     4  10  22  46  68  90 122 166 208 270 326 368
#     4  11  24  36  61  92 123 165 215 254 299 384
#     4  10  20  38  56  86 122 174 202 250 310 366
#     4   9  22  41  68  88 122 167 204 261 328 376
#     4  11  22  38  61  89 126 166 212 258 306 374
#     4  10  22  41  59  88 130 165 205 251 321 382
#     4  11  24  37  58  92 128 171 198 251 310 376
#
# _framework density 20.135528999999998
#
# number of rings (size 3 to 8) (size 9 to 14) (size 15 to 20)
#    0.000    1.667    1.667    2.500    4.667    7.333 
#    0.000    8.333    0.000    0.000    0.000    0.000 
#    0.000    0.000    0.000    0.000    0.000    0.000 
#
# Total GULP energy -267571.287926 kJ/mol
# GULP energy per Si atom -5574.401832 kJ/mol
# Density = 2.008970 g / cm^3
# Si number density = 20.135529 Si / 1000 Ang^3
#
#
#
# Elastic Constant Matrix: (Units=GPa)
#
#
# Indices 1 2 3 4 5 6 
#
# 1 68.6905 13.0686 34.2317 0.0000 0.0000 0.0000
# 2 13.0686 35.8051 30.1471 0.0000 0.0000 0.0000
# 3 34.2317 30.1471 110.4397 0.0000 0.0000 0.0000
# 4 0.0000 0.0000 0.0000 7.4486 0.0000 0.0000
# 5 0.0000 0.0000 0.0000 0.0000 -11.7720 0.0000
# 6 0.0000 0.0000 0.0000 0.0000 0.0000 41.3585
#
#
#
# Elastic Compliance Matrix: (Units=1/GPa)
#
#
# Indices 1 2 3 4 5 6 
#
# 1 0.017368 -0.002346 -0.004743 0.000000 0.000000 0.000000
# 2 -0.002346 0.036581 -0.009258 0.000000 0.000000 0.000000
# 3 -0.004743 -0.009258 0.013052 0.000000 0.000000 0.000000
# 4 0.000000 0.000000 0.000000 0.134254 0.000000 0.000000
# 5 0.000000 0.000000 0.000000 0.000000 -0.084947 0.000000
# 6 0.000000 0.000000 0.000000 0.000000 0.000000 0.024179
#
#
# Mechanical properties :
#
#
# Convention : Reuss Voigt Hill
#
# Bulk Modulus (GPa) = 29.14909 41.09222 35.12066
# Shear Modulus (GPa) = 27.08320 16.57286 21.82803
#
# Velocity S-wave (km/s) = 3.67146 2.87202 3.29607
# Velocity P-wave (km/s) = 5.69919 5.60804 5.65380
#
# Compressibility (1/GPa) = 0.03430638
#
# Stress axis : x y z
#
# Youngs Moduli (GPa) = 57.57709 27.33695 76.61556
#
# Poissons Ratio (x) = 0.06412 0.36339
# Poissons Ratio (y) = 0.13506 0.70934
# Poissons Ratio (z) = 0.27309 0.25310
#
# Static dielectric constant tensor:
#      x y z
#    x 1.683280 0.000000 0.000000 
#    y 0.000000 1.710970 0.000000 
#    z 0.000000 0.000000 1.820120 
# 
# From -- ./inp_files/6528.got.cif
#   From: 2010.05.17/outbox.cif.g08.bks.cpg/sg73_4_cif.got.tgz:6528.got - 2010.06.03 17:35:07.
