data_PCOD9530755
_publ_section_title
;
Structure prediction by ZEFSAII (Michael W. Deem and Ramdas Pophale) SiO2 
 PCOD9530755
Probable space group: I B C A 
;
_chemical_formula_sum "Si O2"
_cell_formula_units_Z 120
_cell_length_a 8.677285
_cell_length_b 26.259001
_cell_length_c 25.669416
_cell_angle_alpha 90.000000
_cell_angle_beta 90.000000
_cell_angle_gamma 90.000000
_cell_volume 5848.951899
_symmetry_space_group_name_H-M "I B C A "
_symmetry_group_IT_number 73
_symmetry_cell_setting 'orthorhombic'
loop_
_space_group_symop_operation_xyz
x,y,z
-x,1/2-y,z
x,-y,1/2-z
1/2-x,y,-z
-x,-y,-z
x,1/2+y,-z
-x,y,1/2+z
1/2+x,-y,z
1/2+x,1/2+y,1/2+z
1/2-x,-y,1/2+z
1/2+x,1/2-y,-z
-x,1/2+y,1/2-z
1/2-x,1/2-y,1/2-z
1/2+x,y,1/2-z
1/2-x,1/2+y,z
x,1/2-y,1/2+z
loop_
_atom_site_type_symbol
_atom_site_label
_atom_site_fract_x
_atom_site_fract_y
_atom_site_fract_z
Si Si1 0.904166 0.037554 0.573156
Si Si2 0.399956 0.428833 0.027506
Si Si3 0.180009 0.130564 0.942374
Si Si4 0.155626 0.338513 0.717982
Si Si5 0.971093 0.053607 0.685908
Si Si6 0.279690 0.000000 0.250000
Si Si7 0.837042 0.279631 0.863751
Si Si8 0.825407 0.789273 0.293210
O O1 0.771139 0.080539 0.579469
O O2 0.003599 0.041948 0.625662
O O3 0.993691 0.053017 0.520790
O O4 0.857204 0.979041 0.561353
O O5 0.502721 0.387655 0.057085
O O6 0.250000 0.406762 0.000000
O O7 0.191459 0.184513 0.913116
O O8 0.250000 0.137368 0.000000
O O9 0.092318 0.390565 0.695889
O O10 0.300081 0.320690 0.682177
O O11 0.221611 0.337909 0.776668
O O12 0.003416 0.302823 0.713102
O O13 0.830273 0.018074 0.703884
O O14 0.110175 0.042322 0.725076
O O15 0.715593 0.235026 0.848680
O O16 0.000000 0.250000 0.862413
O O17 0.750000 0.750000 0.250000
#
# Coordination Sequence:
#
# PCOD9530755 Si02
#       8
#    16  16  16  16  16   8  16  16
#     4  10  20  38  68  92 130 167 208 260 332 381
#     4  10  21  38  65 104 124 157 216 270 316 396
#     4  10  22  43  65  91 129 166 201 262 329 395
#     4  11  21  40  66  89 122 166 216 275 315 373
#     4  11  23  42  62  92 132 181 214 262 332 379
#     4  10  26  40  56  92 140 172 224 256 308 412
#     4  11  22  40  60  92 123 166 210 260 324 380
#     4  10  20  37  64  90 119 157 214 274 315 360
#
# _framework density 20.516497000000001
#
# number of rings (size 3 to 8) (size 9 to 14) (size 15 to 20)
#    0.000    1.600    1.333    6.000    3.733    0.000 
#    2.400    3.333    0.000    0.000    0.000    0.000 
#    0.000    0.000    0.000    0.000    0.000    0.000 
#
# Total GULP energy -334095.128408 kJ/mol
# GULP energy per Si atom -5568.252140 kJ/mol
# Density = 2.046980 g / cm^3
# Si number density = 20.516497 Si / 1000 Ang^3
#
#
#
# Elastic Constant Matrix: (Units=GPa)
#
#
# Indices 1 2 3 4 5 6 
#
# 1 101.4080 32.1580 7.1633 0.0000 0.0000 0.0000
# 2 32.1580 83.8741 41.0501 0.0000 0.0000 0.0000
# 3 7.1633 41.0501 64.9135 0.0000 0.0000 0.0000
# 4 0.0000 0.0000 0.0000 26.2423 0.0000 0.0000
# 5 0.0000 0.0000 0.0000 0.0000 16.8546 0.0000
# 6 0.0000 0.0000 0.0000 0.0000 0.0000 23.5877
#
#
#
# Elastic Compliance Matrix: (Units=1/GPa)
#
#
# Indices 1 2 3 4 5 6 
#
# 1 0.011437 -0.005456 0.002188 0.000000 0.000000 0.000000
# 2 -0.005456 0.019869 -0.011963 0.000000 0.000000 0.000000
# 3 0.002188 -0.011963 0.022729 0.000000 0.000000 0.000000
# 4 0.000000 0.000000 0.000000 0.038106 0.000000 0.000000
# 5 0.000000 0.000000 0.000000 0.000000 0.059331 0.000000
# 6 0.000000 0.000000 0.000000 0.000000 0.000000 0.042395
#
#
# Mechanical properties :
#
#
# Convention : Reuss Voigt Hill
#
# Bulk Modulus (GPa) = 42.42048 45.65982 44.04015
# Shear Modulus (GPa) = 21.53442 24.65855 23.09649
#
# Velocity S-wave (km/s) = 3.24329 3.47059 3.35886
# Velocity P-wave (km/s) = 5.89461 6.19382 6.04607
#
# Compressibility (1/GPa) = 0.02357352
#
# Stress axis : x y z
#
# Youngs Moduli (GPa) = 87.43772 50.32859 43.99702
#
# Poissons Ratio (x) = 0.27458 -0.09627
# Poissons Ratio (y) = 0.47705 0.52634
# Poissons Ratio (z) = -0.19132 0.60208
#
# Static dielectric constant tensor:
#      x y z
#    x 1.755590 0.000000 0.000000 
#    y 0.000000 1.878080 0.000000 
#    z 0.000000 0.000000 1.798420 
# 
# From -- ./inp_files/31408.got.cif
#   From: 2010.05.17/outbox.cif.g08.bks.cpg/sg73_16_cif.got.tgz:31408.got - 2010.06.03 17:35:07.
