data_PCOD9530812
_publ_section_title
;
Structure prediction by ZEFSAII (Michael W. Deem and Ramdas Pophale) SiO2 
 PCOD9530812
Probable space group: I B C A 
;
_chemical_formula_sum "Si O2"
_cell_formula_units_Z 88
_cell_length_a 15.213836
_cell_length_b 11.993541
_cell_length_c 22.552742
_cell_angle_alpha 90.000000
_cell_angle_beta 90.000000
_cell_angle_gamma 90.000000
_cell_volume 4115.148446
_symmetry_space_group_name_H-M "I B C A "
_symmetry_group_IT_number 73
_symmetry_cell_setting 'orthorhombic'
loop_
_space_group_symop_operation_xyz
x,y,z
-x,1/2-y,z
x,-y,1/2-z
1/2-x,y,-z
-x,-y,-z
x,1/2+y,-z
-x,y,1/2+z
1/2+x,-y,z
1/2+x,1/2+y,1/2+z
1/2-x,-y,1/2+z
1/2+x,1/2-y,-z
-x,1/2+y,1/2-z
1/2-x,1/2-y,1/2-z
1/2+x,y,1/2-z
1/2-x,1/2+y,z
x,1/2-y,1/2+z
loop_
_atom_site_type_symbol
_atom_site_label
_atom_site_fract_x
_atom_site_fract_y
_atom_site_fract_z
Si Si1 0.593345 0.471101 0.080188
Si Si2 0.313262 0.000000 0.750000
Si Si3 0.322451 0.887902 0.169214
Si Si4 0.559541 0.850059 0.479130
Si Si5 0.194593 0.762692 0.603178
Si Si6 0.602920 0.232519 0.230311
O O1 0.599678 0.543205 0.139426
O O2 0.506344 0.397063 0.071703
O O3 0.678819 0.390178 0.082261
O O4 0.586452 0.555347 0.025255
O O5 0.251791 0.973564 0.806947
O O6 0.370766 0.889100 0.745503
O O7 0.284743 0.798536 0.121357
O O8 0.351112 0.820908 0.226783
O O9 0.500000 0.750000 0.506746
O O10 0.646299 0.805313 0.448174
O O11 0.140322 0.750405 0.664494
O O12 0.500000 0.250000 0.230586
#
# Coordination Sequence:
#
# PCOD9530812 Si02
#       6
#    16   8  16  16  16  16
#     4  10  20  38  61  84 115 155 193 247 297 339
#     4  10  22  40  58  86 124 158 192 242 302 356
#     4  11  22  37  61  90 121 156 197 243 293 357
#     4   9  20  39  62  86 114 153 200 242 294 355
#     4  10  21  40  60  85 119 156 195 238 300 359
#     4  11  23  38  61  92 122 157 200 241 294 362
#
# _framework density 21.384405000000001
#
# number of rings (size 3 to 8) (size 9 to 14) (size 15 to 20)
#    0.000    1.818    0.000    6.000    0.000    6.545 
#    0.000   16.364    0.000    0.000    0.000    0.000 
#    0.000    0.000    0.000    0.000    0.000    0.000 
#
# Total GULP energy -245659.637889 kJ/mol
# GULP energy per Si atom -5583.173588 kJ/mol
# Density = 2.133573 g / cm^3
# Si number density = 21.384405 Si / 1000 Ang^3
#
#
#
# Elastic Constant Matrix: (Units=GPa)
#
#
# Indices 1 2 3 4 5 6 
#
# 1 39.5068 18.2269 -2.6753 0.0000 0.0000 0.0000
# 2 18.2269 114.6766 33.6954 0.0000 0.0000 0.0000
# 3 -2.6753 33.6954 39.1559 0.0000 0.0000 0.0000
# 4 0.0000 0.0000 0.0000 39.5196 0.0000 0.0000
# 5 0.0000 0.0000 0.0000 0.0000 13.4291 0.0000
# 6 0.0000 0.0000 0.0000 0.0000 0.0000 0.9683
#
#
#
# Elastic Compliance Matrix: (Units=1/GPa)
#
#
# Indices 1 2 3 4 5 6 
#
# 1 0.029065 -0.006964 0.007979 0.000000 0.000000 0.000000
# 2 -0.006964 0.013340 -0.011955 0.000000 0.000000 0.000000
# 3 0.007979 -0.011955 0.036372 0.000000 0.000000 0.000000
# 4 0.000000 0.000000 0.000000 0.025304 0.000000 0.000000
# 5 0.000000 0.000000 0.000000 0.000000 0.074465 0.000000
# 6 0.000000 0.000000 0.000000 0.000000 0.000000 1.032720
#
#
# Mechanical properties :
#
#
# Convention : Reuss Voigt Hill
#
# Bulk Modulus (GPa) = 17.57589 32.42591 25.00090
# Shear Modulus (GPa) = 3.99325 20.38957 12.19141
#
# Velocity S-wave (km/s) = 1.36800 3.09119 2.39028
# Velocity P-wave (km/s) = 3.27599 5.28554 4.39710
#
# Compressibility (1/GPa) = 0.05689613
#
# Stress axis : x y z
#
# Youngs Moduli (GPa) = 34.40516 74.96294 27.49346
#
# Poissons Ratio (x) = 0.52205 -0.21936
# Poissons Ratio (y) = 0.23960 0.32870
# Poissons Ratio (z) = -0.27451 0.89621
#
# Static dielectric constant tensor:
#      x y z
#    x 1.779410 0.000000 0.000000 
#    y 0.000000 1.837680 0.000000 
#    z 0.000000 0.000000 1.733820 
# 
# From -- ./inp_files/10947.got.cif
#   From: 2010.05.17/outbox.cif.g08.bks.cpg/sg73_6_cif.got.tgz:10947.got - 2010.06.03 17:35:07.
