data_PCOD9530669
_publ_section_title
;
Structure prediction by ZEFSAII (Michael W. Deem and Ramdas Pophale) SiO2 
 PCOD9530669
Probable space group: I B C A 
;
_chemical_formula_sum "Si O2"
_cell_formula_units_Z 96
_cell_length_a 17.055002
_cell_length_b 8.000484
_cell_length_c 26.375464
_cell_angle_alpha 90.000000
_cell_angle_beta 90.000000
_cell_angle_gamma 90.000000
_cell_volume 3598.886450
_symmetry_space_group_name_H-M "I B C A "
_symmetry_group_IT_number 73
_symmetry_cell_setting 'orthorhombic'
loop_
_space_group_symop_operation_xyz
x,y,z
-x,1/2-y,z
x,-y,1/2-z
1/2-x,y,-z
-x,-y,-z
x,1/2+y,-z
-x,y,1/2+z
1/2+x,-y,z
1/2+x,1/2+y,1/2+z
1/2-x,-y,1/2+z
1/2+x,1/2-y,-z
-x,1/2+y,1/2-z
1/2-x,1/2-y,1/2-z
1/2+x,y,1/2-z
1/2-x,1/2+y,z
x,1/2-y,1/2+z
loop_
_atom_site_type_symbol
_atom_site_label
_atom_site_fract_x
_atom_site_fract_y
_atom_site_fract_z
Si Si1 0.668992 0.443069 0.200329
Si Si2 0.415314 0.235887 0.825823
Si Si3 0.927937 0.368026 0.308107
Si Si4 0.795927 0.368532 0.603967
Si Si5 0.343503 0.316651 0.487894
Si Si6 0.885235 0.374416 0.421749
O O1 0.717757 0.500000 0.250000
O O2 0.599921 0.586744 0.202135
O O3 0.645928 0.250839 0.203623
O O4 0.694319 0.477081 0.142508
O O5 0.500000 0.250000 0.851724
O O6 0.341021 0.229130 0.862626
O O7 0.419165 0.063893 0.795383
O O8 0.933834 0.376097 0.370215
O O9 0.000000 0.250000 0.290817
O O10 0.835672 0.346929 0.549089
O O11 0.705148 0.355392 0.594781
O O12 0.250000 0.355158 0.500000
O O13 0.385212 0.457485 0.454790
O O14 0.393165 0.274072 0.537682
#
# Coordination Sequence:
#
# PCOD9530669 Si02
#       6
#    16  16  16  16  16  16
#     4  10  24  42  69  98 132 171 223 269 334 391
#     4  10  21  44  63  93 132 170 218 276 324 386
#     4  12  24  43  68  97 130 178 221 273 337 396
#     4   9  21  40  64  93 137 170 208 282 326 382
#     4  10  20  36  62  99 127 171 224 264 326 397
#     4  11  23  39  68 100 130 174 223 273 335 400
#
# _framework density 26.674917000000001
#
# number of rings (size 3 to 8) (size 9 to 14) (size 15 to 20)
#    1.000    0.667    3.333    1.500    7.000    1.333 
#    0.000    2.500    0.000    0.000    0.000    0.000 
#    0.000    0.000    0.000    0.000    0.000    0.000 
#
# Total GULP energy -267799.861965 kJ/mol
# GULP energy per Si atom -5579.163791 kJ/mol
# Density = 2.661420 g / cm^3
# Si number density = 26.674917 Si / 1000 Ang^3
#
#
#
# Elastic Constant Matrix: (Units=GPa)
#
#
# Indices 1 2 3 4 5 6 
#
# 1 43.3926 28.7518 -2.8440 0.0000 0.0000 0.0000
# 2 28.7518 166.5879 14.5342 0.0000 0.0000 0.0000
# 3 -2.8440 14.5342 52.6810 0.0000 0.0000 0.0000
# 4 0.0000 0.0000 0.0000 54.6098 0.0000 0.0000
# 5 0.0000 0.0000 0.0000 0.0000 125.4724 0.0000
# 6 0.0000 0.0000 0.0000 0.0000 0.0000 30.5065
#
#
#
# Elastic Compliance Matrix: (Units=1/GPa)
#
#
# Indices 1 2 3 4 5 6 
#
# 1 0.026404 -0.004797 0.002749 0.000000 0.000000 0.000000
# 2 -0.004797 0.007022 -0.002196 0.000000 0.000000 0.000000
# 3 0.002749 -0.002196 0.019737 0.000000 0.000000 0.000000
# 4 0.000000 0.000000 0.000000 0.018312 0.000000 0.000000
# 5 0.000000 0.000000 0.000000 0.000000 0.007970 0.000000
# 6 0.000000 0.000000 0.000000 0.000000 0.000000 0.032780
#
#
# Mechanical properties :
#
#
# Convention : Reuss Voigt Hill
#
# Bulk Modulus (GPa) = 22.38441 38.17174 30.27807
# Shear Modulus (GPa) = 36.87189 56.93237 46.90213
#
# Velocity S-wave (km/s) = 3.72192 4.62486 4.19774
# Velocity P-wave (km/s) = 5.18460 6.54677 5.90509
#
# Compressibility (1/GPa) = 0.04467395
#
# Stress axis : x y z
#
# Youngs Moduli (GPa) = 37.87306 142.40186 50.66746
#
# Poissons Ratio (x) = 0.68310 -0.13928
# Poissons Ratio (y) = 0.18168 0.11128
# Poissons Ratio (z) = -0.10411 0.31277
#
# Static dielectric constant tensor:
#      x y z
#    x 2.044660 0.000000 0.000000 
#    y 0.000000 2.166300 0.000000 
#    z 0.000000 0.000000 2.230860 
# 
# From -- ./inp_files/32834.got.cif
#   From: 2010.05.17/outbox.cif.g08.bks.cpg/sg73_17_cif.got.tgz:32834.got - 2010.06.03 17:35:07.
