data_PCOD9530946
_publ_section_title
;
Structure prediction by ZEFSAII (Michael W. Deem and Ramdas Pophale) SiO2 
 PCOD9530946
Probable space group: I B C A 
;
_chemical_formula_sum "Si O2"
_cell_formula_units_Z 120
_cell_length_a 7.699581
_cell_length_b 26.489468
_cell_length_c 25.083511
_cell_angle_alpha 90.000000
_cell_angle_beta 90.000000
_cell_angle_gamma 90.000000
_cell_volume 5115.977833
_symmetry_space_group_name_H-M "I B C A "
_symmetry_group_IT_number 73
_symmetry_cell_setting 'orthorhombic'
loop_
_space_group_symop_operation_xyz
x,y,z
-x,1/2-y,z
x,-y,1/2-z
1/2-x,y,-z
-x,-y,-z
x,1/2+y,-z
-x,y,1/2+z
1/2+x,-y,z
1/2+x,1/2+y,1/2+z
1/2-x,-y,1/2+z
1/2+x,1/2-y,-z
-x,1/2+y,1/2-z
1/2-x,1/2-y,1/2-z
1/2+x,y,1/2-z
1/2-x,1/2+y,z
x,1/2-y,1/2+z
loop_
_atom_site_type_symbol
_atom_site_label
_atom_site_fract_x
_atom_site_fract_y
_atom_site_fract_z
Si Si1 0.106479 0.361005 0.177620
Si Si2 0.941585 0.306327 0.976829
Si Si3 0.726961 0.113888 0.713414
Si Si4 0.841245 0.544387 0.623580
Si Si5 0.000000 0.250000 0.153639
Si Si6 0.630977 0.207755 0.643210
Si Si7 0.958129 0.083015 0.485576
Si Si8 0.440435 0.437155 0.905420
O O1 0.925818 0.384936 0.196290
O O2 0.133451 0.384925 0.119179
O O3 0.231424 0.380792 0.223316
O O4 0.080230 0.300593 0.180403
O O5 0.946066 0.309808 0.912806
O O6 0.000000 0.250000 0.992057
O O7 0.750000 0.309547 0.000000
O O8 0.022545 0.359256 0.994187
O O9 0.633219 0.068623 0.681853
O O10 0.648672 0.164420 0.686563
O O11 0.965249 0.564737 0.575628
O O12 0.646984 0.560633 0.606522
O O13 0.854972 0.484391 0.623832
O O14 0.175518 0.227590 0.127764
O O15 0.500000 0.250000 0.664264
O O16 0.750000 0.080757 0.500000
O O17 0.065723 0.054278 0.531028
#
# Coordination Sequence:
#
# PCOD9530946 Si02
#       8
#    16  16  16  16   8  16  16  16
#     4  10  24  39  60  92 119 167 206 258 314 379
#     4  10  21  35  58  89 123 165 204 251 320 378
#     4  10  22  40  61  85 125 156 208 256 316 370
#     4  10  20  40  61  86 117 158 199 258 314 372
#     4  10  24  40  64  90 130 168 216 260 322 372
#     4  10  22  39  62  93 126 169 214 260 311 381
#     4   9  18  36  63  83 119 160 196 248 315 378
#     4  10  22  39  61  91 118 157 210 251 321 378
#
# _framework density 23.455926000000002
#
# number of rings (size 3 to 8) (size 9 to 14) (size 15 to 20)
#    0.000    2.133    1.333    0.400    9.333    2.667 
#    0.000    4.000    0.000    0.000    0.000    0.000 
#    0.000    0.000    0.000    0.000    0.000    0.000 
#
# Total GULP energy -334537.932764 kJ/mol
# GULP energy per Si atom -5575.632213 kJ/mol
# Density = 2.340254 g / cm^3
# Si number density = 23.455926 Si / 1000 Ang^3
#
#
#
# Elastic Constant Matrix: (Units=GPa)
#
#
# Indices 1 2 3 4 5 6 
#
# 1 32.1648 6.2032 5.5333 0.0000 0.0000 0.0000
# 2 6.2032 61.8968 8.0153 0.0000 0.0000 0.0000
# 3 5.5333 8.0153 49.1634 0.0000 0.0000 0.0000
# 4 0.0000 0.0000 0.0000 -36.9446 0.0000 0.0000
# 5 0.0000 0.0000 0.0000 0.0000 -12.9017 0.0000
# 6 0.0000 0.0000 0.0000 0.0000 0.0000 71.2794
#
#
#
# Elastic Compliance Matrix: (Units=1/GPa)
#
#
# Indices 1 2 3 4 5 6 
#
# 1 0.032177 -0.002815 -0.003163 0.000000 0.000000 0.000000
# 2 -0.002815 0.016751 -0.002414 0.000000 0.000000 0.000000
# 3 -0.003163 -0.002414 0.021090 0.000000 0.000000 0.000000
# 4 0.000000 0.000000 0.000000 -0.027068 0.000000 0.000000
# 5 0.000000 0.000000 0.000000 0.000000 -0.077509 0.000000
# 6 0.000000 0.000000 0.000000 0.000000 0.000000 0.014029
#
#
# Mechanical properties :
#
#
# Convention : Reuss Voigt Hill
#
# Bulk Modulus (GPa) = 18.78508 20.30320 19.54414
# Shear Modulus (GPa) = 357.18804 12.51816 184.85310
#
# Velocity S-wave (km/s) = 12.35359 2.31268 8.88706
# Velocity P-wave (km/s) = 14.54330 3.97567 10.66099
#
# Compressibility (1/GPa) = 0.05323374
#
# Stress axis : x y z
#
# Youngs Moduli (GPa) = 31.07827 59.69912 47.41614
#
# Poissons Ratio (x) = 0.16806 0.14995
# Poissons Ratio (y) = 0.08749 0.11447
# Poissons Ratio (z) = 0.09829 0.14412
#
# Static dielectric constant tensor:
#      x y z
#    x 1.898300 0.000000 0.000000 
#    y 0.000000 1.720310 0.000000 
#    z 0.000000 0.000000 2.109250 
# 
# From -- ./inp_files/28526.got.cif
#   From: 2010.05.17/outbox.cif.g08.bks.cpg/sg73_15_cif.got.tgz:28526.got - 2010.06.03 17:35:07.
