data_PCOD9530718
_publ_section_title
;
Structure prediction by ZEFSAII (Michael W. Deem and Ramdas Pophale) SiO2 
 PCOD9530718
Probable space group: I B C A 
;
_chemical_formula_sum "Si O2"
_cell_formula_units_Z 56
_cell_length_a 19.125904
_cell_length_b 26.142738
_cell_length_c 5.313021
_cell_angle_alpha 90.000000
_cell_angle_beta 90.000000
_cell_angle_gamma 90.000000
_cell_volume 2656.529081
_symmetry_space_group_name_H-M "I B C A "
_symmetry_group_IT_number 73
_symmetry_cell_setting 'orthorhombic'
loop_
_space_group_symop_operation_xyz
x,y,z
-x,1/2-y,z
x,-y,1/2-z
1/2-x,y,-z
-x,-y,-z
x,1/2+y,-z
-x,y,1/2+z
1/2+x,-y,z
1/2+x,1/2+y,1/2+z
1/2-x,-y,1/2+z
1/2+x,1/2-y,-z
-x,1/2+y,1/2-z
1/2-x,1/2-y,1/2-z
1/2+x,y,1/2-z
1/2-x,1/2+y,z
x,1/2-y,1/2+z
loop_
_atom_site_type_symbol
_atom_site_label
_atom_site_fract_x
_atom_site_fract_y
_atom_site_fract_z
Si Si1 0.537459 0.438506 0.797438
Si Si2 0.250000 0.466973 0.000000
Si Si3 0.670289 0.272226 0.748590
Si Si4 0.819308 0.607472 0.324375
O O1 0.542336 0.500000 0.750000
O O2 0.518620 0.422173 0.511779
O O3 0.608636 0.416333 0.919212
O O4 0.263878 0.500000 0.750000
O O5 0.190195 0.572346 0.577623
O O6 0.750000 0.250000 0.750000
O O7 0.636299 0.251124 0.496619
O O8 0.673832 0.333093 0.760832
O O9 0.750000 0.602269 0.500000
#
# Coordination Sequence:
#
# PCOD9530718 Si02
#       4
#    16   8  16  16
#     4  10  25  46  64  89 136 186 220 263 335 411
#     4  12  26  38  56 100 140 158 208 294 338 368
#     4  10  20  37  59  96 131 165 206 278 346 396
#     4  12  25  40  73 101 130 176 234 283 335 394
#
# _framework density 21.080138999999999
#
# number of rings (size 3 to 8) (size 9 to 14) (size 15 to 20)
#    0.000    1.143    4.286    2.571    4.000    1.143 
#    0.000    0.000    0.000    5.143    0.000    0.000 
#    0.000    0.000    0.000    0.000    0.000    0.000 
#
# Total GULP energy -155920.897003 kJ/mol
# GULP energy per Si atom -5568.603464 kJ/mol
# Density = 2.103216 g / cm^3
# Si number density = 21.080139 Si / 1000 Ang^3
#
#
#
# Elastic Constant Matrix: (Units=GPa)
#
#
# Indices 1 2 3 4 5 6 
#
# 1 75.0009 6.7047 27.8554 0.0000 0.0000 0.0000
# 2 6.7047 105.8528 69.5811 0.0000 0.0000 0.0000
# 3 27.8554 69.5811 185.4922 0.0000 0.0000 0.0000
# 4 0.0000 0.0000 0.0000 100.7194 0.0000 0.0000
# 5 0.0000 0.0000 0.0000 0.0000 26.7202 0.0000
# 6 0.0000 0.0000 0.0000 0.0000 0.0000 14.0366
#
#
#
# Elastic Compliance Matrix: (Units=1/GPa)
#
#
# Indices 1 2 3 4 5 6 
#
# 1 0.014156 0.000665 -0.002375 0.000000 0.000000 0.000000
# 2 0.000665 0.012570 -0.004815 0.000000 0.000000 0.000000
# 3 -0.002375 -0.004815 0.007554 0.000000 0.000000 0.000000
# 4 0.000000 0.000000 0.000000 0.009929 0.000000 0.000000
# 5 0.000000 0.000000 0.000000 0.000000 0.037425 0.000000
# 6 0.000000 0.000000 0.000000 0.000000 0.000000 0.071242
#
#
# Mechanical properties :
#
#
# Convention : Reuss Voigt Hill
#
# Bulk Modulus (GPa) = 47.10574 63.84759 55.47666
# Shear Modulus (GPa) = 28.90120 45.77553 37.33837
#
# Velocity S-wave (km/s) = 3.70674 4.66499 4.21320
# Velocity P-wave (km/s) = 6.38079 7.70519 7.07405
#
# Compressibility (1/GPa) = 0.02122884
#
# Stress axis : x y z
#
# Youngs Moduli (GPa) = 70.64199 79.55390 132.38135
#
# Poissons Ratio (x) = -0.05287 0.31442
# Poissons Ratio (y) = -0.04695 0.63742
# Poissons Ratio (z) = 0.16778 0.38306
#
# Static dielectric constant tensor:
#      x y z
#    x 1.851850 0.000000 0.000000 
#    y 0.000000 1.740500 0.000000 
#    z 0.000000 0.000000 1.116150 
# 
# From -- ./inp_files/1027.got.cif
#   From: 2010.05.17/outbox.cif.g08.bks.cpg/sg73_1_cif.got.tgz:1027.got - 2010.06.03 17:35:07.
