data_PCOD9530413
_publ_section_title
;
Structure prediction by ZEFSAII (Michael W. Deem and Ramdas Pophale) SiO2 
 PCOD9530413
Probable space group: I B C A 
;
_chemical_formula_sum "Si O2"
_cell_formula_units_Z 120
_cell_length_a 8.451065
_cell_length_b 25.295129
_cell_length_c 29.721245
_cell_angle_alpha 90.000000
_cell_angle_beta 90.000000
_cell_angle_gamma 90.000000
_cell_volume 6353.533707
_symmetry_space_group_name_H-M "I B C A "
_symmetry_group_IT_number 73
_symmetry_cell_setting 'orthorhombic'
loop_
_space_group_symop_operation_xyz
x,y,z
-x,1/2-y,z
x,-y,1/2-z
1/2-x,y,-z
-x,-y,-z
x,1/2+y,-z
-x,y,1/2+z
1/2+x,-y,z
1/2+x,1/2+y,1/2+z
1/2-x,-y,1/2+z
1/2+x,1/2-y,-z
-x,1/2+y,1/2-z
1/2-x,1/2-y,1/2-z
1/2+x,y,1/2-z
1/2-x,1/2+y,z
x,1/2-y,1/2+z
loop_
_atom_site_type_symbol
_atom_site_label
_atom_site_fract_x
_atom_site_fract_y
_atom_site_fract_z
Si Si1 0.763717 0.081365 0.361049
Si Si2 0.732818 0.809558 0.190145
Si Si3 0.959529 0.008300 0.886910
Si Si4 0.665014 0.857733 0.953147
Si Si5 0.500000 0.750000 0.253762
Si Si6 0.811981 0.245186 0.398520
Si Si7 0.306534 0.454284 0.950485
Si Si8 0.211167 0.158172 0.453843
O O1 0.751857 0.129388 0.325518
O O2 0.615807 0.041164 0.360498
O O3 0.776508 0.106368 0.411454
O O4 0.921885 0.045071 0.358707
O O5 0.590920 0.792316 0.222504
O O6 0.720612 0.777436 0.143707
O O7 0.884220 0.784877 0.215456
O O8 0.047590 0.986248 0.931366
O O9 0.817388 0.040241 0.909524
O O10 0.702256 0.797515 0.938448
O O11 0.472731 0.860250 0.954592
O O12 0.750000 0.871311 0.000000
O O13 0.759703 0.302942 0.413073
O O14 0.000000 0.250000 0.388355
O O15 0.327387 0.391658 0.954254
O O16 0.250000 0.472459 0.000000
O O17 0.250000 0.188125 0.500000
#
# Coordination Sequence:
#
# PCOD9530413 Si02
#       8
#    16  16  16  16   8  16  16  16
#     4  10  22  38  59  82 116 154 199 238 285 327
#     4  10  21  41  64  94 118 146 176 226 287 360
#     4  10  21  36  52  76 106 152 198 244 282 326
#     4  10  20  33  50  74 111 157 197 238 282 324
#     4  10  22  40  70  98 122 136 172 218 290 366
#     4   9  18  35  55  77 112 152 184 224 283 346
#     4  10  20  31  47  71 105 149 202 249 283 311
#     4  10  20  32  48  75 110 153 199 237 278 327
#
# _framework density 18.887128000000001
#
# number of rings (size 3 to 8) (size 9 to 14) (size 15 to 20)
#    0.000    2.133    2.000    0.800    3.733    3.200 
#    2.400    4.000    0.000    2.400    0.000    0.000 
#    0.000    0.000    0.000    0.000    0.000    0.000 
#
# Total GULP energy -334431.215746 kJ/mol
# GULP energy per Si atom -5573.853596 kJ/mol
# Density = 1.884414 g / cm^3
# Si number density = 18.887128 Si / 1000 Ang^3
#
#
#
# Elastic Constant Matrix: (Units=GPa)
#
#
# Indices 1 2 3 4 5 6 
#
# 1 32.1411 28.4671 19.7107 0.0000 0.0000 0.0000
# 2 28.4671 101.0808 43.7537 0.0000 0.0000 0.0000
# 3 19.7107 43.7537 70.1934 0.0000 0.0000 0.0000
# 4 0.0000 0.0000 0.0000 -38.5959 0.0000 0.0000
# 5 0.0000 0.0000 0.0000 0.0000 8.3022 0.0000
# 6 0.0000 0.0000 0.0000 0.0000 0.0000 18.1740
#
#
#
# Elastic Compliance Matrix: (Units=1/GPa)
#
#
# Indices 1 2 3 4 5 6 
#
# 1 0.043367 -0.009507 -0.006252 0.000000 0.000000 0.000000
# 2 -0.009507 0.015633 -0.007075 0.000000 0.000000 0.000000
# 3 -0.006252 -0.007075 0.020412 0.000000 0.000000 0.000000
# 4 0.000000 0.000000 0.000000 -0.025909 0.000000 0.000000
# 5 0.000000 0.000000 0.000000 0.000000 0.120449 0.000000
# 6 0.000000 0.000000 0.000000 0.000000 0.000000 0.055024
#
#
# Mechanical properties :
#
#
# Convention : Reuss Voigt Hill
#
# Bulk Modulus (GPa) = 29.63437 43.03090 36.33263
# Shear Modulus (GPa) = 17.48919 5.00832 11.24876
#
# Velocity S-wave (km/s) = 3.04630 1.63017 2.44309
# Velocity P-wave (km/s) = 5.30071 5.13575 5.21888
#
# Compressibility (1/GPa) = 0.03374460
#
# Stress axis : x y z
#
# Youngs Moduli (GPa) = 23.05891 63.96730 48.99135
#
# Poissons Ratio (x) = 0.60816 0.30627
# Poissons Ratio (y) = 0.21923 0.34660
# Poissons Ratio (z) = 0.14415 0.45256
#
# Static dielectric constant tensor:
#      x y z
#    x 1.699470 0.000000 0.000000 
#    y 0.000000 1.684240 0.000000 
#    z 0.000000 0.000000 1.628060 
# 
# From -- ./inp_files/7466.got.cif
#   From: 2010.05.17/outbox.cif.g08.bks.cpg/sg73_4_cif.got.tgz:7466.got - 2010.06.03 17:35:07.
