data_PCOD9530645
_publ_section_title
;
Structure prediction by ZEFSAII (Michael W. Deem and Ramdas Pophale) SiO2 
 PCOD9530645
Probable space group: I B C A 
;
_chemical_formula_sum "Si O2"
_cell_formula_units_Z 56
_cell_length_a 29.541344
_cell_length_b 10.177457
_cell_length_c 8.528620
_cell_angle_alpha 90.000000
_cell_angle_beta 90.000000
_cell_angle_gamma 90.000000
_cell_volume 2564.178713
_symmetry_space_group_name_H-M "I B C A "
_symmetry_group_IT_number 73
_symmetry_cell_setting 'orthorhombic'
loop_
_space_group_symop_operation_xyz
x,y,z
-x,1/2-y,z
x,-y,1/2-z
1/2-x,y,-z
-x,-y,-z
x,1/2+y,-z
-x,y,1/2+z
1/2+x,-y,z
1/2+x,1/2+y,1/2+z
1/2-x,-y,1/2+z
1/2+x,1/2-y,-z
-x,1/2+y,1/2-z
1/2-x,1/2-y,1/2-z
1/2+x,y,1/2-z
1/2-x,1/2+y,z
x,1/2-y,1/2+z
loop_
_atom_site_type_symbol
_atom_site_label
_atom_site_fract_x
_atom_site_fract_y
_atom_site_fract_z
Si Si1 0.000000 0.250000 0.508582
Si Si2 0.933784 0.352291 0.266162
Si Si3 0.664198 0.854320 0.322711
Si Si4 0.710017 0.126030 0.866457
O O1 0.027606 0.152794 0.397891
O O2 0.039585 0.307716 0.613867
O O3 0.919225 0.500000 0.250000
O O4 0.885263 0.287040 0.296233
O O5 0.668658 0.875095 0.509318
O O6 0.700167 0.754885 0.240537
O O7 0.671518 0.000000 0.250000
O O8 0.713327 0.000000 0.750000
O O9 0.750000 0.127899 0.000000
#
# Coordination Sequence:
#
# PCOD9530645 Si02
#       4
#     8  16  16  16
#     4  10  20  36  60  90 126 170 212 260 316 382
#     4  10  21  38  60  90 127 167 214 264 319 380
#     4  11  24  43  67  98 133 173 221 275 331 393
#     4  12  26  46  69  97 131 171 218 274 337 401
#
# _framework density 21.839351000000001
#
# number of rings (size 3 to 8) (size 9 to 14) (size 15 to 20)
#    0.000    1.143    0.000    6.000    0.000    4.571 
#    0.000    7.143    0.000    0.000    0.000    0.000 
#    0.000    0.000    0.000    0.000    0.000    0.000 
#
# Total GULP energy -155912.065630 kJ/mol
# GULP energy per Si atom -5568.288058 kJ/mol
# Density = 2.178964 g / cm^3
# Si number density = 21.839351 Si / 1000 Ang^3
#
#
#
# Elastic Constant Matrix: (Units=GPa)
#
#
# Indices 1 2 3 4 5 6 
#
# 1 146.4324 25.0830 39.4025 0.0000 0.0000 0.0000
# 2 25.0830 106.0935 52.5253 0.0000 0.0000 0.0000
# 3 39.4025 52.5253 155.1424 0.0000 0.0000 0.0000
# 4 0.0000 0.0000 0.0000 40.1907 0.0000 0.0000
# 5 0.0000 0.0000 0.0000 0.0000 153.4891 0.0000
# 6 0.0000 0.0000 0.0000 0.0000 0.0000 21.9346
#
#
#
# Elastic Compliance Matrix: (Units=1/GPa)
#
#
# Indices 1 2 3 4 5 6 
#
# 1 0.007415 -0.000986 -0.001549 0.000000 0.000000 0.000000
# 2 -0.000986 0.011455 -0.003628 0.000000 0.000000 0.000000
# 3 -0.001549 -0.003628 0.008067 0.000000 0.000000 0.000000
# 4 0.000000 0.000000 0.000000 0.024881 0.000000 0.000000
# 5 0.000000 0.000000 0.000000 0.000000 0.006515 0.000000
# 6 0.000000 0.000000 0.000000 0.000000 0.000000 0.045590
#
#
# Mechanical properties :
#
#
# Convention : Reuss Voigt Hill
#
# Bulk Modulus (GPa) = 68.44213 71.29889 69.87051
# Shear Modulus (GPa) = 41.28126 62.50003 51.89065
#
# Velocity S-wave (km/s) = 4.35239 5.35539 4.87973
# Velocity P-wave (km/s) = 7.52759 8.42366 7.98820
#
# Compressibility (1/GPa) = 0.01461088
#
# Stress axis : x y z
#
# Youngs Moduli (GPa) = 134.86364 87.29964 123.95543
#
# Poissons Ratio (x) = 0.08608 0.19206
# Poissons Ratio (y) = 0.13297 0.44968
# Poissons Ratio (z) = 0.20896 0.31670
#
# Static dielectric constant tensor:
#      x y z
#    x 1.973030 0.000000 0.000000 
#    y 0.000000 1.784930 0.000000 
#    z 0.000000 0.000000 1.832780 
# 
# From -- ./inp_files/3844.got.cif
#   From: 2010.05.17/outbox.cif.g08.bks.cpg/sg73_2_cif.got.tgz:3844.got - 2010.06.03 17:35:07.
