data_PCOD9530886
_publ_section_title
;
Structure prediction by ZEFSAII (Michael W. Deem and Ramdas Pophale) SiO2 
 PCOD9530886
Probable space group: I B C A 
;
_chemical_formula_sum "Si O2"
_cell_formula_units_Z 104
_cell_length_a 9.437259
_cell_length_b 25.133006
_cell_length_c 23.513096
_cell_angle_alpha 90.000000
_cell_angle_beta 90.000000
_cell_angle_gamma 90.000000
_cell_volume 5576.993343
_symmetry_space_group_name_H-M "I B C A "
_symmetry_group_IT_number 73
_symmetry_cell_setting 'orthorhombic'
loop_
_space_group_symop_operation_xyz
x,y,z
-x,1/2-y,z
x,-y,1/2-z
1/2-x,y,-z
-x,-y,-z
x,1/2+y,-z
-x,y,1/2+z
1/2+x,-y,z
1/2+x,1/2+y,1/2+z
1/2-x,-y,1/2+z
1/2+x,1/2-y,-z
-x,1/2+y,1/2-z
1/2-x,1/2-y,1/2-z
1/2+x,y,1/2-z
1/2-x,1/2+y,z
x,1/2-y,1/2+z
loop_
_atom_site_type_symbol
_atom_site_label
_atom_site_fract_x
_atom_site_fract_y
_atom_site_fract_z
Si Si1 0.250000 0.770447 0.000000
Si Si2 0.797084 0.395959 0.184738
Si Si3 0.173746 0.506370 0.117000
Si Si4 0.002101 0.353543 0.489630
Si Si5 0.084430 0.533300 0.546360
Si Si6 0.906926 0.941772 0.278377
Si Si7 0.222145 0.327146 0.581430
O O1 0.389448 0.805843 0.990194
O O2 0.220628 0.732411 0.945268
O O3 0.755459 0.442663 0.140788
O O4 0.689778 0.406720 0.236669
O O5 0.787039 0.341903 0.147748
O O6 0.952690 0.409412 0.207111
O O7 0.261339 0.486374 0.063100
O O8 0.170152 0.459756 0.163677
O O9 0.015213 0.524564 0.101946
O O10 0.090158 0.355281 0.548783
O O11 0.127723 0.347658 0.443311
O O12 0.919690 0.406629 0.474462
O O13 0.000000 0.500000 0.500000
O O14 0.940053 0.000000 0.250000
#
# Coordination Sequence:
#
# PCOD9530886 Si02
#       7
#     8  16  16  16  16  16  16
#     4  10  22  40  62  96 118 154 208 252 304 378
#     4  11  21  37  58  83 115 159 205 258 303 350
#     4  11  22  37  53  83 128 168 196 239 298 364
#     4  10  22  37  59  90 124 160 195 234 305 386
#     4  12  24  34  55  90 136 163 190 233 295 379
#     4  10  22  36  56  82 120 159 214 252 299 372
#     4  10  20  39  61  81 119 155 202 258 308 352
#
# _framework density 18.648040000000002
#
# number of rings (size 3 to 8) (size 9 to 14) (size 15 to 20)
#    0.000    1.538    3.077    4.615    6.462    0.000 
#    0.000    0.000    0.000    0.000    0.000   22.615 
#    0.000    0.000    0.000    0.000    0.000    0.000 
#
# Total GULP energy -290150.931794 kJ/mol
# GULP energy per Si atom -5579.825611 kJ/mol
# Density = 1.860560 g / cm^3
# Si number density = 18.648040 Si / 1000 Ang^3
#
#
#
# Elastic Constant Matrix: (Units=GPa)
#
#
# Indices 1 2 3 4 5 6 
#
# 1 106.5515 34.8474 39.9634 0.0000 0.0000 0.0000
# 2 34.8474 74.5594 39.6570 0.0000 0.0000 0.0000
# 3 39.9634 39.6570 98.2028 0.0000 0.0000 0.0000
# 4 0.0000 0.0000 0.0000 19.2250 0.0000 0.0000
# 5 0.0000 0.0000 0.0000 0.0000 32.6654 0.0000
# 6 0.0000 0.0000 0.0000 0.0000 0.0000 25.0510
#
#
#
# Elastic Compliance Matrix: (Units=1/GPa)
#
#
# Indices 1 2 3 4 5 6 
#
# 1 0.011861 -0.003790 -0.003296 0.000000 0.000000 0.000000
# 2 -0.003790 0.018292 -0.005844 0.000000 0.000000 0.000000
# 3 -0.003296 -0.005844 0.013885 0.000000 0.000000 0.000000
# 4 0.000000 0.000000 0.000000 0.052016 0.000000 0.000000
# 5 0.000000 0.000000 0.000000 0.000000 0.030613 0.000000
# 6 0.000000 0.000000 0.000000 0.000000 0.000000 0.039919
#
#
# Mechanical properties :
#
#
# Convention : Reuss Voigt Hill
#
# Bulk Modulus (GPa) = 55.01811 56.47215 55.74513
# Shear Modulus (GPa) = 25.18815 26.37800 25.78308
#
# Velocity S-wave (km/s) = 3.67919 3.76509 3.72239
# Velocity P-wave (km/s) = 6.90044 7.01784 6.95939
#
# Compressibility (1/GPa) = 0.01817583
#
# Stress axis : x y z
#
# Youngs Moduli (GPa) = 84.30970 54.66800 72.02267
#
# Poissons Ratio (x) = 0.20721 0.23740
# Poissons Ratio (y) = 0.31957 0.42093
# Poissons Ratio (z) = 0.27790 0.31950
#
# Static dielectric constant tensor:
#      x y z
#    x 1.632590 0.000000 0.000000 
#    y 0.000000 1.649370 0.000000 
#    z 0.000000 0.000000 1.740550 
# 
# From -- ./inp_files/8015.got.cif
#   From: 2010.05.17/outbox.cif.g08.bks.cpg/sg73_5_cif.got.tgz:8015.got - 2010.06.03 17:35:07.
