data_PCOD9530926
_publ_section_title
;
Structure prediction by ZEFSAII (Michael W. Deem and Ramdas Pophale) SiO2 
 PCOD9530926
Probable space group: I B C A 
;
_chemical_formula_sum "Si O2"
_cell_formula_units_Z 96
_cell_length_a 22.221122
_cell_length_b 24.669447
_cell_length_c 8.118701
_cell_angle_alpha 90.000000
_cell_angle_beta 90.000000
_cell_angle_gamma 90.000000
_cell_volume 4450.532177
_symmetry_space_group_name_H-M "I B C A "
_symmetry_group_IT_number 73
_symmetry_cell_setting 'orthorhombic'
loop_
_space_group_symop_operation_xyz
x,y,z
-x,1/2-y,z
x,-y,1/2-z
1/2-x,y,-z
-x,-y,-z
x,1/2+y,-z
-x,y,1/2+z
1/2+x,-y,z
1/2+x,1/2+y,1/2+z
1/2-x,-y,1/2+z
1/2+x,1/2-y,-z
-x,1/2+y,1/2-z
1/2-x,1/2-y,1/2-z
1/2+x,y,1/2-z
1/2-x,1/2+y,z
x,1/2-y,1/2+z
loop_
_atom_site_type_symbol
_atom_site_label
_atom_site_fract_x
_atom_site_fract_y
_atom_site_fract_z
Si Si1 0.958390 0.329678 0.301320
Si Si2 0.000000 0.750000 0.951796
Si Si3 0.566340 0.018686 0.559656
Si Si4 0.750000 0.878369 0.500000
Si Si5 0.903877 0.367722 0.812218
Si Si6 0.623261 0.417530 0.550440
Si Si7 0.219798 0.693642 0.180598
O O1 0.956768 0.291262 0.144692
O O2 0.914721 0.380054 0.324517
O O3 0.953693 0.287377 0.449544
O O4 0.028303 0.346078 0.307340
O O5 0.588841 0.080830 0.562821
O O6 0.569831 0.000000 0.750000
O O7 0.500000 0.000000 0.500000
O O8 0.606847 0.980030 0.449305
O O9 0.693710 0.912078 0.438729
O O10 0.765971 0.844048 0.337952
O O11 0.892982 0.392895 0.630279
O O12 0.851773 0.322737 0.844635
O O13 0.250000 0.750000 0.250000
O O14 0.250000 0.684037 0.000000
#
# Coordination Sequence:
#
# PCOD9530926 Si02
#       7
#    16   8  16   8  16  16  16
#     4  11  20  38  56  90 125 165 212 268 336 395
#     4  10  24  32  52  90 124 164 204 268 324 396
#     4  10  20  39  67  97 132 169 216 287 353 417
#     4  10  24  46  66  96 136 184 234 280 348 432
#     4  10  22  39  66  97 131 167 229 280 338 425
#     4  10  21  41  67  92 132 177 219 282 353 419
#     4  11  24  45  69  99 135 187 233 285 341 421
#
# _framework density 21.570454999999999
#
# number of rings (size 3 to 8) (size 9 to 14) (size 15 to 20)
#    0.000    1.667    4.167    0.000    0.000    5.333 
#    4.500    0.000    0.000    0.000    0.000    0.000 
#    0.000    0.000    0.000    0.000    0.000    0.000 
#
# Total GULP energy -267266.135731 kJ/mol
# GULP energy per Si atom -5568.044494 kJ/mol
# Density = 2.152136 g / cm^3
# Si number density = 21.570455 Si / 1000 Ang^3
#
#
#
# Elastic Constant Matrix: (Units=GPa)
#
#
# Indices 1 2 3 4 5 6 
#
# 1 154.0009 53.8540 5.5568 0.0000 0.0000 0.0000
# 2 53.8540 94.8995 5.2651 0.0000 0.0000 0.0000
# 3 5.5568 5.2651 79.0114 0.0000 0.0000 0.0000
# 4 0.0000 0.0000 0.0000 -257.8057 0.0000 0.0000
# 5 0.0000 0.0000 0.0000 0.0000 12.8777 0.0000
# 6 0.0000 0.0000 0.0000 0.0000 0.0000 15.3677
#
#
#
# Elastic Compliance Matrix: (Units=1/GPa)
#
#
# Indices 1 2 3 4 5 6 
#
# 1 0.008107 -0.004586 -0.000265 0.000000 0.000000 0.000000
# 2 -0.004586 0.013171 -0.000555 0.000000 0.000000 0.000000
# 3 -0.000265 -0.000555 0.012712 0.000000 0.000000 0.000000
# 4 0.000000 0.000000 0.000000 -0.003879 0.000000 0.000000
# 5 0.000000 0.000000 0.000000 0.000000 0.077653 0.000000
# 6 0.000000 0.000000 0.000000 0.000000 0.000000 0.065071
#
#
# Mechanical properties :
#
#
# Convention : Reuss Voigt Hill
#
# Bulk Modulus (GPa) = 43.14360 50.80706 46.97533
# Shear Modulus (GPa) = 26.12710 -28.36299 -1.11795
#
# Velocity S-wave (km/s) = 3.48407 -3.63009 -0.72070
# Velocity P-wave (km/s) = 6.01911 2.45664 4.59700
#
# Compressibility (1/GPa) = 0.02317841
#
# Stress axis : x y z
#
# Youngs Moduli (GPa) = 123.35577 75.92685 78.66580
#
# Poissons Ratio (x) = 0.34818 0.02081
# Poissons Ratio (y) = 0.56567 0.04367
# Poissons Ratio (z) = 0.03263 0.04215
#
# Static dielectric constant tensor:
#      x y z
#    x 1.801590 0.000000 0.000000 
#    y 0.000000 1.870470 0.000000 
#    z 0.000000 0.000000 1.838150 
# 
# From -- ./inp_files/6511.got.cif
#   From: 2010.05.17/outbox.cif.g08.bks.cpg/sg73_4_cif.got.tgz:6511.got - 2010.06.03 17:35:07.
