data_PCOD9530894
_publ_section_title
;
Structure prediction by ZEFSAII (Michael W. Deem and Ramdas Pophale) SiO2 
 PCOD9530894
Probable space group: I B C A 
;
_chemical_formula_sum "Si O2"
_cell_formula_units_Z 104
_cell_length_a 9.082295
_cell_length_b 19.058004
_cell_length_c 29.175221
_cell_angle_alpha 90.000000
_cell_angle_beta 90.000000
_cell_angle_gamma 90.000000
_cell_volume 5049.951094
_symmetry_space_group_name_H-M "I B C A "
_symmetry_group_IT_number 73
_symmetry_cell_setting 'orthorhombic'
loop_
_space_group_symop_operation_xyz
x,y,z
-x,1/2-y,z
x,-y,1/2-z
1/2-x,y,-z
-x,-y,-z
x,1/2+y,-z
-x,y,1/2+z
1/2+x,-y,z
1/2+x,1/2+y,1/2+z
1/2-x,-y,1/2+z
1/2+x,1/2-y,-z
-x,1/2+y,1/2-z
1/2-x,1/2-y,1/2-z
1/2+x,y,1/2-z
1/2-x,1/2+y,z
x,1/2-y,1/2+z
loop_
_atom_site_type_symbol
_atom_site_label
_atom_site_fract_x
_atom_site_fract_y
_atom_site_fract_z
Si Si1 0.956234 0.428745 0.946114
Si Si2 0.991321 0.874721 0.153761
Si Si3 0.478612 0.595704 0.242743
Si Si4 0.273150 0.752346 0.857588
Si Si5 0.000000 0.250000 0.707526
Si Si6 0.166326 0.277347 0.455830
Si Si7 0.227211 0.000000 0.750000
Si Si8 0.250000 0.536543 0.500000
O O1 0.863114 0.359901 0.959340
O O2 0.974244 0.423509 0.890941
O O3 0.119681 0.426911 0.969605
O O4 0.854382 0.491647 0.965190
O O5 0.012357 0.912828 0.202051
O O6 0.125176 0.820677 0.146017
O O7 0.856151 0.819481 0.156688
O O8 0.475391 0.678512 0.235214
O O9 0.336392 0.554213 0.224763
O O10 0.620450 0.554362 0.223802
O O11 0.240651 0.741363 0.911033
O O12 0.138174 0.762446 0.824649
O O13 0.250000 0.249848 0.500000
O O14 0.000000 0.250000 0.449251
#
# Coordination Sequence:
#
# PCOD9530894 Si02
#       8
#    16  16  16  16   8  16   8   8
#     4  10  21  40  59  88 119 163 207 255 303 381
#     4  10  20  39  62  86 126 163 207 265 329 378
#     4  11  23  41  66  92 128 170 217 271 335 388
#     4  10  21  38  57  97 129 154 214 265 318 379
#     4  12  24  40  68 100 122 174 226 274 312 396
#     4  11  22  39  64  92 127 165 195 260 327 375
#     4  10  24  42  60  92 128 168 208 270 334 396
#     4  10  22  40  62  84 124 172 218 248 306 388
#
# _framework density 20.594259000000001
#
# number of rings (size 3 to 8) (size 9 to 14) (size 15 to 20)
#    0.000    1.538    3.846    2.769    2.154    3.077 
#    0.000    1.538    0.000    0.000    0.000    0.000 
#    0.000    0.000    0.000    0.000    0.000    0.000 
#
# Total GULP energy -289925.515410 kJ/mol
# GULP energy per Si atom -5575.490681 kJ/mol
# Density = 2.054739 g / cm^3
# Si number density = 20.594259 Si / 1000 Ang^3
#
#
#
# Elastic Constant Matrix: (Units=GPa)
#
#
# Indices 1 2 3 4 5 6 
#
# 1 73.3785 8.1318 16.9064 0.0000 0.0000 0.0000
# 2 8.1318 86.2349 21.4037 0.0000 0.0000 0.0000
# 3 16.9064 21.4037 102.2877 0.0000 0.0000 0.0000
# 4 0.0000 0.0000 0.0000 23.2165 0.0000 0.0000
# 5 0.0000 0.0000 0.0000 0.0000 22.2893 0.0000
# 6 0.0000 0.0000 0.0000 0.0000 0.0000 16.1290
#
#
#
# Elastic Compliance Matrix: (Units=1/GPa)
#
#
# Indices 1 2 3 4 5 6 
#
# 1 0.014219 -0.000799 -0.002183 0.000000 0.000000 0.000000
# 2 -0.000799 0.012276 -0.002437 0.000000 0.000000 0.000000
# 3 -0.002183 -0.002437 0.010647 0.000000 0.000000 0.000000
# 4 0.000000 0.000000 0.000000 0.043073 0.000000 0.000000
# 5 0.000000 0.000000 0.000000 0.000000 0.044864 0.000000
# 6 0.000000 0.000000 0.000000 0.000000 0.000000 0.062000
#
#
# Mechanical properties :
#
#
# Convention : Reuss Voigt Hill
#
# Bulk Modulus (GPa) = 38.01522 39.42054 38.71788
# Shear Modulus (GPa) = 24.19122 26.69091 25.44107
#
# Velocity S-wave (km/s) = 3.43105 3.60396 3.51856
# Velocity P-wave (km/s) = 5.84768 6.04161 5.94544
#
# Compressibility (1/GPa) = 0.02630526
#
# Stress axis : x y z
#
# Youngs Moduli (GPa) = 70.32603 81.45711 93.92261
#
# Poissons Ratio (x) = 0.06509 0.20504
# Poissons Ratio (y) = 0.05619 0.22887
# Poissons Ratio (z) = 0.15352 0.19849
#
# Static dielectric constant tensor:
#      x y z
#    x 1.726860 0.000000 0.000000 
#    y 0.000000 1.724500 0.000000 
#    z 0.000000 0.000000 1.733900 
# 
# From -- ./inp_files/7931.got.cif
#   From: 2010.05.17/outbox.cif.g08.bks.cpg/sg73_4_cif.got.tgz:7931.got - 2010.06.03 17:35:07.
