data_PCOD9530806
_publ_section_title
;
Structure prediction by ZEFSAII (Michael W. Deem and Ramdas Pophale) SiO2 
 PCOD9530806
Probable space group: I B C A 
;
_chemical_formula_sum "Si O2"
_cell_formula_units_Z 104
_cell_length_a 9.316471
_cell_length_b 18.644169
_cell_length_c 31.170425
_cell_angle_alpha 90.000000
_cell_angle_beta 90.000000
_cell_angle_gamma 90.000000
_cell_volume 5414.236112
_symmetry_space_group_name_H-M "I B C A "
_symmetry_group_IT_number 73
_symmetry_cell_setting 'orthorhombic'
loop_
_space_group_symop_operation_xyz
x,y,z
-x,1/2-y,z
x,-y,1/2-z
1/2-x,y,-z
-x,-y,-z
x,1/2+y,-z
-x,y,1/2+z
1/2+x,-y,z
1/2+x,1/2+y,1/2+z
1/2-x,-y,1/2+z
1/2+x,1/2-y,-z
-x,1/2+y,1/2-z
1/2-x,1/2-y,1/2-z
1/2+x,y,1/2-z
1/2-x,1/2+y,z
x,1/2-y,1/2+z
loop_
_atom_site_type_symbol
_atom_site_label
_atom_site_fract_x
_atom_site_fract_y
_atom_site_fract_z
Si Si1 0.970955 0.500000 0.750000
Si Si2 0.664015 0.730509 0.707534
Si Si3 0.481380 0.537140 0.453694
Si Si4 0.330404 0.263855 0.388419
Si Si5 0.228833 0.433740 0.598123
Si Si6 0.222780 0.564708 0.803849
Si Si7 0.361201 0.197986 0.538575
O O1 0.081165 0.525725 0.786264
O O2 0.859930 0.446630 0.773175
O O3 0.500000 0.750000 0.715253
O O4 0.750000 0.750000 0.750000
O O5 0.705006 0.760463 0.660539
O O6 0.681769 0.646961 0.699291
O O7 0.500000 0.500000 0.500000
O O8 0.394643 0.481776 0.423515
O O9 0.632416 0.553862 0.431129
O O10 0.405303 0.614420 0.459475
O O11 0.500000 0.250000 0.395255
O O12 0.305637 0.348611 0.398208
O O13 0.226517 0.220015 0.419229
O O14 0.254716 0.457262 0.647407
O O15 0.500000 0.250000 0.534165
O O16 0.250000 0.209858 0.500000
#
# Coordination Sequence:
#
# PCOD9530806 Si02
#       7
#     8  16  16  16  16  16  16
#     4  10  20  38  60  92 124 166 218 262 320 388
#     4  10  21  40  62  96 130 172 217 271 326 387
#     4  12  27  45  67  99 132 172 225 277 338 402
#     4  10  24  44  68  97 136 179 222 276 336 399
#     4  11  24  44  66  96 135 173 223 277 332 400
#     4  10  21  39  63  91 128 171 215 267 330 383
#     4  12  26  45  69  99 130 174 220 272 338 401
#
# _framework density 19.20862
#
# number of rings (size 3 to 8) (size 9 to 14) (size 15 to 20)
#    0.000    1.231    1.538    3.692    6.462    0.615 
#   11.077    0.000    0.000    0.000    0.000    0.000 
#    0.000    0.000    0.000    0.000    0.000    0.000 
#
# Total GULP energy -290257.448415 kJ/mol
# GULP energy per Si atom -5581.874008 kJ/mol
# Density = 1.916490 g / cm^3
# Si number density = 19.208620 Si / 1000 Ang^3
#
#
#
# Elastic Constant Matrix: (Units=GPa)
#
#
# Indices 1 2 3 4 5 6 
#
# 1 133.0167 45.9617 89.7043 0.0000 0.0000 0.0000
# 2 45.9617 86.1052 63.5097 0.0000 0.0000 0.0000
# 3 89.7043 63.5097 168.0836 0.0000 0.0000 0.0000
# 4 0.0000 0.0000 0.0000 31.1996 0.0000 0.0000
# 5 0.0000 0.0000 0.0000 0.0000 43.3697 0.0000
# 6 0.0000 0.0000 0.0000 0.0000 0.0000 24.0889
#
#
#
# Elastic Compliance Matrix: (Units=1/GPa)
#
#
# Indices 1 2 3 4 5 6 
#
# 1 0.012078 -0.002347 -0.005559 0.000000 0.000000 0.000000
# 2 -0.002347 0.016557 -0.005004 0.000000 0.000000 0.000000
# 3 -0.005559 -0.005004 0.010807 0.000000 0.000000 0.000000
# 4 0.000000 0.000000 0.000000 0.032052 0.000000 0.000000
# 5 0.000000 0.000000 0.000000 0.000000 0.023058 0.000000
# 6 0.000000 0.000000 0.000000 0.000000 0.000000 0.041513
#
#
# Mechanical properties :
#
#
# Convention : Reuss Voigt Hill
#
# Bulk Modulus (GPa) = 73.40625 87.28408 80.34517
# Shear Modulus (GPa) = 30.04398 32.26697 31.15548
#
# Velocity S-wave (km/s) = 3.95915 4.10300 4.03172
# Velocity P-wave (km/s) = 7.69402 8.24530 7.97442
#
# Compressibility (1/GPa) = 0.01362282
#
# Stress axis : x y z
#
# Youngs Moduli (GPa) = 82.79794 60.39800 92.53451
#
# Poissons Ratio (x) = 0.14173 0.51440
# Poissons Ratio (y) = 0.19429 0.46300
# Poissons Ratio (z) = 0.46028 0.30221
#
# Static dielectric constant tensor:
#      x y z
#    x 1.639690 0.000000 0.000000 
#    y 0.000000 1.658760 0.000000 
#    z 0.000000 0.000000 1.702070 
# 
# From -- ./inp_files/31276.got.cif
#   From: 2010.05.17/outbox.cif.g08.bks.cpg/sg73_16_cif.got.tgz:31276.got - 2010.06.03 17:35:07.
