data_PCOD9530018
_publ_section_title
;
Structure prediction by ZEFSAII (Michael W. Deem and Ramdas Pophale) SiO2 
 PCOD9530018
Probable space group: I B C A 
;
_chemical_formula_sum "Si O2"
_cell_formula_units_Z 80
_cell_length_a 26.983188
_cell_length_b 14.177184
_cell_length_c 10.010060
_cell_angle_alpha 90.000000
_cell_angle_beta 90.000000
_cell_angle_gamma 90.000000
_cell_volume 3829.304621
_symmetry_space_group_name_H-M "I B C A "
_symmetry_group_IT_number 73
_symmetry_cell_setting 'orthorhombic'
loop_
_space_group_symop_operation_xyz
x,y,z
-x,1/2-y,z
x,-y,1/2-z
1/2-x,y,-z
-x,-y,-z
x,1/2+y,-z
-x,y,1/2+z
1/2+x,-y,z
1/2+x,1/2+y,1/2+z
1/2-x,-y,1/2+z
1/2+x,1/2-y,-z
-x,1/2+y,1/2-z
1/2-x,1/2-y,1/2-z
1/2+x,y,1/2-z
1/2-x,1/2+y,z
x,1/2-y,1/2+z
loop_
_atom_site_type_symbol
_atom_site_label
_atom_site_fract_x
_atom_site_fract_y
_atom_site_fract_z
Si Si1 0.785904 0.477864 0.893156
Si Si2 0.455316 0.081287 0.138600
Si Si3 0.640824 0.314972 0.186780
Si Si4 0.934384 0.545065 0.113019
Si Si5 0.344421 0.157002 0.488192
O O1 0.761080 0.500000 0.750000
O O2 0.832284 0.412555 0.854060
O O3 0.805739 0.572835 0.963482
O O4 0.750000 0.430155 0.000000
O O5 0.417371 0.166679 0.159765
O O6 0.514159 0.098128 0.147674
O O7 0.444156 0.000000 0.250000
O O8 0.446493 0.037560 0.992309
O O9 0.647886 0.297249 0.343161
O O10 0.666348 0.234938 0.098597
O O11 0.914680 0.500000 0.250000
O O12 0.894963 0.609984 0.040224
#
# Coordination Sequence:
#
# PCOD9530018 Si02
#       5
#    16  16  16  16  16
#     4  10  23  45  68  88 119 157 199 256 318 372
#     4  10  18  39  61  84 126 168 203 252 301 353
#     4  11  23  41  63  89 127 164 202 254 310 365
#     4  10  21  34  62  92 120 165 212 247 297 356
#     4  11  24  41  62  93 126 164 205 251 307 370
#
# _framework density 20.89152
#
# number of rings (size 3 to 8) (size 9 to 14) (size 15 to 20)
#    0.000    1.600    4.000    0.600    2.800    4.000 
#    0.000    6.000    0.000    0.000    0.000    0.000 
#    0.000    0.000    0.000    0.000    0.000    0.000 
#
# Total GULP energy -223361.050703 kJ/mol
# GULP energy per Si atom -5584.026268 kJ/mol
# Density = 2.084397 g / cm^3
# Si number density = 20.891520 Si / 1000 Ang^3
#
#
#
# Elastic Constant Matrix: (Units=GPa)
#
#
# Indices 1 2 3 4 5 6 
#
# 1 41.5648 -2.5093 31.5295 0.0000 0.0000 0.0000
# 2 -2.5093 45.7684 38.1028 0.0000 0.0000 0.0000
# 3 31.5295 38.1028 159.8837 0.0000 0.0000 0.0000
# 4 0.0000 0.0000 0.0000 39.9901 0.0000 0.0000
# 5 0.0000 0.0000 0.0000 0.0000 29.9154 0.0000
# 6 0.0000 0.0000 0.0000 0.0000 0.0000 0.7788
#
#
#
# Elastic Compliance Matrix: (Units=1/GPa)
#
#
# Indices 1 2 3 4 5 6 
#
# 1 0.030667 0.008378 -0.008044 0.000000 0.000000 0.000000
# 2 0.008378 0.029546 -0.008693 0.000000 0.000000 0.000000
# 3 -0.008044 -0.008693 0.009913 0.000000 0.000000 0.000000
# 4 0.000000 0.000000 0.000000 0.025006 0.000000 0.000000
# 5 0.000000 0.000000 0.000000 0.000000 0.033428 0.000000
# 6 0.000000 0.000000 0.000000 0.000000 0.000000 1.284012
#
#
# Mechanical properties :
#
#
# Convention : Reuss Voigt Hill
#
# Bulk Modulus (GPa) = 18.72437 42.38476 30.55457
# Shear Modulus (GPa) = 3.45521 26.14313 14.79917
#
# Velocity S-wave (km/s) = 1.28743 3.54132 2.66443
# Velocity P-wave (km/s) = 3.34546 6.08714 4.91149
#
# Compressibility (1/GPa) = 0.05340633
#
# Stress axis : x y z
#
# Youngs Moduli (GPa) = 32.60871 33.84566 100.88095
#
# Poissons Ratio (x) = -0.28357 0.81151
# Poissons Ratio (y) = -0.27320 0.87700
# Poissons Ratio (z) = 0.26231 0.29424
#
# Static dielectric constant tensor:
#      x y z
#    x 1.747920 0.000000 0.000000 
#    y 0.000000 1.768110 0.000000 
#    z 0.000000 0.000000 1.729560 
# 
# From -- ./inp_files/7694.got.cif
#   From: 2010.05.17/outbox.cif.g08.bks.cpg/sg73_4_cif.got.tgz:7694.got - 2010.06.03 17:35:07.
