data_PCOD9530144
_publ_section_title
;
Structure prediction by ZEFSAII (Michael W. Deem and Ramdas Pophale) SiO2 
 PCOD9530144
Probable space group: I B C A 
;
_chemical_formula_sum "Si O2"
_cell_formula_units_Z 112
_cell_length_a 27.860021
_cell_length_b 12.169173
_cell_length_c 13.461055
_cell_angle_alpha 90.000000
_cell_angle_beta 90.000000
_cell_angle_gamma 90.000000
_cell_volume 4563.747451
_symmetry_space_group_name_H-M "I B C A "
_symmetry_group_IT_number 73
_symmetry_cell_setting 'orthorhombic'
loop_
_space_group_symop_operation_xyz
x,y,z
-x,1/2-y,z
x,-y,1/2-z
1/2-x,y,-z
-x,-y,-z
x,1/2+y,-z
-x,y,1/2+z
1/2+x,-y,z
1/2+x,1/2+y,1/2+z
1/2-x,-y,1/2+z
1/2+x,1/2-y,-z
-x,1/2+y,1/2-z
1/2-x,1/2-y,1/2-z
1/2+x,y,1/2-z
1/2-x,1/2+y,z
x,1/2-y,1/2+z
loop_
_atom_site_type_symbol
_atom_site_label
_atom_site_fract_x
_atom_site_fract_y
_atom_site_fract_z
Si Si1 0.450345 0.194967 0.141278
Si Si2 0.054309 0.642880 0.471285
Si Si3 0.009688 0.507401 0.858426
Si Si4 0.343103 0.248313 0.183044
Si Si5 0.331523 0.424773 0.334349
Si Si6 0.227243 0.933543 0.599945
Si Si7 0.345156 0.923863 0.997790
O O1 0.500000 0.250000 0.180315
O O2 0.446459 0.242189 0.029173
O O3 0.461823 0.067836 0.145406
O O4 0.399706 0.222534 0.188223
O O5 0.012996 0.622161 0.391372
O O6 0.108629 0.616313 0.442393
O O7 0.041477 0.553649 0.559052
O O8 0.032188 0.500000 0.750000
O O9 0.331155 0.304487 0.288213
O O10 0.309423 0.145617 0.156630
O O11 0.336552 0.335338 0.090691
O O12 0.355441 0.500000 0.250000
O O13 0.276128 0.459206 0.344467
O O14 0.354407 0.459549 0.439047
O O15 0.250000 0.878364 0.500000
O O16 0.199454 0.043460 0.566043
#
# Coordination Sequence:
#
# PCOD9530144 Si02
#       7
#    16  16  16  16  16  16  16
#     4   9  19  36  56  83 117 151 195 244 289 354
#     4   9  19  37  58  81 114 153 191 239 299 358
#     4  10  20  36  58  85 117 152 194 247 302 351
#     4  10  19  34  56  80 112 149 186 233 288 348
#     4   9  19  34  54  80 108 142 184 228 279 343
#     4  10  20  34  52  78 108 142 183 230 285 345
#     4   9  19  35  55  76 104 143 185 225 276 343
#
# _framework density 24.541233999999999
#
# number of rings (size 3 to 8) (size 9 to 14) (size 15 to 20)
#    0.000    2.571    0.000    1.286    0.000    6.857 
#    0.000   20.714    0.000    0.000    0.000    0.000 
#    0.000    0.000    0.000    0.000    0.000    0.000 
#
# Total GULP energy -312541.198390 kJ/mol
# GULP energy per Si atom -5581.092828 kJ/mol
# Density = 2.448538 g / cm^3
# Si number density = 24.541234 Si / 1000 Ang^3
#
#
#
# Elastic Constant Matrix: (Units=GPa)
#
#
# Indices 1 2 3 4 5 6 
#
# 1 134.3529 19.5806 18.5159 0.0000 0.0000 0.0000
# 2 19.5806 59.0764 6.1968 0.0000 0.0000 0.0000
# 3 18.5159 6.1968 62.2737 0.0000 0.0000 0.0000
# 4 0.0000 0.0000 0.0000 22.1376 0.0000 0.0000
# 5 0.0000 0.0000 0.0000 0.0000 10.6890 0.0000
# 6 0.0000 0.0000 0.0000 0.0000 0.0000 32.5340
#
#
#
# Elastic Compliance Matrix: (Units=1/GPa)
#
#
# Indices 1 2 3 4 5 6 
#
# 1 0.008099 -0.002458 -0.002164 0.000000 0.000000 0.000000
# 2 -0.002458 0.017851 -0.001046 0.000000 0.000000 0.000000
# 3 -0.002164 -0.001046 0.016806 0.000000 0.000000 0.000000
# 4 0.000000 0.000000 0.000000 0.045172 0.000000 0.000000
# 5 0.000000 0.000000 0.000000 0.000000 0.093554 0.000000
# 6 0.000000 0.000000 0.000000 0.000000 0.000000 0.030737
#
#
# Mechanical properties :
#
#
# Convention : Reuss Voigt Hill
#
# Bulk Modulus (GPa) = 31.82422 38.25441 35.03932
# Shear Modulus (GPa) = 21.36502 27.16611 24.26557
#
# Velocity S-wave (km/s) = 2.95375 3.33071 3.14788
# Velocity P-wave (km/s) = 4.96273 5.51481 5.24604
#
# Compressibility (1/GPa) = 0.03142261
#
# Stress axis : x y z
#
# Youngs Moduli (GPa) = 123.46541 56.01779 59.50426
#
# Poissons Ratio (x) = 0.13767 0.12875
# Poissons Ratio (y) = 0.30342 0.06222
# Poissons Ratio (z) = 0.26714 0.05858
#
# Static dielectric constant tensor:
#      x y z
#    x 1.907680 0.000000 0.000000 
#    y 0.000000 2.023480 0.000000 
#    z 0.000000 0.000000 2.062510 
# 
# From -- ./inp_files/19813.got.cif
#   From: 2010.05.17/outbox.cif.g08.bks.cpg/sg73_10_cif.got.tgz:19813.got - 2010.06.03 17:35:07.
