data_PCOD9530275
_publ_section_title
;
Structure prediction by ZEFSAII (Michael W. Deem and Ramdas Pophale) SiO2 
 PCOD9530275
Probable space group: I B C A 
;
_chemical_formula_sum "Si O2"
_cell_formula_units_Z 96
_cell_length_a 25.119850
_cell_length_b 10.933209
_cell_length_c 17.125411
_cell_angle_alpha 90.000000
_cell_angle_beta 90.000000
_cell_angle_gamma 90.000000
_cell_volume 4703.332640
_symmetry_space_group_name_H-M "I B C A "
_symmetry_group_IT_number 73
_symmetry_cell_setting 'orthorhombic'
loop_
_space_group_symop_operation_xyz
x,y,z
-x,1/2-y,z
x,-y,1/2-z
1/2-x,y,-z
-x,-y,-z
x,1/2+y,-z
-x,y,1/2+z
1/2+x,-y,z
1/2+x,1/2+y,1/2+z
1/2-x,-y,1/2+z
1/2+x,1/2-y,-z
-x,1/2+y,1/2-z
1/2-x,1/2-y,1/2-z
1/2+x,y,1/2-z
1/2-x,1/2+y,z
x,1/2-y,1/2+z
loop_
_atom_site_type_symbol
_atom_site_label
_atom_site_fract_x
_atom_site_fract_y
_atom_site_fract_z
Si Si1 0.563257 0.732567 0.144404
Si Si2 0.355795 0.395937 0.447398
Si Si3 0.802772 0.833383 0.105897
Si Si4 0.265649 0.428880 0.090645
Si Si5 0.949521 0.512905 0.555615
Si Si6 0.588697 0.624828 0.301109
O O1 0.500000 0.750000 0.128978
O O2 0.610978 0.817817 0.114454
O O3 0.571257 0.609983 0.095111
O O4 0.569908 0.719731 0.236690
O O5 0.317382 0.331063 0.512274
O O6 0.323039 0.505246 0.408314
O O7 0.402257 0.444524 0.501741
O O8 0.769828 0.708919 0.124103
O O9 0.856914 0.837205 0.156018
O O10 0.773333 0.963324 0.121832
O O11 0.250000 0.415494 0.000000
O O12 0.954332 0.601855 0.630271
O O13 0.000000 0.500000 0.500000
O O14 0.596038 0.500000 0.250000
#
# Coordination Sequence:
#
# PCOD9530275 Si02
#       6
#    16  16  16  16  16  16
#     4  11  21  39  59  87 128 169 208 258 323 376
#     4  10  20  36  62  92 124 162 213 268 309 384
#     4  10  21  40  64  95 122 168 214 269 326 388
#     4  10  20  37  64  95 127 161 213 274 330 374
#     4  10  19  37  61  88 118 161 219 259 306 378
#     4   9  22  41  59  86 128 168 206 265 329 377
#
# _framework density 20.411059000000002
#
# number of rings (size 3 to 8) (size 9 to 14) (size 15 to 20)
#    0.000    2.000    1.667    2.500    0.000    5.333 
#    9.000    4.167    0.000    0.000    0.000    0.000 
#    0.000    0.000    0.000    0.000    0.000    0.000 
#
# Total GULP energy -267301.685826 kJ/mol
# GULP energy per Si atom -5568.785121 kJ/mol
# Density = 2.036460 g / cm^3
# Si number density = 20.411059 Si / 1000 Ang^3
#
#
#
# Elastic Constant Matrix: (Units=GPa)
#
#
# Indices 1 2 3 4 5 6 
#
# 1 68.4025 33.8928 32.9756 0.0000 0.0000 0.0000
# 2 33.8928 79.1035 28.1015 0.0000 0.0000 0.0000
# 3 32.9756 28.1015 86.6160 0.0000 0.0000 0.0000
# 4 0.0000 0.0000 0.0000 21.6449 0.0000 0.0000
# 5 0.0000 0.0000 0.0000 0.0000 31.1460 0.0000
# 6 0.0000 0.0000 0.0000 0.0000 0.0000 27.7424
#
#
#
# Elastic Compliance Matrix: (Units=1/GPa)
#
#
# Indices 1 2 3 4 5 6 
#
# 1 0.020763 -0.006881 -0.005672 0.000000 0.000000 0.000000
# 2 -0.006881 0.016569 -0.002756 0.000000 0.000000 0.000000
# 3 -0.005672 -0.002756 0.014599 0.000000 0.000000 0.000000
# 4 0.000000 0.000000 0.000000 0.046200 0.000000 0.000000
# 5 0.000000 0.000000 0.000000 0.000000 0.032107 0.000000
# 6 0.000000 0.000000 0.000000 0.000000 0.000000 0.036046
#
#
# Mechanical properties :
#
#
# Convention : Reuss Voigt Hill
#
# Bulk Modulus (GPa) = 46.92091 47.11797 47.01944
# Shear Modulus (GPa) = 24.50890 25.38345 24.94618
#
# Velocity S-wave (km/s) = 3.46897 3.53031 3.49977
# Velocity P-wave (km/s) = 6.25163 6.30493 6.27834
#
# Compressibility (1/GPa) = 0.02131246
#
# Stress axis : x y z
#
# Youngs Moduli (GPa) = 48.16150 60.35353 68.49869
#
# Poissons Ratio (x) = 0.41531 0.38855
# Poissons Ratio (y) = 0.33141 0.18877
# Poissons Ratio (z) = 0.27319 0.16633
#
# Static dielectric constant tensor:
#      x y z
#    x 1.805830 0.000000 0.000000 
#    y 0.000000 1.794020 0.000000 
#    z 0.000000 0.000000 1.836660 
# 
# From -- ./inp_files/21369.got.cif
#   From: 2010.05.17/outbox.cif.g08.bks.cpg/sg73_11_cif.got.tgz:21369.got - 2010.06.03 17:35:07.
