data_PCOD9530320
_publ_section_title
;
Structure prediction by ZEFSAII (Michael W. Deem and Ramdas Pophale) SiO2 
 PCOD9530320
Probable space group: I B C A 
;
_chemical_formula_sum "Si O2"
_cell_formula_units_Z 96
_cell_length_a 24.292369
_cell_length_b 11.233887
_cell_length_c 15.854427
_cell_angle_alpha 90.000000
_cell_angle_beta 90.000000
_cell_angle_gamma 90.000000
_cell_volume 4326.637112
_symmetry_space_group_name_H-M "I B C A "
_symmetry_group_IT_number 73
_symmetry_cell_setting 'orthorhombic'
loop_
_space_group_symop_operation_xyz
x,y,z
-x,1/2-y,z
x,-y,1/2-z
1/2-x,y,-z
-x,-y,-z
x,1/2+y,-z
-x,y,1/2+z
1/2+x,-y,z
1/2+x,1/2+y,1/2+z
1/2-x,-y,1/2+z
1/2+x,1/2-y,-z
-x,1/2+y,1/2-z
1/2-x,1/2-y,1/2-z
1/2+x,y,1/2-z
1/2-x,1/2+y,z
x,1/2-y,1/2+z
loop_
_atom_site_type_symbol
_atom_site_label
_atom_site_fract_x
_atom_site_fract_y
_atom_site_fract_z
Si Si1 0.840206 0.186464 0.305382
Si Si2 0.724981 0.079510 0.162964
Si Si3 0.935183 0.741299 0.927005
Si Si4 0.890696 0.977128 0.850414
Si Si5 0.556216 0.703746 0.881363
Si Si6 0.158314 0.564923 0.377473
O O1 0.793068 0.285543 0.314991
O O2 0.895438 0.258387 0.320556
O O3 0.841112 0.125185 0.215209
O O4 0.842874 0.077619 0.370914
O O5 0.670687 0.018239 0.123115
O O6 0.777300 0.086622 0.101062
O O7 0.735769 0.000000 0.250000
O O8 0.896175 0.623551 0.917815
O O9 0.000000 0.750000 0.899837
O O10 0.902862 0.844375 0.878186
O O11 0.937023 0.762606 0.027308
O O12 0.937170 0.062420 0.890266
O O13 0.892868 0.000000 0.750000
O O14 0.500000 0.750000 0.843907
#
# Coordination Sequence:
#
# PCOD9530320 Si02
#       6
#    16  16  16  16  16  16
#     4  10  22  37  62 100 123 163 215 271 317 385
#     4  10  19  38  65  94 129 170 207 266 336 383
#     4  11  26  42  66  93 130 179 218 269 335 390
#     4  10  23  42  67  95 130 172 216 270 332 390
#     4  10  24  43  66  88 131 173 217 270 330 392
#     4  11  22  36  66  95 128 164 218 267 315 396
#
# _framework density 22.188133000000001
#
# number of rings (size 3 to 8) (size 9 to 14) (size 15 to 20)
#    0.000    1.667    1.667    3.500    7.000    4.000 
#    0.000    3.333    0.000    0.000    0.000    0.000 
#    0.000    0.000    0.000    0.000    0.000    0.000 
#
# Total GULP energy -267582.577936 kJ/mol
# GULP energy per Si atom -5574.637040 kJ/mol
# Density = 2.213763 g / cm^3
# Si number density = 22.188133 Si / 1000 Ang^3
#
#
#
# Elastic Constant Matrix: (Units=GPa)
#
#
# Indices 1 2 3 4 5 6 
#
# 1 157.1208 46.8232 14.5593 0.0000 0.0000 0.0000
# 2 46.8232 136.9768 11.5466 0.0000 0.0000 0.0000
# 3 14.5593 11.5466 26.8716 0.0000 0.0000 0.0000
# 4 0.0000 0.0000 0.0000 17.5421 0.0000 0.0000
# 5 0.0000 0.0000 0.0000 0.0000 38.4389 0.0000
# 6 0.0000 0.0000 0.0000 0.0000 0.0000 20.2001
#
#
#
# Elastic Compliance Matrix: (Units=1/GPa)
#
#
# Indices 1 2 3 4 5 6 
#
# 1 0.007312 -0.002247 -0.002996 0.000000 0.000000 0.000000
# 2 -0.002247 0.008265 -0.002334 0.000000 0.000000 0.000000
# 3 -0.002996 -0.002334 0.039840 0.000000 0.000000 0.000000
# 4 0.000000 0.000000 0.000000 0.057006 0.000000 0.000000
# 5 0.000000 0.000000 0.000000 0.000000 0.026015 0.000000
# 6 0.000000 0.000000 0.000000 0.000000 0.000000 0.049505
#
#
# Mechanical properties :
#
#
# Convention : Reuss Voigt Hill
#
# Bulk Modulus (GPa) = 24.83667 51.86971 38.35319
# Shear Modulus (GPa) = 23.09272 31.77223 27.43247
#
# Velocity S-wave (km/s) = 3.22959 3.78821 3.52000
# Velocity P-wave (km/s) = 5.01249 6.52396 5.81752
#
# Compressibility (1/GPa) = 0.04026305
#
# Stress axis : x y z
#
# Youngs Moduli (GPa) = 136.76646 120.98758 25.10020
#
# Poissons Ratio (x) = 0.27184 0.07520
# Poissons Ratio (y) = 0.30729 0.05859
# Poissons Ratio (z) = 0.40977 0.28241
#
# Static dielectric constant tensor:
#      x y z
#    x 1.896670 0.000000 0.000000 
#    y 0.000000 1.915970 0.000000 
#    z 0.000000 0.000000 1.833420 
# 
# From -- ./inp_files/23546.got.cif
#   From: 2010.05.17/outbox.cif.g08.bks.cpg/sg73_12_cif.got.tgz:23546.got - 2010.06.03 17:35:07.
