data_PCOD9530976
_publ_section_title
;
Structure prediction by ZEFSAII (Michael W. Deem and Ramdas Pophale) SiO2 
 PCOD9530976
Probable space group: I B C A 
;
_chemical_formula_sum "Si O2"
_cell_formula_units_Z 88
_cell_length_a 21.763590
_cell_length_b 29.103533
_cell_length_c 5.669264
_cell_angle_alpha 90.000000
_cell_angle_beta 90.000000
_cell_angle_gamma 90.000000
_cell_volume 3590.896849
_symmetry_space_group_name_H-M "I B C A "
_symmetry_group_IT_number 73
_symmetry_cell_setting 'orthorhombic'
loop_
_space_group_symop_operation_xyz
x,y,z
-x,1/2-y,z
x,-y,1/2-z
1/2-x,y,-z
-x,-y,-z
x,1/2+y,-z
-x,y,1/2+z
1/2+x,-y,z
1/2+x,1/2+y,1/2+z
1/2-x,-y,1/2+z
1/2+x,1/2-y,-z
-x,1/2+y,1/2-z
1/2-x,1/2-y,1/2-z
1/2+x,y,1/2-z
1/2-x,1/2+y,z
x,1/2-y,1/2+z
loop_
_atom_site_type_symbol
_atom_site_label
_atom_site_fract_x
_atom_site_fract_y
_atom_site_fract_z
Si Si1 0.014940 0.842379 0.932145
Si Si2 0.592611 0.914142 0.094011
Si Si3 0.180624 0.764111 0.989295
Si Si4 0.345533 0.867688 0.982304
Si Si5 0.464441 0.500000 0.250000
Si Si6 0.801352 0.446669 0.805023
O O1 0.084989 0.859813 0.917379
O O2 0.995106 0.818396 0.687237
O O3 0.968659 0.885918 0.957965
O O4 0.640787 0.879058 0.209994
O O5 0.575242 0.954001 0.274362
O O6 0.629248 0.942394 0.901467
O O7 0.150962 0.751732 0.242238
O O8 0.250000 0.743594 0.000000
O O9 0.184567 0.818792 0.979497
O O10 0.308198 0.909113 0.098823
O O11 0.500000 0.500000 0.500000
O O12 0.788840 0.500000 0.750000
O O13 0.750000 0.433770 0.000000
#
# Coordination Sequence:
#
# PCOD9530976 Si02
#       6
#    16  16  16  16   8  16
#     4  10  20  40  66 103 133 180 235 298 349 431
#     4  11  25  43  67  99 139 189 246 296 362 431
#     4  10  25  46  75 111 145 183 244 307 365 441
#     4  11  25  45  76 101 144 191 241 305 382 434
#     4  12  26  40  68 100 142 186 248 304 356 408
#     4  12  30  45  65 101 151 199 250 300 363 441
#
# _framework density 24.506412000000001
#
# number of rings (size 3 to 8) (size 9 to 14) (size 15 to 20)
#    0.000    1.091    1.818    3.273   12.727    0.727 
#    0.000    0.000    0.000   13.091    0.000    0.000 
#    0.000    0.000    0.000    0.000    0.000    0.000 
#
# Total GULP energy -245598.559349 kJ/mol
# GULP energy per Si atom -5581.785440 kJ/mol
# Density = 2.445063 g / cm^3
# Si number density = 24.506412 Si / 1000 Ang^3
#
#
#
# Elastic Constant Matrix: (Units=GPa)
#
#
# Indices 1 2 3 4 5 6 
#
# 1 116.1213 13.8359 35.1292 0.0000 0.0000 0.0000
# 2 13.8359 81.8280 26.7017 0.0000 0.0000 0.0000
# 3 35.1292 26.7017 150.4059 0.0000 0.0000 0.0000
# 4 0.0000 0.0000 0.0000 17.7518 0.0000 0.0000
# 5 0.0000 0.0000 0.0000 0.0000 49.0794 0.0000
# 6 0.0000 0.0000 0.0000 0.0000 0.0000 24.2605
#
#
#
# Elastic Compliance Matrix: (Units=1/GPa)
#
#
# Indices 1 2 3 4 5 6 
#
# 1 0.009331 -0.000920 -0.002016 0.000000 0.000000 0.000000
# 2 -0.000920 0.013063 -0.002104 0.000000 0.000000 0.000000
# 3 -0.002016 -0.002104 0.007493 0.000000 0.000000 0.000000
# 4 0.000000 0.000000 0.000000 0.056332 0.000000 0.000000
# 5 0.000000 0.000000 0.000000 0.000000 0.020375 0.000000
# 6 0.000000 0.000000 0.000000 0.000000 0.000000 0.041219
#
#
# Mechanical properties :
#
#
# Convention : Reuss Voigt Hill
#
# Bulk Modulus (GPa) = 50.48764 55.52099 53.00432
# Shear Modulus (GPa) = 30.39573 36.39755 33.39664
#
# Velocity S-wave (km/s) = 3.52564 3.85804 3.69558
# Velocity P-wave (km/s) = 6.10082 6.52310 6.31549
#
# Compressibility (1/GPa) = 0.01980683
#
# Stress axis : x y z
#
# Youngs Moduli (GPa) = 107.16728 76.55245 133.45552
#
# Poissons Ratio (x) = 0.07042 0.26906
# Poissons Ratio (y) = 0.09858 0.28082
# Poissons Ratio (z) = 0.21606 0.16108
#
# Static dielectric constant tensor:
#      x y z
#    x 1.973030 0.000000 0.000000 
#    y 0.000000 1.931610 0.000000 
#    z 0.000000 0.000000 2.113670 
# 
# From -- ./inp_files/2256.got.cif
#   From: 2010.05.17/outbox.cif.g08.bks.cpg/sg73_2_cif.got.tgz:2256.got - 2010.06.03 17:35:07.
