data_PCOD9530005
_publ_section_title
;
Structure prediction by ZEFSAII (Michael W. Deem and Ramdas Pophale) SiO2 
 PCOD9530005
Probable space group: I B C A 
;
_chemical_formula_sum "Si O2"
_cell_formula_units_Z 72
_cell_length_a 13.292247
_cell_length_b 15.425038
_cell_length_c 16.117891
_cell_angle_alpha 90.000000
_cell_angle_beta 90.000000
_cell_angle_gamma 90.000000
_cell_volume 3304.706236
_symmetry_space_group_name_H-M "I B C A "
_symmetry_group_IT_number 73
_symmetry_cell_setting 'orthorhombic'
loop_
_space_group_symop_operation_xyz
x,y,z
-x,1/2-y,z
x,-y,1/2-z
1/2-x,y,-z
-x,-y,-z
x,1/2+y,-z
-x,y,1/2+z
1/2+x,-y,z
1/2+x,1/2+y,1/2+z
1/2-x,-y,1/2+z
1/2+x,1/2-y,-z
-x,1/2+y,1/2-z
1/2-x,1/2-y,1/2-z
1/2+x,y,1/2-z
1/2-x,1/2+y,z
x,1/2-y,1/2+z
loop_
_atom_site_type_symbol
_atom_site_label
_atom_site_fract_x
_atom_site_fract_y
_atom_site_fract_z
Si Si1 0.250000 0.181237 0.500000
Si Si2 0.411160 0.814373 0.569326
Si Si3 0.135138 0.662698 0.652222
Si Si4 0.283080 0.914367 0.696581
Si Si5 0.919484 0.363050 0.882265
O O1 0.322296 0.246366 0.450218
O O2 0.188401 0.128938 0.431507
O O3 0.500000 0.750000 0.597993
O O4 0.369177 0.885012 0.632678
O O5 0.436482 0.860799 0.481686
O O6 0.208391 0.655313 0.729586
O O7 0.110317 0.763361 0.636747
O O8 0.025892 0.618204 0.661446
O O9 0.176059 0.916726 0.649788
O O10 0.301495 0.000000 0.750000
#
# Coordination Sequence:
#
# PCOD9530005 Si02
#       5
#     8  16  16  16  16
#     4  10  18  38  66 100 126 168 246 290 336 388
#     4  11  20  39  72  99 130 187 237 289 341 416
#     4  10  21  39  67 100 126 175 243 288 338 413
#     4  12  26  40  62 103 149 180 218 292 375 427
#     4  10  20  43  69  95 129 179 243 293 337 417
#
# _framework density 21.787112
#
# number of rings (size 3 to 8) (size 9 to 14) (size 15 to 20)
#    0.000    1.333    8.889    0.667    3.111    0.889 
#    4.000    1.111    0.000    0.000    0.000    0.000 
#    0.000    0.000    0.000    0.000    0.000    0.000 
#
# Total GULP energy -200853.948886 kJ/mol
# GULP energy per Si atom -5579.276358 kJ/mol
# Density = 2.173752 g / cm^3
# Si number density = 21.787112 Si / 1000 Ang^3
#
#
#
# Elastic Constant Matrix: (Units=GPa)
#
#
# Indices 1 2 3 4 5 6 
#
# 1 116.2684 21.2550 7.0691 0.0000 0.0000 0.0000
# 2 21.2550 45.1359 19.6350 -0.0001 0.0000 0.0000
# 3 7.0691 19.6350 65.0522 -0.0002 -0.0001 0.0000
# 4 0.0000 -0.0001 -0.0002 1131.8603 -0.0004 0.0000
# 5 0.0000 0.0000 -0.0001 -0.0004 -14.4702 0.0000
# 6 0.0000 0.0000 0.0000 0.0000 0.0000 5.4029
#
#
#
# Elastic Compliance Matrix: (Units=1/GPa)
#
#
# Indices 1 2 3 4 5 6 
#
# 1 0.009418 -0.004593 0.000363 0.000000 0.000000 0.000000
# 2 -0.004593 0.027744 -0.007875 0.000000 0.000000 0.000000
# 3 0.000363 -0.007875 0.017710 0.000000 0.000000 0.000000
# 4 0.000000 0.000000 0.000000 0.000884 0.000000 0.000000
# 5 0.000000 0.000000 0.000000 0.000000 -0.069108 0.000000
# 6 0.000000 0.000000 0.000000 0.000000 0.000000 0.185085
#
#
# Mechanical properties :
#
#
# Convention : Reuss Voigt Hill
#
# Bulk Modulus (GPa) = 32.61385 35.81939 34.21662
# Shear Modulus (GPa) = 24.25251 236.45843 130.35547
#
# Velocity S-wave (km/s) = 3.34002 10.42914 7.74347
# Velocity P-wave (km/s) = 5.46591 12.70822 9.78200
#
# Compressibility (1/GPa) = 0.03066182
#
# Stress axis : x y z
#
# Youngs Moduli (GPa) = 106.17530 36.04385 56.46602
#
# Poissons Ratio (x) = 0.16555 -0.02049
# Poissons Ratio (y) = 0.48767 0.44467
# Poissons Ratio (z) = -0.03853 0.28384
#
# Static dielectric constant tensor:
#      x y z
#    x 1.894230 0.000000 0.000000 
#    y 0.000000 1.887170 0.000000 
#    z 0.000000 0.000000 1.848430 
# 
# From -- ./inp_files/16758.got.cif
#   From: 2010.05.17/outbox.cif.g08.bks.cpg/sg73_9_cif.got.tgz:16758.got - 2010.06.03 17:35:07.
