data_PCOD9530526
_publ_section_title
;
Structure prediction by ZEFSAII (Michael W. Deem and Ramdas Pophale) SiO2 
 PCOD9530526
Probable space group: I B C A 
;
_chemical_formula_sum "Si O2"
_cell_formula_units_Z 104
_cell_length_a 16.543942
_cell_length_b 29.597966
_cell_length_c 8.526801
_cell_angle_alpha 90.000000
_cell_angle_beta 90.000000
_cell_angle_gamma 90.000000
_cell_volume 4175.293345
_symmetry_space_group_name_H-M "I B C A "
_symmetry_group_IT_number 73
_symmetry_cell_setting 'orthorhombic'
loop_
_space_group_symop_operation_xyz
x,y,z
-x,1/2-y,z
x,-y,1/2-z
1/2-x,y,-z
-x,-y,-z
x,1/2+y,-z
-x,y,1/2+z
1/2+x,-y,z
1/2+x,1/2+y,1/2+z
1/2-x,-y,1/2+z
1/2+x,1/2-y,-z
-x,1/2+y,1/2-z
1/2-x,1/2-y,1/2-z
1/2+x,y,1/2-z
1/2-x,1/2+y,z
x,1/2-y,1/2+z
loop_
_atom_site_type_symbol
_atom_site_label
_atom_site_fract_x
_atom_site_fract_y
_atom_site_fract_z
Si Si1 0.621992 0.751560 0.004726
Si Si2 0.292342 0.186893 0.247991
Si Si3 0.428751 0.963159 0.508181
Si Si4 0.182394 0.595001 0.384488
Si Si5 0.444339 0.085651 0.664734
Si Si6 0.190307 0.500000 0.250000
Si Si7 0.096945 0.815254 0.247900
O O1 0.677683 0.719485 0.112900
O O2 0.569915 0.785536 0.107388
O O3 0.673988 0.785760 0.899010
O O4 0.576909 0.715618 0.898856
O O5 0.330451 0.136840 0.267577
O O6 0.195372 0.182085 0.243837
O O7 0.419076 0.946971 0.688332
O O8 0.465505 0.924973 0.393878
O O9 0.355677 0.984553 0.410603
O O10 0.500000 0.000000 0.500000
O O11 0.250000 0.614558 0.500000
O O12 0.109070 0.583563 0.504099
O O13 0.220301 0.549683 0.305956
O O14 0.437139 0.135324 0.733425
#
# Coordination Sequence:
#
# PCOD9530526 Si02
#       7
#    16  16  16  16  16   8  16
#     4  10  20  34  62  99 141 181 217 251 323 422
#     4  11  19  37  60  99 147 174 213 258 328 414
#     4  12  24  48  74  94 113 173 245 288 316 383
#     4  12  25  44  63 105 146 175 203 278 348 411
#     4  12  24  43  72  94 131 168 228 279 336 386
#     4  12  28  46  72  96 126 176 234 280 332 400
#     4  11  20  36  62  98 134 178 210 265 323 401
#
# _framework density 24.908429000000002
#
# number of rings (size 3 to 8) (size 9 to 14) (size 15 to 20)
#    0.000    0.615    6.154    3.692    2.154    1.231 
#    0.000    0.000    0.000    2.769    0.000    0.000 
#    0.000    0.000    0.000    0.000    0.000    0.000 
#
# Total GULP energy -290694.618911 kJ/mol
# GULP energy per Si atom -5590.281133 kJ/mol
# Density = 2.485174 g / cm^3
# Si number density = 24.908429 Si / 1000 Ang^3
#
#
#
# Elastic Constant Matrix: (Units=GPa)
#
#
# Indices 1 2 3 4 5 6 
#
# 1 40.0300 28.8683 17.2659 0.0007 0.0004 0.0004
# 2 28.8683 202.6955 57.9405 0.0087 -0.0011 0.0002
# 3 17.2659 57.9405 124.6253 -0.0047 -0.0162 0.0005
# 4 0.0007 0.0087 -0.0047 148.2878 -0.0028 0.0038
# 5 0.0004 -0.0011 -0.0162 -0.0028 54.9885 0.0021
# 6 0.0004 0.0002 0.0005 0.0038 0.0021 36.7519
#
#
#
# Elastic Compliance Matrix: (Units=1/GPa)
#
#
# Indices 1 2 3 4 5 6 
#
# 1 0.028436 -0.003372 -0.002372 0.000000 -0.000001 0.000000
# 2 -0.003372 0.006089 -0.002364 0.000000 -0.000001 0.000000
# 3 -0.002372 -0.002364 0.009452 0.000000 0.000003 0.000000
# 4 0.000000 0.000000 0.000000 0.006744 0.000000 -0.000001
# 5 -0.000001 -0.000001 0.000003 0.000000 0.018186 -0.000001
# 6 0.000000 0.000000 0.000000 -0.000001 -0.000001 0.027209
#
#
# Mechanical properties :
#
#
# Convention : Reuss Voigt Hill
#
# Bulk Modulus (GPa) = 36.02090 63.94446 49.98268
# Shear Modulus (GPa) = 41.12333 65.55737 53.34035
#
# Velocity S-wave (km/s) = 4.06763 5.13580 4.63261
# Velocity P-wave (km/s) = 6.04596 7.80360 6.98032
#
# Compressibility (1/GPa) = 0.02776166
#
# Stress axis : x y z
#
# Youngs Moduli (GPa) = 35.16660 164.21762 105.80091
#
# Poissons Ratio (x) = 0.55373 0.25095
# Poissons Ratio (y) = 0.11858 0.25011
# Poissons Ratio (z) = 0.08341 0.38820
#
# Static dielectric constant tensor:
#      x y z
#    x 2.057130 0.000000 0.000000 
#    y 0.000000 1.980990 0.000000 
#    z 0.000000 0.000000 2.044290 
# 
# From -- ./inp_files/6695.got.cif
#   From: 2010.05.17/outbox.cif.g08.bks.cpg/sg73_4_cif.got.tgz:6695.got - 2010.06.03 17:35:07.
