data_PCOD9530131
_publ_section_title
;
Structure prediction by ZEFSAII (Michael W. Deem and Ramdas Pophale) SiO2 
 PCOD9530131
Probable space group: I B C A 
;
_chemical_formula_sum "Si O2"
_cell_formula_units_Z 112
_cell_length_a 22.089477
_cell_length_b 16.384820
_cell_length_c 15.428347
_cell_angle_alpha 90.000000
_cell_angle_beta 90.000000
_cell_angle_gamma 90.000000
_cell_volume 5584.014099
_symmetry_space_group_name_H-M "I B C A "
_symmetry_group_IT_number 73
_symmetry_cell_setting 'orthorhombic'
loop_
_space_group_symop_operation_xyz
x,y,z
-x,1/2-y,z
x,-y,1/2-z
1/2-x,y,-z
-x,-y,-z
x,1/2+y,-z
-x,y,1/2+z
1/2+x,-y,z
1/2+x,1/2+y,1/2+z
1/2-x,-y,1/2+z
1/2+x,1/2-y,-z
-x,1/2+y,1/2-z
1/2-x,1/2-y,1/2-z
1/2+x,y,1/2-z
1/2-x,1/2+y,z
x,1/2-y,1/2+z
loop_
_atom_site_type_symbol
_atom_site_label
_atom_site_fract_x
_atom_site_fract_y
_atom_site_fract_z
Si Si1 0.070745 0.907792 0.744851
Si Si2 0.384078 0.184437 0.897260
Si Si3 0.928311 0.421884 0.448732
Si Si4 0.833521 0.985495 0.845821
Si Si5 0.569512 0.590656 0.443026
Si Si6 0.148903 0.853867 0.908692
Si Si7 0.250000 0.461077 0.000000
Si Si8 0.500000 0.750000 0.703512
O O1 0.100558 0.907339 0.650187
O O2 0.116659 0.893255 0.824574
O O3 0.025345 0.830576 0.748498
O O4 0.043262 0.000000 0.750000
O O5 0.337537 0.259198 0.891871
O O6 0.445004 0.217891 0.854092
O O7 0.362514 0.103858 0.848419
O O8 0.401144 0.155750 0.993488
O O9 0.885882 0.447285 0.368284
O O10 0.926270 0.503674 0.508533
O O11 0.898749 0.355216 0.511313
O O12 0.997255 0.399708 0.429147
O O13 0.807643 0.000000 0.750000
O O14 0.787929 0.990459 0.927508
O O15 0.204486 0.905538 0.944134
#
# Coordination Sequence:
#
# PCOD9530131 Si02
#       8
#    16  16  16  16  16  16   8   8
#     4  11  22  35  61  95 130 173 210 256 308 382
#     4  10  22  39  60  90 136 162 202 258 314 382
#     4   9  19  34  58  87 125 166 211 235 297 385
#     4  10  23  42  65  93 120 164 215 269 313 375
#     4  10  19  33  58  91 124 178 199 234 309 382
#     4  10  21  43  61  88 122 158 213 272 318 367
#     4  10  24  48  70  84 112 166 222 274 330 366
#     4  10  24  36  56  98 138 174 204 250 312 390
#
# _framework density 20.057255000000001
#
# number of rings (size 3 to 8) (size 9 to 14) (size 15 to 20)
#    0.000    2.000    1.429    1.714    6.000    2.857 
#    7.714    0.714    0.000    0.000    0.000    0.000 
#    0.000    0.000    0.000    0.000    0.000    0.000 
#
# Total GULP energy -312309.191361 kJ/mol
# GULP energy per Si atom -5576.949846 kJ/mol
# Density = 2.001160 g / cm^3
# Si number density = 20.057255 Si / 1000 Ang^3
#
#
#
# Elastic Constant Matrix: (Units=GPa)
#
#
# Indices 1 2 3 4 5 6 
#
# 1 50.3509 16.7062 17.7686 0.0000 0.0000 0.0000
# 2 16.7062 111.5174 45.1216 0.0000 0.0000 0.0000
# 3 17.7686 45.1216 114.7596 0.0000 0.0000 0.0000
# 4 0.0000 0.0000 0.0000 20.9227 0.0000 0.0000
# 5 0.0000 0.0000 0.0000 0.0000 16.2492 0.0000
# 6 0.0000 0.0000 0.0000 0.0000 0.0000 12.0350
#
#
#
# Elastic Compliance Matrix: (Units=1/GPa)
#
#
# Indices 1 2 3 4 5 6 
#
# 1 0.021463 -0.002225 -0.002448 0.000000 0.000000 0.000000
# 2 -0.002225 0.010894 -0.003939 0.000000 0.000000 0.000000
# 3 -0.002448 -0.003939 0.010642 0.000000 0.000000 0.000000
# 4 0.000000 0.000000 0.000000 0.047795 0.000000 0.000000
# 5 0.000000 0.000000 0.000000 0.000000 0.061542 0.000000
# 6 0.000000 0.000000 0.000000 0.000000 0.000000 0.083091
#
#
# Mechanical properties :
#
#
# Convention : Reuss Voigt Hill
#
# Bulk Modulus (GPa) = 38.79789 48.42453 43.61121
# Shear Modulus (GPa) = 19.13932 22.97679 21.05805
#
# Velocity S-wave (km/s) = 3.09242 3.38828 3.24373
# Velocity P-wave (km/s) = 5.66889 6.28513 5.98495
#
# Compressibility (1/GPa) = 0.02577460
#
# Stress axis : x y z
#
# Youngs Moduli (GPa) = 46.59230 91.79146 93.96971
#
# Poissons Ratio (x) = 0.20420 0.23008
# Poissons Ratio (y) = 0.10365 0.37015
# Poissons Ratio (z) = 0.11408 0.36157
#
# Static dielectric constant tensor:
#      x y z
#    x 1.729080 0.000000 0.000000 
#    y 0.000000 1.745650 0.000000 
#    z 0.000000 0.000000 1.728230 
# 
# From -- ./inp_files/19439.got.cif
#   From: 2010.05.17/outbox.cif.g08.bks.cpg/sg73_10_cif.got.tgz:19439.got - 2010.06.03 17:35:07.
