data_PCOD9530909
_publ_section_title
;
Structure prediction by ZEFSAII (Michael W. Deem and Ramdas Pophale) SiO2 
 PCOD9530909
Probable space group: I B C A 
;
_chemical_formula_sum "Si O2"
_cell_formula_units_Z 88
_cell_length_a 14.556315
_cell_length_b 11.374777
_cell_length_c 22.765608
_cell_angle_alpha 90.000000
_cell_angle_beta 90.000000
_cell_angle_gamma 90.000000
_cell_volume 3769.411835
_symmetry_space_group_name_H-M "I B C A "
_symmetry_group_IT_number 73
_symmetry_cell_setting 'orthorhombic'
loop_
_space_group_symop_operation_xyz
x,y,z
-x,1/2-y,z
x,-y,1/2-z
1/2-x,y,-z
-x,-y,-z
x,1/2+y,-z
-x,y,1/2+z
1/2+x,-y,z
1/2+x,1/2+y,1/2+z
1/2-x,-y,1/2+z
1/2+x,1/2-y,-z
-x,1/2+y,1/2-z
1/2-x,1/2-y,1/2-z
1/2+x,y,1/2-z
1/2-x,1/2+y,z
x,1/2-y,1/2+z
loop_
_atom_site_type_symbol
_atom_site_label
_atom_site_fract_x
_atom_site_fract_y
_atom_site_fract_z
Si Si1 0.600784 0.250968 0.738397
Si Si2 0.647183 0.334925 0.026855
Si Si3 0.859025 0.415563 0.513793
Si Si4 0.230248 0.622101 0.149637
Si Si5 0.311294 0.000000 0.750000
Si Si6 0.398014 0.210335 0.369403
O O1 0.500000 0.250000 0.710673
O O2 0.680315 0.200365 0.698558
O O3 0.627084 0.384694 0.751068
O O4 0.596470 0.180878 0.800155
O O5 0.603044 0.453692 0.999242
O O6 0.663623 0.370568 0.094224
O O7 0.750000 0.323475 0.000000
O O8 0.606467 0.203899 0.018508
O O9 0.750000 0.425643 0.500000
O O10 0.869058 0.384193 0.582555
O O11 0.255654 0.507203 0.188170
O O12 0.323913 0.684377 0.127999
O O13 0.500000 0.250000 0.385994
#
# Coordination Sequence:
#
# PCOD9530909 Si02
#       6
#    16  16  16  16   8  16
#     4  10  24  43  62 102 143 176 232 283 354 416
#     4  10  21  37  66  93 127 173 221 282 339 397
#     4  10  20  39  64  92 122 172 223 275 339 399
#     4  11  22  40  66  98 132 177 229 285 341 417
#     4  10  22  36  66  98 128 190 224 282 350 420
#     4  10  20  40  65  93 134 177 221 274 345 417
#
# _framework density 23.345817
#
# number of rings (size 3 to 8) (size 9 to 14) (size 15 to 20)
#    0.000    1.818    3.636    2.182    5.091    0.727 
#    6.545    1.818    0.000    0.000    0.000    0.000 
#    0.000    0.000    0.000    0.000    0.000    0.000 
#
# Total GULP energy -245438.428741 kJ/mol
# GULP energy per Si atom -5578.146108 kJ/mol
# Density = 2.329268 g / cm^3
# Si number density = 23.345817 Si / 1000 Ang^3
#
#
#
# Elastic Constant Matrix: (Units=GPa)
#
#
# Indices 1 2 3 4 5 6 
#
# 1 80.0116 18.9816 3.7481 0.0000 0.0000 0.0000
# 2 18.9816 126.5638 9.9587 0.0000 0.0000 0.0000
# 3 3.7481 9.9587 92.9459 0.0000 0.0000 0.0000
# 4 0.0000 0.0000 0.0000 26.9735 0.0000 0.0000
# 5 0.0000 0.0000 0.0000 0.0000 10.4004 0.0000
# 6 0.0000 0.0000 0.0000 0.0000 0.0000 5.2287
#
#
#
# Elastic Compliance Matrix: (Units=1/GPa)
#
#
# Indices 1 2 3 4 5 6 
#
# 1 0.012969 -0.001920 -0.000317 0.000000 0.000000 0.000000
# 2 -0.001920 0.008253 -0.000807 0.000000 0.000000 0.000000
# 3 -0.000317 -0.000807 0.010858 0.000000 0.000000 0.000000
# 4 0.000000 0.000000 0.000000 0.037073 0.000000 0.000000
# 5 0.000000 0.000000 0.000000 0.000000 0.096151 0.000000
# 6 0.000000 0.000000 0.000000 0.000000 0.000000 0.191251
#
#
# Mechanical properties :
#
#
# Convention : Reuss Voigt Hill
#
# Bulk Modulus (GPa) = 38.47452 40.54420 39.50936
# Shear Modulus (GPa) = 13.46599 26.30939 19.88769
#
# Velocity S-wave (km/s) = 2.40428 3.36064 2.92185
# Velocity P-wave (km/s) = 4.92174 5.69763 5.32384
#
# Compressibility (1/GPa) = 0.02599123
#
# Stress axis : x y z
#
# Youngs Moduli (GPa) = 77.10963 121.17401 92.09638
#
# Poissons Ratio (x) = 0.23266 0.02922
# Poissons Ratio (y) = 0.14805 0.07430
# Poissons Ratio (z) = 0.02446 0.09776
#
# Static dielectric constant tensor:
#      x y z
#    x 1.882400 0.000000 0.000000 
#    y 0.000000 2.160930 0.000000 
#    z 0.000000 0.000000 1.961890 
# 
# From -- ./inp_files/29398.got.cif
#   From: 2010.05.17/outbox.cif.g08.bks.cpg/sg73_15_cif.got.tgz:29398.got - 2010.06.03 17:35:07.
