data_PCOD9530457
_publ_section_title
;
Structure prediction by ZEFSAII (Michael W. Deem and Ramdas Pophale) SiO2 
 PCOD9530457
Probable space group: I B C A 
;
_chemical_formula_sum "Si O2"
_cell_formula_units_Z 104
_cell_length_a 22.955898
_cell_length_b 9.073877
_cell_length_c 19.574235
_cell_angle_alpha 90.000000
_cell_angle_beta 90.000000
_cell_angle_gamma 90.000000
_cell_volume 4077.293476
_symmetry_space_group_name_H-M "I B C A "
_symmetry_group_IT_number 73
_symmetry_cell_setting 'orthorhombic'
loop_
_space_group_symop_operation_xyz
x,y,z
-x,1/2-y,z
x,-y,1/2-z
1/2-x,y,-z
-x,-y,-z
x,1/2+y,-z
-x,y,1/2+z
1/2+x,-y,z
1/2+x,1/2+y,1/2+z
1/2-x,-y,1/2+z
1/2+x,1/2-y,-z
-x,1/2+y,1/2-z
1/2-x,1/2-y,1/2-z
1/2+x,y,1/2-z
1/2-x,1/2+y,z
x,1/2-y,1/2+z
loop_
_atom_site_type_symbol
_atom_site_label
_atom_site_fract_x
_atom_site_fract_y
_atom_site_fract_z
Si Si1 0.968935 0.022427 0.822054
Si Si2 0.367071 0.279213 0.504939
Si Si3 0.750000 0.910693 0.500000
Si Si4 0.950385 0.625647 0.913112
Si Si5 0.187941 0.959751 0.389631
Si Si6 0.628684 0.254623 0.804360
Si Si7 0.625381 0.245926 0.654967
O O1 0.918220 0.894335 0.810421
O O2 0.010376 0.008036 0.887570
O O3 0.002683 0.000000 0.750000
O O4 0.936290 0.175142 0.831519
O O5 0.307205 0.188096 0.499299
O O6 0.419450 0.170041 0.483422
O O7 0.359094 0.404690 0.447361
O O8 0.374576 0.334692 0.582124
O O9 0.754327 0.012102 0.566979
O O10 0.899366 0.642853 0.857380
O O11 0.000000 0.750000 0.903477
O O12 0.186584 0.830868 0.334511
O O13 0.168413 0.114104 0.357920
O O14 0.638897 0.187668 0.730134
#
# Coordination Sequence:
#
# PCOD9530457 Si02
#       7
#    16  16   8  16  16  16  16
#     4   8  14  27  47  71 103 139 169 203 254 312
#     4  10  20  33  53  78 104 135 178 223 269 326
#     4  10  20  34  54  74  98 134 176 220 272 320
#     4   9  17  31  50  74 105 137 168 209 263 319
#     4   9  17  32  54  73  96 132 171 216 264 311
#     4   8  15  30  53  74  96 135 180 210 248 317
#     4   9  17  31  53  78 102 138 181 217 259 320
#
# _framework density 25.507117999999998
#
# number of rings (size 3 to 8) (size 9 to 14) (size 15 to 20)
#    0.000    3.077    0.000    2.769    0.000    0.615 
#    0.000    6.923    0.000   42.462    0.000    0.000 
#    0.000    0.000    0.000    0.000    0.000    0.000 
#
# Total GULP energy -290039.167706 kJ/mol
# GULP energy per Si atom -5577.676302 kJ/mol
# Density = 2.544906 g / cm^3
# Si number density = 25.507118 Si / 1000 Ang^3
#
#
#
# Elastic Constant Matrix: (Units=GPa)
#
#
# Indices 1 2 3 4 5 6 
#
# 1 67.0623 7.9721 29.0019 0.0000 0.0000 0.0000
# 2 7.9721 34.4791 22.6859 0.0000 0.0000 0.0000
# 3 29.0019 22.6859 166.0974 0.0000 0.0000 0.0000
# 4 0.0000 0.0000 0.0000 30.2364 0.0000 0.0000
# 5 0.0000 0.0000 0.0000 0.0000 34.2281 0.0000
# 6 0.0000 0.0000 0.0000 0.0000 0.0000 15.8937
#
#
#
# Elastic Compliance Matrix: (Units=1/GPa)
#
#
# Indices 1 2 3 4 5 6 
#
# 1 0.016264 -0.002079 -0.002556 0.000000 0.000000 0.000000
# 2 -0.002079 0.032132 -0.004026 0.000000 0.000000 0.000000
# 3 -0.002556 -0.004026 0.007017 0.000000 0.000000 0.000000
# 4 0.000000 0.000000 0.000000 0.033073 0.000000 0.000000
# 5 0.000000 0.000000 0.000000 0.000000 0.029216 0.000000
# 6 0.000000 0.000000 0.000000 0.000000 0.000000 0.062918
#
#
# Mechanical properties :
#
#
# Convention : Reuss Voigt Hill
#
# Bulk Modulus (GPa) = 26.25207 42.99539 34.62373
# Shear Modulus (GPa) = 23.73744 29.93692 26.83718
#
# Velocity S-wave (km/s) = 3.05392 3.42960 3.24720
# Velocity P-wave (km/s) = 4.76965 5.70751 5.25953
#
# Compressibility (1/GPa) = 0.03809224
#
# Stress axis : x y z
#
# Youngs Moduli (GPa) = 61.48564 31.12116 142.51749
#
# Poissons Ratio (x) = 0.06470 0.36426
# Poissons Ratio (y) = 0.12782 0.57374
# Poissons Ratio (z) = 0.15715 0.12529
#
# Static dielectric constant tensor:
#      x y z
#    x 2.018710 0.000000 0.000000 
#    y 0.000000 2.109740 0.000000 
#    z 0.000000 0.000000 2.114440 
# 
# From -- ./inp_files/18295.got.cif
#   From: 2010.05.17/outbox.cif.g08.bks.cpg/sg73_10_cif.got.tgz:18295.got - 2010.06.03 17:35:07.
