data_PCOD9530888
_publ_section_title
;
Structure prediction by ZEFSAII (Michael W. Deem and Ramdas Pophale) SiO2 
 PCOD9530888
Probable space group: I B C A 
;
_chemical_formula_sum "Si O2"
_cell_formula_units_Z 104
_cell_length_a 22.742500
_cell_length_b 18.758431
_cell_length_c 13.067453
_cell_angle_alpha 90.000000
_cell_angle_beta 90.000000
_cell_angle_gamma 90.000000
_cell_volume 5574.753390
_symmetry_space_group_name_H-M "I B C A "
_symmetry_group_IT_number 73
_symmetry_cell_setting 'orthorhombic'
loop_
_space_group_symop_operation_xyz
x,y,z
-x,1/2-y,z
x,-y,1/2-z
1/2-x,y,-z
-x,-y,-z
x,1/2+y,-z
-x,y,1/2+z
1/2+x,-y,z
1/2+x,1/2+y,1/2+z
1/2-x,-y,1/2+z
1/2+x,1/2-y,-z
-x,1/2+y,1/2-z
1/2-x,1/2-y,1/2-z
1/2+x,y,1/2-z
1/2-x,1/2+y,z
x,1/2-y,1/2+z
loop_
_atom_site_type_symbol
_atom_site_label
_atom_site_fract_x
_atom_site_fract_y
_atom_site_fract_z
Si Si1 0.337068 0.720970 0.829871
Si Si2 0.549116 0.962794 0.642172
Si Si3 0.916580 0.471677 0.068835
Si Si4 0.222309 0.652678 0.758547
Si Si5 0.060599 0.793324 0.825313
Si Si6 0.136100 0.683857 0.944304
Si Si7 0.827257 0.000000 0.750000
O O1 0.289534 0.676103 0.765004
O O2 0.312090 0.801227 0.826022
O O3 0.400148 0.715903 0.776558
O O4 0.339389 0.692152 0.943167
O O5 0.481285 0.982320 0.616414
O O6 0.552997 0.877075 0.652406
O O7 0.565779 0.000000 0.750000
O O8 0.584667 0.992026 0.543269
O O9 0.903488 0.387280 0.060393
O O10 0.868872 0.499737 0.149916
O O11 0.188666 0.675129 0.863021
O O12 0.212241 0.569853 0.746767
O O13 0.097729 0.752187 0.912383
O O14 0.000000 0.750000 0.814456
#
# Coordination Sequence:
#
# PCOD9530888 Si02
#       7
#    16  16  16  16  16  16   8
#     4  10  21  39  64  86 120 162 199 255 313 350
#     4  11  22  38  58  87 128 162 206 252 307 368
#     4  10  21  37  60  88 121 170 198 250 315 359
#     4   9  21  39  63  90 116 161 203 256 301 368
#     4  11  23  39  58  93 122 158 208 251 296 376
#     4  10  20  39  61  87 122 158 212 247 305 366
#     4  10  20  40  64  90 124 158 214 250 308 376
#
# _framework density 18.655533999999999
#
# number of rings (size 3 to 8) (size 9 to 14) (size 15 to 20)
#    0.000    1.846    2.308    1.385    2.154    0.615 
#    6.923    0.000    0.000    0.000    0.000    0.000 
#    0.000    0.000    0.000    0.000    0.000    0.000 
#
# Total GULP energy -290256.538264 kJ/mol
# GULP energy per Si atom -5581.856505 kJ/mol
# Density = 1.861307 g / cm^3
# Si number density = 18.655534 Si / 1000 Ang^3
#
#
#
# Elastic Constant Matrix: (Units=GPa)
#
#
# Indices 1 2 3 4 5 6 
#
# 1 44.6999 28.1364 0.9450 0.0000 0.0000 0.0000
# 2 28.1364 129.7273 32.8179 0.0000 0.0000 0.0000
# 3 0.9450 32.8179 74.6648 0.0000 0.0000 0.0000
# 4 0.0000 0.0000 0.0000 17.0885 0.0000 0.0000
# 5 0.0000 0.0000 0.0000 0.0000 10.4879 0.0000
# 6 0.0000 0.0000 0.0000 0.0000 0.0000 20.8439
#
#
#
# Elastic Compliance Matrix: (Units=1/GPa)
#
#
# Indices 1 2 3 4 5 6 
#
# 1 0.026300 -0.006323 0.002446 0.000000 0.000000 0.000000
# 2 -0.006323 0.010193 -0.004400 0.000000 0.000000 0.000000
# 3 0.002446 -0.004400 0.015296 0.000000 0.000000 0.000000
# 4 0.000000 0.000000 0.000000 0.058519 0.000000 0.000000
# 5 0.000000 0.000000 0.000000 0.000000 0.095348 0.000000
# 6 0.000000 0.000000 0.000000 0.000000 0.000000 0.047976
#
#
# Mechanical properties :
#
#
# Convention : Reuss Voigt Hill
#
# Bulk Modulus (GPa) = 28.38061 41.43228 34.90644
# Shear Modulus (GPa) = 17.73486 22.16356 19.94921
#
# Velocity S-wave (km/s) = 3.08660 3.45054 3.27363
# Velocity P-wave (km/s) = 5.28667 6.17513 5.74809
#
# Compressibility (1/GPa) = 0.03523533
#
# Stress axis : x y z
#
# Youngs Moduli (GPa) = 38.02327 98.10661 65.37544
#
# Poissons Ratio (x) = 0.62032 -0.15993
# Poissons Ratio (y) = 0.24042 0.28766
# Poissons Ratio (z) = -0.09302 0.43169
#
# Static dielectric constant tensor:
#      x y z
#    x 1.633690 0.000000 0.000000 
#    y 0.000000 1.642900 0.000000 
#    z 0.000000 0.000000 1.628120 
# 
# From -- ./inp_files/19501.got.cif
#   From: 2010.05.17/outbox.cif.g08.bks.cpg/sg73_10_cif.got.tgz:19501.got - 2010.06.03 17:35:07.
