data_PCOD9530148
_publ_section_title
;
Structure prediction by ZEFSAII (Michael W. Deem and Ramdas Pophale) SiO2 
 PCOD9530148
Probable space group: I B C A 
;
_chemical_formula_sum "Si O2"
_cell_formula_units_Z 72
_cell_length_a 5.622113
_cell_length_b 30.196325
_cell_length_c 17.854864
_cell_angle_alpha 90.000000
_cell_angle_beta 90.000000
_cell_angle_gamma 90.000000
_cell_volume 3031.169399
_symmetry_space_group_name_H-M "I B C A "
_symmetry_group_IT_number 73
_symmetry_cell_setting 'orthorhombic'
loop_
_space_group_symop_operation_xyz
x,y,z
-x,1/2-y,z
x,-y,1/2-z
1/2-x,y,-z
-x,-y,-z
x,1/2+y,-z
-x,y,1/2+z
1/2+x,-y,z
1/2+x,1/2+y,1/2+z
1/2-x,-y,1/2+z
1/2+x,1/2-y,-z
-x,1/2+y,1/2-z
1/2-x,1/2-y,1/2-z
1/2+x,y,1/2-z
1/2-x,1/2+y,z
x,1/2-y,1/2+z
loop_
_atom_site_type_symbol
_atom_site_label
_atom_site_fract_x
_atom_site_fract_y
_atom_site_fract_z
Si Si1 0.200995 0.516900 0.664262
Si Si2 0.750000 0.224239 0.500000
Si Si3 0.359779 0.885550 0.886464
Si Si4 0.874758 0.316011 0.256263
Si Si5 0.141064 0.141655 0.098892
O O1 0.211040 0.500000 0.750000
O O2 0.457937 0.503658 0.630442
O O3 0.171684 0.569485 0.659760
O O4 0.500000 0.250000 0.516293
O O5 0.819871 0.190961 0.567060
O O6 0.374403 0.842211 0.833987
O O7 0.623122 0.885727 0.921490
O O8 0.109579 0.878026 0.928181
O O9 0.624575 0.292091 0.250427
O O10 0.874318 0.352707 0.189152
#
# Coordination Sequence:
#
# PCOD9530148 Si02
#       5
#    16   8  16  16  16
#     4  10  21  27  46  83 135 161 191 232 297 315
#     4  12  26  46  68  90 116 136 198 274 310 348
#     4  10  19  34  56  86 126 156 200 237 273 374
#     4   8  16  27  52  76 113 140 189 220 275 334
#     4  10  21  36  61  84 110 159 193 240 300 351
#
# _framework density 23.753209999999999
#
# number of rings (size 3 to 8) (size 9 to 14) (size 15 to 20)
#    0.000    2.222    0.000    2.667   18.667    0.000 
#    0.000    0.000    0.000   36.000    0.000   15.556 
#    0.000    0.000    0.000    0.000    0.000    0.000 
#
# Total GULP energy -200741.127445 kJ/mol
# GULP energy per Si atom -5576.142429 kJ/mol
# Density = 2.369915 g / cm^3
# Si number density = 23.753210 Si / 1000 Ang^3
#
#
#
# Elastic Constant Matrix: (Units=GPa)
#
#
# Indices 1 2 3 4 5 6 
#
# 1 307.1243 49.2900 22.7812 0.0000 0.0000 0.0000
# 2 49.2900 90.7760 -0.6523 0.0000 0.0000 0.0000
# 3 22.7812 -0.6523 43.2063 0.0000 0.0000 0.0000
# 4 0.0000 0.0000 0.0000 6.4685 0.0000 0.0000
# 5 0.0000 0.0000 0.0000 0.0000 29.9277 0.0000
# 6 0.0000 0.0000 0.0000 0.0000 0.0000 50.9473
#
#
#
# Elastic Compliance Matrix: (Units=1/GPa)
#
#
# Indices 1 2 3 4 5 6 
#
# 1 0.003732 -0.002041 -0.001998 0.000000 0.000000 0.000000
# 2 -0.002041 0.012133 0.001259 0.000000 0.000000 0.000000
# 3 -0.001998 0.001259 0.024217 0.000000 0.000000 0.000000
# 4 0.000000 0.000000 0.000000 0.154595 0.000000 0.000000
# 5 0.000000 0.000000 0.000000 0.000000 0.033414 0.000000
# 6 0.000000 0.000000 0.000000 0.000000 0.000000 0.019628
#
#
# Mechanical properties :
#
#
# Convention : Reuss Voigt Hill
#
# Bulk Modulus (GPa) = 28.96656 64.88271 46.92464
# Shear Modulus (GPa) = 18.88315 42.11456 30.49885
#
# Velocity S-wave (km/s) = 2.82258 4.21527 3.58717
# Velocity P-wave (km/s) = 4.77953 7.14605 6.07906
#
# Compressibility (1/GPa) = 0.03452256
#
# Stress axis : x y z
#
# Youngs Moduli (GPa) = 267.97114 82.41846 41.29247
#
# Poissons Ratio (x) = 0.16819 0.08252
# Poissons Ratio (y) = 0.54683 -0.05199
# Poissons Ratio (z) = 0.53552 -0.10378
#
# Static dielectric constant tensor:
#      x y z
#    x 2.049580 0.000000 0.000000 
#    y 0.000000 1.810460 0.000000 
#    z 0.000000 0.000000 1.917090 
# 
# From -- ./inp_files/1669.got.cif
#   From: 2010.05.17/outbox.cif.g08.bks.cpg/sg73_1_cif.got.tgz:1669.got - 2010.06.03 17:35:07.
