data_PCOD9530404
_publ_section_title
;
Structure prediction by ZEFSAII (Michael W. Deem and Ramdas Pophale) SiO2 
 PCOD9530404
Probable space group: I B C A 
;
_chemical_formula_sum "Si O2"
_cell_formula_units_Z 72
_cell_length_a 26.427423
_cell_length_b 5.037383
_cell_length_c 22.943282
_cell_angle_alpha 90.000000
_cell_angle_beta 90.000000
_cell_angle_gamma 90.000000
_cell_volume 3054.325594
_symmetry_space_group_name_H-M "I B C A "
_symmetry_group_IT_number 73
_symmetry_cell_setting 'orthorhombic'
loop_
_space_group_symop_operation_xyz
x,y,z
-x,1/2-y,z
x,-y,1/2-z
1/2-x,y,-z
-x,-y,-z
x,1/2+y,-z
-x,y,1/2+z
1/2+x,-y,z
1/2+x,1/2+y,1/2+z
1/2-x,-y,1/2+z
1/2+x,1/2-y,-z
-x,1/2+y,1/2-z
1/2-x,1/2-y,1/2-z
1/2+x,y,1/2-z
1/2-x,1/2+y,z
x,1/2-y,1/2+z
loop_
_atom_site_type_symbol
_atom_site_label
_atom_site_fract_x
_atom_site_fract_y
_atom_site_fract_z
Si Si1 0.382588 0.658074 0.419562
Si Si2 0.500000 0.750000 0.837380
Si Si3 0.228383 0.026529 0.063935
Si Si4 0.049312 0.364294 0.067111
Si Si5 0.107126 0.263627 0.787590
O O1 0.328191 0.576433 0.442848
O O2 0.417057 0.392564 0.417094
O O3 0.372833 0.756479 0.353443
O O4 0.412425 0.897492 0.452688
O O5 0.478045 0.516582 0.878761
O O6 0.547891 0.672864 0.799375
O O7 0.264474 0.810264 0.093913
O O8 0.250000 0.092264 0.000000
O O9 0.000000 0.250000 0.032807
O O10 0.130273 0.500000 0.750000
O O11 0.110952 0.000000 0.750000
#
# Coordination Sequence:
#
# PCOD9530404 Si02
#       5
#    16   8  16  16  16
#     4  11  22  35  59  87 125 164 205 262 312 359
#     4  10  20  30  48  74 126 174 224 242 264 316
#     4  10  22  43  70  98 114 136 198 283 342 380
#     4  11  18  33  53  85 129 170 210 235 292 364
#     4  11  21  30  47  77 124 172 210 244 277 338
#
# _framework density 23.573126999999999
#
# number of rings (size 3 to 8) (size 9 to 14) (size 15 to 20)
#    0.000    1.333    4.444    4.667    0.000    0.000 
#    0.000    0.000    0.000    4.000    0.000   62.222 
#    0.000    0.000    0.000    0.000    0.000    0.000 
#
# Total GULP energy -201068.685329 kJ/mol
# GULP energy per Si atom -5585.241259 kJ/mol
# Density = 2.351947 g / cm^3
# Si number density = 23.573127 Si / 1000 Ang^3
#
#
#
# Elastic Constant Matrix: (Units=GPa)
#
#
# Indices 1 2 3 4 5 6 
#
# 1 114.3313 28.5698 14.7836 0.0000 0.0000 0.0000
# 2 28.5698 161.8099 20.7542 0.0000 0.0000 0.0000
# 3 14.7836 20.7542 93.4875 0.0000 0.0000 0.0000
# 4 0.0000 0.0000 0.0000 23.8654 0.0000 0.0000
# 5 0.0000 0.0000 0.0000 0.0000 11.7785 0.0000
# 6 0.0000 0.0000 0.0000 0.0000 0.0000 38.4192
#
#
#
# Elastic Compliance Matrix: (Units=1/GPa)
#
#
# Indices 1 2 3 4 5 6 
#
# 1 0.009266 -0.001490 -0.001134 0.000000 0.000000 0.000000
# 2 -0.001490 0.006601 -0.001230 0.000000 0.000000 0.000000
# 3 -0.001134 -0.001230 0.011149 0.000000 0.000000 0.000000
# 4 0.000000 0.000000 0.000000 0.041902 0.000000 0.000000
# 5 0.000000 0.000000 0.000000 0.000000 0.084900 0.000000
# 6 0.000000 0.000000 0.000000 0.000000 0.000000 0.026029
#
#
# Mechanical properties :
#
#
# Convention : Reuss Voigt Hill
#
# Bulk Modulus (GPa) = 51.79589 55.31597 53.55593
# Shear Modulus (GPa) = 25.77444 35.18071 30.47758
#
# Velocity S-wave (km/s) = 3.31022 3.86736 3.59959
# Velocity P-wave (km/s) = 6.05229 6.59231 6.32806
#
# Compressibility (1/GPa) = 0.01930655
#
# Stress axis : x y z
#
# Youngs Moduli (GPa) = 107.92563 151.49257 89.69417
#
# Poissons Ratio (x) = 0.22580 0.10174
# Poissons Ratio (y) = 0.16086 0.11030
# Poissons Ratio (z) = 0.12242 0.18629
#
# Static dielectric constant tensor:
#      x y z
#    x 1.915050 0.000000 0.000000 
#    y 0.000000 2.070390 0.000000 
#    z 0.000000 0.000000 2.123910 
# 
# From -- ./inp_files/27747.got.cif
#   From: 2010.05.17/outbox.cif.g08.bks.cpg/sg73_14_cif.got.tgz:27747.got - 2010.06.03 17:35:07.
