data_PCOD9530962
_publ_section_title
;
Structure prediction by ZEFSAII (Michael W. Deem and Ramdas Pophale) SiO2 
 PCOD9530962
Probable space group: I B C A 
;
_chemical_formula_sum "Si O2"
_cell_formula_units_Z 80
_cell_length_a 10.281226
_cell_length_b 22.977498
_cell_length_c 14.138800
_cell_angle_alpha 90.000000
_cell_angle_beta 90.000000
_cell_angle_gamma 90.000000
_cell_volume 3340.105573
_symmetry_space_group_name_H-M "I B C A "
_symmetry_group_IT_number 73
_symmetry_cell_setting 'orthorhombic'
loop_
_space_group_symop_operation_xyz
x,y,z
-x,1/2-y,z
x,-y,1/2-z
1/2-x,y,-z
-x,-y,-z
x,1/2+y,-z
-x,y,1/2+z
1/2+x,-y,z
1/2+x,1/2+y,1/2+z
1/2-x,-y,1/2+z
1/2+x,1/2-y,-z
-x,1/2+y,1/2-z
1/2-x,1/2-y,1/2-z
1/2+x,y,1/2-z
1/2-x,1/2+y,z
x,1/2-y,1/2+z
loop_
_atom_site_type_symbol
_atom_site_label
_atom_site_fract_x
_atom_site_fract_y
_atom_site_fract_z
Si Si1 0.373531 0.707478 0.142031
Si Si2 0.250000 0.219524 0.500000
Si Si3 0.004160 0.864292 0.014326
Si Si4 0.484024 0.500000 0.750000
Si Si5 0.834754 0.959058 0.416574
Si Si6 0.378760 0.113087 0.699869
O O1 0.500000 0.750000 0.157252
O O2 0.349479 0.666996 0.232223
O O3 0.257754 0.745919 0.099009
O O4 0.398474 0.664704 0.052196
O O5 0.123854 0.180232 0.497880
O O6 0.003862 0.871437 0.127009
O O7 0.049823 0.924612 0.968170
O O8 0.392570 0.502462 0.841073
O O9 0.570823 0.442640 0.757716
O O10 0.750000 0.986457 0.500000
O O11 0.743108 0.911717 0.361484
#
# Coordination Sequence:
#
# PCOD9530962 Si02
#       6
#    16   8  16   8  16  16
#     4  10  23  40  64  99 128 167 218 268 329 395
#     4  10  20  40  64  88 134 172 206 264 334 400
#     4  10  20  43  61  90 133 168 207 272 332 387
#     4  12  24  42  68  98 126 170 226 276 324 398
#     4  10  22  43  65  90 133 173 208 273 337 385
#     4  11  23  41  67  93 127 170 221 269 328 400
#
# _framework density 23.951336999999999
#
# number of rings (size 3 to 8) (size 9 to 14) (size 15 to 20)
#    0.000    1.600    5.000    0.600    0.000    8.000 
#    3.600    0.000    0.000    0.000    0.000    0.000 
#    0.000    0.000    0.000    0.000    0.000    0.000 
#
# Total GULP energy -223508.641641 kJ/mol
# GULP energy per Si atom -5587.716041 kJ/mol
# Density = 2.389682 g / cm^3
# Si number density = 23.951337 Si / 1000 Ang^3
#
#
#
# Elastic Constant Matrix: (Units=GPa)
#
#
# Indices 1 2 3 4 5 6 
#
# 1 21.3584 3.5888 12.8833 0.0000 0.0000 0.0000
# 2 3.5888 69.5897 39.4720 0.0000 0.0000 0.0000
# 3 12.8833 39.4720 119.0815 0.0000 0.0000 0.0000
# 4 0.0000 0.0000 0.0000 63.1308 0.0000 0.0000
# 5 0.0000 0.0000 0.0000 0.0000 24.1536 0.0000
# 6 0.0000 0.0000 0.0000 0.0000 0.0000 17.2285
#
#
#
# Elastic Compliance Matrix: (Units=1/GPa)
#
#
# Indices 1 2 3 4 5 6 
#
# 1 0.050109 0.000604 -0.005622 0.000000 0.000000 0.000000
# 2 0.000604 0.017705 -0.005934 0.000000 0.000000 0.000000
# 3 -0.005622 -0.005934 0.010973 0.000000 0.000000 0.000000
# 4 0.000000 0.000000 0.000000 0.015840 0.000000 0.000000
# 5 0.000000 0.000000 0.000000 0.000000 0.041402 0.000000
# 6 0.000000 0.000000 0.000000 0.000000 0.000000 0.058043
#
#
# Mechanical properties :
#
#
# Convention : Reuss Voigt Hill
#
# Bulk Modulus (GPa) = 17.57952 35.76865 26.67408
# Shear Modulus (GPa) = 21.28243 31.17493 26.22868
#
# Velocity S-wave (km/s) = 2.98412 3.61168 3.31279
# Velocity P-wave (km/s) = 4.38508 5.68846 5.07875
#
# Compressibility (1/GPa) = 0.05688438
#
# Stress axis : x y z
#
# Youngs Moduli (GPa) = 19.95638 56.48263 91.13494
#
# Poissons Ratio (x) = -0.03414 0.51233
# Poissons Ratio (y) = -0.01206 0.54079
# Poissons Ratio (z) = 0.11219 0.33516
#
# Static dielectric constant tensor:
#      x y z
#    x 1.932380 0.000000 0.000000 
#    y 0.000000 1.945270 0.000000 
#    z 0.000000 0.000000 1.956460 
# 
# From -- ./inp_files/10870.got.cif
#   From: 2010.05.17/outbox.cif.g08.bks.cpg/sg73_6_cif.got.tgz:10870.got - 2010.06.03 17:35:07.
