data_PCOD9530126
_publ_section_title
;
Structure prediction by ZEFSAII (Michael W. Deem and Ramdas Pophale) SiO2 
 PCOD9530126
Probable space group: I B C A 
;
_chemical_formula_sum "Si O2"
_cell_formula_units_Z 96
_cell_length_a 18.284980
_cell_length_b 15.658972
_cell_length_c 13.245684
_cell_angle_alpha 90.000000
_cell_angle_beta 90.000000
_cell_angle_gamma 90.000000
_cell_volume 3792.557091
_symmetry_space_group_name_H-M "I B C A "
_symmetry_group_IT_number 73
_symmetry_cell_setting 'orthorhombic'
loop_
_space_group_symop_operation_xyz
x,y,z
-x,1/2-y,z
x,-y,1/2-z
1/2-x,y,-z
-x,-y,-z
x,1/2+y,-z
-x,y,1/2+z
1/2+x,-y,z
1/2+x,1/2+y,1/2+z
1/2-x,-y,1/2+z
1/2+x,1/2-y,-z
-x,1/2+y,1/2-z
1/2-x,1/2-y,1/2-z
1/2+x,y,1/2-z
1/2-x,1/2+y,z
x,1/2-y,1/2+z
loop_
_atom_site_type_symbol
_atom_site_label
_atom_site_fract_x
_atom_site_fract_y
_atom_site_fract_z
Si Si1 0.732188 0.377333 0.682209
Si Si2 0.500000 0.250000 0.168864
Si Si3 0.425329 0.000000 0.250000
Si Si4 0.583246 0.517253 0.471216
Si Si5 0.098938 0.326543 0.173138
Si Si6 0.609553 0.668010 0.960767
Si Si7 0.202162 0.571312 0.899952
O O1 0.816966 0.353580 0.683927
O O2 0.680833 0.320466 0.608763
O O3 0.708161 0.373365 0.798972
O O4 0.722959 0.475266 0.641127
O O5 0.431951 0.230902 0.239350
O O6 0.466270 0.324557 0.099930
O O7 0.450971 0.913017 0.193369
O O8 0.396933 0.957516 0.355872
O O9 0.500000 0.500000 0.500000
O O10 0.620294 0.425788 0.492869
O O11 0.620752 0.574948 0.555392
O O12 0.095814 0.281743 0.064181
O O13 0.250000 0.590348 0.000000
#
# Coordination Sequence:
#
# PCOD9530126 Si02
#       7
#    16   8   8  16  16  16  16
#     4  10  20  37  62  89 124 167 211 263 320 379
#     4  12  26  42  62  92 128 170 218 264 318 398
#     4  10  20  36  64  94 124 166 208 256 324 380
#     4  10  20  34  58  91 130 167 204 257 319 378
#     4  11  22  41  68  92 124 169 214 264 325 389
#     4  10  23  41  60  86 122 166 212 257 315 381
#     4  10  19  33  57  95 130 159 204 260 319 386
#
# _framework density 25.312736999999998
#
# number of rings (size 3 to 8) (size 9 to 14) (size 15 to 20)
#    0.000    1.667    0.000    7.000    0.000    6.000 
#    0.000    3.333    0.000    0.000    0.000    0.000 
#    0.000    0.000    0.000    0.000    0.000    0.000 
#
# Total GULP energy -267362.578408 kJ/mol
# GULP energy per Si atom -5570.053717 kJ/mol
# Density = 2.525512 g / cm^3
# Si number density = 25.312737 Si / 1000 Ang^3
#
#
#
# Elastic Constant Matrix: (Units=GPa)
#
#
# Indices 1 2 3 4 5 6 
#
# 1 144.5449 6.8421 93.0265 0.0000 0.0000 0.0000
# 2 6.8421 41.0299 28.5723 0.0000 0.0000 0.0000
# 3 93.0265 28.5723 249.5089 0.0000 0.0000 0.0000
# 4 0.0000 0.0000 0.0000 7.5856 0.0000 0.0000
# 5 0.0000 0.0000 0.0000 0.0000 40.9803 0.0000
# 6 0.0000 0.0000 0.0000 0.0000 0.0000 11.5137
#
#
#
# Elastic Compliance Matrix: (Units=1/GPa)
#
#
# Indices 1 2 3 4 5 6 
#
# 1 0.009134 0.000922 -0.003511 0.000000 0.000000 0.000000
# 2 0.000922 0.026578 -0.003387 0.000000 0.000000 0.000000
# 3 -0.003511 -0.003387 0.005705 0.000000 0.000000 0.000000
# 4 0.000000 0.000000 0.000000 0.131829 0.000000 0.000000
# 5 0.000000 0.000000 0.000000 0.000000 0.024402 0.000000
# 6 0.000000 0.000000 0.000000 0.000000 0.000000 0.086853
#
#
# Mechanical properties :
#
#
# Convention : Reuss Voigt Hill
#
# Bulk Modulus (GPa) = 33.94004 76.88503 55.41254
# Shear Modulus (GPa) = 16.32518 32.45877 24.39197
#
# Velocity S-wave (km/s) = 2.54232 3.58482 3.10760
# Velocity P-wave (km/s) = 4.69630 6.89743 5.90042
#
# Compressibility (1/GPa) = 0.02946373
#
# Stress axis : x y z
#
# Youngs Moduli (GPa) = 109.47639 37.62575 175.28867
#
# Poissons Ratio (x) = -0.03469 0.61548
# Poissons Ratio (y) = -0.10093 0.59374
# Poissons Ratio (z) = 0.38440 0.12745
#
# Static dielectric constant tensor:
#      x y z
#    x 1.983420 0.000000 0.000000 
#    y 0.000000 2.161570 0.000000 
#    z 0.000000 0.000000 2.114820 
# 
# From -- ./inp_files/12894.got.cif
#   From: 2010.05.17/outbox.cif.g08.bks.cpg/sg73_7_cif.got.tgz:12894.got - 2010.06.03 17:35:07.
