data_PCOD9530996
_publ_section_title
;
Structure prediction by ZEFSAII (Michael W. Deem and Ramdas Pophale) SiO2 
 PCOD9530996
Probable space group: I B C A 
;
_chemical_formula_sum "Si O2"
_cell_formula_units_Z 112
_cell_length_a 10.868928
_cell_length_b 26.565867
_cell_length_c 16.630473
_cell_angle_alpha 90.000000
_cell_angle_beta 90.000000
_cell_angle_gamma 90.000000
_cell_volume 4801.924278
_symmetry_space_group_name_H-M "I B C A "
_symmetry_group_IT_number 73
_symmetry_cell_setting 'orthorhombic'
loop_
_space_group_symop_operation_xyz
x,y,z
-x,1/2-y,z
x,-y,1/2-z
1/2-x,y,-z
-x,-y,-z
x,1/2+y,-z
-x,y,1/2+z
1/2+x,-y,z
1/2+x,1/2+y,1/2+z
1/2-x,-y,1/2+z
1/2+x,1/2-y,-z
-x,1/2+y,1/2-z
1/2-x,1/2-y,1/2-z
1/2+x,y,1/2-z
1/2-x,1/2+y,z
x,1/2-y,1/2+z
loop_
_atom_site_type_symbol
_atom_site_label
_atom_site_fract_x
_atom_site_fract_y
_atom_site_fract_z
Si Si1 0.777765 0.175169 0.170134
Si Si2 0.454127 0.556278 0.475236
Si Si3 0.123920 0.508615 0.842634
Si Si4 0.750000 0.634488 0.000000
Si Si5 0.000000 0.250000 0.641973
Si Si6 0.150913 0.665901 0.829371
Si Si7 0.441247 0.084963 0.291315
Si Si8 0.167725 0.586504 0.120261
O O1 0.730940 0.169900 0.078497
O O2 0.895173 0.212365 0.178720
O O3 0.684119 0.188674 0.241540
O O4 0.823109 0.117999 0.187203
O O5 0.500000 0.500000 0.500000
O O6 0.378954 0.541330 0.394807
O O7 0.365197 0.596695 0.516860
O O8 0.580271 0.584447 0.455719
O O9 0.159751 0.500000 0.750000
O O10 0.224555 0.545345 0.881479
O O11 0.988917 0.535585 0.837571
O O12 0.090163 0.293804 0.610753
O O13 0.270754 0.640279 0.865801
O O14 0.055786 0.621774 0.807675
O O15 0.416469 0.074072 0.198058
#
# Coordination Sequence:
#
# PCOD9530996 Si02
#       8
#    16  16  16   8   8  16  16  16
#     4  10  21  38  62  85 122 153 198 246 321 376
#     4  12  25  41  58  85 125 174 221 254 304 370
#     4  11  22  33  57  87 117 159 216 259 299 357
#     4  12  26  42  60  84 130 172 200 254 312 382
#     4  10  20  40  66  96 116 148 198 270 322 382
#     4   9  19  37  65  94 119 150 200 263 323 378
#     4   9  18  35  56  87 119 153 195 256 305 354
#     4  10  21  35  57  87 121 160 203 258 318 367
#
# _framework density 23.323985
#
# number of rings (size 3 to 8) (size 9 to 14) (size 15 to 20)
#    0.000    1.714    1.429    3.000    6.000    0.000 
#    0.000    2.143    0.000    0.000    0.000    0.000 
#    0.000    0.000    0.000    0.000    0.000    0.000 
#
# Total GULP energy -312064.230280 kJ/mol
# GULP energy per Si atom -5572.575541 kJ/mol
# Density = 2.327090 g / cm^3
# Si number density = 23.323985 Si / 1000 Ang^3
#
#
#
# Elastic Constant Matrix: (Units=GPa)
#
#
# Indices 1 2 3 4 5 6 
#
# 1 64.1123 30.5769 10.3939 0.0000 0.0000 0.0000
# 2 30.5769 93.2492 18.4720 0.0000 0.0000 0.0000
# 3 10.3939 18.4720 48.4437 0.0000 0.0000 0.0000
# 4 0.0000 0.0000 0.0000 10.9226 0.0000 0.0000
# 5 0.0000 0.0000 0.0000 0.0000 22.8257 0.0000
# 6 0.0000 0.0000 0.0000 0.0000 0.0000 44.5747
#
#
#
# Elastic Compliance Matrix: (Units=1/GPa)
#
#
# Indices 1 2 3 4 5 6 
#
# 1 0.018634 -0.005753 -0.001804 0.000000 0.000000 0.000000
# 2 -0.005753 0.013376 -0.003866 0.000000 0.000000 0.000000
# 3 -0.001804 -0.003866 0.022504 0.000000 0.000000 0.000000
# 4 0.000000 0.000000 0.000000 0.091554 0.000000 0.000000
# 5 0.000000 0.000000 0.000000 0.000000 0.043810 0.000000
# 6 0.000000 0.000000 0.000000 0.000000 0.000000 0.022434
#
#
# Mechanical properties :
#
#
# Convention : Reuss Voigt Hill
#
# Bulk Modulus (GPa) = 31.57836 36.07672 33.82754
# Shear Modulus (GPa) = 20.34884 25.42209 22.88546
#
# Velocity S-wave (km/s) = 2.95692 3.30503 3.13581
# Velocity P-wave (km/s) = 5.02257 5.48320 5.25793
#
# Compressibility (1/GPa) = 0.03166726
#
# Stress axis : x y z
#
# Youngs Moduli (GPa) = 53.66602 74.76004 44.43679
#
# Poissons Ratio (x) = 0.43007 0.08018
# Poissons Ratio (y) = 0.30872 0.17180
# Poissons Ratio (z) = 0.09684 0.28903
#
# Static dielectric constant tensor:
#      x y z
#    x 1.901950 0.000000 0.000000 
#    y 0.000000 1.890400 0.000000 
#    z 0.000000 0.000000 2.024620 
# 
# From -- ./inp_files/14425.got.cif
#   From: 2010.05.17/outbox.cif.g08.bks.cpg/sg73_8_cif.got.tgz:14425.got - 2010.06.03 17:35:07.
