data_PCOD9530181
_publ_section_title
;
Structure prediction by ZEFSAII (Michael W. Deem and Ramdas Pophale) SiO2 
 PCOD9530181
Probable space group: I B C A 
;
_chemical_formula_sum "Si O2"
_cell_formula_units_Z 120
_cell_length_a 10.006514
_cell_length_b 20.948886
_cell_length_c 27.415985
_cell_angle_alpha 90.000000
_cell_angle_beta 90.000000
_cell_angle_gamma 90.000000
_cell_volume 5747.084657
_symmetry_space_group_name_H-M "I B C A "
_symmetry_group_IT_number 73
_symmetry_cell_setting 'orthorhombic'
loop_
_space_group_symop_operation_xyz
x,y,z
-x,1/2-y,z
x,-y,1/2-z
1/2-x,y,-z
-x,-y,-z
x,1/2+y,-z
-x,y,1/2+z
1/2+x,-y,z
1/2+x,1/2+y,1/2+z
1/2-x,-y,1/2+z
1/2+x,1/2-y,-z
-x,1/2+y,1/2-z
1/2-x,1/2-y,1/2-z
1/2+x,y,1/2-z
1/2-x,1/2+y,z
x,1/2-y,1/2+z
loop_
_atom_site_type_symbol
_atom_site_label
_atom_site_fract_x
_atom_site_fract_y
_atom_site_fract_z
Si Si1 0.797419 0.000000 0.250000
Si Si2 0.092721 0.609597 0.301000
Si Si3 0.678978 0.586111 0.867445
Si Si4 0.636291 0.051861 0.958918
Si Si5 0.364555 0.211754 0.220074
Si Si6 0.887799 0.857205 0.121998
Si Si7 0.661849 0.558730 0.665011
Si Si8 0.396489 0.091393 0.022439
O O1 0.890510 0.965015 0.288174
O O2 0.707147 0.949892 0.221232
O O3 0.228826 0.623190 0.328967
O O4 0.096146 0.648994 0.251575
O O5 0.960551 0.608446 0.333784
O O6 0.781072 0.578042 0.912915
O O7 0.541184 0.623666 0.869467
O O8 0.639113 0.513518 0.852813
O O9 0.582386 0.978996 0.952319
O O10 0.750000 0.048921 0.000000
O O11 0.512321 0.092399 0.981151
O O12 0.500000 0.250000 0.221155
O O13 0.250000 0.250000 0.250000
O O14 0.341668 0.194133 0.162976
O O15 0.783231 0.913559 0.133969
O O16 0.891286 0.853022 0.063104
O O17 0.250000 0.089940 0.000000
#
# Coordination Sequence:
#
# PCOD9530181 Si02
#       8
#     8  16  16  16  16  16  16  16
#     4  10  20  36  56  88 130 160 202 256 334 400
#     4  11  24  38  61  92 128 167 214 270 326 395
#     4  11  22  35  58  93 136 175 208 254 328 411
#     4  10  19  35  53  88 139 178 205 245 318 406
#     4  12  27  48  67  89 123 174 233 283 332 389
#     4  12  23  40  61  90 124 174 226 264 326 398
#     4  11  22  32  55  90 131 169 207 253 323 402
#     4  10  22  34  58  91 133 174 212 259 320 397
#
# _framework density 20.880151999999999
#
# number of rings (size 3 to 8) (size 9 to 14) (size 15 to 20)
#    0.000    1.067    4.000    3.600    5.600    0.000 
#    0.000    0.000    0.000    0.000    6.933    0.000 
#    0.000    0.000    0.000    0.000    0.000    0.000 
#
# Total GULP energy -334345.750595 kJ/mol
# GULP energy per Si atom -5572.429177 kJ/mol
# Density = 2.083263 g / cm^3
# Si number density = 20.880152 Si / 1000 Ang^3
#
#
#
# Elastic Constant Matrix: (Units=GPa)
#
#
# Indices 1 2 3 4 5 6 
#
# 1 117.8838 18.9050 34.7026 0.0000 0.0000 0.0000
# 2 18.9050 30.7415 15.6113 0.0000 0.0000 0.0000
# 3 34.7026 15.6113 84.1272 0.0000 0.0000 0.0000
# 4 0.0000 0.0000 0.0000 15.7758 0.0000 0.0000
# 5 0.0000 0.0000 0.0000 0.0000 39.5142 0.0000
# 6 0.0000 0.0000 0.0000 0.0000 0.0000 22.5239
#
#
#
# Elastic Compliance Matrix: (Units=1/GPa)
#
#
# Indices 1 2 3 4 5 6 
#
# 1 0.010205 -0.004569 -0.003362 0.000000 0.000000 0.000000
# 2 -0.004569 0.037959 -0.005159 0.000000 0.000000 0.000000
# 3 -0.003362 -0.005159 0.014231 0.000000 0.000000 0.000000
# 4 0.000000 0.000000 0.000000 0.063388 0.000000 0.000000
# 5 0.000000 0.000000 0.000000 0.000000 0.025307 0.000000
# 6 0.000000 0.000000 0.000000 0.000000 0.000000 0.044397
#
#
# Mechanical properties :
#
#
# Convention : Reuss Voigt Hill
#
# Bulk Modulus (GPa) = 27.61261 41.24335 34.42798
# Shear Modulus (GPa) = 21.39132 26.46502 23.92817
#
# Velocity S-wave (km/s) = 3.20422 3.56402 3.38890
# Velocity P-wave (km/s) = 5.19061 6.06066 5.64243
#
# Compressibility (1/GPa) = 0.03621533
#
# Stress axis : x y z
#
# Youngs Moduli (GPa) = 97.98857 26.34426 70.26929
#
# Poissons Ratio (x) = 0.12036 0.23624
# Poissons Ratio (y) = 0.44767 0.36255
# Poissons Ratio (z) = 0.32943 0.13592
#
# Static dielectric constant tensor:
#      x y z
#    x 1.769240 0.000000 0.000000 
#    y 0.000000 1.788540 0.000000 
#    z 0.000000 0.000000 1.889960 
# 
# From -- ./inp_files/33655.got.cif
#   From: 2010.05.17/outbox.cif.g08.bks.cpg/sg73_17_cif.got.tgz:33655.got - 2010.06.03 17:35:07.
