data_PCOD9530041
_publ_section_title
;
Structure prediction by ZEFSAII (Michael W. Deem and Ramdas Pophale) SiO2 
 PCOD9530041
Probable space group: I B C A 
;
_chemical_formula_sum "Si O2"
_cell_formula_units_Z 96
_cell_length_a 14.503048
_cell_length_b 12.527251
_cell_length_c 22.693851
_cell_angle_alpha 90.000000
_cell_angle_beta 90.000000
_cell_angle_gamma 90.000000
_cell_volume 4123.094251
_symmetry_space_group_name_H-M "I B C A "
_symmetry_group_IT_number 73
_symmetry_cell_setting 'orthorhombic'
loop_
_space_group_symop_operation_xyz
x,y,z
-x,1/2-y,z
x,-y,1/2-z
1/2-x,y,-z
-x,-y,-z
x,1/2+y,-z
-x,y,1/2+z
1/2+x,-y,z
1/2+x,1/2+y,1/2+z
1/2-x,-y,1/2+z
1/2+x,1/2-y,-z
-x,1/2+y,1/2-z
1/2-x,1/2-y,1/2-z
1/2+x,y,1/2-z
1/2-x,1/2+y,z
x,1/2-y,1/2+z
loop_
_atom_site_type_symbol
_atom_site_label
_atom_site_fract_x
_atom_site_fract_y
_atom_site_fract_z
Si Si1 0.624202 0.290961 0.837104
Si Si2 0.712011 0.222182 0.097019
Si Si3 0.907301 0.595496 0.533424
Si Si4 0.029610 0.367352 0.868281
Si Si5 0.474343 0.610459 0.734752
Si Si6 0.000000 0.250000 0.052487
Si Si7 0.750000 0.061989 0.000000
O O1 0.731944 0.283806 0.851652
O O2 0.564562 0.389008 0.809146
O O3 0.593568 0.196204 0.793234
O O4 0.582618 0.262938 0.901010
O O5 0.663159 0.312917 0.057187
O O6 0.637823 0.138554 0.122958
O O7 0.765463 0.141870 0.054293
O O8 0.841281 0.511923 0.500298
O O9 0.965717 0.557173 0.591145
O O10 0.982564 0.649372 0.490246
O O11 0.000000 0.250000 0.890482
O O12 0.009817 0.365560 0.799723
O O13 0.425462 0.500000 0.750000
#
# Coordination Sequence:
#
# PCOD9530041 Si02
#       7
#    16  16  16  16  16   8   8
#     4  10  23  40  67  96 130 174 225 282 344 414
#     4  11  24  42  64  98 136 175 221 283 342 406
#     4  11  23  43  66  95 138 179 222 281 343 424
#     4  10  21  43  65  90 129 179 223 276 351 406
#     4  10  22  42  66  94 129 174 228 280 345 408
#     4  10  18  40  68  90 130 182 208 272 342 406
#     4  12  26  38  66 106 138 172 230 280 338 420
#
# _framework density 23.283484000000001
#
# number of rings (size 3 to 8) (size 9 to 14) (size 15 to 20)
#    0.000    1.667    4.167    2.500    2.333    5.333 
#    0.000    0.833    0.000    0.000    0.000    0.000 
#    0.000    0.000    0.000    0.000    0.000    0.000 
#
# Total GULP energy -267312.230828 kJ/mol
# GULP energy per Si atom -5569.004809 kJ/mol
# Density = 2.323049 g / cm^3
# Si number density = 23.283484 Si / 1000 Ang^3
#
#
#
# Elastic Constant Matrix: (Units=GPa)
#
#
# Indices 1 2 3 4 5 6 
#
# 1 52.5494 4.7753 28.1058 0.0000 0.0000 0.0000
# 2 4.7753 37.3270 12.3390 0.0000 0.0000 0.0000
# 3 28.1058 12.3390 134.4558 0.0000 0.0000 0.0000
# 4 0.0000 0.0000 0.0000 -11.1391 0.0000 0.0000
# 5 0.0000 0.0000 0.0000 0.0000 4.6758 0.0000
# 6 0.0000 0.0000 0.0000 0.0000 0.0000 33.7643
#
#
#
# Elastic Compliance Matrix: (Units=1/GPa)
#
#
# Indices 1 2 3 4 5 6 
#
# 1 0.021486 -0.001304 -0.004372 0.000000 0.000000 0.000000
# 2 -0.001304 0.027708 -0.002270 0.000000 0.000000 0.000000
# 3 -0.004372 -0.002270 0.008560 0.000000 0.000000 0.000000
# 4 0.000000 0.000000 0.000000 -0.089774 0.000000 0.000000
# 5 0.000000 0.000000 0.000000 0.000000 0.213865 0.000000
# 6 0.000000 0.000000 0.000000 0.000000 0.000000 0.029617
#
#
# Mechanical properties :
#
#
# Convention : Reuss Voigt Hill
#
# Bulk Modulus (GPa) = 23.88787 34.97472 29.43129
# Shear Modulus (GPa) = 20.72051 17.40102 19.06076
#
# Velocity S-wave (km/s) = 2.98639 2.73674 2.86429
# Velocity P-wave (km/s) = 4.70885 5.00402 4.85868
#
# Compressibility (1/GPa) = 0.04186226
#
# Stress axis : x y z
#
# Youngs Moduli (GPa) = 46.54111 36.09128 116.82826
#
# Poissons Ratio (x) = 0.04705 0.51074
# Poissons Ratio (y) = 0.06067 0.26523
# Poissons Ratio (z) = 0.20347 0.08193
#
# Static dielectric constant tensor:
#      x y z
#    x 2.143720 0.000000 0.000000 
#    y 0.000000 2.055450 0.000000 
#    z 0.000000 0.000000 1.857690 
# 
# From -- ./inp_files/26029.got.cif
#   From: 2010.05.17/outbox.cif.g08.bks.cpg/sg73_14_cif.got.tgz:26029.got - 2010.06.03 17:35:07.
