data_PCOD9530856
_publ_section_title
;
Structure prediction by ZEFSAII (Michael W. Deem and Ramdas Pophale) SiO2 
 PCOD9530856
Probable space group: I B C A 
;
_chemical_formula_sum "Si O2"
_cell_formula_units_Z 72
_cell_length_a 13.965699
_cell_length_b 19.618814
_cell_length_c 12.659488
_cell_angle_alpha 90.000000
_cell_angle_beta 90.000000
_cell_angle_gamma 90.000000
_cell_volume 3468.578827
_symmetry_space_group_name_H-M "I B C A "
_symmetry_group_IT_number 73
_symmetry_cell_setting 'orthorhombic'
loop_
_space_group_symop_operation_xyz
x,y,z
-x,1/2-y,z
x,-y,1/2-z
1/2-x,y,-z
-x,-y,-z
x,1/2+y,-z
-x,y,1/2+z
1/2+x,-y,z
1/2+x,1/2+y,1/2+z
1/2-x,-y,1/2+z
1/2+x,1/2-y,-z
-x,1/2+y,1/2-z
1/2-x,1/2-y,1/2-z
1/2+x,y,1/2-z
1/2-x,1/2+y,z
x,1/2-y,1/2+z
loop_
_atom_site_type_symbol
_atom_site_label
_atom_site_fract_x
_atom_site_fract_y
_atom_site_fract_z
Si Si1 0.769544 0.500000 0.250000
Si Si2 0.030581 0.326885 0.775479
Si Si3 0.515719 0.573496 0.584924
Si Si4 0.900859 0.059963 0.377489
Si Si5 0.158314 0.394650 0.924676
O O1 0.697551 0.453573 0.181279
O O2 0.824686 0.546073 0.163728
O O3 0.123332 0.332453 0.851006
O O4 0.000000 0.250000 0.757504
O O5 0.042447 0.369010 0.667666
O O6 0.948426 0.371490 0.833741
O O7 0.472651 0.505162 0.637633
O O8 0.603226 0.562321 0.504476
O O9 0.428107 0.593713 0.507254
O O10 0.250000 0.386847 0.000000
#
# Coordination Sequence:
#
# PCOD9530856 Si02
#       5
#     8  16  16  16  16
#     4  12  22  38  66 104 134 162 212 294 344 364
#     4  11  24  42  67  93 132 183 218 260 327 407
#     4  10  21  39  65  95 129 177 229 265 313 397
#     4  10  20  38  65  92 129 168 223 269 321 390
#     4  11  24  40  68 102 133 162 217 287 328 377
#
# _framework density 20.75778
#
# number of rings (size 3 to 8) (size 9 to 14) (size 15 to 20)
#    0.000    1.333    4.444    0.000    9.333    3.556 
#    0.000    4.444    4.889    0.000    0.000    0.000 
#    0.000    0.000    0.000    0.000    0.000    0.000 
#
# Total GULP energy -200852.750097 kJ/mol
# GULP energy per Si atom -5579.243058 kJ/mol
# Density = 2.071053 g / cm^3
# Si number density = 20.757780 Si / 1000 Ang^3
#
#
#
# Elastic Constant Matrix: (Units=GPa)
#
#
# Indices 1 2 3 4 5 6 
#
# 1 77.4209 6.3075 48.6018 0.0000 0.0000 0.0000
# 2 6.3075 119.1122 62.5345 0.0000 0.0000 0.0000
# 3 48.6018 62.5345 158.4066 0.0001 0.0000 0.0000
# 4 0.0000 0.0000 0.0001 13.0865 0.0000 0.0000
# 5 0.0000 0.0000 0.0000 0.0000 51.3620 0.0000
# 6 0.0000 0.0000 0.0000 0.0000 0.0000 23.0133
#
#
#
# Elastic Compliance Matrix: (Units=1/GPa)
#
#
# Indices 1 2 3 4 5 6 
#
# 1 0.016460 0.002245 -0.005937 0.000000 0.000000 0.000000
# 2 0.002245 0.010897 -0.004991 0.000000 0.000000 0.000000
# 3 -0.005937 -0.004991 0.010104 0.000000 0.000000 0.000000
# 4 0.000000 0.000000 0.000000 0.076415 0.000000 0.000000
# 5 0.000000 0.000000 0.000000 0.000000 0.019470 0.000000
# 6 0.000000 0.000000 0.000000 0.000000 0.000000 0.043453
#
#
# Mechanical properties :
#
#
# Convention : Reuss Voigt Hill
#
# Bulk Modulus (GPa) = 49.75797 65.53638 57.64717
# Shear Modulus (GPa) = 24.89276 33.32543 29.10909
#
# Velocity S-wave (km/s) = 3.46671 4.01114 3.74882
# Velocity P-wave (km/s) = 6.32826 7.28649 6.82421
#
# Compressibility (1/GPa) = 0.02009728
#
# Stress axis : x y z
#
# Youngs Moduli (GPa) = 60.75243 91.77173 98.96656
#
# Poissons Ratio (x) = -0.20604 0.58752
# Poissons Ratio (y) = -0.13639 0.49389
# Poissons Ratio (z) = 0.36066 0.45799
#
# Static dielectric constant tensor:
#      x y z
#    x 1.789200 0.000000 0.000000 
#    y 0.000000 1.725490 0.000000 
#    z 0.000000 0.000000 1.818320 
# 
# From -- ./inp_files/16803.got.cif
#   From: 2010.05.17/outbox.cif.g08.bks.cpg/sg73_9_cif.got.tgz:16803.got - 2010.06.03 17:35:07.
