data_PCOD9530655
_publ_section_title
;
Structure prediction by ZEFSAII (Michael W. Deem and Ramdas Pophale) SiO2 
 PCOD9530655
Probable space group: I B C A 
;
_chemical_formula_sum "Si O2"
_cell_formula_units_Z 96
_cell_length_a 8.004061
_cell_length_b 28.643367
_cell_length_c 19.867218
_cell_angle_alpha 90.000000
_cell_angle_beta 90.000000
_cell_angle_gamma 90.000000
_cell_volume 4554.823101
_symmetry_space_group_name_H-M "I B C A "
_symmetry_group_IT_number 73
_symmetry_cell_setting 'orthorhombic'
loop_
_space_group_symop_operation_xyz
x,y,z
-x,1/2-y,z
x,-y,1/2-z
1/2-x,y,-z
-x,-y,-z
x,1/2+y,-z
-x,y,1/2+z
1/2+x,-y,z
1/2+x,1/2+y,1/2+z
1/2-x,-y,1/2+z
1/2+x,1/2-y,-z
-x,1/2+y,1/2-z
1/2-x,1/2-y,1/2-z
1/2+x,y,1/2-z
1/2-x,1/2+y,z
x,1/2-y,1/2+z
loop_
_atom_site_type_symbol
_atom_site_label
_atom_site_fract_x
_atom_site_fract_y
_atom_site_fract_z
Si Si1 0.520011 0.143563 0.120823
Si Si2 0.618229 0.786908 0.781417
Si Si3 0.447032 0.544561 0.334037
Si Si4 0.551517 0.697004 0.509678
Si Si5 0.587232 0.158241 0.851098
Si Si6 0.054121 0.554979 0.320933
O O1 0.378613 0.171025 0.164626
O O2 0.486130 0.088274 0.123761
O O3 0.524899 0.162900 0.045909
O O4 0.708697 0.153259 0.149554
O O5 0.500000 0.750000 0.818815
O O6 0.750000 0.750000 0.750000
O O7 0.543460 0.812239 0.715365
O O8 0.250324 0.550180 0.329897
O O9 0.479604 0.491299 0.354925
O O10 0.514910 0.551750 0.258334
O O11 0.500000 0.750000 0.495728
O O12 0.750000 0.693207 0.500000
O O13 0.481735 0.683434 0.582937
O O14 0.509687 0.106396 0.846472
#
# Coordination Sequence:
#
# PCOD9530655 Si02
#       6
#    16  16  16  16  16  16
#     4  11  24  43  63  92 131 170 213 263 323 380
#     4  12  24  38  64  95 128 167 214 272 317 373
#     4  10  20  36  61  92 126 163 204 265 320 379
#     4  12  28  44  66  91 129 174 216 261 318 389
#     4  11  24  43  64  93 129 171 213 266 322 378
#     4  10  20  36  61  93 127 163 205 262 323 376
#
# _framework density 21.076560000000001
#
# number of rings (size 3 to 8) (size 9 to 14) (size 15 to 20)
#    0.000    1.000    3.333    4.500    4.667    2.667 
#    0.000    0.833    0.000    0.000    0.000    0.000 
#    0.000    0.000    0.000    0.000    0.000    0.000 
#
# Total GULP energy -267847.558973 kJ/mol
# GULP energy per Si atom -5580.157479 kJ/mol
# Density = 2.102859 g / cm^3
# Si number density = 21.076560 Si / 1000 Ang^3
#
#
#
# Elastic Constant Matrix: (Units=GPa)
#
#
# Indices 1 2 3 4 5 6 
#
# 1 41.9205 21.1832 -8.2728 0.0000 0.0000 0.0000
# 2 21.1832 179.3652 40.7332 0.0000 0.0000 0.0001
# 3 -8.2728 40.7332 91.0364 -0.0002 0.0000 0.0005
# 4 0.0000 0.0000 -0.0002 35.2863 0.0000 0.0002
# 5 0.0000 0.0000 0.0000 0.0000 3.5012 -0.0001
# 6 0.0000 0.0001 0.0005 0.0002 -0.0001 67.3177
#
#
#
# Elastic Compliance Matrix: (Units=1/GPa)
#
#
# Indices 1 2 3 4 5 6 
#
# 1 0.026791 -0.004137 0.004286 0.000000 0.000000 0.000000
# 2 -0.004137 0.006845 -0.003439 0.000000 0.000000 0.000000
# 3 0.004286 -0.003439 0.012913 0.000000 0.000000 0.000000
# 4 0.000000 0.000000 0.000000 0.028340 0.000000 0.000000
# 5 0.000000 0.000000 0.000000 0.000000 0.285618 0.000001
# 6 0.000000 0.000000 0.000000 0.000000 0.000001 0.014855
#
#
# Mechanical properties :
#
#
# Convention : Reuss Voigt Hill
#
# Bulk Modulus (GPa) = 25.01985 46.62327 35.82156
# Shear Modulus (GPa) = 12.64977 38.46628 25.55802
#
# Velocity S-wave (km/s) = 2.45252 4.27672 3.48606
# Velocity P-wave (km/s) = 4.46279 6.82320 5.76509
#
# Compressibility (1/GPa) = 0.03996827
#
# Stress axis : x y z
#
# Youngs Moduli (GPa) = 37.32578 146.09772 77.44352
#
# Poissons Ratio (x) = 0.60446 -0.33191
# Poissons Ratio (y) = 0.15443 0.26630
# Poissons Ratio (z) = -0.15997 0.50237
#
# Static dielectric constant tensor:
#      x y z
#    x 1.877210 0.000000 0.000000 
#    y 0.000000 1.787390 0.000000 
#    z 0.000000 0.000000 1.682980 
# 
# From -- ./inp_files/6448.got.cif
#   From: 2010.05.17/outbox.cif.g08.bks.cpg/sg73_4_cif.got.tgz:6448.got - 2010.06.03 17:35:07.
