data_PCOD9530840
_publ_section_title
;
Structure prediction by ZEFSAII (Michael W. Deem and Ramdas Pophale) SiO2 
 PCOD9530840
Probable space group: I B C A 
;
_chemical_formula_sum "Si O2"
_cell_formula_units_Z 88
_cell_length_a 16.717550
_cell_length_b 26.621590
_cell_length_c 9.090032
_cell_angle_alpha 90.000000
_cell_angle_beta 90.000000
_cell_angle_gamma 90.000000
_cell_volume 4045.498397
_symmetry_space_group_name_H-M "I B C A "
_symmetry_group_IT_number 73
_symmetry_cell_setting 'orthorhombic'
loop_
_space_group_symop_operation_xyz
x,y,z
-x,1/2-y,z
x,-y,1/2-z
1/2-x,y,-z
-x,-y,-z
x,1/2+y,-z
-x,y,1/2+z
1/2+x,-y,z
1/2+x,1/2+y,1/2+z
1/2-x,-y,1/2+z
1/2+x,1/2-y,-z
-x,1/2+y,1/2-z
1/2-x,1/2-y,1/2-z
1/2+x,y,1/2-z
1/2-x,1/2+y,z
x,1/2-y,1/2+z
loop_
_atom_site_type_symbol
_atom_site_label
_atom_site_fract_x
_atom_site_fract_y
_atom_site_fract_z
Si Si1 0.930390 0.791858 0.350107
Si Si2 0.011730 0.645176 0.591443
Si Si3 0.116287 0.554607 0.704421
Si Si4 0.750000 0.911682 0.500000
Si Si5 0.148479 0.367196 0.567602
Si Si6 0.721064 0.833386 0.758507
O O1 0.968228 0.826074 0.222122
O O2 0.837877 0.788511 0.292271
O O3 0.000000 0.750000 0.369341
O O4 0.925193 0.819228 0.508283
O O5 0.944707 0.637270 0.467218
O O6 0.049675 0.593739 0.648040
O O7 0.086911 0.500000 0.750000
O O8 0.181457 0.554902 0.574283
O O9 0.157123 0.580276 0.847704
O O10 0.720066 0.874277 0.628646
O O11 0.186123 0.358684 0.407491
O O12 0.187302 0.327519 0.683617
#
# Coordination Sequence:
#
# PCOD9530840 Si02
#       6
#    16  16  16   8  16  16
#     4  11  22  39  67  97 129 178 231 278 350 412
#     4  11  21  41  62  93 136 175 221 292 342 411
#     4  11  23  38  63  96 132 181 231 278 349 424
#     4  10  20  38  64  90 128 178 224 274 346 408
#     4   9  20  39  61  87 136 176 216 276 349 396
#     4   9  19  38  65  91 128 180 220 280 341 405
#
# _framework density 21.752572000000001
#
# number of rings (size 3 to 8) (size 9 to 14) (size 15 to 20)
#    0.000    1.818    3.636    0.545    0.000    3.636 
#    0.000    0.909    0.000    3.273    0.000    0.000 
#    0.000    0.000    0.000    0.000    0.000    0.000 
#
# Total GULP energy -244940.183385 kJ/mol
# GULP energy per Si atom -5566.822350 kJ/mol
# Density = 2.170306 g / cm^3
# Si number density = 21.752572 Si / 1000 Ang^3
#
#
#
# Elastic Constant Matrix: (Units=GPa)
#
#
# Indices 1 2 3 4 5 6 
#
# 1 69.9258 39.5040 19.8662 -0.0001 0.0000 0.0000
# 2 39.5040 121.3610 33.8459 0.0002 0.0000 0.0000
# 3 19.8662 33.8459 113.9001 0.0025 0.0000 0.0008
# 4 -0.0001 0.0002 0.0025 -1.5544 0.0002 0.0007
# 5 0.0000 0.0000 0.0000 0.0002 10.3524 0.0000
# 6 0.0000 0.0000 0.0008 0.0007 0.0000 35.9738
#
#
#
# Elastic Compliance Matrix: (Units=1/GPa)
#
#
# Indices 1 2 3 4 5 6 
#
# 1 0.017757 -0.005360 -0.001504 -0.000004 0.000000 0.000000
# 2 -0.005360 0.010603 -0.002216 -0.000002 0.000000 0.000000
# 3 -0.001504 -0.002216 0.009700 0.000016 0.000000 0.000000
# 4 -0.000004 -0.000002 0.000016 -0.643331 0.000012 0.000013
# 5 0.000000 0.000000 0.000000 0.000012 0.096596 0.000000
# 6 0.000000 0.000000 0.000000 0.000013 0.000000 0.027798
#
#
# Mechanical properties :
#
#
# Convention : Reuss Voigt Hill
#
# Bulk Modulus (GPa) = 50.25370 54.62436 52.43903
# Shear Modulus (GPa) = -10.96290 23.08574 6.06142
#
# Velocity S-wave (km/s) = -2.24739 3.26128 1.67110
# Velocity P-wave (km/s) = 4.05194 6.27275 5.28042
#
# Compressibility (1/GPa) = 0.01989903
#
# Stress axis : x y z
#
# Youngs Moduli (GPa) = 56.31732 94.31605 103.08876
#
# Poissons Ratio (x) = 0.50557 0.15507
# Poissons Ratio (y) = 0.30188 0.22841
# Poissons Ratio (z) = 0.08471 0.20897
#
# Static dielectric constant tensor:
#      x y z
#    x 2.049080 0.000000 0.000000 
#    y 0.000000 1.793700 0.000000 
#    z 0.000000 0.000000 1.781120 
# 
# From -- ./inp_files/6257.got.cif
#   From: 2010.05.17/outbox.cif.g08.bks.cpg/sg73_4_cif.got.tgz:6257.got - 2010.06.03 17:35:07.
