data_PCOD9530749
_publ_section_title
;
Structure prediction by ZEFSAII (Michael W. Deem and Ramdas Pophale) SiO2 
 PCOD9530749
Probable space group: I B C A 
;
_chemical_formula_sum "Si O2"
_cell_formula_units_Z 72
_cell_length_a 16.412160
_cell_length_b 9.033680
_cell_length_c 19.808790
_cell_angle_alpha 90.000000
_cell_angle_beta 90.000000
_cell_angle_gamma 90.000000
_cell_volume 2936.894815
_symmetry_space_group_name_H-M "I B C A "
_symmetry_group_IT_number 73
_symmetry_cell_setting 'orthorhombic'
loop_
_space_group_symop_operation_xyz
x,y,z
-x,1/2-y,z
x,-y,1/2-z
1/2-x,y,-z
-x,-y,-z
x,1/2+y,-z
-x,y,1/2+z
1/2+x,-y,z
1/2+x,1/2+y,1/2+z
1/2-x,-y,1/2+z
1/2+x,1/2-y,-z
-x,1/2+y,1/2-z
1/2-x,1/2-y,1/2-z
1/2+x,y,1/2-z
1/2-x,1/2+y,z
x,1/2-y,1/2+z
loop_
_atom_site_type_symbol
_atom_site_label
_atom_site_fract_x
_atom_site_fract_y
_atom_site_fract_z
Si Si1 0.054116 0.472714 0.901686
Si Si2 0.000000 0.250000 0.800523
Si Si3 0.250000 0.302533 0.000000
Si Si4 0.000000 0.750000 0.491402
Si Si5 0.324583 0.661483 0.782226
Si Si6 0.280522 0.569107 0.097283
O O1 0.997316 0.399063 0.846051
O O2 0.022250 0.613649 0.942498
O O3 0.136939 0.524236 0.865337
O O4 0.061764 0.336762 0.956452
O O5 0.089558 0.243090 0.768795
O O6 0.258937 0.417199 0.060840
O O7 0.193221 0.182079 0.037782
O O8 0.329768 0.500000 0.750000
O O9 0.250000 0.750000 0.750000
O O10 0.293491 0.633516 0.859368
#
# Coordination Sequence:
#
# PCOD9530749 Si02
#       6
#    16   8   8   8  16  16
#     4  10  20  37  62  95 141 181 232 285 349 428
#     4  11  26  46  67 100 136 180 241 305 364 434
#     4  10  22  36  66 102 140 172 224 286 344 418
#     4   9  20  34  59 100 142 190 221 279 356 424
#     4  12  28  50  75 102 140 188 244 303 363 436
#     4  11  22  41  67 101 134 181 228 282 349 414
#
# _framework density 24.515688999999998
#
# number of rings (size 3 to 8) (size 9 to 14) (size 15 to 20)
#    0.000    1.333    0.000    5.333    0.000   15.111 
#    0.000    0.000    0.000    0.000    0.000    0.000 
#    0.000    0.000    0.000    0.000    0.000    0.000 
#
# Total GULP energy -200498.793674 kJ/mol
# GULP energy per Si atom -5569.410935 kJ/mol
# Density = 2.445989 g / cm^3
# Si number density = 24.515689 Si / 1000 Ang^3
#
#
#
# Elastic Constant Matrix: (Units=GPa)
#
#
# Indices 1 2 3 4 5 6 
#
# 1 132.6619 45.4744 23.7162 0.0000 0.0000 0.0000
# 2 45.4744 176.1814 35.8802 0.0000 0.0000 0.0000
# 3 23.7162 35.8802 40.3997 0.0000 0.0000 0.0000
# 4 0.0000 0.0000 0.0000 41.9612 0.0000 0.0000
# 5 0.0000 0.0000 0.0000 0.0000 29.7189 0.0000
# 6 0.0000 0.0000 0.0000 0.0000 0.0000 22.6783
#
#
#
# Elastic Compliance Matrix: (Units=1/GPa)
#
#
# Indices 1 2 3 4 5 6 
#
# 1 0.008725 -0.001476 -0.003811 0.000000 0.000000 0.000000
# 2 -0.001476 0.007179 -0.005509 0.000000 0.000000 0.000000
# 3 -0.003811 -0.005509 0.031883 0.000000 0.000000 0.000000
# 4 0.000000 0.000000 0.000000 0.023832 0.000000 0.000000
# 5 0.000000 0.000000 0.000000 0.000000 0.033649 0.000000
# 6 0.000000 0.000000 0.000000 0.000000 0.000000 0.044095
#
#
# Mechanical properties :
#
#
# Convention : Reuss Voigt Hill
#
# Bulk Modulus (GPa) = 38.17655 62.15384 50.16519
# Shear Modulus (GPa) = 27.82618 35.14982 31.48800
#
# Velocity S-wave (km/s) = 3.37268 3.79062 3.58774
# Velocity P-wave (km/s) = 5.54732 6.67579 6.13754
#
# Compressibility (1/GPa) = 0.02619409
#
# Stress axis : x y z
#
# Youngs Moduli (GPa) = 114.61027 139.29645 31.36461
#
# Poissons Ratio (x) = 0.20559 0.11954
# Poissons Ratio (y) = 0.16915 0.17280
# Poissons Ratio (z) = 0.43681 0.76744
#
# Static dielectric constant tensor:
#      x y z
#    x 1.993470 0.000000 0.000000 
#    y 0.000000 1.960060 0.000000 
#    z 0.000000 0.000000 2.033620 
# 
# From -- ./inp_files/6050.got.cif
#   From: 2010.05.17/outbox.cif.g08.bks.cpg/sg73_4_cif.got.tgz:6050.got - 2010.06.03 17:35:07.
