data_PCOD9530797
_publ_section_title
;
Structure prediction by ZEFSAII (Michael W. Deem and Ramdas Pophale) SiO2 
 PCOD9530797
Probable space group: I B C A 
;
_chemical_formula_sum "Si O2"
_cell_formula_units_Z 120
_cell_length_a 12.914211
_cell_length_b 15.788764
_cell_length_c 26.947265
_cell_angle_alpha 90.000000
_cell_angle_beta 90.000000
_cell_angle_gamma 90.000000
_cell_volume 5494.531966
_symmetry_space_group_name_H-M "I B C A "
_symmetry_group_IT_number 73
_symmetry_cell_setting 'orthorhombic'
loop_
_space_group_symop_operation_xyz
x,y,z
-x,1/2-y,z
x,-y,1/2-z
1/2-x,y,-z
-x,-y,-z
x,1/2+y,-z
-x,y,1/2+z
1/2+x,-y,z
1/2+x,1/2+y,1/2+z
1/2-x,-y,1/2+z
1/2+x,1/2-y,-z
-x,1/2+y,1/2-z
1/2-x,1/2-y,1/2-z
1/2+x,y,1/2-z
1/2-x,1/2+y,z
x,1/2-y,1/2+z
loop_
_atom_site_type_symbol
_atom_site_label
_atom_site_fract_x
_atom_site_fract_y
_atom_site_fract_z
Si Si1 0.750000 0.116798 0.500000
Si Si2 0.392307 0.795410 0.568475
Si Si3 0.861407 0.110410 0.661469
Si Si4 0.472278 0.351012 0.136781
Si Si5 0.759591 0.357215 0.613686
Si Si6 0.670356 0.287517 0.288554
Si Si7 0.329214 0.542110 0.896855
Si Si8 0.997920 0.912067 0.247918
O O1 0.652366 0.171519 0.482824
O O2 0.783753 0.069095 0.450200
O O3 0.500000 0.750000 0.563595
O O4 0.409634 0.874111 0.606900
O O5 0.307019 0.726791 0.588120
O O6 0.863560 0.206422 0.680630
O O7 0.749999 0.072418 0.647124
O O8 0.919221 0.068237 0.707851
O O9 0.500000 0.250000 0.136567
O O10 0.364163 0.364706 0.107573
O O11 0.564056 0.408809 0.113956
O O12 0.462349 0.383071 0.194033
O O13 0.773547 0.346985 0.672551
O O14 0.825030 0.440659 0.601223
O O15 0.750000 0.250000 0.250000
O O16 0.576111 0.336451 0.264691
O O17 0.934647 0.000000 0.250000
#
# Coordination Sequence:
#
# PCOD9530797 Si02
#       8
#     8  16  16  16  16  16  16  16
#     4  10  24  44  68  96 128 176 230 278 342 414
#     4  10  22  42  68  94 126 171 220 272 339 413
#     4  10  20  38  60  86 126 169 211 257 322 406
#     4  12  24  42  67  98 137 181 226 279 341 408
#     4  11  24  42  67  99 134 173 221 283 342 401
#     4  11  21  36  57  87 128 175 220 260 320 404
#     4  11  25  45  66  97 134 172 221 288 345 393
#     4  12  23  36  62  98 130 173 224 275 332 398
#
# _framework density 21.839896
#
# number of rings (size 3 to 8) (size 9 to 14) (size 15 to 20)
#    0.000    1.067    0.000    9.200    0.000    4.267 
#    0.000    4.000    0.000    0.000    0.000    0.000 
#    0.000    0.000    0.000    0.000    0.000    0.000 
#
# Total GULP energy -334835.655002 kJ/mol
# GULP energy per Si atom -5580.594250 kJ/mol
# Density = 2.179019 g / cm^3
# Si number density = 21.839896 Si / 1000 Ang^3
#
#
#
# Elastic Constant Matrix: (Units=GPa)
#
#
# Indices 1 2 3 4 5 6 
#
# 1 88.5003 9.1466 31.0575 0.0000 0.0000 0.0000
# 2 9.1466 91.0621 15.7109 0.0000 0.0000 0.0000
# 3 31.0575 15.7109 95.2926 0.0000 0.0000 0.0000
# 4 0.0000 0.0000 0.0000 -8.3742 0.0000 0.0000
# 5 0.0000 0.0000 0.0000 0.0000 20.0994 0.0000
# 6 0.0000 0.0000 0.0000 0.0000 0.0000 25.5551
#
#
#
# Elastic Compliance Matrix: (Units=1/GPa)
#
#
# Indices 1 2 3 4 5 6 
#
# 1 0.012789 -0.000582 -0.004072 0.000000 0.000000 0.000000
# 2 -0.000582 0.011330 -0.001678 0.000000 0.000000 0.000000
# 3 -0.004072 -0.001678 0.012098 0.000000 0.000000 0.000000
# 4 0.000000 0.000000 0.000000 -0.119414 0.000000 0.000000
# 5 0.000000 0.000000 0.000000 0.000000 0.049753 0.000000
# 6 0.000000 0.000000 0.000000 0.000000 0.000000 0.039131
#
#
# Mechanical properties :
#
#
# Convention : Reuss Voigt Hill
#
# Bulk Modulus (GPa) = 42.46035 42.96501 42.71268
# Shear Modulus (GPa) = 190.83445 22.05207 106.44326
#
# Velocity S-wave (km/s) = 9.35781 3.18105 6.98883
# Velocity P-wave (km/s) = 11.67227 5.76260 9.20460
#
# Compressibility (1/GPa) = 0.02355138
#
# Stress axis : x y z
#
# Youngs Moduli (GPa) = 78.19494 88.26506 82.65946
#
# Poissons Ratio (x) = 0.05137 0.33659
# Poissons Ratio (y) = 0.04551 0.13872
# Poissons Ratio (z) = 0.31841 0.14813
#
# Static dielectric constant tensor:
#      x y z
#    x 1.835760 0.000000 0.000000 
#    y 0.000000 1.845020 0.000000 
#    z 0.000000 0.000000 1.863620 
# 
# From -- ./inp_files/34134.got.cif
#   From: 2010.05.17/outbox.cif.g08.bks.cpg/sg73_18_cif.got.tgz:34134.got - 2010.06.03 17:35:07.
