data_PCOD9530139
_publ_section_title
;
Structure prediction by ZEFSAII (Michael W. Deem and Ramdas Pophale) SiO2 
 PCOD9530139
Probable space group: I B C A 
;
_chemical_formula_sum "Si O2"
_cell_formula_units_Z 72
_cell_length_a 30.205837
_cell_length_b 5.182265
_cell_length_c 25.377529
_cell_angle_alpha 90.000000
_cell_angle_beta 90.000000
_cell_angle_gamma 90.000000
_cell_volume 3972.462668
_symmetry_space_group_name_H-M "I B C A "
_symmetry_group_IT_number 73
_symmetry_cell_setting 'orthorhombic'
loop_
_space_group_symop_operation_xyz
x,y,z
-x,1/2-y,z
x,-y,1/2-z
1/2-x,y,-z
-x,-y,-z
x,1/2+y,-z
-x,y,1/2+z
1/2+x,-y,z
1/2+x,1/2+y,1/2+z
1/2-x,-y,1/2+z
1/2+x,1/2-y,-z
-x,1/2+y,1/2-z
1/2-x,1/2-y,1/2-z
1/2+x,y,1/2-z
1/2-x,1/2+y,z
x,1/2-y,1/2+z
loop_
_atom_site_type_symbol
_atom_site_label
_atom_site_fract_x
_atom_site_fract_y
_atom_site_fract_z
Si Si1 0.628367 0.427757 0.309838
Si Si2 0.230647 0.771836 0.809767
Si Si3 0.053465 0.230851 0.469446
Si Si4 0.085039 0.090272 0.354234
Si Si5 0.500000 0.250000 0.714506
O O1 0.615387 0.500000 0.250000
O O2 0.679238 0.337194 0.308291
O O3 0.621742 0.693460 0.341122
O O4 0.600233 0.192542 0.334726
O O5 0.250000 0.750000 0.750000
O O6 0.241756 0.500915 0.835621
O O7 0.066294 0.520782 0.486037
O O8 0.072680 0.121545 0.415193
O O9 0.000000 0.250000 0.464781
O O10 0.041777 0.174871 0.321267
O O11 0.490138 0.500000 0.750000
#
# Coordination Sequence:
#
# PCOD9530139 Si02
#       5
#    16  16  16  16   8
#     4  12  23  35  56  85 122 162 189 232 280 339
#     4  10  19  34  54  76 111 155 190 232 276 326
#     4  10  21  40  64  82 105 147 201 264 307 327
#     4  12  24  38  56  85 117 152 209 235 279 355
#     4  12  24  40  50  74 120 170 194 220 262 334
#
# _framework density 18.124777999999999
#
# number of rings (size 3 to 8) (size 9 to 14) (size 15 to 20)
#    0.000    0.889    3.333    6.667    3.111    0.000 
#    0.000    0.000    0.000    0.000    0.000    0.000 
#    0.000   62.222    0.000    0.000    0.000    0.000 
#
# Total GULP energy -200960.896191 kJ/mol
# GULP energy per Si atom -5582.247116 kJ/mol
# Density = 1.808353 g / cm^3
# Si number density = 18.124778 Si / 1000 Ang^3
#
#
#
# Elastic Constant Matrix: (Units=GPa)
#
#
# Indices 1 2 3 4 5 6 
#
# 1 66.1412 8.1099 16.9120 0.0000 0.0000 0.0000
# 2 8.1099 135.2113 29.0777 0.0000 0.0000 0.0000
# 3 16.9120 29.0777 80.9353 0.0000 0.0000 0.0000
# 4 0.0000 0.0000 0.0000 24.4513 0.0000 0.0000
# 5 0.0000 0.0000 0.0000 0.0000 6.3023 0.0000
# 6 0.0000 0.0000 0.0000 0.0000 0.0000 30.7681
#
#
#
# Elastic Compliance Matrix: (Units=1/GPa)
#
#
# Indices 1 2 3 4 5 6 
#
# 1 0.015981 -0.000261 -0.003246 0.000000 0.000000 0.000000
# 2 -0.000261 0.008019 -0.002827 0.000000 0.000000 0.000000
# 3 -0.003246 -0.002827 0.014049 0.000000 0.000000 0.000000
# 4 0.000000 0.000000 0.000000 0.040898 0.000000 0.000000
# 5 0.000000 0.000000 0.000000 0.000000 0.158673 0.000000
# 6 0.000000 0.000000 0.000000 0.000000 0.000000 0.032501
#
#
# Mechanical properties :
#
#
# Convention : Reuss Voigt Hill
#
# Bulk Modulus (GPa) = 39.39524 43.38746 41.39135
# Shear Modulus (GPa) = 17.16747 27.51688 22.34217
#
# Velocity S-wave (km/s) = 3.08097 3.90062 3.51477
# Velocity P-wave (km/s) = 5.86850 6.65407 6.27359
#
# Compressibility (1/GPa) = 0.02538378
#
# Stress axis : x y z
#
# Youngs Moduli (GPa) = 62.57417 124.69848 71.17786
#
# Poissons Ratio (x) = 0.03249 0.23103
# Poissons Ratio (y) = 0.01630 0.20120
# Poissons Ratio (z) = 0.20310 0.35248
#
# Static dielectric constant tensor:
#      x y z
#    x 1.633610 0.000000 0.000000 
#    y 0.000000 1.692730 0.000000 
#    z 0.000000 0.000000 1.595430 
# 
# From -- ./inp_files/1693.got.cif
#   From: 2010.05.17/outbox.cif.g08.bks.cpg/sg73_1_cif.got.tgz:1693.got - 2010.06.03 17:35:07.
