data_PCOD9530831
_publ_section_title
;
Structure prediction by ZEFSAII (Michael W. Deem and Ramdas Pophale) SiO2 
 PCOD9530831
Probable space group: I B C A 
;
_chemical_formula_sum "Si O2"
_cell_formula_units_Z 112
_cell_length_a 13.817343
_cell_length_b 10.589497
_cell_length_c 33.876787
_cell_angle_alpha 90.000000
_cell_angle_beta 90.000000
_cell_angle_gamma 90.000000
_cell_volume 4956.807849
_symmetry_space_group_name_H-M "I B C A "
_symmetry_group_IT_number 73
_symmetry_cell_setting 'orthorhombic'
loop_
_space_group_symop_operation_xyz
x,y,z
-x,1/2-y,z
x,-y,1/2-z
1/2-x,y,-z
-x,-y,-z
x,1/2+y,-z
-x,y,1/2+z
1/2+x,-y,z
1/2+x,1/2+y,1/2+z
1/2-x,-y,1/2+z
1/2+x,1/2-y,-z
-x,1/2+y,1/2-z
1/2-x,1/2-y,1/2-z
1/2+x,y,1/2-z
1/2-x,1/2+y,z
x,1/2-y,1/2+z
loop_
_atom_site_type_symbol
_atom_site_label
_atom_site_fract_x
_atom_site_fract_y
_atom_site_fract_z
Si Si1 0.090791 0.667483 0.207101
Si Si2 0.718943 0.636665 0.420877
Si Si3 0.088750 0.656785 0.543509
Si Si4 0.235315 0.000000 0.750000
Si Si5 0.894387 0.462989 0.642291
Si Si6 0.750000 0.974342 0.500000
Si Si7 0.585005 0.940278 0.104915
Si Si8 0.695511 0.605083 0.829636
O O1 0.163844 0.616637 0.240143
O O2 0.067297 0.547745 0.179207
O O3 0.147550 0.762062 0.178513
O O4 0.000000 0.750000 0.221636
O O5 0.662115 0.764475 0.428897
O O6 0.657414 0.555307 0.389579
O O7 0.728791 0.559310 0.461776
O O8 0.829839 0.653890 0.407465
O O9 0.155217 0.610483 0.507668
O O10 0.059153 0.532902 0.568144
O O11 0.000000 0.750000 0.534020
O O12 0.298525 0.970698 0.788344
O O13 0.806641 0.379114 0.657703
O O14 0.984651 0.395310 0.622674
O O15 0.636835 0.027664 0.137937
#
# Coordination Sequence:
#
# PCOD9530831 Si02
#       8
#    16  16  16   8  16   8  16  16
#     4  11  21  38  66  91 124 168 215 255 317 385
#     4  10  21  37  61  90 123 155 210 258 309 372
#     4  11  21  38  65  86 118 167 213 249 319 383
#     4  10  24  40  58  92 128 168 204 260 324 380
#     4  10  20  38  63  94 116 162 213 257 312 371
#     4  10  24  40  52  92 128 160 200 260 314 376
#     4  10  20  38  64  92 117 161 210 267 305 375
#     4  10  21  37  63  90 129 156 208 261 312 374
#
# _framework density 22.595186000000002
#
# number of rings (size 3 to 8) (size 9 to 14) (size 15 to 20)
#    0.000    1.714    2.857    1.714    0.000    1.143 
#    2.571    0.000    0.000   10.286    0.000    0.000 
#    0.000    0.000    0.000    0.000    0.000    0.000 
#
# Total GULP energy -313138.800697 kJ/mol
# GULP energy per Si atom -5591.764298 kJ/mol
# Density = 2.254376 g / cm^3
# Si number density = 22.595186 Si / 1000 Ang^3
#
#
#
# Elastic Constant Matrix: (Units=GPa)
#
#
# Indices 1 2 3 4 5 6 
#
# 1 93.1707 -0.3910 -4.1780 0.0000 0.0000 0.0000
# 2 -0.3910 35.7689 -9.6776 0.0000 0.0000 0.0000
# 3 -4.1780 -9.6776 68.0352 0.0000 0.0000 0.0000
# 4 0.0000 0.0000 0.0000 18.5382 0.0000 0.0000
# 5 0.0000 0.0000 0.0000 0.0000 21.1029 0.0000
# 6 0.0000 0.0000 0.0000 0.0000 0.0000 24.2381
#
#
#
# Elastic Compliance Matrix: (Units=1/GPa)
#
#
# Indices 1 2 3 4 5 6 
#
# 1 0.010766 0.000308 0.000705 0.000000 0.000000 0.000000
# 2 0.000308 0.029085 0.004156 0.000000 0.000000 0.000000
# 3 0.000705 0.004156 0.015333 0.000000 0.000000 0.000000
# 4 0.000000 0.000000 0.000000 0.053943 0.000000 0.000000
# 5 0.000000 0.000000 0.000000 0.000000 0.047387 0.000000
# 6 0.000000 0.000000 0.000000 0.000000 0.000000 0.041257
#
#
# Mechanical properties :
#
#
# Convention : Reuss Voigt Hill
#
# Bulk Modulus (GPa) = 15.26185 18.72017 16.99101
# Shear Modulus (GPa) = 23.89228 26.85725 25.37477
#
# Velocity S-wave (km/s) = 3.25531 3.45139 3.35478
# Velocity P-wave (km/s) = 4.57149 4.91790 4.74786
#
# Compressibility (1/GPa) = 0.06552284
#
# Stress axis : x y z
#
# Youngs Moduli (GPa) = 92.88590 34.38189 65.21984
#
# Poissons Ratio (x) = -0.01060 -0.04598
# Poissons Ratio (y) = -0.02865 -0.27106
# Poissons Ratio (z) = -0.06549 -0.14289
#
# Static dielectric constant tensor:
#      x y z
#    x 1.837370 0.000000 0.000000 
#    y 0.000000 1.830110 0.000000 
#    z 0.000000 0.000000 1.849040 
# 
# From -- ./inp_files/34347.got.cif
#   From: 2010.05.17/outbox.cif.g08.bks.cpg/sg73_18_cif.got.tgz:34347.got - 2010.06.03 17:35:07.
