data_PCOD9530092
_publ_section_title
;
Structure prediction by ZEFSAII (Michael W. Deem and Ramdas Pophale) SiO2 
 PCOD9530092
Probable space group: I B C A 
;
_chemical_formula_sum "Si O2"
_cell_formula_units_Z 112
_cell_length_a 29.988146
_cell_length_b 33.016822
_cell_length_c 5.241220
_cell_angle_alpha 90.000000
_cell_angle_beta 90.000000
_cell_angle_gamma 90.000000
_cell_volume 5189.401518
_symmetry_space_group_name_H-M "I B C A "
_symmetry_group_IT_number 73
_symmetry_cell_setting 'orthorhombic'
loop_
_space_group_symop_operation_xyz
x,y,z
-x,1/2-y,z
x,-y,1/2-z
1/2-x,y,-z
-x,-y,-z
x,1/2+y,-z
-x,y,1/2+z
1/2+x,-y,z
1/2+x,1/2+y,1/2+z
1/2-x,-y,1/2+z
1/2+x,1/2-y,-z
-x,1/2+y,1/2-z
1/2-x,1/2-y,1/2-z
1/2+x,y,1/2-z
1/2-x,1/2+y,z
x,1/2-y,1/2+z
loop_
_atom_site_type_symbol
_atom_site_label
_atom_site_fract_x
_atom_site_fract_y
_atom_site_fract_z
Si Si1 0.325524 0.235261 0.466476
Si Si2 0.118121 0.544345 0.134050
Si Si3 0.527352 0.845828 0.279088
Si Si4 0.574294 0.768963 0.102641
Si Si5 0.912275 0.582923 0.131370
Si Si6 0.826614 0.641943 0.110101
Si Si7 0.703907 0.102022 0.608742
O O1 0.302414 0.258318 0.697175
O O2 0.373677 0.257520 0.426587
O O3 0.332311 0.188472 0.533661
O O4 0.125654 0.500000 0.250000
O O5 0.086214 0.565270 0.346286
O O6 0.164799 0.568734 0.120153
O O7 0.098966 0.549876 0.848781
O O8 0.510157 0.839194 0.565059
O O9 0.565440 0.813996 0.197672
O O10 0.545852 0.891233 0.275574
O O11 0.554818 0.740442 0.325040
O O12 0.872118 0.615858 0.113029
O O13 0.796489 0.621835 0.888002
O O14 0.807999 0.635722 0.394615
O O15 0.750000 0.084301 0.500000
#
# Coordination Sequence:
#
# PCOD9530092 Si02
#       7
#    16  16  16  16  16  16  16
#     4  10  19  32  54  80 107 145 202 252 285 325
#     4  10  21  39  66  95 118 149 191 237 290 350
#     4  12  25  39  58  85 120 158 196 248 308 357
#     4  10  21  35  52  78 113 149 192 241 295 344
#     4  10  21  39  61  85 118 156 200 240 282 353
#     4  10  20  36  60  85 114 161 208 241 280 348
#     4  10  21  38  61  91 124 155 188 234 296 357
#
# _framework density 21.582452
#
# number of rings (size 3 to 8) (size 9 to 14) (size 15 to 20)
#    0.000    1.714    0.000    5.143    0.000    8.571 
#    0.000    4.286    0.000   17.143    0.000    0.000 
#    0.000    0.000    0.000    0.000    0.000    0.000 
#
# Total GULP energy -312548.237565 kJ/mol
# GULP energy per Si atom -5581.218528 kJ/mol
# Density = 2.153333 g / cm^3
# Si number density = 21.582452 Si / 1000 Ang^3
#
#
#
# Elastic Constant Matrix: (Units=GPa)
#
#
# Indices 1 2 3 4 5 6 
#
# 1 37.9249 16.8490 14.8396 0.0000 0.0000 0.0000
# 2 16.8490 98.4137 33.2485 0.0000 0.0000 0.0000
# 3 14.8396 33.2485 159.0731 0.0000 0.0000 0.0000
# 4 0.0000 0.0000 0.0000 28.2140 0.0000 0.0000
# 5 0.0000 0.0000 0.0000 0.0000 14.0431 0.0000
# 6 0.0000 0.0000 0.0000 0.0000 0.0000 8.0526
#
#
#
# Elastic Compliance Matrix: (Units=1/GPa)
#
#
# Indices 1 2 3 4 5 6 
#
# 1 0.029007 -0.004360 -0.001795 0.000000 0.000000 0.000000
# 2 -0.004360 0.011589 -0.002015 0.000000 0.000000 0.000000
# 3 -0.001795 -0.002015 0.006875 0.000000 0.000000 0.000000
# 4 0.000000 0.000000 0.000000 0.035443 0.000000 0.000000
# 5 0.000000 0.000000 0.000000 0.000000 0.071209 0.000000
# 6 0.000000 0.000000 0.000000 0.000000 0.000000 0.124184
#
#
# Mechanical properties :
#
#
# Convention : Reuss Voigt Hill
#
# Bulk Modulus (GPa) = 32.12263 47.25398 39.68831
# Shear Modulus (GPa) = 16.39215 25.42690 20.90952
#
# Velocity S-wave (km/s) = 2.75892 3.43611 3.11597
# Velocity P-wave (km/s) = 5.00648 6.13878 5.60131
#
# Compressibility (1/GPa) = 0.03113070
#
# Stress axis : x y z
#
# Youngs Moduli (GPa) = 34.47425 86.29226 145.45234
#
# Poissons Ratio (x) = 0.37622 0.26105
# Poissons Ratio (y) = 0.15030 0.29315
# Poissons Ratio (z) = 0.06187 0.17392
#
# Static dielectric constant tensor:
#      x y z
#    x 1.878850 0.000000 0.000000 
#    y 0.000000 1.758950 0.000000 
#    z 0.000000 0.000000 1.840300 
# 
# From -- ./inp_files/3265.got.cif
#   From: 2010.05.17/outbox.cif.g08.bks.cpg/sg73_2_cif.got.tgz:3265.got - 2010.06.03 17:35:07.
