data_PCOD9530273
_publ_section_title
;
Structure prediction by ZEFSAII (Michael W. Deem and Ramdas Pophale) SiO2 
 PCOD9530273
Probable space group: I B C A 
;
_chemical_formula_sum "Si O2"
_cell_formula_units_Z 120
_cell_length_a 18.977166
_cell_length_b 19.491494
_cell_length_c 16.830504
_cell_angle_alpha 90.000000
_cell_angle_beta 90.000000
_cell_angle_gamma 90.000000
_cell_volume 6225.490955
_symmetry_space_group_name_H-M "I B C A "
_symmetry_group_IT_number 73
_symmetry_cell_setting 'orthorhombic'
loop_
_space_group_symop_operation_xyz
x,y,z
-x,1/2-y,z
x,-y,1/2-z
1/2-x,y,-z
-x,-y,-z
x,1/2+y,-z
-x,y,1/2+z
1/2+x,-y,z
1/2+x,1/2+y,1/2+z
1/2-x,-y,1/2+z
1/2+x,1/2-y,-z
-x,1/2+y,1/2-z
1/2-x,1/2-y,1/2-z
1/2+x,y,1/2-z
1/2-x,1/2+y,z
x,1/2-y,1/2+z
loop_
_atom_site_type_symbol
_atom_site_label
_atom_site_fract_x
_atom_site_fract_y
_atom_site_fract_z
Si Si1 0.837523 0.437592 0.809390
Si Si2 0.884344 0.947204 0.811510
Si Si3 0.849008 0.799940 0.799702
Si Si4 0.732935 0.163525 0.808231
Si Si5 0.436174 0.961774 0.957048
Si Si6 0.000000 0.750000 0.255951
Si Si7 0.997218 0.105561 0.313718
Si Si8 0.192987 0.544972 0.432640
O O1 0.822547 0.500000 0.750000
O O2 0.802944 0.369349 0.771784
O O3 0.921832 0.430658 0.813761
O O4 0.811183 0.470450 0.891095
O O5 0.848602 0.875890 0.836528
O O6 0.952016 0.924215 0.756674
O O7 0.845668 0.000000 0.750000
O O8 0.902354 0.987170 0.891485
O O9 0.814268 0.819807 0.713439
O O10 0.802183 0.736480 0.828898
O O11 0.928776 0.772010 0.800925
O O12 0.716463 0.105943 0.873328
O O13 0.465814 0.903436 0.898595
O O14 0.381281 0.939765 0.024378
O O15 0.500000 0.000000 0.000000
O O16 0.017603 0.684067 0.204434
O O17 0.250000 0.541892 0.500000
#
# Coordination Sequence:
#
# PCOD9530273 Si02
#       8
#    16  16  16  16  16   8  16  16
#     4  10  19  37  64  88 118 155 208 256 303 368
#     4   9  21  34  64  91 120 148 204 255 305 362
#     4  10  21  39  65  92 116 159 206 261 304 365
#     4  10  23  40  63  89 125 162 208 254 312 371
#     4  11  22  38  59  88 123 159 198 255 316 363
#     4  10  20  34  64  92 116 146 208 252 310 362
#     4  10  19  37  60  92 116 155 203 261 303 373
#     4  11  26  38  59  91 129 165 204 254 319 372
#
# _framework density 19.275587999999999
#
# number of rings (size 3 to 8) (size 9 to 14) (size 15 to 20)
#    0.000    1.867    2.667    1.200    9.333    0.533 
#    0.000    1.333    5.867    0.000    0.000    0.000 
#    0.000    0.000    0.000    0.000    0.000    0.000 
#
# Total GULP energy -334245.924502 kJ/mol
# GULP energy per Si atom -5570.765408 kJ/mol
# Density = 1.923172 g / cm^3
# Si number density = 19.275588 Si / 1000 Ang^3
#
#
#
# Elastic Constant Matrix: (Units=GPa)
#
#
# Indices 1 2 3 4 5 6 
#
# 1 72.5097 -11.5615 3.8486 0.0000 0.0000 0.0000
# 2 -11.5615 99.0876 5.5670 0.0000 0.0000 0.0000
# 3 3.8486 5.5670 61.2352 0.0000 0.0000 0.0000
# 4 0.0000 0.0000 0.0000 19.5433 0.0000 0.0000
# 5 0.0000 0.0000 0.0000 0.0000 20.6749 0.0000
# 6 0.0000 0.0000 0.0000 0.0000 0.0000 12.5010
#
#
#
# Elastic Compliance Matrix: (Units=1/GPa)
#
#
# Indices 1 2 3 4 5 6 
#
# 1 0.014119 0.001706 -0.001042 0.000000 0.000000 0.000000
# 2 0.001706 0.010350 -0.001048 0.000000 0.000000 0.000000
# 3 -0.001042 -0.001048 0.016491 0.000000 0.000000 0.000000
# 4 0.000000 0.000000 0.000000 0.051168 0.000000 0.000000
# 5 0.000000 0.000000 0.000000 0.000000 0.048368 0.000000
# 6 0.000000 0.000000 0.000000 0.000000 0.000000 0.079994
#
#
# Mechanical properties :
#
#
# Convention : Reuss Voigt Hill
#
# Bulk Modulus (GPa) = 24.88148 25.39341 25.13744
# Shear Modulus (GPa) = 21.30778 26.20906 23.75842
#
# Velocity S-wave (km/s) = 3.32840 3.69141 3.51460
# Velocity P-wave (km/s) = 5.26378 5.60100 5.43500
#
# Compressibility (1/GPa) = 0.04019054
#
# Stress axis : x y z
#
# Youngs Moduli (GPa) = 70.82856 96.61819 60.63811
#
# Poissons Ratio (x) = -0.16482 0.06321
# Poissons Ratio (y) = -0.12083 0.06356
# Poissons Ratio (z) = 0.07383 0.10127
#
# Static dielectric constant tensor:
#      x y z
#    x 4.255340 0.000000 0.000000 
#    y 0.000000 1.689640 0.000000 
#    z 0.000000 0.000000 1.660480 
# 
# From -- ./inp_files/22802.got.cif
#   From: 2010.05.17/outbox.cif.g08.bks.cpg/sg73_12_cif.got.tgz:22802.got - 2010.06.03 17:35:07.
