data_PCOD9530791
_publ_section_title
;
Structure prediction by ZEFSAII (Michael W. Deem and Ramdas Pophale) SiO2 
 PCOD9530791
Probable space group: I B C A 
;
_chemical_formula_sum "Si O2"
_cell_formula_units_Z 96
_cell_length_a 19.676904
_cell_length_b 7.974331
_cell_length_c 26.619891
_cell_angle_alpha 90.000000
_cell_angle_beta 90.000000
_cell_angle_gamma 90.000000
_cell_volume 4176.930971
_symmetry_space_group_name_H-M "I B C A "
_symmetry_group_IT_number 73
_symmetry_cell_setting 'orthorhombic'
loop_
_space_group_symop_operation_xyz
x,y,z
-x,1/2-y,z
x,-y,1/2-z
1/2-x,y,-z
-x,-y,-z
x,1/2+y,-z
-x,y,1/2+z
1/2+x,-y,z
1/2+x,1/2+y,1/2+z
1/2-x,-y,1/2+z
1/2+x,1/2-y,-z
-x,1/2+y,1/2-z
1/2-x,1/2-y,1/2-z
1/2+x,y,1/2-z
1/2-x,1/2+y,z
x,1/2-y,1/2+z
loop_
_atom_site_type_symbol
_atom_site_label
_atom_site_fract_x
_atom_site_fract_y
_atom_site_fract_z
Si Si1 0.266900 0.217053 0.441561
Si Si2 0.125872 0.478172 0.121700
Si Si3 0.836533 0.826807 0.809179
Si Si4 0.349380 0.035770 0.599739
Si Si5 0.820999 0.833586 0.213658
Si Si6 0.004569 0.452134 0.558251
O O1 0.250000 0.201842 0.500000
O O2 0.314812 0.071799 0.417791
O O3 0.308722 0.384430 0.428704
O O4 0.194037 0.197004 0.415083
O O5 0.124410 0.307928 0.156141
O O6 0.138178 0.613648 0.164850
O O7 0.059136 0.515384 0.090219
O O8 0.844038 0.994803 0.841267
O O9 0.755191 0.790961 0.805297
O O10 0.854810 0.800866 0.751171
O O11 0.425669 0.024538 0.580487
O O12 0.814287 0.000000 0.250000
O O13 0.000000 0.250000 0.562156
O O14 0.000000 0.500000 0.500000
#
# Coordination Sequence:
#
# PCOD9530791 Si02
#       6
#    16  16  16  16  16  16
#     4  11  21  36  58  93 128 166 224 279 322 381
#     4  10  20  38  59  88 124 172 212 262 322 387
#     4   9  17  32  59  93 120 159 209 259 325 385
#     4  11  23  39  63  95 127 176 216 275 334 390
#     4   9  17  32  59  95 123 160 203 265 327 383
#     4  12  25  45  65  91 132 182 226 264 335 403
#
# _framework density 22.983384000000001
#
# number of rings (size 3 to 8) (size 9 to 14) (size 15 to 20)
#    0.000    1.667    5.000    1.500    0.000    0.000 
#    0.000    0.000    0.000    5.000    0.000    0.000 
#    0.000    0.000    0.000    0.000    0.000    0.000 
#
# Total GULP energy -268366.185482 kJ/mol
# GULP energy per Si atom -5590.962198 kJ/mol
# Density = 2.293107 g / cm^3
# Si number density = 22.983384 Si / 1000 Ang^3
#
#
#
# Elastic Constant Matrix: (Units=GPa)
#
#
# Indices 1 2 3 4 5 6 
#
# 1 153.4654 7.8305 74.0477 0.0000 0.0000 0.0000
# 2 7.8305 58.0254 37.0297 0.0000 0.0000 0.0000
# 3 74.0477 37.0297 225.4200 0.0000 0.0000 0.0000
# 4 0.0000 0.0000 0.0000 40.7504 0.0000 0.0000
# 5 0.0000 0.0000 0.0000 0.0000 29.0599 0.0000
# 6 0.0000 0.0000 0.0000 0.0000 0.0000 15.8933
#
#
#
# Elastic Compliance Matrix: (Units=1/GPa)
#
#
# Indices 1 2 3 4 5 6 
#
# 1 0.007765 0.000648 -0.002657 0.000000 0.000000 0.000000
# 2 0.000648 0.019306 -0.003384 0.000000 0.000000 0.000000
# 3 -0.002657 -0.003384 0.005865 0.000000 0.000000 0.000000
# 4 0.000000 0.000000 0.000000 0.024540 0.000000 0.000000
# 5 0.000000 0.000000 0.000000 0.000000 0.034412 0.000000
# 6 0.000000 0.000000 0.000000 0.000000 0.000000 0.062920
#
#
# Mechanical properties :
#
#
# Convention : Reuss Voigt Hill
#
# Bulk Modulus (GPa) = 45.14865 74.96963 60.05914
# Shear Modulus (GPa) = 28.90554 38.34092 33.62323
#
# Velocity S-wave (km/s) = 3.55021 4.08879 3.82898
# Velocity P-wave (km/s) = 6.04086 7.41491 6.76287
#
# Compressibility (1/GPa) = 0.02214906
#
# Stress axis : x y z
#
# Youngs Moduli (GPa) = 128.78008 51.79712 170.50476
#
# Poissons Ratio (x) = -0.03356 0.45306
# Poissons Ratio (y) = -0.08343 0.57702
# Poissons Ratio (z) = 0.34219 0.17529
#
# Static dielectric constant tensor:
#      x y z
#    x 1.798130 0.000000 0.000000 
#    y 0.000000 2.059650 0.000000 
#    z 0.000000 0.000000 1.851890 
# 
# From -- ./inp_files/29796.got.cif
#   From: 2010.05.17/outbox.cif.g08.bks.cpg/sg73_15_cif.got.tgz:29796.got - 2010.06.03 17:35:07.
