data_PCOD9530681
_publ_section_title
;
Structure prediction by ZEFSAII (Michael W. Deem and Ramdas Pophale) SiO2 
 PCOD9530681
Probable space group: I B C A 
;
_chemical_formula_sum "Si O2"
_cell_formula_units_Z 120
_cell_length_a 25.491742
_cell_length_b 9.749471
_cell_length_c 23.765403
_cell_angle_alpha 90.000000
_cell_angle_beta 90.000000
_cell_angle_gamma 90.000000
_cell_volume 5906.439358
_symmetry_space_group_name_H-M "I B C A "
_symmetry_group_IT_number 73
_symmetry_cell_setting 'orthorhombic'
loop_
_space_group_symop_operation_xyz
x,y,z
-x,1/2-y,z
x,-y,1/2-z
1/2-x,y,-z
-x,-y,-z
x,1/2+y,-z
-x,y,1/2+z
1/2+x,-y,z
1/2+x,1/2+y,1/2+z
1/2-x,-y,1/2+z
1/2+x,1/2-y,-z
-x,1/2+y,1/2-z
1/2-x,1/2-y,1/2-z
1/2+x,y,1/2-z
1/2-x,1/2+y,z
x,1/2-y,1/2+z
loop_
_atom_site_type_symbol
_atom_site_label
_atom_site_fract_x
_atom_site_fract_y
_atom_site_fract_z
Si Si1 0.834352 0.000000 0.250000
Si Si2 0.833258 0.720787 0.665950
Si Si3 0.849625 0.114217 0.457841
Si Si4 0.336381 0.185919 0.436061
Si Si5 0.713425 0.742612 0.177162
Si Si6 0.125899 0.523041 0.812073
Si Si7 0.559202 0.716829 0.611356
Si Si8 0.534063 0.130678 0.514918
O O1 0.861633 0.889465 0.207546
O O2 0.803662 0.899048 0.292944
O O3 0.831625 0.673679 0.601550
O O4 0.773722 0.725924 0.688754
O O5 0.855870 0.874077 0.667482
O O6 0.838432 0.205346 0.513019
O O7 0.912743 0.101576 0.453346
O O8 0.827862 0.961535 0.463336
O O9 0.293315 0.223107 0.389911
O O10 0.390360 0.182189 0.397505
O O11 0.674729 0.869216 0.192850
O O12 0.103684 0.500000 0.750000
O O13 0.084129 0.593076 0.853333
O O14 0.500000 0.750000 0.632866
O O15 0.550269 0.682149 0.546466
O O16 0.500000 0.250000 0.543121
O O17 0.500000 0.000000 0.500000
#
# Coordination Sequence:
#
# PCOD9530681 Si02
#       8
#     8  16  16  16  16  16  16  16
#     4  12  22  44  66  90 128 172 232 278 328 390
#     4  12  26  39  66  97 133 173 226 280 335 396
#     4  11  23  40  62  95 132 167 213 271 335 406
#     4  10  23  41  63  93 129 171 213 264 339 402
#     4  11  24  43  64  95 131 177 223 280 331 394
#     4  11  24  40  67  96 127 173 223 276 332 399
#     4   9  20  40  68  89 127 167 208 268 337 395
#     4  10  20  36  64  92 118 160 209 263 320 390
#
# _framework density 20.316808999999999
#
# number of rings (size 3 to 8) (size 9 to 14) (size 15 to 20)
#    0.000    1.333    2.667    3.600    9.333    0.533 
#    0.000    1.333   11.733    0.000    0.000    0.000 
#    0.000    0.000    0.000    0.000    0.000    0.000 
#
# Total GULP energy -334515.013958 kJ/mol
# GULP energy per Si atom -5575.250233 kJ/mol
# Density = 2.027057 g / cm^3
# Si number density = 20.316809 Si / 1000 Ang^3
#
#
#
# Elastic Constant Matrix: (Units=GPa)
#
#
# Indices 1 2 3 4 5 6 
#
# 1 54.1490 13.1994 5.0457 0.0000 0.0000 0.0000
# 2 13.1994 136.0853 35.8833 0.0000 0.0000 0.0000
# 3 5.0457 35.8833 82.7863 0.0000 0.0000 0.0000
# 4 0.0000 0.0000 0.0000 48.0283 0.0000 0.0000
# 5 0.0000 0.0000 0.0000 0.0000 -17.4420 0.0000
# 6 0.0000 0.0000 0.0000 0.0000 0.0000 16.1696
#
#
#
# Elastic Compliance Matrix: (Units=1/GPa)
#
#
# Indices 1 2 3 4 5 6 
#
# 1 0.018927 -0.001729 -0.000404 0.000000 0.000000 0.000000
# 2 -0.001729 0.008455 -0.003559 0.000000 0.000000 0.000000
# 3 -0.000404 -0.003559 0.013647 0.000000 0.000000 0.000000
# 4 0.000000 0.000000 0.000000 0.020821 0.000000 0.000000
# 5 0.000000 0.000000 0.000000 0.000000 -0.057333 0.000000
# 6 0.000000 0.000000 0.000000 0.000000 0.000000 0.061844
#
#
# Mechanical properties :
#
#
# Convention : Reuss Voigt Hill
#
# Bulk Modulus (GPa) = 33.73480 42.36418 38.04949
# Shear Modulus (GPa) = 57.06044 23.94400 40.50222
#
# Velocity S-wave (km/s) = 5.30531 3.43670 4.46974
# Velocity P-wave (km/s) = 7.35995 6.05350 6.73846
#
# Compressibility (1/GPa) = 0.02964298
#
# Stress axis : x y z
#
# Youngs Moduli (GPa) = 52.83537 118.27941 73.27816
#
# Poissons Ratio (x) = 0.20453 0.02961
# Poissons Ratio (y) = 0.09136 0.26081
# Poissons Ratio (z) = 0.02135 0.42098
#
# Static dielectric constant tensor:
#      x y z
#    x 1.665620 0.000000 0.000000 
#    y 0.000000 1.915870 0.000000 
#    z 0.000000 0.000000 1.720730 
# 
# From -- ./inp_files/7399.got.cif
#   From: 2010.05.17/outbox.cif.g08.bks.cpg/sg73_4_cif.got.tgz:7399.got - 2010.06.03 17:35:07.
