data_PCOD9530286
_publ_section_title
;
Structure prediction by ZEFSAII (Michael W. Deem and Ramdas Pophale) SiO2 
 PCOD9530286
Probable space group: I B C A 
;
_chemical_formula_sum "Si O2"
_cell_formula_units_Z 120
_cell_length_a 16.004014
_cell_length_b 25.982090
_cell_length_c 11.977812
_cell_angle_alpha 90.000000
_cell_angle_beta 90.000000
_cell_angle_gamma 90.000000
_cell_volume 4980.586621
_symmetry_space_group_name_H-M "I B C A "
_symmetry_group_IT_number 73
_symmetry_cell_setting 'orthorhombic'
loop_
_space_group_symop_operation_xyz
x,y,z
-x,1/2-y,z
x,-y,1/2-z
1/2-x,y,-z
-x,-y,-z
x,1/2+y,-z
-x,y,1/2+z
1/2+x,-y,z
1/2+x,1/2+y,1/2+z
1/2-x,-y,1/2+z
1/2+x,1/2-y,-z
-x,1/2+y,1/2-z
1/2-x,1/2-y,1/2-z
1/2+x,y,1/2-z
1/2-x,1/2+y,z
x,1/2-y,1/2+z
loop_
_atom_site_type_symbol
_atom_site_label
_atom_site_fract_x
_atom_site_fract_y
_atom_site_fract_z
Si Si1 0.699589 0.630652 0.254882
Si Si2 0.207682 0.941702 0.388139
Si Si3 0.568391 0.000000 0.250000
Si Si4 0.651586 0.621193 0.019330
Si Si5 0.522705 0.945271 0.450431
Si Si6 0.577541 0.855962 0.084882
Si Si7 0.625595 0.183861 0.186442
Si Si8 0.162236 0.787125 0.567613
O O1 0.725580 0.573317 0.292753
O O2 0.638578 0.630246 0.149475
O O3 0.782880 0.661694 0.218053
O O4 0.666360 0.661245 0.359648
O O5 0.250000 0.962312 0.500000
O O6 0.131505 0.972614 0.335447
O O7 0.166305 0.886356 0.416786
O O8 0.516702 0.043618 0.182530
O O9 0.750000 0.624689 0.000000
O O10 0.618766 0.566807 0.977865
O O11 0.607364 0.660326 0.934978
O O12 0.477448 0.898551 0.517541
O O13 0.500000 0.000000 0.500000
O O14 0.566743 0.838439 0.215079
O O15 0.591921 0.801832 0.022310
O O16 0.637531 0.243488 0.157089
O O17 0.250000 0.775576 0.500000
#
# Coordination Sequence:
#
# PCOD9530286 Si02
#       8
#    16  16   8  16  16  16  16  16
#     4  10  19  37  65 104 144 185 242 308 366 442
#     4  11  21  44  67 110 151 189 240 331 385 450
#     4  12  26  44  76  98 144 200 270 314 384 476
#     4  10  23  44  71 105 141 184 248 319 373 451
#     4  12  27  48  73 100 143 204 249 309 394 462
#     4  11  23  45  67 102 154 197 240 311 374 456
#     4  10  22  38  70 103 146 189 244 307 371 440
#     4  12  20  36  71 108 147 197 251 304 378 454
#
# _framework density 24.093547999999998
#
# number of rings (size 3 to 8) (size 9 to 14) (size 15 to 20)
#    0.000    1.067    5.333    4.000    1.867    2.667 
#    0.000    0.667    0.000    0.000    0.000    0.000 
#    0.000    0.000    0.000    0.000    0.000    0.000 
#
# Total GULP energy -334559.210844 kJ/mol
# GULP energy per Si atom -5575.986847 kJ/mol
# Density = 2.403871 g / cm^3
# Si number density = 24.093548 Si / 1000 Ang^3
#
#
#
# Elastic Constant Matrix: (Units=GPa)
#
#
# Indices 1 2 3 4 5 6 
#
# 1 33.0873 17.9813 34.6873 0.0000 0.0000 0.0000
# 2 17.9813 82.3094 38.1681 0.0000 0.0000 0.0000
# 3 34.6873 38.1681 154.0474 0.0001 0.0001 0.0000
# 4 0.0000 0.0000 0.0001 46.8191 0.0001 0.0000
# 5 0.0000 0.0000 0.0001 0.0001 9.7175 0.0000
# 6 0.0000 0.0000 0.0000 0.0000 0.0000 18.8967
#
#
#
# Elastic Compliance Matrix: (Units=1/GPa)
#
#
# Indices 1 2 3 4 5 6 
#
# 1 0.041550 -0.005354 -0.008030 0.000000 0.000000 0.000000
# 2 -0.005354 0.014416 -0.002366 0.000000 0.000000 0.000000
# 3 -0.008030 -0.002366 0.008886 0.000000 0.000000 0.000000
# 4 0.000000 0.000000 0.000000 0.021359 0.000000 0.000000
# 5 0.000000 0.000000 0.000000 0.000000 0.102907 0.000000
# 6 0.000000 0.000000 0.000000 0.000000 0.000000 0.052919
#
#
# Mechanical properties :
#
#
# Convention : Reuss Voigt Hill
#
# Bulk Modulus (GPa) = 29.98207 50.12415 40.05311
# Shear Modulus (GPa) = 17.56517 26.99383 22.27950
#
# Velocity S-wave (km/s) = 2.70300 3.35083 3.04420
# Velocity P-wave (km/s) = 4.71303 5.98497 5.38668
#
# Compressibility (1/GPa) = 0.03335326
#
# Stress axis : x y z
#
# Youngs Moduli (GPa) = 24.06716 69.36663 112.53839
#
# Poissons Ratio (x) = 0.37136 0.90363
# Poissons Ratio (y) = 0.12885 0.26631
# Poissons Ratio (z) = 0.19325 0.16415
#
# Static dielectric constant tensor:
#      x y z
#    x 2.103750 0.000000 0.000000 
#    y 0.000000 1.810370 0.000000 
#    z 0.000000 0.000000 2.058390 
# 
# From -- ./inp_files/12228.got.cif
#   From: 2010.05.17/outbox.cif.g08.bks.cpg/sg73_7_cif.got.tgz:12228.got - 2010.06.03 17:35:07.
