data_PCOD9530565
_publ_section_title
;
Structure prediction by ZEFSAII (Michael W. Deem and Ramdas Pophale) SiO2 
 PCOD9530565
Probable space group: I B C A 
;
_chemical_formula_sum "Si O2"
_cell_formula_units_Z 104
_cell_length_a 25.626284
_cell_length_b 9.643146
_cell_length_c 20.160970
_cell_angle_alpha 90.000000
_cell_angle_beta 90.000000
_cell_angle_gamma 90.000000
_cell_volume 4982.138545
_symmetry_space_group_name_H-M "I B C A "
_symmetry_group_IT_number 73
_symmetry_cell_setting 'orthorhombic'
loop_
_space_group_symop_operation_xyz
x,y,z
-x,1/2-y,z
x,-y,1/2-z
1/2-x,y,-z
-x,-y,-z
x,1/2+y,-z
-x,y,1/2+z
1/2+x,-y,z
1/2+x,1/2+y,1/2+z
1/2-x,-y,1/2+z
1/2+x,1/2-y,-z
-x,1/2+y,1/2-z
1/2-x,1/2-y,1/2-z
1/2+x,y,1/2-z
1/2-x,1/2+y,z
x,1/2-y,1/2+z
loop_
_atom_site_type_symbol
_atom_site_label
_atom_site_fract_x
_atom_site_fract_y
_atom_site_fract_z
Si Si1 0.652232 0.856386 0.578693
Si Si2 0.037620 0.879131 0.082355
Si Si3 0.797144 0.000000 0.750000
Si Si4 0.963608 0.616012 0.927845
Si Si5 0.647542 0.826312 0.352988
Si Si6 0.780408 0.938535 0.133638
Si Si7 0.312866 0.552759 0.041958
O O1 0.593174 0.867598 0.603697
O O2 0.659749 0.701963 0.550368
O O3 0.694302 0.907144 0.632711
O O4 0.666182 0.970846 0.522369
O O5 0.087009 0.838441 0.126707
O O6 0.000000 0.750000 0.077597
O O7 0.050786 0.917953 0.005417
O O8 0.000306 0.002387 0.105742
O O9 0.834686 0.884376 0.717926
O O10 0.759224 0.932330 0.804991
O O11 0.000000 0.750000 0.928693
O O12 0.674385 0.677087 0.362917
O O13 0.672563 0.938432 0.402768
O O14 0.746430 0.915333 0.066499
#
# Coordination Sequence:
#
# PCOD9530565 Si02
#       7
#    16  16   8  16  16  16  16
#     4  12  23  37  60  91 129 168 201 251 312 373
#     4  10  20  35  60  87 120 158 203 247 303 368
#     4  10  24  42  66  90 118 162 216 264 310 368
#     4  10  21  35  57  88 126 161 199 244 299 370
#     4  11  21  41  66  89 121 164 210 258 313 365
#     4  11  24  41  62  88 124 162 208 259 307 375
#     4  11  23  37  57  91 129 166 203 243 310 374
#
# _framework density 20.874569999999999
#
# number of rings (size 3 to 8) (size 9 to 14) (size 15 to 20)
#    0.000    1.231    1.538    5.538    4.308    2.462 
#    0.000    0.000    0.000    8.308    0.000    0.000 
#    0.000    0.000    0.000    0.000    0.000    0.000 
#
# Total GULP energy -289906.046044 kJ/mol
# GULP energy per Si atom -5575.116270 kJ/mol
# Density = 2.082706 g / cm^3
# Si number density = 20.874570 Si / 1000 Ang^3
#
#
#
# Elastic Constant Matrix: (Units=GPa)
#
#
# Indices 1 2 3 4 5 6 
#
# 1 129.0057 7.6314 16.9213 0.0000 0.0000 0.0000
# 2 7.6314 92.2090 -1.7906 0.0000 0.0000 0.0000
# 3 16.9213 -1.7906 51.6618 0.0000 0.0000 0.0000
# 4 0.0000 0.0000 0.0000 21.6406 0.0000 0.0000
# 5 0.0000 0.0000 0.0000 0.0000 64.1380 0.0000
# 6 0.0000 0.0000 0.0000 0.0000 0.0000 36.8806
#
#
#
# Elastic Compliance Matrix: (Units=1/GPa)
#
#
# Indices 1 2 3 4 5 6 
#
# 1 0.008148 -0.000727 -0.002694 0.000000 0.000000 0.000000
# 2 -0.000727 0.010917 0.000616 0.000000 0.000000 0.000000
# 3 -0.002694 0.000616 0.020260 0.000000 0.000000 0.000000
# 4 0.000000 0.000000 0.000000 0.046209 0.000000 0.000000
# 5 0.000000 0.000000 0.000000 0.000000 0.015591 0.000000
# 6 0.000000 0.000000 0.000000 0.000000 0.000000 0.027115
#
#
# Mechanical properties :
#
#
# Convention : Reuss Voigt Hill
#
# Bulk Modulus (GPa) = 29.65869 35.37785 32.51827
# Shear Modulus (GPa) = 34.46184 41.20613 37.83399
#
# Velocity S-wave (km/s) = 4.06754 4.44778 4.26190
# Velocity P-wave (km/s) = 6.02484 6.58495 6.31111
#
# Compressibility (1/GPa) = 0.03371693
#
# Stress axis : x y z
#
# Youngs Moduli (GPa) = 122.73040 91.59996 49.35741
#
# Poissons Ratio (x) = 0.06656 0.13297
# Poissons Ratio (y) = 0.08918 -0.03042
# Poissons Ratio (z) = 0.33063 -0.05646
#
# Static dielectric constant tensor:
#      x y z
#    x 1.781440 0.000000 0.000000 
#    y 0.000000 1.695120 0.000000 
#    z 0.000000 0.000000 1.880410 
# 
# From -- ./inp_files/27583.got.cif
#   From: 2010.05.17/outbox.cif.g08.bks.cpg/sg73_14_cif.got.tgz:27583.got - 2010.06.03 17:35:07.
