data_PCOD9530028
_publ_section_title
;
Structure prediction by ZEFSAII (Michael W. Deem and Ramdas Pophale) SiO2 
 PCOD9530028
Probable space group: I B C A 
;
_chemical_formula_sum "Si O2"
_cell_formula_units_Z 120
_cell_length_a 21.905950
_cell_length_b 15.521395
_cell_length_c 18.101733
_cell_angle_alpha 90.000000
_cell_angle_beta 90.000000
_cell_angle_gamma 90.000000
_cell_volume 6154.786580
_symmetry_space_group_name_H-M "I B C A "
_symmetry_group_IT_number 73
_symmetry_cell_setting 'orthorhombic'
loop_
_space_group_symop_operation_xyz
x,y,z
-x,1/2-y,z
x,-y,1/2-z
1/2-x,y,-z
-x,-y,-z
x,1/2+y,-z
-x,y,1/2+z
1/2+x,-y,z
1/2+x,1/2+y,1/2+z
1/2-x,-y,1/2+z
1/2+x,1/2-y,-z
-x,1/2+y,1/2-z
1/2-x,1/2-y,1/2-z
1/2+x,y,1/2-z
1/2-x,1/2+y,z
x,1/2-y,1/2+z
loop_
_atom_site_type_symbol
_atom_site_label
_atom_site_fract_x
_atom_site_fract_y
_atom_site_fract_z
Si Si1 0.480345 0.335858 0.426465
Si Si2 0.545546 0.504870 0.663324
Si Si3 0.659253 0.287108 0.933161
Si Si4 0.679375 0.342007 0.565699
Si Si5 0.730141 0.500000 0.250000
Si Si6 0.038084 0.167994 0.413535
Si Si7 0.315232 0.527660 0.107220
Si Si8 0.218419 0.313070 0.190874
O O1 0.500000 0.250000 0.385017
O O2 0.488203 0.416598 0.374966
O O3 0.410146 0.317403 0.448886
O O4 0.520553 0.344257 0.500301
O O5 0.540901 0.500000 0.750000
O O6 0.520690 0.417505 0.629039
O O7 0.616343 0.520163 0.640675
O O8 0.694114 0.378452 0.928189
O O9 0.665899 0.237803 0.854511
O O10 0.682104 0.220412 0.995139
O O11 0.610815 0.324576 0.595061
O O12 0.687244 0.445078 0.552495
O O13 0.728957 0.325026 0.628716
O O14 0.770556 0.480655 0.177185
O O15 0.700770 0.593583 0.226655
O O16 0.000000 0.250000 0.387768
O O17 0.250000 0.250000 0.250000
#
# Coordination Sequence:
#
# PCOD9530028 Si02
#       8
#    16  16  16  16   8  16  16  16
#     4  10  20  37  62  83 120 160 199 255 303 359
#     4  10  20  32  57  91 117 154 206 247 296 367
#     4  11  20  39  62  93 116 160 206 251 308 357
#     4  10  21  38  61  92 118 156 206 251 299 367
#     4  10  18  40  60  86 118 166 196 240 310 358
#     4  10  19  38  61  86 119 159 202 249 301 357
#     4   9  19  34  62  85 119 159 201 245 297 373
#     4  11  23  39  64  89 125 158 198 254 306 375
#
# _framework density 19.497019999999999
#
# number of rings (size 3 to 8) (size 9 to 14) (size 15 to 20)
#    0.000    1.867    4.667    0.800    0.000    0.533 
#    2.400    1.333    1.467    0.000    0.000    0.000 
#    0.000    0.000    0.000    0.000    0.000    0.000 
#
# Total GULP energy -334322.125366 kJ/mol
# GULP energy per Si atom -5572.035423 kJ/mol
# Density = 1.945264 g / cm^3
# Si number density = 19.497020 Si / 1000 Ang^3
#
#
#
# Elastic Constant Matrix: (Units=GPa)
#
#
# Indices 1 2 3 4 5 6 
#
# 1 32.5775 -0.9170 -5.1681 0.0000 0.0000 0.0000
# 2 -0.9170 189.5716 65.7177 0.0000 0.0000 0.0000
# 3 -5.1681 65.7177 70.1393 0.0000 0.0000 0.0000
# 4 0.0000 0.0000 0.0000 446.2627 0.0000 0.0000
# 5 0.0000 0.0000 0.0000 0.0000 18.2782 0.0000
# 6 0.0000 0.0000 0.0000 0.0000 0.0000 23.2065
#
#
#
# Elastic Compliance Matrix: (Units=1/GPa)
#
#
# Indices 1 2 3 4 5 6 
#
# 1 0.031176 -0.000956 0.003193 0.000000 0.000000 0.000000
# 2 -0.000956 0.007842 -0.007418 0.000000 0.000000 0.000000
# 3 0.003193 -0.007418 0.021443 0.000000 0.000000 0.000000
# 4 0.000000 0.000000 0.000000 0.002241 0.000000 0.000000
# 5 0.000000 0.000000 0.000000 0.000000 0.054710 0.000000
# 6 0.000000 0.000000 0.000000 0.000000 0.000000 0.043091
#
#
# Mechanical properties :
#
#
# Convention : Reuss Voigt Hill
#
# Bulk Modulus (GPa) = 19.96079 45.72819 32.84449
# Shear Modulus (GPa) = 26.65744 113.05986 69.85865
#
# Velocity S-wave (km/s) = 3.70166 7.62326 5.99235
# Velocity P-wave (km/s) = 5.34133 10.04940 8.04737
#
# Compressibility (1/GPa) = 0.05009821
#
# Stress axis : x y z
#
# Youngs Moduli (GPa) = 32.07631 127.51818 46.63514
#
# Poissons Ratio (x) = 0.12191 -0.14890
# Poissons Ratio (y) = 0.03067 0.34594
# Poissons Ratio (z) = -0.10242 0.94594
#
# Static dielectric constant tensor:
#      x y z
#    x 1.716540 0.000000 0.000000 
#    y 0.000000 1.732140 0.000000 
#    z 0.000000 0.000000 1.657670 
# 
# From -- ./inp_files/23666.got.cif
#   From: 2010.05.17/outbox.cif.g08.bks.cpg/sg73_12_cif.got.tgz:23666.got - 2010.06.03 17:35:07.
