data_PCOD9530935
_publ_section_title
;
Structure prediction by ZEFSAII (Michael W. Deem and Ramdas Pophale) SiO2 
 PCOD9530935
Probable space group: I B C A 
;
_chemical_formula_sum "Si O2"
_cell_formula_units_Z 112
_cell_length_a 24.339935
_cell_length_b 9.276362
_cell_length_c 23.195721
_cell_angle_alpha 90.000000
_cell_angle_beta 90.000000
_cell_angle_gamma 90.000000
_cell_volume 5237.270178
_symmetry_space_group_name_H-M "I B C A "
_symmetry_group_IT_number 73
_symmetry_cell_setting 'orthorhombic'
loop_
_space_group_symop_operation_xyz
x,y,z
-x,1/2-y,z
x,-y,1/2-z
1/2-x,y,-z
-x,-y,-z
x,1/2+y,-z
-x,y,1/2+z
1/2+x,-y,z
1/2+x,1/2+y,1/2+z
1/2-x,-y,1/2+z
1/2+x,1/2-y,-z
-x,1/2+y,1/2-z
1/2-x,1/2-y,1/2-z
1/2+x,y,1/2-z
1/2-x,1/2+y,z
x,1/2-y,1/2+z
loop_
_atom_site_type_symbol
_atom_site_label
_atom_site_fract_x
_atom_site_fract_y
_atom_site_fract_z
Si Si1 0.150179 0.982827 0.443234
Si Si2 0.250909 0.426660 0.130071
Si Si3 0.594133 0.259451 0.762025
Si Si4 0.035646 0.888585 0.861406
Si Si5 0.292660 0.817787 0.293741
Si Si6 0.859127 0.352044 0.562920
Si Si7 0.071874 0.960583 0.158912
O O1 0.210972 0.990532 0.415613
O O2 0.132919 0.816785 0.449095
O O3 0.108725 0.054909 0.397459
O O4 0.148148 0.061996 0.503976
O O5 0.289181 0.298600 0.154467
O O6 0.229871 0.533691 0.180296
O O7 0.195977 0.368111 0.100582
O O8 0.556587 0.149026 0.796992
O O9 0.650381 0.186063 0.740913
O O10 0.572414 0.331401 0.703971
O O11 0.596897 0.396667 0.807068
O O12 0.088774 0.908375 0.900680
O O13 0.000000 0.750000 0.881686
O O14 0.990721 0.011622 0.858510
O O15 0.250000 0.750000 0.250000
#
# Coordination Sequence:
#
# PCOD9530935 Si02
#       7
#    16  16  16  16  16  16  16
#     4  12  25  46  74  98 139 187 243 295 364 414
#     4  12  26  45  69 101 150 181 239 296 356 424
#     4  10  20  39  71  98 137 187 230 275 362 426
#     4  10  21  46  68  99 145 182 234 294 358 416
#     4  12  24  40  68 105 144 189 227 286 348 434
#     4  12  27  46  73 103 137 191 245 304 351 427
#     4  10  21  42  71  98 139 188 228 297 355 425
#
# _framework density 21.385186999999998
#
# number of rings (size 3 to 8) (size 9 to 14) (size 15 to 20)
#    0.000    0.857    5.714    2.571    4.000    1.714 
#   12.857    0.000    0.000    0.000    0.000    0.000 
#    0.000    0.000    0.000    0.000    0.000    0.000 
#
# Total GULP energy -313177.849420 kJ/mol
# GULP energy per Si atom -5592.461597 kJ/mol
# Density = 2.133651 g / cm^3
# Si number density = 21.385187 Si / 1000 Ang^3
#
#
#
# Elastic Constant Matrix: (Units=GPa)
#
#
# Indices 1 2 3 4 5 6 
#
# 1 137.0990 14.7897 41.6089 0.0000 0.0000 0.0000
# 2 14.7897 41.1550 29.3003 0.0000 0.0000 0.0000
# 3 41.6089 29.3003 104.7200 0.0000 0.0000 0.0000
# 4 0.0000 0.0000 0.0000 26.7374 0.0000 0.0000
# 5 0.0000 0.0000 0.0000 0.0000 12.9547 0.0000
# 6 0.0000 0.0000 0.0000 0.0000 0.0000 29.3671
#
#
#
# Elastic Compliance Matrix: (Units=1/GPa)
#
#
# Indices 1 2 3 4 5 6 
#
# 1 0.008315 -0.000794 -0.003082 0.000000 0.000000 0.000000
# 2 -0.000794 0.030419 -0.008195 0.000000 0.000000 0.000000
# 3 -0.003082 -0.008195 0.013067 0.000000 0.000000 0.000000
# 4 0.000000 0.000000 0.000000 0.037401 0.000000 0.000000
# 5 0.000000 0.000000 0.000000 0.000000 0.077192 0.000000
# 6 0.000000 0.000000 0.000000 0.000000 0.000000 0.034052
#
#
# Mechanical properties :
#
#
# Convention : Reuss Voigt Hill
#
# Bulk Modulus (GPa) = 36.15620 50.48577 43.32099
# Shear Modulus (GPa) = 21.38522 26.96351 24.17437
#
# Velocity S-wave (km/s) = 3.16571 3.55470 3.36583
# Velocity P-wave (km/s) = 5.50510 6.36450 5.95034
#
# Compressibility (1/GPa) = 0.02765777
#
# Stress axis : x y z
#
# Youngs Moduli (GPa) = 120.26572 32.87471 76.53004
#
# Poissons Ratio (x) = 0.02611 0.23584
# Poissons Ratio (y) = 0.09551 0.62720
# Poissons Ratio (z) = 0.37061 0.26942
#
# Static dielectric constant tensor:
#      x y z
#    x 1.035560 0.000000 0.000000 
#    y 0.000000 1.827030 0.000000 
#    z 0.000000 0.000000 1.763170 
# 
# From -- ./inp_files/30145.got.cif
#   From: 2010.05.17/outbox.cif.g08.bks.cpg/sg73_16_cif.got.tgz:30145.got - 2010.06.03 17:35:07.
