data_PCOD9530995
_publ_section_title
;
Structure prediction by ZEFSAII (Michael W. Deem and Ramdas Pophale) SiO2 
 PCOD9530995
Probable space group: I B C A 
;
_chemical_formula_sum "Si O2"
_cell_formula_units_Z 112
_cell_length_a 30.707737
_cell_length_b 12.632480
_cell_length_c 12.870731
_cell_angle_alpha 90.000000
_cell_angle_beta 90.000000
_cell_angle_gamma 90.000000
_cell_volume 4992.747988
_symmetry_space_group_name_H-M "I B C A "
_symmetry_group_IT_number 73
_symmetry_cell_setting 'orthorhombic'
loop_
_space_group_symop_operation_xyz
x,y,z
-x,1/2-y,z
x,-y,1/2-z
1/2-x,y,-z
-x,-y,-z
x,1/2+y,-z
-x,y,1/2+z
1/2+x,-y,z
1/2+x,1/2+y,1/2+z
1/2-x,-y,1/2+z
1/2+x,1/2-y,-z
-x,1/2+y,1/2-z
1/2-x,1/2-y,1/2-z
1/2+x,y,1/2-z
1/2-x,1/2+y,z
x,1/2-y,1/2+z
loop_
_atom_site_type_symbol
_atom_site_label
_atom_site_fract_x
_atom_site_fract_y
_atom_site_fract_z
Si Si1 0.600308 0.379063 0.374291
Si Si2 0.970860 0.453147 0.906630
Si Si3 0.224696 0.383121 0.726120
Si Si4 0.963426 0.500000 0.250000
Si Si5 0.319707 0.331794 0.724423
Si Si6 0.659259 0.964675 0.982723
Si Si7 0.750000 0.938174 0.000000
Si Si8 0.585178 0.141866 0.420255
O O1 0.560088 0.457203 0.357172
O O2 0.637821 0.363513 0.289291
O O3 0.626324 0.439400 0.465079
O O4 0.582130 0.264397 0.396752
O O5 0.005611 0.422996 0.819063
O O6 0.938462 0.375475 0.967901
O O7 0.000000 0.500000 0.000000
O O8 0.207434 0.500000 0.750000
O O9 0.274360 0.378803 0.770650
O O10 0.193132 0.292409 0.770195
O O11 0.236988 0.370516 0.602796
O O12 0.936202 0.430192 0.168869
O O13 0.331487 0.384603 0.613761
O O14 0.707211 0.009315 0.996624
O O15 0.635482 0.893286 0.068213
#
# Coordination Sequence:
#
# PCOD9530995 Si02
#       8
#    16  16  16   8  16  16   8  16
#     4  11  22  41  68  96 137 180 228 292 355 431
#     4   9  22  43  69  96 133 170 219 288 351 437
#     4  10  21  39  63 100 141 187 253 301 340 421
#     4  10  22  46  70  96 138 176 220 292 366 434
#     4  10  21  39  65  94 136 191 238 288 358 413
#     4  10  22  41  65  96 142 185 236 289 343 418
#     4  10  20  40  66  94 140 196 232 296 340 394
#     4  10  23  44  67 105 138 172 231 291 355 430
#
# _framework density 22.432537
#
# number of rings (size 3 to 8) (size 9 to 14) (size 15 to 20)
#    0.000    2.000    0.000    3.000    4.000    3.429 
#   12.857   15.000    0.000    0.000    0.000    0.000 
#    0.000    0.000    0.000    0.000    0.000    0.000 
#
# Total GULP energy -312044.207151 kJ/mol
# GULP energy per Si atom -5572.217985 kJ/mol
# Density = 2.238148 g / cm^3
# Si number density = 22.432537 Si / 1000 Ang^3
#
#
#
# Elastic Constant Matrix: (Units=GPa)
#
#
# Indices 1 2 3 4 5 6 
#
# 1 110.6645 19.1127 29.9379 0.0000 0.0000 0.0000
# 2 19.1127 100.5153 24.0085 0.0000 0.0000 0.0000
# 3 29.9379 24.0085 81.1835 0.0000 0.0000 0.0000
# 4 0.0000 0.0000 0.0000 1.0899 0.0000 0.0000
# 5 0.0000 0.0000 0.0000 0.0000 27.2659 0.0000
# 6 0.0000 0.0000 0.0000 0.0000 0.0000 372.5163
#
#
#
# Elastic Compliance Matrix: (Units=1/GPa)
#
#
# Indices 1 2 3 4 5 6 
#
# 1 0.010153 -0.001115 -0.003414 0.000000 0.000000 0.000000
# 2 -0.001115 0.010827 -0.002791 0.000000 0.000000 0.000000
# 3 -0.003414 -0.002791 0.014402 0.000000 0.000000 0.000000
# 4 0.000000 0.000000 0.000000 0.917484 0.000000 0.000000
# 5 0.000000 0.000000 0.000000 0.000000 0.036676 0.000000
# 6 0.000000 0.000000 0.000000 0.000000 0.000000 0.002684
#
#
# Mechanical properties :
#
#
# Convention : Reuss Voigt Hill
#
# Bulk Modulus (GPa) = 48.21126 48.72016 48.46571
# Shear Modulus (GPa) = 4.93203 94.79472 49.86337
#
# Velocity S-wave (km/s) = 1.48438 6.50764 4.71979
# Velocity P-wave (km/s) = 4.94734 8.84486 7.16616
#
# Compressibility (1/GPa) = 0.02074204
#
# Stress axis : x y z
#
# Youngs Moduli (GPa) = 98.49772 92.35877 69.43409
#
# Poissons Ratio (x) = 0.10298 0.23706
# Poissons Ratio (y) = 0.10982 0.19378
# Poissons Ratio (z) = 0.33629 0.25776
#
# Static dielectric constant tensor:
#      x y z
#    x 1.896730 0.000000 0.000000 
#    y 0.000000 1.818180 0.000000 
#    z 0.000000 0.000000 1.948570 
# 
# From -- ./inp_files/20090.got.cif
#   From: 2010.05.17/outbox.cif.g08.bks.cpg/sg73_11_cif.got.tgz:20090.got - 2010.06.03 17:35:07.
