data_PCOD9530419
_publ_section_title
;
Structure prediction by ZEFSAII (Michael W. Deem and Ramdas Pophale) SiO2 
 PCOD9530419
Probable space group: I B C A 
;
_chemical_formula_sum "Si O2"
_cell_formula_units_Z 56
_cell_length_a 5.269859
_cell_length_b 17.688432
_cell_length_c 26.769239
_cell_angle_alpha 90.000000
_cell_angle_beta 90.000000
_cell_angle_gamma 90.000000
_cell_volume 2495.309138
_symmetry_space_group_name_H-M "I B C A "
_symmetry_group_IT_number 73
_symmetry_cell_setting 'orthorhombic'
loop_
_space_group_symop_operation_xyz
x,y,z
-x,1/2-y,z
x,-y,1/2-z
1/2-x,y,-z
-x,-y,-z
x,1/2+y,-z
-x,y,1/2+z
1/2+x,-y,z
1/2+x,1/2+y,1/2+z
1/2-x,-y,1/2+z
1/2+x,1/2-y,-z
-x,1/2+y,1/2-z
1/2-x,1/2-y,1/2-z
1/2+x,y,1/2-z
1/2-x,1/2+y,z
x,1/2-y,1/2+z
loop_
_atom_site_type_symbol
_atom_site_label
_atom_site_fract_x
_atom_site_fract_y
_atom_site_fract_z
Si Si1 0.500000 0.750000 0.414993
Si Si2 0.251594 0.393820 0.616458
Si Si3 0.264472 0.100116 0.555856
Si Si4 0.384262 0.915050 0.729493
O O1 0.680537 0.695665 0.382914
O O2 0.657121 0.810867 0.446606
O O3 0.501799 0.429716 0.590135
O O4 0.198136 0.419551 0.672258
O O5 0.004259 0.404256 0.582791
O O6 0.250000 0.068638 0.500000
O O7 0.658092 0.878175 0.738520
O O8 0.423876 0.000000 0.750000
#
# Coordination Sequence:
#
# PCOD9530419 Si02
#       4
#     8  16  16  16
#     4   8  22  28  54  78 126 150 182 216 268 322
#     4  10  20  33  52  83 116 144 189 229 267 327
#     4  10  20  31  53  82 120 156 179 211 268 335
#     4  10  21  39  61  81  99 138 199 243 285 322
#
# _framework density 22.442107
#
# number of rings (size 3 to 8) (size 9 to 14) (size 15 to 20)
#    1.714    0.571    0.000    3.429    4.000    0.000 
#    0.000    1.429    0.000    0.000    0.000   80.000 
#    0.000    0.000    0.000    0.000    0.000    0.000 
#
# Total GULP energy -156153.265964 kJ/mol
# GULP energy per Si atom -5576.902356 kJ/mol
# Density = 2.239103 g / cm^3
# Si number density = 22.442107 Si / 1000 Ang^3
#
#
#
# Elastic Constant Matrix: (Units=GPa)
#
#
# Indices 1 2 3 4 5 6 
#
# 1 142.1023 1.6467 2.4903 0.0000 0.0000 0.0000
# 2 1.6467 69.3853 3.9623 0.0000 0.0000 0.0000
# 3 2.4903 3.9623 107.4280 0.0000 0.0000 0.0000
# 4 0.0000 0.0000 0.0000 45.3243 0.0000 0.0000
# 5 0.0000 0.0000 0.0000 0.0000 78.0375 0.0000
# 6 0.0000 0.0000 0.0000 0.0000 0.0000 -34.1365
#
#
#
# Elastic Compliance Matrix: (Units=1/GPa)
#
#
# Indices 1 2 3 4 5 6 
#
# 1 0.007042 -0.000158 -0.000157 0.000000 0.000000 0.000000
# 2 -0.000158 0.014446 -0.000529 0.000000 0.000000 0.000000
# 3 -0.000157 -0.000529 0.009332 0.000000 0.000000 0.000000
# 4 0.000000 0.000000 0.000000 0.022063 0.000000 0.000000
# 5 0.000000 0.000000 0.000000 0.000000 0.012814 0.000000
# 6 0.000000 0.000000 0.000000 0.000000 0.000000 -0.029294
#
#
# Mechanical properties :
#
#
# Convention : Reuss Voigt Hill
#
# Bulk Modulus (GPa) = 34.32841 37.23488 35.78164
# Shear Modulus (GPa) = 104.59666 38.56614 71.58140
#
# Velocity S-wave (km/s) = 6.83436 4.14994 5.65378
# Velocity P-wave (km/s) = 8.80952 6.29208 7.65499
#
# Compressibility (1/GPa) = 0.02913039
#
# Stress axis : x y z
#
# Youngs Moduli (GPa) = 142.00964 69.22210 107.16130
#
# Poissons Ratio (x) = 0.01095 0.01687
# Poissons Ratio (y) = 0.02246 0.05670
# Poissons Ratio (z) = 0.02235 0.03663
#
# Static dielectric constant tensor:
#      x y z
#    x 1.892140 0.000000 0.000000 
#    y 0.000000 2.210840 0.000000 
#    z 0.000000 0.000000 1.789240 
# 
# From -- ./inp_files/2003.got.cif
#   From: 2010.05.17/outbox.cif.g08.bks.cpg/sg73_2_cif.got.tgz:2003.got - 2010.06.03 17:35:07.
