data_PCOD9530195
_publ_section_title
;
Structure prediction by ZEFSAII (Michael W. Deem and Ramdas Pophale) SiO2 
 PCOD9530195
Probable space group: I B C A 
;
_chemical_formula_sum "Si O2"
_cell_formula_units_Z 120
_cell_length_a 18.823485
_cell_length_b 14.538947
_cell_length_c 23.675043
_cell_angle_alpha 90.000000
_cell_angle_beta 90.000000
_cell_angle_gamma 90.000000
_cell_volume 6479.235450
_symmetry_space_group_name_H-M "I B C A "
_symmetry_group_IT_number 73
_symmetry_cell_setting 'orthorhombic'
loop_
_space_group_symop_operation_xyz
x,y,z
-x,1/2-y,z
x,-y,1/2-z
1/2-x,y,-z
-x,-y,-z
x,1/2+y,-z
-x,y,1/2+z
1/2+x,-y,z
1/2+x,1/2+y,1/2+z
1/2-x,-y,1/2+z
1/2+x,1/2-y,-z
-x,1/2+y,1/2-z
1/2-x,1/2-y,1/2-z
1/2+x,y,1/2-z
1/2-x,1/2+y,z
x,1/2-y,1/2+z
loop_
_atom_site_type_symbol
_atom_site_label
_atom_site_fract_x
_atom_site_fract_y
_atom_site_fract_z
Si Si1 0.677424 0.362677 0.576182
Si Si2 0.414867 0.767779 0.644356
Si Si3 0.411903 0.515999 0.136096
Si Si4 0.936934 0.176644 0.254672
Si Si5 0.544371 0.519094 0.442150
Si Si6 0.526300 0.000000 0.250000
Si Si7 0.841270 0.138294 0.057475
Si Si8 0.422361 0.202046 0.118518
O O1 0.643086 0.456765 0.599744
O O2 0.663133 0.348363 0.509705
O O3 0.762001 0.367721 0.582078
O O4 0.637114 0.278192 0.605921
O O5 0.500000 0.750000 0.641073
O O6 0.397413 0.875860 0.643358
O O7 0.391351 0.719005 0.703331
O O8 0.380385 0.719223 0.590700
O O9 0.487464 0.505018 0.105746
O O10 0.424121 0.473131 0.197809
O O11 0.908016 0.163212 0.318117
O O12 0.000000 0.250000 0.262175
O O13 0.975142 0.083945 0.234359
O O14 0.500000 0.500000 0.500000
O O15 0.611335 0.452633 0.436367
O O16 0.571155 0.622110 0.428601
O O17 0.500000 0.250000 0.117602
#
# Coordination Sequence:
#
# PCOD9530195 Si02
#       8
#    16  16  16  16  16   8  16  16
#     4  11  26  43  61  90 130 175 210 265 334 391
#     4  11  22  37  66  94 123 163 209 264 323 382
#     4  12  22  39  66  97 124 168 216 266 324 382
#     4  10  19  35  58  97 127 158 208 263 318 374
#     4  12  22  38  66  99 123 163 216 276 317 381
#     4  12  18  34  66  94 130 162 210 272 324 370
#     4  11  25  44  61  90 134 166 214 270 326 394
#     4  11  21  38  65  95 128 165 214 264 313 391
#
# _framework density 18.520703000000001
#
# number of rings (size 3 to 8) (size 9 to 14) (size 15 to 20)
#    0.000    0.800    8.000    0.800    1.867    1.600 
#    0.000    3.333    2.933    0.000    0.000    0.000 
#    0.000    0.000    0.000    0.000    0.000    0.000 
#
# Total GULP energy -334714.345058 kJ/mol
# GULP energy per Si atom -5578.572418 kJ/mol
# Density = 1.847855 g / cm^3
# Si number density = 18.520703 Si / 1000 Ang^3
#
#
#
# Elastic Constant Matrix: (Units=GPa)
#
#
# Indices 1 2 3 4 5 6 
#
# 1 96.2441 27.8400 41.5108 0.0000 0.0000 0.0000
# 2 27.8400 107.4758 24.8733 0.0000 0.0000 0.0000
# 3 41.5108 24.8733 98.6692 0.0000 0.0000 0.0000
# 4 0.0000 0.0000 0.0000 -21.8129 0.0000 0.0000
# 5 0.0000 0.0000 0.0000 0.0000 10.5345 0.0000
# 6 0.0000 0.0000 0.0000 0.0000 0.0000 20.0183
#
#
#
# Elastic Compliance Matrix: (Units=1/GPa)
#
#
# Indices 1 2 3 4 5 6 
#
# 1 0.013193 -0.002265 -0.004979 0.000000 0.000000 0.000000
# 2 -0.002265 0.010270 -0.001636 0.000000 0.000000 0.000000
# 3 -0.004979 -0.001636 0.012642 0.000000 0.000000 0.000000
# 4 0.000000 0.000000 0.000000 -0.045844 0.000000 0.000000
# 5 0.000000 0.000000 0.000000 0.000000 0.094926 0.000000
# 6 0.000000 0.000000 0.000000 0.000000 0.000000 0.049954
#
#
# Mechanical properties :
#
#
# Convention : Reuss Voigt Hill
#
# Bulk Modulus (GPa) = 54.51340 54.53749 54.52545
# Shear Modulus (GPa) = 31.44331 15.62565 23.53448
#
# Velocity S-wave (km/s) = 4.12483 2.90778 3.56857
# Velocity P-wave (km/s) = 7.22380 6.38626 6.81790
#
# Compressibility (1/GPa) = 0.01834411
#
# Stress axis : x y z
#
# Youngs Moduli (GPa) = 75.79710 97.37317 79.10040
#
# Poissons Ratio (x) = 0.22056 0.39387
# Poissons Ratio (y) = 0.17169 0.12940
# Poissons Ratio (z) = 0.37743 0.15930
#
# Static dielectric constant tensor:
#      x y z
#    x 1.601370 0.000000 0.000000 
#    y 0.000000 1.595440 0.000000 
#    z 0.000000 0.000000 1.717460 
# 
# From -- ./inp_files/27002.got.cif
#   From: 2010.05.17/outbox.cif.g08.bks.cpg/sg73_14_cif.got.tgz:27002.got - 2010.06.03 17:35:07.
