data_PCOD9530624
_publ_section_title
;
Structure prediction by ZEFSAII (Michael W. Deem and Ramdas Pophale) SiO2 
 PCOD9530624
Probable space group: I B C A 
;
_chemical_formula_sum "Si O2"
_cell_formula_units_Z 96
_cell_length_a 25.080395
_cell_length_b 12.891312
_cell_length_c 12.236976
_cell_angle_alpha 90.000000
_cell_angle_beta 90.000000
_cell_angle_gamma 90.000000
_cell_volume 3956.449254
_symmetry_space_group_name_H-M "I B C A "
_symmetry_group_IT_number 73
_symmetry_cell_setting 'orthorhombic'
loop_
_space_group_symop_operation_xyz
x,y,z
-x,1/2-y,z
x,-y,1/2-z
1/2-x,y,-z
-x,-y,-z
x,1/2+y,-z
-x,y,1/2+z
1/2+x,-y,z
1/2+x,1/2+y,1/2+z
1/2-x,-y,1/2+z
1/2+x,1/2-y,-z
-x,1/2+y,1/2-z
1/2-x,1/2-y,1/2-z
1/2+x,y,1/2-z
1/2-x,1/2+y,z
x,1/2-y,1/2+z
loop_
_atom_site_type_symbol
_atom_site_label
_atom_site_fract_x
_atom_site_fract_y
_atom_site_fract_z
Si Si1 0.202291 0.639968 0.916604
Si Si2 0.000000 0.250000 0.163049
Si Si3 0.436368 0.382391 0.006963
Si Si4 0.744853 0.000000 0.750000
Si Si5 0.589465 0.432946 0.859306
Si Si6 0.082750 0.236463 0.790778
Si Si7 0.664063 0.638953 0.143063
O O1 0.220937 0.591712 0.801414
O O2 0.142998 0.592534 0.927828
O O3 0.193025 0.762172 0.908443
O O4 0.250000 0.617855 0.000000
O O5 0.970297 0.175304 0.265716
O O6 0.981493 0.165526 0.067113
O O7 0.445472 0.489820 0.069452
O O8 0.417560 0.298084 0.098426
O O9 0.384963 0.395913 0.929727
O O10 0.706229 0.050073 0.838643
O O11 0.602449 0.500000 0.750000
O O12 0.569586 0.319330 0.813602
O O13 0.136779 0.180177 0.756612
#
# Coordination Sequence:
#
# PCOD9530624 Si02
#       7
#    16   8  16   8  16  16  16
#     4  11  23  38  62  92 126 169 215 260 313 375
#     4  10  20  36  58  98 116 164 204 248 322 372
#     4  10  20  38  65  87 125 163 206 256 312 392
#     4  12  24  42  62  94 130 162 216 274 302 378
#     4   9  18  37  58  85 118 166 204 253 315 364
#     4   9  20  38  63  83 125 160 201 259 311 379
#     4  10  24  40  60  92 123 166 207 259 326 370
#
# _framework density 24.264181000000001
#
# number of rings (size 3 to 8) (size 9 to 14) (size 15 to 20)
#    0.000    2.000    0.833    2.000    2.333    2.667 
#    3.000    0.000   22.000    0.000    0.000    0.000 
#    0.000    0.000    0.000    0.000    0.000    0.000 
#
# Total GULP energy -267605.864216 kJ/mol
# GULP energy per Si atom -5575.122171 kJ/mol
# Density = 2.420896 g / cm^3
# Si number density = 24.264181 Si / 1000 Ang^3
#
#
#
# Elastic Constant Matrix: (Units=GPa)
#
#
# Indices 1 2 3 4 5 6 
#
# 1 64.6669 14.6755 -9.7390 0.0000 0.0000 0.0000
# 2 14.6755 93.9838 2.2943 0.0000 0.0000 0.0000
# 3 -9.7390 2.2943 34.0327 0.0000 0.0000 0.0000
# 4 0.0000 0.0000 0.0000 16.8120 0.0000 0.0000
# 5 0.0000 0.0000 0.0000 0.0000 33.4658 0.0000
# 6 0.0000 0.0000 0.0000 0.0000 0.0000 23.1953
#
#
#
# Elastic Compliance Matrix: (Units=1/GPa)
#
#
# Indices 1 2 3 4 5 6 
#
# 1 0.016842 -0.002752 0.005005 0.000000 0.000000 0.000000
# 2 -0.002752 0.011107 -0.001536 0.000000 0.000000 0.000000
# 3 0.005005 -0.001536 0.030919 0.000000 0.000000 0.000000
# 4 0.000000 0.000000 0.000000 0.059481 0.000000 0.000000
# 5 0.000000 0.000000 0.000000 0.000000 0.029881 0.000000
# 6 0.000000 0.000000 0.000000 0.000000 0.000000 0.043112
#
#
# Mechanical properties :
#
#
# Convention : Reuss Voigt Hill
#
# Bulk Modulus (GPa) = 16.58307 23.01612 19.79960
# Shear Modulus (GPa) = 23.80826 27.05812 25.43319
#
# Velocity S-wave (km/s) = 3.13583 3.34300 3.24107
# Velocity P-wave (km/s) = 4.46771 4.94036 4.70997
#
# Compressibility (1/GPa) = 0.06030246
#
# Stress axis : x y z
#
# Youngs Moduli (GPa) = 59.37465 90.03028 32.34217
#
# Poissons Ratio (x) = 0.24777 -0.16188
# Poissons Ratio (y) = 0.16340 0.04969
# Poissons Ratio (z) = -0.29718 0.13832
#
# Static dielectric constant tensor:
#      x y z
#    x 2.217170 0.000000 0.000000 
#    y 0.000000 2.033810 0.000000 
#    z 0.000000 0.000000 1.953680 
# 
# From -- ./inp_files/14776.got.cif
#   From: 2010.05.17/outbox.cif.g08.bks.cpg/sg73_8_cif.got.tgz:14776.got - 2010.06.03 17:35:07.
