data_PCOD9530490
_publ_section_title
;
Structure prediction by ZEFSAII (Michael W. Deem and Ramdas Pophale) SiO2 
 PCOD9530490
Probable space group: I B C A 
;
_chemical_formula_sum "Si O2"
_cell_formula_units_Z 88
_cell_length_a 12.295462
_cell_length_b 17.088025
_cell_length_c 22.104502
_cell_angle_alpha 90.000000
_cell_angle_beta 90.000000
_cell_angle_gamma 90.000000
_cell_volume 4644.269975
_symmetry_space_group_name_H-M "I B C A "
_symmetry_group_IT_number 73
_symmetry_cell_setting 'orthorhombic'
loop_
_space_group_symop_operation_xyz
x,y,z
-x,1/2-y,z
x,-y,1/2-z
1/2-x,y,-z
-x,-y,-z
x,1/2+y,-z
-x,y,1/2+z
1/2+x,-y,z
1/2+x,1/2+y,1/2+z
1/2-x,-y,1/2+z
1/2+x,1/2-y,-z
-x,1/2+y,1/2-z
1/2-x,1/2-y,1/2-z
1/2+x,y,1/2-z
1/2-x,1/2+y,z
x,1/2-y,1/2+z
loop_
_atom_site_type_symbol
_atom_site_label
_atom_site_fract_x
_atom_site_fract_y
_atom_site_fract_z
Si Si1 0.384755 0.396979 0.154863
Si Si2 0.500000 0.250000 0.627822
Si Si3 0.500000 0.750000 0.090071
Si Si4 0.992474 0.500000 0.750000
Si Si5 0.124246 0.394820 0.151731
Si Si6 0.135243 0.816654 0.519638
Si Si7 0.546643 0.969325 0.938564
O O1 0.445694 0.315863 0.168247
O O2 0.427575 0.459016 0.202795
O O3 0.255374 0.388787 0.152761
O O4 0.445943 0.424414 0.093590
O O5 0.592183 0.225975 0.579441
O O6 0.569535 0.688122 0.130882
O O7 0.435856 0.695692 0.040979
O O8 0.920913 0.565627 0.785763
O O9 0.091616 0.461288 0.102654
O O10 0.250000 0.784512 0.500000
O O11 0.136912 0.905798 0.542650
O O12 0.500000 0.000000 0.000000
#
# Coordination Sequence:
#
# PCOD9530490 Si02
#       7
#    16   8   8   8  16  16  16
#     4  10  22  41  64  85 122 163 199 252 312 349
#     4   9  20  39  56  88 126 157 199 244 298 372
#     4  11  22  37  56  92 124 149 211 244 292 372
#     4  10  24  44  62  90 118 150 222 256 292 378
#     4  11  23  40  65  89 121 163 201 257 308 350
#     4  10  20  34  55  86 127 160 190 237 292 359
#     4  10  21  37  57  92 123 153 200 241 286 371
#
# _framework density 18.948080000000001
#
# number of rings (size 3 to 8) (size 9 to 14) (size 15 to 20)
#    0.000    1.818    1.818    1.636    2.545    0.727 
#    0.000    7.273    0.000    0.000    0.000    0.000 
#    0.000    0.000    0.000    0.000    0.000    0.000 
#
# Total GULP energy -244958.299668 kJ/mol
# GULP energy per Si atom -5567.234083 kJ/mol
# Density = 1.890495 g / cm^3
# Si number density = 18.948080 Si / 1000 Ang^3
#
#
#
# Elastic Constant Matrix: (Units=GPa)
#
#
# Indices 1 2 3 4 5 6 
#
# 1 115.3316 30.8261 14.4796 0.0000 0.0000 0.0000
# 2 30.8261 91.8290 10.0728 0.0000 0.0000 0.0000
# 3 14.4796 10.0728 53.0878 0.0000 0.0000 0.0000
# 4 0.0000 0.0000 0.0000 -2.2653 0.0000 0.0000
# 5 0.0000 0.0000 0.0000 0.0000 13.6950 0.0000
# 6 0.0000 0.0000 0.0000 0.0000 0.0000 9.7427
#
#
#
# Elastic Compliance Matrix: (Units=1/GPa)
#
#
# Indices 1 2 3 4 5 6 
#
# 1 0.009745 -0.003043 -0.002081 0.000000 0.000000 0.000000
# 2 -0.003043 0.012072 -0.001460 0.000000 0.000000 0.000000
# 3 -0.002081 -0.001460 0.019681 0.000000 0.000000 0.000000
# 4 0.000000 0.000000 0.000000 -0.441451 0.000000 0.000000
# 5 0.000000 0.000000 0.000000 0.000000 0.073019 0.000000
# 6 0.000000 0.000000 0.000000 0.000000 0.000000 0.102640
#
#
# Mechanical properties :
#
#
# Convention : Reuss Voigt Hill
#
# Bulk Modulus (GPa) = 35.29857 41.22281 38.26069
# Shear Modulus (GPa) = -24.79149 17.89250 -3.44950
#
# Velocity S-wave (km/s) = -3.62109 3.07627 -1.35072
# Velocity P-wave (km/s) = 1.08925 5.86692 4.21943
#
# Compressibility (1/GPa) = 0.02832976
#
# Stress axis : x y z
#
# Youngs Moduli (GPa) = 102.61410 82.83937 50.80965
#
# Poissons Ratio (x) = 0.25209 0.10571
# Poissons Ratio (y) = 0.31227 0.07420
# Poissons Ratio (z) = 0.21350 0.12098
#
# Static dielectric constant tensor:
#      x y z
#    x 1.646660 0.000000 0.000000 
#    y 0.000000 1.780340 0.000000 
#    z 0.000000 0.000000 1.634530 
# 
# From -- ./inp_files/12780.got.cif
#   From: 2010.05.17/outbox.cif.g08.bks.cpg/sg73_7_cif.got.tgz:12780.got - 2010.06.03 17:35:07.
