data_PCOD9530715
_publ_section_title
;
Structure prediction by ZEFSAII (Michael W. Deem and Ramdas Pophale) SiO2 
 PCOD9530715
Probable space group: I B C A 
;
_chemical_formula_sum "Si O2"
_cell_formula_units_Z 112
_cell_length_a 22.217309
_cell_length_b 16.398521
_cell_length_c 14.776093
_cell_angle_alpha 90.000000
_cell_angle_beta 90.000000
_cell_angle_gamma 90.000000
_cell_volume 5383.388860
_symmetry_space_group_name_H-M "I B C A "
_symmetry_group_IT_number 73
_symmetry_cell_setting 'orthorhombic'
loop_
_space_group_symop_operation_xyz
x,y,z
-x,1/2-y,z
x,-y,1/2-z
1/2-x,y,-z
-x,-y,-z
x,1/2+y,-z
-x,y,1/2+z
1/2+x,-y,z
1/2+x,1/2+y,1/2+z
1/2-x,-y,1/2+z
1/2+x,1/2-y,-z
-x,1/2+y,1/2-z
1/2-x,1/2-y,1/2-z
1/2+x,y,1/2-z
1/2-x,1/2+y,z
x,1/2-y,1/2+z
loop_
_atom_site_type_symbol
_atom_site_label
_atom_site_fract_x
_atom_site_fract_y
_atom_site_fract_z
Si Si1 0.759765 0.193631 0.103417
Si Si2 0.079423 0.945276 0.381837
Si Si3 0.131986 0.761073 0.653632
Si Si4 0.314671 0.909862 0.253123
Si Si5 0.455103 0.385287 0.185531
Si Si6 0.214325 0.121663 0.095987
Si Si7 0.458651 0.327583 0.535426
O O1 0.695436 0.216150 0.146322
O O2 0.789859 0.121263 0.157866
O O3 0.793967 0.280554 0.108235
O O4 0.750000 0.171407 0.000000
O O5 0.047584 0.915251 0.288756
O O6 0.149786 0.920806 0.391319
O O7 0.045714 0.899397 0.463247
O O8 0.074352 0.042846 0.375125
O O9 0.140428 0.839878 0.714793
O O10 0.084148 0.696242 0.686285
O O11 0.107816 0.793355 0.557192
O O12 0.259859 0.908211 0.325563
O O13 0.340672 0.000000 0.250000
O O14 0.514937 0.361446 0.130459
O O15 0.250000 0.110157 0.000000
O O16 0.500000 0.250000 0.508001
#
# Coordination Sequence:
#
# PCOD9530715 Si02
#       7
#    16  16  16  16  16  16  16
#     4  10  20  37  59  88 122 161 211 247 313 386
#     4  11  21  39  66  93 123 162 215 259 321 375
#     4  10  21  42  60  86 126 168 203 264 320 373
#     4  11  23  37  58  91 131 164 203 259 318 385
#     4  10  23  39  65  91 120 169 209 268 313 376
#     4  10  21  38  66  89 123 166 205 258 311 384
#     4  10  22  41  64  88 127 163 215 266 318 373
#
# _framework density 20.804739000000001
#
# number of rings (size 3 to 8) (size 9 to 14) (size 15 to 20)
#    0.000    1.714    0.000    6.429    4.000    2.286 
#    5.143    1.429    0.000    0.000    0.000    0.000 
#    0.000    0.000    0.000    0.000    0.000    0.000 
#
# Total GULP energy -312695.184917 kJ/mol
# GULP energy per Si atom -5583.842588 kJ/mol
# Density = 2.075739 g / cm^3
# Si number density = 20.804739 Si / 1000 Ang^3
#
#
#
# Elastic Constant Matrix: (Units=GPa)
#
#
# Indices 1 2 3 4 5 6 
#
# 1 65.1547 22.7393 14.1391 0.0000 0.0000 0.0000
# 2 22.7393 108.6860 41.2343 0.0000 0.0000 0.0000
# 3 14.1391 41.2343 73.0444 0.0000 0.0000 0.0000
# 4 0.0000 0.0000 0.0000 38.0568 0.0000 0.0000
# 5 0.0000 0.0000 0.0000 0.0000 6.0923 0.0000
# 6 0.0000 0.0000 0.0000 0.0000 0.0000 -3.0449
#
#
#
# Elastic Compliance Matrix: (Units=1/GPa)
#
#
# Indices 1 2 3 4 5 6 
#
# 1 0.016703 -0.002886 -0.001604 0.000000 0.000000 0.000000
# 2 -0.002886 0.012207 -0.006332 0.000000 0.000000 0.000000
# 3 -0.001604 -0.006332 0.017575 0.000000 0.000000 0.000000
# 4 0.000000 0.000000 0.000000 0.026276 0.000000 0.000000
# 5 0.000000 0.000000 0.000000 0.000000 0.164142 0.000000
# 6 0.000000 0.000000 0.000000 0.000000 0.000000 -0.328416
#
#
# Mechanical properties :
#
#
# Convention : Reuss Voigt Hill
#
# Bulk Modulus (GPa) = 40.25607 44.79007 42.52307
# Shear Modulus (GPa) = -81.18729 19.47233 -30.85748
#
# Velocity S-wave (km/s) = -6.25365 3.06266 -3.85540
# Velocity P-wave (km/s) = 5.72300 5.83798 0.81525
#
# Compressibility (1/GPa) = 0.02484098
#
# Stress axis : x y z
#
# Youngs Moduli (GPa) = 59.86786 81.91964 56.89753
#
# Poissons Ratio (x) = 0.23643 0.09126
# Poissons Ratio (y) = 0.17279 0.36030
# Poissons Ratio (z) = 0.09603 0.51874
#
# Static dielectric constant tensor:
#      x y z
#    x 1.777310 0.000000 0.000000 
#    y 0.000000 1.748440 0.000000 
#    z 0.000000 0.000000 1.799320 
# 
# From -- ./inp_files/19387.got.cif
#   From: 2010.05.17/outbox.cif.g08.bks.cpg/sg73_10_cif.got.tgz:19387.got - 2010.06.03 17:35:07.
