data_PCOD9530672
_publ_section_title
;
Structure prediction by ZEFSAII (Michael W. Deem and Ramdas Pophale) SiO2 
 PCOD9530672
Probable space group: I B C A 
;
_chemical_formula_sum "Si O2"
_cell_formula_units_Z 104
_cell_length_a 20.501873
_cell_length_b 9.339705
_cell_length_c 25.912332
_cell_angle_alpha 90.000000
_cell_angle_beta 90.000000
_cell_angle_gamma 90.000000
_cell_volume 4961.730795
_symmetry_space_group_name_H-M "I B C A "
_symmetry_group_IT_number 73
_symmetry_cell_setting 'orthorhombic'
loop_
_space_group_symop_operation_xyz
x,y,z
-x,1/2-y,z
x,-y,1/2-z
1/2-x,y,-z
-x,-y,-z
x,1/2+y,-z
-x,y,1/2+z
1/2+x,-y,z
1/2+x,1/2+y,1/2+z
1/2-x,-y,1/2+z
1/2+x,1/2-y,-z
-x,1/2+y,1/2-z
1/2-x,1/2-y,1/2-z
1/2+x,y,1/2-z
1/2-x,1/2+y,z
x,1/2-y,1/2+z
loop_
_atom_site_type_symbol
_atom_site_label
_atom_site_fract_x
_atom_site_fract_y
_atom_site_fract_z
Si Si1 0.223938 0.729774 0.191811
Si Si2 0.161340 0.886006 0.539254
Si Si3 0.541579 0.538200 0.853077
Si Si4 0.671205 0.474611 0.811261
Si Si5 0.541095 0.605082 0.536096
Si Si6 0.096053 0.136720 0.849550
Si Si7 0.750000 0.859985 0.500000
O O1 0.250000 0.750000 0.250000
O O2 0.284749 0.651024 0.166212
O O3 0.158303 0.634553 0.188361
O O4 0.201998 0.878640 0.166963
O O5 0.109036 0.867588 0.493070
O O6 0.123379 0.892802 0.593290
O O7 0.208743 0.748251 0.536102
O O8 0.201670 0.031526 0.529715
O O9 0.595004 0.453860 0.820162
O O10 0.549163 0.477074 0.910293
O O11 0.566582 0.702285 0.850109
O O12 0.465812 0.536558 0.837437
O O13 0.678915 0.500000 0.750000
O O14 0.500000 0.750000 0.543359
O O15 0.500000 0.500000 0.500000
#
# Coordination Sequence:
#
# PCOD9530672 Si02
#       7
#    16  16  16  16  16  16   8
#     4   9  19  37  61  88 114 161 203 250 309 381
#     4  11  22  38  57  85 118 160 201 247 308 356
#     4  10  21  38  60  93 121 161 207 256 315 372
#     4   9  19  39  64  87 121 158 206 257 316 371
#     4  12  23  39  63  88 124 166 210 251 304 378
#     4  10  20  36  63  87 122 158 208 252 314 375
#     4  10  24  38  54  82 120 154 202 248 296 362
#
# _framework density 20.960428
#
# number of rings (size 3 to 8) (size 9 to 14) (size 15 to 20)
#    0.000    1.846    1.538    2.769    0.000    4.923 
#    2.769    2.308    6.769    0.000    0.000    0.000 
#    0.000    0.000    0.000    0.000    0.000    0.000 
#
# Total GULP energy -290103.463478 kJ/mol
# GULP energy per Si atom -5578.912759 kJ/mol
# Density = 2.091272 g / cm^3
# Si number density = 20.960428 Si / 1000 Ang^3
#
#
#
# Elastic Constant Matrix: (Units=GPa)
#
#
# Indices 1 2 3 4 5 6 
#
# 1 170.4783 36.8769 33.8210 0.0000 0.0000 0.0000
# 2 36.8769 44.5548 -0.9628 0.0000 0.0000 0.0000
# 3 33.8210 -0.9628 30.8577 0.0000 0.0000 0.0000
# 4 0.0000 0.0000 0.0000 13.4487 0.0000 0.0000
# 5 0.0000 0.0000 0.0000 0.0000 35.6721 0.0000
# 6 0.0000 0.0000 0.0000 0.0000 0.0000 32.7117
#
#
#
# Elastic Compliance Matrix: (Units=1/GPa)
#
#
# Indices 1 2 3 4 5 6 
#
# 1 0.009892 -0.008427 -0.011105 0.000000 0.000000 0.000000
# 2 -0.008427 0.029639 0.010161 0.000000 0.000000 0.000000
# 3 -0.011105 0.010161 0.044895 0.000000 0.000000 0.000000
# 4 0.000000 0.000000 0.000000 0.074357 0.000000 0.000000
# 5 0.000000 0.000000 0.000000 0.000000 0.028033 0.000000
# 6 0.000000 0.000000 0.000000 0.000000 0.000000 0.030570
#
#
# Mechanical properties :
#
#
# Convention : Reuss Voigt Hill
#
# Bulk Modulus (GPa) = 15.22435 42.81790 29.02113
# Shear Modulus (GPa) = 19.37822 28.11020 23.74421
#
# Velocity S-wave (km/s) = 3.04388 3.66609 3.36938
# Velocity P-wave (km/s) = 4.43089 6.19617 5.38634
#
# Compressibility (1/GPa) = 0.06568423
#
# Stress axis : x y z
#
# Youngs Moduli (GPa) = 101.09377 33.73956 22.27422
#
# Poissons Ratio (x) = 0.28433 0.24735
# Poissons Ratio (y) = 0.85193 -0.22633
# Poissons Ratio (z) = 1.12261 -0.34283
#
# Static dielectric constant tensor:
#      x y z
#    x 1.743880 0.000000 0.000000 
#    y 0.000000 1.572710 0.000000 
#    z 0.000000 0.000000 1.745040 
# 
# From -- ./inp_files/34681.got.cif
#   From: 2010.05.17/outbox.cif.g08.bks.cpg/sg73_18_cif.got.tgz:34681.got - 2010.06.03 17:35:07.
