data_PCOD9530033
_publ_section_title
;
Structure prediction by ZEFSAII (Michael W. Deem and Ramdas Pophale) SiO2 
 PCOD9530033
Probable space group: I B C A 
;
_chemical_formula_sum "Si O2"
_cell_formula_units_Z 120
_cell_length_a 15.580970
_cell_length_b 16.514540
_cell_length_c 23.138997
_cell_angle_alpha 90.000000
_cell_angle_beta 90.000000
_cell_angle_gamma 90.000000
_cell_volume 5953.954376
_symmetry_space_group_name_H-M "I B C A "
_symmetry_group_IT_number 73
_symmetry_cell_setting 'orthorhombic'
loop_
_space_group_symop_operation_xyz
x,y,z
-x,1/2-y,z
x,-y,1/2-z
1/2-x,y,-z
-x,-y,-z
x,1/2+y,-z
-x,y,1/2+z
1/2+x,-y,z
1/2+x,1/2+y,1/2+z
1/2-x,-y,1/2+z
1/2+x,1/2-y,-z
-x,1/2+y,1/2-z
1/2-x,1/2-y,1/2-z
1/2+x,y,1/2-z
1/2-x,1/2+y,z
x,1/2-y,1/2+z
loop_
_atom_site_type_symbol
_atom_site_label
_atom_site_fract_x
_atom_site_fract_y
_atom_site_fract_z
Si Si1 0.750000 0.357038 0.500000
Si Si2 0.447707 0.667353 0.781197
Si Si3 0.313432 0.002557 0.920447
Si Si4 0.931936 0.314878 0.547117
Si Si5 0.439550 0.425391 0.513596
Si Si6 0.846155 0.574675 0.634911
Si Si7 0.422718 0.589570 0.664390
Si Si8 0.422049 0.020882 0.689137
O O1 0.773332 0.422770 0.450209
O O2 0.836535 0.306352 0.517867
O O3 0.500000 0.750000 0.785769
O O4 0.370326 0.650897 0.825905
O O5 0.411670 0.651668 0.716827
O O6 0.514748 0.595514 0.797346
O O7 0.368071 0.966531 0.867845
O O8 0.362932 0.056045 0.968631
O O9 0.247418 0.064201 0.890835
O O10 0.913456 0.374148 0.600899
O O11 0.000000 0.250000 0.573388
O O12 0.997495 0.351458 0.499786
O O13 0.500000 0.500000 0.500000
O O14 0.407210 0.424799 0.578665
O O15 0.864419 0.490751 0.669159
O O16 0.518469 0.555277 0.672340
O O17 0.376315 0.000000 0.750000
#
# Coordination Sequence:
#
# PCOD9530033 Si02
#       8
#     8  16  16  16  16  16  16  16
#     4  12  24  42  64 100 130 176 220 272 326 394
#     4  10  22  39  60  92 129 164 215 274 340 394
#     4  12  19  38  65  94 125 160 228 277 313 386
#     4  12  25  42  65  96 136 176 214 269 338 396
#     4  12  19  38  66  90 124 169 213 264 326 381
#     4  11  21  35  64  94 121 169 220 269 319 393
#     4  10  18  40  65  89 115 173 229 263 314 392
#     4   9  20  35  62  89 117 166 224 267 316 388
#
# _framework density 20.154672000000001
#
# number of rings (size 3 to 8) (size 9 to 14) (size 15 to 20)
#    0.000    1.067    6.667    2.400    0.000    1.600 
#    2.400    0.000    0.000    2.400    0.000    0.000 
#    0.000    0.000    0.000    0.000    0.000    0.000 
#
# Total GULP energy -334185.914907 kJ/mol
# GULP energy per Si atom -5569.765248 kJ/mol
# Density = 2.010880 g / cm^3
# Si number density = 20.154672 Si / 1000 Ang^3
#
#
#
# Elastic Constant Matrix: (Units=GPa)
#
#
# Indices 1 2 3 4 5 6 
#
# 1 85.8080 14.0348 29.1652 0.0000 0.0000 0.0000
# 2 14.0348 33.6006 9.6542 0.0000 0.0000 0.0000
# 3 29.1652 9.6542 88.4769 0.0000 0.0000 0.0000
# 4 0.0000 0.0000 0.0000 16.2652 0.0000 0.0000
# 5 0.0000 0.0000 0.0000 0.0000 33.9953 0.0000
# 6 0.0000 0.0000 0.0000 0.0000 0.0000 16.0534
#
#
#
# Elastic Compliance Matrix: (Units=1/GPa)
#
#
# Indices 1 2 3 4 5 6 
#
# 1 0.013779 -0.004594 -0.004041 0.000000 0.000000 0.000000
# 2 -0.004594 0.032257 -0.002005 0.000000 0.000000 0.000000
# 3 -0.004041 -0.002005 0.012853 0.000000 0.000000 0.000000
# 4 0.000000 0.000000 0.000000 0.061481 0.000000 0.000000
# 5 0.000000 0.000000 0.000000 0.000000 0.029416 0.000000
# 6 0.000000 0.000000 0.000000 0.000000 0.000000 0.062292
#
#
# Mechanical properties :
#
#
# Convention : Reuss Voigt Hill
#
# Bulk Modulus (GPa) = 26.59011 34.84375 30.71693
# Shear Modulus (GPa) = 20.33398 23.59820 21.96609
#
# Velocity S-wave (km/s) = 3.17976 3.42549 3.30491
# Velocity P-wave (km/s) = 5.16748 5.74204 5.46232
#
# Compressibility (1/GPa) = 0.03760797
#
# Stress axis : x y z
#
# Youngs Moduli (GPa) = 72.57549 31.00149 77.80202
#
# Poissons Ratio (x) = 0.14243 0.31437
# Poissons Ratio (y) = 0.33344 0.15601
# Poissons Ratio (z) = 0.29325 0.06216
#
# Static dielectric constant tensor:
#      x y z
#    x 1.780990 0.000000 0.000000 
#    y 0.000000 1.759160 0.000000 
#    z 0.000000 0.000000 1.728370 
# 
# From -- ./inp_files/29666.got.cif
#   From: 2010.05.17/outbox.cif.g08.bks.cpg/sg73_15_cif.got.tgz:29666.got - 2010.06.03 17:35:07.
