data_PCOD9530637
_publ_section_title
;
Structure prediction by ZEFSAII (Michael W. Deem and Ramdas Pophale) SiO2 
 PCOD9530637
Probable space group: I B C A 
;
_chemical_formula_sum "Si O2"
_cell_formula_units_Z 72
_cell_length_a 20.677152
_cell_length_b 17.312164
_cell_length_c 9.831117
_cell_angle_alpha 90.000000
_cell_angle_beta 90.000000
_cell_angle_gamma 90.000000
_cell_volume 3519.208051
_symmetry_space_group_name_H-M "I B C A "
_symmetry_group_IT_number 73
_symmetry_cell_setting 'orthorhombic'
loop_
_space_group_symop_operation_xyz
x,y,z
-x,1/2-y,z
x,-y,1/2-z
1/2-x,y,-z
-x,-y,-z
x,1/2+y,-z
-x,y,1/2+z
1/2+x,-y,z
1/2+x,1/2+y,1/2+z
1/2-x,-y,1/2+z
1/2+x,1/2-y,-z
-x,1/2+y,1/2-z
1/2-x,1/2-y,1/2-z
1/2+x,y,1/2-z
1/2-x,1/2+y,z
x,1/2-y,1/2+z
loop_
_atom_site_type_symbol
_atom_site_label
_atom_site_fract_x
_atom_site_fract_y
_atom_site_fract_z
Si Si1 0.309487 0.298027 0.084360
Si Si2 0.250000 0.149897 0.000000
Si Si3 0.506880 0.911313 0.254602
Si Si4 0.849711 0.583811 0.314506
Si Si5 0.549374 0.179078 0.976413
O O1 0.326526 0.348887 0.213433
O O2 0.250000 0.335100 0.000000
O O3 0.282910 0.211047 0.105146
O O4 0.376875 0.295263 0.001918
O O5 0.307117 0.097266 0.945778
O O6 0.573691 0.907955 0.168044
O O7 0.527429 0.880681 0.403805
O O8 0.457684 0.857788 0.172874
O O9 0.485157 0.000000 0.250000
O O10 0.838721 0.500000 0.250000
O O11 0.500000 0.250000 0.985907
#
# Coordination Sequence:
#
# PCOD9530637 Si02
#       5
#    16   8  16  16  16
#     4   9  22  39  59  84 123 153 199 248 302 353
#     4  10  20  36  60  82 118 160 200 234 308 354
#     4  10  22  40  61  88 125 157 200 257 309 356
#     4  10  21  38  59  87 122 156 198 252 298 358
#     4  11  21  39  64  90 118 161 208 251 302 371
#
# _framework density 20.459150000000001
#
# number of rings (size 3 to 8) (size 9 to 14) (size 15 to 20)
#    0.667    1.333    0.000    3.333    1.556    1.778 
#    4.000    1.111    0.000    0.000    0.000    0.000 
#    0.000    0.000    0.000    0.000    0.000    0.000 
#
# Total GULP energy -200805.182752 kJ/mol
# GULP energy per Si atom -5577.921743 kJ/mol
# Density = 2.041258 g / cm^3
# Si number density = 20.459150 Si / 1000 Ang^3
#
#
#
# Elastic Constant Matrix: (Units=GPa)
#
#
# Indices 1 2 3 4 5 6 
#
# 1 87.9546 24.5771 10.3224 0.0000 0.0000 0.0000
# 2 24.5771 66.8230 -9.9742 0.0000 0.0000 0.0000
# 3 10.3224 -9.9742 16.8077 0.0000 0.0000 0.0000
# 4 0.0000 0.0000 0.0000 33.2430 0.0000 0.0000
# 5 0.0000 0.0000 0.0000 0.0000 44.0546 0.0000
# 6 0.0000 0.0000 0.0000 0.0000 0.0000 16.3009
#
#
#
# Elastic Compliance Matrix: (Units=1/GPa)
#
#
# Indices 1 2 3 4 5 6 
#
# 1 0.015120 -0.007622 -0.013809 0.000000 0.000000 0.000000
# 2 -0.007622 0.020262 0.016705 0.000000 0.000000 0.000000
# 3 -0.013809 0.016705 0.077891 0.000000 0.000000 0.000000
# 4 0.000000 0.000000 0.000000 0.030082 0.000000 0.000000
# 5 0.000000 0.000000 0.000000 0.000000 0.022699 0.000000
# 6 0.000000 0.000000 0.000000 0.000000 0.000000 0.061346
#
#
# Mechanical properties :
#
#
# Convention : Reuss Voigt Hill
#
# Bulk Modulus (GPa) = 9.63204 24.60399 17.11801
# Shear Modulus (GPa) = 18.41898 28.49703 23.45801
#
# Velocity S-wave (km/s) = 3.00372 3.73617 3.38979
# Velocity P-wave (km/s) = 4.09243 5.53751 4.86888
#
# Compressibility (1/GPa) = 0.10382019
#
# Stress axis : x y z
#
# Youngs Moduli (GPa) = 66.13731 49.35385 12.83847
#
# Poissons Ratio (x) = 0.37619 0.17729
# Poissons Ratio (y) = 0.50412 -0.21447
# Poissons Ratio (z) = 0.91331 -0.82447
#
# Static dielectric constant tensor:
#      x y z
#    x 1.711490 0.000000 0.000000 
#    y 0.000000 1.710840 0.000000 
#    z 0.000000 0.000000 1.754340 
# 
# From -- ./inp_files/5476.got.cif
#   From: 2010.05.17/outbox.cif.g08.bks.cpg/sg73_3_cif.got.tgz:5476.got - 2010.06.03 17:35:07.
