data_PCOD9530494
_publ_section_title
;
Structure prediction by ZEFSAII (Michael W. Deem and Ramdas Pophale) SiO2 
 PCOD9530494
Probable space group: I B C A 
;
_chemical_formula_sum "Si O2"
_cell_formula_units_Z 88
_cell_length_a 12.566983
_cell_length_b 21.813387
_cell_length_c 13.289378
_cell_angle_alpha 90.000000
_cell_angle_beta 90.000000
_cell_angle_gamma 90.000000
_cell_volume 3642.996773
_symmetry_space_group_name_H-M "I B C A "
_symmetry_group_IT_number 73
_symmetry_cell_setting 'orthorhombic'
loop_
_space_group_symop_operation_xyz
x,y,z
-x,1/2-y,z
x,-y,1/2-z
1/2-x,y,-z
-x,-y,-z
x,1/2+y,-z
-x,y,1/2+z
1/2+x,-y,z
1/2+x,1/2+y,1/2+z
1/2-x,-y,1/2+z
1/2+x,1/2-y,-z
-x,1/2+y,1/2-z
1/2-x,1/2-y,1/2-z
1/2+x,y,1/2-z
1/2-x,1/2+y,z
x,1/2-y,1/2+z
loop_
_atom_site_type_symbol
_atom_site_label
_atom_site_fract_x
_atom_site_fract_y
_atom_site_fract_z
Si Si1 0.559287 0.035853 0.117171
Si Si2 0.250000 0.064296 0.500000
Si Si3 0.663129 0.814299 0.575300
Si Si4 0.439322 0.852330 0.485771
Si Si5 0.909553 0.198570 0.280416
Si Si6 0.446759 0.406763 0.315422
O O1 0.658668 0.023988 0.046323
O O2 0.484046 0.085266 0.064951
O O3 0.610385 0.068902 0.215577
O O4 0.507022 0.971221 0.143501
O O5 0.300977 0.114009 0.422922
O O6 0.750000 0.786119 0.500000
O O7 0.546904 0.815689 0.521861
O O8 0.666031 0.785380 0.686057
O O9 0.379471 0.818895 0.394462
O O10 0.389114 0.872211 0.592666
O O11 0.000000 0.250000 0.288652
O O12 0.967230 0.139423 0.230133
#
# Coordination Sequence:
#
# PCOD9530494 Si02
#       6
#    16   8  16  16  16  16
#     4   9  16  31  54  81 114 147 188 238 292 359
#     4   8  16  32  58  78 112 156 182 226 310 364
#     4   8  17  35  58  79 108 155 198 233 301 368
#     4   9  17  31  53  83 111 147 194 243 292 351
#     4  10  20  34  56  84 115 155 207 251 288 340
#     4   9  18  31  53  81 112 146 189 243 286 339
#
# _framework density 24.155934999999999
#
# number of rings (size 3 to 8) (size 9 to 14) (size 15 to 20)
#    0.545    2.545    0.000    0.545    0.000    2.909 
#    0.000    4.545    2.000    8.727    0.000    0.000 
#    0.000    0.000    0.000    0.000    0.000    0.000 
#
# Total GULP energy -244940.330643 kJ/mol
# GULP energy per Si atom -5566.825696 kJ/mol
# Density = 2.410096 g / cm^3
# Si number density = 24.155935 Si / 1000 Ang^3
#
#
#
# Elastic Constant Matrix: (Units=GPa)
#
#
# Indices 1 2 3 4 5 6 
#
# 1 22.3087 29.3764 22.5459 -0.0002 0.0001 0.0000
# 2 29.3764 88.1994 32.5815 -0.0013 0.0003 0.0001
# 3 22.5459 32.5815 198.3433 -0.0017 0.0004 0.0001
# 4 -0.0002 -0.0013 -0.0017 33.2404 0.0003 0.0001
# 5 0.0001 0.0003 0.0004 0.0003 14.7595 0.0000
# 6 0.0000 0.0001 0.0001 0.0001 0.0000 16.0446
#
#
#
# Elastic Compliance Matrix: (Units=1/GPa)
#
#
# Indices 1 2 3 4 5 6 
#
# 1 0.084815 -0.026283 -0.005324 -0.000001 0.000000 0.000000
# 2 -0.026283 0.020215 -0.000333 0.000001 0.000000 0.000000
# 3 -0.005324 -0.000333 0.005702 0.000000 0.000000 0.000000
# 4 -0.000001 0.000001 0.000000 0.030084 -0.000001 0.000000
# 5 0.000000 0.000000 0.000000 -0.000001 0.067753 0.000000
# 6 0.000000 0.000000 0.000000 0.000000 0.000000 0.062326
#
#
# Mechanical properties :
#
#
# Convention : Reuss Voigt Hill
#
# Bulk Modulus (GPa) = 21.34336 53.09545 37.21940
# Shear Modulus (GPa) = 14.26977 27.76542 21.01759
#
# Velocity S-wave (km/s) = 2.43314 3.39399 2.95291
# Velocity P-wave (km/s) = 4.09248 6.11449 5.20266
#
# Compressibility (1/GPa) = 0.04685299
#
# Stress axis : x y z
#
# Youngs Moduli (GPa) = 11.79034 49.46844 175.38878
#
# Poissons Ratio (x) = 1.30016 0.93370
# Poissons Ratio (y) = 0.30988 0.05842
# Poissons Ratio (z) = 0.06277 0.01648
#
# Static dielectric constant tensor:
#      x y z
#    x 1.945880 0.000000 0.000000 
#    y 0.000000 1.931910 0.000000 
#    z 0.000000 0.000000 2.058490 
# 
# From -- ./inp_files/17167.got.cif
#   From: 2010.05.17/outbox.cif.g08.bks.cpg/sg73_9_cif.got.tgz:17167.got - 2010.06.03 17:35:07.
