data_PCOD9530674
_publ_section_title
;
Structure prediction by ZEFSAII (Michael W. Deem and Ramdas Pophale) SiO2 
 PCOD9530674
Probable space group: I B C A 
;
_chemical_formula_sum "Si O2"
_cell_formula_units_Z 112
_cell_length_a 14.974253
_cell_length_b 16.164689
_cell_length_c 22.475655
_cell_angle_alpha 90.000000
_cell_angle_beta 90.000000
_cell_angle_gamma 90.000000
_cell_volume 5440.325404
_symmetry_space_group_name_H-M "I B C A "
_symmetry_group_IT_number 73
_symmetry_cell_setting 'orthorhombic'
loop_
_space_group_symop_operation_xyz
x,y,z
-x,1/2-y,z
x,-y,1/2-z
1/2-x,y,-z
-x,-y,-z
x,1/2+y,-z
-x,y,1/2+z
1/2+x,-y,z
1/2+x,1/2+y,1/2+z
1/2-x,-y,1/2+z
1/2+x,1/2-y,-z
-x,1/2+y,1/2-z
1/2-x,1/2-y,1/2-z
1/2+x,y,1/2-z
1/2-x,1/2+y,z
x,1/2-y,1/2+z
loop_
_atom_site_type_symbol
_atom_site_label
_atom_site_fract_x
_atom_site_fract_y
_atom_site_fract_z
Si Si1 0.872775 0.689787 0.827594
Si Si2 0.343169 0.806935 0.034487
Si Si3 0.783289 0.422536 0.291864
Si Si4 0.992659 0.657556 0.064941
Si Si5 0.432950 0.634558 0.207630
Si Si6 0.150859 0.886872 0.485825
Si Si7 0.605548 0.991544 0.382466
O O1 0.863294 0.665468 0.897695
O O2 0.789578 0.648754 0.794541
O O3 0.879761 0.788974 0.822435
O O4 0.963409 0.659362 0.795113
O O5 0.341983 0.706737 0.038982
O O6 0.250000 0.830386 0.000000
O O7 0.425164 0.832843 0.991666
O O8 0.757482 0.500000 0.250000
O O9 0.877056 0.386397 0.266786
O O10 0.800141 0.458542 0.357716
O O11 0.952923 0.588681 0.106868
O O12 0.000000 0.750000 0.090734
O O13 0.087546 0.625424 0.042200
O O14 0.427987 0.552340 0.168482
O O15 0.250000 0.915439 0.500000
O O16 0.109859 0.952814 0.440985
#
# Coordination Sequence:
#
# PCOD9530674 Si02
#       7
#    16  16  16  16  16  16  16
#     4  11  21  41  71  88 122 174 213 259 332 382
#     4  10  20  36  63  96 126 165 212 255 314 397
#     4  10  24  41  61  92 128 159 217 281 316 376
#     4  10  22  38  59  91 134 167 205 258 319 390
#     4  10  23  41  65  93 119 170 221 264 316 387
#     4  10  21  36  58  91 128 165 212 255 313 397
#     4  11  21  40  61  88 131 165 206 270 326 369
#
# _framework density 20.587002999999999
#
# number of rings (size 3 to 8) (size 9 to 14) (size 15 to 20)
#    0.000    1.714    1.429    2.571    4.000    4.571 
#    2.571    1.429    0.000    0.000    0.000    0.000 
#    0.000    0.000    0.000    0.000    0.000    0.000 
#
# Total GULP energy -312393.171917 kJ/mol
# GULP energy per Si atom -5578.449499 kJ/mol
# Density = 2.054015 g / cm^3
# Si number density = 20.587003 Si / 1000 Ang^3
#
#
#
# Elastic Constant Matrix: (Units=GPa)
#
#
# Indices 1 2 3 4 5 6 
#
# 1 89.5188 57.8237 29.5307 0.0000 0.0000 0.0000
# 2 57.8237 96.7626 45.9085 0.0000 0.0000 0.0000
# 3 29.5307 45.9085 43.2566 0.0000 0.0000 0.0000
# 4 0.0000 0.0000 0.0000 6.8320 0.0000 0.0000
# 5 0.0000 0.0000 0.0000 0.0000 -18.7717 0.0000
# 6 0.0000 0.0000 0.0000 0.0000 0.0000 -162.4796
#
#
#
# Elastic Compliance Matrix: (Units=1/GPa)
#
#
# Indices 1 2 3 4 5 6 
#
# 1 0.018262 -0.010067 -0.001783 0.000000 0.000000 0.000000
# 2 -0.010067 0.026366 -0.021109 0.000000 0.000000 0.000000
# 3 -0.001783 -0.021109 0.046739 0.000000 0.000000 0.000000
# 4 0.000000 0.000000 0.000000 0.146371 0.000000 0.000000
# 5 0.000000 0.000000 0.000000 0.000000 -0.053272 0.000000
# 6 0.000000 0.000000 0.000000 0.000000 0.000000 -0.006155
#
#
# Mechanical properties :
#
#
# Convention : Reuss Voigt Hill
#
# Bulk Modulus (GPa) = 39.29682 55.11819 47.20750
# Shear Modulus (GPa) = 19.78541 -28.46553 -4.34006
#
# Velocity S-wave (km/s) = 3.10347 -3.72249 -1.45352
# Velocity P-wave (km/s) = 5.65434 2.89058 4.49038
#
# Compressibility (1/GPa) = 0.02544735
#
# Stress axis : x y z
#
# Youngs Moduli (GPa) = 54.75966 37.92804 21.39562
#
# Poissons Ratio (x) = 0.38182 0.03814
# Poissons Ratio (y) = 0.55127 0.45165
# Poissons Ratio (z) = 0.09762 0.80064
#
# Static dielectric constant tensor:
#      x y z
#    x 1.747700 0.000000 0.000000 
#    y 0.000000 1.755960 0.000000 
#    z 0.000000 0.000000 1.762610 
# 
# From -- ./inp_files/17251.got.cif
#   From: 2010.05.17/outbox.cif.g08.bks.cpg/sg73_9_cif.got.tgz:17251.got - 2010.06.03 17:35:07.
