data_PCOD9530939
_publ_section_title
;
Structure prediction by ZEFSAII (Michael W. Deem and Ramdas Pophale) SiO2 
 PCOD9530939
Probable space group: I B C A 
;
_chemical_formula_sum "Si O2"
_cell_formula_units_Z 80
_cell_length_a 8.249677
_cell_length_b 19.545085
_cell_length_c 22.513105
_cell_angle_alpha 90.000000
_cell_angle_beta 90.000000
_cell_angle_gamma 90.000000
_cell_volume 3630.027418
_symmetry_space_group_name_H-M "I B C A "
_symmetry_group_IT_number 73
_symmetry_cell_setting 'orthorhombic'
loop_
_space_group_symop_operation_xyz
x,y,z
-x,1/2-y,z
x,-y,1/2-z
1/2-x,y,-z
-x,-y,-z
x,1/2+y,-z
-x,y,1/2+z
1/2+x,-y,z
1/2+x,1/2+y,1/2+z
1/2-x,-y,1/2+z
1/2+x,1/2-y,-z
-x,1/2+y,1/2-z
1/2-x,1/2-y,1/2-z
1/2+x,y,1/2-z
1/2-x,1/2+y,z
x,1/2-y,1/2+z
loop_
_atom_site_type_symbol
_atom_site_label
_atom_site_fract_x
_atom_site_fract_y
_atom_site_fract_z
Si Si1 0.156236 0.704303 0.797816
Si Si2 0.972581 0.962590 0.349503
Si Si3 0.348590 0.594080 0.300444
Si Si4 0.261584 0.442003 0.565801
Si Si5 0.564646 0.320967 0.107603
O O1 0.250000 0.750000 0.750000
O O2 0.130225 0.632114 0.762860
O O3 0.280878 0.693784 0.850783
O O4 0.000000 0.750000 0.813806
O O5 0.841346 0.917485 0.313919
O O6 0.099967 0.928004 0.395159
O O7 0.858463 0.005945 0.393300
O O8 0.064330 0.020682 0.310450
O O9 0.431238 0.643496 0.349548
O O10 0.250000 0.471431 0.500000
O O11 0.372688 0.374865 0.560160
O O12 0.500000 0.250000 0.083265
#
# Coordination Sequence:
#
# PCOD9530939 Si02
#       5
#    16  16  16  16  16
#     4  12  22  39  67  88 121 168 207 247 307 374
#     4   9  21  39  64  90 125 157 199 259 306 376
#     4  10  20  40  59  91 122 161 204 249 310 370
#     4  10  21  40  65  89 120 160 206 255 315 365
#     4  11  23  40  59  87 123 159 212 258 295 368
#
# _framework density 22.038402000000001
#
# number of rings (size 3 to 8) (size 9 to 14) (size 15 to 20)
#    0.000    1.600    4.000    0.600    2.800    0.000 
#    0.000   20.000    0.000    0.000    0.000    0.000 
#    0.000    0.000    0.000    0.000    0.000    0.000 
#
# Total GULP energy -223522.469306 kJ/mol
# GULP energy per Si atom -5588.061733 kJ/mol
# Density = 2.198824 g / cm^3
# Si number density = 22.038402 Si / 1000 Ang^3
#
#
#
# Elastic Constant Matrix: (Units=GPa)
#
#
# Indices 1 2 3 4 5 6 
#
# 1 148.5207 50.1908 27.3036 0.0000 0.0000 0.0000
# 2 50.1908 97.0971 4.5206 0.0000 0.0000 0.0000
# 3 27.3036 4.5206 64.2639 0.0000 0.0000 0.0000
# 4 0.0000 0.0000 0.0000 2.6583 0.0000 0.0000
# 5 0.0000 0.0000 0.0000 0.0000 15.4852 0.0000
# 6 0.0000 0.0000 0.0000 0.0000 0.0000 38.3807
#
#
#
# Elastic Compliance Matrix: (Units=1/GPa)
#
#
# Indices 1 2 3 4 5 6 
#
# 1 0.008862 -0.004420 -0.003454 0.000000 0.000000 0.000000
# 2 -0.004420 0.012537 0.000996 0.000000 0.000000 0.000000
# 3 -0.003454 0.000996 0.016958 0.000000 0.000000 0.000000
# 4 0.000000 0.000000 0.000000 0.376177 0.000000 0.000000
# 5 0.000000 0.000000 0.000000 0.000000 0.064578 0.000000
# 6 0.000000 0.000000 0.000000 0.000000 0.000000 0.026055
#
#
# Mechanical properties :
#
#
# Convention : Reuss Voigt Hill
#
# Bulk Modulus (GPa) = 40.64854 52.65687 46.65270
# Shear Modulus (GPa) = 9.48545 26.49596 17.99071
#
# Velocity S-wave (km/s) = 2.07687 3.47113 2.86026
# Velocity P-wave (km/s) = 4.92297 6.32535 5.66770
#
# Compressibility (1/GPa) = 0.02460113
#
# Stress axis : x y z
#
# Youngs Moduli (GPa) = 112.84475 79.76189 58.96808
#
# Poissons Ratio (x) = 0.35254 0.20368
# Poissons Ratio (y) = 0.49877 -0.05873
# Poissons Ratio (z) = 0.38978 -0.07944
#
# Static dielectric constant tensor:
#      x y z
#    x 1.829010 0.000000 0.000000 
#    y 0.000000 1.904820 0.000000 
#    z 0.000000 0.000000 1.800650 
# 
# From -- ./inp_files/23807.got.cif
#   From: 2010.05.17/outbox.cif.g08.bks.cpg/sg73_12_cif.got.tgz:23807.got - 2010.06.03 17:35:07.
