data_PCOD9530088
_publ_section_title
;
Structure prediction by ZEFSAII (Michael W. Deem and Ramdas Pophale) SiO2 
 PCOD9530088
Probable space group: I B C A 
;
_chemical_formula_sum "Si O2"
_cell_formula_units_Z 128
_cell_length_a 17.780409
_cell_length_b 22.878700
_cell_length_c 14.734214
_cell_angle_alpha 90.000000
_cell_angle_beta 90.000000
_cell_angle_gamma 90.000000
_cell_volume 5993.769861
_symmetry_space_group_name_H-M "I B C A "
_symmetry_group_IT_number 73
_symmetry_cell_setting 'orthorhombic'
loop_
_space_group_symop_operation_xyz
x,y,z
-x,1/2-y,z
x,-y,1/2-z
1/2-x,y,-z
-x,-y,-z
x,1/2+y,-z
-x,y,1/2+z
1/2+x,-y,z
1/2+x,1/2+y,1/2+z
1/2-x,-y,1/2+z
1/2+x,1/2-y,-z
-x,1/2+y,1/2-z
1/2-x,1/2-y,1/2-z
1/2+x,y,1/2-z
1/2-x,1/2+y,z
x,1/2-y,1/2+z
loop_
_atom_site_type_symbol
_atom_site_label
_atom_site_fract_x
_atom_site_fract_y
_atom_site_fract_z
Si Si1 0.383809 0.261473 0.357014
Si Si2 0.910348 0.876280 0.377772
Si Si3 0.889467 0.372652 0.422586
Si Si4 0.252258 0.440454 0.866785
Si Si5 0.413371 0.741155 0.932597
Si Si6 0.557778 0.379233 0.777423
Si Si7 0.268587 0.690827 0.897352
Si Si8 0.708668 0.069071 0.344054
O O1 0.395545 0.191948 0.352206
O O2 0.409681 0.276275 0.460999
O O3 0.427463 0.309632 0.296792
O O4 0.295623 0.275580 0.341292
O O5 0.934516 0.880401 0.483813
O O6 0.835388 0.914870 0.374688
O O7 0.976267 0.896389 0.312282
O O8 0.809688 0.404562 0.422415
O O9 0.874431 0.303750 0.421097
O O10 0.930599 0.389735 0.329485
O O11 0.235013 0.508243 0.886297
O O12 0.232790 0.432047 0.760926
O O13 0.500000 0.750000 0.905547
O O14 0.356529 0.699861 0.878025
O O15 0.620237 0.414973 0.835447
O O16 0.248698 0.623283 0.890429
O O17 0.250000 0.710938 0.000000
#
# Coordination Sequence:
#
# PCOD9530088 Si02
#       8
#    16  16  16  16  16  16  16  16
#     4   9  18  35  56  81 118 153 190 238 297 358
#     4  11  21  37  64  95 118 152 206 253 290 357
#     4  10  22  38  60  88 123 161 195 242 308 361
#     4  10  21  40  62  83 115 158 200 248 300 347
#     4  10  19  32  51  83 121 152 189 244 293 347
#     4  10  21  39  60  86 122 161 192 243 311 357
#     4   9  18  32  54  81 112 154 192 232 292 355
#     4   9  21  41  58  80 117 157 198 243 295 357
#
# _framework density 21.355508
#
# number of rings (size 3 to 8) (size 9 to 14) (size 15 to 20)
#    0.000    2.250    0.000    3.000    0.000    6.000 
#    0.000   10.625    0.000    0.000    0.000    0.000 
#    0.000    0.000    0.000    0.000    0.000    0.000 
#
# Total GULP energy -357155.103093 kJ/mol
# GULP energy per Si atom -5580.548486 kJ/mol
# Density = 2.130690 g / cm^3
# Si number density = 21.355508 Si / 1000 Ang^3
#
#
#
# Elastic Constant Matrix: (Units=GPa)
#
#
# Indices 1 2 3 4 5 6 
#
# 1 157.1609 66.2318 45.4893 0.0000 0.0000 0.0000
# 2 66.2318 65.9327 14.0022 0.0000 0.0000 0.0000
# 3 45.4893 14.0022 70.0490 0.0000 0.0000 0.0000
# 4 0.0000 0.0000 0.0000 22.4197 0.0000 0.0000
# 5 0.0000 0.0000 0.0000 0.0000 21.7060 0.0000
# 6 0.0000 0.0000 0.0000 0.0000 0.0000 6.9584
#
#
#
# Elastic Compliance Matrix: (Units=1/GPa)
#
#
# Indices 1 2 3 4 5 6 
#
# 1 0.013174 -0.011923 -0.006172 0.000000 0.000000 0.000000
# 2 -0.011923 0.026630 0.002420 0.000000 0.000000 0.000000
# 3 -0.006172 0.002420 0.017800 0.000000 0.000000 0.000000
# 4 0.000000 0.000000 0.000000 0.044604 0.000000 0.000000
# 5 0.000000 0.000000 0.000000 0.000000 0.046070 0.000000
# 6 0.000000 0.000000 0.000000 0.000000 0.000000 0.143710
#
#
# Mechanical properties :
#
#
# Convention : Reuss Voigt Hill
#
# Bulk Modulus (GPa) = 38.08983 60.50991 49.29987
# Shear Modulus (GPa) = 15.05616 21.37812 18.21714
#
# Velocity S-wave (km/s) = 2.65811 3.16738 2.92386
# Velocity P-wave (km/s) = 5.22451 6.46317 5.87656
#
# Compressibility (1/GPa) = 0.02625373
#
# Stress axis : x y z
#
# Youngs Moduli (GPa) = 75.90728 37.55128 56.17986
#
# Poissons Ratio (x) = 0.44772 0.34673
# Poissons Ratio (y) = 0.90504 -0.13593
# Poissons Ratio (z) = 0.46848 -0.09086
#
# Static dielectric constant tensor:
#      x y z
#    x 1.793350 0.000000 0.000000 
#    y 0.000000 1.770120 0.000000 
#    z 0.000000 0.000000 1.840230 
# 
# From -- ./inp_files/22869.got.cif
#   From: 2010.05.17/outbox.cif.g08.bks.cpg/sg73_12_cif.got.tgz:22869.got - 2010.06.03 17:35:07.
