data_PCOD9530559
_publ_section_title
;
Structure prediction by ZEFSAII (Michael W. Deem and Ramdas Pophale) SiO2 
 PCOD9530559
Probable space group: I B C A 
;
_chemical_formula_sum "Si O2"
_cell_formula_units_Z 96
_cell_length_a 22.886507
_cell_length_b 10.023124
_cell_length_c 19.999602
_cell_angle_alpha 90.000000
_cell_angle_beta 90.000000
_cell_angle_gamma 90.000000
_cell_volume 4587.794653
_symmetry_space_group_name_H-M "I B C A "
_symmetry_group_IT_number 73
_symmetry_cell_setting 'orthorhombic'
loop_
_space_group_symop_operation_xyz
x,y,z
-x,1/2-y,z
x,-y,1/2-z
1/2-x,y,-z
-x,-y,-z
x,1/2+y,-z
-x,y,1/2+z
1/2+x,-y,z
1/2+x,1/2+y,1/2+z
1/2-x,-y,1/2+z
1/2+x,1/2-y,-z
-x,1/2+y,1/2-z
1/2-x,1/2-y,1/2-z
1/2+x,y,1/2-z
1/2-x,1/2+y,z
x,1/2-y,1/2+z
loop_
_atom_site_type_symbol
_atom_site_label
_atom_site_fract_x
_atom_site_fract_y
_atom_site_fract_z
Si Si1 0.313208 0.192738 0.976914
Si Si2 0.855194 0.583069 0.079690
Si Si3 0.043538 0.871871 0.701716
Si Si4 0.510012 0.401715 0.562531
Si Si5 0.751129 0.292991 0.646731
Si Si6 0.172179 0.147615 0.773670
O O1 0.293949 0.286377 0.915291
O O2 0.347381 0.061850 0.954437
O O3 0.250000 0.140399 0.000000
O O4 0.342159 0.291187 0.030550
O O5 0.802344 0.601159 0.134727
O O6 0.924406 0.588944 0.093480
O O7 0.033458 0.920812 0.625430
O O8 0.107453 0.806537 0.710430
O O9 0.000000 0.750000 0.715413
O O10 0.035784 0.000000 0.750000
O O11 0.500000 0.250000 0.538691
O O12 0.500000 0.500000 0.500000
O O13 0.793411 0.293987 0.710679
O O14 0.712321 0.161204 0.661109
O O15 0.164105 0.000000 0.750000
#
# Coordination Sequence:
#
# PCOD9530559 Si02
#       6
#    16  16  16  16  16  16
#     4  10  21  36  57  88 121 155 193 241 303 365
#     4  11  22  38  60  87 122 160 201 252 305 366
#     4  10  23  42  63  89 124 165 210 259 311 371
#     4  11  24  42  63  91 126 168 215 262 312 370
#     4  10  20  35  58  87 118 152 198 245 301 366
#     4  10  21  37  58  84 117 157 196 246 306 364
#
# _framework density 20.925086
#
# number of rings (size 3 to 8) (size 9 to 14) (size 15 to 20)
#    0.000    1.667    0.000    5.500    0.000    7.333 
#    0.000    4.167    0.000    0.000    0.000    0.000 
#    0.000    0.000    0.000    0.000    0.000    0.000 
#
# Total GULP energy -267263.638265 kJ/mol
# GULP energy per Si atom -5567.992464 kJ/mol
# Density = 2.087746 g / cm^3
# Si number density = 20.925086 Si / 1000 Ang^3
#
#
#
# Elastic Constant Matrix: (Units=GPa)
#
#
# Indices 1 2 3 4 5 6 
#
# 1 132.2320 24.5672 40.4892 0.0000 0.0000 0.0000
# 2 24.5672 66.8443 17.7641 0.0000 0.0000 0.0000
# 3 40.4892 17.7641 105.0762 0.0000 0.0000 0.0000
# 4 0.0000 0.0000 0.0000 22.5601 0.0000 0.0000
# 5 0.0000 0.0000 0.0000 0.0000 28.9502 0.0000
# 6 0.0000 0.0000 0.0000 0.0000 0.0000 28.1656
#
#
#
# Elastic Compliance Matrix: (Units=1/GPa)
#
#
# Indices 1 2 3 4 5 6 
#
# 1 0.008952 -0.002485 -0.003029 0.000000 0.000000 0.000000
# 2 -0.002485 0.016354 -0.001807 0.000000 0.000000 0.000000
# 3 -0.003029 -0.001807 0.010990 0.000000 0.000000 0.000000
# 4 0.000000 0.000000 0.000000 0.044326 0.000000 0.000000
# 5 0.000000 0.000000 0.000000 0.000000 0.034542 0.000000
# 6 0.000000 0.000000 0.000000 0.000000 0.000000 0.035504
#
#
# Mechanical properties :
#
#
# Convention : Reuss Voigt Hill
#
# Bulk Modulus (GPa) = 46.18463 52.19927 49.19195
# Shear Modulus (GPa) = 28.98083 30.69065 29.83574
#
# Velocity S-wave (km/s) = 3.72557 3.83390 3.78012
# Velocity P-wave (km/s) = 6.37384 6.67819 6.52779
#
# Compressibility (1/GPa) = 0.02165223
#
# Stress axis : x y z
#
# Youngs Moduli (GPa) = 111.71064 61.14820 90.99432
#
# Poissons Ratio (x) = 0.15195 0.27565
# Poissons Ratio (y) = 0.27760 0.16445
# Poissons Ratio (z) = 0.33840 0.11051
#
# Static dielectric constant tensor:
#      x y z
#    x 2.556180 0.000000 0.000000 
#    y 0.000000 1.739090 0.000000 
#    z 0.000000 0.000000 1.814770 
# 
# From -- ./inp_files/27264.got.cif
#   From: 2010.05.17/outbox.cif.g08.bks.cpg/sg73_14_cif.got.tgz:27264.got - 2010.06.03 17:35:07.
