data_PCOD9530069
_publ_section_title
;
Structure prediction by ZEFSAII (Michael W. Deem and Ramdas Pophale) SiO2 
 PCOD9530069
Probable space group: I B C A 
;
_chemical_formula_sum "Si O2"
_cell_formula_units_Z 96
_cell_length_a 8.718273
_cell_length_b 23.503360
_cell_length_c 24.492554
_cell_angle_alpha 90.000000
_cell_angle_beta 90.000000
_cell_angle_gamma 90.000000
_cell_volume 5018.737618
_symmetry_space_group_name_H-M "I B C A "
_symmetry_group_IT_number 73
_symmetry_cell_setting 'orthorhombic'
loop_
_space_group_symop_operation_xyz
x,y,z
-x,1/2-y,z
x,-y,1/2-z
1/2-x,y,-z
-x,-y,-z
x,1/2+y,-z
-x,y,1/2+z
1/2+x,-y,z
1/2+x,1/2+y,1/2+z
1/2-x,-y,1/2+z
1/2+x,1/2-y,-z
-x,1/2+y,1/2-z
1/2-x,1/2-y,1/2-z
1/2+x,y,1/2-z
1/2-x,1/2+y,z
x,1/2-y,1/2+z
loop_
_atom_site_type_symbol
_atom_site_label
_atom_site_fract_x
_atom_site_fract_y
_atom_site_fract_z
Si Si1 0.794598 0.699608 0.818237
Si Si2 0.683621 0.013182 0.380444
Si Si3 0.084506 0.639652 0.473564
Si Si4 0.950643 0.953034 0.044773
Si Si5 0.500000 0.750000 0.776557
Si Si6 0.500000 0.750000 0.590855
Si Si7 0.404052 0.079179 0.359271
O O1 0.614391 0.710283 0.810787
O O2 0.843349 0.635450 0.831025
O O3 0.886489 0.715828 0.763469
O O4 0.858451 0.739458 0.867434
O O5 0.581124 0.061199 0.351720
O O6 0.781748 0.039497 0.430531
O O7 0.564746 0.967766 0.405645
O O8 0.801241 0.975591 0.345892
O O9 0.250000 0.653886 0.500000
O O10 0.984089 0.607778 0.518770
O O11 0.002881 0.694137 0.446837
O O12 0.110000 0.594567 0.424034
O O13 0.000000 0.000000 0.000000
#
# Coordination Sequence:
#
# PCOD9530069 Si02
#       7
#    16  16  16  16   8   8  16
#     4   9  19  40  65  94 107 141 181 248 299 364
#     4  10  19  30  51  80 112 160 196 244 272 326
#     4  11  19  34  51  70 114 162 202 252 274 332
#     4  11  17  29  51  75 103 155 221 234 267 317
#     4   9  18  40  79  86 104 134 193 232 300 387
#     4   9  22  38  51  78 122 150 191 248 304 331
#     4  10  20  33  54  80 123 146 194 243 284 334
#
# _framework density 19.128316000000002
#
# number of rings (size 3 to 8) (size 9 to 14) (size 15 to 20)
#    0.000    2.000    5.000    0.500    0.000    0.000 
#    6.000   16.667    0.000    3.000    0.000    0.000 
#    0.000    0.000    0.000    0.000    0.000    0.000 
#
# Total GULP energy -267498.709570 kJ/mol
# GULP energy per Si atom -5572.889783 kJ/mol
# Density = 1.908478 g / cm^3
# Si number density = 19.128316 Si / 1000 Ang^3
#
#
#
# Elastic Constant Matrix: (Units=GPa)
#
#
# Indices 1 2 3 4 5 6 
#
# 1 137.0941 64.4285 28.9835 0.0000 0.0000 0.0000
# 2 64.4285 110.6318 34.9372 0.0000 0.0000 0.0000
# 3 28.9835 34.9372 30.2744 0.0000 0.0000 0.0000
# 4 0.0000 0.0000 0.0000 21.0446 0.0000 0.0000
# 5 0.0000 0.0000 0.0000 0.0000 13.1182 0.0000
# 6 0.0000 0.0000 0.0000 0.0000 0.0000 33.4480
#
#
#
# Elastic Compliance Matrix: (Units=1/GPa)
#
#
# Indices 1 2 3 4 5 6 
#
# 1 0.010450 -0.004604 -0.004691 0.000000 0.000000 0.000000
# 2 -0.004604 0.016251 -0.014346 0.000000 0.000000 0.000000
# 3 -0.004691 -0.014346 0.054077 0.000000 0.000000 0.000000
# 4 0.000000 0.000000 0.000000 0.047518 0.000000 0.000000
# 5 0.000000 0.000000 0.000000 0.000000 0.076230 0.000000
# 6 0.000000 0.000000 0.000000 0.000000 0.000000 0.029897
#
#
# Mechanical properties :
#
#
# Convention : Reuss Voigt Hill
#
# Bulk Modulus (GPa) = 29.85421 59.41098 44.63259
# Shear Modulus (GPa) = 17.07246 23.49889 20.28568
#
# Velocity S-wave (km/s) = 2.99075 3.50878 3.26007
# Velocity P-wave (km/s) = 5.25046 6.89507 6.12819
#
# Compressibility (1/GPa) = 0.03349612
#
# Stress axis : x y z
#
# Youngs Moduli (GPa) = 95.69588 61.53588 18.49219
#
# Poissons Ratio (x) = 0.28333 0.08674
# Poissons Ratio (y) = 0.44061 0.26528
# Poissons Ratio (z) = 0.44888 0.88277
#
# Static dielectric constant tensor:
#      x y z
#    x 1.716330 0.000000 0.000000 
#    y 0.000000 1.679330 0.000000 
#    z 0.000000 0.000000 1.688860 
# 
# From -- ./inp_files/31219.got.cif
#   From: 2010.05.17/outbox.cif.g08.bks.cpg/sg73_16_cif.got.tgz:31219.got - 2010.06.03 17:35:07.
