data_PCOD9530198
_publ_section_title
;
Structure prediction by ZEFSAII (Michael W. Deem and Ramdas Pophale) SiO2 
 PCOD9530198
Probable space group: I B C A 
;
_chemical_formula_sum "Si O2"
_cell_formula_units_Z 96
_cell_length_a 14.991488
_cell_length_b 13.771098
_cell_length_c 19.298932
_cell_angle_alpha 90.000000
_cell_angle_beta 90.000000
_cell_angle_gamma 90.000000
_cell_volume 3984.250045
_symmetry_space_group_name_H-M "I B C A "
_symmetry_group_IT_number 73
_symmetry_cell_setting 'orthorhombic'
loop_
_space_group_symop_operation_xyz
x,y,z
-x,1/2-y,z
x,-y,1/2-z
1/2-x,y,-z
-x,-y,-z
x,1/2+y,-z
-x,y,1/2+z
1/2+x,-y,z
1/2+x,1/2+y,1/2+z
1/2-x,-y,1/2+z
1/2+x,1/2-y,-z
-x,1/2+y,1/2-z
1/2-x,1/2-y,1/2-z
1/2+x,y,1/2-z
1/2-x,1/2+y,z
x,1/2-y,1/2+z
loop_
_atom_site_type_symbol
_atom_site_label
_atom_site_fract_x
_atom_site_fract_y
_atom_site_fract_z
Si Si1 0.568056 0.615523 0.911137
Si Si2 0.740875 0.162014 0.857082
Si Si3 0.000000 0.750000 0.967020
Si Si4 0.680064 0.154761 0.714314
Si Si5 0.823045 0.521745 0.592220
Si Si6 0.620190 0.584565 0.557032
Si Si7 0.000000 0.750000 0.208358
O O1 0.671724 0.640999 0.901520
O O2 0.557907 0.500323 0.913405
O O3 0.525949 0.663711 0.843789
O O4 0.538911 0.669375 0.980651
O O5 0.734342 0.116224 0.779922
O O6 0.757822 0.272720 0.831823
O O7 0.670855 0.095083 0.899588
O O8 0.078416 0.690295 0.928370
O O9 0.647516 0.072380 0.662657
O O10 0.592608 0.214105 0.742641
O O11 0.719752 0.557791 0.582809
O O12 0.871962 0.565497 0.525671
#
# Coordination Sequence:
#
# PCOD9530198 Si02
#       7
#    16  16   8  16  16  16   8
#     4   9  18  34  54  80 113 150 185 228 286 342
#     4   9  19  34  57  82 108 148 192 234 276 335
#     4  11  20  34  58  83 114 151 186 235 288 341
#     4  10  19  35  59  84 112 146 189 234 283 340
#     4  10  20  35  55  84 114 151 192 230 279 339
#     4  10  21  34  55  84 117 149 189 235 280 339
#     4   9  18  34  60  85 112 149 184 227 292 345
#
# _framework density 24.094874000000001
#
# number of rings (size 3 to 8) (size 9 to 14) (size 15 to 20)
#    0.000    2.333    0.000    4.000    0.000    1.333 
#    0.000    5.000    0.000   72.000    0.000    0.000 
#    0.000    0.000    0.000    0.000    0.000    0.000 
#
# Total GULP energy -267437.387684 kJ/mol
# GULP energy per Si atom -5571.612243 kJ/mol
# Density = 2.404003 g / cm^3
# Si number density = 24.094874 Si / 1000 Ang^3
#
#
#
# Elastic Constant Matrix: (Units=GPa)
#
#
# Indices 1 2 3 4 5 6 
#
# 1 66.1810 20.3988 4.9407 0.0000 0.0000 0.0000
# 2 20.3988 114.0472 4.4410 0.0000 0.0000 0.0000
# 3 4.9407 4.4410 25.8106 0.0000 0.0000 0.0000
# 4 0.0000 0.0000 0.0000 13.8690 0.0000 0.0000
# 5 0.0000 0.0000 0.0000 0.0000 24.1002 0.0000
# 6 0.0000 0.0000 0.0000 0.0000 0.0000 18.9870
#
#
#
# Elastic Compliance Matrix: (Units=1/GPa)
#
#
# Indices 1 2 3 4 5 6 
#
# 1 0.016165 -0.002790 -0.002614 0.000000 0.000000 0.000000
# 2 -0.002790 0.009309 -0.001068 0.000000 0.000000 0.000000
# 3 -0.002614 -0.001068 0.039428 0.000000 0.000000 0.000000
# 4 0.000000 0.000000 0.000000 0.072103 0.000000 0.000000
# 5 0.000000 0.000000 0.000000 0.000000 0.041493 0.000000
# 6 0.000000 0.000000 0.000000 0.000000 0.000000 0.052668
#
#
# Mechanical properties :
#
#
# Convention : Reuss Voigt Hill
#
# Bulk Modulus (GPa) = 19.24610 29.51107 24.37859
# Shear Modulus (GPa) = 19.12569 23.14181 21.13375
#
# Velocity S-wave (km/s) = 2.82044 3.10247 2.96481
# Velocity P-wave (km/s) = 4.31410 5.01081 4.67545
#
# Compressibility (1/GPa) = 0.05195857
#
# Stress axis : x y z
#
# Youngs Moduli (GPa) = 61.86177 107.42501 25.36275
#
# Poissons Ratio (x) = 0.29966 0.06631
# Poissons Ratio (y) = 0.17256 0.02708
# Poissons Ratio (z) = 0.16173 0.11470
#
# Static dielectric constant tensor:
#      x y z
#    x 1.876730 0.000000 0.000000 
#    y 0.000000 1.949490 0.000000 
#    z 0.000000 0.000000 1.864110 
# 
# From -- ./inp_files/29502.got.cif
#   From: 2010.05.17/outbox.cif.g08.bks.cpg/sg73_15_cif.got.tgz:29502.got - 2010.06.03 17:35:07.
