data_PCOD9530032
_publ_section_title
;
Structure prediction by ZEFSAII (Michael W. Deem and Ramdas Pophale) SiO2 
 PCOD9530032
Probable space group: I B C A 
;
_chemical_formula_sum "Si O2"
_cell_formula_units_Z 88
_cell_length_a 10.915330
_cell_length_b 11.714072
_cell_length_c 31.916535
_cell_angle_alpha 90.000000
_cell_angle_beta 90.000000
_cell_angle_gamma 90.000000
_cell_volume 4080.942687
_symmetry_space_group_name_H-M "I B C A "
_symmetry_group_IT_number 73
_symmetry_cell_setting 'orthorhombic'
loop_
_space_group_symop_operation_xyz
x,y,z
-x,1/2-y,z
x,-y,1/2-z
1/2-x,y,-z
-x,-y,-z
x,1/2+y,-z
-x,y,1/2+z
1/2+x,-y,z
1/2+x,1/2+y,1/2+z
1/2-x,-y,1/2+z
1/2+x,1/2-y,-z
-x,1/2+y,1/2-z
1/2-x,1/2-y,1/2-z
1/2+x,y,1/2-z
1/2-x,1/2+y,z
x,1/2-y,1/2+z
loop_
_atom_site_type_symbol
_atom_site_label
_atom_site_fract_x
_atom_site_fract_y
_atom_site_fract_z
Si Si1 0.836106 0.753532 0.678426
Si Si2 0.524445 0.056423 0.205584
Si Si3 0.000000 0.250000 0.896479
Si Si4 0.908818 0.406028 0.964919
Si Si5 0.592426 0.353780 0.856849
Si Si6 0.647344 0.053282 0.449055
O O1 0.853735 0.862550 0.708194
O O2 0.901652 0.802244 0.635909
O O3 0.706265 0.702833 0.667377
O O4 0.917250 0.646698 0.694374
O O5 0.501063 0.000000 0.250000
O O6 0.538932 0.957275 0.171021
O O7 0.911785 0.317149 0.927559
O O8 0.789022 0.483464 0.955141
O O9 0.042976 0.460597 0.959448
O O10 0.883513 0.361357 0.011909
O O11 0.500000 0.250000 0.863046
O O12 0.628861 0.400929 0.902606
#
# Coordination Sequence:
#
# PCOD9530032 Si02
#       6
#    16  16   8  16  16  16
#     4  10  24  46  70  99 139 186 222 290 356 414
#     4  10  25  47  74 100 132 178 230 286 359 429
#     4  10  18  40  64  88 122 186 216 266 342 402
#     4  10  21  39  67  90 139 182 230 287 338 408
#     4  12  27  41  69 107 140 179 232 290 351 429
#     4  10  22  41  61 102 132 181 232 283 347 407
#
# _framework density 21.563645999999999
#
# number of rings (size 3 to 8) (size 9 to 14) (size 15 to 20)
#    0.000    1.818    1.818    2.182    6.364    2.909 
#    0.000    1.818    0.000    0.000    0.000    0.000 
#    0.000    0.000    0.000    0.000    0.000    0.000 
#
# Total GULP energy -244997.289652 kJ/mol
# GULP energy per Si atom -5568.120219 kJ/mol
# Density = 2.151457 g / cm^3
# Si number density = 21.563646 Si / 1000 Ang^3
#
#
#
# Elastic Constant Matrix: (Units=GPa)
#
#
# Indices 1 2 3 4 5 6 
#
# 1 77.3847 -4.0748 12.5007 0.0000 0.0000 0.0000
# 2 -4.0748 33.9558 18.6189 0.0000 0.0000 0.0000
# 3 12.5007 18.6189 109.9143 0.0000 0.0000 0.0000
# 4 0.0000 0.0000 0.0000 19.0755 0.0000 0.0000
# 5 0.0000 0.0000 0.0000 0.0000 3.1608 0.0000
# 6 0.0000 0.0000 0.0000 0.0000 0.0000 22.9736
#
#
#
# Elastic Compliance Matrix: (Units=1/GPa)
#
#
# Indices 1 2 3 4 5 6 
#
# 1 0.013384 0.002691 -0.001978 0.000000 0.000000 0.000000
# 2 0.002691 0.033007 -0.005897 0.000000 0.000000 0.000000
# 3 -0.001978 -0.005897 0.010322 0.000000 0.000000 0.000000
# 4 0.000000 0.000000 0.000000 0.052423 0.000000 0.000000
# 5 0.000000 0.000000 0.000000 0.000000 0.316372 0.000000
# 6 0.000000 0.000000 0.000000 0.000000 0.000000 0.043528
#
#
# Mechanical properties :
#
#
# Convention : Reuss Voigt Hill
#
# Bulk Modulus (GPa) = 21.57811 30.59381 26.08596
# Shear Modulus (GPa) = 10.10402 21.98931 16.04667
#
# Velocity S-wave (km/s) = 2.16699 3.19680 2.73088
# Velocity P-wave (km/s) = 4.03603 5.27679 4.69756
#
# Compressibility (1/GPa) = 0.04634326
#
# Stress axis : x y z
#
# Youngs Moduli (GPa) = 74.71803 30.29700 96.88142
#
# Poissons Ratio (x) = -0.08152 0.19162
# Poissons Ratio (y) = -0.20104 0.57132
# Poissons Ratio (z) = 0.14779 0.17867
#
# Static dielectric constant tensor:
#      x y z
#    x 1.857080 0.000000 0.000000 
#    y 0.000000 1.830710 0.000000 
#    z 0.000000 0.000000 1.859370 
# 
# From -- ./inp_files/33874.got.cif
#   From: 2010.05.17/outbox.cif.g08.bks.cpg/sg73_17_cif.got.tgz:33874.got - 2010.06.03 17:35:07.
