data_PCOD9530035
_publ_section_title
;
Structure prediction by ZEFSAII (Michael W. Deem and Ramdas Pophale) SiO2 
 PCOD9530035
Probable space group: I B C A 
;
_chemical_formula_sum "Si O2"
_cell_formula_units_Z 88
_cell_length_a 9.591810
_cell_length_b 13.864216
_cell_length_c 31.604311
_cell_angle_alpha 90.000000
_cell_angle_beta 90.000000
_cell_angle_gamma 90.000000
_cell_volume 4202.833741
_symmetry_space_group_name_H-M "I B C A "
_symmetry_group_IT_number 73
_symmetry_cell_setting 'orthorhombic'
loop_
_space_group_symop_operation_xyz
x,y,z
-x,1/2-y,z
x,-y,1/2-z
1/2-x,y,-z
-x,-y,-z
x,1/2+y,-z
-x,y,1/2+z
1/2+x,-y,z
1/2+x,1/2+y,1/2+z
1/2-x,-y,1/2+z
1/2+x,1/2-y,-z
-x,1/2+y,1/2-z
1/2-x,1/2-y,1/2-z
1/2+x,y,1/2-z
1/2-x,1/2+y,z
x,1/2-y,1/2+z
loop_
_atom_site_type_symbol
_atom_site_label
_atom_site_fract_x
_atom_site_fract_y
_atom_site_fract_z
Si Si1 0.450431 0.547690 0.043332
Si Si2 0.500000 0.750000 0.079377
Si Si3 0.485232 0.539448 0.202593
Si Si4 0.814844 0.023204 0.404589
Si Si5 0.777071 0.393772 0.334720
Si Si6 0.292181 0.685469 0.153452
O O1 0.507568 0.656244 0.049596
O O2 0.288009 0.544885 0.055993
O O3 0.529662 0.488316 0.079724
O O4 0.500000 0.500000 0.000000
O O5 0.380082 0.723792 0.113150
O O6 0.472643 0.500000 0.250000
O O7 0.644881 0.566886 0.192591
O O8 0.415466 0.452384 0.176276
O O9 0.392736 0.632223 0.187483
O O10 0.799732 0.103573 0.368553
O O11 0.766599 0.924617 0.382107
O O12 0.784673 0.279224 0.328850
#
# Coordination Sequence:
#
# PCOD9530035 Si02
#       6
#    16   8  16  16  16  16
#     4  11  22  40  62  94 128 160 204 272 318 363
#     4  10  18  40  66  82 118 182 204 222 330 406
#     4  11  23  37  61  93 124 159 207 270 317 367
#     4  10  21  39  64  90 120 167 217 252 304 388
#     4  11  20  41  63  85 122 169 213 252 314 391
#     4  10  19  38  67  82 119 176 211 239 319 392
#
# _framework density 20.938253
#
# number of rings (size 3 to 8) (size 9 to 14) (size 15 to 20)
#    0.000    1.455    3.636    3.273    0.000    0.727 
#    3.273   12.727    0.000    0.000    0.000    0.000 
#    0.000    0.000    0.000    0.000    0.000    0.000 
#
# Total GULP energy -245432.605868 kJ/mol
# GULP energy per Si atom -5578.013770 kJ/mol
# Density = 2.089060 g / cm^3
# Si number density = 20.938253 Si / 1000 Ang^3
#
#
#
# Elastic Constant Matrix: (Units=GPa)
#
#
# Indices 1 2 3 4 5 6 
#
# 1 61.5805 30.5431 5.4894 0.0000 0.0000 0.0000
# 2 30.5431 152.2995 39.6256 0.0000 0.0000 0.0000
# 3 5.4894 39.6256 96.7089 0.0000 0.0000 0.0000
# 4 0.0000 0.0000 0.0000 25.3236 0.0000 0.0000
# 5 0.0000 0.0000 0.0000 0.0000 23.6207 0.0000
# 6 0.0000 0.0000 0.0000 0.0000 0.0000 18.6420
#
#
#
# Elastic Compliance Matrix: (Units=1/GPa)
#
#
# Indices 1 2 3 4 5 6 
#
# 1 0.018055 -0.003755 0.000514 0.000000 0.000000 0.000000
# 2 -0.003755 0.008130 -0.003118 0.000000 0.000000 0.000000
# 3 0.000514 -0.003118 0.011589 0.000000 0.000000 0.000000
# 4 0.000000 0.000000 0.000000 0.039489 0.000000 0.000000
# 5 0.000000 0.000000 0.000000 0.000000 0.042336 0.000000
# 6 0.000000 0.000000 0.000000 0.000000 0.000000 0.053642
#
#
# Mechanical properties :
#
#
# Convention : Reuss Voigt Hill
#
# Bulk Modulus (GPa) = 39.91056 51.32277 45.61667
# Shear Modulus (GPa) = 25.73185 29.17931 27.45558
#
# Velocity S-wave (km/s) = 3.50943 3.73713 3.62507
# Velocity P-wave (km/s) = 5.96019 6.57162 6.27336
#
# Compressibility (1/GPa) = 0.02505603
#
# Stress axis : x y z
#
# Youngs Moduli (GPa) = 55.38527 122.99716 86.29010
#
# Poissons Ratio (x) = 0.46180 -0.04431
# Poissons Ratio (y) = 0.20795 0.26907
# Poissons Ratio (z) = -0.02844 0.38353
#
# Static dielectric constant tensor:
#      x y z
#    x 1.774160 0.000000 0.000000 
#    y 0.000000 1.828070 0.000000 
#    z 0.000000 0.000000 1.794240 
# 
# From -- ./inp_files/14687.got.cif
#   From: 2010.05.17/outbox.cif.g08.bks.cpg/sg73_8_cif.got.tgz:14687.got - 2010.06.03 17:35:07.
