data_PCOD9530870
_publ_section_title
;
Structure prediction by ZEFSAII (Michael W. Deem and Ramdas Pophale) SiO2 
 PCOD9530870
Probable space group: I B C A 
;
_chemical_formula_sum "Si O2"
_cell_formula_units_Z 88
_cell_length_a 11.774496
_cell_length_b 13.260428
_cell_length_c 20.305310
_cell_angle_alpha 90.000000
_cell_angle_beta 90.000000
_cell_angle_gamma 90.000000
_cell_volume 3170.366662
_symmetry_space_group_name_H-M "I B C A "
_symmetry_group_IT_number 73
_symmetry_cell_setting 'orthorhombic'
loop_
_space_group_symop_operation_xyz
x,y,z
-x,1/2-y,z
x,-y,1/2-z
1/2-x,y,-z
-x,-y,-z
x,1/2+y,-z
-x,y,1/2+z
1/2+x,-y,z
1/2+x,1/2+y,1/2+z
1/2-x,-y,1/2+z
1/2+x,1/2-y,-z
-x,1/2+y,1/2-z
1/2-x,1/2-y,1/2-z
1/2+x,y,1/2-z
1/2-x,1/2+y,z
x,1/2-y,1/2+z
loop_
_atom_site_type_symbol
_atom_site_label
_atom_site_fract_x
_atom_site_fract_y
_atom_site_fract_z
Si Si1 0.625338 0.386901 0.053350
Si Si2 0.478453 0.630102 0.204317
Si Si3 0.553763 0.138457 0.153166
Si Si4 0.026031 0.869895 0.937802
Si Si5 0.254404 0.510668 0.174540
Si Si6 0.750000 0.803890 0.500000
O O1 0.500867 0.393217 0.085300
O O2 0.695667 0.446194 0.108696
O O3 0.915660 0.411374 0.021761
O O4 0.684978 0.276743 0.048037
O O5 0.500000 0.750000 0.206165
O O6 0.497491 0.594818 0.278927
O O7 0.539517 0.595592 0.137773
O O8 0.350439 0.596832 0.188208
O O9 0.500000 0.250000 0.156285
O O10 0.681328 0.095710 0.157581
O O11 0.000000 0.750000 0.936359
O O12 0.150379 0.871634 0.970105
O O13 0.206640 0.500000 0.250000
#
# Coordination Sequence:
#
# PCOD9530870 Si02
#       6
#    16  16  16  16  16   8
#     4  11  21  40  69  99 137 186 237 300 368 436
#     4   9  18  38  65  97 139 190 244 306 378 441
#     4  10  22  42  67  99 139 190 250 304 363 436
#     4   9  18  35  64 100 140 186 235 300 366 435
#     4  10  22  40  64  98 139 185 239 302 366 433
#     4  10  20  38  68 108 150 184 234 304 376 450
#
# _framework density 27.757041999999998
#
# number of rings (size 3 to 8) (size 9 to 14) (size 15 to 20)
#    0.000    2.182    0.000    4.909    0.000    2.182 
#    0.000   27.273    0.000    9.818    0.000    0.000 
#    0.000    0.000    0.000    0.000    0.000    0.000 
#
# Total GULP energy -245172.784035 kJ/mol
# GULP energy per Si atom -5572.108728 kJ/mol
# Density = 2.769387 g / cm^3
# Si number density = 27.757042 Si / 1000 Ang^3
#
#
#
# Elastic Constant Matrix: (Units=GPa)
#
#
# Indices 1 2 3 4 5 6 
#
# 1 102.6352 5.3283 81.3773 0.0000 0.0000 0.0000
# 2 5.3283 106.9988 33.7067 0.0000 0.0000 0.0000
# 3 81.3773 33.7067 231.8815 0.0000 0.0000 0.0000
# 4 0.0000 0.0000 0.0000 -7.8448 0.0000 0.0000
# 5 0.0000 0.0000 0.0000 0.0000 9.8311 0.0000
# 6 0.0000 0.0000 0.0000 0.0000 0.0000 29.0023
#
#
#
# Elastic Compliance Matrix: (Units=1/GPa)
#
#
# Indices 1 2 3 4 5 6 
#
# 1 0.013575 0.000864 -0.004890 0.000000 0.000000 0.000000
# 2 0.000864 0.009849 -0.001735 0.000000 0.000000 0.000000
# 3 -0.004890 -0.001735 0.006281 0.000000 0.000000 0.000000
# 4 0.000000 0.000000 0.000000 -0.127473 0.000000 0.000000
# 5 0.000000 0.000000 0.000000 0.000000 0.101718 0.000000
# 6 0.000000 0.000000 0.000000 0.000000 0.000000 0.034480
#
#
# Mechanical properties :
#
#
# Convention : Reuss Voigt Hill
#
# Bulk Modulus (GPa) = 54.99165 75.81558 65.40362
# Shear Modulus (GPa) = 89.26394 27.60459 58.43426
#
# Velocity S-wave (km/s) = 5.67704 3.15700 4.59323
# Velocity P-wave (km/s) = 7.92632 6.37669 7.19336
#
# Compressibility (1/GPa) = 0.01818458
#
# Stress axis : x y z
#
# Youngs Moduli (GPa) = 73.66244 101.52859 159.21475
#
# Poissons Ratio (x) = -0.08776 0.77854
# Poissons Ratio (y) = -0.06367 0.27625
# Poissons Ratio (z) = 0.36020 0.17616
#
# Static dielectric constant tensor:
#      x y z
#    x 2.327840 0.000000 0.000000 
#    y 0.000000 2.407690 0.000000 
#    z 0.000000 0.000000 2.146920 
# 
# From -- ./inp_files/28849.got.cif
#   From: 2010.05.17/outbox.cif.g08.bks.cpg/sg73_15_cif.got.tgz:28849.got - 2010.06.03 17:35:07.
