data_PCOD9530127
_publ_section_title
;
Structure prediction by ZEFSAII (Michael W. Deem and Ramdas Pophale) SiO2 
 PCOD9530127
Probable space group: I B C A 
;
_chemical_formula_sum "Si O2"
_cell_formula_units_Z 96
_cell_length_a 20.770974
_cell_length_b 23.151116
_cell_length_c 8.504975
_cell_angle_alpha 90.000000
_cell_angle_beta 90.000000
_cell_angle_gamma 90.000000
_cell_volume 4089.797777
_symmetry_space_group_name_H-M "I B C A "
_symmetry_group_IT_number 73
_symmetry_cell_setting 'orthorhombic'
loop_
_space_group_symop_operation_xyz
x,y,z
-x,1/2-y,z
x,-y,1/2-z
1/2-x,y,-z
-x,-y,-z
x,1/2+y,-z
-x,y,1/2+z
1/2+x,-y,z
1/2+x,1/2+y,1/2+z
1/2-x,-y,1/2+z
1/2+x,1/2-y,-z
-x,1/2+y,1/2-z
1/2-x,1/2-y,1/2-z
1/2+x,y,1/2-z
1/2-x,1/2+y,z
x,1/2-y,1/2+z
loop_
_atom_site_type_symbol
_atom_site_label
_atom_site_fract_x
_atom_site_fract_y
_atom_site_fract_z
Si Si1 0.908932 0.030410 0.900490
Si Si2 0.183167 0.061314 0.943645
Si Si3 0.364597 0.867820 0.702721
Si Si4 0.955765 0.666251 0.531880
Si Si5 0.602509 0.290069 0.538274
Si Si6 0.893936 0.391699 0.679432
O O1 0.861442 0.076437 0.815229
O O2 0.944147 0.000000 0.750000
O O3 0.872617 0.979661 0.990639
O O4 0.931064 0.070566 0.046743
O O5 0.178469 0.119261 0.051642
O O6 0.250000 0.034348 0.000000
O O7 0.166261 0.075523 0.763035
O O8 0.436607 0.863841 0.630547
O O9 0.358467 0.811579 0.809860
O O10 0.907698 0.721960 0.530455
O O11 0.938609 0.624574 0.674177
O O12 0.027826 0.688522 0.546229
O O13 0.627147 0.330304 0.396182
#
# Coordination Sequence:
#
# PCOD9530127 Si02
#       6
#    16  16  16  16  16  16
#     4   9  19  35  54  78 112 142 181 239 289 334
#     4  10  21  38  60  83 106 143 197 243 287 348
#     4   9  19  33  52  81 117 140 177 242 287 325
#     4  10  19  33  58  86 114 151 194 227 272 348
#     4  10  19  34  57  86 115 150 191 232 278 339
#     4  10  20  33  57  85 115 148 186 240 295 332
#
# _framework density 23.473043000000001
#
# number of rings (size 3 to 8) (size 9 to 14) (size 15 to 20)
#    0.000    2.333    0.000    2.500    0.000    6.667 
#    0.000    4.167    0.000  158.000    0.000    2.333 
#    0.000    0.000    0.000    0.000    0.000    0.000 
#
# Total GULP energy -267224.472264 kJ/mol
# GULP energy per Si atom -5567.176505 kJ/mol
# Density = 2.341962 g / cm^3
# Si number density = 23.473043 Si / 1000 Ang^3
#
#
#
# Elastic Constant Matrix: (Units=GPa)
#
#
# Indices 1 2 3 4 5 6 
#
# 1 11.7294 13.0284 10.8835 0.0000 0.0000 0.0000
# 2 13.0284 117.3257 35.3447 0.0000 0.0000 0.0000
# 3 10.8835 35.3447 133.2293 0.0000 0.0000 0.0000
# 4 0.0000 0.0000 0.0000 38.8458 0.0000 0.0000
# 5 0.0000 0.0000 0.0000 0.0000 10.4548 0.0000
# 6 0.0000 0.0000 0.0000 0.0000 0.0000 11.5819
#
#
#
# Elastic Compliance Matrix: (Units=1/GPa)
#
#
# Indices 1 2 3 4 5 6 
#
# 1 0.101137 -0.009501 -0.005741 0.000000 0.000000 0.000000
# 2 -0.009501 0.010156 -0.001918 0.000000 0.000000 0.000000
# 3 -0.005741 -0.001918 0.008484 0.000000 0.000000 0.000000
# 4 0.000000 0.000000 0.000000 0.025743 0.000000 0.000000
# 5 0.000000 0.000000 0.000000 0.000000 0.095650 0.000000
# 6 0.000000 0.000000 0.000000 0.000000 0.000000 0.086342
#
#
# Mechanical properties :
#
#
# Convention : Reuss Voigt Hill
#
# Bulk Modulus (GPa) = 11.70200 42.31083 27.00641
# Shear Modulus (GPa) = 12.81009 25.71169 19.26089
#
# Velocity S-wave (km/s) = 2.33863 3.31323 2.86764
# Velocity P-wave (km/s) = 3.50548 5.71848 4.74286
#
# Compressibility (1/GPa) = 0.08545551
#
# Stress axis : x y z
#
# Youngs Moduli (GPa) = 9.88759 98.46203 117.87243
#
# Poissons Ratio (x) = 0.93550 0.67674
# Poissons Ratio (y) = 0.09394 0.22610
# Poissons Ratio (z) = 0.05677 0.18887
#
# Static dielectric constant tensor:
#      x y z
#    x 1.929190 0.000000 0.000000 
#    y 0.000000 1.947310 0.000000 
#    z 0.000000 0.000000 1.958590 
# 
# From -- ./inp_files/7195.got.cif
#   From: 2010.05.17/outbox.cif.g08.bks.cpg/sg73_4_cif.got.tgz:7195.got - 2010.06.03 17:35:07.
