data_PCOD9530301
_publ_section_title
;
Structure prediction by ZEFSAII (Michael W. Deem and Ramdas Pophale) SiO2 
 PCOD9530301
Probable space group: I B C A 
;
_chemical_formula_sum "Si O2"
_cell_formula_units_Z 112
_cell_length_a 16.660860
_cell_length_b 19.488224
_cell_length_c 16.708433
_cell_angle_alpha 90.000000
_cell_angle_beta 90.000000
_cell_angle_gamma 90.000000
_cell_volume 5425.070663
_symmetry_space_group_name_H-M "I B C A "
_symmetry_group_IT_number 73
_symmetry_cell_setting 'orthorhombic'
loop_
_space_group_symop_operation_xyz
x,y,z
-x,1/2-y,z
x,-y,1/2-z
1/2-x,y,-z
-x,-y,-z
x,1/2+y,-z
-x,y,1/2+z
1/2+x,-y,z
1/2+x,1/2+y,1/2+z
1/2-x,-y,1/2+z
1/2+x,1/2-y,-z
-x,1/2+y,1/2-z
1/2-x,1/2-y,1/2-z
1/2+x,y,1/2-z
1/2-x,1/2+y,z
x,1/2-y,1/2+z
loop_
_atom_site_type_symbol
_atom_site_label
_atom_site_fract_x
_atom_site_fract_y
_atom_site_fract_z
Si Si1 0.237994 0.718641 0.594308
Si Si2 0.772681 0.375425 0.881478
Si Si3 0.406944 0.629138 0.426289
Si Si4 0.686172 0.491232 0.660295
Si Si5 0.550683 0.429416 0.413354
Si Si6 0.328823 0.609958 0.701558
Si Si7 0.427121 0.913450 0.464393
O O1 0.250000 0.705156 0.500000
O O2 0.255606 0.797846 0.610775
O O3 0.145675 0.692156 0.605540
O O4 0.292427 0.674734 0.654474
O O5 0.708094 0.436414 0.879170
O O6 0.817417 0.382242 0.795620
O O7 0.839237 0.386451 0.949549
O O8 0.370815 0.560228 0.387165
O O9 0.398291 0.614742 0.521634
O O10 0.503372 0.630017 0.418278
O O11 0.653162 0.500000 0.750000
O O12 0.771546 0.452158 0.671687
O O13 0.581602 0.407077 0.327511
O O14 0.567455 0.509159 0.430605
O O15 0.460943 0.415515 0.444781
#
# Coordination Sequence:
#
# PCOD9530301 Si02
#       7
#    16  16  16  16  16  16  16
#     4  11  21  36  57  86 115 159 195 233 289 349
#     4  11  22  34  57  90 118 145 196 249 290 335
#     4   9  19  36  57  77 113 152 194 229 287 353
#     4   9  19  34  53  82 112 144 185 244 290 331
#     4   9  17  35  59  79 110 144 203 223 282 349
#     4  10  19  38  60  80 112 157 195 231 292 353
#     4   9  19  35  54  89 107 147 190 242 281 337
#
# _framework density 20.644893
#
# number of rings (size 3 to 8) (size 9 to 14) (size 15 to 20)
#    0.857    1.429    2.857    0.429    0.000    1.714 
#    2.571    0.000    0.000    3.429    0.000    0.000 
#    0.000    0.000    0.000    0.000    0.000    0.000 
#
# Total GULP energy -312126.276541 kJ/mol
# GULP energy per Si atom -5573.683510 kJ/mol
# Density = 2.059790 g / cm^3
# Si number density = 20.644893 Si / 1000 Ang^3
#
#
#
# Elastic Constant Matrix: (Units=GPa)
#
#
# Indices 1 2 3 4 5 6 
#
# 1 49.0894 5.4931 4.9743 0.0000 0.0000 0.0000
# 2 5.4931 88.8902 -7.1639 0.0000 0.0000 0.0000
# 3 4.9743 -7.1639 63.3568 0.0000 0.0000 0.0000
# 4 0.0000 0.0000 0.0000 27.6190 0.0000 0.0000
# 5 0.0000 0.0000 0.0000 0.0000 15.6333 0.0000
# 6 0.0000 0.0000 0.0000 0.0000 0.0000 17.9556
#
#
#
# Elastic Compliance Matrix: (Units=1/GPa)
#
#
# Indices 1 2 3 4 5 6 
#
# 1 0.020711 -0.001424 -0.001787 0.000000 0.000000 0.000000
# 2 -0.001424 0.011451 0.001407 0.000000 0.000000 0.000000
# 3 -0.001787 0.001407 0.016083 0.000000 0.000000 0.000000
# 4 0.000000 0.000000 0.000000 0.036207 0.000000 0.000000
# 5 0.000000 0.000000 0.000000 0.000000 0.063966 0.000000
# 6 0.000000 0.000000 0.000000 0.000000 0.000000 0.055693
#
#
# Mechanical properties :
#
#
# Convention : Reuss Voigt Hill
#
# Bulk Modulus (GPa) = 22.40308 23.10484 22.75396
# Shear Modulus (GPa) = 22.46188 25.44377 23.95282
#
# Velocity S-wave (km/s) = 3.30208 3.51443 3.40991
# Velocity P-wave (km/s) = 5.04118 5.26157 5.15256
#
# Compressibility (1/GPa) = 0.04463672
#
# Stress axis : x y z
#
# Youngs Moduli (GPa) = 48.28250 87.32717 62.17754
#
# Poissons Ratio (x) = 0.12435 0.11112
# Poissons Ratio (y) = 0.06875 -0.08746
# Poissons Ratio (z) = 0.08629 -0.12283
#
# Static dielectric constant tensor:
#      x y z
#    x 1.754670 0.000000 0.000000 
#    y 0.000000 1.732440 0.000000 
#    z 0.000000 0.000000 1.757400 
# 
# From -- ./inp_files/23288.got.cif
#   From: 2010.05.17/outbox.cif.g08.bks.cpg/sg73_12_cif.got.tgz:23288.got - 2010.06.03 17:35:07.
