data_PCOD9530819
_publ_section_title
;
Structure prediction by ZEFSAII (Michael W. Deem and Ramdas Pophale) SiO2 
 PCOD9530819
Probable space group: I B C A 
;
_chemical_formula_sum "Si O2"
_cell_formula_units_Z 72
_cell_length_a 10.430177
_cell_length_b 17.837637
_cell_length_c 18.594096
_cell_angle_alpha 90.000000
_cell_angle_beta 90.000000
_cell_angle_gamma 90.000000
_cell_volume 3459.426190
_symmetry_space_group_name_H-M "I B C A "
_symmetry_group_IT_number 73
_symmetry_cell_setting 'orthorhombic'
loop_
_space_group_symop_operation_xyz
x,y,z
-x,1/2-y,z
x,-y,1/2-z
1/2-x,y,-z
-x,-y,-z
x,1/2+y,-z
-x,y,1/2+z
1/2+x,-y,z
1/2+x,1/2+y,1/2+z
1/2-x,-y,1/2+z
1/2+x,1/2-y,-z
-x,1/2+y,1/2-z
1/2-x,1/2-y,1/2-z
1/2+x,y,1/2-z
1/2-x,1/2+y,z
x,1/2-y,1/2+z
loop_
_atom_site_type_symbol
_atom_site_label
_atom_site_fract_x
_atom_site_fract_y
_atom_site_fract_z
Si Si1 0.955507 0.580048 0.788250
Si Si2 0.250000 0.330150 0.000000
Si Si3 0.137346 0.793218 0.411668
Si Si4 0.790959 0.164209 0.736190
Si Si5 0.991025 0.420248 0.537373
O O1 0.970516 0.500000 0.750000
O O2 0.814110 0.612172 0.773058
O O3 0.972717 0.573876 0.875293
O O4 0.062523 0.635713 0.752548
O O5 0.228785 0.273766 0.065486
O O6 0.128417 0.381810 0.998962
O O7 0.208610 0.838468 0.349933
O O8 0.000000 0.750000 0.392262
O O9 0.100052 0.856147 0.469754
O O10 0.750000 0.250000 0.750000
O O11 0.000000 0.500000 0.500000
#
# Coordination Sequence:
#
# PCOD9530819 Si02
#       5
#    16   8  16  16  16
#     4  11  25  42  63  95 132 168 210 262 320 381
#     4  10  20  38  62  86 118 160 212 256 308 380
#     4   9  20  39  60  88 123 159 204 265 321 374
#     4  11  21  40  65  90 123 164 209 258 314 376
#     4  10  23  41  62  90 126 166 209 260 316 373
#
# _framework density 20.8127
#
# number of rings (size 3 to 8) (size 9 to 14) (size 15 to 20)
#    0.000    1.778    0.000    5.333    0.000    9.778 
#    0.000    8.889    0.000    0.000    0.000    0.000 
#    0.000    0.000    0.000    0.000    0.000    0.000 
#
# Total GULP energy -200441.036355 kJ/mol
# GULP energy per Si atom -5567.806565 kJ/mol
# Density = 2.076533 g / cm^3
# Si number density = 20.812700 Si / 1000 Ang^3
#
#
#
# Elastic Constant Matrix: (Units=GPa)
#
#
# Indices 1 2 3 4 5 6 
#
# 1 90.6057 36.0447 47.1662 0.0000 0.0000 0.0000
# 2 36.0447 140.3407 37.7134 0.0000 0.0000 0.0000
# 3 47.1662 37.7134 58.6645 0.0000 0.0000 0.0000
# 4 0.0000 0.0000 0.0000 46.7046 0.0000 0.0000
# 5 0.0000 0.0000 0.0000 0.0000 24.0650 0.0000
# 6 0.0000 0.0000 0.0000 0.0000 0.0000 24.3679
#
#
#
# Elastic Compliance Matrix: (Units=1/GPa)
#
#
# Indices 1 2 3 4 5 6 
#
# 1 0.019083 -0.000941 -0.014738 0.000000 0.000000 0.000000
# 2 -0.000941 0.008660 -0.004811 0.000000 0.000000 0.000000
# 3 -0.014738 -0.004811 0.031988 0.000000 0.000000 0.000000
# 4 0.000000 0.000000 0.000000 0.021411 0.000000 0.000000
# 5 0.000000 0.000000 0.000000 0.000000 0.041554 0.000000
# 6 0.000000 0.000000 0.000000 0.000000 0.000000 0.041038
#
#
# Mechanical properties :
#
#
# Convention : Reuss Voigt Hill
#
# Bulk Modulus (GPa) = 53.32758 59.05106 56.18932
# Shear Modulus (GPa) = 23.70067 30.27327 26.98697
#
# Velocity S-wave (km/s) = 3.37821 3.81800 3.60482
# Velocity P-wave (km/s) = 6.39489 6.91884 6.66202
#
# Compressibility (1/GPa) = 0.01875202
#
# Stress axis : x y z
#
# Youngs Moduli (GPa) = 52.40192 115.47425 31.26142
#
# Poissons Ratio (x) = 0.10863 0.46074
# Poissons Ratio (y) = 0.04930 0.15039
# Poissons Ratio (z) = 0.77231 0.55553
#
# Static dielectric constant tensor:
#      x y z
#    x 1.809830 0.000000 0.000000 
#    y 0.000000 1.620850 0.000000 
#    z 0.000000 0.000000 1.787430 
# 
# From -- ./inp_files/24640.got.cif
#   From: 2010.05.17/outbox.cif.g08.bks.cpg/sg73_13_cif.got.tgz:24640.got - 2010.06.03 17:35:07.
