data_PCOD9530168
_publ_section_title
;
Structure prediction by ZEFSAII (Michael W. Deem and Ramdas Pophale) SiO2 
 PCOD9530168
Probable space group: I B C A 
;
_chemical_formula_sum "Si O2"
_cell_formula_units_Z 96
_cell_length_a 9.235269
_cell_length_b 27.306644
_cell_length_c 16.227050
_cell_angle_alpha 90.000000
_cell_angle_beta 90.000000
_cell_angle_gamma 90.000000
_cell_volume 4092.205668
_symmetry_space_group_name_H-M "I B C A "
_symmetry_group_IT_number 73
_symmetry_cell_setting 'orthorhombic'
loop_
_space_group_symop_operation_xyz
x,y,z
-x,1/2-y,z
x,-y,1/2-z
1/2-x,y,-z
-x,-y,-z
x,1/2+y,-z
-x,y,1/2+z
1/2+x,-y,z
1/2+x,1/2+y,1/2+z
1/2-x,-y,1/2+z
1/2+x,1/2-y,-z
-x,1/2+y,1/2-z
1/2-x,1/2-y,1/2-z
1/2+x,y,1/2-z
1/2-x,1/2+y,z
x,1/2-y,1/2+z
loop_
_atom_site_type_symbol
_atom_site_label
_atom_site_fract_x
_atom_site_fract_y
_atom_site_fract_z
Si Si1 0.889914 0.624248 0.847753
Si Si2 0.594748 0.788696 0.527328
Si Si3 0.932297 0.679801 0.636211
Si Si4 0.129239 0.029726 0.569515
Si Si5 0.607391 0.576300 0.447194
Si Si6 0.659719 0.669395 0.724732
O O1 0.876413 0.660679 0.925438
O O2 0.837252 0.569770 0.863204
O O3 0.783086 0.645398 0.780082
O O4 0.056677 0.630705 0.821390
O O5 0.500000 0.750000 0.579672
O O6 0.750000 0.769606 0.500000
O O7 0.495853 0.799344 0.448190
O O8 0.931132 0.621361 0.612494
O O9 0.768504 0.696055 0.660278
O O10 0.046038 0.692624 0.709786
O O11 0.250000 0.025006 0.500000
O O12 0.000741 0.057098 0.519347
O O13 0.114225 0.974869 0.602987
O O14 0.750000 0.589854 0.500000
#
# Coordination Sequence:
#
# PCOD9530168 Si02
#       6
#    16  16  16  16  16  16
#     4  11  21  44  64  93 132 173 213 269 320 383
#     4  12  27  45  73 101 123 159 217 273 324 383
#     4  11  22  44  64  94 133 171 214 263 320 383
#     4  10  19  34  61  93 128 167 218 269 317 363
#     4  10  20  33  60  99 125 167 219 269 315 364
#     4  10  24  39  66  91 133 180 207 253 337 389
#
# _framework density 23.459232
#
# number of rings (size 3 to 8) (size 9 to 14) (size 15 to 20)
#    0.000    1.333    3.333    2.500    2.333    0.000 
#    0.000   10.000    0.000    0.000    0.000    0.000 
#    0.000    0.000    0.000    0.000    0.000    0.000 
#
# Total GULP energy -267796.193804 kJ/mol
# GULP energy per Si atom -5579.087371 kJ/mol
# Density = 2.340584 g / cm^3
# Si number density = 23.459232 Si / 1000 Ang^3
#
#
#
# Elastic Constant Matrix: (Units=GPa)
#
#
# Indices 1 2 3 4 5 6 
#
# 1 141.7773 25.8162 23.4956 0.0000 0.0000 0.0000
# 2 25.8162 102.2383 16.1786 0.0000 0.0000 0.0000
# 3 23.4956 16.1786 66.5978 -0.0001 0.0000 0.0000
# 4 0.0000 0.0000 -0.0001 -28.3859 0.0000 0.0000
# 5 0.0000 0.0000 0.0000 0.0000 38.7215 0.0000
# 6 0.0000 0.0000 0.0000 0.0000 0.0000 6.7305
#
#
#
# Elastic Compliance Matrix: (Units=1/GPa)
#
#
# Indices 1 2 3 4 5 6 
#
# 1 0.007729 -0.001581 -0.002343 0.000000 0.000000 0.000000
# 2 -0.001581 0.010496 -0.001992 0.000000 0.000000 0.000000
# 3 -0.002343 -0.001992 0.016326 0.000000 0.000000 0.000000
# 4 0.000000 0.000000 0.000000 -0.035229 0.000000 0.000000
# 5 0.000000 0.000000 0.000000 0.000000 0.025825 0.000000
# 6 0.000000 0.000000 0.000000 0.000000 0.000000 0.148577
#
#
# Mechanical properties :
#
#
# Convention : Reuss Voigt Hill
#
# Bulk Modulus (GPa) = 44.01528 49.06600 46.54064
# Shear Modulus (GPa) = 25.88935 19.75476 22.82206
#
# Velocity S-wave (km/s) = 3.32564 2.90503 3.12242
# Velocity P-wave (km/s) = 5.79221 5.67566 5.73423
#
# Compressibility (1/GPa) = 0.02271938
#
# Stress axis : x y z
#
# Youngs Moduli (GPa) = 129.37502 95.27892 61.25213
#
# Poissons Ratio (x) = 0.15064 0.14351
# Poissons Ratio (y) = 0.20455 0.12201
# Poissons Ratio (z) = 0.30311 0.18978
#
# Static dielectric constant tensor:
#      x y z
#    x 1.922890 0.000000 0.000000 
#    y 0.000000 1.999330 0.000000 
#    z 0.000000 0.000000 1.948990 
# 
# From -- ./inp_files/24868.got.cif
#   From: 2010.05.17/outbox.cif.g08.bks.cpg/sg73_13_cif.got.tgz:24868.got - 2010.06.03 17:35:07.
