data_PCOD9530895
_publ_section_title
;
Structure prediction by ZEFSAII (Michael W. Deem and Ramdas Pophale) SiO2 
 PCOD9530895
Probable space group: I B C A 
;
_chemical_formula_sum "Si O2"
_cell_formula_units_Z 112
_cell_length_a 14.508371
_cell_length_b 32.120408
_cell_length_c 12.056646
_cell_angle_alpha 90.000000
_cell_angle_beta 90.000000
_cell_angle_gamma 90.000000
_cell_volume 5618.575425
_symmetry_space_group_name_H-M "I B C A "
_symmetry_group_IT_number 73
_symmetry_cell_setting 'orthorhombic'
loop_
_space_group_symop_operation_xyz
x,y,z
-x,1/2-y,z
x,-y,1/2-z
1/2-x,y,-z
-x,-y,-z
x,1/2+y,-z
-x,y,1/2+z
1/2+x,-y,z
1/2+x,1/2+y,1/2+z
1/2-x,-y,1/2+z
1/2+x,1/2-y,-z
-x,1/2+y,1/2-z
1/2-x,1/2-y,1/2-z
1/2+x,y,1/2-z
1/2-x,1/2+y,z
x,1/2-y,1/2+z
loop_
_atom_site_type_symbol
_atom_site_label
_atom_site_fract_x
_atom_site_fract_y
_atom_site_fract_z
Si Si1 0.642209 0.145059 0.807001
Si Si2 0.658520 0.517518 0.932068
Si Si3 0.126013 0.563136 0.799417
Si Si4 0.047382 0.425832 0.077565
Si Si5 0.475366 0.140029 0.092602
Si Si6 0.022829 0.701675 0.901877
Si Si7 0.153326 0.846033 0.244380
O O1 0.630889 0.103643 0.881926
O O2 0.603299 0.134865 0.684441
O O3 0.567212 0.177307 0.855639
O O4 0.745612 0.162167 0.803544
O O5 0.656486 0.470004 0.891418
O O6 0.651447 0.544991 0.820468
O O7 0.750000 0.525491 0.000000
O O8 0.579335 0.533342 0.014415
O O9 0.162295 0.609949 0.809273
O O10 0.015802 0.565298 0.816187
O O11 0.986734 0.397902 0.993153
O O12 0.574600 0.144951 0.152772
O O13 0.457801 0.181536 0.021402
O O14 0.108190 0.688868 0.822749
O O15 0.000000 0.750000 0.904900
#
# Coordination Sequence:
#
# PCOD9530895 Si02
#       7
#    16  16  16  16  16  16  16
#     4  10  22  37  66  96 122 173 215 266 326 392
#     4  11  24  39  62  95 132 174 216 274 322 375
#     4  11  22  41  60  94 131 168 222 269 317 389
#     4  11  19  39  64  91 126 176 218 263 325 389
#     4  10  20  39  62  90 127 168 211 265 335 375
#     4  10  23  42  63  93 129 163 213 271 334 397
#     4  11  21  41  64  93 126 168 219 264 318 406
#
# _framework density 19.933879000000001
#
# number of rings (size 3 to 8) (size 9 to 14) (size 15 to 20)
#    0.000    1.429    5.714    1.286    0.000    6.286 
#    0.000   10.000    0.000    0.000    0.000    0.000 
#    0.000    0.000    0.000    0.000    0.000    0.000 
#
# Total GULP energy -312608.488831 kJ/mol
# GULP energy per Si atom -5582.294443 kJ/mol
# Density = 1.988851 g / cm^3
# Si number density = 19.933879 Si / 1000 Ang^3
#
#
#
# Elastic Constant Matrix: (Units=GPa)
#
#
# Indices 1 2 3 4 5 6 
#
# 1 69.8472 -7.7170 14.1425 0.0001 0.0002 0.0001
# 2 -7.7170 81.2278 23.8924 0.0003 0.0001 0.0002
# 3 14.1425 23.8924 70.0618 0.0009 -0.0004 0.0000
# 4 0.0001 0.0003 0.0009 16.6489 -0.0001 0.0003
# 5 0.0002 0.0001 -0.0004 -0.0001 1.5794 -0.0004
# 6 0.0001 0.0002 0.0000 0.0003 -0.0004 17.1072
#
#
#
# Elastic Compliance Matrix: (Units=1/GPa)
#
#
# Indices 1 2 3 4 5 6 
#
# 1 0.015422 0.002646 -0.004016 0.000000 -0.000003 0.000000
# 2 0.002646 0.014138 -0.005355 0.000000 -0.000002 0.000000
# 3 -0.004016 -0.005355 0.016910 -0.000001 0.000004 0.000000
# 4 0.000000 0.000000 -0.000001 0.060064 0.000002 -0.000001
# 5 -0.000003 -0.000002 0.000004 0.000002 0.633148 0.000016
# 6 0.000000 0.000000 0.000000 -0.000001 0.000016 0.058455
#
#
# Mechanical properties :
#
#
# Convention : Reuss Voigt Hill
#
# Bulk Modulus (GPa) = 30.28393 31.30806 30.79600
# Shear Modulus (GPa) = 6.07834 19.78835 12.93335
#
# Velocity S-wave (km/s) = 1.74810 3.15413 2.54994
# Velocity P-wave (km/s) = 4.39314 5.38561 4.91449
#
# Compressibility (1/GPa) = 0.03302081
#
# Stress axis : x y z
#
# Youngs Moduli (GPa) = 64.84070 70.73285 59.13668
#
# Poissons Ratio (x) = -0.18718 0.23747
# Poissons Ratio (y) = -0.17159 0.31670
# Poissons Ratio (z) = 0.26037 0.37880
#
# Static dielectric constant tensor:
#      x y z
#    x 1.715070 0.000000 0.000000 
#    y 0.000000 1.712760 0.000000 
#    z 0.000000 0.000000 1.719080 
# 
# From -- ./inp_files/11235.got.cif
#   From: 2010.05.17/outbox.cif.g08.bks.cpg/sg73_6_cif.got.tgz:11235.got - 2010.06.03 17:35:07.
