data_PCOD9530440
_publ_section_title
;
Structure prediction by ZEFSAII (Michael W. Deem and Ramdas Pophale) SiO2 
 PCOD9530440
Probable space group: I B C A 
;
_chemical_formula_sum "Si O2"
_cell_formula_units_Z 96
_cell_length_a 13.754949
_cell_length_b 20.444067
_cell_length_c 15.389445
_cell_angle_alpha 90.000000
_cell_angle_beta 90.000000
_cell_angle_gamma 90.000000
_cell_volume 4327.621183
_symmetry_space_group_name_H-M "I B C A "
_symmetry_group_IT_number 73
_symmetry_cell_setting 'orthorhombic'
loop_
_space_group_symop_operation_xyz
x,y,z
-x,1/2-y,z
x,-y,1/2-z
1/2-x,y,-z
-x,-y,-z
x,1/2+y,-z
-x,y,1/2+z
1/2+x,-y,z
1/2+x,1/2+y,1/2+z
1/2-x,-y,1/2+z
1/2+x,1/2-y,-z
-x,1/2+y,1/2-z
1/2-x,1/2-y,1/2-z
1/2+x,y,1/2-z
1/2-x,1/2+y,z
x,1/2-y,1/2+z
loop_
_atom_site_type_symbol
_atom_site_label
_atom_site_fract_x
_atom_site_fract_y
_atom_site_fract_z
Si Si1 0.170092 0.163955 0.422051
Si Si2 0.460415 0.477570 0.838788
Si Si3 0.463304 0.607123 0.948369
Si Si4 0.786646 0.307482 0.898801
Si Si5 0.143316 0.411331 0.635837
Si Si6 0.760235 0.538294 0.897311
O O1 0.250000 0.163688 0.500000
O O2 0.185076 0.233560 0.376535
O O3 0.197428 0.099836 0.366896
O O4 0.060505 0.150878 0.455193
O O5 0.412259 0.500000 0.750000
O O6 0.487513 0.539110 0.899684
O O7 0.550665 0.433606 0.809825
O O8 0.372320 0.442876 0.886419
O O9 0.381963 0.647239 0.895384
O O10 0.409782 0.591695 0.040100
O O11 0.699166 0.343840 0.849418
O O12 0.750000 0.307215 0.000000
O O13 0.221437 0.469987 0.640010
O O14 0.750000 0.527687 0.000000
#
# Coordination Sequence:
#
# PCOD9530440 Si02
#       6
#    16  16  16  16  16  16
#     4  10  20  32  56  92 122 149 195 243 300 350
#     4  12  25  37  57  92 119 153 203 257 301 346
#     4  11  19  37  62  86 123 155 196 246 297 358
#     4   9  19  34  57  89 118 153 190 248 298 350
#     4  11  19  37  63  86 119 155 201 242 306 350
#     4  11  19  36  61  89 118 150 197 244 298 358
#
# _framework density 22.183087
#
# number of rings (size 3 to 8) (size 9 to 14) (size 15 to 20)
#    0.000    1.333    5.000    3.500    0.000    0.667 
#    0.000    2.500    0.000    6.000    0.000    0.000 
#    0.000    0.000    0.000    0.000    0.000    0.000 
#
# Total GULP energy -267827.883040 kJ/mol
# GULP energy per Si atom -5579.747563 kJ/mol
# Density = 2.213260 g / cm^3
# Si number density = 22.183087 Si / 1000 Ang^3
#
#
#
# Elastic Constant Matrix: (Units=GPa)
#
#
# Indices 1 2 3 4 5 6 
#
# 1 161.7556 57.9879 1.6693 0.0000 0.0000 0.0000
# 2 57.9879 131.4964 -5.8807 0.0001 0.0000 0.0000
# 3 1.6693 -5.8807 23.1760 0.0002 0.0000 0.0000
# 4 0.0000 0.0001 0.0002 -8.9666 0.0000 0.0000
# 5 0.0000 0.0000 0.0000 0.0000 9.7382 0.0000
# 6 0.0000 0.0000 0.0000 0.0000 0.0000 28.5303
#
#
#
# Elastic Compliance Matrix: (Units=1/GPa)
#
#
# Indices 1 2 3 4 5 6 
#
# 1 0.007386 -0.003319 -0.001374 0.000000 0.000000 0.000000
# 2 -0.003319 0.009183 0.002569 0.000000 0.000000 0.000000
# 3 -0.001374 0.002569 0.043899 0.000001 0.000000 0.000000
# 4 0.000000 0.000000 0.000001 -0.111525 0.000000 0.000000
# 5 0.000000 0.000000 0.000000 0.000000 0.102688 0.000000
# 6 0.000000 0.000000 0.000000 0.000000 0.000000 0.035050
#
#
# Mechanical properties :
#
#
# Convention : Reuss Voigt Hill
#
# Bulk Modulus (GPa) = 17.78692 47.10902 32.44797
# Shear Modulus (GPa) = 45.59178 23.37048 34.48113
#
# Velocity S-wave (km/s) = 4.53840 3.24933 3.94685
# Velocity P-wave (km/s) = 5.95806 5.94643 5.95225
#
# Compressibility (1/GPa) = 0.05622109
#
# Stress axis : x y z
#
# Youngs Moduli (GPa) = 135.39077 108.89557 22.77961
#
# Poissons Ratio (x) = 0.36138 0.03130
# Poissons Ratio (y) = 0.44930 -0.05852
# Poissons Ratio (z) = 0.18604 -0.27977
#
# Static dielectric constant tensor:
#      x y z
#    x 1.851040 0.000000 0.000000 
#    y 0.000000 1.857990 0.000000 
#    z 0.000000 0.000000 1.868980 
# 
# From -- ./inp_files/21347.got.cif
#   From: 2010.05.17/outbox.cif.g08.bks.cpg/sg73_11_cif.got.tgz:21347.got - 2010.06.03 17:35:07.
