data_PCOD9530382
_publ_section_title
;
Structure prediction by ZEFSAII (Michael W. Deem and Ramdas Pophale) SiO2 
 PCOD9530382
Probable space group: I B C A 
;
_chemical_formula_sum "Si O2"
_cell_formula_units_Z 104
_cell_length_a 11.743595
_cell_length_b 17.471260
_cell_length_c 23.165832
_cell_angle_alpha 90.000000
_cell_angle_beta 90.000000
_cell_angle_gamma 90.000000
_cell_volume 4753.058884
_symmetry_space_group_name_H-M "I B C A "
_symmetry_group_IT_number 73
_symmetry_cell_setting 'orthorhombic'
loop_
_space_group_symop_operation_xyz
x,y,z
-x,1/2-y,z
x,-y,1/2-z
1/2-x,y,-z
-x,-y,-z
x,1/2+y,-z
-x,y,1/2+z
1/2+x,-y,z
1/2+x,1/2+y,1/2+z
1/2-x,-y,1/2+z
1/2+x,1/2-y,-z
-x,1/2+y,1/2-z
1/2-x,1/2-y,1/2-z
1/2+x,y,1/2-z
1/2-x,1/2+y,z
x,1/2-y,1/2+z
loop_
_atom_site_type_symbol
_atom_site_label
_atom_site_fract_x
_atom_site_fract_y
_atom_site_fract_z
Si Si1 0.916756 0.417864 0.768745
Si Si2 0.572691 0.050198 0.118811
Si Si3 0.235871 0.808988 0.663364
Si Si4 0.932545 0.671418 0.559948
Si Si5 0.726261 0.658250 0.115677
Si Si6 0.025646 0.880512 0.352509
Si Si7 0.250000 0.755583 0.500000
O O1 0.864957 0.500000 0.750000
O O2 0.820478 0.356242 0.784874
O O3 0.000818 0.427677 0.823540
O O4 0.991048 0.394577 0.714019
O O5 0.513698 0.098586 0.066937
O O6 0.701450 0.080974 0.121635
O O7 0.563837 0.959305 0.116954
O O8 0.164598 0.837978 0.608110
O O9 0.226108 0.717417 0.663840
O O10 0.367082 0.825389 0.650759
O O11 0.862396 0.691213 0.502417
O O12 0.000000 0.750000 0.574108
O O13 0.592018 0.646568 0.119767
O O14 0.750217 0.700848 0.055331
#
# Coordination Sequence:
#
# PCOD9530382 Si02
#       7
#    16  16  16  16  16  16   8
#     4   9  22  39  65  95 133 181 220 265 333 414
#     4  10  22  43  66  93 136 176 219 271 344 412
#     4  10  22  41  65  94 133 177 227 272 338 405
#     4  10  19  41  68  96 120 175 222 272 337 407
#     4  11  24  45  66  99 130 178 228 293 336 414
#     4  11  25  40  66 100 139 175 221 289 344 404
#     4  10  22  40  72  92 130 168 230 290 342 396
#
# _framework density 21.880647
#
# number of rings (size 3 to 8) (size 9 to 14) (size 15 to 20)
#    0.000    1.846    3.077    0.462    8.615    3.692 
#    2.769    1.538    0.000    0.000    0.000    0.000 
#    0.000    0.000    0.000    0.000    0.000    0.000 
#
# Total GULP energy -290299.017324 kJ/mol
# GULP energy per Si atom -5582.673410 kJ/mol
# Density = 2.183085 g / cm^3
# Si number density = 21.880647 Si / 1000 Ang^3
#
#
#
# Elastic Constant Matrix: (Units=GPa)
#
#
# Indices 1 2 3 4 5 6 
#
# 1 98.6391 14.6888 2.5520 0.0000 0.0000 0.0000
# 2 14.6888 73.9340 15.9555 0.0000 0.0000 0.0000
# 3 2.5520 15.9555 48.4550 0.0000 0.0000 0.0000
# 4 0.0000 0.0000 0.0000 8.3444 0.0000 0.0000
# 5 0.0000 0.0000 0.0000 0.0000 16.5950 0.0000
# 6 0.0000 0.0000 0.0000 0.0000 0.0000 37.3322
#
#
#
# Elastic Compliance Matrix: (Units=1/GPa)
#
#
# Indices 1 2 3 4 5 6 
#
# 1 0.010448 -0.002107 0.000143 0.000000 0.000000 0.000000
# 2 -0.002107 0.014985 -0.004823 0.000000 0.000000 0.000000
# 3 0.000143 -0.004823 0.022218 0.000000 0.000000 0.000000
# 4 0.000000 0.000000 0.000000 0.119840 0.000000 0.000000
# 5 0.000000 0.000000 0.000000 0.000000 0.060259 0.000000
# 6 0.000000 0.000000 0.000000 0.000000 0.000000 0.026787
#
#
# Mechanical properties :
#
#
# Convention : Reuss Voigt Hill
#
# Bulk Modulus (GPa) = 29.34434 31.93564 30.63999
# Shear Modulus (GPa) = 17.89100 24.97644 21.43372
#
# Velocity S-wave (km/s) = 2.86258 3.38225 3.13321
# Velocity P-wave (km/s) = 4.93620 5.46625 5.20797
#
# Compressibility (1/GPa) = 0.03407812
#
# Stress axis : x y z
#
# Youngs Moduli (GPa) = 95.71233 66.73319 45.00767
#
# Poissons Ratio (x) = 0.14059 -0.00646
# Poissons Ratio (y) = 0.20164 0.21709
# Poissons Ratio (z) = -0.01373 0.32188
#
# Static dielectric constant tensor:
#      x y z
#    x 1.804470 0.000000 0.000000 
#    y 0.000000 1.811530 0.000000 
#    z 0.000000 0.000000 1.840820 
# 
# From -- ./inp_files/31795.got.cif
#   From: 2010.05.17/outbox.cif.g08.bks.cpg/sg73_16_cif.got.tgz:31795.got - 2010.06.03 17:35:07.
