data_PCOD9530682
_publ_section_title
;
Structure prediction by ZEFSAII (Michael W. Deem and Ramdas Pophale) SiO2 
 PCOD9530682
Probable space group: I B C A 
;
_chemical_formula_sum "Si O2"
_cell_formula_units_Z 96
_cell_length_a 15.828215
_cell_length_b 20.648550
_cell_length_c 13.949689
_cell_angle_alpha 90.000000
_cell_angle_beta 90.000000
_cell_angle_gamma 90.000000
_cell_volume 4559.172515
_symmetry_space_group_name_H-M "I B C A "
_symmetry_group_IT_number 73
_symmetry_cell_setting 'orthorhombic'
loop_
_space_group_symop_operation_xyz
x,y,z
-x,1/2-y,z
x,-y,1/2-z
1/2-x,y,-z
-x,-y,-z
x,1/2+y,-z
-x,y,1/2+z
1/2+x,-y,z
1/2+x,1/2+y,1/2+z
1/2-x,-y,1/2+z
1/2+x,1/2-y,-z
-x,1/2+y,1/2-z
1/2-x,1/2-y,1/2-z
1/2+x,y,1/2-z
1/2-x,1/2+y,z
x,1/2-y,1/2+z
loop_
_atom_site_type_symbol
_atom_site_label
_atom_site_fract_x
_atom_site_fract_y
_atom_site_fract_z
Si Si1 0.119102 0.142576 0.455349
Si Si2 0.553560 0.426762 0.878602
Si Si3 0.807445 0.000000 0.750000
Si Si4 0.220994 0.381519 0.144555
Si Si5 0.538344 0.943831 0.911571
Si Si6 0.000000 0.750000 0.592219
Si Si7 0.068108 0.852430 0.744207
O O1 0.192523 0.155233 0.379309
O O2 0.166584 0.113409 0.546837
O O3 0.065003 0.207566 0.469995
O O4 0.054238 0.089851 0.414562
O O5 0.629248 0.456866 0.816372
O O6 0.480840 0.481061 0.897071
O O7 0.506073 0.368950 0.821653
O O8 0.581143 0.418921 0.989942
O O9 0.750740 0.049792 0.811960
O O10 0.157822 0.340219 0.208913
O O11 0.581310 0.917825 0.816939
O O12 0.956349 0.700126 0.665470
#
# Coordination Sequence:
#
# PCOD9530682 Si02
#       7
#    16  16   8  16  16   8  16
#     4  10  21  44  63  96 128 173 227 273 339 392
#     4  11  20  37  63  95 130 177 217 269 318 423
#     4  12  22  36  60  96 142 170 204 268 352 412
#     4  11  24  38  65  99 136 166 213 285 349 397
#     4  10  20  36  64  92 130 170 218 262 323 414
#     4  10  24  44  72  86 118 180 242 282 318 400
#     4  11  22  40  63  97 121 172 225 275 329 398
#
# _framework density 21.056452
#
# number of rings (size 3 to 8) (size 9 to 14) (size 15 to 20)
#    0.000    1.333    5.000    1.000    2.333    1.333 
#    0.000    0.000    7.333    0.000    0.000    0.000 
#    0.000    0.000    0.000    0.000    0.000    0.000 
#
# Total GULP energy -267622.190158 kJ/mol
# GULP energy per Si atom -5575.462295 kJ/mol
# Density = 2.100853 g / cm^3
# Si number density = 21.056452 Si / 1000 Ang^3
#
#
#
# Elastic Constant Matrix: (Units=GPa)
#
#
# Indices 1 2 3 4 5 6 
#
# 1 106.9314 29.7159 37.2878 0.0000 0.0000 0.0000
# 2 29.7159 55.4123 4.0237 0.0000 0.0000 0.0000
# 3 37.2878 4.0237 89.3249 0.0000 0.0000 0.0000
# 4 0.0000 0.0000 0.0000 26.1471 0.0000 0.0000
# 5 0.0000 0.0000 0.0000 0.0000 31.0453 0.0000
# 6 0.0000 0.0000 0.0000 0.0000 0.0000 23.8869
#
#
#
# Elastic Compliance Matrix: (Units=1/GPa)
#
#
# Indices 1 2 3 4 5 6 
#
# 1 0.012964 -0.006581 -0.005115 0.000000 0.000000 0.000000
# 2 -0.006581 0.021446 0.001781 0.000000 0.000000 0.000000
# 3 -0.005115 0.001781 0.013250 0.000000 0.000000 0.000000
# 4 0.000000 0.000000 0.000000 0.038245 0.000000 0.000000
# 5 0.000000 0.000000 0.000000 0.000000 0.032211 0.000000
# 6 0.000000 0.000000 0.000000 0.000000 0.000000 0.041864
#
#
# Mechanical properties :
#
#
# Convention : Reuss Voigt Hill
#
# Bulk Modulus (GPa) = 35.93187 43.74705 39.83946
# Shear Modulus (GPa) = 26.44263 28.25860 27.35062
#
# Velocity S-wave (km/s) = 3.54757 3.66736 3.60796
# Velocity P-wave (km/s) = 5.82082 6.22526 6.02643
#
# Compressibility (1/GPa) = 0.02783045
#
# Stress axis : x y z
#
# Youngs Moduli (GPa) = 77.13429 46.62794 75.47031
#
# Poissons Ratio (x) = 0.30686 0.38606
# Poissons Ratio (y) = 0.50762 -0.13442
# Poissons Ratio (z) = 0.39457 -0.08305
#
# Static dielectric constant tensor:
#      x y z
#    x 1.765380 0.000000 0.000000 
#    y 0.000000 1.797730 0.000000 
#    z 0.000000 0.000000 1.878180 
# 
# From -- ./inp_files/17203.got.cif
#   From: 2010.05.17/outbox.cif.g08.bks.cpg/sg73_9_cif.got.tgz:17203.got - 2010.06.03 17:35:07.
