data_PCOD9530832
_publ_section_title
;
Structure prediction by ZEFSAII (Michael W. Deem and Ramdas Pophale) SiO2 
 PCOD9530832
Probable space group: I B C A 
;
_chemical_formula_sum "Si O2"
_cell_formula_units_Z 72
_cell_length_a 17.732962
_cell_length_b 15.255433
_cell_length_c 11.518958
_cell_angle_alpha 90.000000
_cell_angle_beta 90.000000
_cell_angle_gamma 90.000000
_cell_volume 3116.154752
_symmetry_space_group_name_H-M "I B C A "
_symmetry_group_IT_number 73
_symmetry_cell_setting 'orthorhombic'
loop_
_space_group_symop_operation_xyz
x,y,z
-x,1/2-y,z
x,-y,1/2-z
1/2-x,y,-z
-x,-y,-z
x,1/2+y,-z
-x,y,1/2+z
1/2+x,-y,z
1/2+x,1/2+y,1/2+z
1/2-x,-y,1/2+z
1/2+x,1/2-y,-z
-x,1/2+y,1/2-z
1/2-x,1/2-y,1/2-z
1/2+x,y,1/2-z
1/2-x,1/2+y,z
x,1/2-y,1/2+z
loop_
_atom_site_type_symbol
_atom_site_label
_atom_site_fract_x
_atom_site_fract_y
_atom_site_fract_z
Si Si1 0.036198 0.652054 0.700686
Si Si2 0.750000 0.418430 0.000000
Si Si3 0.690767 0.912544 0.589589
Si Si4 0.708172 0.659473 0.731254
Si Si5 0.524190 0.352416 0.441966
O O1 0.126709 0.657601 0.709543
O O2 0.012838 0.613110 0.574545
O O3 0.000000 0.750000 0.702815
O O4 0.013330 0.609047 0.824464
O O5 0.812328 0.486716 0.950775
O O6 0.708017 0.362110 0.903991
O O7 0.750000 0.869121 0.500000
O O8 0.735023 0.908257 0.709078
O O9 0.612616 0.863433 0.584630
O O10 0.750000 0.750000 0.750000
O O11 0.500000 0.250000 0.446968
#
# Coordination Sequence:
#
# PCOD9530832 Si02
#       5
#    16   8  16  16  16
#     4  10  21  36  59  94 135 172 221 285 350 403
#     4  10  26  42  70 102 140 184 242 292 376 418
#     4  10  22  44  69  94 142 186 229 288 360 419
#     4  12  24  40  70 104 134 178 244 302 347 422
#     4  10  20  38  63  94 133 181 228 285 350 418
#
# _framework density 23.105399999999999
#
# number of rings (size 3 to 8) (size 9 to 14) (size 15 to 20)
#    0.667    0.889    2.222    3.333    1.556    7.111 
#    0.000    1.111    0.000    8.000    0.000    0.000 
#    0.000    0.000    0.000    0.000    0.000    0.000 
#
# Total GULP energy -200794.894295 kJ/mol
# GULP energy per Si atom -5577.635953 kJ/mol
# Density = 2.305281 g / cm^3
# Si number density = 23.105400 Si / 1000 Ang^3
#
#
#
# Elastic Constant Matrix: (Units=GPa)
#
#
# Indices 1 2 3 4 5 6 
#
# 1 125.8641 34.2191 45.6471 0.0000 0.0000 0.0000
# 2 34.2191 71.6382 24.8133 0.0000 0.0000 0.0000
# 3 45.6471 24.8133 196.8722 0.0000 0.0000 0.0000
# 4 0.0000 0.0000 0.0000 51.2742 0.0000 0.0000
# 5 0.0000 0.0000 0.0000 0.0000 -51.7472 0.0000
# 6 0.0000 0.0000 0.0000 0.0000 0.0000 -3.1110
#
#
#
# Elastic Compliance Matrix: (Units=1/GPa)
#
#
# Indices 1 2 3 4 5 6 
#
# 1 0.009666 -0.004016 -0.001735 0.000000 0.000000 0.000000
# 2 -0.004016 0.016265 -0.001119 0.000000 0.000000 0.000000
# 3 -0.001735 -0.001119 0.005623 0.000000 0.000000 0.000000
# 4 0.000000 0.000000 0.000000 0.019503 0.000000 0.000000
# 5 0.000000 0.000000 0.000000 0.000000 -0.019325 0.000000
# 6 0.000000 0.000000 0.000000 0.000000 0.000000 -0.321441
#
#
# Mechanical properties :
#
#
# Convention : Reuss Voigt Hill
#
# Bulk Modulus (GPa) = 56.13629 67.08151 61.60890
# Shear Modulus (GPa) = -18.51641 18.59620 0.03990
#
# Velocity S-wave (km/s) = -2.83395 2.84005 0.13155
# Velocity P-wave (km/s) = 3.69325 6.31272 5.17158
#
# Compressibility (1/GPa) = 0.01781379
#
# Stress axis : x y z
#
# Youngs Moduli (GPa) = 103.45285 61.48180 177.84948
#
# Poissons Ratio (x) = 0.24693 0.30857
# Poissons Ratio (y) = 0.41549 0.19897
# Poissons Ratio (z) = 0.17949 0.06878
#
# Static dielectric constant tensor:
#      x y z
#    x 1.856250 0.000000 0.000000 
#    y 0.000000 1.871970 0.000000 
#    z 0.000000 0.000000 1.952250 
# 
# From -- ./inp_files/11639.got.cif
#   From: 2010.05.17/outbox.cif.g08.bks.cpg/sg73_6_cif.got.tgz:11639.got - 2010.06.03 17:35:07.
