data_PCOD9530656
_publ_section_title
;
Structure prediction by ZEFSAII (Michael W. Deem and Ramdas Pophale) SiO2 
 PCOD9530656
Probable space group: I B C A 
;
_chemical_formula_sum "Si O2"
_cell_formula_units_Z 96
_cell_length_a 27.877369
_cell_length_b 9.012039
_cell_length_c 17.291717
_cell_angle_alpha 90.000000
_cell_angle_beta 90.000000
_cell_angle_gamma 90.000000
_cell_volume 4344.231550
_symmetry_space_group_name_H-M "I B C A "
_symmetry_group_IT_number 73
_symmetry_cell_setting 'orthorhombic'
loop_
_space_group_symop_operation_xyz
x,y,z
-x,1/2-y,z
x,-y,1/2-z
1/2-x,y,-z
-x,-y,-z
x,1/2+y,-z
-x,y,1/2+z
1/2+x,-y,z
1/2+x,1/2+y,1/2+z
1/2-x,-y,1/2+z
1/2+x,1/2-y,-z
-x,1/2+y,1/2-z
1/2-x,1/2-y,1/2-z
1/2+x,y,1/2-z
1/2-x,1/2+y,z
x,1/2-y,1/2+z
loop_
_atom_site_type_symbol
_atom_site_label
_atom_site_fract_x
_atom_site_fract_y
_atom_site_fract_z
Si Si1 0.140869 0.399494 0.033184
Si Si2 0.778886 0.676724 0.422847
Si Si3 0.196275 0.393152 0.873307
Si Si4 0.858286 0.385573 0.815702
Si Si5 0.532433 0.391660 0.450367
Si Si6 0.532478 0.609144 0.310978
O O1 0.170887 0.256823 0.060215
O O2 0.144630 0.527833 0.100191
O O3 0.085265 0.357326 0.017884
O O4 0.164961 0.432926 0.950425
O O5 0.750000 0.615947 0.500000
O O6 0.785723 0.557775 0.354250
O O7 0.743652 0.806481 0.397437
O O8 0.167753 0.272744 0.823535
O O9 0.839957 0.500000 0.750000
O O10 0.913155 0.347338 0.789665
O O11 0.500000 0.250000 0.433391
O O12 0.500000 0.500000 0.500000
O O13 0.541993 0.493033 0.377695
O O14 0.500000 0.750000 0.329907
O O15 0.507375 0.500000 0.250000
#
# Coordination Sequence:
#
# PCOD9530656 Si02
#       6
#    16  16  16  16  16  16
#     4  10  22  38  62  88 126 166 212 262 317 391
#     4  10  20  36  61  94 121 162 218 263 322 390
#     4  11  21  37  64  90 121 164 213 267 318 388
#     4  10  23  42  62  92 132 169 208 269 338 389
#     4  11  25  37  58  94 131 162 213 270 327 381
#     4  10  22  42  65  88 125 177 218 263 325 404
#
# _framework density 22.098268999999998
#
# number of rings (size 3 to 8) (size 9 to 14) (size 15 to 20)
#    0.000    1.667    0.000    5.500    9.333    0.000 
#    0.000    4.167    0.000    0.000    0.000    0.000 
#    0.000    0.000    0.000    0.000    0.000    0.000 
#
# Total GULP energy -267560.550843 kJ/mol
# GULP energy per Si atom -5574.178143 kJ/mol
# Density = 2.204797 g / cm^3
# Si number density = 22.098269 Si / 1000 Ang^3
#
#
#
# Elastic Constant Matrix: (Units=GPa)
#
#
# Indices 1 2 3 4 5 6 
#
# 1 138.9654 61.1953 4.6903 0.0000 0.0000 0.0000
# 2 61.1953 115.8321 -4.0945 0.0000 0.0000 0.0000
# 3 4.6903 -4.0945 20.1484 0.0000 0.0000 0.0000
# 4 0.0000 0.0000 0.0000 22.3363 0.0000 0.0000
# 5 0.0000 0.0000 0.0000 0.0000 15.6176 0.0000
# 6 0.0000 0.0000 0.0000 0.0000 0.0000 -20.9361
#
#
#
# Elastic Compliance Matrix: (Units=1/GPa)
#
#
# Indices 1 2 3 4 5 6 
#
# 1 0.009589 -0.005182 -0.003285 0.000000 0.000000 0.000000
# 2 -0.005182 0.011496 0.003543 0.000000 0.000000 0.000000
# 3 -0.003285 0.003543 0.051116 0.000000 0.000000 0.000000
# 4 0.000000 0.000000 0.000000 0.044770 0.000000 0.000000
# 5 0.000000 0.000000 0.000000 0.000000 0.064030 0.000000
# 6 0.000000 0.000000 0.000000 0.000000 0.000000 -0.047764
#
#
# Mechanical properties :
#
#
# Convention : Reuss Voigt Hill
#
# Bulk Modulus (GPa) = 16.03798 44.28090 30.15944
# Shear Modulus (GPa) = 30.51181 17.61390 24.06286
#
# Velocity S-wave (km/s) = 3.71985 2.82631 3.30343
# Velocity P-wave (km/s) = 5.07179 5.54368 5.31298
#
# Compressibility (1/GPa) = 0.06235198
#
# Stress axis : x y z
#
# Youngs Moduli (GPa) = 104.28731 86.98581 19.56316
#
# Poissons Ratio (x) = 0.45076 0.06427
# Poissons Ratio (y) = 0.54042 -0.06930
# Poissons Ratio (z) = 0.34261 -0.30815
#
# Static dielectric constant tensor:
#      x y z
#    x 1.747120 0.000000 0.000000 
#    y 0.000000 1.707660 0.000000 
#    z 0.000000 0.000000 1.328140 
# 
# From -- ./inp_files/27519.got.cif
#   From: 2010.05.17/outbox.cif.g08.bks.cpg/sg73_14_cif.got.tgz:27519.got - 2010.06.03 17:35:07.
