data_PCOD9530523
_publ_section_title
;
Structure prediction by ZEFSAII (Michael W. Deem and Ramdas Pophale) SiO2 
 PCOD9530523
Probable space group: I B C A 
;
_chemical_formula_sum "Si O2"
_cell_formula_units_Z 120
_cell_length_a 19.840273
_cell_length_b 24.501629
_cell_length_c 11.866767
_cell_angle_alpha 90.000000
_cell_angle_beta 90.000000
_cell_angle_gamma 90.000000
_cell_volume 5768.661006
_symmetry_space_group_name_H-M "I B C A "
_symmetry_group_IT_number 73
_symmetry_cell_setting 'orthorhombic'
loop_
_space_group_symop_operation_xyz
x,y,z
-x,1/2-y,z
x,-y,1/2-z
1/2-x,y,-z
-x,-y,-z
x,1/2+y,-z
-x,y,1/2+z
1/2+x,-y,z
1/2+x,1/2+y,1/2+z
1/2-x,-y,1/2+z
1/2+x,1/2-y,-z
-x,1/2+y,1/2-z
1/2-x,1/2-y,1/2-z
1/2+x,y,1/2-z
1/2-x,1/2+y,z
x,1/2-y,1/2+z
loop_
_atom_site_type_symbol
_atom_site_label
_atom_site_fract_x
_atom_site_fract_y
_atom_site_fract_z
Si Si1 0.195185 0.713056 0.184242
Si Si2 0.994966 0.126537 0.334328
Si Si3 0.772987 0.893802 0.873401
Si Si4 0.192163 0.000000 0.250000
Si Si5 0.422379 0.476257 0.076958
Si Si6 0.541230 0.454258 0.342692
Si Si7 0.068347 0.721532 0.767561
Si Si8 0.113181 0.325724 0.512670
O O1 0.250000 0.750000 0.250000
O O2 0.226708 0.652217 0.185968
O O3 0.127975 0.736932 0.240787
O O4 0.169686 0.710881 0.052413
O O5 0.029804 0.073168 0.385356
O O6 0.057454 0.166484 0.304943
O O7 0.961700 0.104295 0.217502
O O8 0.936827 0.147985 0.419428
O O9 0.770867 0.947647 0.799172
O O10 0.750000 0.907360 0.000000
O O11 0.845872 0.866997 0.904098
O O12 0.143621 0.020667 0.349620
O O13 0.467260 0.529953 0.105927
O O14 0.409607 0.465300 0.946377
O O15 0.556357 0.500000 0.250000
O O16 0.000000 0.750000 0.736029
O O17 0.070468 0.708704 0.899472
#
# Coordination Sequence:
#
# PCOD9530523 Si02
#       8
#    16  16  16   8  16  16  16  16
#     4  11  24  48  72  99 138 192 247 286 359 444
#     4  11  21  38  61 104 148 179 230 298 369 436
#     4  10  25  47  74  98 135 200 245 296 365 437
#     4  12  22  42  76 102 136 190 266 292 356 446
#     4  10  20  34  62 101 138 186 230 294 362 420
#     4   9  19  34  54  91 151 185 222 277 362 435
#     4  12  25  41  68 106 137 176 235 304 364 426
#     4  11  24  42  72 100 143 193 234 298 371 434
#
# _framework density 20.802053999999998
#
# number of rings (size 3 to 8) (size 9 to 14) (size 15 to 20)
#    0.000    1.333    4.667    1.600    7.467    0.000 
#    0.000    2.667    5.867    0.000    0.000    0.000 
#    0.000    0.000    0.000    0.000    0.000    0.000 
#
# Total GULP energy -334143.753134 kJ/mol
# GULP energy per Si atom -5569.062552 kJ/mol
# Density = 2.075471 g / cm^3
# Si number density = 20.802054 Si / 1000 Ang^3
#
#
#
# Elastic Constant Matrix: (Units=GPa)
#
#
# Indices 1 2 3 4 5 6 
#
# 1 92.9826 52.6155 28.6376 0.0000 0.0000 0.0000
# 2 52.6155 113.9903 69.9279 0.0000 0.0000 0.0000
# 3 28.6376 69.9279 107.1302 0.0000 0.0000 0.0000
# 4 0.0000 0.0000 0.0000 39.4637 0.0000 0.0000
# 5 0.0000 0.0000 0.0000 0.0000 29.8796 0.0000
# 6 0.0000 0.0000 0.0000 0.0000 0.0000 28.2291
#
#
#
# Elastic Compliance Matrix: (Units=1/GPa)
#
#
# Indices 1 2 3 4 5 6 
#
# 1 0.014601 -0.007247 0.000827 0.000000 0.000000 0.000000
# 2 -0.007247 0.018228 -0.009961 0.000000 0.000000 0.000000
# 3 0.000827 -0.009961 0.015615 0.000000 0.000000 0.000000
# 4 0.000000 0.000000 0.000000 0.025340 0.000000 0.000000
# 5 0.000000 0.000000 0.000000 0.000000 0.033468 0.000000
# 6 0.000000 0.000000 0.000000 0.000000 0.000000 0.035424
#
#
# Mechanical properties :
#
#
# Convention : Reuss Voigt Hill
#
# Bulk Modulus (GPa) = 63.76361 68.49612 66.12987
# Shear Modulus (GPa) = 27.67551 30.37596 29.02574
#
# Velocity S-wave (km/s) = 3.65145 3.82545 3.73946
# Velocity P-wave (km/s) = 6.96395 7.24646 7.10661
#
# Compressibility (1/GPa) = 0.01568293
#
# Stress axis : x y z
#
# Youngs Moduli (GPa) = 68.49019 54.85949 64.03978
#
# Poissons Ratio (x) = 0.39756 -0.05298
# Poissons Ratio (y) = 0.49634 0.63791
# Poissons Ratio (z) = -0.05666 0.54646
#
# Static dielectric constant tensor:
#      x y z
#    x 1.794050 0.000000 0.000000 
#    y 0.000000 1.704770 0.000000 
#    z 0.000000 0.000000 1.787280 
# 
# From -- ./inp_files/12238.got.cif
#   From: 2010.05.17/outbox.cif.g08.bks.cpg/sg73_7_cif.got.tgz:12238.got - 2010.06.03 17:35:07.
