data_PCOD9530742
_publ_section_title
;
Structure prediction by ZEFSAII (Michael W. Deem and Ramdas Pophale) SiO2 
 PCOD9530742
Probable space group: I B C A 
;
_chemical_formula_sum "Si O2"
_cell_formula_units_Z 112
_cell_length_a 13.989207
_cell_length_b 13.315042
_cell_length_c 28.033372
_cell_angle_alpha 90.000000
_cell_angle_beta 90.000000
_cell_angle_gamma 90.000000
_cell_volume 5221.688703
_symmetry_space_group_name_H-M "I B C A "
_symmetry_group_IT_number 73
_symmetry_cell_setting 'orthorhombic'
loop_
_space_group_symop_operation_xyz
x,y,z
-x,1/2-y,z
x,-y,1/2-z
1/2-x,y,-z
-x,-y,-z
x,1/2+y,-z
-x,y,1/2+z
1/2+x,-y,z
1/2+x,1/2+y,1/2+z
1/2-x,-y,1/2+z
1/2+x,1/2-y,-z
-x,1/2+y,1/2-z
1/2-x,1/2-y,1/2-z
1/2+x,y,1/2-z
1/2-x,1/2+y,z
x,1/2-y,1/2+z
loop_
_atom_site_type_symbol
_atom_site_label
_atom_site_fract_x
_atom_site_fract_y
_atom_site_fract_z
Si Si1 0.157174 0.527207 0.970966
Si Si2 0.158537 0.506705 0.304779
Si Si3 0.541482 0.425398 0.052599
Si Si4 0.623301 0.493603 0.805716
Si Si5 0.532553 0.144535 0.653438
Si Si6 0.588436 0.623351 0.107636
Si Si7 0.133667 0.660198 0.885830
O O1 0.185526 0.583749 0.922073
O O2 0.069631 0.450423 0.959628
O O3 0.250000 0.490695 0.000000
O O4 0.101369 0.604430 0.006327
O O5 0.129707 0.500000 0.250000
O O6 0.269064 0.534595 0.307805
O O7 0.103594 0.583735 0.338564
O O8 0.130950 0.397983 0.325716
O O9 0.544502 0.351624 0.096824
O O10 0.594243 0.527490 0.072542
O O11 0.595374 0.500000 0.750000
O O12 0.549416 0.562456 0.834767
O O13 0.634546 0.385507 0.832167
O O14 0.500000 0.250000 0.673750
O O15 0.478040 0.650392 0.101384
O O16 0.654139 0.722566 0.104396
#
# Coordination Sequence:
#
# PCOD9530742 Si02
#       7
#    16  16  16  16  16  16  16
#     4  10  20  37  62  85 120 160 202 249 306 366
#     4  10  22  40  63  90 124 167 209 255 316 374
#     4   9  20  40  58  89 121 163 199 253 312 366
#     4  11  23  41  63  90 128 166 205 258 315 374
#     4  11  23  41  64  94 127 163 205 263 314 366
#     4   9  19  37  63  83 120 159 208 253 300 367
#     4  10  20  38  61  90 117 161 209 251 302 370
#
# _framework density 21.448999000000001
#
# number of rings (size 3 to 8) (size 9 to 14) (size 15 to 20)
#    0.000    2.000    4.286    0.429    4.000    2.286 
#    7.714    3.571    0.000    0.000    0.000    0.000 
#    0.000    0.000    0.000    0.000    0.000    0.000 
#
# Total GULP energy -311825.169835 kJ/mol
# GULP energy per Si atom -5568.306604 kJ/mol
# Density = 2.140018 g / cm^3
# Si number density = 21.448999 Si / 1000 Ang^3
#
#
#
# Elastic Constant Matrix: (Units=GPa)
#
#
# Indices 1 2 3 4 5 6 
#
# 1 69.6359 -3.7402 6.8745 0.0000 0.0000 0.0000
# 2 -3.7402 57.3966 -2.5382 0.0000 0.0000 0.0000
# 3 6.8745 -2.5382 102.3728 0.0000 0.0000 0.0000
# 4 0.0000 0.0000 0.0000 2.3892 0.0000 0.0000
# 5 0.0000 0.0000 0.0000 0.0000 31.8462 0.0000
# 6 0.0000 0.0000 0.0000 0.0000 0.0000 9.5715
#
#
#
# Elastic Compliance Matrix: (Units=1/GPa)
#
#
# Indices 1 2 3 4 5 6 
#
# 1 0.014503 0.000903 -0.000952 0.000000 0.000000 0.000000
# 2 0.000903 0.017498 0.000373 0.000000 0.000000 0.000000
# 3 -0.000952 0.000373 0.009841 0.000000 0.000000 0.000000
# 4 0.000000 0.000000 0.000000 0.418551 0.000000 0.000000
# 5 0.000000 0.000000 0.000000 0.000000 0.031401 0.000000
# 6 0.000000 0.000000 0.000000 0.000000 0.000000 0.104477
#
#
# Mechanical properties :
#
#
# Convention : Reuss Voigt Hill
#
# Bulk Modulus (GPa) = 23.53409 25.62195 24.57802
# Shear Modulus (GPa) = 8.19961 24.01532 16.10747
#
# Velocity S-wave (km/s) = 1.95733 3.34974 2.74335
# Velocity P-wave (km/s) = 4.01299 5.18965 4.63878
#
# Compressibility (1/GPa) = 0.04249154
#
# Stress axis : x y z
#
# Youngs Moduli (GPa) = 68.95198 57.14947 101.61184
#
# Poissons Ratio (x) = -0.05160 0.09668
# Poissons Ratio (y) = -0.06226 -0.03792
# Poissons Ratio (z) = 0.06561 -0.02133
#
# Static dielectric constant tensor:
#      x y z
#    x 1.811590 0.000000 0.000000 
#    y 0.000000 1.843160 0.000000 
#    z 0.000000 0.000000 1.827190 
# 
# From -- ./inp_files/32158.got.cif
#   From: 2010.05.17/outbox.cif.g08.bks.cpg/sg73_17_cif.got.tgz:32158.got - 2010.06.03 17:35:07.
