data_PCOD9530574
_publ_section_title
;
Structure prediction by ZEFSAII (Michael W. Deem and Ramdas Pophale) SiO2 
 PCOD9530574
Probable space group: I B C A 
;
_chemical_formula_sum "Si O2"
_cell_formula_units_Z 80
_cell_length_a 8.862792
_cell_length_b 17.745451
_cell_length_c 29.867099
_cell_angle_alpha 90.000000
_cell_angle_beta 90.000000
_cell_angle_gamma 90.000000
_cell_volume 4697.325331
_symmetry_space_group_name_H-M "I B C A "
_symmetry_group_IT_number 73
_symmetry_cell_setting 'orthorhombic'
loop_
_space_group_symop_operation_xyz
x,y,z
-x,1/2-y,z
x,-y,1/2-z
1/2-x,y,-z
-x,-y,-z
x,1/2+y,-z
-x,y,1/2+z
1/2+x,-y,z
1/2+x,1/2+y,1/2+z
1/2-x,-y,1/2+z
1/2+x,1/2-y,-z
-x,1/2+y,1/2-z
1/2-x,1/2-y,1/2-z
1/2+x,y,1/2-z
1/2-x,1/2+y,z
x,1/2-y,1/2+z
loop_
_atom_site_type_symbol
_atom_site_label
_atom_site_fract_x
_atom_site_fract_y
_atom_site_fract_z
Si Si1 0.766871 0.098744 0.447072
Si Si2 0.481660 0.496321 0.100756
Si Si3 0.819268 0.241536 0.387743
Si Si4 0.232467 0.603836 0.360170
Si Si5 0.677932 0.233316 0.797657
O O1 0.750000 0.105245 0.500000
O O2 0.768657 0.179829 0.423110
O O3 0.919908 0.056525 0.431785
O O4 0.632929 0.047641 0.427271
O O5 0.383968 0.444177 0.133957
O O6 0.594947 0.550542 0.127237
O O7 0.747720 0.324704 0.394152
O O8 0.759456 0.220374 0.337892
O O9 0.000000 0.250000 0.387321
O O10 0.209196 0.647200 0.313455
O O11 0.500000 0.250000 0.797998
O O12 0.750000 0.250000 0.750000
#
# Coordination Sequence:
#
# PCOD9530574 Si02
#       5
#    16  16  16  16  16
#     4  11  21  36  56  82 116 156 196 242 287 347
#     4  10  20  38  57  82 119 153 194 233 297 346
#     4  10  20  39  56  86 115 149 200 240 292 334
#     4   9  21  37  62  85 113 157 188 245 287 345
#     4  10  20  35  62  92 112 145 193 229 292 342
#
# _framework density 17.030968000000001
#
# number of rings (size 3 to 8) (size 9 to 14) (size 15 to 20)
#    1.200    0.800    2.000    2.400    0.000    0.000 
#    3.600    1.000    0.000   20.400    0.000    0.000 
#    0.000    0.000    0.000    0.000    0.000    0.000 
#
# Total GULP energy -222756.013759 kJ/mol
# GULP energy per Si atom -5568.900344 kJ/mol
# Density = 1.699221 g / cm^3
# Si number density = 17.030968 Si / 1000 Ang^3
#
#
#
# Elastic Constant Matrix: (Units=GPa)
#
#
# Indices 1 2 3 4 5 6 
#
# 1 111.5579 62.4870 58.7657 0.0000 0.0000 0.0000
# 2 62.4870 131.8965 63.1358 0.0000 0.0000 0.0000
# 3 58.7657 63.1358 124.2162 0.0000 0.0000 0.0000
# 4 0.0000 0.0000 0.0000 19.3404 0.0000 0.0000
# 5 0.0000 0.0000 0.0000 0.0000 7.4344 0.0000
# 6 0.0000 0.0000 0.0000 0.0000 0.0000 16.5618
#
#
#
# Elastic Compliance Matrix: (Units=1/GPa)
#
#
# Indices 1 2 3 4 5 6 
#
# 1 0.013681 -0.004471 -0.004200 0.000000 0.000000 0.000000
# 2 -0.004471 0.011481 -0.003720 0.000000 0.000000 0.000000
# 3 -0.004200 -0.003720 0.011928 0.000000 0.000000 0.000000
# 4 0.000000 0.000000 0.000000 0.051705 0.000000 0.000000
# 5 0.000000 0.000000 0.000000 0.000000 0.134509 0.000000
# 6 0.000000 0.000000 0.000000 0.000000 0.000000 0.060380
#
#
# Mechanical properties :
#
#
# Convention : Reuss Voigt Hill
#
# Bulk Modulus (GPa) = 81.24945 81.82752 81.53849
# Shear Modulus (GPa) = 15.99654 20.88613 18.44133
#
# Velocity S-wave (km/s) = 3.06806 3.50574 3.29418
# Velocity P-wave (km/s) = 7.76924 8.03353 7.90249
#
# Compressibility (1/GPa) = 0.01230777
#
# Stress axis : x y z
#
# Youngs Moduli (GPa) = 73.09630 87.10354 83.83527
#
# Poissons Ratio (x) = 0.38944 0.35208
# Poissons Ratio (y) = 0.32681 0.31188
# Poissons Ratio (z) = 0.30698 0.32403
#
# Static dielectric constant tensor:
#      x y z
#    x 1.575700 0.000000 0.000000 
#    y 0.000000 1.584910 0.000000 
#    z 0.000000 0.000000 1.543450 
# 
# From -- ./inp_files/33520.got.cif
#   From: 2010.05.17/outbox.cif.g08.bks.cpg/sg73_17_cif.got.tgz:33520.got - 2010.06.03 17:35:07.
