data_PCOD9530342
_publ_section_title
;
Structure prediction by ZEFSAII (Michael W. Deem and Ramdas Pophale) SiO2 
 PCOD9530342
Probable space group: I B C A 
;
_chemical_formula_sum "Si O2"
_cell_formula_units_Z 120
_cell_length_a 16.906331
_cell_length_b 15.963395
_cell_length_c 20.526765
_cell_angle_alpha 90.000000
_cell_angle_beta 90.000000
_cell_angle_gamma 90.000000
_cell_volume 5539.813418
_symmetry_space_group_name_H-M "I B C A "
_symmetry_group_IT_number 73
_symmetry_cell_setting 'orthorhombic'
loop_
_space_group_symop_operation_xyz
x,y,z
-x,1/2-y,z
x,-y,1/2-z
1/2-x,y,-z
-x,-y,-z
x,1/2+y,-z
-x,y,1/2+z
1/2+x,-y,z
1/2+x,1/2+y,1/2+z
1/2-x,-y,1/2+z
1/2+x,1/2-y,-z
-x,1/2+y,1/2-z
1/2-x,1/2-y,1/2-z
1/2+x,y,1/2-z
1/2-x,1/2+y,z
x,1/2-y,1/2+z
loop_
_atom_site_type_symbol
_atom_site_label
_atom_site_fract_x
_atom_site_fract_y
_atom_site_fract_z
Si Si1 0.516536 0.064216 0.189981
Si Si2 0.158578 0.809358 0.807105
Si Si3 0.796504 0.290382 0.837351
Si Si4 0.467357 0.661270 0.501428
Si Si5 0.606288 0.914437 0.924234
Si Si6 0.681718 0.417686 0.423193
Si Si7 0.645228 0.125949 0.112800
Si Si8 0.500000 0.750000 0.247912
O O1 0.448525 0.053769 0.135754
O O2 0.600611 0.053353 0.152292
O O3 0.511393 0.162667 0.212016
O O4 0.508851 0.000000 0.250000
O O5 0.205418 0.734504 0.844305
O O6 0.190134 0.826822 0.734089
O O7 0.167792 0.893512 0.847786
O O8 0.072568 0.773890 0.797147
O O9 0.841375 0.339335 0.893965
O O10 0.831163 0.196636 0.835966
O O11 0.500000 0.750000 0.524135
O O12 0.545567 0.607092 0.482844
O O13 0.394712 0.627982 0.544660
O O14 0.422135 0.666765 0.432276
O O15 0.667200 0.986997 0.941551
O O16 0.775520 0.394429 0.428916
#
# Coordination Sequence:
#
# PCOD9530342 Si02
#       8
#    16  16  16  16  16  16  16   8
#     4  11  22  36  61  98 127 174 229 258 325 413
#     4  10  22  35  62  93 138 166 213 265 328 397
#     4  10  19  39  63  98 122 178 218 255 331 411
#     4  11  23  43  74  92 117 175 234 276 323 407
#     4  11  22  40  67  93 131 170 225 273 338 396
#     4  11  25  41  61  96 136 167 207 287 343 384
#     4  10  21  43  67  91 126 179 216 272 326 398
#     4  12  20  38  58  86 138 182 208 274 314 392
#
# _framework density 21.661377999999999
#
# number of rings (size 3 to 8) (size 9 to 14) (size 15 to 20)
#    0.000    1.333    4.000    1.600    2.800    1.067 
#    0.000    0.000   11.733    0.000    0.000    0.000 
#    0.000    0.000    0.000    0.000    0.000    0.000 
#
# Total GULP energy -334137.006856 kJ/mol
# GULP energy per Si atom -5568.950114 kJ/mol
# Density = 2.161208 g / cm^3
# Si number density = 21.661378 Si / 1000 Ang^3
#
#
#
# Elastic Constant Matrix: (Units=GPa)
#
#
# Indices 1 2 3 4 5 6 
#
# 1 129.4558 29.1957 2.9296 0.0000 0.0000 0.0000
# 2 29.1957 69.9320 2.3426 0.0000 0.0000 0.0000
# 3 2.9296 2.3426 29.4431 0.0000 0.0000 0.0000
# 4 0.0000 0.0000 0.0000 12.2761 0.0000 0.0000
# 5 0.0000 0.0000 0.0000 0.0000 33.4183 0.0000
# 6 0.0000 0.0000 0.0000 0.0000 0.0000 25.1777
#
#
#
# Elastic Compliance Matrix: (Units=1/GPa)
#
#
# Indices 1 2 3 4 5 6 
#
# 1 0.008537 -0.003545 -0.000567 0.000000 0.000000 0.000000
# 2 -0.003545 0.015810 -0.000905 0.000000 0.000000 0.000000
# 3 -0.000567 -0.000905 0.034092 0.000000 0.000000 0.000000
# 4 0.000000 0.000000 0.000000 0.081459 0.000000 0.000000
# 5 0.000000 0.000000 0.000000 0.000000 0.029924 0.000000
# 6 0.000000 0.000000 0.000000 0.000000 0.000000 0.039718
#
#
# Mechanical properties :
#
#
# Convention : Reuss Voigt Hill
#
# Bulk Modulus (GPa) = 20.65943 33.08519 26.87231
# Shear Modulus (GPa) = 21.21251 27.13194 24.17223
#
# Velocity S-wave (km/s) = 3.13274 3.54298 3.34415
# Velocity P-wave (km/s) = 4.75852 5.66073 5.22912
#
# Compressibility (1/GPa) = 0.04840404
#
# Stress axis : x y z
#
# Youngs Moduli (GPa) = 117.13725 63.25134 29.33213
#
# Poissons Ratio (x) = 0.22423 0.01664
# Poissons Ratio (y) = 0.41526 0.02655
# Poissons Ratio (z) = 0.06646 0.05725
#
# Static dielectric constant tensor:
#      x y z
#    x 1.865720 0.000000 0.000000 
#    y 0.000000 1.801030 0.000000 
#    z 0.000000 0.000000 1.826010 
# 
# From -- ./inp_files/29868.got.cif
#   From: 2010.05.17/outbox.cif.g08.bks.cpg/sg73_15_cif.got.tgz:29868.got - 2010.06.03 17:35:07.
