data_PCOD9530223
_publ_section_title
;
Structure prediction by ZEFSAII (Michael W. Deem and Ramdas Pophale) SiO2 
 PCOD9530223
Probable space group: I B C A 
;
_chemical_formula_sum "Si O2"
_cell_formula_units_Z 104
_cell_length_a 9.942907
_cell_length_b 24.684967
_cell_length_c 19.509314
_cell_angle_alpha 90.000000
_cell_angle_beta 90.000000
_cell_angle_gamma 90.000000
_cell_volume 4788.372489
_symmetry_space_group_name_H-M "I B C A "
_symmetry_group_IT_number 73
_symmetry_cell_setting 'orthorhombic'
loop_
_space_group_symop_operation_xyz
x,y,z
-x,1/2-y,z
x,-y,1/2-z
1/2-x,y,-z
-x,-y,-z
x,1/2+y,-z
-x,y,1/2+z
1/2+x,-y,z
1/2+x,1/2+y,1/2+z
1/2-x,-y,1/2+z
1/2+x,1/2-y,-z
-x,1/2+y,1/2-z
1/2-x,1/2-y,1/2-z
1/2+x,y,1/2-z
1/2-x,1/2+y,z
x,1/2-y,1/2+z
loop_
_atom_site_type_symbol
_atom_site_label
_atom_site_fract_x
_atom_site_fract_y
_atom_site_fract_z
Si Si1 0.038928 0.118872 0.495768
Si Si2 0.113536 0.296687 0.887604
Si Si3 0.730868 0.715883 0.681587
Si Si4 0.318322 0.930693 0.405960
Si Si5 0.544043 0.625065 0.645644
Si Si6 0.750000 0.528259 0.000000
Si Si7 0.962284 0.375176 0.795578
O O1 0.095847 0.170895 0.457135
O O2 0.128648 0.066843 0.477803
O O3 0.890367 0.107066 0.464238
O O4 0.043659 0.125119 0.577323
O O5 0.243612 0.260300 0.877097
O O6 0.000000 0.250000 0.881273
O O7 0.088519 0.341876 0.827898
O O8 0.750000 0.750000 0.750000
O O9 0.594574 0.685095 0.665624
O O10 0.841711 0.667998 0.690764
O O11 0.175034 0.909358 0.378200
O O12 0.422522 0.925454 0.343374
O O13 0.298653 0.988860 0.439557
O O14 0.479361 0.607328 0.717359
#
# Coordination Sequence:
#
# PCOD9530223 Si02
#       7
#    16  16  16  16  16   8  16
#     4  11  24  43  69 101 135 176 239 287 340 423
#     4   9  19  40  60  91 137 177 213 271 333 405
#     4  10  19  35  65  92 137 186 215 264 346 407
#     4  10  22  43  74  93 130 183 228 281 352 414
#     4  11  21  40  70 101 133 180 236 280 343 418
#     4  12  24  46  74  94 130 186 230 292 360 410
#     4   9  20  37  64  98 132 172 228 278 331 420
#
# _framework density 21.719280000000001
#
# number of rings (size 3 to 8) (size 9 to 14) (size 15 to 20)
#    0.000    1.846    3.077    1.385    0.000    1.231 
#    8.308    0.769    0.000    0.000    0.000    0.000 
#    0.000    0.000    0.000    0.000    0.000    0.000 
#
# Total GULP energy -290132.854645 kJ/mol
# GULP energy per Si atom -5579.477974 kJ/mol
# Density = 2.166985 g / cm^3
# Si number density = 21.719280 Si / 1000 Ang^3
#
#
#
# Elastic Constant Matrix: (Units=GPa)
#
#
# Indices 1 2 3 4 5 6 
#
# 1 36.5858 22.1792 27.2376 0.0000 0.0000 0.0000
# 2 22.1792 75.4076 37.1437 0.0000 0.0000 0.0000
# 3 27.2376 37.1437 168.1623 0.0000 0.0000 0.0000
# 4 0.0000 0.0000 0.0000 6.6046 0.0000 0.0000
# 5 0.0000 0.0000 0.0000 0.0000 30.4793 0.0000
# 6 0.0000 0.0000 0.0000 0.0000 0.0000 33.4759
#
#
#
# Elastic Compliance Matrix: (Units=1/GPa)
#
#
# Indices 1 2 3 4 5 6 
#
# 1 0.035352 -0.008502 -0.003848 0.000000 0.000000 0.000000
# 2 -0.008502 0.016925 -0.002361 0.000000 0.000000 0.000000
# 3 -0.003848 -0.002361 0.007091 0.000000 0.000000 0.000000
# 4 0.000000 0.000000 0.000000 0.151410 0.000000 0.000000
# 5 0.000000 0.000000 0.000000 0.000000 0.032809 0.000000
# 6 0.000000 0.000000 0.000000 0.000000 0.000000 0.029872
#
#
# Mechanical properties :
#
#
# Convention : Reuss Voigt Hill
#
# Bulk Modulus (GPa) = 33.39430 50.36406 41.87918
# Shear Modulus (GPa) = 15.98130 27.01832 21.49981
#
# Velocity S-wave (km/s) = 2.71553 3.53083 3.14967
# Velocity P-wave (km/s) = 5.02403 6.31359 5.70536
#
# Compressibility (1/GPa) = 0.02994523
#
# Stress axis : x y z
#
# Youngs Moduli (GPa) = 28.28678 59.08366 141.01454
#
# Poissons Ratio (x) = 0.50236 0.54263
# Poissons Ratio (y) = 0.24051 0.33297
# Poissons Ratio (z) = 0.10885 0.13951
#
# Static dielectric constant tensor:
#      x y z
#    x 1.905370 0.000000 0.000000 
#    y 0.000000 1.768610 0.000000 
#    z 0.000000 0.000000 1.834610 
# 
# From -- ./inp_files/21458.got.cif
#   From: 2010.05.17/outbox.cif.g08.bks.cpg/sg73_11_cif.got.tgz:21458.got - 2010.06.03 17:35:07.
