data_PCOD9530189
_publ_section_title
;
Structure prediction by ZEFSAII (Michael W. Deem and Ramdas Pophale) SiO2 
 PCOD9530189
Probable space group: I B C A 
;
_chemical_formula_sum "Si O2"
_cell_formula_units_Z 96
_cell_length_a 15.330556
_cell_length_b 24.493304
_cell_length_c 12.790464
_cell_angle_alpha 90.000000
_cell_angle_beta 90.000000
_cell_angle_gamma 90.000000
_cell_volume 4802.767668
_symmetry_space_group_name_H-M "I B C A "
_symmetry_group_IT_number 73
_symmetry_cell_setting 'orthorhombic'
loop_
_space_group_symop_operation_xyz
x,y,z
-x,1/2-y,z
x,-y,1/2-z
1/2-x,y,-z
-x,-y,-z
x,1/2+y,-z
-x,y,1/2+z
1/2+x,-y,z
1/2+x,1/2+y,1/2+z
1/2-x,-y,1/2+z
1/2+x,1/2-y,-z
-x,1/2+y,1/2-z
1/2-x,1/2-y,1/2-z
1/2+x,y,1/2-z
1/2-x,1/2+y,z
x,1/2-y,1/2+z
loop_
_atom_site_type_symbol
_atom_site_label
_atom_site_fract_x
_atom_site_fract_y
_atom_site_fract_z
Si Si1 0.879278 0.298925 0.449023
Si Si2 0.727725 0.402705 0.619604
Si Si3 0.097294 0.643105 0.339971
Si Si4 0.452012 0.415561 0.480138
Si Si5 0.917616 0.317794 0.893431
Si Si6 0.425348 0.520010 0.358229
O O1 0.821221 0.344005 0.389918
O O2 0.872919 0.313068 0.571920
O O3 0.862995 0.236228 0.420788
O O4 0.980697 0.308398 0.421963
O O5 0.750000 0.418904 0.500000
O O6 0.820444 0.396865 0.673995
O O7 0.660609 0.445396 0.666726
O O8 0.081272 0.669898 0.229076
O O9 0.015536 0.612159 0.393043
O O10 0.393565 0.369719 0.535210
O O11 0.405350 0.466461 0.426413
O O12 0.513433 0.441306 0.571151
O O13 0.467302 0.500000 0.250000
#
# Coordination Sequence:
#
# PCOD9530189 Si02
#       6
#    16  16  16  16  16  16
#     4   9  20  35  59  83 118 147 190 239 284 347
#     4  10  19  41  58  79 117 160 191 228 302 351
#     4  10  20  38  62  82 115 157 189 232 302 355
#     4  10  21  37  61  89 116 147 197 249 280 348
#     4  10  19  35  57  93 112 146 201 237 283 339
#     4  11  21  38  60  84 115 158 193 241 292 339
#
# _framework density 19.988475000000001
#
# number of rings (size 3 to 8) (size 9 to 14) (size 15 to 20)
#    0.000    2.000    5.000    1.000    0.000    6.000 
#    3.000    0.833    0.000    0.000    0.000    0.000 
#    0.000    0.000    0.000    0.000    0.000    0.000 
#
# Total GULP energy -267731.124192 kJ/mol
# GULP energy per Si atom -5577.731754 kJ/mol
# Density = 1.994298 g / cm^3
# Si number density = 19.988475 Si / 1000 Ang^3
#
#
#
# Elastic Constant Matrix: (Units=GPa)
#
#
# Indices 1 2 3 4 5 6 
#
# 1 34.1744 9.8885 10.1794 0.0000 0.0000 0.0000
# 2 9.8885 134.2817 50.3379 0.0000 0.0000 0.0000
# 3 10.1794 50.3379 76.1014 0.0000 0.0000 0.0000
# 4 0.0000 0.0000 0.0000 20.2130 0.0000 0.0000
# 5 0.0000 0.0000 0.0000 0.0000 -2.3205 0.0000
# 6 0.0000 0.0000 0.0000 0.0000 0.0000 6.3389
#
#
#
# Elastic Compliance Matrix: (Units=1/GPa)
#
#
# Indices 1 2 3 4 5 6 
#
# 1 0.030568 -0.000955 -0.003457 0.000000 0.000000 0.000000
# 2 -0.000955 0.009932 -0.006442 0.000000 0.000000 0.000000
# 3 -0.003457 -0.006442 0.017864 0.000000 0.000000 0.000000
# 4 0.000000 0.000000 0.000000 0.049473 0.000000 0.000000
# 5 0.000000 0.000000 0.000000 0.000000 -0.430937 0.000000
# 6 0.000000 0.000000 0.000000 0.000000 0.000000 0.157756
#
#
# Mechanical properties :
#
#
# Convention : Reuss Voigt Hill
#
# Bulk Modulus (GPa) = 27.28089 42.81877 35.04983
# Shear Modulus (GPa) = -38.04657 16.45639 -10.79509
#
# Velocity S-wave (km/s) = -4.36756 2.87242 -2.32645
# Velocity P-wave (km/s) = 3.42873 5.69819 3.21816
#
# Compressibility (1/GPa) = 0.03665569
#
# Stress axis : x y z
#
# Youngs Moduli (GPa) = 32.71420 100.68196 55.97884
#
# Poissons Ratio (x) = 0.09616 0.19352
# Poissons Ratio (y) = 0.03125 0.36062
# Poissons Ratio (z) = 0.11309 0.64860
#
# Static dielectric constant tensor:
#      x y z
#    x 1.726460 0.000000 0.000000 
#    y 0.000000 1.772920 0.000000 
#    z 0.000000 0.000000 1.695550 
# 
# From -- ./inp_files/12032.got.cif
#   From: 2010.05.17/outbox.cif.g08.bks.cpg/sg73_7_cif.got.tgz:12032.got - 2010.06.03 17:35:07.
