data_PCOD9530410
_publ_section_title
;
Structure prediction by ZEFSAII (Michael W. Deem and Ramdas Pophale) SiO2 
 PCOD9530410
Probable space group: I B C A 
;
_chemical_formula_sum "Si O2"
_cell_formula_units_Z 104
_cell_length_a 8.709204
_cell_length_b 28.304139
_cell_length_c 20.050738
_cell_angle_alpha 90.000000
_cell_angle_beta 90.000000
_cell_angle_gamma 90.000000
_cell_volume 4942.637660
_symmetry_space_group_name_H-M "I B C A "
_symmetry_group_IT_number 73
_symmetry_cell_setting 'orthorhombic'
loop_
_space_group_symop_operation_xyz
x,y,z
-x,1/2-y,z
x,-y,1/2-z
1/2-x,y,-z
-x,-y,-z
x,1/2+y,-z
-x,y,1/2+z
1/2+x,-y,z
1/2+x,1/2+y,1/2+z
1/2-x,-y,1/2+z
1/2+x,1/2-y,-z
-x,1/2+y,1/2-z
1/2-x,1/2-y,1/2-z
1/2+x,y,1/2-z
1/2-x,1/2+y,z
x,1/2-y,1/2+z
loop_
_atom_site_type_symbol
_atom_site_label
_atom_site_fract_x
_atom_site_fract_y
_atom_site_fract_z
Si Si1 0.747890 0.027172 0.892133
Si Si2 0.640284 0.500000 0.750000
Si Si3 0.916905 0.098732 0.693723
Si Si4 0.584533 0.939176 0.059440
Si Si5 0.901817 0.384663 0.452428
Si Si6 0.452191 0.801278 0.848409
Si Si7 0.678033 0.163734 0.769145
O O1 0.578464 0.040853 0.913972
O O2 0.851833 0.073049 0.903479
O O3 0.762597 0.010648 0.816255
O O4 0.811903 0.985539 0.938655
O O5 0.553328 0.451491 0.769881
O O6 0.850843 0.091424 0.620248
O O7 0.796085 0.127132 0.736917
O O8 0.065672 0.131438 0.687032
O O9 0.539849 0.907000 0.996832
O O10 0.750000 0.375973 0.500000
O O11 0.946215 0.340072 0.407212
O O12 0.500000 0.750000 0.874093
O O13 0.574439 0.814022 0.789598
O O14 0.283755 0.801802 0.813105
#
# Coordination Sequence:
#
# PCOD9530410 Si02
#       7
#    16   8  16  16  16  16  16
#     4  10  20  34  54  81 117 159 201 246 299 354
#     4  10  20  30  52  88 122 156 204 252 292 352
#     4  10  20  35  56  89 128 165 201 248 305 364
#     4  10  21  35  55  84 119 163 204 241 287 358
#     4  10  21  40  60  81 119 166 201 240 298 366
#     4  11  23  42  68  94 118 151 201 261 321 375
#     4  10  21  39  63  91 123 155 194 253 323 374
#
# _framework density 21.041398000000001
#
# number of rings (size 3 to 8) (size 9 to 14) (size 15 to 20)
#    0.000    1.846    0.000    5.538    0.000   10.462 
#    0.000    3.846    0.000    1.846    0.000    0.000 
#    0.000    0.000    0.000    0.000    0.000    0.000 
#
# Total GULP energy -290518.496086 kJ/mol
# GULP energy per Si atom -5586.894156 kJ/mol
# Density = 2.099351 g / cm^3
# Si number density = 21.041398 Si / 1000 Ang^3
#
#
#
# Elastic Constant Matrix: (Units=GPa)
#
#
# Indices 1 2 3 4 5 6 
#
# 1 28.8862 11.9293 20.3989 0.0000 0.0000 0.0000
# 2 11.9293 73.3303 60.1789 0.0000 0.0000 0.0000
# 3 20.3989 60.1789 126.6771 0.0003 0.0000 -0.0001
# 4 0.0000 0.0000 0.0003 15.9135 0.0000 -0.0001
# 5 0.0000 0.0000 0.0000 0.0000 24.5582 0.0000
# 6 0.0000 0.0000 -0.0001 -0.0001 0.0000 9.5978
#
#
#
# Elastic Compliance Matrix: (Units=1/GPa)
#
#
# Indices 1 2 3 4 5 6 
#
# 1 0.039232 -0.001963 -0.005385 0.000000 0.000000 0.000000
# 2 -0.001963 0.022449 -0.010348 0.000000 0.000000 0.000000
# 3 -0.005385 -0.010348 0.013677 0.000000 0.000000 0.000000
# 4 0.000000 0.000000 0.000000 0.062840 0.000000 0.000001
# 5 0.000000 0.000000 0.000000 0.000000 0.040720 0.000000
# 6 0.000000 0.000000 0.000000 0.000001 0.000000 0.104190
#
#
# Mechanical properties :
#
#
# Convention : Reuss Voigt Hill
#
# Bulk Modulus (GPa) = 25.02166 45.98975 35.50570
# Shear Modulus (GPa) = 15.06834 19.10636 17.08735
#
# Velocity S-wave (km/s) = 2.67896 3.01663 2.85280
# Velocity P-wave (km/s) = 4.63536 5.83418 5.26898
#
# Compressibility (1/GPa) = 0.03996538
#
# Stress axis : x y z
#
# Youngs Moduli (GPa) = 25.48939 44.54609 73.11394
#
# Poissons Ratio (x) = 0.08744 0.39372
# Poissons Ratio (y) = 0.05003 0.75661
# Poissons Ratio (z) = 0.13726 0.46098
#
# Static dielectric constant tensor:
#      x y z
#    x 1.807220 0.000000 0.000000 
#    y 0.000000 1.747110 0.000000 
#    z 0.000000 0.000000 1.802910 
# 
# From -- ./inp_files/24946.got.cif
#   From: 2010.05.17/outbox.cif.g08.bks.cpg/sg73_13_cif.got.tgz:24946.got - 2010.06.03 17:35:07.
