data_PCOD9530844
_publ_section_title
;
Structure prediction by ZEFSAII (Michael W. Deem and Ramdas Pophale) SiO2 
 PCOD9530844
Probable space group: I B C A 
;
_chemical_formula_sum "Si O2"
_cell_formula_units_Z 104
_cell_length_a 29.601625
_cell_length_b 22.396689
_cell_length_c 9.019262
_cell_angle_alpha 90.000000
_cell_angle_beta 90.000000
_cell_angle_gamma 90.000000
_cell_volume 5979.575791
_symmetry_space_group_name_H-M "I B C A "
_symmetry_group_IT_number 73
_symmetry_cell_setting 'orthorhombic'
loop_
_space_group_symop_operation_xyz
x,y,z
-x,1/2-y,z
x,-y,1/2-z
1/2-x,y,-z
-x,-y,-z
x,1/2+y,-z
-x,y,1/2+z
1/2+x,-y,z
1/2+x,1/2+y,1/2+z
1/2-x,-y,1/2+z
1/2+x,1/2-y,-z
-x,1/2+y,1/2-z
1/2-x,1/2-y,1/2-z
1/2+x,y,1/2-z
1/2-x,1/2+y,z
x,1/2-y,1/2+z
loop_
_atom_site_type_symbol
_atom_site_label
_atom_site_fract_x
_atom_site_fract_y
_atom_site_fract_z
Si Si1 0.437933 0.200881 0.953516
Si Si2 0.679682 0.000000 0.250000
Si Si3 0.289396 0.363861 0.886700
Si Si4 0.203435 0.315471 0.434097
Si Si5 0.637724 0.707554 0.944767
Si Si6 0.135912 0.876386 0.338487
Si Si7 0.000000 0.250000 0.801974
Si Si8 0.750000 0.021982 0.000000
O O1 0.408721 0.140257 0.935508
O O2 0.466117 0.214724 0.805673
O O3 0.403885 0.256914 0.982857
O O4 0.472228 0.205257 0.091518
O O5 0.648452 0.940903 0.230709
O O6 0.714696 0.006741 0.387641
O O7 0.283868 0.348589 0.716475
O O8 0.282979 0.434379 0.905730
O O9 0.250000 0.341723 0.000000
O O10 0.335929 0.335238 0.941407
O O11 0.250000 0.293161 0.500000
O O12 0.171555 0.260163 0.397434
O O13 0.177107 0.355110 0.555787
O O14 0.629442 0.668309 0.799917
#
# Coordination Sequence:
#
# PCOD9530844 Si02
#       8
#    16   8  16  16  16  16   8   8
#     4  10  21  37  63  93 120 143 185 235 312 375
#     4  12  24  40  58  76 118 170 214 260 282 334
#     4  10  21  36  49  76 112 156 204 247 286 329
#     4  11  21  31  54  78 113 152 197 244 300 347
#     4  11  20  36  53  84 119 149 188 240 299 357
#     4  11  23  38  56  86 117 159 200 247 291 352
#     4  10  20  38  64  96 116 146 170 240 314 386
#     4  10  24  38  54  72 108 166 228 250 280 328
#
# _framework density 17.392537000000001
#
# number of rings (size 3 to 8) (size 9 to 14) (size 15 to 20)
#    0.462    0.923    3.077    4.154    5.385    1.846 
#    0.000    0.000    0.000    0.923    0.000    0.000 
#    0.000    0.000    0.000    0.000    0.000    0.000 
#
# Total GULP energy -289608.946984 kJ/mol
# GULP energy per Si atom -5569.402827 kJ/mol
# Density = 1.735295 g / cm^3
# Si number density = 17.392537 Si / 1000 Ang^3
#
#
#
# Elastic Constant Matrix: (Units=GPa)
#
#
# Indices 1 2 3 4 5 6 
#
# 1 102.3153 34.3152 41.3783 0.0000 0.0000 0.0000
# 2 34.3152 75.7015 20.0265 0.0000 0.0000 0.0000
# 3 41.3783 20.0265 81.0714 0.0000 0.0000 0.0000
# 4 0.0000 0.0000 0.0000 4.5549 0.0000 0.0000
# 5 0.0000 0.0000 0.0000 0.0000 35.0419 0.0000
# 6 0.0000 0.0000 0.0000 0.0000 0.0000 52.7186
#
#
#
# Elastic Compliance Matrix: (Units=1/GPa)
#
#
# Indices 1 2 3 4 5 6 
#
# 1 0.013700 -0.004665 -0.005840 0.000000 0.000000 0.000000
# 2 -0.004665 0.015722 -0.001503 0.000000 0.000000 0.000000
# 3 -0.005840 -0.001503 0.015687 0.000000 0.000000 0.000000
# 4 0.000000 0.000000 0.000000 0.219542 0.000000 0.000000
# 5 0.000000 0.000000 0.000000 0.000000 0.028537 0.000000
# 6 0.000000 0.000000 0.000000 0.000000 0.000000 0.018969
#
#
# Mechanical properties :
#
#
# Convention : Reuss Voigt Hill
#
# Bulk Modulus (GPa) = 47.40885 50.05867 48.73376
# Shear Modulus (GPa) = 14.56862 29.35431 21.96147
#
# Velocity S-wave (km/s) = 2.89733 4.11268 3.55730
# Velocity P-wave (km/s) = 6.20565 7.16913 6.70472
#
# Compressibility (1/GPa) = 0.02109311
#
# Stress axis : x y z
#
# Youngs Moduli (GPa) = 72.99152 63.60499 63.74829
#
# Poissons Ratio (x) = 0.29674 0.37229
# Poissons Ratio (y) = 0.34053 0.09579
# Poissons Ratio (z) = 0.42627 0.09557
#
# Static dielectric constant tensor:
#      x y z
#    x 1.620610 0.000000 0.000000 
#    y 0.000000 1.595540 0.000000 
#    z 0.000000 0.000000 1.094030 
# 
# From -- ./inp_files/8514.got.cif
#   From: 2010.05.17/outbox.cif.g08.bks.cpg/sg73_5_cif.got.tgz:8514.got - 2010.06.03 17:35:07.
