data_PCOD9530633
_publ_section_title
;
Structure prediction by ZEFSAII (Michael W. Deem and Ramdas Pophale) SiO2 
 PCOD9530633
Probable space group: I B C A 
;
_chemical_formula_sum "Si O2"
_cell_formula_units_Z 112
_cell_length_a 17.774668
_cell_length_b 14.274704
_cell_length_c 19.146771
_cell_angle_alpha 90.000000
_cell_angle_beta 90.000000
_cell_angle_gamma 90.000000
_cell_volume 4858.074294
_symmetry_space_group_name_H-M "I B C A "
_symmetry_group_IT_number 73
_symmetry_cell_setting 'orthorhombic'
loop_
_space_group_symop_operation_xyz
x,y,z
-x,1/2-y,z
x,-y,1/2-z
1/2-x,y,-z
-x,-y,-z
x,1/2+y,-z
-x,y,1/2+z
1/2+x,-y,z
1/2+x,1/2+y,1/2+z
1/2-x,-y,1/2+z
1/2+x,1/2-y,-z
-x,1/2+y,1/2-z
1/2-x,1/2-y,1/2-z
1/2+x,y,1/2-z
1/2-x,1/2+y,z
x,1/2-y,1/2+z
loop_
_atom_site_type_symbol
_atom_site_label
_atom_site_fract_x
_atom_site_fract_y
_atom_site_fract_z
Si Si1 0.859866 0.596344 0.073847
Si Si2 0.037029 0.648493 0.784562
Si Si3 0.639162 0.133086 0.624542
Si Si4 0.995183 0.530388 0.646660
Si Si5 0.323173 0.707708 0.286794
Si Si6 0.203697 0.611755 0.929618
Si Si7 0.910263 0.757213 0.985194
O O1 0.947122 0.579645 0.094264
O O2 0.818707 0.647620 0.140383
O O3 0.825190 0.494078 0.064168
O O4 0.866570 0.661162 0.005473
O O5 0.007082 0.591449 0.716739
O O6 0.018236 0.576532 0.845660
O O7 0.125933 0.652957 0.768510
O O8 0.000000 0.750000 0.793483
O O9 0.592216 0.038968 0.629806
O O10 0.626340 0.204759 0.687550
O O11 0.728355 0.118836 0.624607
O O12 0.604415 0.182728 0.556113
O O13 0.250000 0.750000 0.250000
O O14 0.250000 0.635215 0.000000
O O15 0.136605 0.686805 0.926691
O O16 0.000000 0.750000 0.973204
#
# Coordination Sequence:
#
# PCOD9530633 Si02
#       7
#    16  16  16  16  16  16  16
#     4  10  22  40  68  90 127 170 215 268 332 388
#     4  10  20  36  59  92 129 167 224 263 300 386
#     4  10  20  40  66  89 131 168 220 265 333 389
#     4  10  20  37  64  91 122 177 212 264 318 387
#     4  10  22  37  63  93 130 173 213 261 328 389
#     4  10  24  41  62  98 130 162 218 281 328 397
#     4  10  20  41  71  91 118 172 222 272 330 400
#
# _framework density 23.054402
#
# number of rings (size 3 to 8) (size 9 to 14) (size 15 to 20)
#    0.000    2.000    2.857    0.000    2.000    4.571 
#    0.000    0.714    0.000    0.000    0.000    0.000 
#    0.000    0.000    0.000    0.000    0.000    0.000 
#
# Total GULP energy -312510.884825 kJ/mol
# GULP energy per Si atom -5580.551515 kJ/mol
# Density = 2.300193 g / cm^3
# Si number density = 23.054402 Si / 1000 Ang^3
#
#
#
# Elastic Constant Matrix: (Units=GPa)
#
#
# Indices 1 2 3 4 5 6 
#
# 1 157.5594 57.3975 26.4396 0.0000 0.0000 0.0000
# 2 57.3975 132.4722 15.1521 0.0000 0.0000 0.0000
# 3 26.4396 15.1521 38.3515 0.0000 0.0000 0.0000
# 4 0.0000 0.0000 0.0000 23.4724 0.0000 0.0000
# 5 0.0000 0.0000 0.0000 0.0000 9.5251 0.0000
# 6 0.0000 0.0000 0.0000 0.0000 0.0000 45.9380
#
#
#
# Elastic Compliance Matrix: (Units=1/GPa)
#
#
# Indices 1 2 3 4 5 6 
#
# 1 0.008203 -0.003045 -0.004452 0.000000 0.000000 0.000000
# 2 -0.003045 0.009036 -0.001471 0.000000 0.000000 0.000000
# 3 -0.004452 -0.001471 0.029725 0.000000 0.000000 0.000000
# 4 0.000000 0.000000 0.000000 0.042603 0.000000 0.000000
# 5 0.000000 0.000000 0.000000 0.000000 0.104986 0.000000
# 6 0.000000 0.000000 0.000000 0.000000 0.000000 0.021768
#
#
# Mechanical properties :
#
#
# Convention : Reuss Voigt Hill
#
# Bulk Modulus (GPa) = 34.44914 58.48462 46.46688
# Shear Modulus (GPa) = 20.49726 31.08002 25.78864
#
# Velocity S-wave (km/s) = 2.98498 3.67565 3.34818
# Velocity P-wave (km/s) = 5.18220 6.59068 5.92842
#
# Compressibility (1/GPa) = 0.02902830
#
# Stress axis : x y z
#
# Youngs Moduli (GPa) = 121.90342 110.66425 33.64161
#
# Poissons Ratio (x) = 0.33698 0.14978
# Poissons Ratio (y) = 0.37120 0.04948
# Poissons Ratio (z) = 0.54275 0.16277
#
# Static dielectric constant tensor:
#      x y z
#    x 1.902940 0.000000 0.000000 
#    y 0.000000 1.869270 0.000000 
#    z 0.000000 0.000000 1.960240 
# 
# From -- ./inp_files/29546.got.cif
#   From: 2010.05.17/outbox.cif.g08.bks.cpg/sg73_15_cif.got.tgz:29546.got - 2010.06.03 17:35:07.
