data_PCOD9530804
_publ_section_title
;
Structure prediction by ZEFSAII (Michael W. Deem and Ramdas Pophale) SiO2 
 PCOD9530804
Probable space group: I B C A 
;
_chemical_formula_sum "Si O2"
_cell_formula_units_Z 104
_cell_length_a 24.966911
_cell_length_b 8.996890
_cell_length_c 19.435314
_cell_angle_alpha 90.000000
_cell_angle_beta 90.000000
_cell_angle_gamma 90.000000
_cell_volume 4365.648698
_symmetry_space_group_name_H-M "I B C A "
_symmetry_group_IT_number 73
_symmetry_cell_setting 'orthorhombic'
loop_
_space_group_symop_operation_xyz
x,y,z
-x,1/2-y,z
x,-y,1/2-z
1/2-x,y,-z
-x,-y,-z
x,1/2+y,-z
-x,y,1/2+z
1/2+x,-y,z
1/2+x,1/2+y,1/2+z
1/2-x,-y,1/2+z
1/2+x,1/2-y,-z
-x,1/2+y,1/2-z
1/2-x,1/2-y,1/2-z
1/2+x,y,1/2-z
1/2-x,1/2+y,z
x,1/2-y,1/2+z
loop_
_atom_site_type_symbol
_atom_site_label
_atom_site_fract_x
_atom_site_fract_y
_atom_site_fract_z
Si Si1 0.268967 0.146186 0.124912
Si Si2 0.971340 0.033849 0.670101
Si Si3 0.589424 0.830473 0.657530
Si Si4 0.134828 0.538339 0.041639
Si Si5 0.165373 0.500000 0.250000
Si Si6 0.311039 0.448021 0.171232
Si Si7 0.905484 0.350580 0.414243
O O1 0.305167 0.099242 0.059369
O O2 0.270709 0.318334 0.145391
O O3 0.298536 0.066096 0.189444
O O4 0.208562 0.088178 0.126279
O O5 0.928036 0.160723 0.650452
O O6 0.031914 0.089865 0.664826
O O7 0.962301 0.000000 0.750000
O O8 0.961818 0.902762 0.615687
O O9 0.620034 0.907438 0.594871
O O10 0.626712 0.870078 0.722123
O O11 0.099158 0.684138 0.057880
O O12 0.119423 0.463178 0.970142
O O13 0.310087 0.500000 0.250000
O O14 0.366757 0.373250 0.151317
#
# Coordination Sequence:
#
# PCOD9530804 Si02
#       7
#    16  16  16  16   8  16  16
#     4  10  23  38  64  90 127 163 207 255 317 368
#     4  11  24  39  65 100 126 170 205 265 315 381
#     4  10  23  40  65  91 131 162 214 254 321 370
#     4  10  24  45  63  94 121 179 211 263 317 371
#     4  10  20  38  60  90 126 164 194 258 304 376
#     4  11  23  39  61  98 124 163 205 263 314 378
#     4  11  25  42  65  90 131 165 221 259 315 380
#
# _framework density 23.822348000000002
#
# number of rings (size 3 to 8) (size 9 to 14) (size 15 to 20)
#    0.000    1.538    1.538    1.846    8.615    4.308 
#    0.000    3.077    0.000    0.000    0.000    0.000 
#    0.000    0.000    0.000    0.000    0.000    0.000 
#
# Total GULP energy -290738.427836 kJ/mol
# GULP energy per Si atom -5591.123612 kJ/mol
# Density = 2.376813 g / cm^3
# Si number density = 23.822348 Si / 1000 Ang^3
#
#
#
# Elastic Constant Matrix: (Units=GPa)
#
#
# Indices 1 2 3 4 5 6 
#
# 1 41.4567 2.5274 4.1640 0.0000 0.0000 0.0000
# 2 2.5274 75.7981 6.6109 0.0000 0.0000 0.0000
# 3 4.1640 6.6109 88.2730 0.0000 0.0000 0.0000
# 4 0.0000 0.0000 0.0000 35.8588 0.0000 0.0000
# 5 0.0000 0.0000 0.0000 0.0000 25.9323 0.0000
# 6 0.0000 0.0000 0.0000 0.0000 0.0000 32.4072
#
#
#
# Elastic Compliance Matrix: (Units=1/GPa)
#
#
# Indices 1 2 3 4 5 6 
#
# 1 0.024275 -0.000714 -0.001092 0.000000 0.000000 0.000000
# 2 -0.000714 0.013301 -0.000962 0.000000 0.000000 0.000000
# 3 -0.001092 -0.000962 0.011452 0.000000 0.000000 0.000000
# 4 0.000000 0.000000 0.000000 0.027887 0.000000 0.000000
# 5 0.000000 0.000000 0.000000 0.000000 0.038562 0.000000
# 6 0.000000 0.000000 0.000000 0.000000 0.000000 0.030857
#
#
# Mechanical properties :
#
#
# Convention : Reuss Voigt Hill
#
# Bulk Modulus (GPa) = 22.99324 25.79250 24.39287
# Shear Modulus (GPa) = 30.05397 31.65470 30.85433
#
# Velocity S-wave (km/s) = 3.55574 3.64920 3.60277
# Velocity P-wave (km/s) = 5.15079 5.34846 5.25056
#
# Compressibility (1/GPa) = 0.04349105
#
# Stress axis : x y z
#
# Youngs Moduli (GPa) = 41.19505 75.18401 87.32052
#
# Poissons Ratio (x) = 0.05370 0.09532
# Poissons Ratio (y) = 0.02942 0.08404
# Poissons Ratio (z) = 0.04497 0.07236
#
# Static dielectric constant tensor:
#      x y z
#    x 1.949710 0.000000 0.000000 
#    y 0.000000 2.002590 0.000000 
#    z 0.000000 0.000000 1.917270 
# 
# From -- ./inp_files/8497.got.cif
#   From: 2010.05.17/outbox.cif.g08.bks.cpg/sg73_5_cif.got.tgz:8497.got - 2010.06.03 17:35:07.
