data_PCOD9530299
_publ_section_title
;
Structure prediction by ZEFSAII (Michael W. Deem and Ramdas Pophale) SiO2 
 PCOD9530299
Probable space group: I B C A 
;
_chemical_formula_sum "Si O2"
_cell_formula_units_Z 120
_cell_length_a 14.321434
_cell_length_b 19.796628
_cell_length_c 23.129540
_cell_angle_alpha 90.000000
_cell_angle_beta 90.000000
_cell_angle_gamma 90.000000
_cell_volume 6557.597006
_symmetry_space_group_name_H-M "I B C A "
_symmetry_group_IT_number 73
_symmetry_cell_setting 'orthorhombic'
loop_
_space_group_symop_operation_xyz
x,y,z
-x,1/2-y,z
x,-y,1/2-z
1/2-x,y,-z
-x,-y,-z
x,1/2+y,-z
-x,y,1/2+z
1/2+x,-y,z
1/2+x,1/2+y,1/2+z
1/2-x,-y,1/2+z
1/2+x,1/2-y,-z
-x,1/2+y,1/2-z
1/2-x,1/2-y,1/2-z
1/2+x,y,1/2-z
1/2-x,1/2+y,z
x,1/2-y,1/2+z
loop_
_atom_site_type_symbol
_atom_site_label
_atom_site_fract_x
_atom_site_fract_y
_atom_site_fract_z
Si Si1 0.088272 0.699237 0.777205
Si Si2 0.854058 0.543565 0.498805
Si Si3 0.398310 0.150791 0.645625
Si Si4 0.112988 0.690477 0.957812
Si Si5 0.804621 0.287724 0.638178
Si Si6 0.982547 0.123566 0.130853
Si Si7 0.000000 0.250000 0.940287
Si Si8 0.508614 0.526114 0.910375
O O1 0.094223 0.673126 0.712307
O O2 0.176066 0.738299 0.806390
O O3 0.000000 0.750000 0.780580
O O4 0.057984 0.638850 0.819560
O O5 0.750000 0.514483 0.500000
O O6 0.843061 0.617221 0.469522
O O7 0.917230 0.494123 0.460071
O O8 0.915020 0.553351 0.557411
O O9 0.292966 0.174277 0.631467
O O10 0.463157 0.192587 0.601920
O O11 0.436496 0.075509 0.633174
O O12 0.172039 0.740150 0.917076
O O13 0.019418 0.668451 0.923071
O O14 0.081843 0.724499 0.017333
O O15 0.882585 0.345604 0.644790
O O16 0.980191 0.045100 0.117445
#
# Coordination Sequence:
#
# PCOD9530299 Si02
#       8
#    16  16  16  16  16  16   8  16
#     4   9  19  41  64  86 117 158 193 253 317 357
#     4  10  22  38  58  79 125 164 198 239 299 367
#     4  12  24  36  59  92 128 150 200 261 308 358
#     4  10  19  38  57  86 116 157 197 241 303 357
#     4  10  21  36  66  91 110 158 211 250 295 375
#     4   9  19  40  65  78 115 159 205 241 296 372
#     4  12  22  36  52  88 126 154 186 254 306 352
#     4  10  23  39  56  89 118 165 200 244 305 357
#
# _framework density 18.299385999999998
#
# number of rings (size 3 to 8) (size 9 to 14) (size 15 to 20)
#    0.000    1.867    3.333    1.200    3.733    0.533 
#    0.000    0.000    0.000    3.200    0.000    0.000 
#    0.000    0.000    0.000    0.000    0.000    0.000 
#
# Total GULP energy -334273.285840 kJ/mol
# GULP energy per Si atom -5571.221431 kJ/mol
# Density = 1.825774 g / cm^3
# Si number density = 18.299386 Si / 1000 Ang^3
#
#
#
# Elastic Constant Matrix: (Units=GPa)
#
#
# Indices 1 2 3 4 5 6 
#
# 1 85.3364 32.3528 27.3418 0.0000 0.0000 0.0000
# 2 32.3528 92.0138 41.1556 0.0000 0.0000 0.0000
# 3 27.3418 41.1556 98.7118 0.0000 0.0000 0.0000
# 4 0.0000 0.0000 0.0000 33.5735 0.0000 0.0000
# 5 0.0000 0.0000 0.0000 0.0000 16.1050 0.0000
# 6 0.0000 0.0000 0.0000 0.0000 0.0000 10.3612
#
#
#
# Elastic Compliance Matrix: (Units=1/GPa)
#
#
# Indices 1 2 3 4 5 6 
#
# 1 0.013909 -0.003893 -0.002229 0.000000 0.000000 0.000000
# 2 -0.003893 0.014449 -0.004946 0.000000 0.000000 0.000000
# 3 -0.002229 -0.004946 0.012810 0.000000 0.000000 0.000000
# 4 0.000000 0.000000 0.000000 0.029785 0.000000 0.000000
# 5 0.000000 0.000000 0.000000 0.000000 0.062092 0.000000
# 6 0.000000 0.000000 0.000000 0.000000 0.000000 0.096514
#
#
# Mechanical properties :
#
#
# Convention : Reuss Voigt Hill
#
# Bulk Modulus (GPa) = 52.54607 53.08471 52.81539
# Shear Modulus (GPa) = 19.37685 23.68873 21.53279
#
# Velocity S-wave (km/s) = 3.25757 3.60183 3.43402
# Velocity P-wave (km/s) = 6.55180 6.80952 6.68190
#
# Compressibility (1/GPa) = 0.01903092
#
# Stress axis : x y z
#
# Youngs Moduli (GPa) = 71.89793 69.20906 78.06390
#
# Poissons Ratio (x) = 0.26945 0.17403
# Poissons Ratio (y) = 0.27992 0.38609
# Poissons Ratio (z) = 0.16028 0.34229
#
# Static dielectric constant tensor:
#      x y z
#    x 1.703440 0.000000 0.000000 
#    y 0.000000 1.663880 0.000000 
#    z 0.000000 0.000000 1.655230 
# 
# From -- ./inp_files/29655.got.cif
#   From: 2010.05.17/outbox.cif.g08.bks.cpg/sg73_15_cif.got.tgz:29655.got - 2010.06.03 17:35:07.
