data_PCOD9530053
_publ_section_title
;
Structure prediction by ZEFSAII (Michael W. Deem and Ramdas Pophale) SiO2 
 PCOD9530053
Probable space group: I B C A 
;
_chemical_formula_sum "Si O2"
_cell_formula_units_Z 120
_cell_length_a 16.371991
_cell_length_b 16.286026
_cell_length_c 23.047336
_cell_angle_alpha 90.000000
_cell_angle_beta 90.000000
_cell_angle_gamma 90.000000
_cell_volume 6145.218854
_symmetry_space_group_name_H-M "I B C A "
_symmetry_group_IT_number 73
_symmetry_cell_setting 'orthorhombic'
loop_
_space_group_symop_operation_xyz
x,y,z
-x,1/2-y,z
x,-y,1/2-z
1/2-x,y,-z
-x,-y,-z
x,1/2+y,-z
-x,y,1/2+z
1/2+x,-y,z
1/2+x,1/2+y,1/2+z
1/2-x,-y,1/2+z
1/2+x,1/2-y,-z
-x,1/2+y,1/2-z
1/2-x,1/2-y,1/2-z
1/2+x,y,1/2-z
1/2-x,1/2+y,z
x,1/2-y,1/2+z
loop_
_atom_site_type_symbol
_atom_site_label
_atom_site_fract_x
_atom_site_fract_y
_atom_site_fract_z
Si Si1 0.333145 0.365552 0.462297
Si Si2 0.920551 0.304395 0.930844
Si Si3 0.549307 0.500000 0.250000
Si Si4 0.055435 0.667981 0.746587
Si Si5 0.177175 0.317364 0.858364
Si Si6 0.296054 0.314606 0.335408
Si Si7 0.850324 0.439995 0.855994
Si Si8 0.268640 0.535435 0.436232
O O1 0.250000 0.355260 0.500000
O O2 0.403999 0.337556 0.504991
O O3 0.327316 0.318189 0.401895
O O4 0.333039 0.461863 0.446348
O O5 0.848016 0.245330 0.909255
O O6 0.915676 0.378761 0.885237
O O7 0.000000 0.250000 0.927902
O O8 0.495818 0.583614 0.247758
O O9 0.607045 0.491939 0.193711
O O10 0.101823 0.672048 0.684966
O O11 0.128297 0.669704 0.793631
O O12 0.000000 0.750000 0.752345
O O13 0.251805 0.272649 0.825474
O O14 0.201267 0.400595 0.889282
O O15 0.224569 0.384047 0.331245
O O16 0.810587 0.492294 0.907905
O O17 0.250000 0.571022 0.500000
#
# Coordination Sequence:
#
# PCOD9530053 Si02
#       8
#    16  16   8  16  16  16  16  16
#     4  10  18  42  62  95 132 171 210 277 325 397
#     4  11  21  41  68  95 133 181 217 271 347 409
#     4  12  28  42  70  94 146 180 222 294 358 404
#     4  12  28  47  64 101 144 178 229 293 352 406
#     4  11  23  39  72  96 128 179 236 267 338 413
#     4  10  23  41  74  94 133 177 235 279 329 403
#     4  10  22  43  67  96 132 180 228 270 340 408
#     4  10  21  38  68 101 128 161 227 278 323 397
#
# _framework density 19.527376
#
# number of rings (size 3 to 8) (size 9 to 14) (size 15 to 20)
#    0.000    1.333    5.333    3.200    9.333    0.533 
#    0.000    2.000    0.000    0.000    0.000    0.000 
#    0.000    0.000    0.000    0.000    0.000    0.000 
#
# Total GULP energy -335035.827479 kJ/mol
# GULP energy per Si atom -5583.930458 kJ/mol
# Density = 1.948293 g / cm^3
# Si number density = 19.527376 Si / 1000 Ang^3
#
#
#
# Elastic Constant Matrix: (Units=GPa)
#
#
# Indices 1 2 3 4 5 6 
#
# 1 80.9195 47.5695 60.7575 0.0000 0.0000 0.0000
# 2 47.5695 95.9824 60.7103 0.0000 0.0000 0.0000
# 3 60.7575 60.7103 111.6956 0.0000 0.0000 0.0000
# 4 0.0000 0.0000 0.0000 27.8119 0.0000 0.0000
# 5 0.0000 0.0000 0.0000 0.0000 28.5546 0.0000
# 6 0.0000 0.0000 0.0000 0.0000 0.0000 22.3311
#
#
#
# Elastic Compliance Matrix: (Units=1/GPa)
#
#
# Indices 1 2 3 4 5 6 
#
# 1 0.022466 -0.005188 -0.009401 0.000000 0.000000 0.000000
# 2 -0.005188 0.017075 -0.006459 0.000000 0.000000 0.000000
# 3 -0.009401 -0.006459 0.017577 0.000000 0.000000 0.000000
# 4 0.000000 0.000000 0.000000 0.035956 0.000000 0.000000
# 5 0.000000 0.000000 0.000000 0.000000 0.035021 0.000000
# 6 0.000000 0.000000 0.000000 0.000000 0.000000 0.044781
#
#
# Mechanical properties :
#
#
# Convention : Reuss Voigt Hill
#
# Bulk Modulus (GPa) = 66.56438 69.63025 68.09732
# Shear Modulus (GPa) = 22.72943 23.71018 23.21980
#
# Velocity S-wave (km/s) = 3.41541 3.48832 3.45206
# Velocity P-wave (km/s) = 7.05090 7.20831 7.13003
#
# Compressibility (1/GPa) = 0.01502305
#
# Stress axis : x y z
#
# Youngs Moduli (GPa) = 44.51078 58.56444 56.89264
#
# Poissons Ratio (x) = 0.30386 0.53483
# Poissons Ratio (y) = 0.23094 0.36745
# Poissons Ratio (z) = 0.41843 0.37825
#
# Static dielectric constant tensor:
#      x y z
#    x 1.705620 0.000000 0.000000 
#    y 0.000000 1.709350 0.000000 
#    z 0.000000 0.000000 1.687960 
# 
# From -- ./inp_files/29650.got.cif
#   From: 2010.05.17/outbox.cif.g08.bks.cpg/sg73_15_cif.got.tgz:29650.got - 2010.06.03 17:35:07.
