data_PCOD9530250
_publ_section_title
;
Structure prediction by ZEFSAII (Michael W. Deem and Ramdas Pophale) SiO2 
 PCOD9530250
Probable space group: I B C A 
;
_chemical_formula_sum "Si O2"
_cell_formula_units_Z 120
_cell_length_a 17.395357
_cell_length_b 10.884542
_cell_length_c 31.609802
_cell_angle_alpha 90.000000
_cell_angle_beta 90.000000
_cell_angle_gamma 90.000000
_cell_volume 5985.015522
_symmetry_space_group_name_H-M "I B C A "
_symmetry_group_IT_number 73
_symmetry_cell_setting 'orthorhombic'
loop_
_space_group_symop_operation_xyz
x,y,z
-x,1/2-y,z
x,-y,1/2-z
1/2-x,y,-z
-x,-y,-z
x,1/2+y,-z
-x,y,1/2+z
1/2+x,-y,z
1/2+x,1/2+y,1/2+z
1/2-x,-y,1/2+z
1/2+x,1/2-y,-z
-x,1/2+y,1/2-z
1/2-x,1/2-y,1/2-z
1/2+x,y,1/2-z
1/2-x,1/2+y,z
x,1/2-y,1/2+z
loop_
_atom_site_type_symbol
_atom_site_label
_atom_site_fract_x
_atom_site_fract_y
_atom_site_fract_z
Si Si1 0.067917 0.348254 0.982897
Si Si2 0.455732 0.029135 0.434259
Si Si3 0.557100 0.948878 0.294508
Si Si4 0.500000 0.250000 0.653510
Si Si5 0.946779 0.156881 0.637858
Si Si6 0.279592 0.786944 0.651572
Si Si7 0.266851 0.045970 0.703931
Si Si8 0.365338 0.289292 0.591858
O O1 0.129501 0.282504 0.952684
O O2 0.000000 0.250000 0.989727
O O3 0.026207 0.456641 0.956849
O O4 0.088965 0.398335 0.028882
O O5 0.498850 0.113993 0.400495
O O6 0.399540 0.926420 0.414671
O O7 0.493535 0.861338 0.314473
O O8 0.645268 0.903661 0.288408
O O9 0.531257 0.000000 0.250000
O O10 0.567625 0.046392 0.331127
O O11 0.428026 0.228202 0.623253
O O12 0.863047 0.210856 0.629263
O O13 0.000000 0.250000 0.663405
O O14 0.273303 0.663471 0.680969
O O15 0.214545 0.782591 0.615641
O O16 0.267698 0.918159 0.676409
O O17 0.237608 0.000000 0.750000
#
# Coordination Sequence:
#
# PCOD9530250 Si02
#       8
#    16  16  16   8  16  16  16  16
#     4   9  18  34  63  94 121 160 213 266 331 404
#     4  10  19  36  64  93 124 167 214 264 333 405
#     4  10  22  38  62  93 131 174 219 275 325 390
#     4  12  18  38  66  90 124 174 218 268 324 396
#     4  11  24  41  60  93 135 172 217 274 340 393
#     4  11  25  40  69 100 133 180 233 279 339 402
#     4  10  22  43  64  95 135 181 227 282 340 395
#     4  11  20  38  67  99 123 171 226 274 331 408
#
# _framework density 20.050073999999999
#
# number of rings (size 3 to 8) (size 9 to 14) (size 15 to 20)
#    0.000    1.600    4.667    0.800    4.667    0.000 
#    0.000    1.333    0.000   19.200    0.000    0.000 
#    0.000    0.000    0.000    0.000    0.000    0.000 
#
# Total GULP energy -334234.523203 kJ/mol
# GULP energy per Si atom -5570.575387 kJ/mol
# Density = 2.000444 g / cm^3
# Si number density = 20.050074 Si / 1000 Ang^3
#
#
#
# Elastic Constant Matrix: (Units=GPa)
#
#
# Indices 1 2 3 4 5 6 
#
# 1 81.7362 20.7028 44.1855 0.0000 0.0000 0.0000
# 2 20.7028 85.3751 46.9322 0.0000 0.0000 0.0000
# 3 44.1855 46.9322 118.5906 0.0000 0.0000 0.0000
# 4 0.0000 0.0000 0.0000 56.6493 0.0000 0.0000
# 5 0.0000 0.0000 0.0000 0.0000 9.7317 0.0000
# 6 0.0000 0.0000 0.0000 0.0000 0.0000 39.9602
#
#
#
# Elastic Compliance Matrix: (Units=1/GPa)
#
#
# Indices 1 2 3 4 5 6 
#
# 1 0.015357 -0.000739 -0.005429 0.000000 0.000000 0.000000
# 2 -0.000739 0.015005 -0.005663 0.000000 0.000000 0.000000
# 3 -0.005429 -0.005663 0.012696 0.000000 0.000000 0.000000
# 4 0.000000 0.000000 0.000000 0.017652 0.000000 0.000000
# 5 0.000000 0.000000 0.000000 0.000000 0.102757 0.000000
# 6 0.000000 0.000000 0.000000 0.000000 0.000000 0.025025
#
#
# Mechanical properties :
#
#
# Convention : Reuss Voigt Hill
#
# Bulk Modulus (GPa) = 51.55830 56.59365 54.07598
# Shear Modulus (GPa) = 22.87064 32.86032 27.86548
#
# Velocity S-wave (km/s) = 3.38105 4.05274 3.73204
# Velocity P-wave (km/s) = 6.40411 7.08428 6.75276
#
# Compressibility (1/GPa) = 0.01939552
#
# Stress axis : x y z
#
# Youngs Moduli (GPa) = 65.11826 66.64322 78.76328
#
# Poissons Ratio (x) = 0.04928 0.42761
# Poissons Ratio (y) = 0.04815 0.44602
# Poissons Ratio (z) = 0.35353 0.37739
#
# Static dielectric constant tensor:
#      x y z
#    x 1.661280 0.000000 0.000000 
#    y 0.000000 1.797070 0.000000 
#    z 0.000000 0.000000 1.701780 
# 
# From -- ./inp_files/34587.got.cif
#   From: 2010.05.17/outbox.cif.g08.bks.cpg/sg73_18_cif.got.tgz:34587.got - 2010.06.03 17:35:07.
