data_PCOD9530054
_publ_section_title
;
Structure prediction by ZEFSAII (Michael W. Deem and Ramdas Pophale) SiO2 
 PCOD9530054
Probable space group: I B C A 
;
_chemical_formula_sum "Si O2"
_cell_formula_units_Z 120
_cell_length_a 15.888315
_cell_length_b 26.278731
_cell_length_c 11.807485
_cell_angle_alpha 90.000000
_cell_angle_beta 90.000000
_cell_angle_gamma 90.000000
_cell_volume 4929.917293
_symmetry_space_group_name_H-M "I B C A "
_symmetry_group_IT_number 73
_symmetry_cell_setting 'orthorhombic'
loop_
_space_group_symop_operation_xyz
x,y,z
-x,1/2-y,z
x,-y,1/2-z
1/2-x,y,-z
-x,-y,-z
x,1/2+y,-z
-x,y,1/2+z
1/2+x,-y,z
1/2+x,1/2+y,1/2+z
1/2-x,-y,1/2+z
1/2+x,1/2-y,-z
-x,1/2+y,1/2-z
1/2-x,1/2-y,1/2-z
1/2+x,y,1/2-z
1/2-x,1/2+y,z
x,1/2-y,1/2+z
loop_
_atom_site_type_symbol
_atom_site_label
_atom_site_fract_x
_atom_site_fract_y
_atom_site_fract_z
Si Si1 0.689309 0.659970 0.244693
Si Si2 0.242312 0.922807 0.378404
Si Si3 0.633060 0.000000 0.250000
Si Si4 0.653983 0.599573 0.034881
Si Si5 0.505746 0.953640 0.584469
Si Si6 0.583759 0.851717 0.091844
Si Si7 0.617377 0.163362 0.164617
Si Si8 0.155169 0.764824 0.556564
O O1 0.682023 0.609781 0.324853
O O2 0.649541 0.646332 0.123790
O O3 0.786800 0.667745 0.210381
O O4 0.663267 0.706901 0.321843
O O5 0.250000 0.951008 0.500000
O O6 0.203451 0.956454 0.278940
O O7 0.174957 0.879057 0.410688
O O8 0.561143 0.029708 0.323100
O O9 0.605466 0.554434 0.097673
O O10 0.750000 0.588895 0.000000
O O11 0.614098 0.613490 0.913108
O O12 0.476084 0.896795 0.549440
O O13 0.500000 0.000000 0.500000
O O14 0.561770 0.839787 0.223097
O O15 0.598037 0.800719 0.022063
O O16 0.610110 0.211846 0.084036
O O17 0.250000 0.759253 0.500000
#
# Coordination Sequence:
#
# PCOD9530054 Si02
#       8
#    16  16   8  16  16  16  16  16
#     4  10  19  36  64 103 139 186 245 310 361 432
#     4  10  18  42  64 102 144 191 246 310 371 433
#     4  10  26  44  70 102 148 202 248 320 396 470
#     4  10  24  45  72 104 141 184 248 321 372 452
#     4  11  27  49  75  98 140 199 251 308 407 457
#     4  10  22  42  66  98 146 189 242 307 374 451
#     4  10  22  37  68 102 149 190 242 307 370 444
#     4  12  19  35  69 108 147 199 249 299 374 457
#
# _framework density 24.341179
#
# number of rings (size 3 to 8) (size 9 to 14) (size 15 to 20)
#    0.000    1.600    4.000    1.600    9.333    1.067 
#    4.800    1.333    5.867    0.000    0.000    0.000 
#    0.000    0.000    0.000    0.000    0.000    0.000 
#
# Total GULP energy -334078.334921 kJ/mol
# GULP energy per Si atom -5567.972249 kJ/mol
# Density = 2.428578 g / cm^3
# Si number density = 24.341179 Si / 1000 Ang^3
#
#
#
# Elastic Constant Matrix: (Units=GPa)
#
#
# Indices 1 2 3 4 5 6 
#
# 1 38.0592 22.0073 17.8121 0.0001 0.0000 0.0000
# 2 22.0073 86.3310 31.3806 0.0000 0.0000 0.0000
# 3 17.8121 31.3806 80.3804 0.0000 -0.0001 0.0000
# 4 0.0001 0.0000 0.0000 189.9449 -0.0002 -0.0001
# 5 0.0000 0.0000 -0.0001 -0.0002 28.8449 0.0000
# 6 0.0000 0.0000 0.0000 -0.0001 0.0000 23.2863
#
#
#
# Elastic Compliance Matrix: (Units=1/GPa)
#
#
# Indices 1 2 3 4 5 6 
#
# 1 0.032203 -0.006544 -0.004581 0.000000 0.000000 0.000000
# 2 -0.006544 0.014829 -0.004339 0.000000 0.000000 0.000000
# 3 -0.004581 -0.004339 0.015150 0.000000 0.000000 0.000000
# 4 0.000000 0.000000 0.000000 0.005265 0.000000 0.000000
# 5 0.000000 0.000000 0.000000 0.000000 0.034668 0.000000
# 6 0.000000 0.000000 0.000000 0.000000 0.000000 0.042944
#
#
# Mechanical properties :
#
#
# Convention : Reuss Voigt Hill
#
# Bulk Modulus (GPa) = 31.99676 38.57451 35.28563
# Shear Modulus (GPa) = 26.82341 57.31992 42.07167
#
# Velocity S-wave (km/s) = 3.32320 4.85795 4.16193
# Velocity P-wave (km/s) = 5.28191 6.88099 6.13378
#
# Compressibility (1/GPa) = 0.03125317
#
# Stress axis : x y z
#
# Youngs Moduli (GPa) = 31.05308 67.43700 66.00651
#
# Poissons Ratio (x) = 0.44130 0.30240
# Poissons Ratio (y) = 0.20321 0.28640
# Poissons Ratio (z) = 0.14227 0.29261
#
# Static dielectric constant tensor:
#      x y z
#    x 2.042970 0.000000 0.000000 
#    y 0.000000 2.040940 0.000000 
#    z 0.000000 0.000000 2.094150 
# 
# From -- ./inp_files/12227.got.cif
#   From: 2010.05.17/outbox.cif.g08.bks.cpg/sg73_7_cif.got.tgz:12227.got - 2010.06.03 17:35:07.
