data_PCOD9530945
_publ_section_title
;
Structure prediction by ZEFSAII (Michael W. Deem and Ramdas Pophale) SiO2 
 PCOD9530945
Probable space group: I B C A 
;
_chemical_formula_sum "Si O2"
_cell_formula_units_Z 104
_cell_length_a 17.901590
_cell_length_b 14.550102
_cell_length_c 23.172254
_cell_angle_alpha 90.000000
_cell_angle_beta 90.000000
_cell_angle_gamma 90.000000
_cell_volume 6035.676083
_symmetry_space_group_name_H-M "I B C A "
_symmetry_group_IT_number 73
_symmetry_cell_setting 'orthorhombic'
loop_
_space_group_symop_operation_xyz
x,y,z
-x,1/2-y,z
x,-y,1/2-z
1/2-x,y,-z
-x,-y,-z
x,1/2+y,-z
-x,y,1/2+z
1/2+x,-y,z
1/2+x,1/2+y,1/2+z
1/2-x,-y,1/2+z
1/2+x,1/2-y,-z
-x,1/2+y,1/2-z
1/2-x,1/2-y,1/2-z
1/2+x,y,1/2-z
1/2-x,1/2+y,z
x,1/2-y,1/2+z
loop_
_atom_site_type_symbol
_atom_site_label
_atom_site_fract_x
_atom_site_fract_y
_atom_site_fract_z
Si Si1 0.274334 0.100681 0.724387
Si Si2 0.000000 0.750000 0.715448
Si Si3 0.914536 0.275906 0.077873
Si Si4 0.597340 0.121453 0.133245
Si Si5 0.856992 0.760340 0.295307
Si Si6 0.163688 0.851349 0.014868
Si Si7 0.928652 0.483253 0.040354
O O1 0.332481 0.091459 0.671740
O O2 0.198492 0.152819 0.707142
O O3 0.315376 0.171952 0.767703
O O4 0.260904 0.000000 0.750000
O O5 0.038613 0.675623 0.672833
O O6 0.068357 0.779701 0.757412
O O7 0.875087 0.264922 0.139190
O O8 0.881480 0.205479 0.031895
O O9 0.910902 0.378113 0.052002
O O10 0.000000 0.250000 0.087349
O O11 0.559299 0.034920 0.101601
O O12 0.633956 0.177087 0.078968
O O13 0.250000 0.839549 0.000000
O O14 0.139662 0.958539 0.013300
O O15 0.000000 0.500000 0.000000
#
# Coordination Sequence:
#
# PCOD9530945 Si02
#       7
#    16   8  16  16  16  16  16
#     4  10  20  41  62  87 124 164 201 258 305 368
#     4  10  20  40  60  94 124 164 202 254 302 374
#     4  12  21  39  65  88 127 160 201 267 305 374
#     4   9  21  38  63  85 128 159 206 250 309 364
#     4  10  22  38  62  92 120 159 212 245 315 362
#     4  10  23  40  62  93 123 164 211 251 315 371
#     4  10  22  38  60  92 119 167 205 252 314 371
#
# _framework density 17.230879000000002
#
# number of rings (size 3 to 8) (size 9 to 14) (size 15 to 20)
#    0.923    0.923    2.308    1.846    3.231    0.615 
#    2.769    0.769    0.000    0.000    0.000    0.000 
#    0.000    0.000    0.000    0.000    0.000    0.000 
#
# Total GULP energy -289587.405184 kJ/mol
# GULP energy per Si atom -5568.988561 kJ/mol
# Density = 1.719166 g / cm^3
# Si number density = 17.230879 Si / 1000 Ang^3
#
#
#
# Elastic Constant Matrix: (Units=GPa)
#
#
# Indices 1 2 3 4 5 6 
#
# 1 95.8538 50.8385 42.1425 0.0000 0.0000 0.0000
# 2 50.8385 100.3723 56.6936 0.0000 0.0000 0.0000
# 3 42.1425 56.6936 116.7001 0.0000 0.0000 0.0000
# 4 0.0000 0.0000 0.0000 30.4475 0.0000 0.0000
# 5 0.0000 0.0000 0.0000 0.0000 27.8893 0.0000
# 6 0.0000 0.0000 0.0000 0.0000 0.0000 23.8802
#
#
#
# Elastic Compliance Matrix: (Units=1/GPa)
#
#
# Indices 1 2 3 4 5 6 
#
# 1 0.014711 -0.006134 -0.002333 0.000000 0.000000 0.000000
# 2 -0.006134 0.016288 -0.005698 0.000000 0.000000 0.000000
# 3 -0.002333 -0.005698 0.012179 0.000000 0.000000 0.000000
# 4 0.000000 0.000000 0.000000 0.032843 0.000000 0.000000
# 5 0.000000 0.000000 0.000000 0.000000 0.035856 0.000000
# 6 0.000000 0.000000 0.000000 0.000000 0.000000 0.041876
#
#
# Mechanical properties :
#
#
# Convention : Reuss Voigt Hill
#
# Bulk Modulus (GPa) = 67.33909 68.03059 67.68484
# Shear Modulus (GPa) = 26.73338 27.32685 27.03011
#
# Velocity S-wave (km/s) = 3.94316 3.98669 3.96498
# Velocity P-wave (km/s) = 7.73929 7.79481 7.76710
#
# Compressibility (1/GPa) = 0.01485022
#
# Stress axis : x y z
#
# Youngs Moduli (GPa) = 67.97499 61.39530 82.10587
#
# Poissons Ratio (x) = 0.37658 0.19153
# Poissons Ratio (y) = 0.41693 0.46782
# Poissons Ratio (z) = 0.15857 0.34982
#
# Static dielectric constant tensor:
#      x y z
#    x 1.591370 0.000000 0.000000 
#    y 0.000000 1.564180 0.000000 
#    z 0.000000 0.000000 1.620610 
# 
# From -- ./inp_files/32398.got.cif
#   From: 2010.05.17/outbox.cif.g08.bks.cpg/sg73_17_cif.got.tgz:32398.got - 2010.06.03 17:35:07.
