data_PCOD9530883
_publ_section_title
;
Structure prediction by ZEFSAII (Michael W. Deem and Ramdas Pophale) SiO2 
 PCOD9530883
Probable space group: I B C A 
;
_chemical_formula_sum "Si O2"
_cell_formula_units_Z 120
_cell_length_a 21.505829
_cell_length_b 25.030665
_cell_length_c 9.049263
_cell_angle_alpha 90.000000
_cell_angle_beta 90.000000
_cell_angle_gamma 90.000000
_cell_volume 4871.265340
_symmetry_space_group_name_H-M "I B C A "
_symmetry_group_IT_number 73
_symmetry_cell_setting 'orthorhombic'
loop_
_space_group_symop_operation_xyz
x,y,z
-x,1/2-y,z
x,-y,1/2-z
1/2-x,y,-z
-x,-y,-z
x,1/2+y,-z
-x,y,1/2+z
1/2+x,-y,z
1/2+x,1/2+y,1/2+z
1/2-x,-y,1/2+z
1/2+x,1/2-y,-z
-x,1/2+y,1/2-z
1/2-x,1/2-y,1/2-z
1/2+x,y,1/2-z
1/2-x,1/2+y,z
x,1/2-y,1/2+z
loop_
_atom_site_type_symbol
_atom_site_label
_atom_site_fract_x
_atom_site_fract_y
_atom_site_fract_z
Si Si1 0.415618 0.960221 0.371974
Si Si2 0.849118 0.638412 0.782568
Si Si3 0.250000 0.888700 0.000000
Si Si4 0.881364 0.226706 0.014474
Si Si5 0.548722 0.291555 0.763232
Si Si6 0.927836 0.600963 0.345612
Si Si7 0.180491 0.325508 0.525194
Si Si8 0.645874 0.966212 0.379318
O O1 0.374766 0.918588 0.274161
O O2 0.450458 0.925900 0.500795
O O3 0.446132 0.000000 0.250000
O O4 0.375090 0.996929 0.484339
O O5 0.780742 0.638952 0.857720
O O6 0.888386 0.670822 0.901663
O O7 0.849789 0.673587 0.636682
O O8 0.307535 0.922988 0.941826
O O9 0.931933 0.267459 0.079883
O O10 0.892773 0.212016 0.846335
O O11 0.821170 0.262045 0.059346
O O12 0.500000 0.250000 0.701836
O O13 0.528362 0.352321 0.784687
O O14 0.862962 0.633201 0.383912
O O15 0.910439 0.560558 0.214022
O O16 0.250000 0.345931 0.500000
O O17 0.679292 0.000000 0.250000
#
# Coordination Sequence:
#
# PCOD9530883 Si02
#       8
#    16  16   8  16  16  16  16  16
#     4  10  20  39  59  87 126 180 209 265 321 371
#     4  11  23  37  55  88 128 173 220 271 315 373
#     4  12  22  30  52  82 124 172 230 266 310 368
#     4  11  23  42  63  92 133 164 217 266 326 408
#     4  11  23  43  70  98 127 162 209 276 345 396
#     4   9  21  40  60  93 132 167 217 272 319 392
#     4  10  21  38  59  85 133 181 216 259 320 390
#     4  10  21  35  55  84 127 176 225 269 315 365
#
# _framework density 24.634256000000001
#
# number of rings (size 3 to 8) (size 9 to 14) (size 15 to 20)
#    0.000    1.600    2.667    2.000    2.800    1.600 
#    2.400    0.000    0.000    0.000    0.000    4.667 
#    0.000    0.000    0.000    0.000    0.000    0.000 
#
# Total GULP energy -334547.932736 kJ/mol
# GULP energy per Si atom -5575.798879 kJ/mol
# Density = 2.457819 g / cm^3
# Si number density = 24.634256 Si / 1000 Ang^3
#
#
#
# Elastic Constant Matrix: (Units=GPa)
#
#
# Indices 1 2 3 4 5 6 
#
# 1 26.3608 10.7320 -4.7881 0.0000 0.0000 0.0000
# 2 10.7320 127.8481 53.0861 0.0000 0.0000 0.0000
# 3 -4.7881 53.0861 117.5672 0.0000 0.0000 0.0000
# 4 0.0000 0.0000 0.0000 44.4057 0.0000 0.0000
# 5 0.0000 0.0000 0.0000 0.0000 22.7722 0.0000
# 6 0.0000 0.0000 0.0000 0.0000 0.0000 0.8750
#
#
#
# Elastic Compliance Matrix: (Units=1/GPa)
#
#
# Indices 1 2 3 4 5 6 
#
# 1 0.040708 -0.005053 0.003939 0.000000 0.000000 0.000000
# 2 -0.005053 0.010254 -0.004836 0.000000 0.000000 0.000000
# 3 0.003939 -0.004836 0.010850 0.000000 0.000000 0.000000
# 4 0.000000 0.000000 0.000000 0.022520 0.000000 0.000000
# 5 0.000000 0.000000 0.000000 0.000000 0.043913 0.000000
# 6 0.000000 0.000000 0.000000 0.000000 0.000000 1.142811
#
#
# Mechanical properties :
#
#
# Convention : Reuss Voigt Hill
#
# Bulk Modulus (GPa) = 20.03489 43.31510 31.67500
# Shear Modulus (GPa) = 3.84736 27.79368 15.82052
#
# Velocity S-wave (km/s) = 1.25107 3.36259 2.53695
# Velocity P-wave (km/s) = 3.19961 5.71817 4.63330
#
# Compressibility (1/GPa) = 0.04991293
#
# Stress axis : x y z
#
# Youngs Moduli (GPa) = 24.56534 97.52384 92.16787
#
# Poissons Ratio (x) = 0.49278 -0.36309
# Poissons Ratio (y) = 0.12413 0.44571
# Poissons Ratio (z) = -0.09677 0.47161
#
# Static dielectric constant tensor:
#      x y z
#    x 2.084360 0.000000 0.000000 
#    y 0.000000 2.022720 0.000000 
#    z 0.000000 0.000000 1.971780 
# 
# From -- ./inp_files/7362.got.cif
#   From: 2010.05.17/outbox.cif.g08.bks.cpg/sg73_4_cif.got.tgz:7362.got - 2010.06.03 17:35:07.
