data_PCOD9530581
_publ_section_title
;
Structure prediction by ZEFSAII (Michael W. Deem and Ramdas Pophale) SiO2 
 PCOD9530581
Probable space group: I B C A 
;
_chemical_formula_sum "Si O2"
_cell_formula_units_Z 104
_cell_length_a 22.728646
_cell_length_b 26.008098
_cell_length_c 8.883539
_cell_angle_alpha 90.000000
_cell_angle_beta 90.000000
_cell_angle_gamma 90.000000
_cell_volume 5251.316216
_symmetry_space_group_name_H-M "I B C A "
_symmetry_group_IT_number 73
_symmetry_cell_setting 'orthorhombic'
loop_
_space_group_symop_operation_xyz
x,y,z
-x,1/2-y,z
x,-y,1/2-z
1/2-x,y,-z
-x,-y,-z
x,1/2+y,-z
-x,y,1/2+z
1/2+x,-y,z
1/2+x,1/2+y,1/2+z
1/2-x,-y,1/2+z
1/2+x,1/2-y,-z
-x,1/2+y,1/2-z
1/2-x,1/2-y,1/2-z
1/2+x,y,1/2-z
1/2-x,1/2+y,z
x,1/2-y,1/2+z
loop_
_atom_site_type_symbol
_atom_site_label
_atom_site_fract_x
_atom_site_fract_y
_atom_site_fract_z
Si Si1 0.250000 0.924368 0.500000
Si Si2 0.770081 0.500000 0.250000
Si Si3 0.465344 0.096769 0.722239
Si Si4 0.376834 0.975998 0.953659
Si Si5 0.448748 0.816100 0.002049
Si Si6 0.095756 0.101559 0.686936
Si Si7 0.876854 0.098415 0.524212
Si Si8 0.500000 0.750000 0.766012
O O1 0.235423 0.961719 0.641212
O O2 0.192441 0.894245 0.449089
O O3 0.816617 0.470497 0.358881
O O4 0.430220 0.050900 0.638541
O O5 0.479607 0.139392 0.596095
O O6 0.526949 0.084216 0.800309
O O7 0.419287 0.118727 0.845399
O O8 0.371897 0.946019 0.109898
O O9 0.387810 0.036469 0.973125
O O10 0.449010 0.769921 0.880319
O O11 0.396545 0.849810 0.074417
O O12 0.479790 0.794088 0.150805
O O13 0.112527 0.116089 0.855009
#
# Coordination Sequence:
#
# PCOD9530581 Si02
#       8
#     8   8  16  16  16  16  16   8
#     4  10  22  36  56  74 102 156 206 258 270 298
#     4  10  20  38  52  68 102 148 212 260 268 296
#     4  11  20  36  52  80 119 150 183 233 278 328
#     4  10  20  36  46  76 106 157 201 228 269 315
#     4  10  21  34  56  80 110 150 168 233 270 346
#     4  11  23  32  54  80 117 155 182 231 281 336
#     4  11  22  36  54  79 114 158 203 233 272 318
#     4  10  20  38  58  80 110 144 192 196 294 362
#
# _framework density 19.804559000000001
#
# number of rings (size 3 to 8) (size 9 to 14) (size 15 to 20)
#    0.000    1.538    4.615    2.308    4.308    3.692 
#    0.000    0.000    0.000    0.000    0.000    0.000 
#    0.000   12.308    0.000    0.000    0.000    0.000 
#
# Total GULP energy -289665.891079 kJ/mol
# GULP energy per Si atom -5570.497905 kJ/mol
# Density = 1.975948 g / cm^3
# Si number density = 19.804559 Si / 1000 Ang^3
#
#
#
# Elastic Constant Matrix: (Units=GPa)
#
#
# Indices 1 2 3 4 5 6 
#
# 1 60.3622 -0.7559 12.9953 0.0000 0.0000 0.0000
# 2 -0.7559 52.5584 20.2081 0.0000 0.0000 0.0000
# 3 12.9953 20.2081 124.9335 0.0000 0.0000 0.0000
# 4 0.0000 0.0000 0.0000 40.2868 0.0000 0.0000
# 5 0.0000 0.0000 0.0000 0.0000 21.0507 0.0000
# 6 0.0000 0.0000 0.0000 0.0000 0.0000 5.5175
#
#
#
# Elastic Compliance Matrix: (Units=1/GPa)
#
#
# Indices 1 2 3 4 5 6 
#
# 1 0.016994 0.000985 -0.001927 0.000000 0.000000 0.000000
# 2 0.000985 0.020345 -0.003393 0.000000 0.000000 0.000000
# 3 -0.001927 -0.003393 0.008754 0.000000 0.000000 0.000000
# 4 0.000000 0.000000 0.000000 0.024822 0.000000 0.000000
# 5 0.000000 0.000000 0.000000 0.000000 0.047504 0.000000
# 6 0.000000 0.000000 0.000000 0.000000 0.000000 0.181242
#
#
# Mechanical properties :
#
#
# Convention : Reuss Voigt Hill
#
# Bulk Modulus (GPa) = 26.72180 33.63878 30.18029
# Shear Modulus (GPa) = 15.58575 27.06476 21.32526
#
# Velocity S-wave (km/s) = 2.80836 3.70076 3.28500
# Velocity P-wave (km/s) = 4.90284 5.93995 5.44614
#
# Compressibility (1/GPa) = 0.03742263
#
# Stress axis : x y z
#
# Youngs Moduli (GPa) = 58.84475 49.15129 114.23898
#
# Poissons Ratio (x) = -0.04843 0.22014
# Poissons Ratio (y) = -0.05798 0.38765
# Poissons Ratio (z) = 0.11340 0.16679
#
# Static dielectric constant tensor:
#      x y z
#    x 1.716610 0.000000 0.000000 
#    y 0.000000 1.766770 0.000000 
#    z 0.000000 0.000000 1.768290 
# 
# From -- ./inp_files/7356.got.cif
#   From: 2010.05.17/outbox.cif.g08.bks.cpg/sg73_4_cif.got.tgz:7356.got - 2010.06.03 17:35:07.
