data_PCOD9530356
_publ_section_title
;
Structure prediction by ZEFSAII (Michael W. Deem and Ramdas Pophale) SiO2 
 PCOD9530356
Probable space group: I B C A 
;
_chemical_formula_sum "Si O2"
_cell_formula_units_Z 112
_cell_length_a 23.979632
_cell_length_b 16.849201
_cell_length_c 14.218221
_cell_angle_alpha 90.000000
_cell_angle_beta 90.000000
_cell_angle_gamma 90.000000
_cell_volume 5744.696450
_symmetry_space_group_name_H-M "I B C A "
_symmetry_group_IT_number 73
_symmetry_cell_setting 'orthorhombic'
loop_
_space_group_symop_operation_xyz
x,y,z
-x,1/2-y,z
x,-y,1/2-z
1/2-x,y,-z
-x,-y,-z
x,1/2+y,-z
-x,y,1/2+z
1/2+x,-y,z
1/2+x,1/2+y,1/2+z
1/2-x,-y,1/2+z
1/2+x,1/2-y,-z
-x,1/2+y,1/2-z
1/2-x,1/2-y,1/2-z
1/2+x,y,1/2-z
1/2-x,1/2+y,z
x,1/2-y,1/2+z
loop_
_atom_site_type_symbol
_atom_site_label
_atom_site_fract_x
_atom_site_fract_y
_atom_site_fract_z
Si Si1 0.293406 0.175622 0.915652
Si Si2 0.440230 0.069216 0.464227
Si Si3 0.368843 0.815420 0.159306
Si Si4 0.980921 0.466149 0.343212
Si Si5 0.449873 0.313912 0.668738
Si Si6 0.128852 0.409245 0.450764
Si Si7 0.785575 0.914161 0.220176
O O1 0.334649 0.245100 0.887106
O O2 0.260262 0.143479 0.825268
O O3 0.250000 0.197551 0.000000
O O4 0.332575 0.108803 0.960936
O O5 0.408689 0.139883 0.413680
O O6 0.452146 0.084060 0.573845
O O7 0.493145 0.040356 0.401783
O O8 0.404308 0.989317 0.464587
O O9 0.407369 0.789713 0.247985
O O10 0.321249 0.875295 0.196781
O O11 0.951537 0.500000 0.250000
O O12 0.026383 0.402338 0.305758
O O13 0.500000 0.250000 0.658567
O O14 0.412592 0.336286 0.576827
O O15 0.169082 0.423312 0.362457
O O16 0.763338 0.000000 0.250000
#
# Coordination Sequence:
#
# PCOD9530356 Si02
#       7
#    16  16  16  16  16  16  16
#     4  10  23  41  58  92 127 156 202 273 317 368
#     4  10  20  36  62  89 114 171 206 252 305 376
#     4  11  21  39  66  90 121 165 211 251 322 380
#     4  10  20  37  59  85 126 157 211 256 294 359
#     4  10  22  37  59  89 121 167 205 244 305 380
#     4   9  20  39  62  84 127 158 205 251 314 371
#     4  10  19  39  68  88 117 163 209 260 315 376
#
# _framework density 19.496244000000001
#
# number of rings (size 3 to 8) (size 9 to 14) (size 15 to 20)
#    0.000    2.000    2.857    0.429    2.000    1.143 
#    5.143    2.143    0.000    0.000    0.000    0.000 
#    0.000    0.000    0.000    0.000    0.000    0.000 
#
# Total GULP energy -312109.849648 kJ/mol
# GULP energy per Si atom -5573.390172 kJ/mol
# Density = 1.945187 g / cm^3
# Si number density = 19.496244 Si / 1000 Ang^3
#
#
#
# Elastic Constant Matrix: (Units=GPa)
#
#
# Indices 1 2 3 4 5 6 
#
# 1 58.2699 17.9737 9.6493 0.0000 0.0000 0.0000
# 2 17.9737 51.0320 6.9824 0.0000 0.0000 0.0000
# 3 9.6493 6.9824 62.0724 0.0000 0.0000 0.0000
# 4 0.0000 0.0000 0.0000 8.7159 0.0000 0.0000
# 5 0.0000 0.0000 0.0000 0.0000 -39.8521 0.0000
# 6 0.0000 0.0000 0.0000 0.0000 0.0000 36.0201
#
#
#
# Elastic Compliance Matrix: (Units=1/GPa)
#
#
# Indices 1 2 3 4 5 6 
#
# 1 0.019572 -0.006578 -0.002303 0.000000 0.000000 0.000000
# 2 -0.006578 0.022113 -0.001465 0.000000 0.000000 0.000000
# 3 -0.002303 -0.001465 0.016633 0.000000 0.000000 0.000000
# 4 0.000000 0.000000 0.000000 0.114733 0.000000 0.000000
# 5 0.000000 0.000000 0.000000 0.000000 -0.025093 0.000000
# 6 0.000000 0.000000 0.000000 0.000000 0.000000 0.027762
#
#
# Mechanical properties :
#
#
# Convention : Reuss Voigt Hill
#
# Bulk Modulus (GPa) = 26.57704 26.73168 26.65436
# Shear Modulus (GPa) = 23.92870 10.09470 17.01170
#
# Velocity S-wave (km/s) = 3.50716 2.27794 2.95712
# Velocity P-wave (km/s) = 5.48285 4.54529 5.03594
#
# Compressibility (1/GPa) = 0.03762646
#
# Stress axis : x y z
#
# Youngs Moduli (GPa) = 51.09360 45.22251 60.12170
#
# Poissons Ratio (x) = 0.29749 0.13843
# Poissons Ratio (y) = 0.33611 0.08807
# Poissons Ratio (z) = 0.11764 0.06624
#
# Static dielectric constant tensor:
#      x y z
#    x 1.719910 0.000000 0.000000 
#    y 0.000000 1.675650 0.000000 
#    z 0.000000 0.000000 1.727480 
# 
# From -- ./inp_files/19842.got.cif
#   From: 2010.05.17/outbox.cif.g08.bks.cpg/sg73_10_cif.got.tgz:19842.got - 2010.06.03 17:35:07.
