data_PCOD9530551
_publ_section_title
;
Structure prediction by ZEFSAII (Michael W. Deem and Ramdas Pophale) SiO2 
 PCOD9530551
Probable space group: I B C A 
;
_chemical_formula_sum "Si O2"
_cell_formula_units_Z 96
_cell_length_a 27.473985
_cell_length_b 10.380336
_cell_length_c 14.238123
_cell_angle_alpha 90.000000
_cell_angle_beta 90.000000
_cell_angle_gamma 90.000000
_cell_volume 4060.558845
_symmetry_space_group_name_H-M "I B C A "
_symmetry_group_IT_number 73
_symmetry_cell_setting 'orthorhombic'
loop_
_space_group_symop_operation_xyz
x,y,z
-x,1/2-y,z
x,-y,1/2-z
1/2-x,y,-z
-x,-y,-z
x,1/2+y,-z
-x,y,1/2+z
1/2+x,-y,z
1/2+x,1/2+y,1/2+z
1/2-x,-y,1/2+z
1/2+x,1/2-y,-z
-x,1/2+y,1/2-z
1/2-x,1/2-y,1/2-z
1/2+x,y,1/2-z
1/2-x,1/2+y,z
x,1/2-y,1/2+z
loop_
_atom_site_type_symbol
_atom_site_label
_atom_site_fract_x
_atom_site_fract_y
_atom_site_fract_z
Si Si1 0.529106 0.378361 0.611014
Si Si2 0.134486 0.881954 0.179775
Si Si3 0.821592 0.415410 0.075628
Si Si4 0.857604 0.323134 0.679616
Si Si5 0.722917 0.501928 0.408762
Si Si6 0.535285 0.872321 0.613157
O O1 0.500000 0.250000 0.630434
O O2 0.577054 0.378362 0.672295
O O3 0.495863 0.500505 0.632122
O O4 0.543355 0.374999 0.500194
O O5 0.154169 0.943717 0.084310
O O6 0.150990 0.745445 0.219918
O O7 0.147659 0.000000 0.250000
O O8 0.854378 0.300478 0.110776
O O9 0.770096 0.426299 0.132092
O O10 0.808617 0.396157 0.967316
O O11 0.813161 0.417083 0.652509
O O12 0.912409 0.374200 0.665109
O O13 0.750000 0.431149 0.500000
O O14 0.500000 0.750000 0.633607
#
# Coordination Sequence:
#
# PCOD9530551 Si02
#       6
#    16  16  16  16  16  16
#     4  10  22  39  58  85 121 155 193 250 310 352
#     4  10  20  35  57  83 115 156 190 246 312 373
#     4   8  19  35  54  80 115 154 195 252 309 356
#     4  11  20  35  61  87 117 156 208 248 312 380
#     4   8  20  33  56  84 110 156 200 248 301 362
#     4  10  21  38  63  89 115 158 209 253 297 374
#
# _framework density 23.642066
#
# number of rings (size 3 to 8) (size 9 to 14) (size 15 to 20)
#    1.000    1.333    0.000    3.000    2.333    5.333 
#    0.000    1.667    0.000    0.000    0.000    0.000 
#    0.000    0.000    0.000    0.000    0.000    0.000 
#
# Total GULP energy -267662.435341 kJ/mol
# GULP energy per Si atom -5576.300736 kJ/mol
# Density = 2.358826 g / cm^3
# Si number density = 23.642066 Si / 1000 Ang^3
#
#
#
# Elastic Constant Matrix: (Units=GPa)
#
#
# Indices 1 2 3 4 5 6 
#
# 1 86.6085 17.3137 21.3208 0.0000 0.0000 0.0000
# 2 17.3137 81.6030 14.9570 0.0000 0.0000 0.0000
# 3 21.3208 14.9570 42.8848 0.0000 0.0000 0.0000
# 4 0.0000 0.0000 0.0000 15.1672 0.0000 0.0000
# 5 0.0000 0.0000 0.0000 0.0000 32.7882 0.0000
# 6 0.0000 0.0000 0.0000 0.0000 0.0000 104.9320
#
#
#
# Elastic Compliance Matrix: (Units=1/GPa)
#
#
# Indices 1 2 3 4 5 6 
#
# 1 0.013381 -0.001730 -0.006049 0.000000 0.000000 0.000000
# 2 -0.001730 0.013315 -0.003784 0.000000 0.000000 0.000000
# 3 -0.006049 -0.003784 0.027645 0.000000 0.000000 0.000000
# 4 0.000000 0.000000 0.000000 0.065932 0.000000 0.000000
# 5 0.000000 0.000000 0.000000 0.000000 0.030499 0.000000
# 6 0.000000 0.000000 0.000000 0.000000 0.000000 0.009530
#
#
# Mechanical properties :
#
#
# Convention : Reuss Voigt Hill
#
# Bulk Modulus (GPa) = 32.03556 35.36437 33.69996
# Shear Modulus (GPa) = 25.79529 41.07779 33.43654
#
# Velocity S-wave (km/s) = 3.30673 4.17284 3.76477
# Velocity P-wave (km/s) = 5.30650 6.18122 5.76049
#
# Compressibility (1/GPa) = 0.03121531
#
# Stress axis : x y z
#
# Youngs Moduli (GPa) = 74.73133 75.10276 36.17243
#
# Poissons Ratio (x) = 0.12995 0.21881
# Poissons Ratio (y) = 0.12931 0.13686
# Poissons Ratio (z) = 0.45206 0.28416
#
# Static dielectric constant tensor:
#      x y z
#    x 1.875880 0.000000 0.000000 
#    y 0.000000 1.875890 0.000000 
#    z 0.000000 0.000000 2.154150 
# 
# From -- ./inp_files/23860.got.cif
#   From: 2010.05.17/outbox.cif.g08.bks.cpg/sg73_12_cif.got.tgz:23860.got - 2010.06.03 17:35:07.
