data_PCOD9530415
_publ_section_title
;
Structure prediction by ZEFSAII (Michael W. Deem and Ramdas Pophale) SiO2 
 PCOD9530415
Probable space group: I B C A 
;
_chemical_formula_sum "Si O2"
_cell_formula_units_Z 96
_cell_length_a 14.040324
_cell_length_b 10.178557
_cell_length_c 29.510064
_cell_angle_alpha 90.000000
_cell_angle_beta 90.000000
_cell_angle_gamma 90.000000
_cell_volume 4217.290274
_symmetry_space_group_name_H-M "I B C A "
_symmetry_group_IT_number 73
_symmetry_cell_setting 'orthorhombic'
loop_
_space_group_symop_operation_xyz
x,y,z
-x,1/2-y,z
x,-y,1/2-z
1/2-x,y,-z
-x,-y,-z
x,1/2+y,-z
-x,y,1/2+z
1/2+x,-y,z
1/2+x,1/2+y,1/2+z
1/2-x,-y,1/2+z
1/2+x,1/2-y,-z
-x,1/2+y,1/2-z
1/2-x,1/2-y,1/2-z
1/2+x,y,1/2-z
1/2-x,1/2+y,z
x,1/2-y,1/2+z
loop_
_atom_site_type_symbol
_atom_site_label
_atom_site_fract_x
_atom_site_fract_y
_atom_site_fract_z
Si Si1 0.145416 0.818839 0.633728
Si Si2 0.872842 0.862126 0.230799
Si Si3 0.618848 0.912377 0.477316
Si Si4 0.357076 0.110742 0.785864
Si Si5 0.825313 0.488234 0.377738
Si Si6 0.598991 0.632178 0.462452
O O1 0.090505 0.837333 0.680512
O O2 0.184158 0.667985 0.633685
O O3 0.081130 0.849132 0.590611
O O4 0.228429 0.926893 0.625138
O O5 0.758421 0.872852 0.220164
O O6 0.892474 0.749751 0.267276
O O7 0.903557 0.000000 0.250000
O O8 0.635521 0.986204 0.429256
O O9 0.656184 0.763634 0.475208
O O10 0.506254 0.881628 0.482881
O O11 0.650058 0.001682 0.519363
O O12 0.384251 0.000000 0.750000
O O13 0.381506 0.059764 0.836252
#
# Coordination Sequence:
#
# PCOD9530415 Si02
#       6
#    16  16  16  16  16  16
#     4  10  20  32  49  78 105 134 166 210 260 300
#     4   9  17  27  44  70 102 134 166 201 244 296
#     4   9  19  37  56  75  96 133 174 211 253 309
#     4   9  15  27  44  68 102 133 164 200 238 296
#     4  10  20  31  50  78 105 132 169 210 258 302
#     4   9  19  37  57  73  98 132 174 211 254 308
#
# _framework density 22.763431000000001
#
# number of rings (size 3 to 8) (size 9 to 14) (size 15 to 20)
#    0.000    2.667    1.667    0.000    7.000    2.000 
#    0.000    3.333    0.000    1.000    0.000    0.000 
#    0.000    0.000    0.000    0.000    0.000    0.000 
#
# Total GULP energy -267472.983708 kJ/mol
# GULP energy per Si atom -5572.353827 kJ/mol
# Density = 2.271162 g / cm^3
# Si number density = 22.763431 Si / 1000 Ang^3
#
#
#
# Elastic Constant Matrix: (Units=GPa)
#
#
# Indices 1 2 3 4 5 6 
#
# 1 48.2035 -1.5279 9.6363 0.0000 0.0000 0.0000
# 2 -1.5279 184.5275 97.0334 0.0000 0.0000 0.0000
# 3 9.6363 97.0334 147.1953 0.0000 0.0000 0.0000
# 4 0.0000 0.0000 0.0000 40.3334 0.0000 0.0000
# 5 0.0000 0.0000 0.0000 0.0000 -2.1401 0.0000
# 6 0.0000 0.0000 0.0000 0.0000 0.0000 -3.7632
#
#
#
# Elastic Compliance Matrix: (Units=1/GPa)
#
#
# Indices 1 2 3 4 5 6 
#
# 1 0.021251 0.001389 -0.002307 0.000000 0.000000 0.000000
# 2 0.001389 0.008385 -0.005619 0.000000 0.000000 0.000000
# 3 -0.002307 -0.005619 0.010649 0.000000 0.000000 0.000000
# 4 0.000000 0.000000 0.000000 0.024793 0.000000 0.000000
# 5 0.000000 0.000000 0.000000 0.000000 -0.467268 0.000000
# 6 0.000000 0.000000 0.000000 0.000000 0.000000 -0.265732
#
#
# Mechanical properties :
#
#
# Convention : Reuss Voigt Hill
#
# Bulk Modulus (GPa) = 36.74919 65.57889 51.16404
# Shear Modulus (GPa) = -7.74260 25.20498 8.73119
#
# Velocity S-wave (km/s) = -1.84627 3.33116 1.96060
# Velocity P-wave (km/s) = 3.41087 6.60809 5.25837
#
# Compressibility (1/GPa) = 0.02721148
#
# Stress axis : x y z
#
# Youngs Moduli (GPa) = 47.05759 119.25624 93.90886
#
# Poissons Ratio (x) = -0.16565 0.21663
# Poissons Ratio (y) = -0.06536 0.52764
# Poissons Ratio (z) = 0.10855 0.67006
#
# Static dielectric constant tensor:
#      x y z
#    x 1.963090 0.000000 0.000000 
#    y 0.000000 1.894460 0.000000 
#    z 0.000000 0.000000 1.883230 
# 
# From -- ./inp_files/24874.got.cif
#   From: 2010.05.17/outbox.cif.g08.bks.cpg/sg73_13_cif.got.tgz:24874.got - 2010.06.03 17:35:07.
