data_PCOD9530007
_publ_section_title
;
Structure prediction by ZEFSAII (Michael W. Deem and Ramdas Pophale) SiO2 
 PCOD9530007
Probable space group: I B C A 
;
_chemical_formula_sum "Si O2"
_cell_formula_units_Z 80
_cell_length_a 23.374588
_cell_length_b 29.036029
_cell_length_c 5.363861
_cell_angle_alpha 90.000000
_cell_angle_beta 90.000000
_cell_angle_gamma 90.000000
_cell_volume 3640.480433
_symmetry_space_group_name_H-M "I B C A "
_symmetry_group_IT_number 73
_symmetry_cell_setting 'orthorhombic'
loop_
_space_group_symop_operation_xyz
x,y,z
-x,1/2-y,z
x,-y,1/2-z
1/2-x,y,-z
-x,-y,-z
x,1/2+y,-z
-x,y,1/2+z
1/2+x,-y,z
1/2+x,1/2+y,1/2+z
1/2-x,-y,1/2+z
1/2+x,1/2-y,-z
-x,1/2+y,1/2-z
1/2-x,1/2-y,1/2-z
1/2+x,y,1/2-z
1/2-x,1/2+y,z
x,1/2-y,1/2+z
loop_
_atom_site_type_symbol
_atom_site_label
_atom_site_fract_x
_atom_site_fract_y
_atom_site_fract_z
Si Si1 0.466736 0.879630 0.698120
Si Si2 0.927776 0.777536 0.907376
Si Si3 0.250000 0.657129 0.500000
Si Si4 0.336724 0.097579 0.833651
Si Si5 0.285243 0.500000 0.250000
Si Si6 0.813590 0.683778 0.598309
O O1 0.493608 0.893407 0.431228
O O2 0.459528 0.824426 0.666428
O O3 0.402418 0.897271 0.746637
O O4 0.939097 0.757763 0.183592
O O5 0.860938 0.790605 0.941560
O O6 0.288151 0.623410 0.328836
O O7 0.199887 0.689734 0.387861
O O8 0.320631 0.044466 0.839369
O O9 0.331250 0.129320 0.081369
O O10 0.250000 0.513284 0.500000
O O11 0.750000 0.691891 0.500000
#
# Coordination Sequence:
#
# PCOD9530007 Si02
#       6
#    16  16   8  16   8  16
#     4  11  26  45  70  91 127 180 227 276 333 396
#     4  11  25  40  62  93 127 161 219 285 333 383
#     4  10  18  38  66  90 134 180 216 270 334 412
#     4  10  23  40  66  99 136 174 228 271 335 403
#     4  12  24  40  68 110 142 172 210 274 338 394
#     4   9  21  36  59  89 129 178 215 258 329 410
#
# _framework density 21.975121000000001
#
# number of rings (size 3 to 8) (size 9 to 14) (size 15 to 20)
#    0.000    1.600    1.000    3.000   14.000    3.200 
#    0.000    1.000    0.000    0.000    0.000    0.000 
#    0.000    0.000    0.000    0.000    0.000    0.000 
#
# Total GULP energy -222898.150673 kJ/mol
# GULP energy per Si atom -5572.453767 kJ/mol
# Density = 2.192510 g / cm^3
# Si number density = 21.975121 Si / 1000 Ang^3
#
#
#
# Elastic Constant Matrix: (Units=GPa)
#
#
# Indices 1 2 3 4 5 6 
#
# 1 131.2675 27.8645 37.6644 0.0000 0.0000 0.0000
# 2 27.8645 75.6262 10.2116 0.0000 0.0000 0.0000
# 3 37.6644 10.2116 84.4721 0.0000 0.0000 0.0000
# 4 0.0000 0.0000 0.0000 8.1929 0.0000 0.0000
# 5 0.0000 0.0000 0.0000 0.0000 -0.6121 0.0000
# 6 0.0000 0.0000 0.0000 0.0000 0.0000 19.3977
#
#
#
# Elastic Compliance Matrix: (Units=1/GPa)
#
#
# Indices 1 2 3 4 5 6 
#
# 1 0.009331 -0.002924 -0.003807 0.000000 0.000000 0.000000
# 2 -0.002924 0.014359 -0.000432 0.000000 0.000000 0.000000
# 3 -0.003807 -0.000432 0.013588 0.000000 0.000000 0.000000
# 4 0.000000 0.000000 0.000000 0.122056 0.000000 0.000000
# 5 0.000000 0.000000 0.000000 0.000000 -1.633622 0.000000
# 6 0.000000 0.000000 0.000000 0.000000 0.000000 0.051553
#
#
# Mechanical properties :
#
#
# Convention : Reuss Voigt Hill
#
# Bulk Modulus (GPa) = 43.57018 49.20520 46.38769
# Shear Modulus (GPa) = -3.56949 19.77072 8.10062
#
# Velocity S-wave (km/s) = -1.27588 3.00273 1.92205
# Velocity P-wave (km/s) = 4.20709 5.87042 5.10693
#
# Compressibility (1/GPa) = 0.02295148
#
# Stress axis : x y z
#
# Youngs Moduli (GPa) = 107.16892 69.64467 73.59462
#
# Poissons Ratio (x) = 0.20364 0.28018
# Poissons Ratio (y) = 0.31336 0.03180
# Poissons Ratio (z) = 0.40800 0.03009
#
# Static dielectric constant tensor:
#      x y z
#    x 1.826870 0.000000 0.000000 
#    y 0.000000 1.820060 0.000000 
#    z 0.000000 0.000000 2.200570 
# 
# From -- ./inp_files/2221.got.cif
#   From: 2010.05.17/outbox.cif.g08.bks.cpg/sg73_2_cif.got.tgz:2221.got - 2010.06.03 17:35:07.
