data_PCOD9530775
_publ_section_title
;
Structure prediction by ZEFSAII (Michael W. Deem and Ramdas Pophale) SiO2 
 PCOD9530775
Probable space group: I B C A 
;
_chemical_formula_sum "Si O2"
_cell_formula_units_Z 88
_cell_length_a 26.248693
_cell_length_b 20.064591
_cell_length_c 8.515321
_cell_angle_alpha 90.000000
_cell_angle_beta 90.000000
_cell_angle_gamma 90.000000
_cell_volume 4484.758059
_symmetry_space_group_name_H-M "I B C A "
_symmetry_group_IT_number 73
_symmetry_cell_setting 'orthorhombic'
loop_
_space_group_symop_operation_xyz
x,y,z
-x,1/2-y,z
x,-y,1/2-z
1/2-x,y,-z
-x,-y,-z
x,1/2+y,-z
-x,y,1/2+z
1/2+x,-y,z
1/2+x,1/2+y,1/2+z
1/2-x,-y,1/2+z
1/2+x,1/2-y,-z
-x,1/2+y,1/2-z
1/2-x,1/2-y,1/2-z
1/2+x,y,1/2-z
1/2-x,1/2+y,z
x,1/2-y,1/2+z
loop_
_atom_site_type_symbol
_atom_site_label
_atom_site_fract_x
_atom_site_fract_y
_atom_site_fract_z
Si Si1 0.823518 0.723590 0.744952
Si Si2 0.115522 0.327680 0.972542
Si Si3 0.079257 0.970510 0.082023
Si Si4 0.036311 0.413265 0.407504
Si Si5 0.250000 0.707982 0.000000
Si Si6 0.985280 0.321266 0.623921
O O1 0.862545 0.685937 0.854938
O O2 0.852869 0.783367 0.652426
O O3 0.793638 0.679188 0.615052
O O4 0.783125 0.750691 0.873710
O O5 0.056035 0.307954 0.986516
O O6 0.114288 0.406545 0.944562
O O7 0.092958 0.000000 0.250000
O O8 0.075685 0.028531 0.950625
O O9 0.020450 0.945306 0.095013
O O10 0.039611 0.372525 0.247041
O O11 0.033320 0.359679 0.548822
O O12 0.000000 0.250000 0.690804
#
# Coordination Sequence:
#
# PCOD9530775 Si02
#       6
#    16  16  16  16   8  16
#     4   9  18  37  58  97 120 146 183 247 307 376
#     4  10  23  33  56  88 127 146 204 254 290 343
#     4  10  20  38  55  75 111 167 213 250 272 337
#     4  10  21  36  55  71 108 166 224 235 279 339
#     4   8  16  36  68  82 126 148 170 226 330 394
#     4  11  23  35  53  82 119 170 196 254 297 331
#
# _framework density 19.622018000000001
#
# number of rings (size 3 to 8) (size 9 to 14) (size 15 to 20)
#    0.000    2.182    1.818    0.545    7.636    0.000 
#    3.273    0.000    0.000    0.000    0.000    7.636 
#    0.000    0.000    0.000    0.000    0.000    0.000 
#
# Total GULP energy -245001.416913 kJ/mol
# GULP energy per Si atom -5568.214021 kJ/mol
# Density = 1.957736 g / cm^3
# Si number density = 19.622018 Si / 1000 Ang^3
#
#
#
# Elastic Constant Matrix: (Units=GPa)
#
#
# Indices 1 2 3 4 5 6 
#
# 1 46.1988 32.5807 21.9850 0.0000 0.0000 0.0000
# 2 32.5807 120.2356 59.9173 0.0000 0.0000 0.0000
# 3 21.9850 59.9173 113.9680 0.0000 0.0000 0.0000
# 4 0.0000 0.0000 0.0000 -505.1496 0.0000 0.0000
# 5 0.0000 0.0000 0.0000 0.0000 23.4514 0.0000
# 6 0.0000 0.0000 0.0000 0.0000 0.0000 -0.6706
#
#
#
# Elastic Compliance Matrix: (Units=1/GPa)
#
#
# Indices 1 2 3 4 5 6 
#
# 1 0.027044 -0.006407 -0.001848 0.000000 0.000000 0.000000
# 2 -0.006407 0.012787 -0.005487 0.000000 0.000000 0.000000
# 3 -0.001848 -0.005487 0.012016 0.000000 0.000000 0.000000
# 4 0.000000 0.000000 0.000000 -0.001980 0.000000 0.000000
# 5 0.000000 0.000000 0.000000 0.000000 0.042641 0.000000
# 6 0.000000 0.000000 0.000000 0.000000 0.000000 -1.491109
#
#
# Mechanical properties :
#
#
# Convention : Reuss Voigt Hill
#
# Bulk Modulus (GPa) = 41.04751 56.59648 48.82200
# Shear Modulus (GPa) = -3.66839 -85.41247 -44.54043
#
# Velocity S-wave (km/s) = -1.36879 -6.60480 -4.76954
# Velocity P-wave (km/s) = 4.29726 5.40912 2.32294
#
# Compressibility (1/GPa) = 0.02436201
#
# Stress axis : x y z
#
# Youngs Moduli (GPa) = 36.97737 78.20186 83.22488
#
# Poissons Ratio (x) = 0.50104 0.15384
# Poissons Ratio (y) = 0.23691 0.45665
# Poissons Ratio (z) = 0.06835 0.42909
#
# Static dielectric constant tensor:
#      x y z
#    x 1.741950 0.000000 0.000000 
#    y 0.000000 1.713900 0.000000 
#    z 0.000000 0.000000 1.764950 
# 
# From -- ./inp_files/8386.got.cif
#   From: 2010.05.17/outbox.cif.g08.bks.cpg/sg73_5_cif.got.tgz:8386.got - 2010.06.03 17:35:07.
