data_PCOD9530418
_publ_section_title
;
Structure prediction by ZEFSAII (Michael W. Deem and Ramdas Pophale) SiO2 
 PCOD9530418
Probable space group: I B C A 
;
_chemical_formula_sum "Si O2"
_cell_formula_units_Z 88
_cell_length_a 23.361507
_cell_length_b 21.590941
_cell_length_c 8.270783
_cell_angle_alpha 90.000000
_cell_angle_beta 90.000000
_cell_angle_gamma 90.000000
_cell_volume 4171.757465
_symmetry_space_group_name_H-M "I B C A "
_symmetry_group_IT_number 73
_symmetry_cell_setting 'orthorhombic'
loop_
_space_group_symop_operation_xyz
x,y,z
-x,1/2-y,z
x,-y,1/2-z
1/2-x,y,-z
-x,-y,-z
x,1/2+y,-z
-x,y,1/2+z
1/2+x,-y,z
1/2+x,1/2+y,1/2+z
1/2-x,-y,1/2+z
1/2+x,1/2-y,-z
-x,1/2+y,1/2-z
1/2-x,1/2-y,1/2-z
1/2+x,y,1/2-z
1/2-x,1/2+y,z
x,1/2-y,1/2+z
loop_
_atom_site_type_symbol
_atom_site_label
_atom_site_fract_x
_atom_site_fract_y
_atom_site_fract_z
Si Si1 0.327431 0.928069 0.694551
Si Si2 0.715583 0.068007 0.827617
Si Si3 0.609750 0.592870 0.357809
Si Si4 0.516600 0.000000 0.750000
Si Si5 0.477653 0.181521 0.997004
Si Si6 0.559910 0.883460 0.306174
O O1 0.264338 0.901168 0.716327
O O2 0.351180 0.919219 0.515061
O O3 0.373513 0.896006 0.810230
O O4 0.326569 0.000000 0.750000
O O5 0.652416 0.095491 0.796071
O O6 0.707524 0.000000 0.750000
O O7 0.750000 0.064526 0.000000
O O8 0.563530 0.536431 0.359066
O O9 0.572025 0.654592 0.385981
O O10 0.471702 0.943514 0.729162
O O11 0.500000 0.250000 0.023270
O O12 0.530789 0.134835 0.027126
O O13 0.453906 0.171654 0.817767
#
# Coordination Sequence:
#
# PCOD9530418 Si02
#       6
#    16  16  16   8  16  16
#     4  10  20  31  52  81 119 152 188 230 292 361
#     4  11  21  34  53  81 123 161 191 233 292 363
#     4  10  21  34  55  81 119 157 191 247 286 358
#     4  10  20  32  54  86 116 144 194 236 308 348
#     4  10  22  38  57  82 114 158 201 242 292 347
#     4  10  21  34  57  82 117 151 189 248 290 363
#
# _framework density 21.094228000000001
#
# number of rings (size 3 to 8) (size 9 to 14) (size 15 to 20)
#    0.000    1.818    1.818    3.273    2.545    3.636 
#    0.000    0.000    0.000    1.091    0.000    7.636 
#    0.000    0.000    0.000    0.000    0.000    0.000 
#
# Total GULP energy -245006.466346 kJ/mol
# GULP energy per Si atom -5568.328781 kJ/mol
# Density = 2.104622 g / cm^3
# Si number density = 21.094228 Si / 1000 Ang^3
#
#
#
# Elastic Constant Matrix: (Units=GPa)
#
#
# Indices 1 2 3 4 5 6 
#
# 1 107.2198 18.9895 -6.5152 0.0000 0.0000 0.0000
# 2 18.9895 90.0197 4.9038 0.0000 0.0000 0.0000
# 3 -6.5152 4.9038 39.6090 0.0000 0.0000 0.0000
# 4 0.0000 0.0000 0.0000 14.3165 0.0000 0.0000
# 5 0.0000 0.0000 0.0000 0.0000 33.5279 0.0000
# 6 0.0000 0.0000 0.0000 0.0000 0.0000 22.3735
#
#
#
# Elastic Compliance Matrix: (Units=1/GPa)
#
#
# Indices 1 2 3 4 5 6 
#
# 1 0.009827 -0.002176 0.001886 0.000000 0.000000 0.000000
# 2 -0.002176 0.011666 -0.001802 0.000000 0.000000 0.000000
# 3 0.001886 -0.001802 0.025780 0.000000 0.000000 0.000000
# 4 0.000000 0.000000 0.000000 0.069849 0.000000 0.000000
# 5 0.000000 0.000000 0.000000 0.000000 0.029826 0.000000
# 6 0.000000 0.000000 0.000000 0.000000 0.000000 0.044696
#
#
# Mechanical properties :
#
#
# Convention : Reuss Voigt Hill
#
# Bulk Modulus (GPa) = 23.20819 30.17831 26.69325
# Shear Modulus (GPa) = 23.78799 28.67495 26.23147
#
# Velocity S-wave (km/s) = 3.36177 3.69097 3.53021
# Velocity P-wave (km/s) = 5.10830 5.70104 5.41279
#
# Compressibility (1/GPa) = 0.04308824
#
# Stress axis : x y z
#
# Youngs Moduli (GPa) = 101.76517 85.72067 38.78968
#
# Poissons Ratio (x) = 0.18650 -0.07315
# Poissons Ratio (y) = 0.22140 0.06991
# Poissons Ratio (z) = -0.19190 0.15448
#
# Static dielectric constant tensor:
#      x y z
#    x 1.818620 0.000000 0.000000 
#    y 0.000000 1.755000 0.000000 
#    z 0.000000 0.000000 1.893930 
# 
# From -- ./inp_files/6281.got.cif
#   From: 2010.05.17/outbox.cif.g08.bks.cpg/sg73_4_cif.got.tgz:6281.got - 2010.06.03 17:35:07.
