data_PCOD9530212
_publ_section_title
;
Structure prediction by ZEFSAII (Michael W. Deem and Ramdas Pophale) SiO2 
 PCOD9530212
Probable space group: I B C A 
;
_chemical_formula_sum "Si O2"
_cell_formula_units_Z 72
_cell_length_a 18.435278
_cell_length_b 5.567147
_cell_length_c 31.556965
_cell_angle_alpha 90.000000
_cell_angle_beta 90.000000
_cell_angle_gamma 90.000000
_cell_volume 3238.751359
_symmetry_space_group_name_H-M "I B C A "
_symmetry_group_IT_number 73
_symmetry_cell_setting 'orthorhombic'
loop_
_space_group_symop_operation_xyz
x,y,z
-x,1/2-y,z
x,-y,1/2-z
1/2-x,y,-z
-x,-y,-z
x,1/2+y,-z
-x,y,1/2+z
1/2+x,-y,z
1/2+x,1/2+y,1/2+z
1/2-x,-y,1/2+z
1/2+x,1/2-y,-z
-x,1/2+y,1/2-z
1/2-x,1/2-y,1/2-z
1/2+x,y,1/2-z
1/2-x,1/2+y,z
x,1/2-y,1/2+z
loop_
_atom_site_type_symbol
_atom_site_label
_atom_site_fract_x
_atom_site_fract_y
_atom_site_fract_z
Si Si1 0.500000 0.750000 0.275053
Si Si2 0.890753 0.351499 0.616984
Si Si3 0.596272 0.850534 0.353216
Si Si4 0.753538 0.625547 0.820340
Si Si5 0.087492 0.750338 0.476099
O O1 0.510438 0.500000 0.250000
O O2 0.567509 0.793216 0.306372
O O3 0.924207 0.619289 0.618824
O O4 0.824421 0.374369 0.650133
O O5 0.873049 0.290500 0.568632
O O6 0.931494 0.111270 0.632799
O O7 0.683220 0.872577 0.350920
O O8 0.749193 0.375769 0.796044
O O9 0.103789 0.513387 0.504431
O O10 0.000000 0.750000 0.468257
#
# Coordination Sequence:
#
# PCOD9530212 Si02
#       5
#     8  16  16  16  16
#     4  12  26  42  60  90 126 148 176 232 302 364
#     4  10  19  35  62  84 114 151 208 241 273 333
#     4  10  21  36  61  85 112 150 192 238 284 340
#     4   8  16  32  55  81 106 141 189 242 272 314
#     4  10  21  34  50  81 125 161 189 238 296 339
#
# _framework density 22.230789999999999
#
# number of rings (size 3 to 8) (size 9 to 14) (size 15 to 20)
#    0.000    2.222    0.000    2.667    3.111    0.000 
#    0.000    0.000    0.000   72.000    0.000    0.000 
#    0.000    0.000    0.000    0.000    0.000    0.000 
#
# Total GULP energy -200601.277990 kJ/mol
# GULP energy per Si atom -5572.257722 kJ/mol
# Density = 2.218019 g / cm^3
# Si number density = 22.230790 Si / 1000 Ang^3
#
#
#
# Elastic Constant Matrix: (Units=GPa)
#
#
# Indices 1 2 3 4 5 6 
#
# 1 41.9629 17.8260 -9.0272 0.0000 0.0000 0.0000
# 2 17.8260 274.1923 54.0750 0.0000 0.0000 0.0000
# 3 -9.0272 54.0750 88.2033 0.0000 0.0000 0.0000
# 4 0.0000 0.0000 0.0000 47.1074 0.0000 0.0000
# 5 0.0000 0.0000 0.0000 0.0000 -5.4971 0.0000
# 6 0.0000 0.0000 0.0000 0.0000 0.0000 23.9984
#
#
#
# Elastic Compliance Matrix: (Units=1/GPa)
#
#
# Indices 1 2 3 4 5 6 
#
# 1 0.025790 -0.002499 0.004172 0.000000 0.000000 0.000000
# 2 -0.002499 0.004391 -0.002948 0.000000 0.000000 0.000000
# 3 0.004172 -0.002948 0.013572 0.000000 0.000000 0.000000
# 4 0.000000 0.000000 0.000000 0.021228 0.000000 0.000000
# 5 0.000000 0.000000 0.000000 0.000000 -0.181916 0.000000
# 6 0.000000 0.000000 0.000000 0.000000 0.000000 0.041669
#
#
# Mechanical properties :
#
#
# Convention : Reuss Voigt Hill
#
# Bulk Modulus (GPa) = 24.27094 58.90067 41.58581
# Shear Modulus (GPa) = -84.77258 35.88741 -24.44259
#
# Velocity S-wave (km/s) = -6.18189 4.02221 -3.31946
# Velocity P-wave (km/s) = 6.32558 6.93711 2.01377
#
# Compressibility (1/GPa) = 0.04120154
#
# Stress axis : x y z
#
# Youngs Moduli (GPa) = 38.77503 227.74318 73.68336
#
# Poissons Ratio (x) = 0.56922 -0.30739
# Poissons Ratio (y) = 0.09691 0.21720
# Poissons Ratio (z) = -0.16176 0.67133
#
# Static dielectric constant tensor:
#      x y z
#    x 1.846130 0.000000 0.000000 
#    y 0.000000 1.944480 0.000000 
#    z 0.000000 0.000000 1.755540 
# 
# From -- ./inp_files/1676.got.cif
#   From: 2010.05.17/outbox.cif.g08.bks.cpg/sg73_1_cif.got.tgz:1676.got - 2010.06.03 17:35:07.
