data_PCOD9530239
_publ_section_title
;
Structure prediction by ZEFSAII (Michael W. Deem and Ramdas Pophale) SiO2 
 PCOD9530239
Probable space group: I B C A 
;
_chemical_formula_sum "Si O2"
_cell_formula_units_Z 120
_cell_length_a 18.783839
_cell_length_b 14.178710
_cell_length_c 18.768933
_cell_angle_alpha 90.000000
_cell_angle_beta 90.000000
_cell_angle_gamma 90.000000
_cell_volume 4998.741297
_symmetry_space_group_name_H-M "I B C A "
_symmetry_group_IT_number 73
_symmetry_cell_setting 'orthorhombic'
loop_
_space_group_symop_operation_xyz
x,y,z
-x,1/2-y,z
x,-y,1/2-z
1/2-x,y,-z
-x,-y,-z
x,1/2+y,-z
-x,y,1/2+z
1/2+x,-y,z
1/2+x,1/2+y,1/2+z
1/2-x,-y,1/2+z
1/2+x,1/2-y,-z
-x,1/2+y,1/2-z
1/2-x,1/2-y,1/2-z
1/2+x,y,1/2-z
1/2-x,1/2+y,z
x,1/2-y,1/2+z
loop_
_atom_site_type_symbol
_atom_site_label
_atom_site_fract_x
_atom_site_fract_y
_atom_site_fract_z
Si Si1 0.199604 0.393142 0.068686
Si Si2 0.691185 0.069827 0.184848
Si Si3 0.000000 0.250000 0.418914
Si Si4 0.044682 0.386006 0.047358
Si Si5 0.403818 0.064492 0.884126
Si Si6 0.356605 0.784336 0.324752
Si Si7 0.273971 0.178453 0.920126
Si Si8 0.574577 0.738142 0.188841
O O1 0.242561 0.441172 0.131663
O O2 0.122540 0.432306 0.046739
O O3 0.193088 0.282807 0.093558
O O4 0.250000 0.394800 0.000000
O O5 0.676294 0.180465 0.191810
O O6 0.704629 0.000000 0.250000
O O7 0.616856 0.031613 0.152680
O O8 0.027664 0.170142 0.475105
O O9 0.071260 0.278424 0.373445
O O10 0.054852 0.316814 0.116381
O O11 0.974477 0.442631 0.069563
O O12 0.333293 0.098648 0.923708
O O13 0.406874 0.153326 0.829329
O O14 0.292626 0.834930 0.367259
O O15 0.375842 0.817085 0.244647
O O16 0.250000 0.186942 0.000000
O O17 0.500000 0.750000 0.229843
#
# Coordination Sequence:
#
# PCOD9530239 Si02
#       8
#    16  16   8  16  16  16  16  16
#     4  10  21  41  63  90 121 163 214 269 315 383
#     4  11  24  40  59  87 134 176 206 259 331 395
#     4  12  20  38  68  98 120 160 216 280 328 386
#     4  11  20  39  69  90 118 160 213 270 331 382
#     4  11  21  38  62  87 123 168 205 253 331 389
#     4  11  23  37  62  92 125 163 216 270 322 385
#     4  10  20  36  60  93 119 153 216 272 318 377
#     4  10  19  36  60  93 117 156 211 268 312 378
#
# _framework density 24.006043999999999
#
# number of rings (size 3 to 8) (size 9 to 14) (size 15 to 20)
#    0.000    1.333    5.333    3.200    0.000    2.133 
#    0.000    4.667    0.000    0.000    0.000    0.000 
#    0.000    0.000    0.000    0.000    0.000    0.000 
#
# Total GULP energy -334898.502587 kJ/mol
# GULP energy per Si atom -5581.641710 kJ/mol
# Density = 2.395141 g / cm^3
# Si number density = 24.006044 Si / 1000 Ang^3
#
#
#
# Elastic Constant Matrix: (Units=GPa)
#
#
# Indices 1 2 3 4 5 6 
#
# 1 152.3263 13.0518 38.3740 0.0000 0.0000 0.0000
# 2 13.0518 48.1317 14.1856 0.0000 0.0000 0.0000
# 3 38.3740 14.1856 105.7515 0.0000 0.0000 0.0000
# 4 0.0000 0.0000 0.0000 7.2630 0.0000 0.0000
# 5 0.0000 0.0000 0.0000 0.0000 -209.2593 0.0000
# 6 0.0000 0.0000 0.0000 0.0000 0.0000 18.0638
#
#
#
# Elastic Compliance Matrix: (Units=1/GPa)
#
#
# Indices 1 2 3 4 5 6 
#
# 1 0.007297 -0.001248 -0.002480 0.000000 0.000000 0.000000
# 2 -0.001248 0.021845 -0.002478 0.000000 0.000000 0.000000
# 3 -0.002480 -0.002478 0.010689 0.000000 0.000000 0.000000
# 4 0.000000 0.000000 0.000000 0.137685 0.000000 0.000000
# 5 0.000000 0.000000 0.000000 0.000000 -0.004779 0.000000
# 6 0.000000 0.000000 0.000000 0.000000 0.000000 0.055359
#
#
# Mechanical properties :
#
#
# Convention : Reuss Voigt Hill
#
# Bulk Modulus (GPa) = 36.47117 48.60358 42.53737
# Shear Modulus (GPa) = 20.02835 -20.74663 -0.35914
#
# Velocity S-wave (km/s) = 2.89157 -2.94296 -0.38721
# Velocity P-wave (km/s) = 5.13553 2.95674 4.19023
#
# Compressibility (1/GPa) = 0.02741892
#
# Stress axis : x y z
#
# Youngs Moduli (GPa) = 137.05010 45.77743 93.55833
#
# Poissons Ratio (x) = 0.05711 0.23206
# Poissons Ratio (y) = 0.17098 0.23180
# Poissons Ratio (z) = 0.33993 0.11342
#
# Static dielectric constant tensor:
#      x y z
#    x 1.974690 0.000000 0.000000 
#    y 0.000000 2.051640 0.000000 
#    z 0.000000 0.000000 2.009430 
# 
# From -- ./inp_files/26660.got.cif
#   From: 2010.05.17/outbox.cif.g08.bks.cpg/sg73_14_cif.got.tgz:26660.got - 2010.06.03 17:35:07.
