data_PCOD9530288
_publ_section_title
;
Structure prediction by ZEFSAII (Michael W. Deem and Ramdas Pophale) SiO2 
 PCOD9530288
Probable space group: I B C A 
;
_chemical_formula_sum "Si O2"
_cell_formula_units_Z 96
_cell_length_a 14.046052
_cell_length_b 18.835475
_cell_length_c 15.162513
_cell_angle_alpha 90.000000
_cell_angle_beta 90.000000
_cell_angle_gamma 90.000000
_cell_volume 4011.456019
_symmetry_space_group_name_H-M "I B C A "
_symmetry_group_IT_number 73
_symmetry_cell_setting 'orthorhombic'
loop_
_space_group_symop_operation_xyz
x,y,z
-x,1/2-y,z
x,-y,1/2-z
1/2-x,y,-z
-x,-y,-z
x,1/2+y,-z
-x,y,1/2+z
1/2+x,-y,z
1/2+x,1/2+y,1/2+z
1/2-x,-y,1/2+z
1/2+x,1/2-y,-z
-x,1/2+y,1/2-z
1/2-x,1/2-y,1/2-z
1/2+x,y,1/2-z
1/2-x,1/2+y,z
x,1/2-y,1/2+z
loop_
_atom_site_type_symbol
_atom_site_label
_atom_site_fract_x
_atom_site_fract_y
_atom_site_fract_z
Si Si1 0.135681 0.658859 0.591527
Si Si2 0.357935 0.230633 0.222699
Si Si3 0.641458 0.666664 0.099439
Si Si4 0.419568 0.014536 0.355661
Si Si5 0.134079 0.995084 0.354562
Si Si6 0.801974 0.109378 0.414531
O O1 0.093806 0.702685 0.673638
O O2 0.246287 0.682570 0.591056
O O3 0.094682 0.678324 0.495870
O O4 0.135166 0.574528 0.606116
O O5 0.250000 0.250000 0.250000
O O6 0.401280 0.205049 0.315298
O O7 0.341861 0.167256 0.153013
O O8 0.640224 0.583020 0.119940
O O9 0.407836 0.000000 0.250000
O O10 0.528826 0.033466 0.372500
O O11 0.387345 0.948453 0.416275
O O12 0.144529 0.000000 0.250000
O O13 0.216122 0.941815 0.383114
O O14 0.750000 0.142898 0.500000
#
# Coordination Sequence:
#
# PCOD9530288 Si02
#       6
#    16  16  16  16  16  16
#     4  10  21  37  63  98 124 169 215 261 331 393
#     4  10  22  38  63  92 130 172 214 261 324 394
#     4  10  19  37  65  90 130 167 208 268 326 384
#     4  11  22  40  66  98 128 172 214 272 328 382
#     4  11  23  41  67  97 132 169 220 273 323 383
#     4  12  24  39  65  99 128 162 219 275 320 392
#
# _framework density 23.931460999999999
#
# number of rings (size 3 to 8) (size 9 to 14) (size 15 to 20)
#    0.000    1.333    3.333    3.500    4.667    2.667 
#    0.000    0.833    3.667    3.000    0.000    0.000 
#    0.000    0.000    0.000    0.000    0.000    0.000 
#
# Total GULP energy -268166.928631 kJ/mol
# GULP energy per Si atom -5586.811013 kJ/mol
# Density = 2.387699 g / cm^3
# Si number density = 23.931461 Si / 1000 Ang^3
#
#
#
# Elastic Constant Matrix: (Units=GPa)
#
#
# Indices 1 2 3 4 5 6 
#
# 1 46.5723 4.3666 -0.2637 0.0000 0.0000 0.0000
# 2 4.3666 69.8626 32.3151 0.0000 0.0000 0.0000
# 3 -0.2637 32.3151 161.4522 0.0000 0.0000 0.0000
# 4 0.0000 0.0000 0.0000 17.4089 0.0000 0.0000
# 5 0.0000 0.0000 0.0000 0.0000 6.7287 0.0000
# 6 0.0000 0.0000 0.0000 0.0000 0.0000 10.9201
#
#
#
# Elastic Compliance Matrix: (Units=1/GPa)
#
#
# Indices 1 2 3 4 5 6 
#
# 1 0.021615 -0.001507 0.000337 0.000000 0.000000 0.000000
# 2 -0.001507 0.015879 -0.003181 0.000000 0.000000 0.000000
# 3 0.000337 -0.003181 0.006831 0.000000 0.000000 0.000000
# 4 0.000000 0.000000 0.000000 0.057442 0.000000 0.000000
# 5 0.000000 0.000000 0.000000 0.000000 0.148618 0.000000
# 6 0.000000 0.000000 0.000000 0.000000 0.000000 0.091574
#
#
# Mechanical properties :
#
#
# Convention : Reuss Voigt Hill
#
# Bulk Modulus (GPa) = 28.07093 38.96925 33.52009
# Shear Modulus (GPa) = 13.79175 23.10946 18.45061
#
# Velocity S-wave (km/s) = 2.40323 3.11087 2.77966
# Velocity P-wave (km/s) = 4.41088 5.40577 4.93347
#
# Compressibility (1/GPa) = 0.03562404
#
# Stress axis : x y z
#
# Youngs Moduli (GPa) = 46.26374 62.97525 146.39212
#
# Poissons Ratio (x) = 0.09489 -0.04932
# Poissons Ratio (y) = 0.06971 0.46564
# Poissons Ratio (z) = -0.01559 0.20031
#
# Static dielectric constant tensor:
#      x y z
#    x 1.941910 0.000000 0.000000 
#    y 0.000000 2.135900 0.000000 
#    z 0.000000 0.000000 1.982700 
# 
# From -- ./inp_files/17050.got.cif
#   From: 2010.05.17/outbox.cif.g08.bks.cpg/sg73_9_cif.got.tgz:17050.got - 2010.06.03 17:35:07.
