data_PCOD9530499
_publ_section_title
;
Structure prediction by ZEFSAII (Michael W. Deem and Ramdas Pophale) SiO2 
 PCOD9530499
Probable space group: I B C A 
;
_chemical_formula_sum "Si O2"
_cell_formula_units_Z 72
_cell_length_a 7.902449
_cell_length_b 18.884880
_cell_length_c 23.691489
_cell_angle_alpha 90.000000
_cell_angle_beta 90.000000
_cell_angle_gamma 90.000000
_cell_volume 3535.642031
_symmetry_space_group_name_H-M "I B C A "
_symmetry_group_IT_number 73
_symmetry_cell_setting 'orthorhombic'
loop_
_space_group_symop_operation_xyz
x,y,z
-x,1/2-y,z
x,-y,1/2-z
1/2-x,y,-z
-x,-y,-z
x,1/2+y,-z
-x,y,1/2+z
1/2+x,-y,z
1/2+x,1/2+y,1/2+z
1/2-x,-y,1/2+z
1/2+x,1/2-y,-z
-x,1/2+y,1/2-z
1/2-x,1/2-y,1/2-z
1/2+x,y,1/2-z
1/2-x,1/2+y,z
x,1/2-y,1/2+z
loop_
_atom_site_type_symbol
_atom_site_label
_atom_site_fract_x
_atom_site_fract_y
_atom_site_fract_z
Si Si1 0.671595 0.425738 0.181612
Si Si2 0.000000 0.250000 0.399434
Si Si3 0.304301 0.729614 0.186433
Si Si4 0.076197 0.500000 0.750000
Si Si5 0.250000 0.501230 0.500000
Si Si6 0.987652 0.408720 0.435179
O O1 0.775009 0.353953 0.181568
O O2 0.540020 0.433520 0.233475
O O3 0.806843 0.485664 0.196291
O O4 0.566742 0.430661 0.124731
O O5 0.834866 0.258002 0.358612
O O6 0.000759 0.176813 0.434866
O O7 0.500000 0.750000 0.176135
O O8 0.250000 0.750000 0.250000
O O9 0.105682 0.446648 0.481049
O O10 0.309005 0.554216 0.449767
#
# Coordination Sequence:
#
# PCOD9530499 Si02
#       6
#    16   8  16   8   8  16
#     4  10  21  36  56  89 125 160 209 249 309 377
#     4  10  24  42  64  96 132 162 220 264 314 388
#     4  11  21  38  60  88 128 174 207 247 304 375
#     4  10  20  34  56  88 126 168 198 256 302 382
#     4  10  22  44  70  86 124 166 214 276 336 368
#     4  10  22  43  64  95 122 167 213 272 320 385
#
# _framework density 20.364052000000001
#
# number of rings (size 3 to 8) (size 9 to 14) (size 15 to 20)
#    0.000    1.778    1.111    2.667    3.111    0.889 
#   20.000    0.000    0.000    0.000    0.000    0.000 
#    0.000    0.000    0.000    0.000    0.000    0.000 
#
# Total GULP energy -200492.630151 kJ/mol
# GULP energy per Si atom -5569.239726 kJ/mol
# Density = 2.031770 g / cm^3
# Si number density = 20.364052 Si / 1000 Ang^3
#
#
#
# Elastic Constant Matrix: (Units=GPa)
#
#
# Indices 1 2 3 4 5 6 
#
# 1 115.9782 56.3390 27.5469 0.0000 0.0000 0.0000
# 2 56.3390 128.5730 51.1908 0.0000 0.0000 0.0000
# 3 27.5469 51.1908 47.0351 0.0000 0.0000 0.0000
# 4 0.0000 0.0000 0.0000 29.3409 0.0000 0.0000
# 5 0.0000 0.0000 0.0000 0.0000 29.2854 0.0000
# 6 0.0000 0.0000 0.0000 0.0000 0.0000 13.0987
#
#
#
# Elastic Compliance Matrix: (Units=1/GPa)
#
#
# Indices 1 2 3 4 5 6 
#
# 1 0.011073 -0.004006 -0.002125 0.000000 0.000000 0.000000
# 2 -0.004006 0.015174 -0.014169 0.000000 0.000000 0.000000
# 3 -0.002125 -0.014169 0.037926 0.000000 0.000000 0.000000
# 4 0.000000 0.000000 0.000000 0.034082 0.000000 0.000000
# 5 0.000000 0.000000 0.000000 0.000000 0.034147 0.000000
# 6 0.000000 0.000000 0.000000 0.000000 0.000000 0.076343
#
#
# Mechanical properties :
#
#
# Convention : Reuss Voigt Hill
#
# Bulk Modulus (GPa) = 42.42064 62.41551 52.41808
# Shear Modulus (GPa) = 19.43983 24.77896 22.10940
#
# Velocity S-wave (km/s) = 3.09304 3.49205 3.29858
# Velocity P-wave (km/s) = 5.79933 6.85387 6.34853
#
# Compressibility (1/GPa) = 0.02357343
#
# Stress axis : x y z
#
# Youngs Moduli (GPa) = 90.30936 65.90083 26.36695
#
# Poissons Ratio (x) = 0.26399 0.05604
# Poissons Ratio (y) = 0.36177 0.37359
# Poissons Ratio (z) = 0.19193 0.93374
#
# Static dielectric constant tensor:
#      x y z
#    x 1.821860 0.000000 0.000000 
#    y 0.000000 1.794500 0.000000 
#    z 0.000000 0.000000 1.717370 
# 
# From -- ./inp_files/6048.got.cif
#   From: 2010.05.17/outbox.cif.g08.bks.cpg/sg73_4_cif.got.tgz:6048.got - 2010.06.03 17:35:07.
