data_PCOD9530221
_publ_section_title
;
Structure prediction by ZEFSAII (Michael W. Deem and Ramdas Pophale) SiO2 
 PCOD9530221
Probable space group: I B C A 
;
_chemical_formula_sum "Si O2"
_cell_formula_units_Z 88
_cell_length_a 21.304375
_cell_length_b 16.997407
_cell_length_c 14.021738
_cell_angle_alpha 90.000000
_cell_angle_beta 90.000000
_cell_angle_gamma 90.000000
_cell_volume 5077.539604
_symmetry_space_group_name_H-M "I B C A "
_symmetry_group_IT_number 73
_symmetry_cell_setting 'orthorhombic'
loop_
_space_group_symop_operation_xyz
x,y,z
-x,1/2-y,z
x,-y,1/2-z
1/2-x,y,-z
-x,-y,-z
x,1/2+y,-z
-x,y,1/2+z
1/2+x,-y,z
1/2+x,1/2+y,1/2+z
1/2-x,-y,1/2+z
1/2+x,1/2-y,-z
-x,1/2+y,1/2-z
1/2-x,1/2-y,1/2-z
1/2+x,y,1/2-z
1/2-x,1/2+y,z
x,1/2-y,1/2+z
loop_
_atom_site_type_symbol
_atom_site_label
_atom_site_fract_x
_atom_site_fract_y
_atom_site_fract_z
Si Si1 0.554362 0.812721 0.334287
Si Si2 0.836076 0.695351 0.315625
Si Si3 0.970624 0.446283 0.918247
Si Si4 0.376288 0.807000 0.466909
Si Si5 0.115443 0.000000 0.750000
Si Si6 0.203612 0.352674 0.287990
O O1 0.500000 0.750000 0.305706
O O2 0.603696 0.822654 0.249260
O O3 0.523111 0.894642 0.363776
O O4 0.589313 0.770023 0.423345
O O5 0.852891 0.699934 0.426150
O O6 0.778229 0.636546 0.294502
O O7 0.811582 0.780635 0.282087
O O8 0.924902 0.379441 0.961289
O O9 0.929589 0.495464 0.842233
O O10 0.000000 0.500000 0.000000
O O11 0.320996 0.826930 0.392461
O O12 0.161101 0.925063 0.745008
#
# Coordination Sequence:
#
# PCOD9530221 Si02
#       6
#    16  16  16  16   8  16
#     4   9  20  36  53  88 112 140 192 230 281 342
#     4  10  19  35  65  80 109 150 196 235 273 339
#     4  10  22  36  55  82 115 150 182 226 293 341
#     4   9  19  36  57  82 114 144 188 238 273 337
#     4  10  22  40  56  78 126 146 182 244 288 344
#     4   9  20  38  57  86 109 153 188 231 292 335
#
# _framework density 17.331229
#
# number of rings (size 3 to 8) (size 9 to 14) (size 15 to 20)
#    0.000    2.545    0.000    1.636    5.091    2.182 
#    3.273    0.000    0.000    0.000    0.000    0.000 
#    0.000    0.000    0.000    0.000    0.000    0.000 
#
# Total GULP energy -245360.805333 kJ/mol
# GULP energy per Si atom -5576.381939 kJ/mol
# Density = 1.729178 g / cm^3
# Si number density = 17.331229 Si / 1000 Ang^3
#
#
#
# Elastic Constant Matrix: (Units=GPa)
#
#
# Indices 1 2 3 4 5 6 
#
# 1 135.0264 48.0007 76.6157 0.0000 0.0000 0.0000
# 2 48.0007 58.3171 58.2820 0.0000 0.0000 0.0000
# 3 76.6157 58.2820 150.7929 0.0000 0.0000 0.0000
# 4 0.0000 0.0000 0.0000 16.4698 0.0000 0.0000
# 5 0.0000 0.0000 0.0000 0.0000 15.3063 0.0000
# 6 0.0000 0.0000 0.0000 0.0000 0.0000 23.7222
#
#
#
# Elastic Compliance Matrix: (Units=1/GPa)
#
#
# Indices 1 2 3 4 5 6 
#
# 1 0.011540 -0.005929 -0.003572 0.000000 0.000000 0.000000
# 2 -0.005929 0.030986 -0.008964 0.000000 0.000000 0.000000
# 3 -0.003572 -0.008964 0.011911 0.000000 0.000000 0.000000
# 4 0.000000 0.000000 0.000000 0.060717 0.000000 0.000000
# 5 0.000000 0.000000 0.000000 0.000000 0.065332 0.000000
# 6 0.000000 0.000000 0.000000 0.000000 0.000000 0.042155
#
#
# Mechanical properties :
#
#
# Convention : Reuss Voigt Hill
#
# Bulk Modulus (GPa) = 57.11669 78.88146 67.99907
# Shear Modulus (GPa) = 18.83895 21.84888 20.34391
#
# Velocity S-wave (km/s) = 3.30054 3.55444 3.42984
# Velocity P-wave (km/s) = 6.89581 7.90305 7.41655
#
# Compressibility (1/GPa) = 0.01750802
#
# Stress axis : x y z
#
# Youngs Moduli (GPa) = 86.65158 32.27232 83.95626
#
# Poissons Ratio (x) = 0.19135 0.29988
# Poissons Ratio (y) = 0.51377 0.75256
# Poissons Ratio (z) = 0.30951 0.28928
#
# Static dielectric constant tensor:
#      x y z
#    x 1.616490 0.000000 0.000000 
#    y 0.000000 1.573950 0.000000 
#    z 0.000000 0.000000 1.555850 
# 
# From -- ./inp_files/10978.got.cif
#   From: 2010.05.17/outbox.cif.g08.bks.cpg/sg73_6_cif.got.tgz:10978.got - 2010.06.03 17:35:07.
