data_PCOD9530782
_publ_section_title
;
Structure prediction by ZEFSAII (Michael W. Deem and Ramdas Pophale) SiO2 
 PCOD9530782
Probable space group: I B C A 
;
_chemical_formula_sum "Si O2"
_cell_formula_units_Z 120
_cell_length_a 16.166564
_cell_length_b 19.791002
_cell_length_c 17.205332
_cell_angle_alpha 90.000000
_cell_angle_beta 90.000000
_cell_angle_gamma 90.000000
_cell_volume 5504.888995
_symmetry_space_group_name_H-M "I B C A "
_symmetry_group_IT_number 73
_symmetry_cell_setting 'orthorhombic'
loop_
_space_group_symop_operation_xyz
x,y,z
-x,1/2-y,z
x,-y,1/2-z
1/2-x,y,-z
-x,-y,-z
x,1/2+y,-z
-x,y,1/2+z
1/2+x,-y,z
1/2+x,1/2+y,1/2+z
1/2-x,-y,1/2+z
1/2+x,1/2-y,-z
-x,1/2+y,1/2-z
1/2-x,1/2-y,1/2-z
1/2+x,y,1/2-z
1/2-x,1/2+y,z
x,1/2-y,1/2+z
loop_
_atom_site_type_symbol
_atom_site_label
_atom_site_fract_x
_atom_site_fract_y
_atom_site_fract_z
Si Si1 0.935527 0.104248 0.582691
Si Si2 0.920806 0.527712 0.173883
Si Si3 0.329248 0.820783 0.965930
Si Si4 0.875501 0.130925 0.122606
Si Si5 0.504953 0.352167 0.079130
Si Si6 0.000000 0.250000 0.300550
Si Si7 0.725063 0.624213 0.797787
Si Si8 0.141713 0.284662 0.684404
O O1 0.881396 0.164011 0.617097
O O2 0.029154 0.111693 0.617035
O O3 0.942891 0.118102 0.491255
O O4 0.903037 0.032917 0.614041
O O5 0.967729 0.500000 0.250000
O O6 0.967478 0.584362 0.124802
O O7 0.841551 0.565360 0.211265
O O8 0.427788 0.807154 0.956451
O O9 0.303102 0.841185 0.879457
O O10 0.250000 0.778690 0.000000
O O11 0.338293 0.876458 0.035211
O O12 0.816147 0.095733 0.184915
O O13 0.863351 0.209613 0.148747
O O14 0.544025 0.305401 0.145190
O O15 0.067824 0.214181 0.247713
O O16 0.717770 0.680506 0.730497
#
# Coordination Sequence:
#
# PCOD9530782 Si02
#       8
#    16  16  16  16  16   8  16  16
#     4  11  22  36  60  89 117 154 197 254 293 355
#     4  11  20  39  61  80 118 157 202 240 300 359
#     4   8  16  32  52  78 107 142 186 225 287 352
#     4  10  21  34  58  90 113 148 199 247 292 361
#     4  10  22  34  57  86 114 155 198 245 295 355
#     4  12  20  34  56  86 118 154 188 246 310 348
#     4  10  20  38  58  82 113 162 192 241 299 359
#     4  12  21  35  58  88 125 150 193 250 305 353
#
# _framework density 21.798805999999999
#
# number of rings (size 3 to 8) (size 9 to 14) (size 15 to 20)
#    0.000    1.600    5.333    0.800    3.733    0.000 
#    0.000    0.667    0.000    0.000    0.000   14.933 
#    0.000    0.000    0.000    0.000    0.000    0.000 
#
# Total GULP energy -334052.766781 kJ/mol
# GULP energy per Si atom -5567.546113 kJ/mol
# Density = 2.174919 g / cm^3
# Si number density = 21.798806 Si / 1000 Ang^3
#
#
#
# Elastic Constant Matrix: (Units=GPa)
#
#
# Indices 1 2 3 4 5 6 
#
# 1 29.2169 -12.5251 -1.5587 0.0000 0.0000 0.0000
# 2 -12.5251 86.1600 27.5223 0.0000 0.0000 0.0000
# 3 -1.5587 27.5223 99.7232 0.0000 0.0000 0.0000
# 4 0.0000 0.0000 0.0000 27.8509 0.0000 0.0000
# 5 0.0000 0.0000 0.0000 0.0000 15.0243 0.0000
# 6 0.0000 0.0000 0.0000 0.0000 0.0000 13.4631
#
#
#
# Elastic Compliance Matrix: (Units=1/GPa)
#
#
# Indices 1 2 3 4 5 6 
#
# 1 0.036589 0.005633 -0.000983 0.000000 0.000000 0.000000
# 2 0.005633 0.013596 -0.003664 0.000000 0.000000 0.000000
# 3 -0.000983 -0.003664 0.011024 0.000000 0.000000 0.000000
# 4 0.000000 0.000000 0.000000 0.035906 0.000000 0.000000
# 5 0.000000 0.000000 0.000000 0.000000 0.066559 0.000000
# 6 0.000000 0.000000 0.000000 0.000000 0.000000 0.074277
#
#
# Mechanical properties :
#
#
# Convention : Reuss Voigt Hill
#
# Bulk Modulus (GPa) = 15.82770 26.88634 21.35702
# Shear Modulus (GPa) = 19.45237 24.71176 22.08207
#
# Velocity S-wave (km/s) = 2.99048 3.37059 3.18621
# Velocity P-wave (km/s) = 4.38184 5.24486 4.83265
#
# Compressibility (1/GPa) = 0.06318038
#
# Stress axis : x y z
#
# Youngs Moduli (GPa) = 27.33057 73.55305 90.71397
#
# Poissons Ratio (x) = -0.41432 0.08914
# Poissons Ratio (y) = -0.15395 0.33239
# Poissons Ratio (z) = 0.02686 0.26951
#
# Static dielectric constant tensor:
#      x y z
#    x 1.898280 0.000000 0.000000 
#    y 0.000000 1.818090 0.000000 
#    z 0.000000 0.000000 1.820580 
# 
# From -- ./inp_files/18950.got.cif
#   From: 2010.05.17/outbox.cif.g08.bks.cpg/sg73_10_cif.got.tgz:18950.got - 2010.06.03 17:35:07.
