data_PCOD9530090
_publ_section_title
;
Structure prediction by ZEFSAII (Michael W. Deem and Ramdas Pophale) SiO2 
 PCOD9530090
Probable space group: I B C A 
;
_chemical_formula_sum "Si O2"
_cell_formula_units_Z 80
_cell_length_a 5.155485
_cell_length_b 25.171621
_cell_length_c 27.045211
_cell_angle_alpha 90.000000
_cell_angle_beta 90.000000
_cell_angle_gamma 90.000000
_cell_volume 3509.708809
_symmetry_space_group_name_H-M "I B C A "
_symmetry_group_IT_number 73
_symmetry_cell_setting 'orthorhombic'
loop_
_space_group_symop_operation_xyz
x,y,z
-x,1/2-y,z
x,-y,1/2-z
1/2-x,y,-z
-x,-y,-z
x,1/2+y,-z
-x,y,1/2+z
1/2+x,-y,z
1/2+x,1/2+y,1/2+z
1/2-x,-y,1/2+z
1/2+x,1/2-y,-z
-x,1/2+y,1/2-z
1/2-x,1/2-y,1/2-z
1/2+x,y,1/2-z
1/2-x,1/2+y,z
x,1/2-y,1/2+z
loop_
_atom_site_type_symbol
_atom_site_label
_atom_site_fract_x
_atom_site_fract_y
_atom_site_fract_z
Si Si1 0.000000 0.250000 0.685160
Si Si2 0.627493 0.360224 0.612781
Si Si3 0.769688 0.031281 0.940581
Si Si4 0.989982 0.522862 0.804172
Si Si5 0.626694 0.359105 0.820619
Si Si6 0.500000 0.750000 0.886434
O O1 0.047119 0.306877 0.711473
O O2 0.251707 0.250591 0.649871
O O3 0.628976 0.413084 0.580802
O O4 0.418366 0.362028 0.657992
O O5 0.538437 0.305684 0.585751
O O6 0.918887 0.355457 0.634317
O O7 0.478173 0.014204 0.926774
O O8 0.750000 0.035790 0.000000
O O9 0.936467 0.500000 0.750000
O O10 0.214030 0.487837 0.828998
O O11 0.066055 0.583712 0.798162
#
# Coordination Sequence:
#
# PCOD9530090 Si02
#       6
#     8  16  16  16  16   8
#     4   8  16  30  48  73  99 124 160 206 256 296
#     4  10  19  32  53  77 102 130 171 215 257 303
#     4  10  21  35  50  71 104 141 172 207 252 302
#     4  10  21  35  50  70 103 136 161 200 258 310
#     4  10  19  32  53  77  99 129 168 214 256 303
#     4   8  16  30  48  73 101 126 156 212 262 290
#
# _framework density 22.793914999999998
#
# number of rings (size 3 to 8) (size 9 to 14) (size 15 to 20)
#    0.000    2.400    0.000    2.400    0.000    4.800 
#    0.000    0.000    0.000   15.600    0.000    0.000 
#    0.000    0.000    0.000    0.000    0.000    0.000 
#
# Total GULP energy -223080.372450 kJ/mol
# GULP energy per Si atom -5577.009311 kJ/mol
# Density = 2.274204 g / cm^3
# Si number density = 22.793915 Si / 1000 Ang^3
#
#
#
# Elastic Constant Matrix: (Units=GPa)
#
#
# Indices 1 2 3 4 5 6 
#
# 1 142.3480 2.7908 11.5185 0.0000 0.0000 0.0000
# 2 2.7908 199.1057 18.9465 0.0000 0.0000 0.0000
# 3 11.5185 18.9465 39.5600 0.0000 0.0000 0.0000
# 4 0.0000 0.0000 0.0000 30.2302 0.0000 0.0000
# 5 0.0000 0.0000 0.0000 0.0000 23.0251 0.0000
# 6 0.0000 0.0000 0.0000 0.0000 0.0000 32.9822
#
#
#
# Elastic Compliance Matrix: (Units=1/GPa)
#
#
# Indices 1 2 3 4 5 6 
#
# 1 0.007197 0.000103 -0.002145 0.000000 0.000000 0.000000
# 2 0.000103 0.005264 -0.002551 0.000000 0.000000 0.000000
# 3 -0.002145 -0.002551 0.027124 0.000000 0.000000 0.000000
# 4 0.000000 0.000000 0.000000 0.033080 0.000000 0.000000
# 5 0.000000 0.000000 0.000000 0.000000 0.043431 0.000000
# 6 0.000000 0.000000 0.000000 0.000000 0.000000 0.030319
#
#
# Mechanical properties :
#
#
# Convention : Reuss Voigt Hill
#
# Bulk Modulus (GPa) = 32.89541 49.72503 41.31022
# Shear Modulus (GPa) = 30.16904 40.43136 35.30020
#
# Velocity S-wave (km/s) = 3.64202 4.21619 3.93958
# Velocity P-wave (km/s) = 5.66998 6.75012 6.23349
#
# Compressibility (1/GPa) = 0.03039938
#
# Stress axis : x y z
#
# Youngs Moduli (GPa) = 138.95515 189.97828 36.86732
#
# Poissons Ratio (x) = -0.01961 0.07907
# Poissons Ratio (y) = -0.01434 0.09405
# Poissons Ratio (z) = 0.29803 0.48464
#
# Static dielectric constant tensor:
#      x y z
#    x 1.930250 0.000000 0.000000 
#    y 0.000000 2.003740 0.000000 
#    z 0.000000 0.000000 2.317760 
# 
# From -- ./inp_files/2226.got.cif
#   From: 2010.05.17/outbox.cif.g08.bks.cpg/sg73_2_cif.got.tgz:2226.got - 2010.06.03 17:35:07.
