data_PCOD9530421
_publ_section_title
;
Structure prediction by ZEFSAII (Michael W. Deem and Ramdas Pophale) SiO2 
 PCOD9530421
Probable space group: I B C A 
;
_chemical_formula_sum "Si O2"
_cell_formula_units_Z 96
_cell_length_a 29.894353
_cell_length_b 8.467996
_cell_length_c 15.372102
_cell_angle_alpha 90.000000
_cell_angle_beta 90.000000
_cell_angle_gamma 90.000000
_cell_volume 3891.374783
_symmetry_space_group_name_H-M "I B C A "
_symmetry_group_IT_number 73
_symmetry_cell_setting 'orthorhombic'
loop_
_space_group_symop_operation_xyz
x,y,z
-x,1/2-y,z
x,-y,1/2-z
1/2-x,y,-z
-x,-y,-z
x,1/2+y,-z
-x,y,1/2+z
1/2+x,-y,z
1/2+x,1/2+y,1/2+z
1/2-x,-y,1/2+z
1/2+x,1/2-y,-z
-x,1/2+y,1/2-z
1/2-x,1/2-y,1/2-z
1/2+x,y,1/2-z
1/2-x,1/2+y,z
x,1/2-y,1/2+z
loop_
_atom_site_type_symbol
_atom_site_label
_atom_site_fract_x
_atom_site_fract_y
_atom_site_fract_z
Si Si1 0.242639 0.329848 0.361033
Si Si2 0.576689 0.659342 0.161875
Si Si3 0.951855 0.817408 0.140702
Si Si4 0.400706 0.500915 0.143963
Si Si5 0.681272 0.115742 0.843770
Si Si6 0.809835 0.448477 0.451883
O O1 0.284293 0.249709 0.310223
O O2 0.206275 0.451701 0.326638
O O3 0.212134 0.197125 0.402456
O O4 0.272948 0.421461 0.430896
O O5 0.551054 0.669885 0.253790
O O6 0.561019 0.497643 0.113468
O O7 0.629896 0.637887 0.182458
O O8 0.572823 0.835885 0.121354
O O9 0.919587 0.671069 0.117669
O O10 0.000000 0.750000 0.114809
O O11 0.396697 0.500000 0.250000
O O12 0.354029 0.509759 0.094969
O O13 0.680602 0.104637 0.950022
#
# Coordination Sequence:
#
# PCOD9530421 Si02
#       6
#    16  16  16  16  16  16
#     4  10  20  31  55  84 117 164 214 243 279 348
#     4  10  22  37  62  92 121 148 201 257 305 354
#     4  10  23  41  67  89 112 153 202 250 305 380
#     4  10  22  39  60  89 122 156 202 251 308 369
#     4  11  19  34  56  88 117 161 204 252 293 342
#     4  11  19  34  56  83 121 160 206 248 293 343
#
# _framework density 24.669944000000001
#
# number of rings (size 3 to 8) (size 9 to 14) (size 15 to 20)
#    0.000    1.667    1.667    5.000    7.000    0.000 
#    0.000    0.833   14.667    2.000    0.000    0.000 
#    0.000    0.000    0.000    0.000    0.000    0.000 
#
# Total GULP energy -267972.403049 kJ/mol
# GULP energy per Si atom -5582.758397 kJ/mol
# Density = 2.461379 g / cm^3
# Si number density = 24.669944 Si / 1000 Ang^3
#
#
#
# Elastic Constant Matrix: (Units=GPa)
#
#
# Indices 1 2 3 4 5 6 
#
# 1 51.2136 28.4447 8.5479 0.0000 0.0000 0.0000
# 2 28.4447 188.7520 1.7559 0.0000 0.0000 0.0000
# 3 8.5479 1.7559 21.7962 0.0000 0.0000 0.0000
# 4 0.0000 0.0000 0.0000 11.9112 0.0000 0.0000
# 5 0.0000 0.0000 0.0000 0.0000 127.0410 0.0000
# 6 0.0000 0.0000 0.0000 0.0000 0.0000 40.1893
#
#
#
# Elastic Compliance Matrix: (Units=1/GPa)
#
#
# Indices 1 2 3 4 5 6 
#
# 1 0.022843 -0.003362 -0.008688 0.000000 0.000000 0.000000
# 2 -0.003362 0.005797 0.000851 0.000000 0.000000 0.000000
# 3 -0.008688 0.000851 0.049218 0.000000 0.000000 0.000000
# 4 0.000000 0.000000 0.000000 0.083955 0.000000 0.000000
# 5 0.000000 0.000000 0.000000 0.000000 0.007871 0.000000
# 6 0.000000 0.000000 0.000000 0.000000 0.000000 0.024882
#
#
# Mechanical properties :
#
#
# Convention : Reuss Voigt Hill
#
# Bulk Modulus (GPa) = 18.03038 37.69542 27.86290
# Shear Modulus (GPa) = 21.23599 50.69585 35.96592
#
# Velocity S-wave (km/s) = 2.93713 4.53809 3.82237
# Velocity P-wave (km/s) = 4.33899 6.54004 5.54972
#
# Compressibility (1/GPa) = 0.05546196
#
# Stress axis : x y z
#
# Youngs Moduli (GPa) = 43.77676 172.51404 20.31780
#
# Poissons Ratio (x) = 0.57993 0.17651
# Poissons Ratio (y) = 0.14716 -0.01730
# Poissons Ratio (z) = 0.38032 -0.14687
#
# Static dielectric constant tensor:
#      x y z
#    x 1.812050 0.000000 0.000000 
#    y 0.000000 2.065980 0.000000 
#    z 0.000000 0.000000 2.244230 
# 
# From -- ./inp_files/30452.got.cif
#   From: 2010.05.17/outbox.cif.g08.bks.cpg/sg73_16_cif.got.tgz:30452.got - 2010.06.03 17:35:07.
