data_PCOD9530479
_publ_section_title
;
Structure prediction by ZEFSAII (Michael W. Deem and Ramdas Pophale) SiO2 
 PCOD9530479
Probable space group: I B C A 
;
_chemical_formula_sum "Si O2"
_cell_formula_units_Z 96
_cell_length_a 23.688485
_cell_length_b 19.989169
_cell_length_c 9.154422
_cell_angle_alpha 90.000000
_cell_angle_beta 90.000000
_cell_angle_gamma 90.000000
_cell_volume 4334.739015
_symmetry_space_group_name_H-M "I B C A "
_symmetry_group_IT_number 73
_symmetry_cell_setting 'orthorhombic'
loop_
_space_group_symop_operation_xyz
x,y,z
-x,1/2-y,z
x,-y,1/2-z
1/2-x,y,-z
-x,-y,-z
x,1/2+y,-z
-x,y,1/2+z
1/2+x,-y,z
1/2+x,1/2+y,1/2+z
1/2-x,-y,1/2+z
1/2+x,1/2-y,-z
-x,1/2+y,1/2-z
1/2-x,1/2-y,1/2-z
1/2+x,y,1/2-z
1/2-x,1/2+y,z
x,1/2-y,1/2+z
loop_
_atom_site_type_symbol
_atom_site_label
_atom_site_fract_x
_atom_site_fract_y
_atom_site_fract_z
Si Si1 0.096974 0.367435 0.367209
Si Si2 0.184556 0.672495 0.533968
Si Si3 0.904473 0.577354 0.938627
Si Si4 0.911966 0.045837 0.626775
Si Si5 0.531786 0.347839 0.677914
Si Si6 0.368291 0.240520 0.784640
O O1 0.095848 0.419958 0.234271
O O2 0.114566 0.397853 0.522100
O O3 0.135084 0.307961 0.310845
O O4 0.033015 0.339121 0.362717
O O5 0.250000 0.675727 0.500000
O O6 0.157821 0.600682 0.490426
O O7 0.152183 0.729956 0.438314
O O8 0.171193 0.687045 0.703452
O O9 0.928208 0.509488 0.006885
O O10 0.940061 0.635575 0.020820
O O11 0.958710 0.086240 0.719742
O O12 0.881580 0.000000 0.750000
O O13 0.568813 0.291470 0.761871
#
# Coordination Sequence:
#
# PCOD9530479 Si02
#       6
#    16  16  16  16  16  16
#     4  11  20  33  55  81 115 152 185 232 286 344
#     4  10  20  37  59  80 108 148 190 244 299 340
#     4   9  21  34  51  79 109 144 191 238 280 338
#     4  10  21  35  52  75 110 152 193 230 273 334
#     4  10  20  34  53  80 115 151 185 228 283 342
#     4  10  21  36  56  85 113 143 189 238 289 353
#
# _framework density 22.146661999999999
#
# number of rings (size 3 to 8) (size 9 to 14) (size 15 to 20)
#    0.000    2.000    0.000    3.500    0.000    7.333 
#    0.000    6.667    0.000   24.000    0.000    0.000 
#    0.000    0.000    0.000    0.000    0.000    0.000 
#
# Total GULP energy -267267.442635 kJ/mol
# GULP energy per Si atom -5568.071722 kJ/mol
# Density = 2.209626 g / cm^3
# Si number density = 22.146662 Si / 1000 Ang^3
#
#
#
# Elastic Constant Matrix: (Units=GPa)
#
#
# Indices 1 2 3 4 5 6 
#
# 1 38.1820 8.0211 1.6065 0.0000 0.0000 0.0000
# 2 8.0211 66.6922 27.5513 0.0000 0.0000 0.0000
# 3 1.6065 27.5513 133.0626 0.0000 0.0000 0.0000
# 4 0.0000 0.0000 0.0000 59.5521 0.0000 0.0000
# 5 0.0000 0.0000 0.0000 0.0000 11.1941 0.0000
# 6 0.0000 0.0000 0.0000 0.0000 0.0000 5.8421
#
#
#
# Elastic Compliance Matrix: (Units=1/GPa)
#
#
# Indices 1 2 3 4 5 6 
#
# 1 0.026887 -0.003389 0.000377 0.000000 0.000000 0.000000
# 2 -0.003389 0.016824 -0.003443 0.000000 0.000000 0.000000
# 3 0.000377 -0.003443 0.008224 0.000000 0.000000 0.000000
# 4 0.000000 0.000000 0.000000 0.016792 0.000000 0.000000
# 5 0.000000 0.000000 0.000000 0.000000 0.089333 0.000000
# 6 0.000000 0.000000 0.000000 0.000000 0.000000 0.171170
#
#
# Mechanical properties :
#
#
# Convention : Reuss Voigt Hill
#
# Bulk Modulus (GPa) = 25.62500 34.69940 30.16220
# Shear Modulus (GPa) = 14.07868 28.70152 21.39010
#
# Velocity S-wave (km/s) = 2.52405 3.60387 3.11117
# Velocity P-wave (km/s) = 4.48220 5.74623 5.15312
#
# Compressibility (1/GPa) = 0.03902438
#
# Stress axis : x y z
#
# Youngs Moduli (GPa) = 37.19332 59.43857 121.60260
#
# Poissons Ratio (x) = 0.20147 -0.04587
# Poissons Ratio (y) = 0.12607 0.41863
# Poissons Ratio (z) = -0.01403 0.20462
#
# Static dielectric constant tensor:
#      x y z
#    x 1.803890 0.000000 0.000000 
#    y 0.000000 1.910320 0.000000 
#    z 0.000000 0.000000 1.899840 
# 
# From -- ./inp_files/7804.got.cif
#   From: 2010.05.17/outbox.cif.g08.bks.cpg/sg73_4_cif.got.tgz:7804.got - 2010.06.03 17:35:07.
