data_PCOD9530326
_publ_section_title
;
Structure prediction by ZEFSAII (Michael W. Deem and Ramdas Pophale) SiO2 
 PCOD9530326
Probable space group: I B C A 
;
_chemical_formula_sum "Si O2"
_cell_formula_units_Z 120
_cell_length_a 27.242071
_cell_length_b 23.887464
_cell_length_c 8.454064
_cell_angle_alpha 90.000000
_cell_angle_beta 90.000000
_cell_angle_gamma 90.000000
_cell_volume 5501.431342
_symmetry_space_group_name_H-M "I B C A "
_symmetry_group_IT_number 73
_symmetry_cell_setting 'orthorhombic'
loop_
_space_group_symop_operation_xyz
x,y,z
-x,1/2-y,z
x,-y,1/2-z
1/2-x,y,-z
-x,-y,-z
x,1/2+y,-z
-x,y,1/2+z
1/2+x,-y,z
1/2+x,1/2+y,1/2+z
1/2-x,-y,1/2+z
1/2+x,1/2-y,-z
-x,1/2+y,1/2-z
1/2-x,1/2-y,1/2-z
1/2+x,y,1/2-z
1/2-x,1/2+y,z
x,1/2-y,1/2+z
loop_
_atom_site_type_symbol
_atom_site_label
_atom_site_fract_x
_atom_site_fract_y
_atom_site_fract_z
Si Si1 0.253775 0.937687 0.192567
Si Si2 0.146507 0.740371 0.865884
Si Si3 0.979881 0.122796 0.907107
Si Si4 0.250000 0.227631 0.500000
Si Si5 0.561362 0.064476 0.791402
Si Si6 0.317037 0.854087 0.837511
Si Si7 0.154306 0.135872 0.702036
Si Si8 0.458465 0.296280 0.367169
O O1 0.202269 0.910109 0.242385
O O2 0.298249 0.899215 0.253600
O O3 0.260313 0.000000 0.250000
O O4 0.250000 0.936010 0.000000
O O5 0.149702 0.684356 0.766208
O O6 0.149775 0.798082 0.765680
O O7 0.090835 0.734988 0.929914
O O8 0.199003 0.741875 0.959159
O O9 0.952036 0.165184 0.789345
O O10 0.012706 0.081728 0.801852
O O11 0.948673 0.084625 0.027964
O O12 0.017138 0.162170 0.005796
O O13 0.268125 0.184750 0.635386
O O14 0.606895 0.103102 0.740518
O O15 0.572190 0.000000 0.750000
O O16 0.340436 0.863933 0.009341
O O17 0.500000 0.250000 0.330154
#
# Coordination Sequence:
#
# PCOD9530326 Si02
#       8
#    16  16  16   8  16  16  16  16
#     4  10  20  40  59  81 115 158 203 251 302 364
#     4  11  21  36  61  90 125 164 204 261 323 394
#     4  10  23  41  60  89 128 163 214 270 326 390
#     4  10  20  34  56  86 124 162 202 252 318 396
#     4  11  22  40  64  90 118 167 215 269 324 382
#     4  10  19  39  56  83 122 161 199 251 320 378
#     4  10  21  36  60  86 117 159 205 255 311 385
#     4  11  23  40  62  94 130 171 214 266 335 402
#
# _framework density 21.812504000000001
#
# number of rings (size 3 to 8) (size 9 to 14) (size 15 to 20)
#    0.000    1.600    3.333    4.000    0.000    5.333 
#    1.200    2.667    0.000    4.000    0.000    0.000 
#    0.000    0.000    0.000    0.000    0.000    0.000 
#
# Total GULP energy -334552.206219 kJ/mol
# GULP energy per Si atom -5575.870104 kJ/mol
# Density = 2.176286 g / cm^3
# Si number density = 21.812504 Si / 1000 Ang^3
#
#
#
# Elastic Constant Matrix: (Units=GPa)
#
#
# Indices 1 2 3 4 5 6 
#
# 1 123.1178 41.5314 19.8638 0.0000 0.0000 0.0000
# 2 41.5314 113.7686 14.6874 0.0000 0.0000 0.0000
# 3 19.8638 14.6874 34.8203 0.0000 0.0000 0.0000
# 4 0.0000 0.0000 0.0000 20.5836 0.0000 0.0000
# 5 0.0000 0.0000 0.0000 0.0000 18.7780 0.0000
# 6 0.0000 0.0000 0.0000 0.0000 0.0000 21.2288
#
#
#
# Elastic Compliance Matrix: (Units=1/GPa)
#
#
# Indices 1 2 3 4 5 6 
#
# 1 0.009846 -0.003034 -0.004337 0.000000 0.000000 0.000000
# 2 -0.003034 0.010231 -0.002585 0.000000 0.000000 0.000000
# 3 -0.004337 -0.002585 0.032283 0.000000 0.000000 0.000000
# 4 0.000000 0.000000 0.000000 0.048582 0.000000 0.000000
# 5 0.000000 0.000000 0.000000 0.000000 0.053254 0.000000
# 6 0.000000 0.000000 0.000000 0.000000 0.000000 0.047106
#
#
# Mechanical properties :
#
#
# Convention : Reuss Voigt Hill
#
# Bulk Modulus (GPa) = 30.81802 47.09689 38.95746
# Shear Modulus (GPa) = 21.54906 25.15970 23.35438
#
# Velocity S-wave (km/s) = 3.14653 3.39994 3.27569
# Velocity P-wave (km/s) = 5.23070 6.08698 5.67501
#
# Compressibility (1/GPa) = 0.03244854
#
# Stress axis : x y z
#
# Youngs Moduli (GPa) = 101.56895 97.74115 30.97610
#
# Poissons Ratio (x) = 0.29657 0.13433
# Poissons Ratio (y) = 0.30819 0.08006
# Poissons Ratio (z) = 0.44047 0.25262
#
# Static dielectric constant tensor:
#      x y z
#    x 1.839870 0.000000 0.000000 
#    y 0.000000 1.801360 0.000000 
#    z 0.000000 0.000000 1.859360 
# 
# From -- ./inp_files/7380.got.cif
#   From: 2010.05.17/outbox.cif.g08.bks.cpg/sg73_4_cif.got.tgz:7380.got - 2010.06.03 17:35:07.
