data_PCOD9530232
_publ_section_title
;
Structure prediction by ZEFSAII (Michael W. Deem and Ramdas Pophale) SiO2 
 PCOD9530232
Probable space group: I B C A 
;
_chemical_formula_sum "Si O2"
_cell_formula_units_Z 120
_cell_length_a 15.184533
_cell_length_b 28.127755
_cell_length_c 13.304860
_cell_angle_alpha 90.000000
_cell_angle_beta 90.000000
_cell_angle_gamma 90.000000
_cell_volume 5682.596499
_symmetry_space_group_name_H-M "I B C A "
_symmetry_group_IT_number 73
_symmetry_cell_setting 'orthorhombic'
loop_
_space_group_symop_operation_xyz
x,y,z
-x,1/2-y,z
x,-y,1/2-z
1/2-x,y,-z
-x,-y,-z
x,1/2+y,-z
-x,y,1/2+z
1/2+x,-y,z
1/2+x,1/2+y,1/2+z
1/2-x,-y,1/2+z
1/2+x,1/2-y,-z
-x,1/2+y,1/2-z
1/2-x,1/2-y,1/2-z
1/2+x,y,1/2-z
1/2-x,1/2+y,z
x,1/2-y,1/2+z
loop_
_atom_site_type_symbol
_atom_site_label
_atom_site_fract_x
_atom_site_fract_y
_atom_site_fract_z
Si Si1 0.661245 0.368593 0.455684
Si Si2 0.406239 0.871146 0.395265
Si Si3 0.229285 0.500000 0.250000
Si Si4 0.986527 0.305637 0.047357
Si Si5 0.629706 0.024594 0.956463
Si Si6 0.752319 0.608954 0.749868
Si Si7 0.562951 0.136031 0.266904
Si Si8 0.433857 0.946655 0.569427
O O1 0.750000 0.346727 0.500000
O O2 0.576026 0.336346 0.470386
O O3 0.651970 0.422594 0.496511
O O4 0.679362 0.379628 0.338996
O O5 0.417199 0.825301 0.466162
O O6 0.309262 0.876918 0.347917
O O7 0.484621 0.869146 0.312858
O O8 0.425812 0.915274 0.468607
O O9 0.176386 0.506307 0.355615
O O10 0.270485 0.447171 0.255370
O O11 0.000000 0.250000 0.037320
O O12 0.956120 0.320068 0.159107
O O13 0.528326 0.028837 0.923909
O O14 0.636502 0.988160 0.049404
O O15 0.662871 0.637495 0.772628
O O16 0.567242 0.090185 0.340060
#
# Coordination Sequence:
#
# PCOD9530232 Si02
#       8
#    16  16   8  16  16  16  16  16
#     4  11  22  43  66  93 131 170 219 268 326 392
#     4  11  21  45  66  91 136 171 215 274 334 386
#     4  10  20  36  56  92 140 176 222 262 304 394
#     4  11  25  47  71  95 124 170 221 280 343 400
#     4  10  19  36  58  92 129 180 214 269 308 384
#     4  11  23  39  64  99 136 177 217 265 328 392
#     4  11  23  44  67  94 135 174 215 276 333 387
#     4  10  21  34  62  94 127 176 225 252 321 392
#
# _framework density 21.117107000000001
#
# number of rings (size 3 to 8) (size 9 to 14) (size 15 to 20)
#    0.000    1.333    5.333    1.600    0.000    4.800 
#    4.800    0.667    0.000    0.000    0.000    0.000 
#    0.000    0.000    0.000    0.000    0.000    0.000 
#
# Total GULP energy -334880.617032 kJ/mol
# GULP energy per Si atom -5581.343617 kJ/mol
# Density = 2.106904 g / cm^3
# Si number density = 21.117107 Si / 1000 Ang^3
#
#
#
# Elastic Constant Matrix: (Units=GPa)
#
#
# Indices 1 2 3 4 5 6 
#
# 1 65.0046 14.3489 -3.3146 0.0000 0.0000 0.0000
# 2 14.3489 121.1154 15.9776 -0.0001 0.0000 0.0000
# 3 -3.3146 15.9776 33.1759 -0.0002 0.0000 0.0000
# 4 0.0000 -0.0001 -0.0002 7.4614 0.0000 0.0000
# 5 0.0000 0.0000 0.0000 0.0000 25.3135 0.0000
# 6 0.0000 0.0000 0.0000 0.0000 0.0000 11.1016
#
#
#
# Elastic Compliance Matrix: (Units=1/GPa)
#
#
# Indices 1 2 3 4 5 6 
#
# 1 0.016017 -0.002252 0.002685 0.000000 0.000000 0.000000
# 2 -0.002252 0.009133 -0.004624 0.000000 0.000000 0.000000
# 3 0.002685 -0.004624 0.032637 0.000001 0.000000 0.000000
# 4 0.000000 0.000000 0.000001 0.134023 0.000000 0.000000
# 5 0.000000 0.000000 0.000000 0.000000 0.039505 0.000000
# 6 0.000000 0.000000 0.000000 0.000000 0.000000 0.090077
#
#
# Mechanical properties :
#
#
# Convention : Reuss Voigt Hill
#
# Bulk Modulus (GPa) = 20.24013 30.36885 25.30449
# Shear Modulus (GPa) = 14.44072 21.59423 18.01747
#
# Velocity S-wave (km/s) = 2.61787 3.20127 2.92416
# Velocity P-wave (km/s) = 4.32934 5.29873 4.83837
#
# Compressibility (1/GPa) = 0.04940680
#
# Stress axis : x y z
#
# Youngs Moduli (GPa) = 62.43180 109.48928 30.63980
#
# Poissons Ratio (x) = 0.24655 -0.08226
# Poissons Ratio (y) = 0.14058 0.14167
# Poissons Ratio (z) = -0.16761 0.50623
#
# Static dielectric constant tensor:
#      x y z
#    x 1.831860 0.000000 0.000000 
#    y 0.000000 1.749060 0.000000 
#    z 0.000000 0.000000 1.825640 
# 
# From -- ./inp_files/17492.got.cif
#   From: 2010.05.17/outbox.cif.g08.bks.cpg/sg73_9_cif.got.tgz:17492.got - 2010.06.03 17:35:07.
