data_PCOD9530224
_publ_section_title
;
Structure prediction by ZEFSAII (Michael W. Deem and Ramdas Pophale) SiO2 
 PCOD9530224
Probable space group: I B C A 
;
_chemical_formula_sum "Si O2"
_cell_formula_units_Z 96
_cell_length_a 8.413684
_cell_length_b 25.120107
_cell_length_c 20.516068
_cell_angle_alpha 90.000000
_cell_angle_beta 90.000000
_cell_angle_gamma 90.000000
_cell_volume 4336.125182
_symmetry_space_group_name_H-M "I B C A "
_symmetry_group_IT_number 73
_symmetry_cell_setting 'orthorhombic'
loop_
_space_group_symop_operation_xyz
x,y,z
-x,1/2-y,z
x,-y,1/2-z
1/2-x,y,-z
-x,-y,-z
x,1/2+y,-z
-x,y,1/2+z
1/2+x,-y,z
1/2+x,1/2+y,1/2+z
1/2-x,-y,1/2+z
1/2+x,1/2-y,-z
-x,1/2+y,1/2-z
1/2-x,1/2-y,1/2-z
1/2+x,y,1/2-z
1/2-x,1/2+y,z
x,1/2-y,1/2+z
loop_
_atom_site_type_symbol
_atom_site_label
_atom_site_fract_x
_atom_site_fract_y
_atom_site_fract_z
Si Si1 0.689864 0.634288 0.636566
Si Si2 0.041240 0.951298 0.666191
Si Si3 0.236217 0.674158 0.722406
Si Si4 0.915150 0.429256 0.687756
Si Si5 0.567659 0.443789 0.526179
Si Si6 0.500000 0.750000 0.266708
Si Si7 0.750000 0.129548 0.500000
O O1 0.827617 0.591781 0.648854
O O2 0.689797 0.669100 0.701305
O O3 0.532735 0.598239 0.637197
O O4 0.720316 0.660533 0.567217
O O5 0.998218 0.937180 0.741247
O O6 0.922562 0.948725 0.605242
O O7 0.118117 0.010286 0.668475
O O8 0.284165 0.616401 0.697906
O O9 0.380377 0.715389 0.723268
O O10 0.090007 0.705248 0.690901
O O11 0.750000 0.433326 0.500000
O O12 0.500000 0.500000 0.500000
O O13 0.416136 0.404320 0.510267
#
# Coordination Sequence:
#
# PCOD9530224 Si02
#       7
#    16  16  16  16  16   8   8
#     4  10  20  39  56  88 123 165 199 253 301 367
#     4   9  22  34  52  81 126 165 208 256 300 359
#     4  10  20  37  61  88 119 150 196 250 321 371
#     4  10  19  36  53  87 119 162 204 253 312 367
#     4  11  21  38  54  77 113 173 224 254 291 352
#     4  10  20  38  60  88 118 148 190 256 318 378
#     4  10  22  40  60  82 122 164 216 256 298 360
#
# _framework density 22.139582000000001
#
# number of rings (size 3 to 8) (size 9 to 14) (size 15 to 20)
#    0.000    2.000    2.500    1.000    2.333    5.333 
#    6.000    0.000    0.000    1.000    0.000    0.000 
#    0.000    0.000    0.000    0.000    0.000    0.000 
#
# Total GULP energy -267409.407305 kJ/mol
# GULP energy per Si atom -5571.029319 kJ/mol
# Density = 2.208919 g / cm^3
# Si number density = 22.139582 Si / 1000 Ang^3
#
#
#
# Elastic Constant Matrix: (Units=GPa)
#
#
# Indices 1 2 3 4 5 6 
#
# 1 81.8771 13.3442 9.0856 0.0000 0.0000 0.0000
# 2 13.3442 81.4438 11.0285 0.0000 0.0000 0.0000
# 3 9.0856 11.0285 119.4888 0.0000 0.0000 0.0000
# 4 0.0000 0.0000 0.0000 -10.0645 0.0000 0.0000
# 5 0.0000 0.0000 0.0000 0.0000 14.6337 0.0000
# 6 0.0000 0.0000 0.0000 0.0000 0.0000 19.5441
#
#
#
# Elastic Compliance Matrix: (Units=1/GPa)
#
#
# Indices 1 2 3 4 5 6 
#
# 1 0.012620 -0.001962 -0.000778 0.000000 0.000000 0.000000
# 2 -0.001962 0.012739 -0.001027 0.000000 0.000000 0.000000
# 3 -0.000778 -0.001027 0.008523 0.000000 0.000000 0.000000
# 4 0.000000 0.000000 0.000000 -0.099359 0.000000 0.000000
# 5 0.000000 0.000000 0.000000 0.000000 0.068335 0.000000
# 6 0.000000 0.000000 0.000000 0.000000 0.000000 0.051166
#
#
# Mechanical properties :
#
#
# Convention : Reuss Voigt Hill
#
# Bulk Modulus (GPa) = 37.95510 38.85848 38.40679
# Shear Modulus (GPa) = 71.08272 21.44609 46.26440
#
# Velocity S-wave (km/s) = 5.67242 3.11573 4.57625
# Velocity P-wave (km/s) = 7.75129 5.52570 6.73112
#
# Compressibility (1/GPa) = 0.02634692
#
# Stress axis : x y z
#
# Youngs Moduli (GPa) = 79.24167 78.49955 117.33055
#
# Poissons Ratio (x) = 0.15404 0.09134
# Poissons Ratio (y) = 0.15549 0.12045
# Poissons Ratio (z) = 0.06169 0.08059
#
# Static dielectric constant tensor:
#      x y z
#    x 1.959440 0.000000 0.000000 
#    y 0.000000 1.789750 0.000000 
#    z 0.000000 0.000000 1.920250 
# 
# From -- ./inp_files/24925.got.cif
#   From: 2010.05.17/outbox.cif.g08.bks.cpg/sg73_13_cif.got.tgz:24925.got - 2010.06.03 17:35:07.
