data_PCOD9530095
_publ_section_title
;
Structure prediction by ZEFSAII (Michael W. Deem and Ramdas Pophale) SiO2 
 PCOD9530095
Probable space group: I B C A 
;
_chemical_formula_sum "Si O2"
_cell_formula_units_Z 88
_cell_length_a 5.301273
_cell_length_b 26.306096
_cell_length_c 30.018875
_cell_angle_alpha 90.000000
_cell_angle_beta 90.000000
_cell_angle_gamma 90.000000
_cell_volume 4186.306122
_symmetry_space_group_name_H-M "I B C A "
_symmetry_group_IT_number 73
_symmetry_cell_setting 'orthorhombic'
loop_
_space_group_symop_operation_xyz
x,y,z
-x,1/2-y,z
x,-y,1/2-z
1/2-x,y,-z
-x,-y,-z
x,1/2+y,-z
-x,y,1/2+z
1/2+x,-y,z
1/2+x,1/2+y,1/2+z
1/2-x,-y,1/2+z
1/2+x,1/2-y,-z
-x,1/2+y,1/2-z
1/2-x,1/2-y,1/2-z
1/2+x,y,1/2-z
1/2-x,1/2+y,z
x,1/2-y,1/2+z
loop_
_atom_site_type_symbol
_atom_site_label
_atom_site_fract_x
_atom_site_fract_y
_atom_site_fract_z
Si Si1 0.079404 0.632673 0.402535
Si Si2 0.287439 0.556789 0.768922
Si Si3 0.501954 0.807897 0.778819
Si Si4 0.750000 0.861095 0.500000
Si Si5 0.000000 0.750000 0.919640
Si Si6 0.076725 0.107587 0.852766
Si Si7 0.250000 0.703699 0.000000
O O1 0.165039 0.616053 0.452403
O O2 0.071656 0.695331 0.397933
O O3 0.296671 0.608572 0.372167
O O4 0.800434 0.614737 0.388359
O O5 0.258090 0.500000 0.750000
O O6 0.517257 0.581143 0.741272
O O7 0.360562 0.560340 0.820338
O O8 0.500000 0.750000 0.795932
O O9 0.223971 0.813707 0.757763
O O10 0.575332 0.845231 0.818521
O O11 0.497197 0.829208 0.491280
O O12 0.784896 0.764724 0.955118
#
# Coordination Sequence:
#
# PCOD9530095 Si02
#       7
#    16  16  16   8   8  16   8
#     4  11  24  33  55  77 119 158 205 255 288 344
#     4  10  21  40  67  91 117 146 178 234 318 374
#     4  10  21  36  53  70 105 154 193 227 284 352
#     4  10  21  40  50  76 110 164 207 252 311 334
#     4  10  20  34  48  74 104 158 212 260 296 316
#     4  12  23  36  55  88 115 148 197 254 292 349
#     4  10  19  32  56  66  98 150 225 264 289 346
#
# _framework density 21.02092
#
# number of rings (size 3 to 8) (size 9 to 14) (size 15 to 20)
#    0.000    1.455    0.000    7.636    2.545    2.909 
#    0.000    0.000    0.000    0.000    0.000    0.000 
#    0.000   58.182    0.000    0.000    0.000    0.000 
#
# Total GULP energy -245304.548693 kJ/mol
# GULP energy per Si atom -5575.103379 kJ/mol
# Density = 2.097308 g / cm^3
# Si number density = 21.020920 Si / 1000 Ang^3
#
#
#
# Elastic Constant Matrix: (Units=GPa)
#
#
# Indices 1 2 3 4 5 6 
#
# 1 127.1803 -0.2838 4.6691 0.0000 0.0000 0.0000
# 2 -0.2838 56.0409 11.7834 0.0000 0.0000 0.0000
# 3 4.6691 11.7834 63.1128 0.0000 0.0000 0.0000
# 4 0.0000 0.0000 0.0000 17.4076 0.0000 0.0000
# 5 0.0000 0.0000 0.0000 0.0000 43.9333 0.0000
# 6 0.0000 0.0000 0.0000 0.0000 0.0000 12.6186
#
#
#
# Elastic Compliance Matrix: (Units=1/GPa)
#
#
# Indices 1 2 3 4 5 6 
#
# 1 0.007886 0.000169 -0.000615 0.000000 0.000000 0.000000
# 2 0.000169 0.018577 -0.003481 0.000000 0.000000 0.000000
# 3 -0.000615 -0.003481 0.016540 0.000000 0.000000 0.000000
# 4 0.000000 0.000000 0.000000 0.057446 0.000000 0.000000
# 5 0.000000 0.000000 0.000000 0.000000 0.022762 0.000000
# 6 0.000000 0.000000 0.000000 0.000000 0.000000 0.079248
#
#
# Mechanical properties :
#
#
# Convention : Reuss Voigt Hill
#
# Bulk Modulus (GPa) = 28.44994 30.96348 29.70671
# Shear Modulus (GPa) = 22.51961 30.13625 26.32793
#
# Velocity S-wave (km/s) = 3.27662 3.79044 3.54286
# Velocity P-wave (km/s) = 5.28000 5.82395 5.55863
#
# Compressibility (1/GPa) = 0.03514946
#
# Stress axis : x y z
#
# Youngs Moduli (GPa) = 126.81011 53.83037 60.45932
#
# Poissons Ratio (x) = -0.00911 0.03718
# Poissons Ratio (y) = -0.02146 0.21045
# Poissons Ratio (z) = 0.07799 0.18738
#
# Static dielectric constant tensor:
#      x y z
#    x 2.179530 0.000000 0.000000 
#    y 0.000000 1.999850 0.000000 
#    z 0.000000 0.000000 1.804390 
# 
# From -- ./inp_files/30971.got.cif
#   From: 2010.05.17/outbox.cif.g08.bks.cpg/sg73_16_cif.got.tgz:30971.got - 2010.06.03 17:35:07.
