data_PCOD9530123
_publ_section_title
;
Structure prediction by ZEFSAII (Michael W. Deem and Ramdas Pophale) SiO2 
 PCOD9530123
Probable space group: I B C A 
;
_chemical_formula_sum "Si O2"
_cell_formula_units_Z 120
_cell_length_a 21.060930
_cell_length_b 10.749579
_cell_length_c 21.608938
_cell_angle_alpha 90.000000
_cell_angle_beta 90.000000
_cell_angle_gamma 90.000000
_cell_volume 4892.179955
_symmetry_space_group_name_H-M "I B C A "
_symmetry_group_IT_number 73
_symmetry_cell_setting 'orthorhombic'
loop_
_space_group_symop_operation_xyz
x,y,z
-x,1/2-y,z
x,-y,1/2-z
1/2-x,y,-z
-x,-y,-z
x,1/2+y,-z
-x,y,1/2+z
1/2+x,-y,z
1/2+x,1/2+y,1/2+z
1/2-x,-y,1/2+z
1/2+x,1/2-y,-z
-x,1/2+y,1/2-z
1/2-x,1/2-y,1/2-z
1/2+x,y,1/2-z
1/2-x,1/2+y,z
x,1/2-y,1/2+z
loop_
_atom_site_type_symbol
_atom_site_label
_atom_site_fract_x
_atom_site_fract_y
_atom_site_fract_z
Si Si1 0.337977 0.189712 0.660582
Si Si2 0.263122 0.393971 0.589404
Si Si3 0.400735 0.693548 0.647318
Si Si4 0.113267 0.507698 0.459335
Si Si5 0.280096 0.909288 0.198982
Si Si6 0.954065 0.346342 0.855762
Si Si7 0.381753 0.059064 0.905323
Si Si8 0.035857 0.000000 0.750000
O O1 0.295421 0.263221 0.609162
O O2 0.287720 0.151825 0.713029
O O3 0.393147 0.284681 0.677650
O O4 0.368692 0.066061 0.632966
O O5 0.312821 0.462943 0.543663
O O6 0.266642 0.490431 0.645896
O O7 0.188139 0.383136 0.578546
O O8 0.396194 0.637411 0.577136
O O9 0.329823 0.689133 0.674685
O O10 0.419589 0.836842 0.634476
O O11 0.433936 0.598694 0.697275
O O12 0.075728 0.423080 0.410837
O O13 0.090030 0.486050 0.528977
O O14 0.308364 0.000000 0.250000
O O15 0.993761 0.409529 0.800631
O O16 0.000000 0.250000 0.886816
#
# Coordination Sequence:
#
# PCOD9530123 Si02
#       8
#    16  16  16  16  16  16  16   8
#     4  10  22  37  56  93 127 164 213 262 312 367
#     4   9  19  35  50  88 128 169 205 249 308 374
#     4  10  20  36  62  92 128 170 204 243 316 397
#     4   9  21  37  61  88 121 170 208 254 319 373
#     4  10  19  33  56  85 127 172 206 247 310 383
#     4  10  23  47  70  88 121 162 219 271 326 374
#     4  11  21  36  59  93 133 163 209 257 312 385
#     4  10  22  46  70  88 122 172 206 252 332 396
#
# _framework density 24.528943000000002
#
# number of rings (size 3 to 8) (size 9 to 14) (size 15 to 20)
#    0.000    2.133    2.000    1.200    3.733    2.667 
#    3.600    0.667    0.000    0.000    0.000    0.000 
#    0.000    0.000    0.000    0.000    0.000    0.000 
#
# Total GULP energy -334226.181680 kJ/mol
# GULP energy per Si atom -5570.436361 kJ/mol
# Density = 2.447311 g / cm^3
# Si number density = 24.528943 Si / 1000 Ang^3
#
#
#
# Elastic Constant Matrix: (Units=GPa)
#
#
# Indices 1 2 3 4 5 6 
#
# 1 33.8582 5.6465 5.9679 0.0000 0.0000 0.0000
# 2 5.6465 99.8386 37.8791 0.0000 0.0000 0.0000
# 3 5.9679 37.8791 107.1657 0.0000 0.0000 0.0000
# 4 0.0000 0.0000 0.0000 17.9667 0.0000 0.0000
# 5 0.0000 0.0000 0.0000 0.0000 -3.8393 0.0000
# 6 0.0000 0.0000 0.0000 0.0000 0.0000 8.9076
#
#
#
# Elastic Compliance Matrix: (Units=1/GPa)
#
#
# Indices 1 2 3 4 5 6 
#
# 1 0.029957 -0.001226 -0.001235 0.000000 0.000000 0.000000
# 2 -0.001226 0.011618 -0.004038 0.000000 0.000000 0.000000
# 3 -0.001235 -0.004038 0.010827 0.000000 0.000000 0.000000
# 4 0.000000 0.000000 0.000000 0.055659 0.000000 0.000000
# 5 0.000000 0.000000 0.000000 0.000000 -0.260464 0.000000
# 6 0.000000 0.000000 0.000000 0.000000 0.000000 0.112263
#
#
# Mechanical properties :
#
#
# Convention : Reuss Voigt Hill
#
# Bulk Modulus (GPa) = 25.37789 37.76105 31.56947
# Shear Modulus (GPa) = -356.95114 17.36494 -169.79310
#
# Velocity S-wave (km/s) = -12.07635 2.66359 -8.32897
# Velocity P-wave (km/s) = 13.56770 4.98874 8.92174
#
# Compressibility (1/GPa) = 0.03940439
#
# Stress axis : x y z
#
# Youngs Moduli (GPa) = 33.38114 86.07663 92.35786
#
# Poissons Ratio (x) = 0.10550 0.11407
# Poissons Ratio (y) = 0.04091 0.37295
# Poissons Ratio (z) = 0.04123 0.34759
#
# Static dielectric constant tensor:
#      x y z
#    x 2.010670 0.000000 0.000000 
#    y 0.000000 2.005970 0.000000 
#    z 0.000000 0.000000 1.963260 
# 
# From -- ./inp_files/27357.got.cif
#   From: 2010.05.17/outbox.cif.g08.bks.cpg/sg73_14_cif.got.tgz:27357.got - 2010.06.03 17:35:07.
