data_PCOD9530192
_publ_section_title
;
Structure prediction by ZEFSAII (Michael W. Deem and Ramdas Pophale) SiO2 
 PCOD9530192
Probable space group: I B C A 
;
_chemical_formula_sum "Si O2"
_cell_formula_units_Z 96
_cell_length_a 26.828942
_cell_length_b 9.497906
_cell_length_c 18.471111
_cell_angle_alpha 90.000000
_cell_angle_beta 90.000000
_cell_angle_gamma 90.000000
_cell_volume 4706.785771
_symmetry_space_group_name_H-M "I B C A "
_symmetry_group_IT_number 73
_symmetry_cell_setting 'orthorhombic'
loop_
_space_group_symop_operation_xyz
x,y,z
-x,1/2-y,z
x,-y,1/2-z
1/2-x,y,-z
-x,-y,-z
x,1/2+y,-z
-x,y,1/2+z
1/2+x,-y,z
1/2+x,1/2+y,1/2+z
1/2-x,-y,1/2+z
1/2+x,1/2-y,-z
-x,1/2+y,1/2-z
1/2-x,1/2-y,1/2-z
1/2+x,y,1/2-z
1/2-x,1/2+y,z
x,1/2-y,1/2+z
loop_
_atom_site_type_symbol
_atom_site_label
_atom_site_fract_x
_atom_site_fract_y
_atom_site_fract_z
Si Si1 0.691772 0.802118 0.877418
Si Si2 0.147535 0.978395 0.979207
Si Si3 0.113683 0.720151 0.354249
Si Si4 0.626096 0.966732 0.360190
Si Si5 0.000000 0.250000 0.168779
Si Si6 0.835007 0.500000 0.750000
Si Si7 0.041046 0.000000 0.250000
Si Si8 0.750000 0.325816 0.500000
O O1 0.666817 0.656080 0.850767
O O2 0.740022 0.765657 0.927031
O O3 0.653321 0.877350 0.934121
O O4 0.696079 0.913094 0.811188
O O5 0.130139 0.856035 0.926609
O O6 0.117202 0.981160 0.053485
O O7 0.203063 0.928108 0.997619
O O8 0.138935 0.871731 0.339627
O O9 0.054599 0.743163 0.365760
O O10 0.130357 0.614053 0.290815
O O11 0.577740 0.936010 0.311306
O O12 0.994541 0.385636 0.217310
#
# Coordination Sequence:
#
# PCOD9530192 Si02
#       8
#    16  16  16  16   8   8   8   8
#     4  10  20  36  60  88 119 156 196 242 295 351
#     4  10  21  37  60  88 119 156 196 243 296 353
#     4  10  21  38  59  87 121 157 198 244 294 351
#     4  10  19  35  58  85 115 150 195 240 292 346
#     4  10  20  36  56  82 116 156 198 246 296 346
#     4  10  21  38  60  89 120 156 200 247 293 344
#     4  10  21  36  58  85 110 150 198 243 293 350
#     4  10  20  36  62  90 118 158 200 240 294 358
#
# _framework density 20.396086
#
# number of rings (size 3 to 8) (size 9 to 14) (size 15 to 20)
#    0.000    2.000    0.000    5.000    0.000    2.667 
#    0.000    7.500    0.000   29.000    0.000    0.000 
#    0.000    0.000    0.000    0.000    0.000    0.000 
#
# Total GULP energy -267467.658696 kJ/mol
# GULP energy per Si atom -5572.242889 kJ/mol
# Density = 2.034966 g / cm^3
# Si number density = 20.396086 Si / 1000 Ang^3
#
#
#
# Elastic Constant Matrix: (Units=GPa)
#
#
# Indices 1 2 3 4 5 6 
#
# 1 53.0132 21.4510 14.5870 0.0000 0.0000 0.0000
# 2 21.4510 111.0152 20.3336 0.0000 0.0000 0.0000
# 3 14.5870 20.3336 86.1205 0.0000 0.0000 0.0000
# 4 0.0000 0.0000 0.0000 19.1649 0.0000 0.0000
# 5 0.0000 0.0000 0.0000 0.0000 717.7746 0.0000
# 6 0.0000 0.0000 0.0000 0.0000 0.0000 27.4445
#
#
#
# Elastic Compliance Matrix: (Units=1/GPa)
#
#
# Indices 1 2 3 4 5 6 
#
# 1 0.021057 -0.003570 -0.002724 0.000000 0.000000 0.000000
# 2 -0.003570 0.010020 -0.001761 0.000000 0.000000 0.000000
# 3 -0.002724 -0.001761 0.012489 0.000000 0.000000 0.000000
# 4 0.000000 0.000000 0.000000 0.052179 0.000000 0.000000
# 5 0.000000 0.000000 0.000000 0.000000 0.001393 0.000000
# 6 0.000000 0.000000 0.000000 0.000000 0.000000 0.036437
#
#
# Mechanical properties :
#
#
# Convention : Reuss Voigt Hill
#
# Bulk Modulus (GPa) = 36.42124 40.32134 38.37129
# Shear Modulus (GPa) = 31.47881 165.79529 98.63705
#
# Velocity S-wave (km/s) = 3.93284 9.02576 6.96174
# Velocity P-wave (km/s) = 6.20635 11.33274 9.13646
#
# Compressibility (1/GPa) = 0.02745651
#
# Stress axis : x y z
#
# Youngs Moduli (GPa) = 47.48967 99.79892 80.07175
#
# Poissons Ratio (x) = 0.35627 0.21810
# Poissons Ratio (y) = 0.16953 0.14102
# Poissons Ratio (z) = 0.12935 0.17576
#
# Static dielectric constant tensor:
#      x y z
#    x 1.678800 0.000000 0.000000 
#    y 0.000000 1.741730 0.000000 
#    z 0.000000 0.000000 1.734430 
# 
# From -- ./inp_files/23892.got.cif
#   From: 2010.05.17/outbox.cif.g08.bks.cpg/sg73_12_cif.got.tgz:23892.got - 2010.06.03 17:35:07.
