data_PCOD9530644
_publ_section_title
;
Structure prediction by ZEFSAII (Michael W. Deem and Ramdas Pophale) SiO2 
 PCOD9530644
Probable space group: I B C A 
;
_chemical_formula_sum "Si O2"
_cell_formula_units_Z 80
_cell_length_a 14.281113
_cell_length_b 22.916381
_cell_length_c 11.167413
_cell_angle_alpha 90.000000
_cell_angle_beta 90.000000
_cell_angle_gamma 90.000000
_cell_volume 3654.775184
_symmetry_space_group_name_H-M "I B C A "
_symmetry_group_IT_number 73
_symmetry_cell_setting 'orthorhombic'
loop_
_space_group_symop_operation_xyz
x,y,z
-x,1/2-y,z
x,-y,1/2-z
1/2-x,y,-z
-x,-y,-z
x,1/2+y,-z
-x,y,1/2+z
1/2+x,-y,z
1/2+x,1/2+y,1/2+z
1/2-x,-y,1/2+z
1/2+x,1/2-y,-z
-x,1/2+y,1/2-z
1/2-x,1/2-y,1/2-z
1/2+x,y,1/2-z
1/2-x,1/2+y,z
x,1/2-y,1/2+z
loop_
_atom_site_type_symbol
_atom_site_label
_atom_site_fract_x
_atom_site_fract_y
_atom_site_fract_z
Si Si1 0.000000 0.250000 0.141613
Si Si2 0.469631 0.367209 0.507085
Si Si3 0.703523 0.893287 0.129691
Si Si4 0.196724 0.000000 0.750000
Si Si5 0.851991 0.579127 0.942470
Si Si6 0.854726 0.174347 0.264851
O O1 0.985619 0.304077 0.052695
O O2 0.910789 0.232369 0.225255
O O3 0.404954 0.395336 0.403092
O O4 0.562219 0.405270 0.528018
O O5 0.416122 0.356123 0.631071
O O6 0.738785 0.945947 0.211385
O O7 0.748720 0.833116 0.183239
O O8 0.750000 0.900720 0.000000
O O9 0.136057 0.021527 0.637858
O O10 0.853269 0.633768 0.851792
O O11 0.750000 0.574809 0.000000
#
# Coordination Sequence:
#
# PCOD9530644 Si02
#       6
#     8  16  16   8  16  16
#     4  10  20  36  60  90 122 158 198 246 304 370
#     4  10  21  39  61  86 119 159 204 250 304 371
#     4   9  19  37  57  83 118 156 199 248 300 361
#     4  10  20  38  60  88 124 158 198 252 310 368
#     4  10  22  39  61  89 121 157 202 252 304 368
#     4   9  20  38  60  88 123 156 197 251 301 360
#
# _framework density 21.88917
#
# number of rings (size 3 to 8) (size 9 to 14) (size 15 to 20)
#    0.000    2.400    0.000    1.200    0.000    8.000 
#    0.000   28.000    0.000    0.000    0.000    0.000 
#    0.000    0.000    0.000    0.000    0.000    0.000 
#
# Total GULP energy -222820.664592 kJ/mol
# GULP energy per Si atom -5570.516615 kJ/mol
# Density = 2.183935 g / cm^3
# Si number density = 21.889170 Si / 1000 Ang^3
#
#
#
# Elastic Constant Matrix: (Units=GPa)
#
#
# Indices 1 2 3 4 5 6 
#
# 1 65.6818 15.3212 0.1333 0.0001 0.0001 0.0001
# 2 15.3212 56.1541 -0.7958 0.0001 0.0001 0.0001
# 3 0.1333 -0.7958 59.6008 0.0004 0.0007 0.0001
# 4 0.0001 0.0001 0.0004 31.5156 0.0002 0.0000
# 5 0.0001 0.0001 0.0007 0.0002 -28.9646 0.0003
# 6 0.0001 0.0001 0.0001 0.0000 0.0003 54.1471
#
#
#
# Elastic Compliance Matrix: (Units=1/GPa)
#
#
# Indices 1 2 3 4 5 6 
#
# 1 0.016260 -0.004438 -0.000096 0.000000 0.000000 0.000000
# 2 -0.004438 0.019023 0.000264 0.000000 0.000000 0.000000
# 3 -0.000096 0.000264 0.016782 0.000000 0.000000 0.000000
# 4 0.000000 0.000000 0.000000 0.031730 0.000000 0.000000
# 5 0.000000 0.000000 0.000000 0.000000 -0.034525 0.000000
# 6 0.000000 0.000000 0.000000 0.000000 0.000000 0.018468
#
#
# Mechanical properties :
#
#
# Convention : Reuss Voigt Hill
#
# Bulk Modulus (GPa) = 22.97482 23.41714 23.19598
# Shear Modulus (GPa) = 55.07430 22.45815 38.76622
#
# Velocity S-wave (km/s) = 5.02147 3.20659 4.21292
# Velocity P-wave (km/s) = 6.64372 4.94276 5.85533
#
# Compressibility (1/GPa) = 0.04352591
#
# Stress axis : x y z
#
# Youngs Moduli (GPa) = 61.49942 52.56871 59.58756
#
# Poissons Ratio (x) = 0.23329 0.00570
# Poissons Ratio (y) = 0.27293 -0.01573
# Poissons Ratio (z) = 0.00588 -0.01387
#
# Static dielectric constant tensor:
#      x y z
#    x 1.918640 0.000000 0.000000 
#    y 0.000000 1.836440 0.000000 
#    z 0.000000 0.000000 1.811010 
# 
# From -- ./inp_files/10881.got.cif
#   From: 2010.05.17/outbox.cif.g08.bks.cpg/sg73_6_cif.got.tgz:10881.got - 2010.06.03 17:35:07.
