data_PCOD9530012
_publ_section_title
;
Structure prediction by ZEFSAII (Michael W. Deem and Ramdas Pophale) SiO2 
 PCOD9530012
Probable space group: I B C A 
;
_chemical_formula_sum "Si O2"
_cell_formula_units_Z 88
_cell_length_a 13.221311
_cell_length_b 13.974335
_cell_length_c 21.250158
_cell_angle_alpha 90.000000
_cell_angle_beta 90.000000
_cell_angle_gamma 90.000000
_cell_volume 3926.158559
_symmetry_space_group_name_H-M "I B C A "
_symmetry_group_IT_number 73
_symmetry_cell_setting 'orthorhombic'
loop_
_space_group_symop_operation_xyz
x,y,z
-x,1/2-y,z
x,-y,1/2-z
1/2-x,y,-z
-x,-y,-z
x,1/2+y,-z
-x,y,1/2+z
1/2+x,-y,z
1/2+x,1/2+y,1/2+z
1/2-x,-y,1/2+z
1/2+x,1/2-y,-z
-x,1/2+y,1/2-z
1/2-x,1/2-y,1/2-z
1/2+x,y,1/2-z
1/2-x,1/2+y,z
x,1/2-y,1/2+z
loop_
_atom_site_type_symbol
_atom_site_label
_atom_site_fract_x
_atom_site_fract_y
_atom_site_fract_z
Si Si1 0.686373 0.837428 0.062978
Si Si2 0.615956 0.127659 0.153935
Si Si3 0.259276 0.000000 0.750000
Si Si4 0.997114 0.982781 0.925516
Si Si5 0.693370 0.810773 0.805697
Si Si6 0.304743 0.877011 0.061803
O O1 0.594250 0.907026 0.080118
O O2 0.750064 0.829593 0.127599
O O3 0.651414 0.728635 0.047405
O O4 0.750000 0.866020 0.000000
O O5 0.661637 0.054758 0.204812
O O6 0.604920 0.235437 0.179039
O O7 0.711752 0.134987 0.107761
O O8 0.527564 0.076629 0.114990
O O9 0.187327 0.917245 0.721931
O O10 0.106334 0.939837 0.909830
O O11 0.000000 0.000000 0.000000
O O12 0.750000 0.750000 0.750000
O O13 0.250000 0.917442 0.000000
#
# Coordination Sequence:
#
# PCOD9530012 Si02
#       6
#    16  16   8  16  16  16
#     4  10  22  39  64  97 138 180 236 303 368 441
#     4  10  21  38  62  96 133 179 234 290 355 428
#     4  10  18  38  68  92 132 188 230 284 364 420
#     4  12  23  35  63  97 134 177 234 300 373 435
#     4   9  19  37  67 100 135 192 238 285 359 439
#     4  10  21  40  59  91 133 179 232 284 362 437
#
# _framework density 22.413765000000001
#
# number of rings (size 3 to 8) (size 9 to 14) (size 15 to 20)
#    0.000    1.818    3.636    0.545    2.545    0.000 
#    0.000    0.909    0.000    2.182    0.000    0.000 
#    0.000    0.000    0.000    0.000    0.000    0.000 
#
# Total GULP energy -245357.922183 kJ/mol
# GULP energy per Si atom -5576.316413 kJ/mol
# Density = 2.236275 g / cm^3
# Si number density = 22.413765 Si / 1000 Ang^3
#
#
#
# Elastic Constant Matrix: (Units=GPa)
#
#
# Indices 1 2 3 4 5 6 
#
# 1 99.5917 55.6824 26.7447 0.0000 0.0000 0.0000
# 2 55.6824 190.0203 52.0247 0.0000 0.0000 0.0000
# 3 26.7447 52.0247 106.9664 0.0000 0.0000 0.0000
# 4 0.0000 0.0000 0.0000 40.4542 0.0000 0.0000
# 5 0.0000 0.0000 0.0000 0.0000 16.8172 0.0000
# 6 0.0000 0.0000 0.0000 0.0000 0.0000 51.9458
#
#
#
# Elastic Compliance Matrix: (Units=1/GPa)
#
#
# Indices 1 2 3 4 5 6 
#
# 1 0.012218 -0.003165 -0.001515 0.000000 0.000000 0.000000
# 2 -0.003165 0.006891 -0.002560 0.000000 0.000000 0.000000
# 3 -0.001515 -0.002560 0.010973 0.000000 0.000000 0.000000
# 4 0.000000 0.000000 0.000000 0.024719 0.000000 0.000000
# 5 0.000000 0.000000 0.000000 0.000000 0.059463 0.000000
# 6 0.000000 0.000000 0.000000 0.000000 0.000000 0.019251
#
#
# Mechanical properties :
#
#
# Convention : Reuss Voigt Hill
#
# Bulk Modulus (GPa) = 64.10257 73.94245 69.02251
# Shear Modulus (GPa) = 32.63793 39.31854 35.97824
#
# Velocity S-wave (km/s) = 3.82010 4.19288 4.01082
# Velocity P-wave (km/s) = 6.93681 7.51676 7.23260
#
# Compressibility (1/GPa) = 0.01560000
#
# Stress axis : x y z
#
# Youngs Moduli (GPa) = 81.84865 145.11520 91.13482
#
# Poissons Ratio (x) = 0.45934 0.13809
# Poissons Ratio (y) = 0.25908 0.23332
# Poissons Ratio (z) = 0.12402 0.37152
#
# Static dielectric constant tensor:
#      x y z
#    x 1.788210 0.000000 0.000000 
#    y 0.000000 1.946720 0.000000 
#    z 0.000000 0.000000 1.840800 
# 
# From -- ./inp_files/29471.got.cif
#   From: 2010.05.17/outbox.cif.g08.bks.cpg/sg73_15_cif.got.tgz:29471.got - 2010.06.03 17:35:07.
