data_PCOD9530493
_publ_section_title
;
Structure prediction by ZEFSAII (Michael W. Deem and Ramdas Pophale) SiO2 
 PCOD9530493
Probable space group: I B C A 
;
_chemical_formula_sum "Si O2"
_cell_formula_units_Z 72
_cell_length_a 11.568415
_cell_length_b 13.512390
_cell_length_c 17.322303
_cell_angle_alpha 90.000000
_cell_angle_beta 90.000000
_cell_angle_gamma 90.000000
_cell_volume 2707.769315
_symmetry_space_group_name_H-M "I B C A "
_symmetry_group_IT_number 73
_symmetry_cell_setting 'orthorhombic'
loop_
_space_group_symop_operation_xyz
x,y,z
-x,1/2-y,z
x,-y,1/2-z
1/2-x,y,-z
-x,-y,-z
x,1/2+y,-z
-x,y,1/2+z
1/2+x,-y,z
1/2+x,1/2+y,1/2+z
1/2-x,-y,1/2+z
1/2+x,1/2-y,-z
-x,1/2+y,1/2-z
1/2-x,1/2-y,1/2-z
1/2+x,y,1/2-z
1/2-x,1/2+y,z
x,1/2-y,1/2+z
loop_
_atom_site_type_symbol
_atom_site_label
_atom_site_fract_x
_atom_site_fract_y
_atom_site_fract_z
Si Si1 0.675462 0.142072 0.658572
Si Si2 0.658221 0.293969 0.335126
Si Si3 0.500000 0.750000 0.455070
Si Si4 0.010865 0.969314 0.835871
Si Si5 0.337410 0.413326 0.059880
O O1 0.804160 0.182056 0.642104
O O2 0.655586 0.190839 0.742377
O O3 0.585033 0.186104 0.598366
O O4 0.634793 0.028970 0.662275
O O5 0.542452 0.355881 0.351004
O O6 0.764180 0.354031 0.375641
O O7 0.411117 0.669252 0.488323
O O8 0.965470 0.000000 0.750000
O O9 0.925340 0.014064 0.898689
O O10 0.250000 0.463136 0.000000
#
# Coordination Sequence:
#
# PCOD9530493 Si02
#       5
#    16  16   8  16  16
#     4   8  15  30  53  81 109 145 196 249 300 357
#     4   9  17  31  53  79 112 151 194 246 303 355
#     4   8  16  34  56  80 112 146 194 258 312 354
#     4   9  18  32  54  85 119 158 204 251 301 360
#     4  10  20  34  56  83 119 162 201 250 311 374
#
# _framework density 26.590152
#
# number of rings (size 3 to 8) (size 9 to 14) (size 15 to 20)
#    0.000    3.111    0.000    0.000    0.000    3.556 
#    0.000    3.333    0.000   20.000    0.000    0.000 
#    0.000    0.000    0.000   10.000    0.000    6.444 
#
# Total GULP energy -200883.337877 kJ/mol
# GULP energy per Si atom -5580.092719 kJ/mol
# Density = 2.652963 g / cm^3
# Si number density = 26.590152 Si / 1000 Ang^3
#
#
#
# Elastic Constant Matrix: (Units=GPa)
#
#
# Indices 1 2 3 4 5 6 
#
# 1 159.2757 51.6706 29.8283 0.0000 0.0000 0.0000
# 2 51.6706 84.2895 32.4787 0.0000 0.0000 0.0000
# 3 29.8283 32.4787 90.9463 0.0000 0.0000 0.0000
# 4 0.0000 0.0000 0.0000 8.8563 0.0000 0.0000
# 5 0.0000 0.0000 0.0000 0.0000 -52.6615 0.0000
# 6 0.0000 0.0000 0.0000 0.0000 0.0000 19.8881
#
#
#
# Elastic Compliance Matrix: (Units=1/GPa)
#
#
# Indices 1 2 3 4 5 6 
#
# 1 0.007915 -0.004466 -0.001001 0.000000 0.000000 0.000000
# 2 -0.004466 0.016277 -0.004348 0.000000 0.000000 0.000000
# 3 -0.001001 -0.004348 0.012877 0.000000 0.000000 0.000000
# 4 0.000000 0.000000 0.000000 0.112914 0.000000 0.000000
# 5 0.000000 0.000000 0.000000 0.000000 -0.018989 0.000000
# 6 0.000000 0.000000 0.000000 0.000000 0.000000 0.050281
#
#
# Mechanical properties :
#
#
# Convention : Reuss Voigt Hill
#
# Bulk Modulus (GPa) = 57.34565 62.49632 59.92099
# Shear Modulus (GPa) = 24.18757 9.91884 17.05321
#
# Velocity S-wave (km/s) = 3.01930 1.93349 2.53521
# Velocity P-wave (km/s) = 5.81104 5.34220 5.58155
#
# Compressibility (1/GPa) = 0.01743811
#
# Stress axis : x y z
#
# Youngs Moduli (GPa) = 126.34662 61.43591 77.66055
#
# Poissons Ratio (x) = 0.27438 0.07773
# Poissons Ratio (y) = 0.56429 0.33767
# Poissons Ratio (z) = 0.12646 0.26713
#
# Static dielectric constant tensor:
#      x y z
#    x 2.135530 0.000000 0.000000 
#    y 0.000000 2.163840 0.000000 
#    z 0.000000 0.000000 2.124920 
# 
# From -- ./inp_files/25263.got.cif
#   From: 2010.05.17/outbox.cif.g08.bks.cpg/sg73_13_cif.got.tgz:25263.got - 2010.06.03 17:35:07.
