data_PCOD9530036
_publ_section_title
;
Structure prediction by ZEFSAII (Michael W. Deem and Ramdas Pophale) SiO2 
 PCOD9530036
Probable space group: I B C A 
;
_chemical_formula_sum "Si O2"
_cell_formula_units_Z 120
_cell_length_a 11.406485
_cell_length_b 23.732849
_cell_length_c 20.315582
_cell_angle_alpha 90.000000
_cell_angle_beta 90.000000
_cell_angle_gamma 90.000000
_cell_volume 5499.598416
_symmetry_space_group_name_H-M "I B C A "
_symmetry_group_IT_number 73
_symmetry_cell_setting 'orthorhombic'
loop_
_space_group_symop_operation_xyz
x,y,z
-x,1/2-y,z
x,-y,1/2-z
1/2-x,y,-z
-x,-y,-z
x,1/2+y,-z
-x,y,1/2+z
1/2+x,-y,z
1/2+x,1/2+y,1/2+z
1/2-x,-y,1/2+z
1/2+x,1/2-y,-z
-x,1/2+y,1/2-z
1/2-x,1/2-y,1/2-z
1/2+x,y,1/2-z
1/2-x,1/2+y,z
x,1/2-y,1/2+z
loop_
_atom_site_type_symbol
_atom_site_label
_atom_site_fract_x
_atom_site_fract_y
_atom_site_fract_z
Si Si1 0.256780 0.707318 0.174453
Si Si2 0.488069 0.077253 0.639304
Si Si3 0.259441 0.106581 0.079451
Si Si4 0.471518 0.042139 0.874915
Si Si5 0.332229 0.674545 0.309865
Si Si6 0.882003 0.358345 0.602188
Si Si7 0.500000 0.250000 0.367675
Si Si8 0.876236 0.052251 0.998708
O O1 0.251287 0.669455 0.109718
O O2 0.267624 0.668720 0.239207
O O3 0.160542 0.757136 0.180103
O O4 0.384571 0.736937 0.173870
O O5 0.616353 0.087057 0.608993
O O6 0.440199 0.131129 0.680119
O O7 0.406451 0.066452 0.575625
O O8 0.480397 0.013813 0.668839
O O9 0.155977 0.067243 0.108952
O O10 0.250000 0.107511 0.000000
O O11 0.550244 0.095226 0.853059
O O12 0.531831 0.028186 0.946872
O O13 0.238364 0.657189 0.364515
O O14 0.965746 0.305239 0.592674
O O15 0.861376 0.387405 0.533351
O O16 0.750000 0.021654 0.000000
#
# Coordination Sequence:
#
# PCOD9530036 Si02
#       8
#    16  16  16  16  16  16   8  16
#     4  10  23  46  69  96 131 179 223 285 345 415
#     4  12  24  38  67 103 132 180 230 286 326 423
#     4  12  25  43  66 101 141 178 225 285 353 408
#     4  10  23  39  62  95 139 183 224 272 346 412
#     4  10  23  43  70  96 128 177 233 278 341 403
#     4   9  19  36  63  88 122 173 222 273 324 404
#     4  10  18  40  66  86 118 174 218 256 348 410
#     4  10  19  36  61  93 133 177 227 270 333 399
#
# _framework density 21.819775
#
# number of rings (size 3 to 8) (size 9 to 14) (size 15 to 20)
#    0.800    0.800    4.000    0.400    3.733    3.733 
#    4.800    0.667    0.000    0.000    0.000    0.000 
#    0.000    0.000    0.000    0.000    0.000    0.000 
#
# Total GULP energy -334050.827327 kJ/mol
# GULP energy per Si atom -5567.513789 kJ/mol
# Density = 2.177011 g / cm^3
# Si number density = 21.819775 Si / 1000 Ang^3
#
#
#
# Elastic Constant Matrix: (Units=GPa)
#
#
# Indices 1 2 3 4 5 6 
#
# 1 74.5707 36.4366 -6.6508 0.0000 0.0000 0.0000
# 2 36.4366 148.3847 33.6335 0.0000 0.0000 0.0000
# 3 -6.6508 33.6335 44.6970 0.0000 0.0000 0.0000
# 4 0.0000 0.0000 0.0000 17.2206 0.0000 0.0000
# 5 0.0000 0.0000 0.0000 0.0000 15.2860 0.0000
# 6 0.0000 0.0000 0.0000 0.0000 0.0000 40.2671
#
#
#
# Elastic Compliance Matrix: (Units=1/GPa)
#
#
# Indices 1 2 3 4 5 6 
#
# 1 0.016771 -0.005647 0.006745 0.000000 0.000000 0.000000
# 2 -0.005647 0.010026 -0.008385 0.000000 0.000000 0.000000
# 3 0.006745 -0.008385 0.029686 0.000000 0.000000 0.000000
# 4 0.000000 0.000000 0.000000 0.058070 0.000000 0.000000
# 5 0.000000 0.000000 0.000000 0.000000 0.065420 0.000000
# 6 0.000000 0.000000 0.000000 0.000000 0.000000 0.024834
#
#
# Mechanical properties :
#
#
# Convention : Reuss Voigt Hill
#
# Bulk Modulus (GPa) = 23.86131 43.83231 33.84681
# Shear Modulus (GPa) = 21.42696 28.17028 24.79862
#
# Velocity S-wave (km/s) = 3.13708 3.59701 3.37489
# Velocity P-wave (km/s) = 4.90725 6.11418 5.54366
#
# Compressibility (1/GPa) = 0.04190884
#
# Stress axis : x y z
#
# Youngs Moduli (GPa) = 59.62734 99.73640 33.68596
#
# Poissons Ratio (x) = 0.56320 -0.22720
# Poissons Ratio (y) = 0.33671 0.28245
# Poissons Ratio (z) = -0.40217 0.83628
#
# Static dielectric constant tensor:
#      x y z
#    x 1.888180 0.000000 0.000000 
#    y 0.000000 1.931290 0.000000 
#    z 0.000000 0.000000 1.795870 
# 
# From -- ./inp_files/29094.got.cif
#   From: 2010.05.17/outbox.cif.g08.bks.cpg/sg73_15_cif.got.tgz:29094.got - 2010.06.03 17:35:07.
