data_PCOD9530957
_publ_section_title
;
Structure prediction by ZEFSAII (Michael W. Deem and Ramdas Pophale) SiO2 
 PCOD9530957
Probable space group: I B C A 
;
_chemical_formula_sum "Si O2"
_cell_formula_units_Z 56
_cell_length_a 10.327627
_cell_length_b 15.509590
_cell_length_c 14.686456
_cell_angle_alpha 90.000000
_cell_angle_beta 90.000000
_cell_angle_gamma 90.000000
_cell_volume 2352.436288
_symmetry_space_group_name_H-M "I B C A "
_symmetry_group_IT_number 73
_symmetry_cell_setting 'orthorhombic'
loop_
_space_group_symop_operation_xyz
x,y,z
-x,1/2-y,z
x,-y,1/2-z
1/2-x,y,-z
-x,-y,-z
x,1/2+y,-z
-x,y,1/2+z
1/2+x,-y,z
1/2+x,1/2+y,1/2+z
1/2-x,-y,1/2+z
1/2+x,1/2-y,-z
-x,1/2+y,1/2-z
1/2-x,1/2-y,1/2-z
1/2+x,y,1/2-z
1/2-x,1/2+y,z
x,1/2-y,1/2+z
loop_
_atom_site_type_symbol
_atom_site_label
_atom_site_fract_x
_atom_site_fract_y
_atom_site_fract_z
Si Si1 0.945524 0.153496 0.205502
Si Si2 0.788180 0.396343 0.868058
Si Si3 0.956727 0.656295 0.479102
Si Si4 0.134683 0.000000 0.250000
O O1 0.824291 0.146734 0.272176
O O2 0.000000 0.250000 0.210252
O O3 0.938596 0.130864 0.097738
O O4 0.043183 0.082885 0.247644
O O5 0.675451 0.342902 0.918474
O O6 0.725452 0.486790 0.838165
O O7 0.910835 0.400057 0.935363
O O8 0.000000 0.750000 0.513726
#
# Coordination Sequence:
#
# PCOD9530957 Si02
#       4
#    16  16  16   8
#     4  10  21  39  65  93 130 179 232 283 335 404
#     4  10  20  40  63  90 135 173 218 285 339 401
#     4   9  20  37  62  94 125 171 227 277 335 395
#     4  10  22  38  60  94 130 174 222 276 346 408
#
# _framework density 23.805107
#
# number of rings (size 3 to 8) (size 9 to 14) (size 15 to 20)
#    0.000    2.286    0.000    1.714    0.000   10.286 
#    0.000   25.714    0.000   13.714    0.000    0.000 
#    0.000    0.000    0.000    0.000    0.000    0.000 
#
# Total GULP energy -156062.213755 kJ/mol
# GULP energy per Si atom -5573.650491 kJ/mol
# Density = 2.375093 g / cm^3
# Si number density = 23.805107 Si / 1000 Ang^3
#
#
#
# Elastic Constant Matrix: (Units=GPa)
#
#
# Indices 1 2 3 4 5 6 
#
# 1 22.5734 22.3466 23.6590 0.0000 0.0000 0.0000
# 2 22.3466 123.0298 24.6888 0.0000 0.0000 0.0000
# 3 23.6590 24.6888 99.6326 0.0000 0.0000 0.0000
# 4 0.0000 0.0000 0.0000 23.9272 0.0000 0.0000
# 5 0.0000 0.0000 0.0000 0.0000 66.6022 0.0000
# 6 0.0000 0.0000 0.0000 0.0000 0.0000 27.2159
#
#
#
# Elastic Compliance Matrix: (Units=1/GPa)
#
#
# Indices 1 2 3 4 5 6 
#
# 1 0.068348 -0.009637 -0.013842 0.000000 0.000000 0.000000
# 2 -0.009637 0.009912 -0.000168 0.000000 0.000000 0.000000
# 3 -0.013842 -0.000168 0.013365 0.000000 0.000000 0.000000
# 4 0.000000 0.000000 0.000000 0.041793 0.000000 0.000000
# 5 0.000000 0.000000 0.000000 0.000000 0.015015 0.000000
# 6 0.000000 0.000000 0.000000 0.000000 0.000000 0.036743
#
#
# Mechanical properties :
#
#
# Convention : Reuss Voigt Hill
#
# Bulk Modulus (GPa) = 22.55702 42.95830 32.75766
# Shear Modulus (GPa) = 20.22270 35.18516 27.70393
#
# Velocity S-wave (km/s) = 2.91780 3.84871 3.41512
# Velocity P-wave (km/s) = 4.56593 6.15103 5.41677
#
# Compressibility (1/GPa) = 0.04433210
#
# Stress axis : x y z
#
# Youngs Moduli (GPa) = 14.63108 100.88616 74.81982
#
# Poissons Ratio (x) = 0.97221 1.03566
# Poissons Ratio (y) = 0.14099 0.01256
# Poissons Ratio (z) = 0.20252 0.01694
#
# Static dielectric constant tensor:
#      x y z
#    x 2.046140 0.000000 0.000000 
#    y 0.000000 1.876820 0.000000 
#    z 0.000000 0.000000 1.986200 
# 
# From -- ./inp_files/10254.got.cif
#   From: 2010.05.17/outbox.cif.g08.bks.cpg/sg73_6_cif.got.tgz:10254.got - 2010.06.03 17:35:07.
