data_PCOD9530808
_publ_section_title
;
Structure prediction by ZEFSAII (Michael W. Deem and Ramdas Pophale) SiO2 
 PCOD9530808
Probable space group: I B C A 
;
_chemical_formula_sum "Si O2"
_cell_formula_units_Z 120
_cell_length_a 26.266350
_cell_length_b 19.033863
_cell_length_c 12.323224
_cell_angle_alpha 90.000000
_cell_angle_beta 90.000000
_cell_angle_gamma 90.000000
_cell_volume 6160.997162
_symmetry_space_group_name_H-M "I B C A "
_symmetry_group_IT_number 73
_symmetry_cell_setting 'orthorhombic'
loop_
_space_group_symop_operation_xyz
x,y,z
-x,1/2-y,z
x,-y,1/2-z
1/2-x,y,-z
-x,-y,-z
x,1/2+y,-z
-x,y,1/2+z
1/2+x,-y,z
1/2+x,1/2+y,1/2+z
1/2-x,-y,1/2+z
1/2+x,1/2-y,-z
-x,1/2+y,1/2-z
1/2-x,1/2-y,1/2-z
1/2+x,y,1/2-z
1/2-x,1/2+y,z
x,1/2-y,1/2+z
loop_
_atom_site_type_symbol
_atom_site_label
_atom_site_fract_x
_atom_site_fract_y
_atom_site_fract_z
Si Si1 0.193821 0.870028 0.268717
Si Si2 0.800285 0.419238 0.859973
Si Si3 0.946567 0.532253 0.869848
Si Si4 0.447016 0.426226 0.433664
Si Si5 0.378503 0.000000 0.750000
Si Si6 0.639216 0.322572 0.973075
Si Si7 0.834297 0.578410 0.879446
Si Si8 0.198806 0.698202 0.541620
O O1 0.241928 0.901043 0.333991
O O2 0.158306 0.934017 0.227370
O O3 0.162557 0.822925 0.352758
O O4 0.208303 0.825584 0.163878
O O5 0.808346 0.501485 0.884994
O O6 0.827561 0.400441 0.746144
O O7 0.827649 0.376939 0.955051
O O8 0.942315 0.500000 0.750000
O O9 0.894244 0.570561 0.899421
O O10 0.996969 0.579248 0.882564
O O11 0.951853 0.468398 0.954312
O O12 0.413178 0.473515 0.350239
O O13 0.416763 0.354898 0.459378
O O14 0.650090 0.248101 0.027801
O O15 0.809423 0.631566 0.963540
O O16 0.250000 0.736606 0.500000
#
# Coordination Sequence:
#
# PCOD9530808 Si02
#       8
#    16  16  16  16   8  16  16  16
#     4  11  24  38  61  90 126 171 213 262 316 376
#     4  11  21  40  62  88 127 162 214 266 324 373
#     4  11  19  37  65  97 117 157 208 280 328 377
#     4  10  21  38  63  90 126 155 209 263 333 380
#     4  10  20  38  60  94 128 158 200 270 316 374
#     4  11  25  42  60  87 128 173 210 260 319 399
#     4  11  22  38  63  97 123 159 217 276 320 378
#     4  12  26  40  61  91 132 176 218 252 313 397
#
# _framework density 19.477367000000001
#
# number of rings (size 3 to 8) (size 9 to 14) (size 15 to 20)
#    0.000    1.067    4.667    2.800    3.733    1.067 
#    0.000    0.667    0.000    0.000    0.000    0.000 
#    0.000    0.000    0.000    0.000    0.000    0.000 
#
# Total GULP energy -335208.871474 kJ/mol
# GULP energy per Si atom -5586.814525 kJ/mol
# Density = 1.943304 g / cm^3
# Si number density = 19.477367 Si / 1000 Ang^3
#
#
#
# Elastic Constant Matrix: (Units=GPa)
#
#
# Indices 1 2 3 4 5 6 
#
# 1 101.8144 15.7996 -12.5528 0.0000 0.0000 0.0000
# 2 15.7996 42.5366 16.5627 0.0000 0.0000 0.0000
# 3 -12.5528 16.5627 67.5153 0.0000 0.0000 0.0000
# 4 0.0000 0.0000 0.0000 14.1434 0.0000 0.0000
# 5 0.0000 0.0000 0.0000 0.0000 23.6261 0.0000
# 6 0.0000 0.0000 0.0000 0.0000 0.0000 16.0568
#
#
#
# Elastic Compliance Matrix: (Units=1/GPa)
#
#
# Indices 1 2 3 4 5 6 
#
# 1 0.011084 -0.005439 0.003395 0.000000 0.000000 0.000000
# 2 -0.005439 0.028661 -0.008042 0.000000 0.000000 0.000000
# 3 0.003395 -0.008042 0.017416 0.000000 0.000000 0.000000
# 4 0.000000 0.000000 0.000000 0.070704 0.000000 0.000000
# 5 0.000000 0.000000 0.000000 0.000000 0.042326 0.000000
# 6 0.000000 0.000000 0.000000 0.000000 0.000000 0.062279
#
#
# Mechanical properties :
#
#
# Convention : Reuss Voigt Hill
#
# Bulk Modulus (GPa) = 27.03547 27.94282 27.48914
# Shear Modulus (GPa) = 18.86991 23.56905 21.21948
#
# Velocity S-wave (km/s) = 3.11595 3.48239 3.30425
# Velocity P-wave (km/s) = 5.18229 5.52692 5.35737
#
# Compressibility (1/GPa) = 0.03698845
#
# Stress axis : x y z
#
# Youngs Moduli (GPa) = 90.21655 34.89072 57.41968
#
# Poissons Ratio (x) = 0.18978 -0.19495
# Poissons Ratio (y) = 0.49070 0.46179
# Poissons Ratio (z) = -0.30630 0.28060
#
# Static dielectric constant tensor:
#      x y z
#    x 1.699040 0.000000 0.000000 
#    y 0.000000 1.677000 0.000000 
#    z 0.000000 0.000000 1.672930 
# 
# From -- ./inp_files/14350.got.cif
#   From: 2010.05.17/outbox.cif.g08.bks.cpg/sg73_8_cif.got.tgz:14350.got - 2010.06.03 17:35:07.
