data_PCOD9530002
_publ_section_title
;
Structure prediction by ZEFSAII (Michael W. Deem and Ramdas Pophale) SiO2 
 PCOD9530002
Probable space group: I B C A 
;
_chemical_formula_sum "Si O2"
_cell_formula_units_Z 88
_cell_length_a 14.582473
_cell_length_b 14.089995
_cell_length_c 20.580484
_cell_angle_alpha 90.000000
_cell_angle_beta 90.000000
_cell_angle_gamma 90.000000
_cell_volume 4228.609723
_symmetry_space_group_name_H-M "I B C A "
_symmetry_group_IT_number 73
_symmetry_cell_setting 'orthorhombic'
loop_
_space_group_symop_operation_xyz
x,y,z
-x,1/2-y,z
x,-y,1/2-z
1/2-x,y,-z
-x,-y,-z
x,1/2+y,-z
-x,y,1/2+z
1/2+x,-y,z
1/2+x,1/2+y,1/2+z
1/2-x,-y,1/2+z
1/2+x,1/2-y,-z
-x,1/2+y,1/2-z
1/2-x,1/2-y,1/2-z
1/2+x,y,1/2-z
1/2-x,1/2+y,z
x,1/2-y,1/2+z
loop_
_atom_site_type_symbol
_atom_site_label
_atom_site_fract_x
_atom_site_fract_y
_atom_site_fract_z
Si Si1 0.096279 0.788171 0.466162
Si Si2 0.500000 0.250000 0.229749
Si Si3 0.750000 0.938438 0.000000
Si Si4 0.811450 0.393075 0.588009
Si Si5 0.503440 0.102278 0.345315
Si Si6 0.691320 0.686391 0.797718
Si Si7 0.886844 0.500000 0.250000
O O1 0.160663 0.870319 0.495711
O O2 0.156143 0.692477 0.459117
O O3 0.000000 0.750000 0.496393
O O4 0.063023 0.834848 0.396450
O O5 0.486185 0.163305 0.280110
O O6 0.407785 0.267159 0.190178
O O7 0.764881 0.013489 0.058516
O O8 0.907209 0.421582 0.622132
O O9 0.744960 0.342044 0.638515
O O10 0.555415 0.011698 0.316304
O O11 0.750000 0.750000 0.750000
O O12 0.673490 0.591979 0.756728
#
# Coordination Sequence:
#
# PCOD9530002 Si02
#       7
#    16   8   8  16  16  16   8
#     4  10  22  44  68  88 132 180 220 284 345 395
#     4  10  18  38  64  94 132 174 208 266 342 406
#     4  12  26  42  68 100 126 178 242 280 342 390
#     4  11  22  41  68  93 135 173 228 281 329 404
#     4  10  18  39  62  93 132 177 215 270 342 403
#     4  11  21  39  66  99 134 176 217 271 338 409
#     4  10  22  34  60  98 138 164 214 270 340 404
#
# _framework density 20.810621999999999
#
# number of rings (size 3 to 8) (size 9 to 14) (size 15 to 20)
#    0.000    1.455    4.545    2.727    0.000    3.636 
#    6.545    1.818    6.000    0.000    0.000    0.000 
#    0.000    0.000    0.000    0.000    0.000    0.000 
#
# Total GULP energy -245430.396376 kJ/mol
# GULP energy per Si atom -5577.963554 kJ/mol
# Density = 2.076326 g / cm^3
# Si number density = 20.810622 Si / 1000 Ang^3
#
#
#
# Elastic Constant Matrix: (Units=GPa)
#
#
# Indices 1 2 3 4 5 6 
#
# 1 135.9187 70.5066 34.4153 0.0000 0.0000 0.0000
# 2 70.5066 125.4318 27.3080 0.0000 0.0000 0.0000
# 3 34.4153 27.3080 28.0445 0.0000 0.0000 0.0000
# 4 0.0000 0.0000 0.0000 25.5320 0.0000 0.0000
# 5 0.0000 0.0000 0.0000 0.0000 1.6841 0.0000
# 6 0.0000 0.0000 0.0000 0.0000 0.0000 28.3899
#
#
#
# Elastic Compliance Matrix: (Units=1/GPa)
#
#
# Indices 1 2 3 4 5 6 
#
# 1 0.012525 -0.004688 -0.010806 0.000000 0.000000 0.000000
# 2 -0.004688 0.011872 -0.005807 0.000000 0.000000 0.000000
# 3 -0.010806 -0.005807 0.054572 0.000000 0.000000 0.000000
# 4 0.000000 0.000000 0.000000 0.039167 0.000000 0.000000
# 5 0.000000 0.000000 0.000000 0.000000 0.593790 0.000000
# 6 0.000000 0.000000 0.000000 0.000000 0.000000 0.035224
#
#
# Mechanical properties :
#
#
# Convention : Reuss Voigt Hill
#
# Bulk Modulus (GPa) = 27.49665 61.53941 44.51803
# Shear Modulus (GPa) = 6.23539 21.59888 13.91713
#
# Velocity S-wave (km/s) = 1.73285 3.22511 2.58883
# Velocity P-wave (km/s) = 4.15273 6.59574 5.51130
#
# Compressibility (1/GPa) = 0.03636806
#
# Stress axis : x y z
#
# Youngs Moduli (GPa) = 79.83860 84.23201 18.32426
#
# Poissons Ratio (x) = 0.39489 0.19800
# Poissons Ratio (y) = 0.37429 0.10641
# Poissons Ratio (z) = 0.86270 0.48915
#
# Static dielectric constant tensor:
#      x y z
#    x 1.797710 0.000000 0.000000 
#    y 0.000000 1.754900 0.000000 
#    z 0.000000 0.000000 1.888970 
# 
# From -- ./inp_files/29485.got.cif
#   From: 2010.05.17/outbox.cif.g08.bks.cpg/sg73_15_cif.got.tgz:29485.got - 2010.06.03 17:35:07.
