data_PCOD9530506
_publ_section_title
;
Structure prediction by ZEFSAII (Michael W. Deem and Ramdas Pophale) SiO2 
 PCOD9530506
Probable space group: I B C A 
;
_chemical_formula_sum "Si O2"
_cell_formula_units_Z 104
_cell_length_a 20.650944
_cell_length_b 9.440402
_cell_length_c 25.493485
_cell_angle_alpha 90.000000
_cell_angle_beta 90.000000
_cell_angle_gamma 90.000000
_cell_volume 4970.036812
_symmetry_space_group_name_H-M "I B C A "
_symmetry_group_IT_number 73
_symmetry_cell_setting 'orthorhombic'
loop_
_space_group_symop_operation_xyz
x,y,z
-x,1/2-y,z
x,-y,1/2-z
1/2-x,y,-z
-x,-y,-z
x,1/2+y,-z
-x,y,1/2+z
1/2+x,-y,z
1/2+x,1/2+y,1/2+z
1/2-x,-y,1/2+z
1/2+x,1/2-y,-z
-x,1/2+y,1/2-z
1/2-x,1/2-y,1/2-z
1/2+x,y,1/2-z
1/2-x,1/2+y,z
x,1/2-y,1/2+z
loop_
_atom_site_type_symbol
_atom_site_label
_atom_site_fract_x
_atom_site_fract_y
_atom_site_fract_z
Si Si1 0.000000 0.250000 0.355106
Si Si2 0.072627 0.247560 0.655192
Si Si3 0.104345 0.660860 0.232104
Si Si4 0.292321 0.872995 0.793294
Si Si5 0.776723 0.091981 0.558286
Si Si6 0.308567 0.880979 0.119178
Si Si7 0.112341 0.952113 0.111814
O O1 0.053127 0.322554 0.315818
O O2 0.046940 0.143299 0.388537
O O3 0.077503 0.247547 0.717929
O O4 0.115512 0.122146 0.631067
O O5 0.097910 0.392231 0.632147
O O6 0.000000 0.250000 0.638256
O O7 0.106614 0.500000 0.250000
O O8 0.176688 0.724049 0.224634
O O9 0.225496 0.860338 0.824536
O O10 0.342005 0.899670 0.841262
O O11 0.294854 0.000000 0.750000
O O12 0.750000 0.103519 0.500000
O O13 0.792089 0.246443 0.582253
O O14 0.720848 0.020770 0.593816
O O15 0.838981 0.984735 0.563106
#
# Coordination Sequence:
#
# PCOD9530506 Si02
#       7
#     8  16  16  16  16  16  16
#     4  10  20  34  58  84 136 176 212 252 308 394
#     4  11  21  37  56  82 130 167 215 250 307 386
#     4  11  22  31  55  87 123 181 220 243 296 385
#     4  10  20  39  59  84 135 170 207 268 315 371
#     4  10  21  44  71  93 121 160 216 288 345 391
#     4  10  24  39  64  97 121 164 215 264 339 394
#     4   9  20  38  59  91 123 174 212 265 318 384
#
# _framework density 20.925398000000001
#
# number of rings (size 3 to 8) (size 9 to 14) (size 15 to 20)
#    0.000    1.846    2.308    1.385    2.154    1.231 
#    2.769    0.000    1.692    1.846    0.000    0.000 
#    0.000    0.000    0.000    0.000    0.000    0.000 
#
# Total GULP energy -289950.684333 kJ/mol
# GULP energy per Si atom -5575.974699 kJ/mol
# Density = 2.087777 g / cm^3
# Si number density = 20.925398 Si / 1000 Ang^3
#
#
#
# Elastic Constant Matrix: (Units=GPa)
#
#
# Indices 1 2 3 4 5 6 
#
# 1 79.2055 9.0633 31.2115 0.0000 0.0000 0.0000
# 2 9.0633 32.0271 16.9018 0.0000 0.0000 0.0000
# 3 31.2115 16.9018 87.9327 0.0000 0.0000 0.0000
# 4 0.0000 0.0000 0.0000 20.1481 0.0000 0.0000
# 5 0.0000 0.0000 0.0000 0.0000 22.7641 0.0000
# 6 0.0000 0.0000 0.0000 0.0000 0.0000 46.5767
#
#
#
# Elastic Compliance Matrix: (Units=1/GPa)
#
#
# Indices 1 2 3 4 5 6 
#
# 1 0.014749 -0.001570 -0.004933 0.000000 0.000000 0.000000
# 2 -0.001570 0.034915 -0.006154 0.000000 0.000000 0.000000
# 3 -0.004933 -0.006154 0.014306 0.000000 0.000000 0.000000
# 4 0.000000 0.000000 0.000000 0.049632 0.000000 0.000000
# 5 0.000000 0.000000 0.000000 0.000000 0.043929 0.000000
# 6 0.000000 0.000000 0.000000 0.000000 0.000000 0.021470
#
#
# Mechanical properties :
#
#
# Convention : Reuss Voigt Hill
#
# Bulk Modulus (GPa) = 25.86928 34.83538 30.35233
# Shear Modulus (GPa) = 23.02002 27.36370 25.19186
#
# Velocity S-wave (km/s) = 3.32037 3.62011 3.47347
# Velocity P-wave (km/s) = 5.20474 5.84441 5.53382
#
# Compressibility (1/GPa) = 0.03865589
#
# Stress axis : x y z
#
# Youngs Moduli (GPa) = 67.80078 28.64061 69.89957
#
# Poissons Ratio (x) = 0.04498 0.34484
# Poissons Ratio (y) = 0.10647 0.43015
# Poissons Ratio (z) = 0.33448 0.17625
#
# Static dielectric constant tensor:
#      x y z
#    x 1.751700 0.000000 0.000000 
#    y 0.000000 1.739830 0.000000 
#    z 0.000000 0.000000 1.775820 
# 
# From -- ./inp_files/7902.got.cif
#   From: 2010.05.17/outbox.cif.g08.bks.cpg/sg73_4_cif.got.tgz:7902.got - 2010.06.03 17:35:07.
