data_PCOD9530993
_publ_section_title
;
Structure prediction by ZEFSAII (Michael W. Deem and Ramdas Pophale) SiO2 
 PCOD9530993
Probable space group: I B C A 
;
_chemical_formula_sum "Si O2"
_cell_formula_units_Z 88
_cell_length_a 26.458186
_cell_length_b 16.760907
_cell_length_c 9.807387
_cell_angle_alpha 90.000000
_cell_angle_beta 90.000000
_cell_angle_gamma 90.000000
_cell_volume 4349.215173
_symmetry_space_group_name_H-M "I B C A "
_symmetry_group_IT_number 73
_symmetry_cell_setting 'orthorhombic'
loop_
_space_group_symop_operation_xyz
x,y,z
-x,1/2-y,z
x,-y,1/2-z
1/2-x,y,-z
-x,-y,-z
x,1/2+y,-z
-x,y,1/2+z
1/2+x,-y,z
1/2+x,1/2+y,1/2+z
1/2-x,-y,1/2+z
1/2+x,1/2-y,-z
-x,1/2+y,1/2-z
1/2-x,1/2-y,1/2-z
1/2+x,y,1/2-z
1/2-x,1/2+y,z
x,1/2-y,1/2+z
loop_
_atom_site_type_symbol
_atom_site_label
_atom_site_fract_x
_atom_site_fract_y
_atom_site_fract_z
Si Si1 0.909391 0.187199 0.500831
Si Si2 0.937376 0.668496 0.812926
Si Si3 0.297259 0.700226 0.919927
Si Si4 0.972212 0.051659 0.617517
Si Si5 0.333733 0.585835 0.681430
Si Si6 0.750000 0.355055 0.500000
O O1 0.935524 0.254332 0.592181
O O2 0.927948 0.192259 0.344369
O O3 0.849128 0.201758 0.506099
O O4 0.925450 0.100156 0.554107
O O5 0.987500 0.617393 0.831451
O O6 0.889963 0.613070 0.855700
O O7 0.312546 0.651140 0.788082
O O8 0.277471 0.709081 0.398670
O O9 0.250000 0.661896 0.000000
O O10 0.958415 0.000000 0.750000
O O11 0.000000 0.000000 0.500000
O O12 0.335316 0.500000 0.750000
O O13 0.294011 0.591472 0.560417
#
# Coordination Sequence:
#
# PCOD9530993 Si02
#       6
#    16  16  16  16  16   8
#     4  11  24  43  72  97 130 184 229 276 343 418
#     4  11  24  45  67  97 133 180 229 280 344 413
#     4   9  21  42  65  94 132 171 222 270 332 407
#     4  12  26  45  66 100 138 176 221 290 350 404
#     4  11  23  39  67  97 135 175 221 282 342 395
#     4  10  20  40  66  94 128 178 216 268 330 396
#
# _framework density 20.233535
#
# number of rings (size 3 to 8) (size 9 to 14) (size 15 to 20)
#    0.545    0.727    3.636    1.636    6.364    1.455 
#    0.000    0.909    0.000    0.000    0.000    0.000 
#    0.000    0.000    0.000    0.000    0.000    0.000 
#
# Total GULP energy -245733.786749 kJ/mol
# GULP energy per Si atom -5584.858790 kJ/mol
# Density = 2.018748 g / cm^3
# Si number density = 20.233535 Si / 1000 Ang^3
#
#
#
# Elastic Constant Matrix: (Units=GPa)
#
#
# Indices 1 2 3 4 5 6 
#
# 1 93.0570 20.2129 9.5524 0.0000 0.0000 0.0000
# 2 20.2129 94.1801 23.3805 0.0000 0.0000 0.0000
# 3 9.5524 23.3805 72.3194 0.0000 0.0000 0.0000
# 4 0.0000 0.0000 0.0000 33.5301 0.0000 0.0000
# 5 0.0000 0.0000 0.0000 0.0000 29.0046 0.0000
# 6 0.0000 0.0000 0.0000 0.0000 0.0000 25.8698
#
#
#
# Elastic Compliance Matrix: (Units=1/GPa)
#
#
# Indices 1 2 3 4 5 6 
#
# 1 0.011311 -0.002236 -0.000771 0.000000 0.000000 0.000000
# 2 -0.002236 0.011987 -0.003580 0.000000 0.000000 0.000000
# 3 -0.000771 -0.003580 0.015087 0.000000 0.000000 0.000000
# 4 0.000000 0.000000 0.000000 0.029824 0.000000 0.000000
# 5 0.000000 0.000000 0.000000 0.000000 0.034477 0.000000
# 6 0.000000 0.000000 0.000000 0.000000 0.000000 0.038655
#
#
# Mechanical properties :
#
#
# Convention : Reuss Voigt Hill
#
# Bulk Modulus (GPa) = 39.66653 40.64977 40.15815
# Shear Modulus (GPa) = 30.69026 31.44161 31.06593
#
# Velocity S-wave (km/s) = 3.89884 3.94628 3.92263
# Velocity P-wave (km/s) = 6.31782 6.39516 6.35661
#
# Compressibility (1/GPa) = 0.02521017
#
# Stress axis : x y z
#
# Youngs Moduli (GPa) = 88.40985 83.42669 66.28335
#
# Poissons Ratio (x) = 0.18655 0.05111
# Poissons Ratio (y) = 0.19770 0.23728
# Poissons Ratio (z) = 0.06817 0.29865
#
# Static dielectric constant tensor:
#      x y z
#    x 1.731320 0.000000 0.000000 
#    y 0.000000 1.693000 0.000000 
#    z 0.000000 0.000000 1.766260 
# 
# From -- ./inp_files/8389.got.cif
#   From: 2010.05.17/outbox.cif.g08.bks.cpg/sg73_5_cif.got.tgz:8389.got - 2010.06.03 17:35:07.
