data_PCOD9530113
_publ_section_title
;
Structure prediction by ZEFSAII (Michael W. Deem and Ramdas Pophale) SiO2 
 PCOD9530113
Probable space group: I B C A 
;
_chemical_formula_sum "Si O2"
_cell_formula_units_Z 120
_cell_length_a 8.652608
_cell_length_b 25.561226
_cell_length_c 28.613850
_cell_angle_alpha 90.000000
_cell_angle_beta 90.000000
_cell_angle_gamma 90.000000
_cell_volume 6328.561503
_symmetry_space_group_name_H-M "I B C A "
_symmetry_group_IT_number 73
_symmetry_cell_setting 'orthorhombic'
loop_
_space_group_symop_operation_xyz
x,y,z
-x,1/2-y,z
x,-y,1/2-z
1/2-x,y,-z
-x,-y,-z
x,1/2+y,-z
-x,y,1/2+z
1/2+x,-y,z
1/2+x,1/2+y,1/2+z
1/2-x,-y,1/2+z
1/2+x,1/2-y,-z
-x,1/2+y,1/2-z
1/2-x,1/2-y,1/2-z
1/2+x,y,1/2-z
1/2-x,1/2+y,z
x,1/2-y,1/2+z
loop_
_atom_site_type_symbol
_atom_site_label
_atom_site_fract_x
_atom_site_fract_y
_atom_site_fract_z
Si Si1 0.291030 0.859173 0.945245
Si Si2 0.703784 0.962938 0.152973
Si Si3 0.274578 0.891273 0.216411
Si Si4 0.428867 0.691695 0.901077
Si Si5 0.384177 0.932443 0.123509
Si Si6 0.198854 0.000000 0.250000
Si Si7 0.581621 0.630272 0.308083
Si Si8 0.180647 0.747579 0.948080
O O1 0.471114 0.850237 0.931183
O O2 0.206148 0.905796 0.918882
O O3 0.223198 0.804061 0.927159
O O4 0.250000 0.862291 0.000000
O O5 0.566224 0.943830 0.119645
O O6 0.821454 0.916524 0.166948
O O7 0.797556 0.012833 0.134432
O O8 0.621316 0.982563 0.201484
O O9 0.362515 0.892504 0.167404
O O10 0.297763 0.949643 0.236595
O O11 0.333447 0.855976 0.259164
O O12 0.092856 0.885667 0.205788
O O13 0.500000 0.750000 0.907942
O O14 0.431048 0.674711 0.847343
O O15 0.255012 0.700256 0.919265
O O16 0.000000 0.750000 0.952386
O O17 0.250000 0.744316 0.000000
#
# Coordination Sequence:
#
# PCOD9530113 Si02
#       8
#    16  16  16  16  16   8  16  16
#     4  10  21  40  64  87 119 159 198 249 302 355
#     4  10  21  33  57  85 117 159 197 249 294 354
#     4  10  19  33  55  83 116 154 193 248 286 352
#     4  10  22  41  63  88 121 158 195 251 303 356
#     4  11  21  36  58  86 121 157 204 244 299 347
#     4   8  16  30  48  80 106 142 198 238 286 322
#     4  11  21  37  58  86 120 155 202 241 303 349
#     4  10  20  38  67  94 115 144 197 254 306 350
#
# _framework density 18.961655
#
# number of rings (size 3 to 8) (size 9 to 14) (size 15 to 20)
#    0.000    1.867    1.333    5.200    1.867    4.267 
#    0.000    1.333    0.000    0.000    0.000    0.000 
#    0.000    0.000    0.000    0.000    0.000    0.000 
#
# Total GULP energy -334227.285238 kJ/mol
# GULP energy per Si atom -5570.454754 kJ/mol
# Density = 1.891850 g / cm^3
# Si number density = 18.961655 Si / 1000 Ang^3
#
#
#
# Elastic Constant Matrix: (Units=GPa)
#
#
# Indices 1 2 3 4 5 6 
#
# 1 103.1641 1.9032 8.2990 0.0000 0.0000 0.0000
# 2 1.9032 20.9613 7.9749 0.0000 0.0000 0.0000
# 3 8.2990 7.9749 64.6675 0.0000 0.0000 0.0000
# 4 0.0000 0.0000 0.0000 56.8708 0.0000 0.0000
# 5 0.0000 0.0000 0.0000 0.0000 23.0807 0.0000
# 6 0.0000 0.0000 0.0000 0.0000 0.0000 4.0564
#
#
#
# Elastic Compliance Matrix: (Units=1/GPa)
#
#
# Indices 1 2 3 4 5 6 
#
# 1 0.009798 -0.000431 -0.001204 0.000000 0.000000 0.000000
# 2 -0.000431 0.050075 -0.006120 0.000000 0.000000 0.000000
# 3 -0.001204 -0.006120 0.016373 0.000000 0.000000 0.000000
# 4 0.000000 0.000000 0.000000 0.017584 0.000000 0.000000
# 5 0.000000 0.000000 0.000000 0.000000 0.043326 0.000000
# 6 0.000000 0.000000 0.000000 0.000000 0.000000 0.246524
#
#
# Mechanical properties :
#
#
# Convention : Reuss Voigt Hill
#
# Bulk Modulus (GPa) = 16.46512 25.01636 20.74074
# Shear Modulus (GPa) = 11.92079 28.17596 20.04837
#
# Velocity S-wave (km/s) = 2.51007 3.85898 3.25516
# Velocity P-wave (km/s) = 4.13555 5.75129 5.00900
#
# Compressibility (1/GPa) = 0.06073445
#
# Stress axis : x y z
#
# Youngs Moduli (GPa) = 102.06030 19.97021 61.07624
#
# Poissons Ratio (x) = 0.00862 0.07355
# Poissons Ratio (y) = 0.04404 0.37378
# Poissons Ratio (z) = 0.12290 0.12222
#
# Static dielectric constant tensor:
#      x y z
#    x 1.730910 0.000000 0.000000 
#    y 0.000000 1.662400 0.000000 
#    z 0.000000 0.000000 1.694300 
# 
# From -- ./inp_files/28603.got.cif
#   From: 2010.05.17/outbox.cif.g08.bks.cpg/sg73_15_cif.got.tgz:28603.got - 2010.06.03 17:35:07.
