data_PCOD9530520
_publ_section_title
;
Structure prediction by ZEFSAII (Michael W. Deem and Ramdas Pophale) SiO2 
 PCOD9530520
Probable space group: I B C A 
;
_chemical_formula_sum "Si O2"
_cell_formula_units_Z 120
_cell_length_a 19.845123
_cell_length_b 26.554228
_cell_length_c 11.326252
_cell_angle_alpha 90.000000
_cell_angle_beta 90.000000
_cell_angle_gamma 90.000000
_cell_volume 5968.616772
_symmetry_space_group_name_H-M "I B C A "
_symmetry_group_IT_number 73
_symmetry_cell_setting 'orthorhombic'
loop_
_space_group_symop_operation_xyz
x,y,z
-x,1/2-y,z
x,-y,1/2-z
1/2-x,y,-z
-x,-y,-z
x,1/2+y,-z
-x,y,1/2+z
1/2+x,-y,z
1/2+x,1/2+y,1/2+z
1/2-x,-y,1/2+z
1/2+x,1/2-y,-z
-x,1/2+y,1/2-z
1/2-x,1/2-y,1/2-z
1/2+x,y,1/2-z
1/2-x,1/2+y,z
x,1/2-y,1/2+z
loop_
_atom_site_type_symbol
_atom_site_label
_atom_site_fract_x
_atom_site_fract_y
_atom_site_fract_z
Si Si1 0.901835 0.112529 0.667487
Si Si2 0.448689 0.065870 0.063207
Si Si3 0.820621 0.954804 0.659610
Si Si4 0.324117 0.304771 0.841768
Si Si5 0.444345 0.867687 0.218299
Si Si6 0.218230 0.689899 0.872325
Si Si7 0.410848 0.039627 0.440151
Si Si8 0.250000 0.121170 0.500000
O O1 0.904982 0.078570 0.551000
O O2 0.879273 0.075810 0.772644
O O3 0.844706 0.154197 0.655078
O O4 0.977267 0.134327 0.681546
O O5 0.445335 0.113298 0.147920
O O6 0.424297 0.013883 0.120143
O O7 0.523571 0.053877 0.018002
O O8 0.851125 0.969839 0.532647
O O9 0.766606 0.913812 0.613423
O O10 0.800117 0.000000 0.750000
O O11 0.399892 0.318469 0.803215
O O12 0.273952 0.315752 0.731294
O O13 0.308990 0.247182 0.873752
O O14 0.307032 0.340419 0.953781
O O15 0.407557 0.913431 0.147616
O O16 0.250000 0.678079 0.000000
#
# Coordination Sequence:
#
# PCOD9530520 Si02
#       8
#    16  16  16  16  16  16  16   8
#     4  11  23  39  66  97 133 171 217 283 342 388
#     4  10  20  35  58  94 130 169 214 260 323 400
#     4  12  23  44  64  93 136 177 219 269 332 400
#     4  11  24  43  70  93 124 177 228 276 339 410
#     4  11  22  38  63  98 134 168 221 278 338 396
#     4  11  24  45  69  93 126 176 232 279 339 409
#     4  10  20  34  61  88 126 176 212 254 318 404
#     4  12  24  48  66  90 132 180 226 278 332 396
#
# _framework density 20.105160999999999
#
# number of rings (size 3 to 8) (size 9 to 14) (size 15 to 20)
#    0.000    1.067    6.000    1.200    0.000    0.533 
#    3.600    0.000    0.000    3.200    0.000    0.000 
#    0.000    0.000    0.000    0.000    0.000    0.000 
#
# Total GULP energy -334616.164931 kJ/mol
# GULP energy per Si atom -5576.936082 kJ/mol
# Density = 2.005940 g / cm^3
# Si number density = 20.105161 Si / 1000 Ang^3
#
#
#
# Elastic Constant Matrix: (Units=GPa)
#
#
# Indices 1 2 3 4 5 6 
#
# 1 64.6820 29.0812 10.2645 0.0000 0.0000 0.0000
# 2 29.0812 58.2419 7.7298 0.0000 0.0000 0.0000
# 3 10.2645 7.7298 64.6862 0.0000 0.0000 0.0000
# 4 0.0000 0.0000 0.0000 15.9906 0.0000 0.0000
# 5 0.0000 0.0000 0.0000 0.0000 27.7802 0.0000
# 6 0.0000 0.0000 0.0000 0.0000 0.0000 27.7519
#
#
#
# Elastic Compliance Matrix: (Units=1/GPa)
#
#
# Indices 1 2 3 4 5 6 
#
# 1 0.020195 -0.009814 -0.002032 0.000000 0.000000 0.000000
# 2 -0.009814 0.022216 -0.001097 0.000000 0.000000 0.000000
# 3 -0.002032 -0.001097 0.015913 0.000000 0.000000 0.000000
# 4 0.000000 0.000000 0.000000 0.062537 0.000000 0.000000
# 5 0.000000 0.000000 0.000000 0.000000 0.035997 0.000000
# 6 0.000000 0.000000 0.000000 0.000000 0.000000 0.036034
#
#
# Mechanical properties :
#
#
# Convention : Reuss Voigt Hill
#
# Bulk Modulus (GPa) = 30.82897 31.30677 31.06787
# Shear Modulus (GPa) = 21.77797 23.67352 22.72575
#
# Velocity S-wave (km/s) = 3.29478 3.43517 3.36571
# Velocity P-wave (km/s) = 5.46271 5.59814 5.53084
#
# Compressibility (1/GPa) = 0.03243702
#
# Stress axis : x y z
#
# Youngs Moduli (GPa) = 49.51683 45.01308 62.84246
#
# Poissons Ratio (x) = 0.44176 0.12769
# Poissons Ratio (y) = 0.48596 0.06896
# Poissons Ratio (z) = 0.10061 0.04940
#
# Static dielectric constant tensor:
#      x y z
#    x 1.739820 0.000000 0.000000 
#    y 0.000000 1.705750 0.000000 
#    z 0.000000 0.000000 1.707630 
# 
# From -- ./inp_files/13096.got.cif
#   From: 2010.05.17/outbox.cif.g08.bks.cpg/sg73_7_cif.got.tgz:13096.got - 2010.06.03 17:35:07.
