data_PCOD9530788
_publ_section_title
;
Structure prediction by ZEFSAII (Michael W. Deem and Ramdas Pophale) SiO2 
 PCOD9530788
Probable space group: I B C A 
;
_chemical_formula_sum "Si O2"
_cell_formula_units_Z 72
_cell_length_a 37.983287
_cell_length_b 5.255543
_cell_length_c 18.812608
_cell_angle_alpha 90.000000
_cell_angle_beta 90.000000
_cell_angle_gamma 90.000000
_cell_volume 3755.425449
_symmetry_space_group_name_H-M "I B C A "
_symmetry_group_IT_number 73
_symmetry_cell_setting 'orthorhombic'
loop_
_space_group_symop_operation_xyz
x,y,z
-x,1/2-y,z
x,-y,1/2-z
1/2-x,y,-z
-x,-y,-z
x,1/2+y,-z
-x,y,1/2+z
1/2+x,-y,z
1/2+x,1/2+y,1/2+z
1/2-x,-y,1/2+z
1/2+x,1/2-y,-z
-x,1/2+y,1/2-z
1/2-x,1/2-y,1/2-z
1/2+x,y,1/2-z
1/2-x,1/2+y,z
x,1/2-y,1/2+z
loop_
_atom_site_type_symbol
_atom_site_label
_atom_site_fract_x
_atom_site_fract_y
_atom_site_fract_z
Si Si1 0.360407 0.500000 0.250000
Si Si2 0.235036 0.307654 0.920377
Si Si3 0.461569 0.209210 0.953139
Si Si4 0.844694 0.272640 0.392880
Si Si5 0.112798 0.256247 0.116926
O O1 0.339579 0.661611 0.308737
O O2 0.383070 0.312950 0.299732
O O3 0.243845 0.576890 0.885052
O O4 0.193842 0.250852 0.924981
O O5 0.250000 0.339944 0.000000
O O6 0.500000 0.250000 0.918454
O O7 0.427504 0.255632 0.905609
O O8 0.460091 0.425132 0.014681
O O9 0.866433 0.519249 0.419925
O O10 0.867635 0.019220 0.399328
#
# Coordination Sequence:
#
# PCOD9530788 Si02
#       5
#     8  16  16  16  16
#     4   8  22  36  64  84 116 152 204 248 282 346
#     4  10  21  39  55  80 118 150 182 245 303 348
#     4  10  21  39  60  90 127 159 191 240 298 351
#     4  10  20  38  59  84 115 153 196 242 294 348
#     4  10  20  38  62  88 115 155 202 242 283 355
#
# _framework density 19.172260999999999
#
# number of rings (size 3 to 8) (size 9 to 14) (size 15 to 20)
#    1.333    0.889    0.000    3.333    0.000    0.000 
#   24.000    1.111    4.889    0.000    0.000    0.000 
#    0.000    0.000    0.000    0.000    0.000    0.000 
#
# Total GULP energy -200503.061706 kJ/mol
# GULP energy per Si atom -5569.529492 kJ/mol
# Density = 1.912862 g / cm^3
# Si number density = 19.172261 Si / 1000 Ang^3
#
#
#
# Elastic Constant Matrix: (Units=GPa)
#
#
# Indices 1 2 3 4 5 6 
#
# 1 136.9112 7.3552 34.3329 0.0000 0.0000 0.0000
# 2 7.3552 117.5746 -4.4198 0.0000 0.0000 0.0000
# 3 34.3329 -4.4198 46.2749 0.0000 0.0000 0.0000
# 4 0.0000 0.0000 0.0000 0.6598 0.0000 0.0000
# 5 0.0000 0.0000 0.0000 0.0000 -29.2822 0.0000
# 6 0.0000 0.0000 0.0000 0.0000 0.0000 28.3508
#
#
#
# Elastic Compliance Matrix: (Units=1/GPa)
#
#
# Indices 1 2 3 4 5 6 
#
# 1 0.009052 -0.000822 -0.006794 0.000000 0.000000 0.000000
# 2 -0.000822 0.008610 0.001432 0.000000 0.000000 0.000000
# 3 -0.006794 0.001432 0.026788 0.000000 0.000000 0.000000
# 4 0.000000 0.000000 0.000000 1.515634 0.000000 0.000000
# 5 0.000000 0.000000 0.000000 0.000000 -0.034150 0.000000
# 6 0.000000 0.000000 0.000000 0.000000 0.000000 0.035272
#
#
# Mechanical properties :
#
#
# Convention : Reuss Voigt Hill
#
# Bulk Modulus (GPa) = 31.17010 41.69972 36.43491
# Shear Modulus (GPa) = 3.15603 17.51185 10.33394
#
# Velocity S-wave (km/s) = 1.28441 3.02552 2.32417
# Velocity P-wave (km/s) = 4.30033 5.83115 5.12324
#
# Compressibility (1/GPa) = 0.03208202
#
# Stress axis : x y z
#
# Youngs Moduli (GPa) = 110.47316 116.13767 37.33047
#
# Poissons Ratio (x) = 0.09543 0.25364
# Poissons Ratio (y) = 0.09077 -0.05346
# Poissons Ratio (z) = 0.75060 -0.16631
#
# Static dielectric constant tensor:
#      x y z
#    x 1.640290 0.000000 0.000000 
#    y 0.000000 1.767700 0.000000 
#    z 0.000000 0.000000 1.659250 
# 
# From -- ./inp_files/30588.got.cif
#   From: 2010.05.17/outbox.cif.g08.bks.cpg/sg73_16_cif.got.tgz:30588.got - 2010.06.03 17:35:07.
