data_PCOD9530748
_publ_section_title
;
Structure prediction by ZEFSAII (Michael W. Deem and Ramdas Pophale) SiO2 
 PCOD9530748
Probable space group: I B C A 
;
_chemical_formula_sum "Si O2"
_cell_formula_units_Z 104
_cell_length_a 31.198150
_cell_length_b 7.449901
_cell_length_c 19.890831
_cell_angle_alpha 90.000000
_cell_angle_beta 90.000000
_cell_angle_gamma 90.000000
_cell_volume 4623.089177
_symmetry_space_group_name_H-M "I B C A "
_symmetry_group_IT_number 73
_symmetry_cell_setting 'orthorhombic'
loop_
_space_group_symop_operation_xyz
x,y,z
-x,1/2-y,z
x,-y,1/2-z
1/2-x,y,-z
-x,-y,-z
x,1/2+y,-z
-x,y,1/2+z
1/2+x,-y,z
1/2+x,1/2+y,1/2+z
1/2-x,-y,1/2+z
1/2+x,1/2-y,-z
-x,1/2+y,1/2-z
1/2-x,1/2-y,1/2-z
1/2+x,y,1/2-z
1/2-x,1/2+y,z
x,1/2-y,1/2+z
loop_
_atom_site_type_symbol
_atom_site_label
_atom_site_fract_x
_atom_site_fract_y
_atom_site_fract_z
Si Si1 0.600505 0.114859 0.136709
Si Si2 0.286773 0.451957 0.670141
Si Si3 0.000000 0.750000 0.436855
Si Si4 0.908695 0.838718 0.969546
Si Si5 0.371498 0.509342 0.901656
Si Si6 0.306407 0.460507 0.171639
Si Si7 0.490879 0.455035 0.175389
O O1 0.606668 0.331423 0.144083
O O2 0.645380 0.012506 0.148569
O O3 0.560919 0.039502 0.178598
O O4 0.588886 0.037246 0.063713
O O5 0.287545 0.500000 0.750000
O O6 0.325145 0.544438 0.628818
O O7 0.237949 0.460431 0.643756
O O8 0.299521 0.248406 0.663158
O O9 0.041256 0.794922 0.481696
O O10 0.006718 0.586010 0.383684
O O11 0.894646 0.677491 0.919440
O O12 0.874298 0.876624 0.028563
O O13 0.305851 0.500000 0.250000
O O14 0.500000 0.250000 0.158005
O O15 0.508243 0.500000 0.250000
#
# Coordination Sequence:
#
# PCOD9530748 Si02
#       7
#    16  16   8  16  16  16  16
#     4  10  23  40  61  93 126 172 213 263 322 380
#     4  10  22  38  64  95 125 161 209 259 329 385
#     4  10  24  42  62  94 118 182 216 266 320 376
#     4  11  23  42  66  87 129 162 220 262 315 373
#     4  11  23  43  64  94 124 166 211 272 313 381
#     4  10  20  37  62  93 126 164 209 258 316 393
#     4  11  21  40  62  92 136 170 215 267 327 388
#
# _framework density 22.49578
#
# number of rings (size 3 to 8) (size 9 to 14) (size 15 to 20)
#    0.000    1.538    2.308    3.231    4.308    0.615 
#    4.154    1.538    0.000    0.000    0.000    0.000 
#    0.000    0.000    0.000    0.000    0.000    0.000 
#
# Total GULP energy -289493.297970 kJ/mol
# GULP energy per Si atom -5567.178807 kJ/mol
# Density = 2.244458 g / cm^3
# Si number density = 22.495780 Si / 1000 Ang^3
#
#
#
# Elastic Constant Matrix: (Units=GPa)
#
#
# Indices 1 2 3 4 5 6 
#
# 1 148.2313 7.8837 27.2207 0.0000 0.0000 0.0000
# 2 7.8837 80.2035 -4.5359 0.0000 0.0000 0.0000
# 3 27.2207 -4.5359 55.0585 0.0000 0.0000 0.0000
# 4 0.0000 0.0000 0.0000 13.6008 0.0000 0.0000
# 5 0.0000 0.0000 0.0000 0.0000 36.4526 0.0000
# 6 0.0000 0.0000 0.0000 0.0000 0.0000 31.1724
#
#
#
# Elastic Compliance Matrix: (Units=1/GPa)
#
#
# Indices 1 2 3 4 5 6 
#
# 1 0.007491 -0.000950 -0.003782 0.000000 0.000000 0.000000
# 2 -0.000950 0.012647 0.001512 0.000000 0.000000 0.000000
# 3 -0.003782 0.001512 0.020157 0.000000 0.000000 0.000000
# 4 0.000000 0.000000 0.000000 0.073525 0.000000 0.000000
# 5 0.000000 0.000000 0.000000 0.000000 0.027433 0.000000
# 6 0.000000 0.000000 0.000000 0.000000 0.000000 0.032080
#
#
# Mechanical properties :
#
#
# Convention : Reuss Voigt Hill
#
# Bulk Modulus (GPa) = 29.53835 38.29226 33.91530
# Shear Modulus (GPa) = 26.16996 33.10681 29.63839
#
# Velocity S-wave (km/s) = 3.41446 3.84042 3.63369
# Velocity P-wave (km/s) = 5.35760 6.06004 5.71961
#
# Compressibility (1/GPa) = 0.03385430
#
# Stress axis : x y z
#
# Youngs Moduli (GPa) = 133.48908 79.06904 49.61108
#
# Poissons Ratio (x) = 0.07513 0.18763
# Poissons Ratio (y) = 0.12685 -0.07500
# Poissons Ratio (z) = 0.50485 -0.11953
#
# Static dielectric constant tensor:
#      x y z
#    x 2.106120 0.000000 0.000000 
#    y 0.000000 1.855050 0.000000 
#    z 0.000000 0.000000 1.888150 
# 
# From -- ./inp_files/27585.got.cif
#   From: 2010.05.17/outbox.cif.g08.bks.cpg/sg73_14_cif.got.tgz:27585.got - 2010.06.03 17:35:07.
