data_PCOD9530491
_publ_section_title
;
Structure prediction by ZEFSAII (Michael W. Deem and Ramdas Pophale) SiO2 
 PCOD9530491
Probable space group: I B C A 
;
_chemical_formula_sum "Si O2"
_cell_formula_units_Z 88
_cell_length_a 5.030502
_cell_length_b 28.856384
_cell_length_c 23.631743
_cell_angle_alpha 90.000000
_cell_angle_beta 90.000000
_cell_angle_gamma 90.000000
_cell_volume 3430.433380
_symmetry_space_group_name_H-M "I B C A "
_symmetry_group_IT_number 73
_symmetry_cell_setting 'orthorhombic'
loop_
_space_group_symop_operation_xyz
x,y,z
-x,1/2-y,z
x,-y,1/2-z
1/2-x,y,-z
-x,-y,-z
x,1/2+y,-z
-x,y,1/2+z
1/2+x,-y,z
1/2+x,1/2+y,1/2+z
1/2-x,-y,1/2+z
1/2+x,1/2-y,-z
-x,1/2+y,1/2-z
1/2-x,1/2-y,1/2-z
1/2+x,y,1/2-z
1/2-x,1/2+y,z
x,1/2-y,1/2+z
loop_
_atom_site_type_symbol
_atom_site_label
_atom_site_fract_x
_atom_site_fract_y
_atom_site_fract_z
Si Si1 0.210524 0.939031 0.282299
Si Si2 0.539344 0.876024 0.402049
Si Si3 0.000000 0.750000 0.360348
Si Si4 0.847482 0.529170 0.590423
Si Si5 0.398604 0.205887 0.048676
Si Si6 0.977189 0.647927 0.332501
O O1 0.415597 0.953614 0.234318
O O2 0.317261 0.957011 0.342572
O O3 0.169986 0.882880 0.285123
O O4 0.477400 0.923689 0.433244
O O5 0.630082 0.829221 0.432772
O O6 0.761471 0.879900 0.353462
O O7 0.249546 0.858297 0.380950
O O8 0.760940 0.732150 0.400661
O O9 0.953021 0.797759 0.324609
O O10 0.553182 0.511803 0.576785
O O11 0.500000 0.250000 0.014559
O O12 0.250000 0.177279 0.000000
#
# Coordination Sequence:
#
# PCOD9530491 Si02
#       6
#    16  16   8  16  16  16
#     4  11  22  37  55  82 117 145 186 251 308 347
#     4  10  21  37  57  84 122 158 195 244 298 360
#     4  10  20  34  56  82 118 160 206 240 282 360
#     4  11  22  38  60  84 109 151 202 242 295 361
#     4  11  20  34  58  93 125 153 195 249 307 354
#     4  10  20  36  56  80 115 163 200 235 296 363
#
# _framework density 25.652735
#
# number of rings (size 3 to 8) (size 9 to 14) (size 15 to 20)
#    0.000    1.455    2.727    5.455    0.000    2.182 
#    0.000    0.909    0.000    1.091    0.000    0.000 
#    0.000    0.000    0.000    0.000    0.000    0.000 
#
# Total GULP energy -245001.074800 kJ/mol
# GULP energy per Si atom -5568.206245 kJ/mol
# Density = 2.559435 g / cm^3
# Si number density = 25.652735 Si / 1000 Ang^3
#
#
#
# Elastic Constant Matrix: (Units=GPa)
#
#
# Indices 1 2 3 4 5 6 
#
# 1 134.3866 15.9047 0.8019 0.0000 0.0000 0.0000
# 2 15.9047 176.3623 9.0394 0.0000 0.0000 0.0000
# 3 0.8019 9.0394 14.7973 0.0000 0.0000 0.0000
# 4 0.0000 0.0000 0.0000 -1.5709 0.0000 0.0000
# 5 0.0000 0.0000 0.0000 0.0000 15.7708 0.0000
# 6 0.0000 0.0000 0.0000 0.0000 0.0000 31.3355
#
#
#
# Elastic Compliance Matrix: (Units=1/GPa)
#
#
# Indices 1 2 3 4 5 6 
#
# 1 0.007521 -0.000679 0.000007 0.000000 0.000000 0.000000
# 2 -0.000679 0.005915 -0.003576 0.000000 0.000000 0.000000
# 3 0.000007 -0.003576 0.069764 0.000000 0.000000 0.000000
# 4 0.000000 0.000000 0.000000 -0.636597 0.000000 0.000000
# 5 0.000000 0.000000 0.000000 0.000000 0.063408 0.000000
# 6 0.000000 0.000000 0.000000 0.000000 0.000000 0.031913
#
#
# Mechanical properties :
#
#
# Convention : Reuss Voigt Hill
#
# Bulk Modulus (GPa) = 13.38612 41.89316 27.63964
# Shear Modulus (GPa) = -11.77362 29.09376 8.66007
#
# Velocity S-wave (km/s) = -2.14466 3.37135 1.83935
# Velocity P-wave (km/s) = 0.95039 5.61436 3.91266
#
# Compressibility (1/GPa) = 0.07470425
#
# Stress axis : x y z
#
# Youngs Moduli (GPa) = 132.95230 169.07148 14.33398
#
# Poissons Ratio (x) = 0.11474 -0.00010
# Poissons Ratio (y) = 0.09023 0.05126
# Poissons Ratio (z) = -0.00093 0.60467
#
# Static dielectric constant tensor:
#      x y z
#    x 2.076630 0.000000 0.000000 
#    y 0.000000 2.383470 0.000000 
#    z 0.000000 0.000000 2.066750 
# 
# From -- ./inp_files/33306.got.cif
#   From: 2010.05.17/outbox.cif.g08.bks.cpg/sg73_17_cif.got.tgz:33306.got - 2010.06.03 17:35:07.
