data_PCOD9530992
_publ_section_title
;
Structure prediction by ZEFSAII (Michael W. Deem and Ramdas Pophale) SiO2 
 PCOD9530992
Probable space group: I B C A 
;
_chemical_formula_sum "Si O2"
_cell_formula_units_Z 56
_cell_length_a 12.393460
_cell_length_b 8.808678
_cell_length_c 20.440824
_cell_angle_alpha 90.000000
_cell_angle_beta 90.000000
_cell_angle_gamma 90.000000
_cell_volume 2231.524724
_symmetry_space_group_name_H-M "I B C A "
_symmetry_group_IT_number 73
_symmetry_cell_setting 'orthorhombic'
loop_
_space_group_symop_operation_xyz
x,y,z
-x,1/2-y,z
x,-y,1/2-z
1/2-x,y,-z
-x,-y,-z
x,1/2+y,-z
-x,y,1/2+z
1/2+x,-y,z
1/2+x,1/2+y,1/2+z
1/2-x,-y,1/2+z
1/2+x,1/2-y,-z
-x,1/2+y,1/2-z
1/2-x,1/2-y,1/2-z
1/2+x,y,1/2-z
1/2-x,1/2+y,z
x,1/2-y,1/2+z
loop_
_atom_site_type_symbol
_atom_site_label
_atom_site_fract_x
_atom_site_fract_y
_atom_site_fract_z
Si Si1 0.000000 0.750000 0.673651
Si Si2 0.639800 0.000000 0.750000
Si Si3 0.419947 0.028685 0.901865
Si Si4 0.843263 0.668431 0.872972
Si Si5 0.250000 0.039595 0.500000
O O1 0.932753 0.634487 0.718742
O O2 0.070153 0.639741 0.627144
O O3 0.698482 0.081075 0.809717
O O4 0.354537 0.153749 0.860081
O O5 0.541105 0.095197 0.893916
O O6 0.360446 0.039853 0.972953
O O7 0.775423 0.638229 0.937038
#
# Coordination Sequence:
#
# PCOD9530992 Si02
#       5
#     8   8  16  16   8
#     4  10  20  40  66  94 128 170 212 268 326 384
#     4  10  20  40  66  96 130 168 214 266 326 384
#     4  10  23  42  67  96 129 171 216 267 323 382
#     4  10  23  42  66  97 132 171 217 268 322 382
#     4  12  24  42  66  96 132 176 220 264 318 386
#
# _framework density 25.094950000000001
#
# number of rings (size 3 to 8) (size 9 to 14) (size 15 to 20)
#    0.000    1.714    0.000    5.143    0.000   11.429 
#    0.000   11.429    0.000    0.000    0.000    0.000 
#    0.000    0.000    0.000    0.000    0.000    0.000 
#
# Total GULP energy -156324.848843 kJ/mol
# GULP energy per Si atom -5583.030316 kJ/mol
# Density = 2.503783 g / cm^3
# Si number density = 25.094950 Si / 1000 Ang^3
#
#
#
# Elastic Constant Matrix: (Units=GPa)
#
#
# Indices 1 2 3 4 5 6 
#
# 1 72.1500 31.5356 48.2397 0.0000 0.0000 0.0000
# 2 31.5356 170.6591 82.9158 0.0000 0.0000 0.0000
# 3 48.2397 82.9158 170.3995 0.0000 0.0000 0.0000
# 4 0.0000 0.0000 0.0000 24.5584 0.0000 0.0000
# 5 0.0000 0.0000 0.0000 0.0000 42.0208 0.0000
# 6 0.0000 0.0000 0.0000 0.0000 0.0000 -26.2122
#
#
#
# Elastic Compliance Matrix: (Units=1/GPa)
#
#
# Indices 1 2 3 4 5 6 
#
# 1 0.017243 -0.001067 -0.004362 0.000000 0.000000 0.000000
# 2 -0.001067 0.007740 -0.003464 0.000000 0.000000 0.000000
# 3 -0.004362 -0.003464 0.008789 0.000000 0.000000 0.000000
# 4 0.000000 0.000000 0.000000 0.040719 0.000000 0.000000
# 5 0.000000 0.000000 0.000000 0.000000 0.023798 0.000000
# 6 0.000000 0.000000 0.000000 0.000000 0.000000 -0.038150
#
#
# Mechanical properties :
#
#
# Convention : Reuss Voigt Hill
#
# Bulk Modulus (GPa) = 62.55722 82.06565 72.31143
# Shear Modulus (GPa) = 60.05721 24.77456 42.41589
#
# Velocity S-wave (km/s) = 4.89734 3.14544 4.11568
# Velocity P-wave (km/s) = 7.54725 6.77973 7.17376
#
# Compressibility (1/GPa) = 0.01598536
#
# Stress axis : x y z
#
# Youngs Moduli (GPa) = 57.99461 129.20137 113.77620
#
# Poissons Ratio (x) = 0.13783 0.49633
# Poissons Ratio (y) = 0.06187 0.39414
# Poissons Ratio (z) = 0.25299 0.44758
#
# Static dielectric constant tensor:
#      x y z
#    x 2.172550 0.000000 0.000000 
#    y 0.000000 1.987430 0.000000 
#    z 0.000000 0.000000 1.937630 
# 
# From -- ./inp_files/4492.got.cif
#   From: 2010.05.17/outbox.cif.g08.bks.cpg/sg73_3_cif.got.tgz:4492.got - 2010.06.03 17:35:07.
