data_PCOD9530615
_publ_section_title
;
Structure prediction by ZEFSAII (Michael W. Deem and Ramdas Pophale) SiO2 
 PCOD9530615
Probable space group: I B C A 
;
_chemical_formula_sum "Si O2"
_cell_formula_units_Z 96
_cell_length_a 12.215382
_cell_length_b 23.306185
_cell_length_c 16.159674
_cell_angle_alpha 90.000000
_cell_angle_beta 90.000000
_cell_angle_gamma 90.000000
_cell_volume 4600.561466
_symmetry_space_group_name_H-M "I B C A "
_symmetry_group_IT_number 73
_symmetry_cell_setting 'orthorhombic'
loop_
_space_group_symop_operation_xyz
x,y,z
-x,1/2-y,z
x,-y,1/2-z
1/2-x,y,-z
-x,-y,-z
x,1/2+y,-z
-x,y,1/2+z
1/2+x,-y,z
1/2+x,1/2+y,1/2+z
1/2-x,-y,1/2+z
1/2+x,1/2-y,-z
-x,1/2+y,1/2-z
1/2-x,1/2-y,1/2-z
1/2+x,y,1/2-z
1/2-x,1/2+y,z
x,1/2-y,1/2+z
loop_
_atom_site_type_symbol
_atom_site_label
_atom_site_fract_x
_atom_site_fract_y
_atom_site_fract_z
Si Si1 0.815935 0.715080 0.083266
Si Si2 0.940547 0.539853 0.835035
Si Si3 0.674673 0.438142 0.794327
Si Si4 0.153063 0.054083 0.935665
Si Si5 0.563309 0.829921 0.887899
Si Si6 0.192551 0.149414 0.716923
O O1 0.855911 0.780916 0.076693
O O2 0.730412 0.700788 0.157393
O O3 0.934847 0.685524 0.102068
O O4 0.750000 0.698042 0.000000
O O5 0.937229 0.500000 0.750000
O O6 0.916431 0.501735 0.915004
O O7 0.861813 0.594249 0.827920
O O8 0.062083 0.563493 0.841773
O O9 0.676125 0.500000 0.750000
O O10 0.778762 0.438019 0.851748
O O11 0.692293 0.379987 0.744236
O O12 0.082796 0.111543 0.938801
O O13 0.250000 0.046488 0.000000
O O14 0.609443 0.835356 0.792571
#
# Coordination Sequence:
#
# PCOD9530615 Si02
#       6
#    16  16  16  16  16  16
#     4  11  25  43  67  97 131 166 218 287 334 375
#     4  11  20  36  60  90 122 164 208 256 308 382
#     4  10  20  36  58  86 122 166 205 249 309 382
#     4  11  22  37  60  88 129 170 209 261 324 386
#     4  10  23  45  65  91 127 175 221 264 327 398
#     4  11  20  40  67  97 125 171 216 263 321 402
#
# _framework density 20.86702
#
# number of rings (size 3 to 8) (size 9 to 14) (size 15 to 20)
#    0.000    1.333    5.000    2.000    2.333    2.667 
#    0.000    8.333    0.000    0.000    0.000    0.000 
#    0.000    0.000    0.000    0.000    0.000    0.000 
#
# Total GULP energy -267274.379945 kJ/mol
# GULP energy per Si atom -5568.216249 kJ/mol
# Density = 2.081953 g / cm^3
# Si number density = 20.867020 Si / 1000 Ang^3
#
#
#
# Elastic Constant Matrix: (Units=GPa)
#
#
# Indices 1 2 3 4 5 6 
#
# 1 114.4354 38.5432 24.1621 0.0000 0.0000 0.0000
# 2 38.5432 58.4665 13.2459 0.0001 0.0001 0.0000
# 3 24.1621 13.2459 58.9279 0.0002 0.0001 0.0000
# 4 0.0000 0.0001 0.0002 18.4961 0.0001 0.0000
# 5 0.0000 0.0001 0.0001 0.0001 31.4876 0.0000
# 6 0.0000 0.0000 0.0000 0.0000 0.0000 2.1195
#
#
#
# Elastic Compliance Matrix: (Units=1/GPa)
#
#
# Indices 1 2 3 4 5 6 
#
# 1 0.011797 -0.007039 -0.003255 0.000000 0.000000 0.000000
# 2 -0.007039 0.022222 -0.002109 0.000000 0.000000 0.000000
# 3 -0.003255 -0.002109 0.018778 0.000000 0.000000 0.000000
# 4 0.000000 0.000000 0.000000 0.054065 0.000000 0.000001
# 5 0.000000 0.000000 0.000000 0.000000 0.031758 0.000000
# 6 0.000000 0.000000 0.000000 0.000001 0.000000 0.471812
#
#
# Mechanical properties :
#
#
# Convention : Reuss Voigt Hill
#
# Bulk Modulus (GPa) = 35.72502 42.63693 39.18098
# Shear Modulus (GPa) = 7.75711 20.81256 14.28484
#
# Velocity S-wave (km/s) = 1.93015 3.16157 2.61926
# Velocity P-wave (km/s) = 4.70370 5.81416 5.28816
#
# Compressibility (1/GPa) = 0.02799158
#
# Stress axis : x y z
#
# Youngs Moduli (GPa) = 84.76937 45.00004 53.25270
#
# Poissons Ratio (x) = 0.31678 0.17332
# Poissons Ratio (y) = 0.59673 0.11230
# Poissons Ratio (z) = 0.27589 0.09489
#
# Static dielectric constant tensor:
#      x y z
#    x 1.743650 0.000000 0.000000 
#    y 0.000000 1.982990 0.000000 
#    z 0.000000 0.000000 1.868650 
# 
# From -- ./inp_files/13615.got.cif
#   From: 2010.05.17/outbox.cif.g08.bks.cpg/sg73_7_cif.got.tgz:13615.got - 2010.06.03 17:35:07.
