data_PCOD9530152
_publ_section_title
;
Structure prediction by ZEFSAII (Michael W. Deem and Ramdas Pophale) SiO2 
 PCOD9530152
Probable space group: I B C A 
;
_chemical_formula_sum "Si O2"
_cell_formula_units_Z 80
_cell_length_a 20.461576
_cell_length_b 8.614668
_cell_length_c 17.900134
_cell_angle_alpha 90.000000
_cell_angle_beta 90.000000
_cell_angle_gamma 90.000000
_cell_volume 3155.250964
_symmetry_space_group_name_H-M "I B C A "
_symmetry_group_IT_number 73
_symmetry_cell_setting 'orthorhombic'
loop_
_space_group_symop_operation_xyz
x,y,z
-x,1/2-y,z
x,-y,1/2-z
1/2-x,y,-z
-x,-y,-z
x,1/2+y,-z
-x,y,1/2+z
1/2+x,-y,z
1/2+x,1/2+y,1/2+z
1/2-x,-y,1/2+z
1/2+x,1/2-y,-z
-x,1/2+y,1/2-z
1/2-x,1/2-y,1/2-z
1/2+x,y,1/2-z
1/2-x,1/2+y,z
x,1/2-y,1/2+z
loop_
_atom_site_type_symbol
_atom_site_label
_atom_site_fract_x
_atom_site_fract_y
_atom_site_fract_z
Si Si1 0.826539 0.846943 0.313136
Si Si2 0.500000 0.750000 0.576879
Si Si3 0.123511 0.930692 0.961087
Si Si4 0.890137 0.046245 0.617744
Si Si5 0.250000 0.769635 0.500000
Si Si6 0.312373 0.248266 0.150311
O O1 0.872232 0.943111 0.370970
O O2 0.846842 0.667949 0.335686
O O3 0.829457 0.849578 0.223644
O O4 0.749342 0.857756 0.329042
O O5 0.445100 0.660446 0.529289
O O6 0.462424 0.882086 0.624536
O O7 0.190257 0.838605 0.975671
O O8 0.123238 0.053790 0.028105
O O9 0.871463 0.868664 0.634922
O O10 0.282428 0.838415 0.423710
#
# Coordination Sequence:
#
# PCOD9530152 Si02
#       6
#    16   8  16  16   8  16
#     4   9  18  33  57  87 119 165 208 260 342 403
#     4  10  20  34  58  88 122 172 228 272 338 410
#     4   9  18  34  56  89 123 162 220 274 327 402
#     4  10  19  34  57  86 124 170 217 273 332 406
#     4   8  16  32  54  86 122 156 200 266 330 388
#     4   9  17  33  57  89 123 156 208 267 333 407
#
# _framework density 25.354558999999998
#
# number of rings (size 3 to 8) (size 9 to 14) (size 15 to 20)
#    0.000    2.800    0.000    1.200    0.000    0.000 
#    0.000   78.000    0.000   30.000    0.000  156.800 
#    0.000    0.000    0.000    0.000    0.000    0.200 
#
# Total GULP energy -222793.967797 kJ/mol
# GULP energy per Si atom -5569.849195 kJ/mol
# Density = 2.529685 g / cm^3
# Si number density = 25.354559 Si / 1000 Ang^3
#
#
#
# Elastic Constant Matrix: (Units=GPa)
#
#
# Indices 1 2 3 4 5 6 
#
# 1 129.5833 36.3268 37.4785 0.0000 0.0000 0.0000
# 2 36.3268 65.7021 47.8338 0.0000 0.0000 0.0000
# 3 37.4785 47.8338 193.4969 0.0000 0.0000 0.0000
# 4 0.0000 0.0000 0.0000 53.8718 0.0000 0.0000
# 5 0.0000 0.0000 0.0000 0.0000 23.4111 0.0000
# 6 0.0000 0.0000 0.0000 0.0000 0.0000 18.9316
#
#
#
# Elastic Compliance Matrix: (Units=1/GPa)
#
#
# Indices 1 2 3 4 5 6 
#
# 1 0.009197 -0.004620 -0.000639 0.000000 0.000000 0.000000
# 2 -0.004620 0.020881 -0.004267 0.000000 0.000000 0.000000
# 3 -0.000639 -0.004267 0.006347 0.000000 0.000000 0.000000
# 4 0.000000 0.000000 0.000000 0.018563 0.000000 0.000000
# 5 0.000000 0.000000 0.000000 0.000000 0.042715 0.000000
# 6 0.000000 0.000000 0.000000 0.000000 0.000000 0.052822
#
#
# Mechanical properties :
#
#
# Convention : Reuss Voigt Hill
#
# Bulk Modulus (GPa) = 57.56190 70.22893 63.89541
# Shear Modulus (GPa) = 28.51164 37.05244 32.78204
#
# Velocity S-wave (km/s) = 3.35702 3.82694 3.59965
# Velocity P-wave (km/s) = 6.14640 6.87649 6.52167
#
# Compressibility (1/GPa) = 0.01737260
#
# Stress axis : x y z
#
# Youngs Moduli (GPa) = 108.73122 47.89031 157.56069
#
# Poissons Ratio (x) = 0.22123 0.10074
# Poissons Ratio (y) = 0.50229 0.67234
# Poissons Ratio (z) = 0.06952 0.20436
#
# Static dielectric constant tensor:
#      x y z
#    x 1.979180 0.000000 0.000000 
#    y 0.000000 2.147240 0.000000 
#    z 0.000000 0.000000 2.145080 
# 
# From -- ./inp_files/23055.got.cif
#   From: 2010.05.17/outbox.cif.g08.bks.cpg/sg73_12_cif.got.tgz:23055.got - 2010.06.03 17:35:07.
