data_PCOD9530966
_publ_section_title
;
Structure prediction by ZEFSAII (Michael W. Deem and Ramdas Pophale) SiO2 
 PCOD9530966
Probable space group: I B C A 
;
_chemical_formula_sum "Si O2"
_cell_formula_units_Z 112
_cell_length_a 11.510803
_cell_length_b 12.407044
_cell_length_c 30.564658
_cell_angle_alpha 90.000000
_cell_angle_beta 90.000000
_cell_angle_gamma 90.000000
_cell_volume 4365.092833
_symmetry_space_group_name_H-M "I B C A "
_symmetry_group_IT_number 73
_symmetry_cell_setting 'orthorhombic'
loop_
_space_group_symop_operation_xyz
x,y,z
-x,1/2-y,z
x,-y,1/2-z
1/2-x,y,-z
-x,-y,-z
x,1/2+y,-z
-x,y,1/2+z
1/2+x,-y,z
1/2+x,1/2+y,1/2+z
1/2-x,-y,1/2+z
1/2+x,1/2-y,-z
-x,1/2+y,1/2-z
1/2-x,1/2-y,1/2-z
1/2+x,y,1/2-z
1/2-x,1/2+y,z
x,1/2-y,1/2+z
loop_
_atom_site_type_symbol
_atom_site_label
_atom_site_fract_x
_atom_site_fract_y
_atom_site_fract_z
Si Si1 0.000000 0.750000 0.108663
Si Si2 0.420469 0.352003 0.874169
Si Si3 0.308101 0.029251 0.069723
Si Si4 0.561012 0.883486 0.727457
Si Si5 0.750000 0.133476 0.000000
Si Si6 0.013013 0.613252 0.526660
Si Si7 0.763736 0.818102 0.141819
Si Si8 0.805414 0.626538 0.261031
O O1 0.952993 0.658701 0.075252
O O2 0.900541 0.800618 0.138144
O O3 0.500000 0.250000 0.888227
O O4 0.403707 0.454576 0.905224
O O5 0.456645 0.386401 0.825096
O O6 0.295877 0.294716 0.869126
O O7 0.236425 0.947387 0.040768
O O8 0.373137 0.115820 0.038875
O O9 0.234052 0.094100 0.104845
O O10 0.438944 0.838584 0.745985
O O11 0.690565 0.834471 0.734767
O O12 0.570829 0.000000 0.750000
O O13 0.884840 0.175217 0.002056
O O14 0.000000 0.500000 0.500000
O O15 0.726036 0.861537 0.188190
O O16 0.812573 0.500000 0.250000
#
# Coordination Sequence:
#
# PCOD9530966 Si02
#       8
#     8  16  16  16   8  16  16  16
#     4  10  22  44  70 100 140 186 244 294 372 460
#     4  12  25  45  69 106 139 185 247 299 365 454
#     4  10  23  42  68  98 141 182 234 298 369 434
#     4  10  22  42  67  99 144 185 239 304 373 442
#     4  10  20  40  64  94 132 184 228 288 352 434
#     4   9  20  40  62  96 134 177 230 290 356 432
#     4  11  24  45  70 102 137 191 235 306 370 446
#     4  10  21  41  68  98 135 187 239 296 375 438
#
# _framework density 25.658100999999998
#
# number of rings (size 3 to 8) (size 9 to 14) (size 15 to 20)
#    0.000    1.714    1.429    2.571    2.000    1.714 
#    6.429   10.000    0.000    0.000    0.000    0.000 
#    0.000    0.000    0.000    0.000    0.000    0.000 
#
# Total GULP energy -311763.229647 kJ/mol
# GULP energy per Si atom -5567.200529 kJ/mol
# Density = 2.559970 g / cm^3
# Si number density = 25.658101 Si / 1000 Ang^3
#
#
#
# Elastic Constant Matrix: (Units=GPa)
#
#
# Indices 1 2 3 4 5 6 
#
# 1 161.7497 43.6503 37.2543 0.0000 0.0000 0.0000
# 2 43.6503 118.3669 48.5073 0.0000 0.0000 0.0000
# 3 37.2543 48.5073 90.3106 0.0000 0.0000 0.0000
# 4 0.0000 0.0000 0.0000 48.6589 0.0000 0.0000
# 5 0.0000 0.0000 0.0000 0.0000 57.3042 0.0000
# 6 0.0000 0.0000 0.0000 0.0000 0.0000 46.4522
#
#
#
# Elastic Compliance Matrix: (Units=1/GPa)
#
#
# Indices 1 2 3 4 5 6 
#
# 1 0.007126 -0.001825 -0.001959 0.000000 0.000000 0.000000
# 2 -0.001825 0.011300 -0.005317 0.000000 0.000000 0.000000
# 3 -0.001959 -0.005317 0.014737 0.000000 0.000000 0.000000
# 4 0.000000 0.000000 0.000000 0.020551 0.000000 0.000000
# 5 0.000000 0.000000 0.000000 0.000000 0.017451 0.000000
# 6 0.000000 0.000000 0.000000 0.000000 0.000000 0.021528
#
#
# Mechanical properties :
#
#
# Convention : Reuss Voigt Hill
#
# Bulk Modulus (GPa) = 66.84018 69.91677 68.37848
# Shear Modulus (GPa) = 43.14748 46.55074 44.84911
#
# Velocity S-wave (km/s) = 4.10522 4.26405 4.18539
# Velocity P-wave (km/s) = 6.96974 7.17993 7.07561
#
# Compressibility (1/GPa) = 0.01496106
#
# Stress axis : x y z
#
# Youngs Moduli (GPa) = 140.32776 88.49500 67.85711
#
# Poissons Ratio (x) = 0.16150 0.13296
# Poissons Ratio (y) = 0.25609 0.36077
# Poissons Ratio (z) = 0.27496 0.47050
#
# Static dielectric constant tensor:
#      x y z
#    x 3.171840 0.000000 0.000000 
#    y 0.000000 2.170020 0.000000 
#    z 0.000000 0.000000 2.013170 
# 
# From -- ./inp_files/34068.got.cif
#   From: 2010.05.17/outbox.cif.g08.bks.cpg/sg73_18_cif.got.tgz:34068.got - 2010.06.03 17:35:07.
