data_PCOD9530884
_publ_section_title
;
Structure prediction by ZEFSAII (Michael W. Deem and Ramdas Pophale) SiO2 
 PCOD9530884
Probable space group: I B C A 
;
_chemical_formula_sum "Si O2"
_cell_formula_units_Z 120
_cell_length_a 25.856072
_cell_length_b 12.588396
_cell_length_c 17.446064
_cell_angle_alpha 90.000000
_cell_angle_beta 90.000000
_cell_angle_gamma 90.000000
_cell_volume 5678.457845
_symmetry_space_group_name_H-M "I B C A "
_symmetry_group_IT_number 73
_symmetry_cell_setting 'orthorhombic'
loop_
_space_group_symop_operation_xyz
x,y,z
-x,1/2-y,z
x,-y,1/2-z
1/2-x,y,-z
-x,-y,-z
x,1/2+y,-z
-x,y,1/2+z
1/2+x,-y,z
1/2+x,1/2+y,1/2+z
1/2-x,-y,1/2+z
1/2+x,1/2-y,-z
-x,1/2+y,1/2-z
1/2-x,1/2-y,1/2-z
1/2+x,y,1/2-z
1/2-x,1/2+y,z
x,1/2-y,1/2+z
loop_
_atom_site_type_symbol
_atom_site_label
_atom_site_fract_x
_atom_site_fract_y
_atom_site_fract_z
Si Si1 0.650458 0.296990 0.461510
Si Si2 0.540351 0.170850 0.894660
Si Si3 0.919647 0.195679 0.265400
Si Si4 0.793683 0.006531 0.087603
Si Si5 0.494223 0.453141 0.164975
Si Si6 0.386538 0.132314 0.621381
Si Si7 0.824278 0.436435 0.069056
Si Si8 0.844679 0.500000 0.750000
O O1 0.595517 0.342251 0.433953
O O2 0.698414 0.370378 0.435824
O O3 0.641230 0.301703 0.553021
O O4 0.658867 0.183968 0.421954
O O5 0.500000 0.250000 0.935664
O O6 0.553256 0.227997 0.813442
O O7 0.517225 0.055113 0.878271
O O8 0.889324 0.290839 0.305501
O O9 0.880695 0.102301 0.243178
O O10 0.962687 0.137611 0.318704
O O11 0.736111 0.961411 0.081481
O O12 0.812382 0.989790 0.173056
O O13 0.830292 0.954707 0.022758
O O14 0.478988 0.500000 0.250000
O O15 0.446641 0.403867 0.117996
O O16 0.355784 0.021092 0.618918
#
# Coordination Sequence:
#
# PCOD9530884 Si02
#       8
#    16  16  16  16  16  16  16   8
#     4  11  23  43  64  96 133 173 225 286 346 410
#     4  11  21  36  60  88 133 180 212 274 345 396
#     4  11  20  38  62  92 127 173 221 268 324 409
#     4  10  23  44  68  91 125 174 222 277 351 406
#     4  10  20  39  60  92 132 182 222 266 334 409
#     4  11  24  39  66  97 131 178 230 271 343 416
#     4  10  24  45  66  95 132 174 216 288 353 412
#     4  12  20  42  70  96 126 172 232 280 326 422
#
# _framework density 21.132498999999999
#
# number of rings (size 3 to 8) (size 9 to 14) (size 15 to 20)
#    0.000    1.333    3.333    3.600    0.000    8.000 
#    3.600    1.333    0.000    0.000    0.000    0.000 
#    0.000    0.000    0.000    0.000    0.000    0.000 
#
# Total GULP energy -334844.397605 kJ/mol
# GULP energy per Si atom -5580.739960 kJ/mol
# Density = 2.108440 g / cm^3
# Si number density = 21.132499 Si / 1000 Ang^3
#
#
#
# Elastic Constant Matrix: (Units=GPa)
#
#
# Indices 1 2 3 4 5 6 
#
# 1 74.8959 12.8940 8.0668 0.0000 0.0000 0.0000
# 2 12.8940 77.3908 -12.9623 0.0000 0.0000 0.0000
# 3 8.0668 -12.9623 39.5179 0.0000 0.0000 0.0000
# 4 0.0000 0.0000 0.0000 12.7313 0.0000 0.0000
# 5 0.0000 0.0000 0.0000 0.0000 15.6481 0.0000
# 6 0.0000 0.0000 0.0000 0.0000 0.0000 80.8426
#
#
#
# Elastic Compliance Matrix: (Units=1/GPa)
#
#
# Indices 1 2 3 4 5 6 
#
# 1 0.014296 -0.003038 -0.003915 0.000000 0.000000 0.000000
# 2 -0.003038 0.014318 0.005317 0.000000 0.000000 0.000000
# 3 -0.003915 0.005317 0.027848 0.000000 0.000000 0.000000
# 4 0.000000 0.000000 0.000000 0.078546 0.000000 0.000000
# 5 0.000000 0.000000 0.000000 0.000000 0.063906 0.000000
# 6 0.000000 0.000000 0.000000 0.000000 0.000000 0.012370
#
#
# Mechanical properties :
#
#
# Convention : Reuss Voigt Hill
#
# Bulk Modulus (GPa) = 18.80022 23.08906 20.94464
# Shear Modulus (GPa) = 21.52520 34.09815 27.81168
#
# Velocity S-wave (km/s) = 3.19499 4.02125 3.63169
# Velocity P-wave (km/s) = 4.74618 5.70177 5.24578
#
# Compressibility (1/GPa) = 0.05319086
#
# Stress axis : x y z
#
# Youngs Moduli (GPa) = 69.94739 69.84224 35.90927
#
# Poissons Ratio (x) = 0.21215 0.14057
# Poissons Ratio (y) = 0.21247 -0.19091
# Poissons Ratio (z) = 0.27382 -0.37132
#
# Static dielectric constant tensor:
#      x y z
#    x 1.757530 0.000000 0.000000 
#    y 0.000000 1.788680 0.000000 
#    z 0.000000 0.000000 1.816840 
# 
# From -- ./inp_files/23954.got.cif
#   From: 2010.05.17/outbox.cif.g08.bks.cpg/sg73_12_cif.got.tgz:23954.got - 2010.06.03 17:35:07.
