data_PCOD9530303
_publ_section_title
;
Structure prediction by ZEFSAII (Michael W. Deem and Ramdas Pophale) SiO2 
 PCOD9530303
Probable space group: I B C A 
;
_chemical_formula_sum "Si O2"
_cell_formula_units_Z 88
_cell_length_a 26.659954
_cell_length_b 14.805350
_cell_length_c 11.267987
_cell_angle_alpha 90.000000
_cell_angle_beta 90.000000
_cell_angle_gamma 90.000000
_cell_volume 4447.586585
_symmetry_space_group_name_H-M "I B C A "
_symmetry_group_IT_number 73
_symmetry_cell_setting 'orthorhombic'
loop_
_space_group_symop_operation_xyz
x,y,z
-x,1/2-y,z
x,-y,1/2-z
1/2-x,y,-z
-x,-y,-z
x,1/2+y,-z
-x,y,1/2+z
1/2+x,-y,z
1/2+x,1/2+y,1/2+z
1/2-x,-y,1/2+z
1/2+x,1/2-y,-z
-x,1/2+y,1/2-z
1/2-x,1/2-y,1/2-z
1/2+x,y,1/2-z
1/2-x,1/2+y,z
x,1/2-y,1/2+z
loop_
_atom_site_type_symbol
_atom_site_label
_atom_site_fract_x
_atom_site_fract_y
_atom_site_fract_z
Si Si1 0.878394 0.886799 0.068917
Si Si2 0.619348 0.074789 0.043984
Si Si3 0.540066 0.673169 0.617997
Si Si4 0.951551 0.500000 0.250000
Si Si5 0.690775 0.221740 0.997722
Si Si6 0.111578 0.819563 0.821860
O O1 0.889215 0.881477 0.207803
O O2 0.928414 0.858649 0.996227
O O3 0.835930 0.812911 0.040911
O O4 0.862690 0.983927 0.020725
O O5 0.584117 0.045236 0.150681
O O6 0.665963 0.139933 0.073929
O O7 0.590974 0.131660 0.941042
O O8 0.500000 0.750000 0.590749
O O9 0.520826 0.583897 0.686451
O O10 0.580819 0.727808 0.698145
O O11 0.667881 0.203481 0.866009
O O12 0.750000 0.223972 0.000000
#
# Coordination Sequence:
#
# PCOD9530303 Si02
#       6
#    16  16  16   8  16  16
#     4  10  19  38  60  81 120 159 198 253 304 363
#     4   9  20  37  60  83 116 156 204 242 312 358
#     4  10  22  39  61  92 120 159 204 248 304 366
#     4  10  20  42  64  88 122 162 200 256 310 364
#     4   9  20  35  55  88 120 153 204 248 307 365
#     4   9  20  38  60  82 122 158 197 253 303 360
#
# _framework density 19.786010999999998
#
# number of rings (size 3 to 8) (size 9 to 14) (size 15 to 20)
#    1.091    1.455    0.000    1.636    0.000    2.182 
#    3.273    3.636    0.000    0.000    0.000    0.000 
#    0.000    0.000    0.000    0.000    0.000    0.000 
#
# Total GULP energy -245054.817836 kJ/mol
# GULP energy per Si atom -5569.427678 kJ/mol
# Density = 1.974098 g / cm^3
# Si number density = 19.786011 Si / 1000 Ang^3
#
#
#
# Elastic Constant Matrix: (Units=GPa)
#
#
# Indices 1 2 3 4 5 6 
#
# 1 80.7397 33.5411 4.7548 0.0000 0.0000 0.0000
# 2 33.5411 127.9145 18.4437 0.0000 0.0000 0.0000
# 3 4.7548 18.4437 61.0787 0.0000 0.0000 0.0000
# 4 0.0000 0.0000 0.0000 27.1197 0.0000 0.0000
# 5 0.0000 0.0000 0.0000 0.0000 3.2807 0.0000
# 6 0.0000 0.0000 0.0000 0.0000 0.0000 128.0555
#
#
#
# Elastic Compliance Matrix: (Units=1/GPa)
#
#
# Indices 1 2 3 4 5 6 
#
# 1 0.013900 -0.003647 0.000019 0.000000 0.000000 0.000000
# 2 -0.003647 0.009131 -0.002473 0.000000 0.000000 0.000000
# 3 0.000019 -0.002473 0.017118 0.000000 0.000000 0.000000
# 4 0.000000 0.000000 0.000000 0.036874 0.000000 0.000000
# 5 0.000000 0.000000 0.000000 0.000000 0.304817 0.000000
# 6 0.000000 0.000000 0.000000 0.000000 0.000000 0.007809
#
#
# Mechanical properties :
#
#
# Convention : Reuss Voigt Hill
#
# Bulk Modulus (GPa) = 35.78417 42.57913 39.18165
# Shear Modulus (GPa) = 12.16055 45.89072 29.02563
#
# Velocity S-wave (km/s) = 2.48181 4.82119 3.83427
# Velocity P-wave (km/s) = 5.13199 7.24971 6.28075
#
# Compressibility (1/GPa) = 0.02794532
#
# Stress axis : x y z
#
# Youngs Moduli (GPa) = 71.94462 109.51999 58.41926
#
# Poissons Ratio (x) = 0.39947 -0.00113
# Poissons Ratio (y) = 0.26242 0.14448
# Poissons Ratio (z) = -0.00139 0.27087
#
# Static dielectric constant tensor:
#      x y z
#    x 1.686590 0.000000 0.000000 
#    y 0.000000 1.725230 0.000000 
#    z 0.000000 0.000000 1.714190 
# 
# From -- ./inp_files/14224.got.cif
#   From: 2010.05.17/outbox.cif.g08.bks.cpg/sg73_8_cif.got.tgz:14224.got - 2010.06.03 17:35:07.
