data_PCOD9530814
_publ_section_title
;
Structure prediction by ZEFSAII (Michael W. Deem and Ramdas Pophale) SiO2 
 PCOD9530814
Probable space group: I B C A 
;
_chemical_formula_sum "Si O2"
_cell_formula_units_Z 112
_cell_length_a 18.798067
_cell_length_b 10.436212
_cell_length_c 25.096255
_cell_angle_alpha 90.000000
_cell_angle_beta 90.000000
_cell_angle_gamma 90.000000
_cell_volume 4923.398675
_symmetry_space_group_name_H-M "I B C A "
_symmetry_group_IT_number 73
_symmetry_cell_setting 'orthorhombic'
loop_
_space_group_symop_operation_xyz
x,y,z
-x,1/2-y,z
x,-y,1/2-z
1/2-x,y,-z
-x,-y,-z
x,1/2+y,-z
-x,y,1/2+z
1/2+x,-y,z
1/2+x,1/2+y,1/2+z
1/2-x,-y,1/2+z
1/2+x,1/2-y,-z
-x,1/2+y,1/2-z
1/2-x,1/2-y,1/2-z
1/2+x,y,1/2-z
1/2-x,1/2+y,z
x,1/2-y,1/2+z
loop_
_atom_site_type_symbol
_atom_site_label
_atom_site_fract_x
_atom_site_fract_y
_atom_site_fract_z
Si Si1 0.175123 0.218181 0.526808
Si Si2 0.955333 0.462659 0.350859
Si Si3 0.732294 0.437951 0.374736
Si Si4 0.672281 0.369901 0.715763
Si Si5 0.922638 0.764757 0.796736
Si Si6 0.867954 0.993567 0.946845
Si Si7 0.393992 0.507061 0.814721
O O1 0.250000 0.258624 0.500000
O O2 0.194474 0.153742 0.583024
O O3 0.130160 0.348273 0.531923
O O4 0.144511 0.102646 0.490912
O O5 0.897820 0.377262 0.320780
O O6 0.933194 0.603554 0.328047
O O7 0.937062 0.469472 0.412682
O O8 0.034592 0.424787 0.334292
O O9 0.764099 0.358416 0.325129
O O10 0.799148 0.500086 0.406401
O O11 0.677669 0.537821 0.346778
O O12 0.683072 0.500000 0.750000
O O13 0.646165 0.269930 0.759158
O O14 0.911320 0.639960 0.831612
O O15 0.000000 0.750000 0.768945
O O16 0.389932 0.500000 0.750000
#
# Coordination Sequence:
#
# PCOD9530814 Si02
#       7
#    16  16  16  16  16  16  16
#     4  10  20  38  61  87 115 149 196 251 308 361
#     4   9  18  35  57  78 108 153 199 242 298 360
#     4  10  21  33  53  85 118 156 200 245 299 359
#     4   9  17  32  51  76 111 153 202 243 285 349
#     4   9  17  30  50  76 111 158 200 237 287 351
#     4  10  21  39  64  86 113 154 201 251 307 365
#     4  11  21  33  52  84 123 159 195 237 287 351
#
# _framework density 22.748514
#
# number of rings (size 3 to 8) (size 9 to 14) (size 15 to 20)
#    0.000    2.286    0.000    4.714    0.000    1.714 
#    0.000    2.143    0.000    3.429    0.000    0.000 
#    0.000    0.000    0.000    0.000    0.000    0.000 
#
# Total GULP energy -312429.942696 kJ/mol
# GULP energy per Si atom -5579.106120 kJ/mol
# Density = 2.269674 g / cm^3
# Si number density = 22.748514 Si / 1000 Ang^3
#
#
#
# Elastic Constant Matrix: (Units=GPa)
#
#
# Indices 1 2 3 4 5 6 
#
# 1 83.7492 21.2646 62.0536 0.0000 0.0000 0.0000
# 2 21.2646 60.0326 28.2811 0.0000 0.0000 0.0000
# 3 62.0536 28.2811 107.1098 0.0000 0.0000 0.0000
# 4 0.0000 0.0000 0.0000 10.3847 0.0000 0.0000
# 5 0.0000 0.0000 0.0000 0.0000 17.9060 0.0000
# 6 0.0000 0.0000 0.0000 0.0000 0.0000 7.8948
#
#
#
# Elastic Compliance Matrix: (Units=1/GPa)
#
#
# Indices 1 2 3 4 5 6 
#
# 1 0.021121 -0.001961 -0.011719 0.000000 0.000000 0.000000
# 2 -0.001961 0.019206 -0.003935 0.000000 0.000000 0.000000
# 3 -0.011719 -0.003935 0.017164 0.000000 0.000000 0.000000
# 4 0.000000 0.000000 0.000000 0.096296 0.000000 0.000000
# 5 0.000000 0.000000 0.000000 0.000000 0.055847 0.000000
# 6 0.000000 0.000000 0.000000 0.000000 0.000000 0.126666
#
#
# Mechanical properties :
#
#
# Convention : Reuss Voigt Hill
#
# Bulk Modulus (GPa) = 44.91910 52.67670 48.79790
# Shear Modulus (GPa) = 13.19433 16.52325 14.85879
#
# Velocity S-wave (km/s) = 2.41095 2.69800 2.55850
# Velocity P-wave (km/s) = 5.24777 5.73690 5.49777
#
# Compressibility (1/GPa) = 0.02226224
#
# Stress axis : x y z
#
# Youngs Moduli (GPa) = 47.34565 52.06707 58.25994
#
# Poissons Ratio (x) = 0.10210 0.68274
# Poissons Ratio (y) = 0.09284 0.22926
# Poissons Ratio (z) = 0.55483 0.20489
#
# Static dielectric constant tensor:
#      x y z
#    x 1.929720 0.000000 0.000000 
#    y 0.000000 1.959190 0.000000 
#    z 0.000000 0.000000 1.856060 
# 
# From -- ./inp_files/30137.got.cif
#   From: 2010.05.17/outbox.cif.g08.bks.cpg/sg73_16_cif.got.tgz:30137.got - 2010.06.03 17:35:07.
