data_PCOD9530204
_publ_section_title
;
Structure prediction by ZEFSAII (Michael W. Deem and Ramdas Pophale) SiO2 
 PCOD9530204
Probable space group: I B C A 
;
_chemical_formula_sum "Si O2"
_cell_formula_units_Z 96
_cell_length_a 14.873573
_cell_length_b 16.303644
_cell_length_c 15.193592
_cell_angle_alpha 90.000000
_cell_angle_beta 90.000000
_cell_angle_gamma 90.000000
_cell_volume 3684.346378
_symmetry_space_group_name_H-M "I B C A "
_symmetry_group_IT_number 73
_symmetry_cell_setting 'orthorhombic'
loop_
_space_group_symop_operation_xyz
x,y,z
-x,1/2-y,z
x,-y,1/2-z
1/2-x,y,-z
-x,-y,-z
x,1/2+y,-z
-x,y,1/2+z
1/2+x,-y,z
1/2+x,1/2+y,1/2+z
1/2-x,-y,1/2+z
1/2+x,1/2-y,-z
-x,1/2+y,1/2-z
1/2-x,1/2-y,1/2-z
1/2+x,y,1/2-z
1/2-x,1/2+y,z
x,1/2-y,1/2+z
loop_
_atom_site_type_symbol
_atom_site_label
_atom_site_fract_x
_atom_site_fract_y
_atom_site_fract_z
Si Si1 0.419923 0.598627 0.248136
Si Si2 0.665371 0.820089 0.937144
Si Si3 0.794805 0.905634 0.230418
Si Si4 0.248832 0.339548 0.896290
Si Si5 0.522798 0.624210 0.566982
Si Si6 0.903314 0.060959 0.930597
O O1 0.433973 0.500000 0.250000
O O2 0.313962 0.610614 0.224454
O O3 0.473087 0.642139 0.170009
O O4 0.446249 0.613070 0.349661
O O5 0.657751 0.887505 0.861424
O O6 0.687935 0.740543 0.877023
O O7 0.750000 0.842070 0.000000
O O8 0.582398 0.817280 0.004999
O O9 0.817660 0.850814 0.316847
O O10 0.812200 0.000000 0.250000
O O11 0.199607 0.428283 0.902542
O O12 0.250000 0.321230 0.000000
O O13 0.427963 0.607418 0.520258
O O14 0.569141 0.533072 0.561740
#
# Coordination Sequence:
#
# PCOD9530204 Si02
#       6
#    16  16  16  16  16  16
#     4   8  15  32  54  79 109 145 180 226 297 339
#     4  11  22  36  59  88 116 155 196 237 298 356
#     4  10  20  35  60  87 115 154 192 243 294 351
#     4  10  23  39  57  83 122 155 190 246 301 352
#     4  10  19  35  60  84 113 149 198 242 276 353
#     4   9  20  36  57  83 114 153 188 241 294 337
#
# _framework density 26.056183000000001
#
# number of rings (size 3 to 8) (size 9 to 14) (size 15 to 20)
#    0.000    2.333    1.667    1.500    2.333    0.667 
#    3.000    0.833    0.000    2.000    0.000    0.000 
#    0.000    0.000    0.000    0.000    0.000    0.000 
#
# Total GULP energy -267286.994180 kJ/mol
# GULP energy per Si atom -5568.479045 kJ/mol
# Density = 2.599688 g / cm^3
# Si number density = 26.056183 Si / 1000 Ang^3
#
#
#
# Elastic Constant Matrix: (Units=GPa)
#
#
# Indices 1 2 3 4 5 6 
#
# 1 38.9681 -13.1605 -6.7250 0.0000 0.0000 0.0000
# 2 -13.1605 62.3626 19.0451 0.0000 0.0000 0.0000
# 3 -6.7250 19.0451 173.8955 0.0000 0.0000 0.0000
# 4 0.0000 0.0000 0.0000 30.4728 0.0000 0.0000
# 5 0.0000 0.0000 0.0000 0.0000 19.3987 0.0000
# 6 0.0000 0.0000 0.0000 0.0000 0.0000 -1.9112
#
#
#
# Elastic Compliance Matrix: (Units=1/GPa)
#
#
# Indices 1 2 3 4 5 6 
#
# 1 0.027665 0.005702 0.000445 0.000000 0.000000 0.000000
# 2 0.005702 0.017765 -0.001725 0.000000 0.000000 0.000000
# 3 0.000445 -0.001725 0.005957 0.000000 0.000000 0.000000
# 4 0.000000 0.000000 0.000000 0.032816 0.000000 0.000000
# 5 0.000000 0.000000 0.000000 0.000000 0.051550 0.000000
# 6 0.000000 0.000000 0.000000 0.000000 0.000000 -0.523229
#
#
# Mechanical properties :
#
#
# Convention : Reuss Voigt Hill
#
# Bulk Modulus (GPa) = 16.60267 30.39396 23.49831
# Shear Modulus (GPa) = -13.28925 27.99650 7.35363
#
# Velocity S-wave (km/s) = -2.26082 3.28146 1.68177
# Velocity P-wave (km/s) = 0.65526 5.10367 3.57897
#
# Compressibility (1/GPa) = 0.06023128
#
# Stress axis : x y z
#
# Youngs Moduli (GPa) = 36.14732 56.28917 167.87694
#
# Poissons Ratio (x) = -0.32096 -0.07477
# Poissons Ratio (y) = -0.20611 0.28961
# Poissons Ratio (z) = -0.01610 0.09711
#
# Static dielectric constant tensor:
#      x y z
#    x 2.212370 0.000000 0.000000 
#    y 0.000000 2.087840 0.000000 
#    z 0.000000 0.000000 2.192160 
# 
# From -- ./inp_files/17047.got.cif
#   From: 2010.05.17/outbox.cif.g08.bks.cpg/sg73_9_cif.got.tgz:17047.got - 2010.06.03 17:35:07.
