data_PCOD9530838
_publ_section_title
;
Structure prediction by ZEFSAII (Michael W. Deem and Ramdas Pophale) SiO2 
 PCOD9530838
Probable space group: I B C A 
;
_chemical_formula_sum "Si O2"
_cell_formula_units_Z 72
_cell_length_a 20.802604
_cell_length_b 12.599539
_cell_length_c 13.036740
_cell_angle_alpha 90.000000
_cell_angle_beta 90.000000
_cell_angle_gamma 90.000000
_cell_volume 3416.971538
_symmetry_space_group_name_H-M "I B C A "
_symmetry_group_IT_number 73
_symmetry_cell_setting 'orthorhombic'
loop_
_space_group_symop_operation_xyz
x,y,z
-x,1/2-y,z
x,-y,1/2-z
1/2-x,y,-z
-x,-y,-z
x,1/2+y,-z
-x,y,1/2+z
1/2+x,-y,z
1/2+x,1/2+y,1/2+z
1/2-x,-y,1/2+z
1/2+x,1/2-y,-z
-x,1/2+y,1/2-z
1/2-x,1/2-y,1/2-z
1/2+x,y,1/2-z
1/2-x,1/2+y,z
x,1/2-y,1/2+z
loop_
_atom_site_type_symbol
_atom_site_label
_atom_site_fract_x
_atom_site_fract_y
_atom_site_fract_z
Si Si1 0.938679 0.677219 0.769850
Si Si2 0.186003 0.706395 0.693905
Si Si3 0.186184 0.609912 0.061680
Si Si4 0.941721 0.983260 0.078078
Si Si5 0.249088 0.000000 0.250000
O O1 0.876864 0.753030 0.753992
O O2 0.929223 0.592056 0.860216
O O3 0.951169 0.607939 0.665709
O O4 0.000000 0.750000 0.790407
O O5 0.250000 0.750000 0.750000
O O6 0.179407 0.764914 0.584731
O O7 0.201866 0.582814 0.693812
O O8 0.122138 0.556987 0.019911
O O9 0.202674 0.556099 0.170783
O O10 0.250000 0.591457 0.000000
O O11 0.000000 0.000000 0.000000
#
# Coordination Sequence:
#
# PCOD9530838 Si02
#       5
#    16  16  16  16   8
#     4  10  22  40  61  85 120 160 198 244 296 349
#     4   9  19  37  60  85 115 152 194 240 291 345
#     4  10  21  38  61  90 121 156 196 244 296 349
#     4  10  22  41  61  86 120 158 199 244 295 353
#     4  10  20  38  64  90 118 156 198 242 294 354
#
# _framework density 21.071290000000001
#
# number of rings (size 3 to 8) (size 9 to 14) (size 15 to 20)
#    0.000    2.222    0.000    4.000    0.000    8.889 
#    0.000    8.889    0.000    0.000    0.000    0.000 
#    0.000    0.000    0.000    0.000    0.000    0.000 
#
# Total GULP energy -200879.596019 kJ/mol
# GULP energy per Si atom -5579.988778 kJ/mol
# Density = 2.102333 g / cm^3
# Si number density = 21.071290 Si / 1000 Ang^3
#
#
#
# Elastic Constant Matrix: (Units=GPa)
#
#
# Indices 1 2 3 4 5 6 
#
# 1 172.1471 44.6794 17.1137 0.0000 0.0000 0.0000
# 2 44.6794 92.6857 -8.7755 0.0000 0.0000 0.0000
# 3 17.1137 -8.7755 24.4434 0.0000 0.0000 0.0000
# 4 0.0000 0.0000 0.0000 3.1838 0.0000 0.0000
# 5 0.0000 0.0000 0.0000 0.0000 33.7746 0.0000
# 6 0.0000 0.0000 0.0000 0.0000 0.0000 35.2309
#
#
#
# Elastic Compliance Matrix: (Units=1/GPa)
#
#
# Indices 1 2 3 4 5 6 
#
# 1 0.007615 -0.004323 -0.006884 0.000000 0.000000 0.000000
# 2 -0.004323 0.013622 0.007917 0.000000 0.000000 0.000000
# 3 -0.006884 0.007917 0.048573 0.000000 0.000000 0.000000
# 4 0.000000 0.000000 0.000000 0.314088 0.000000 0.000000
# 5 0.000000 0.000000 0.000000 0.000000 0.029608 0.000000
# 6 0.000000 0.000000 0.000000 0.000000 0.000000 0.028384
#
#
# Mechanical properties :
#
#
# Convention : Reuss Voigt Hill
#
# Bulk Modulus (GPa) = 15.81478 43.92347 29.86913
# Shear Modulus (GPa) = 10.64858 30.18843 20.41851
#
# Velocity S-wave (km/s) = 2.25046 3.78918 3.11629
# Velocity P-wave (km/s) = 3.77815 6.32727 5.21099
#
# Compressibility (1/GPa) = 0.06323199
#
# Stress axis : x y z
#
# Youngs Moduli (GPa) = 131.31607 73.40803 20.58775
#
# Poissons Ratio (x) = 0.31732 0.14172
# Poissons Ratio (y) = 0.56764 -0.16299
# Poissons Ratio (z) = 0.90392 -0.58118
#
# Static dielectric constant tensor:
#      x y z
#    x 1.756760 0.000000 0.000000 
#    y 0.000000 1.916230 0.000000 
#    z 0.000000 0.000000 1.797030 
# 
# From -- ./inp_files/10606.got.cif
#   From: 2010.05.17/outbox.cif.g08.bks.cpg/sg73_6_cif.got.tgz:10606.got - 2010.06.03 17:35:07.
