data_PCOD9530397
_publ_section_title
;
Structure prediction by ZEFSAII (Michael W. Deem and Ramdas Pophale) SiO2 
 PCOD9530397
Probable space group: I B C A 
;
_chemical_formula_sum "Si O2"
_cell_formula_units_Z 72
_cell_length_a 9.604409
_cell_length_b 14.119181
_cell_length_c 23.398653
_cell_angle_alpha 90.000000
_cell_angle_beta 90.000000
_cell_angle_gamma 90.000000
_cell_volume 3173.006842
_symmetry_space_group_name_H-M "I B C A "
_symmetry_group_IT_number 73
_symmetry_cell_setting 'orthorhombic'
loop_
_space_group_symop_operation_xyz
x,y,z
-x,1/2-y,z
x,-y,1/2-z
1/2-x,y,-z
-x,-y,-z
x,1/2+y,-z
-x,y,1/2+z
1/2+x,-y,z
1/2+x,1/2+y,1/2+z
1/2-x,-y,1/2+z
1/2+x,1/2-y,-z
-x,1/2+y,1/2-z
1/2-x,1/2-y,1/2-z
1/2+x,y,1/2-z
1/2-x,1/2+y,z
x,1/2-y,1/2+z
loop_
_atom_site_type_symbol
_atom_site_label
_atom_site_fract_x
_atom_site_fract_y
_atom_site_fract_z
Si Si1 0.886470 0.328854 0.313405
Si Si2 0.628527 0.690878 0.686507
Si Si3 0.270695 0.896396 0.577647
Si Si4 0.250000 0.720938 0.500000
Si Si5 0.939949 0.577247 0.068973
O O1 0.742810 0.273145 0.308446
O O2 0.914925 0.355369 0.247296
O O3 0.890221 0.400519 0.365806
O O4 0.000000 0.250000 0.329794
O O5 0.500000 0.750000 0.662331
O O6 0.691625 0.615192 0.643848
O O7 0.298092 0.794466 0.548832
O O8 0.107320 0.919545 0.569959
O O9 0.371942 0.976792 0.553250
O O10 0.129936 0.655641 0.527614
#
# Coordination Sequence:
#
# PCOD9530397 Si02
#       5
#    16  16  16   8  16
#     4  10  19  44  71 101 144 189 229 282 349 408
#     4  10  22  39  73 107 140 187 233 280 345 417
#     4  12  28  47  72 107 142 184 236 289 358 419
#     4  12  26  50  74  92 132 186 236 302 352 416
#     4  12  27  47  73 104 142 184 233 296 351 423
#
# _framework density 22.691410999999999
#
# number of rings (size 3 to 8) (size 9 to 14) (size 15 to 20)
#    0.000    0.889    4.444    1.333    3.111    8.000 
#    0.000    2.222    0.000    0.000    0.000    0.000 
#    0.000    0.000    0.000    0.000    0.000    0.000 
#
# Total GULP energy -201222.035037 kJ/mol
# GULP energy per Si atom -5589.500973 kJ/mol
# Density = 2.263976 g / cm^3
# Si number density = 22.691411 Si / 1000 Ang^3
#
#
#
# Elastic Constant Matrix: (Units=GPa)
#
#
# Indices 1 2 3 4 5 6 
#
# 1 158.5076 56.8022 25.2855 0.0000 0.0000 0.0000
# 2 56.8022 111.1916 37.5219 0.0000 0.0000 0.0000
# 3 25.2855 37.5219 107.3172 0.0000 0.0000 0.0000
# 4 0.0000 0.0000 0.0000 28.2815 0.0000 0.0000
# 5 0.0000 0.0000 0.0000 0.0000 31.2599 0.0000
# 6 0.0000 0.0000 0.0000 0.0000 0.0000 25.4544
#
#
#
# Elastic Compliance Matrix: (Units=1/GPa)
#
#
# Indices 1 2 3 4 5 6 
#
# 1 0.007746 -0.003788 -0.000501 0.000000 0.000000 0.000000
# 2 -0.003788 0.012049 -0.003320 0.000000 0.000000 0.000000
# 3 -0.000501 -0.003320 0.010597 0.000000 0.000000 0.000000
# 4 0.000000 0.000000 0.000000 0.035359 0.000000 0.000000
# 5 0.000000 0.000000 0.000000 0.000000 0.031990 0.000000
# 6 0.000000 0.000000 0.000000 0.000000 0.000000 0.039286
#
#
# Mechanical properties :
#
#
# Convention : Reuss Voigt Hill
#
# Bulk Modulus (GPa) = 65.90143 68.47060 67.18602
# Shear Modulus (GPa) = 31.78577 34.15963 32.97270
#
# Velocity S-wave (km/s) = 3.74677 3.88416 3.81608
# Velocity P-wave (km/s) = 6.91543 7.09618 7.00639
#
# Compressibility (1/GPa) = 0.01517418
#
# Stress axis : x y z
#
# Youngs Moduli (GPa) = 129.09486 82.99359 94.36629
#
# Poissons Ratio (x) = 0.31440 0.04724
# Poissons Ratio (y) = 0.48904 0.31332
# Poissons Ratio (z) = 0.06463 0.27556
#
# Static dielectric constant tensor:
#      x y z
#    x 1.748670 0.000000 0.000000 
#    y 0.000000 1.824150 0.000000 
#    z 0.000000 0.000000 1.959900 
# 
# From -- ./inp_files/31068.got.cif
#   From: 2010.05.17/outbox.cif.g08.bks.cpg/sg73_16_cif.got.tgz:31068.got - 2010.06.03 17:35:07.
