data_PCOD9530390
_publ_section_title
;
Structure prediction by ZEFSAII (Michael W. Deem and Ramdas Pophale) SiO2 
 PCOD9530390
Probable space group: I B C A 
;
_chemical_formula_sum "Si O2"
_cell_formula_units_Z 104
_cell_length_a 20.267854
_cell_length_b 8.336835
_cell_length_c 23.225782
_cell_angle_alpha 90.000000
_cell_angle_beta 90.000000
_cell_angle_gamma 90.000000
_cell_volume 3924.454685
_symmetry_space_group_name_H-M "I B C A "
_symmetry_group_IT_number 73
_symmetry_cell_setting 'orthorhombic'
loop_
_space_group_symop_operation_xyz
x,y,z
-x,1/2-y,z
x,-y,1/2-z
1/2-x,y,-z
-x,-y,-z
x,1/2+y,-z
-x,y,1/2+z
1/2+x,-y,z
1/2+x,1/2+y,1/2+z
1/2-x,-y,1/2+z
1/2+x,1/2-y,-z
-x,1/2+y,1/2-z
1/2-x,1/2-y,1/2-z
1/2+x,y,1/2-z
1/2-x,1/2+y,z
x,1/2-y,1/2+z
loop_
_atom_site_type_symbol
_atom_site_label
_atom_site_fract_x
_atom_site_fract_y
_atom_site_fract_z
Si Si1 0.202329 0.335342 0.133901
Si Si2 0.864201 0.339049 0.281129
Si Si3 0.432140 0.472338 0.626944
Si Si4 0.574918 0.072920 0.499324
Si Si5 0.793215 0.500000 0.750000
Si Si6 0.829054 0.472117 0.401729
Si Si7 0.000000 0.750000 0.421342
Si Si8 0.500000 0.250000 0.219716
O O1 0.132270 0.422447 0.137469
O O2 0.233922 0.404310 0.193310
O O3 0.187445 0.149785 0.123243
O O4 0.257939 0.388894 0.088660
O O5 0.835905 0.500000 0.250000
O O6 0.866535 0.379781 0.349501
O O7 0.936549 0.323971 0.249868
O O8 0.831086 0.161923 0.274056
O O9 0.414272 0.389779 0.565969
O O10 0.492157 0.594184 0.615602
O O11 0.460567 0.369862 0.678121
O O12 0.628847 0.983629 0.460469
O O13 0.563847 0.233153 0.461523
O O14 0.500000 0.000000 0.500000
#
# Coordination Sequence:
#
# PCOD9530390 Si02
#       8
#    16  16  16  16   8  16   8   8
#     4  12  27  48  78 110 157 210 274 334 402 488
#     4  12  27  48  77 112 162 211 267 343 410 479
#     4  11  24  45  72 113 149 208 259 330 401 485
#     4  10  22  43  76 111 152 198 262 322 400 482
#     4  12  26  52  78 116 156 218 282 330 412 484
#     4  12  27  51  76 114 157 211 268 335 406 489
#     4  10  19  42  73 102 142 200 251 317 388 474
#     4  12  27  44  77 118 160 204 271 333 408 504
#
# _framework density 26.500495999999998
#
# number of rings (size 3 to 8) (size 9 to 14) (size 15 to 20)
#    0.000    0.615    4.615    3.231    2.154    3.077 
#    0.000    1.538    0.000    0.000    0.000    0.000 
#    0.000    0.000    0.000    0.000    0.000    0.000 
#
# Total GULP energy -290220.618447 kJ/mol
# GULP energy per Si atom -5581.165739 kJ/mol
# Density = 2.644018 g / cm^3
# Si number density = 26.500496 Si / 1000 Ang^3
#
#
#
# Elastic Constant Matrix: (Units=GPa)
#
#
# Indices 1 2 3 4 5 6 
#
# 1 51.0675 29.4145 16.9523 0.0000 0.0000 0.0000
# 2 29.4145 136.4055 23.4854 0.0000 0.0000 0.0000
# 3 16.9523 23.4854 78.0111 0.0000 0.0000 0.0000
# 4 0.0000 0.0000 0.0000 -65.4061 0.0000 0.0000
# 5 0.0000 0.0000 0.0000 0.0000 41.9746 0.0000
# 6 0.0000 0.0000 0.0000 0.0000 0.0000 36.7838
#
#
#
# Elastic Compliance Matrix: (Units=1/GPa)
#
#
# Indices 1 2 3 4 5 6 
#
# 1 0.023357 -0.004390 -0.003754 0.000000 0.000000 0.000000
# 2 -0.004390 0.008557 -0.001622 0.000000 0.000000 0.000000
# 3 -0.003754 -0.001622 0.014123 0.000000 0.000000 0.000000
# 4 0.000000 0.000000 0.000000 -0.015289 0.000000 0.000000
# 5 0.000000 0.000000 0.000000 0.000000 0.023824 0.000000
# 6 0.000000 0.000000 0.000000 0.000000 0.000000 0.027186
#
#
# Mechanical properties :
#
#
# Convention : Reuss Voigt Hill
#
# Bulk Modulus (GPa) = 37.72999 45.02095 41.37547
# Shear Modulus (GPa) = 45.40306 15.71260 30.55783
#
# Velocity S-wave (km/s) = 4.14368 2.43763 3.39942
# Velocity P-wave (km/s) = 6.09605 4.99483 5.57271
#
# Compressibility (1/GPa) = 0.02650412
#
# Stress axis : x y z
#
# Youngs Moduli (GPa) = 42.81395 116.86204 70.80771
#
# Poissons Ratio (x) = 0.51307 0.26580
# Poissons Ratio (y) = 0.18797 0.11486
# Poissons Ratio (z) = 0.16072 0.18956
#
# Static dielectric constant tensor:
#      x y z
#    x 2.217240 0.000000 0.000000 
#    y 0.000000 2.182870 0.000000 
#    z 0.000000 0.000000 2.187070 
# 
# From -- ./inp_files/32709.got.cif
#   From: 2010.05.17/outbox.cif.g08.bks.cpg/sg73_17_cif.got.tgz:32709.got - 2010.06.03 17:35:07.
