data_PCOD9530875
_publ_section_title
;
Structure prediction by ZEFSAII (Michael W. Deem and Ramdas Pophale) SiO2 
 PCOD9530875
Probable space group: I B C A 
;
_chemical_formula_sum "Si O2"
_cell_formula_units_Z 88
_cell_length_a 19.731967
_cell_length_b 11.568591
_cell_length_c 18.641168
_cell_angle_alpha 90.000000
_cell_angle_beta 90.000000
_cell_angle_gamma 90.000000
_cell_volume 4255.239102
_symmetry_space_group_name_H-M "I B C A "
_symmetry_group_IT_number 73
_symmetry_cell_setting 'orthorhombic'
loop_
_space_group_symop_operation_xyz
x,y,z
-x,1/2-y,z
x,-y,1/2-z
1/2-x,y,-z
-x,-y,-z
x,1/2+y,-z
-x,y,1/2+z
1/2+x,-y,z
1/2+x,1/2+y,1/2+z
1/2-x,-y,1/2+z
1/2+x,1/2-y,-z
-x,1/2+y,1/2-z
1/2-x,1/2-y,1/2-z
1/2+x,y,1/2-z
1/2-x,1/2+y,z
x,1/2-y,1/2+z
loop_
_atom_site_type_symbol
_atom_site_label
_atom_site_fract_x
_atom_site_fract_y
_atom_site_fract_z
Si Si1 0.019136 0.441762 0.109469
Si Si2 0.569712 0.314280 0.094347
Si Si3 0.819529 0.660985 0.315904
Si Si4 0.098336 0.771197 0.438707
Si Si5 0.672321 0.619290 0.280932
Si Si6 0.434873 0.000000 0.750000
O O1 0.048882 0.555283 0.073070
O O2 0.076870 0.342943 0.106371
O O3 0.959300 0.367896 0.073796
O O4 0.986053 0.492357 0.182507
O O5 0.500000 0.250000 0.115730
O O6 0.623198 0.327569 0.158557
O O7 0.599639 0.251231 0.023780
O O8 0.837281 0.676344 0.399260
O O9 0.748086 0.596543 0.310167
O O10 0.815484 0.787008 0.280696
O O11 0.881063 0.600335 0.271999
O O12 0.643452 0.500000 0.250000
#
# Coordination Sequence:
#
# PCOD9530875 Si02
#       6
#    16  16  16  16  16   8
#     4  10  21  38  62  93 126 163 207 257 325 379
#     4  12  24  39  62  95 130 166 213 261 324 384
#     4  10  22  43  64  91 126 167 215 265 322 373
#     4  10  22  40  64  91 132 165 202 270 321 385
#     4  11  24  43  65  90 125 169 220 267 312 385
#     4  10  20  38  68  94 122 162 214 262 320 382
#
# _framework density 20.680389000000002
#
# number of rings (size 3 to 8) (size 9 to 14) (size 15 to 20)
#    0.000    1.455    2.727    2.727    3.818    0.727 
#    0.000    0.000    0.000    4.364    0.000    0.000 
#    0.000    0.000    0.000    0.000    0.000    0.000 
#
# Total GULP energy -245133.027692 kJ/mol
# GULP energy per Si atom -5571.205175 kJ/mol
# Density = 2.063332 g / cm^3
# Si number density = 20.680389 Si / 1000 Ang^3
#
#
#
# Elastic Constant Matrix: (Units=GPa)
#
#
# Indices 1 2 3 4 5 6 
#
# 1 96.4585 16.6262 52.8475 0.0000 0.0000 0.0000
# 2 16.6262 36.5253 5.1610 0.0000 0.0000 0.0000
# 3 52.8475 5.1610 103.9768 0.0000 0.0000 0.0000
# 4 0.0000 0.0000 0.0000 18.0852 0.0000 0.0000
# 5 0.0000 0.0000 0.0000 0.0000 -5.3113 0.0000
# 6 0.0000 0.0000 0.0000 0.0000 0.0000 9.8249
#
#
#
# Elastic Compliance Matrix: (Units=1/GPa)
#
#
# Indices 1 2 3 4 5 6 
#
# 1 0.015578 -0.006015 -0.007619 0.000000 0.000000 0.000000
# 2 -0.006015 0.029894 0.001573 0.000000 0.000000 0.000000
# 3 -0.007619 0.001573 0.013412 0.000000 0.000000 0.000000
# 4 0.000000 0.000000 0.000000 0.055294 0.000000 0.000000
# 5 0.000000 0.000000 0.000000 0.000000 -0.188278 0.000000
# 6 0.000000 0.000000 0.000000 0.000000 0.000000 0.101782
#
#
# Mechanical properties :
#
#
# Convention : Reuss Voigt Hill
#
# Bulk Modulus (GPa) = 28.76643 42.91442 35.84043
# Shear Modulus (GPa) = 78.87436 15.34149 47.10792
#
# Velocity S-wave (km/s) = 6.18243 2.72662 4.77792
# Velocity P-wave (km/s) = 8.05627 5.54157 6.91421
#
# Compressibility (1/GPa) = 0.03476274
#
# Stress axis : x y z
#
# Youngs Moduli (GPa) = 64.19163 33.45171 74.55965
#
# Poissons Ratio (x) = 0.20120 0.56810
# Poissons Ratio (y) = 0.38609 -0.11730
# Poissons Ratio (z) = 0.48910 -0.05263
#
# Static dielectric constant tensor:
#      x y z
#    x 1.752300 0.000000 0.000000 
#    y 0.000000 1.754400 0.000000 
#    z 0.000000 0.000000 1.779400 
# 
# From -- ./inp_files/23084.got.cif
#   From: 2010.05.17/outbox.cif.g08.bks.cpg/sg73_12_cif.got.tgz:23084.got - 2010.06.03 17:35:07.
