data_PCOD9530930
_publ_section_title
;
Structure prediction by ZEFSAII (Michael W. Deem and Ramdas Pophale) SiO2 
 PCOD9530930
Probable space group: I B C A 
;
_chemical_formula_sum "Si O2"
_cell_formula_units_Z 112
_cell_length_a 11.905840
_cell_length_b 27.936001
_cell_length_c 13.967131
_cell_angle_alpha 90.000000
_cell_angle_beta 90.000000
_cell_angle_gamma 90.000000
_cell_volume 4645.489533
_symmetry_space_group_name_H-M "I B C A "
_symmetry_group_IT_number 73
_symmetry_cell_setting 'orthorhombic'
loop_
_space_group_symop_operation_xyz
x,y,z
-x,1/2-y,z
x,-y,1/2-z
1/2-x,y,-z
-x,-y,-z
x,1/2+y,-z
-x,y,1/2+z
1/2+x,-y,z
1/2+x,1/2+y,1/2+z
1/2-x,-y,1/2+z
1/2+x,1/2-y,-z
-x,1/2+y,1/2-z
1/2-x,1/2-y,1/2-z
1/2+x,y,1/2-z
1/2-x,1/2+y,z
x,1/2-y,1/2+z
loop_
_atom_site_type_symbol
_atom_site_label
_atom_site_fract_x
_atom_site_fract_y
_atom_site_fract_z
Si Si1 0.504550 0.950556 0.283758
Si Si2 0.555046 0.648259 0.305162
Si Si3 0.575257 0.928666 0.081707
Si Si4 0.871471 0.029139 0.981269
Si Si5 0.760943 0.719564 0.612760
Si Si6 0.640845 0.181931 0.060107
Si Si7 0.034431 0.677456 0.896983
O O1 0.419033 0.908036 0.305519
O O2 0.586041 0.935559 0.195754
O O3 0.576861 0.959708 0.378083
O O4 0.449669 0.000000 0.250000
O O5 0.651658 0.682087 0.344882
O O6 0.437883 0.653001 0.365594
O O7 0.535660 0.662452 0.195526
O O8 0.588945 0.872464 0.062113
O O9 0.631130 0.970803 0.018935
O O10 0.447461 0.943806 0.058161
O O11 0.750000 0.047614 0.000000
O O12 0.750000 0.710822 0.500000
O O13 0.810309 0.772830 0.618526
O O14 0.632663 0.711462 0.642870
O O15 0.750000 0.162764 0.000000
O O16 0.549131 0.196538 0.978687
#
# Coordination Sequence:
#
# PCOD9530930 Si02
#       7
#    16  16  16  16  16  16  16
#     4   9  20  42  65  96 146 175 225 300 350 420
#     4  11  24  45  72 106 141 193 247 289 368 450
#     4   9  21  42  61  98 139 178 228 290 364 416
#     4  10  20  39  68  97 134 184 237 288 350 433
#     4  11  25  47  69 101 145 193 238 304 371 415
#     4  11  26  47  71 102 143 193 243 308 371 421
#     4  11  25  46  72 102 147 185 245 299 357 449
#
# _framework density 24.109407999999998
#
# number of rings (size 3 to 8) (size 9 to 14) (size 15 to 20)
#    0.000    1.714    1.429    1.286    4.000    3.429 
#   20.571    6.429    0.000    0.000    0.000    0.000 
#    0.000    0.000    0.000    0.000    0.000    0.000 
#
# Total GULP energy -312735.302961 kJ/mol
# GULP energy per Si atom -5584.558981 kJ/mol
# Density = 2.405453 g / cm^3
# Si number density = 24.109408 Si / 1000 Ang^3
#
#
#
# Elastic Constant Matrix: (Units=GPa)
#
#
# Indices 1 2 3 4 5 6 
#
# 1 83.7107 17.6494 7.9795 0.0000 0.0000 0.0000
# 2 17.6494 123.4692 3.5043 -0.0001 0.0000 0.0000
# 3 7.9795 3.5043 75.8368 0.0001 0.0000 0.0001
# 4 0.0000 -0.0001 0.0001 19.2307 0.0000 0.0000
# 5 0.0000 0.0000 0.0000 0.0000 15.1397 0.0000
# 6 0.0000 0.0000 0.0001 0.0000 0.0000 -76.4438
#
#
#
# Elastic Compliance Matrix: (Units=1/GPa)
#
#
# Indices 1 2 3 4 5 6 
#
# 1 0.012430 -0.001742 -0.001227 0.000000 0.000000 0.000000
# 2 -0.001742 0.008354 -0.000203 0.000000 0.000000 0.000000
# 3 -0.001227 -0.000203 0.013325 0.000000 0.000000 0.000000
# 4 0.000000 0.000000 0.000000 0.052000 0.000000 0.000000
# 5 0.000000 0.000000 0.000000 0.000000 0.066052 0.000000
# 6 0.000000 0.000000 0.000000 0.000000 0.000000 -0.013082
#
#
# Mechanical properties :
#
#
# Convention : Reuss Voigt Hill
#
# Bulk Modulus (GPa) = 36.01710 37.92034 36.96872
# Shear Modulus (GPa) = 32.32519 8.51090 20.41804
#
# Velocity S-wave (km/s) = 3.66563 1.88090 2.91330
# Velocity P-wave (km/s) = 5.73474 4.52544 5.16560
#
# Compressibility (1/GPa) = 0.02776459
#
# Stress axis : x y z
#
# Youngs Moduli (GPa) = 80.44934 119.70384 75.04848
#
# Poissons Ratio (x) = 0.20853 0.09211
# Poissons Ratio (y) = 0.14014 0.01521
# Poissons Ratio (z) = 0.09874 0.02427
#
# Static dielectric constant tensor:
#      x y z
#    x 1.926580 0.000000 0.000000 
#    y 0.000000 2.008910 0.000000 
#    z 0.000000 0.000000 1.928610 
# 
# From -- ./inp_files/16332.got.cif
#   From: 2010.05.17/outbox.cif.g08.bks.cpg/sg73_9_cif.got.tgz:16332.got - 2010.06.03 17:35:07.
