data_PCOD9530006
_publ_section_title
;
Structure prediction by ZEFSAII (Michael W. Deem and Ramdas Pophale) SiO2 
 PCOD9530006
Probable space group: I B C A 
;
_chemical_formula_sum "Si O2"
_cell_formula_units_Z 64
_cell_length_a 16.764783
_cell_length_b 12.302263
_cell_length_c 13.383810
_cell_angle_alpha 90.000000
_cell_angle_beta 90.000000
_cell_angle_gamma 90.000000
_cell_volume 2760.340810
_symmetry_space_group_name_H-M "I B C A "
_symmetry_group_IT_number 73
_symmetry_cell_setting 'orthorhombic'
loop_
_space_group_symop_operation_xyz
x,y,z
-x,1/2-y,z
x,-y,1/2-z
1/2-x,y,-z
-x,-y,-z
x,1/2+y,-z
-x,y,1/2+z
1/2+x,-y,z
1/2+x,1/2+y,1/2+z
1/2-x,-y,1/2+z
1/2+x,1/2-y,-z
-x,1/2+y,1/2-z
1/2-x,1/2-y,1/2-z
1/2+x,y,1/2-z
1/2-x,1/2+y,z
x,1/2-y,1/2+z
loop_
_atom_site_type_symbol
_atom_site_label
_atom_site_fract_x
_atom_site_fract_y
_atom_site_fract_z
Si Si1 0.243124 0.827997 0.392804
Si Si2 0.418169 0.302695 0.888601
Si Si3 0.778545 0.500000 0.250000
Si Si4 0.634561 0.127825 0.085367
Si Si5 0.000000 0.250000 0.298248
O O1 0.250000 0.887609 0.500000
O O2 0.152986 0.784885 0.378632
O O3 0.300350 0.724282 0.406322
O O4 0.267553 0.898230 0.296553
O O5 0.500000 0.250000 0.932375
O O6 0.447940 0.325797 0.776985
O O7 0.385353 0.389642 0.968408
O O8 0.831671 0.466028 0.344879
O O9 0.556368 0.174677 0.137509
#
# Coordination Sequence:
#
# PCOD9530006 Si02
#       5
#    16  16   8  16   8
#     4  10  23  41  62  90 126 163 205 252 310 362
#     4   9  19  37  63  86 118 166 199 245 310 361
#     4  12  22  38  64  96 118 160 214 254 294 370
#     4  11  22  40  65  87 125 165 202 252 308 367
#     4  10  18  38  66  86 114 170 198 238 320 362
#
# _framework density 23.185542999999999
#
# number of rings (size 3 to 8) (size 9 to 14) (size 15 to 20)
#    0.750    1.000    3.750    0.750    0.000    3.000 
#    0.000    6.250    5.500    0.000    0.000    0.000 
#    0.000    0.000    0.000    0.000    0.000    0.000 
#
# Total GULP energy -178460.561554 kJ/mol
# GULP energy per Si atom -5576.892549 kJ/mol
# Density = 2.313277 g / cm^3
# Si number density = 23.185543 Si / 1000 Ang^3
#
#
#
# Elastic Constant Matrix: (Units=GPa)
#
#
# Indices 1 2 3 4 5 6 
#
# 1 110.8297 14.7359 17.0034 0.0000 0.0000 0.0000
# 2 14.7359 26.0649 14.6135 0.0000 0.0000 0.0000
# 3 17.0034 14.6135 103.6955 0.0000 0.0000 0.0000
# 4 0.0000 0.0000 0.0000 40.5628 0.0000 0.0000
# 5 0.0000 0.0000 0.0000 0.0000 36.9576 0.0000
# 6 0.0000 0.0000 0.0000 0.0000 0.0000 8.5301
#
#
#
# Elastic Compliance Matrix: (Units=1/GPa)
#
#
# Indices 1 2 3 4 5 6 
#
# 1 0.009833 -0.005055 -0.000900 0.000000 0.000000 0.000000
# 2 -0.005055 0.044255 -0.005408 0.000000 0.000000 0.000000
# 3 -0.000900 -0.005408 0.010553 0.000000 0.000000 0.000000
# 4 0.000000 0.000000 0.000000 0.024653 0.000000 0.000000
# 5 0.000000 0.000000 0.000000 0.000000 0.027058 0.000000
# 6 0.000000 0.000000 0.000000 0.000000 0.000000 0.117232
#
#
# Mechanical properties :
#
#
# Convention : Reuss Voigt Hill
#
# Bulk Modulus (GPa) = 23.85689 37.03287 30.44488
# Shear Modulus (GPa) = 18.49918 30.15927 24.32922
#
# Velocity S-wave (km/s) = 2.82773 3.61054 3.24285
# Velocity P-wave (km/s) = 4.57966 5.77827 5.21353
#
# Compressibility (1/GPa) = 0.04191661
#
# Stress axis : x y z
#
# Youngs Moduli (GPa) = 101.69854 22.59614 94.75681
#
# Poissons Ratio (x) = 0.11421 0.08528
# Poissons Ratio (y) = 0.51404 0.51244
# Poissons Ratio (z) = 0.09153 0.12220
#
# Static dielectric constant tensor:
#      x y z
#    x 1.860690 0.000000 0.000000 
#    y 0.000000 2.040350 0.000000 
#    z 0.000000 0.000000 1.938050 
# 
# From -- ./inp_files/10499.got.cif
#   From: 2010.05.17/outbox.cif.g08.bks.cpg/sg73_6_cif.got.tgz:10499.got - 2010.06.03 17:35:07.
