data_PCOD9530889
_publ_section_title
;
Structure prediction by ZEFSAII (Michael W. Deem and Ramdas Pophale) SiO2 
 PCOD9530889
Probable space group: I B C A 
;
_chemical_formula_sum "Si O2"
_cell_formula_units_Z 96
_cell_length_a 13.152289
_cell_length_b 10.674876
_cell_length_c 34.923670
_cell_angle_alpha 90.000000
_cell_angle_beta 90.000000
_cell_angle_gamma 90.000000
_cell_volume 4903.250237
_symmetry_space_group_name_H-M "I B C A "
_symmetry_group_IT_number 73
_symmetry_cell_setting 'orthorhombic'
loop_
_space_group_symop_operation_xyz
x,y,z
-x,1/2-y,z
x,-y,1/2-z
1/2-x,y,-z
-x,-y,-z
x,1/2+y,-z
-x,y,1/2+z
1/2+x,-y,z
1/2+x,1/2+y,1/2+z
1/2-x,-y,1/2+z
1/2+x,1/2-y,-z
-x,1/2+y,1/2-z
1/2-x,1/2-y,1/2-z
1/2+x,y,1/2-z
1/2-x,1/2+y,z
x,1/2-y,1/2+z
loop_
_atom_site_type_symbol
_atom_site_label
_atom_site_fract_x
_atom_site_fract_y
_atom_site_fract_z
Si Si1 0.675936 0.141816 0.564261
Si Si2 0.893790 0.679478 0.650350
Si Si3 0.500000 0.250000 0.768964
Si Si4 0.500000 0.250000 0.508133
Si Si5 0.319574 0.863576 0.036355
Si Si6 0.817774 0.829844 0.720211
Si Si7 0.869474 0.538676 0.793316
O O1 0.650222 0.168194 0.608269
O O2 0.582615 0.181150 0.535719
O O3 0.770200 0.234650 0.553269
O O4 0.689006 0.991408 0.560624
O O5 0.827241 0.757090 0.680501
O O6 0.905061 0.548889 0.672786
O O7 0.000000 0.750000 0.647431
O O8 0.427064 0.168640 0.740713
O O9 0.425768 0.329423 0.795658
O O10 0.432097 0.162677 0.480259
O O11 0.250000 0.893203 0.000000
O O12 0.750000 0.750000 0.750000
O O13 0.753061 0.951455 0.709198
O O14 0.897265 0.500000 0.750000
#
# Coordination Sequence:
#
# PCOD9530889 Si02
#       7
#    16  16   8   8  16  16  16
#     4  11  24  41  66 104 134 173 215 271 346 390
#     4  12  24  44  61  93 135 170 213 283 337 383
#     4  10  20  41  61  90 116 162 238 268 318 381
#     4  10  20  43  75  98 130 170 222 266 328 409
#     4  10  22  43  71  98 132 172 224 265 321 417
#     4  10  20  39  61  89 120 168 224 266 322 382
#     4  11  22  39  64  89 123 171 225 272 320 392
#
# _framework density 19.578849999999999
#
# number of rings (size 3 to 8) (size 9 to 14) (size 15 to 20)
#    0.000    1.333    5.000    2.000    2.333    3.333 
#    0.000    0.833    0.000    0.000    0.000    0.000 
#    0.000    0.000    0.000    0.000    0.000    0.000 
#
# Total GULP energy -267468.602064 kJ/mol
# GULP energy per Si atom -5572.262543 kJ/mol
# Density = 1.953429 g / cm^3
# Si number density = 19.578850 Si / 1000 Ang^3
#
#
#
# Elastic Constant Matrix: (Units=GPa)
#
#
# Indices 1 2 3 4 5 6 
#
# 1 94.7960 33.4061 36.0136 0.0000 0.0000 0.0000
# 2 33.4061 80.3182 37.2968 0.0000 0.0000 0.0000
# 3 36.0136 37.2968 133.9509 0.0000 0.0000 0.0000
# 4 0.0000 0.0000 0.0000 19.6071 0.0000 0.0000
# 5 0.0000 0.0000 0.0000 0.0000 17.4600 0.0000
# 6 0.0000 0.0000 0.0000 0.0000 0.0000 25.8695
#
#
#
# Elastic Compliance Matrix: (Units=1/GPa)
#
#
# Indices 1 2 3 4 5 6 
#
# 1 0.012937 -0.004325 -0.002274 0.000000 0.000000 0.000000
# 2 -0.004325 0.015745 -0.003221 0.000000 0.000000 0.000000
# 3 -0.002274 -0.003221 0.008974 0.000000 0.000000 0.000000
# 4 0.000000 0.000000 0.000000 0.051002 0.000000 0.000000
# 5 0.000000 0.000000 0.000000 0.000000 0.057274 0.000000
# 6 0.000000 0.000000 0.000000 0.000000 0.000000 0.038656
#
#
# Mechanical properties :
#
#
# Convention : Reuss Voigt Hill
#
# Bulk Modulus (GPa) = 55.50735 58.05536 56.78136
# Shear Modulus (GPa) = 23.78322 26.07722 24.93022
#
# Velocity S-wave (km/s) = 3.48909 3.65349 3.57224
# Velocity P-wave (km/s) = 6.68161 6.89302 6.78814
#
# Compressibility (1/GPa) = 0.01801563
#
# Stress axis : x y z
#
# Youngs Moduli (GPa) = 77.29803 63.51187 111.43654
#
# Poissons Ratio (x) = 0.27468 0.25341
# Poissons Ratio (y) = 0.33430 0.35897
# Poissons Ratio (z) = 0.17578 0.20459
#
# Static dielectric constant tensor:
#      x y z
#    x 1.723070 0.000000 0.000000 
#    y 0.000000 1.786260 0.000000 
#    z 0.000000 0.000000 1.689260 
# 
# From -- ./inp_files/34273.got.cif
#   From: 2010.05.17/outbox.cif.g08.bks.cpg/sg73_18_cif.got.tgz:34273.got - 2010.06.03 17:35:07.
