data_PCOD9530424
_publ_section_title
;
Structure prediction by ZEFSAII (Michael W. Deem and Ramdas Pophale) SiO2 
 PCOD9530424
Probable space group: I B C A 
;
_chemical_formula_sum "Si O2"
_cell_formula_units_Z 72
_cell_length_a 5.323663
_cell_length_b 29.703495
_cell_length_c 25.390579
_cell_angle_alpha 90.000000
_cell_angle_beta 90.000000
_cell_angle_gamma 90.000000
_cell_volume 4015.047736
_symmetry_space_group_name_H-M "I B C A "
_symmetry_group_IT_number 73
_symmetry_cell_setting 'orthorhombic'
loop_
_space_group_symop_operation_xyz
x,y,z
-x,1/2-y,z
x,-y,1/2-z
1/2-x,y,-z
-x,-y,-z
x,1/2+y,-z
-x,y,1/2+z
1/2+x,-y,z
1/2+x,1/2+y,1/2+z
1/2-x,-y,1/2+z
1/2+x,1/2-y,-z
-x,1/2+y,1/2-z
1/2-x,1/2-y,1/2-z
1/2+x,y,1/2-z
1/2-x,1/2+y,z
x,1/2-y,1/2+z
loop_
_atom_site_type_symbol
_atom_site_label
_atom_site_fract_x
_atom_site_fract_y
_atom_site_fract_z
Si Si1 0.733049 0.629303 0.436490
Si Si2 0.796948 0.300723 0.771859
Si Si3 0.000000 0.250000 0.867839
Si Si4 0.253548 0.026570 0.935696
Si Si5 0.730279 0.316125 0.437039
O O1 0.750000 0.626981 0.500000
O O2 0.758349 0.578190 0.417012
O O3 0.461916 0.650242 0.424636
O O4 0.967937 0.660867 0.422082
O O5 0.750000 0.250000 0.750000
O O6 0.525660 0.322284 0.761170
O O7 0.888900 0.289442 0.830480
O O8 0.212106 0.271339 0.904517
O O9 0.501266 0.999348 0.919602
O O10 0.250000 0.027527 0.000000
O O11 0.750000 0.307221 0.500000
#
# Coordination Sequence:
#
# PCOD9530424 Si02
#       5
#    16  16   8  16  16
#     4   9  18  31  40  55  83 109 139 185 223 241
#     4   8  16  30  47  66  81  96 136 188 235 270
#     4  10  20  32  48  62  82 120 162 182 210 258
#     4   9  15  24  42  60  72  95 135 177 218 263
#     4  10  21  31  41  57  85 120 153 184 205 235
#
# _framework density 17.932541000000001
#
# number of rings (size 3 to 8) (size 9 to 14) (size 15 to 20)
#    0.000    3.111    0.000    1.333    0.000   16.000 
#    0.000    0.000    0.000    0.000    0.000    0.000 
#    0.000    0.000    0.000    0.000    0.000  700.000 
#
# Total GULP energy -200537.629034 kJ/mol
# GULP energy per Si atom -5570.489695 kJ/mol
# Density = 1.789173 g / cm^3
# Si number density = 17.932541 Si / 1000 Ang^3
#
#
#
# Elastic Constant Matrix: (Units=GPa)
#
#
# Indices 1 2 3 4 5 6 
#
# 1 160.4545 39.0141 27.5360 0.0000 0.0000 0.0000
# 2 39.0141 58.2639 28.1802 0.0000 0.0000 0.0000
# 3 27.5360 28.1802 50.6968 0.0000 0.0000 0.0000
# 4 0.0000 0.0000 0.0000 -1.1738 0.0000 0.0000
# 5 0.0000 0.0000 0.0000 0.0000 14.2558 0.0000
# 6 0.0000 0.0000 0.0000 0.0000 0.0000 24.5082
#
#
#
# Elastic Compliance Matrix: (Units=1/GPa)
#
#
# Indices 1 2 3 4 5 6 
#
# 1 0.007558 -0.004206 -0.001767 0.000000 0.000000 0.000000
# 2 -0.004206 0.025815 -0.012065 0.000000 0.000000 0.000000
# 3 -0.001767 -0.012065 0.027391 0.000000 0.000000 0.000000
# 4 0.000000 0.000000 0.000000 -0.851954 0.000000 0.000000
# 5 0.000000 0.000000 0.000000 0.000000 0.070147 0.000000
# 6 0.000000 0.000000 0.000000 0.000000 0.000000 0.040803
#
#
# Mechanical properties :
#
#
# Convention : Reuss Voigt Hill
#
# Bulk Modulus (GPa) = 40.50549 50.98619 45.74584
# Shear Modulus (GPa) = -7.86246 19.16370 5.65062
#
# Velocity S-wave (km/s) = -2.09618 3.27258 1.77704
# Velocity P-wave (km/s) = 4.09611 6.54015 5.45673
#
# Compressibility (1/GPa) = 0.02468801
#
# Stress axis : x y z
#
# Youngs Moduli (GPa) = 132.30405 38.73672 36.50794
#
# Poissons Ratio (x) = 0.16294 0.06451
# Poissons Ratio (y) = 0.55653 0.44046
# Poissons Ratio (z) = 0.23380 0.46735
#
# Static dielectric constant tensor:
#      x y z
#    x 1.589860 0.000000 0.000000 
#    y 0.000000 1.586810 0.000000 
#    z 0.000000 0.000000 1.644200 
# 
# From -- ./inp_files/3051.got.cif
#   From: 2010.05.17/outbox.cif.g08.bks.cpg/sg73_2_cif.got.tgz:3051.got - 2010.06.03 17:35:07.
