data_PCOD9530107
_publ_section_title
;
Structure prediction by ZEFSAII (Michael W. Deem and Ramdas Pophale) SiO2 
 PCOD9530107
Probable space group: I B C A 
;
_chemical_formula_sum "Si O2"
_cell_formula_units_Z 120
_cell_length_a 7.638923
_cell_length_b 32.173129
_cell_length_c 23.862957
_cell_angle_alpha 90.000000
_cell_angle_beta 90.000000
_cell_angle_gamma 90.000000
_cell_volume 5864.752531
_symmetry_space_group_name_H-M "I B C A "
_symmetry_group_IT_number 73
_symmetry_cell_setting 'orthorhombic'
loop_
_space_group_symop_operation_xyz
x,y,z
-x,1/2-y,z
x,-y,1/2-z
1/2-x,y,-z
-x,-y,-z
x,1/2+y,-z
-x,y,1/2+z
1/2+x,-y,z
1/2+x,1/2+y,1/2+z
1/2-x,-y,1/2+z
1/2+x,1/2-y,-z
-x,1/2+y,1/2-z
1/2-x,1/2-y,1/2-z
1/2+x,y,1/2-z
1/2-x,1/2+y,z
x,1/2-y,1/2+z
loop_
_atom_site_type_symbol
_atom_site_label
_atom_site_fract_x
_atom_site_fract_y
_atom_site_fract_z
Si Si1 0.538309 0.121695 0.888872
Si Si2 0.948468 0.358337 0.391608
Si Si3 0.392657 0.291773 0.194817
Si Si4 0.055124 0.329803 0.008447
Si Si5 0.000000 0.750000 0.920551
Si Si6 0.975772 0.194727 0.677807
Si Si7 0.451236 0.039634 0.933825
Si Si8 0.039769 0.947763 0.560753
O O1 0.737961 0.136858 0.889102
O O2 0.460567 0.140041 0.947370
O O3 0.452740 0.146498 0.837997
O O4 0.528389 0.072673 0.890692
O O5 0.985020 0.331055 0.336243
O O6 0.014777 0.331536 0.445434
O O7 0.003172 0.405632 0.405409
O O8 0.500000 0.250000 0.179159
O O9 0.400173 0.295164 0.262021
O O10 0.185060 0.293975 0.179986
O O11 0.076142 0.284950 0.037774
O O12 0.250000 0.347309 0.000000
O O13 0.901437 0.779644 0.875477
O O14 0.247433 0.048283 0.939614
O O15 0.473743 0.991992 0.916392
O O16 0.528171 0.050220 0.995952
#
# Coordination Sequence:
#
# PCOD9530107 Si02
#       8
#    16  16  16  16   8  16  16  16
#     4   9  18  35  58  75 106 147 179 226 275 325
#     4  10  20  35  54  81 110 145 185 226 275 327
#     4  11  23  39  58  80 110 147 192 236 278 328
#     4   9  18  34  51  73 108 145 182 220 276 332
#     4  10  20  36  54  76 108 144 188 234 278 326
#     4  10  22  39  58  80 106 146 193 234 282 323
#     4  10  19  33  53  81 114 148 180 218 268 331
#     4  10  20  32  51  83 114 146 182 218 268 327
#
# _framework density 20.461221999999999
#
# number of rings (size 3 to 8) (size 9 to 14) (size 15 to 20)
#    0.000    2.133    2.000    2.000    0.933    2.133 
#    2.400    0.000    0.000    0.800    0.000    5.600 
#    0.000    0.000    0.000    0.000    0.000    0.000 
#
# Total GULP energy -334004.982253 kJ/mol
# GULP energy per Si atom -5566.749704 kJ/mol
# Density = 2.041465 g / cm^3
# Si number density = 20.461222 Si / 1000 Ang^3
#
#
#
# Elastic Constant Matrix: (Units=GPa)
#
#
# Indices 1 2 3 4 5 6 
#
# 1 30.8250 -0.9824 5.4904 0.0000 0.0000 0.0000
# 2 -0.9824 156.5937 60.5634 0.0000 0.0000 0.0000
# 3 5.4904 60.5634 71.9970 0.0000 0.0000 0.0000
# 4 0.0000 0.0000 0.0000 34.2481 0.0000 0.0000
# 5 0.0000 0.0000 0.0000 0.0000 13.5547 0.0000
# 6 0.0000 0.0000 0.0000 0.0000 0.0000 29.0633
#
#
#
# Elastic Compliance Matrix: (Units=1/GPa)
#
#
# Indices 1 2 3 4 5 6 
#
# 1 0.033212 0.001761 -0.004014 0.000000 0.000000 0.000000
# 2 0.001761 0.009559 -0.008175 0.000000 0.000000 0.000000
# 3 -0.004014 -0.008175 0.021072 0.000000 0.000000 0.000000
# 4 0.000000 0.000000 0.000000 0.029199 0.000000 0.000000
# 5 0.000000 0.000000 0.000000 0.000000 0.073775 0.000000
# 6 0.000000 0.000000 0.000000 0.000000 0.000000 0.034408
#
#
# Mechanical properties :
#
#
# Convention : Reuss Voigt Hill
#
# Bulk Modulus (GPa) = 23.26283 43.28427 33.27355
# Shear Modulus (GPa) = 21.14969 28.32951 24.73960
#
# Velocity S-wave (km/s) = 3.21853 3.72499 3.48098
# Velocity P-wave (km/s) = 5.02054 6.30087 5.69678
#
# Compressibility (1/GPa) = 0.04298703
#
# Stress axis : x y z
#
# Youngs Moduli (GPa) = 30.10941 104.61653 47.45564
#
# Poissons Ratio (x) = -0.18420 0.19048
# Poissons Ratio (y) = -0.05301 0.38795
# Poissons Ratio (z) = 0.12085 0.85524
#
# Static dielectric constant tensor:
#      x y z
#    x 1.800950 0.000000 0.000000 
#    y 0.000000 1.802180 0.000000 
#    z 0.000000 0.000000 1.749300 
# 
# From -- ./inp_files/28551.got.cif
#   From: 2010.05.17/outbox.cif.g08.bks.cpg/sg73_15_cif.got.tgz:28551.got - 2010.06.03 17:35:07.
