data_PCOD9530458
_publ_section_title
;
Structure prediction by ZEFSAII (Michael W. Deem and Ramdas Pophale) SiO2 
 PCOD9530458
Probable space group: I B C A 
;
_chemical_formula_sum "Si O2"
_cell_formula_units_Z 64
_cell_length_a 12.184911
_cell_length_b 10.560055
_cell_length_c 19.864087
_cell_angle_alpha 90.000000
_cell_angle_beta 90.000000
_cell_angle_gamma 90.000000
_cell_volume 2555.978228
_symmetry_space_group_name_H-M "I B C A "
_symmetry_group_IT_number 73
_symmetry_cell_setting 'orthorhombic'
loop_
_space_group_symop_operation_xyz
x,y,z
-x,1/2-y,z
x,-y,1/2-z
1/2-x,y,-z
-x,-y,-z
x,1/2+y,-z
-x,y,1/2+z
1/2+x,-y,z
1/2+x,1/2+y,1/2+z
1/2-x,-y,1/2+z
1/2+x,1/2-y,-z
-x,1/2+y,1/2-z
1/2-x,1/2-y,1/2-z
1/2+x,y,1/2-z
1/2-x,1/2+y,z
x,1/2-y,1/2+z
loop_
_atom_site_type_symbol
_atom_site_label
_atom_site_fract_x
_atom_site_fract_y
_atom_site_fract_z
Si Si1 0.680854 0.603833 0.623127
Si Si2 0.750000 0.923373 0.500000
Si Si3 0.038378 0.093019 0.560424
Si Si4 0.053530 0.000000 0.250000
Si Si5 0.417556 0.645028 0.846550
O O1 0.716962 0.510484 0.563070
O O2 0.567922 0.658491 0.592852
O O3 0.635305 0.533131 0.689106
O O4 0.789502 0.681887 0.645550
O O5 0.854217 0.846621 0.474463
O O6 0.074352 0.991249 0.617249
O O7 0.000000 0.000000 0.500000
O O8 0.971766 0.887797 0.225798
O O9 0.500000 0.750000 0.877069
#
# Coordination Sequence:
#
# PCOD9530458 Si02
#       5
#    16   8  16   8  16
#     4   9  17  31  52  78 110 148 195 246 307 369
#     4   8  14  28  54  80 104 142 192 242 302 368
#     4   8  15  30  55  79 105 146 186 234 302 368
#     4  10  20  34  54  78 110 158 206 258 318 372
#     4  10  20  33  53  80 112 153 201 256 316 377
#
# _framework density 25.039338000000001
#
# number of rings (size 3 to 8) (size 9 to 14) (size 15 to 20)
#    0.000    3.000    0.000    0.750    0.000    1.000 
#    0.000    0.000    0.000  141.000    0.000    0.000 
#    0.000    0.000    0.000    0.000    0.000    0.000 
#
# Total GULP energy -178187.787982 kJ/mol
# GULP energy per Si atom -5568.368374 kJ/mol
# Density = 2.498235 g / cm^3
# Si number density = 25.039338 Si / 1000 Ang^3
#
#
#
# Elastic Constant Matrix: (Units=GPa)
#
#
# Indices 1 2 3 4 5 6 
#
# 1 275.8066 58.8473 62.9280 0.0000 0.0000 0.0000
# 2 58.8473 47.2407 20.6072 0.0000 0.0000 0.0000
# 3 62.9280 20.6072 151.6793 0.0000 0.0000 0.0000
# 4 0.0000 0.0000 0.0000 17.7426 0.0000 0.0000
# 5 0.0000 0.0000 0.0000 0.0000 58.0396 0.0000
# 6 0.0000 0.0000 0.0000 0.0000 0.0000 20.1314
#
#
#
# Elastic Compliance Matrix: (Units=1/GPa)
#
#
# Indices 1 2 3 4 5 6 
#
# 1 0.005187 -0.005871 -0.001354 0.000000 0.000000 0.000000
# 2 -0.005871 0.029147 -0.001524 0.000000 0.000000 0.000000
# 3 -0.001354 -0.001524 0.007362 0.000000 0.000000 0.000000
# 4 0.000000 0.000000 0.000000 0.056362 0.000000 0.000000
# 5 0.000000 0.000000 0.000000 0.000000 0.017230 0.000000
# 6 0.000000 0.000000 0.000000 0.000000 0.000000 0.049674
#
#
# Mechanical properties :
#
#
# Convention : Reuss Voigt Hill
#
# Bulk Modulus (GPa) = 41.32820 84.38795 62.85807
# Shear Modulus (GPa) = 26.24318 41.33900 33.79109
#
# Velocity S-wave (km/s) = 3.24092 4.06761 3.67757
# Velocity P-wave (km/s) = 5.52683 7.47234 6.57198
#
# Compressibility (1/GPa) = 0.02419655
#
# Stress axis : x y z
#
# Youngs Moduli (GPa) = 192.77262 34.30928 135.83506
#
# Poissons Ratio (x) = 0.20143 0.18399
# Poissons Ratio (y) = 1.13179 0.20702
# Poissons Ratio (z) = 0.26111 0.05229
#
# Static dielectric constant tensor:
#      x y z
#    x 2.066490 0.000000 0.000000 
#    y 0.000000 2.478590 0.000000 
#    z 0.000000 0.000000 0.268480 
# 
# From -- ./inp_files/9515.got.cif
#   From: 2010.05.17/outbox.cif.g08.bks.cpg/sg73_5_cif.got.tgz:9515.got - 2010.06.03 17:35:07.
