data_PCOD9530978
_publ_section_title
;
Structure prediction by ZEFSAII (Michael W. Deem and Ramdas Pophale) SiO2 
 PCOD9530978
Probable space group: I B C A 
;
_chemical_formula_sum "Si O2"
_cell_formula_units_Z 72
_cell_length_a 5.367773
_cell_length_b 31.225329
_cell_length_c 19.221481
_cell_angle_alpha 90.000000
_cell_angle_beta 90.000000
_cell_angle_gamma 90.000000
_cell_volume 3221.721617
_symmetry_space_group_name_H-M "I B C A "
_symmetry_group_IT_number 73
_symmetry_cell_setting 'orthorhombic'
loop_
_space_group_symop_operation_xyz
x,y,z
-x,1/2-y,z
x,-y,1/2-z
1/2-x,y,-z
-x,-y,-z
x,1/2+y,-z
-x,y,1/2+z
1/2+x,-y,z
1/2+x,1/2+y,1/2+z
1/2-x,-y,1/2+z
1/2+x,1/2-y,-z
-x,1/2+y,1/2-z
1/2-x,1/2-y,1/2-z
1/2+x,y,1/2-z
1/2-x,1/2+y,z
x,1/2-y,1/2+z
loop_
_atom_site_type_symbol
_atom_site_label
_atom_site_fract_x
_atom_site_fract_y
_atom_site_fract_z
Si Si1 0.606211 0.344644 0.715067
Si Si2 0.500000 0.250000 0.422152
Si Si3 0.911139 0.618778 0.070447
Si Si4 0.500000 0.250000 0.170582
Si Si5 0.750000 0.179204 0.500000
Si Si6 0.501744 0.981765 0.420272
O O1 0.825591 0.359272 0.766785
O O2 0.700568 0.361483 0.640389
O O3 0.562561 0.293093 0.712942
O O4 0.248635 0.253643 0.376902
O O5 0.529295 0.209210 0.472270
O O6 0.978431 0.569150 0.078489
O O7 0.750000 0.622094 0.000000
O O8 0.152776 0.648042 0.059266
O O9 0.500000 0.000000 0.500000
O O10 0.747482 0.001918 0.387136
#
# Coordination Sequence:
#
# PCOD9530978 Si02
#       6
#    16   8  16   8   8  16
#     4  12  28  48  68 101 145 192 241 296 356 420
#     4  12  25  41  64 100 146 174 242 306 364 410
#     4  12  26  43  78 106 143 184 243 302 358 428
#     4  12  23  49  68  90 134 204 254 288 336 432
#     4  12  26  40  64 106 142 186 228 314 372 410
#     4  10  20  40  66 109 137 170 223 292 350 424
#
# _framework density 22.348299000000001
#
# number of rings (size 3 to 8) (size 9 to 14) (size 15 to 20)
#    0.000    0.444    4.444    5.333    4.667    0.000 
#    0.000    0.000    0.000    4.000    0.000    0.000 
#    0.000    0.000    0.000    0.000    0.000    0.000 
#
# Total GULP energy -201171.399301 kJ/mol
# GULP energy per Si atom -5588.094425 kJ/mol
# Density = 2.229743 g / cm^3
# Si number density = 22.348299 Si / 1000 Ang^3
#
#
#
# Elastic Constant Matrix: (Units=GPa)
#
#
# Indices 1 2 3 4 5 6 
#
# 1 177.1390 35.8031 31.1284 0.0000 0.0000 0.0000
# 2 35.8031 133.9304 9.8727 0.0000 0.0000 0.0000
# 3 31.1284 9.8727 67.9654 0.0000 0.0000 0.0000
# 4 0.0000 0.0000 0.0000 -1.3628 0.0000 0.0000
# 5 0.0000 0.0000 0.0000 0.0000 40.4436 0.0000
# 6 0.0000 0.0000 0.0000 0.0000 0.0000 9.8233
#
#
#
# Elastic Compliance Matrix: (Units=1/GPa)
#
#
# Indices 1 2 3 4 5 6 
#
# 1 0.006431 -0.001518 -0.002725 0.000000 0.000000 0.000000
# 2 -0.001518 0.007906 -0.000453 0.000000 0.000000 0.000000
# 3 -0.002725 -0.000453 0.016027 0.000000 0.000000 0.000000
# 4 0.000000 0.000000 0.000000 -0.733757 0.000000 0.000000
# 5 0.000000 0.000000 0.000000 0.000000 0.024726 0.000000
# 6 0.000000 0.000000 0.000000 0.000000 0.000000 0.101799
#
#
# Mechanical properties :
#
#
# Convention : Reuss Voigt Hill
#
# Bulk Modulus (GPa) = 47.68351 59.18262 53.43307
# Shear Modulus (GPa) = -8.92083 29.92952 10.50434
#
# Velocity S-wave (km/s) = -2.00010 3.66352 2.17037
# Velocity P-wave (km/s) = 4.00612 6.66593 5.49925
#
# Compressibility (1/GPa) = 0.02097161
#
# Stress axis : x y z
#
# Youngs Moduli (GPa) = 155.49678 126.48875 62.39403
#
# Poissons Ratio (x) = 0.19205 0.17002
# Poissons Ratio (y) = 0.23609 0.02827
# Poissons Ratio (z) = 0.42371 0.05730
#
# Static dielectric constant tensor:
#      x y z
#    x -24.849160 0.000000 0.000000 
#    y 0.000000 1.786690 0.000000 
#    z 0.000000 0.000000 2.054640 
# 
# From -- ./inp_files/27456.got.cif
#   From: 2010.05.17/outbox.cif.g08.bks.cpg/sg73_14_cif.got.tgz:27456.got - 2010.06.03 17:35:07.
