data_PCOD9530200
_publ_section_title
;
Structure prediction by ZEFSAII (Michael W. Deem and Ramdas Pophale) SiO2 
 PCOD9530200
Probable space group: I B C A 
;
_chemical_formula_sum "Si O2"
_cell_formula_units_Z 96
_cell_length_a 14.602042
_cell_length_b 15.319027
_cell_length_c 19.402433
_cell_angle_alpha 90.000000
_cell_angle_beta 90.000000
_cell_angle_gamma 90.000000
_cell_volume 4340.112303
_symmetry_space_group_name_H-M "I B C A "
_symmetry_group_IT_number 73
_symmetry_cell_setting 'orthorhombic'
loop_
_space_group_symop_operation_xyz
x,y,z
-x,1/2-y,z
x,-y,1/2-z
1/2-x,y,-z
-x,-y,-z
x,1/2+y,-z
-x,y,1/2+z
1/2+x,-y,z
1/2+x,1/2+y,1/2+z
1/2-x,-y,1/2+z
1/2+x,1/2-y,-z
-x,1/2+y,1/2-z
1/2-x,1/2-y,1/2-z
1/2+x,y,1/2-z
1/2-x,1/2+y,z
x,1/2-y,1/2+z
loop_
_atom_site_type_symbol
_atom_site_label
_atom_site_fract_x
_atom_site_fract_y
_atom_site_fract_z
Si Si1 0.817359 0.135637 0.937978
Si Si2 0.175123 0.328047 0.372482
Si Si3 0.479944 0.646150 0.973797
Si Si4 0.602494 0.774302 0.254149
Si Si5 0.170005 0.457826 0.813753
Si Si6 0.619627 0.623647 0.619960
O O1 0.820574 0.233452 0.908914
O O2 0.776526 0.072498 0.880166
O O3 0.919786 0.106403 0.959519
O O4 0.750000 0.135422 0.000000
O O5 0.089414 0.373071 0.410620
O O6 0.162777 0.301131 0.291536
O O7 0.270260 0.374943 0.388384
O O8 0.500000 0.750000 0.974124
O O9 0.433272 0.627010 0.047796
O O10 0.500000 0.750000 0.273866
O O11 0.625835 0.867627 0.288146
O O12 0.605360 0.794091 0.172256
O O13 0.222930 0.500000 0.750000
O O14 0.100609 0.533645 0.838736
#
# Coordination Sequence:
#
# PCOD9530200 Si02
#       6
#    16  16  16  16  16  16
#     4  10  20  36  58  82 116 158 198 245 304 367
#     4  10  19  35  59  85 114 156 201 240 294 366
#     4  10  20  35  57  88 118 151 200 252 298 361
#     4  10  20  38  62  84 115 161 203 240 295 369
#     4   9  21  39  57  84 121 155 193 250 304 358
#     4  11  21  35  58  88 120 150 194 253 304 353
#
# _framework density 22.119243999999998
#
# number of rings (size 3 to 8) (size 9 to 14) (size 15 to 20)
#    0.000    2.000    0.000    6.000    0.000    2.000 
#    0.000    1.667    0.000   25.000    0.000    0.000 
#    0.000    0.000    0.000    0.000    0.000    0.000 
#
# Total GULP energy -267599.156240 kJ/mol
# GULP energy per Si atom -5574.982422 kJ/mol
# Density = 2.206890 g / cm^3
# Si number density = 22.119244 Si / 1000 Ang^3
#
#
#
# Elastic Constant Matrix: (Units=GPa)
#
#
# Indices 1 2 3 4 5 6 
#
# 1 85.9401 13.8310 12.7677 0.0000 0.0000 0.0000
# 2 13.8310 40.7856 8.8960 0.0000 0.0000 0.0000
# 3 12.7677 8.8960 95.0771 0.0000 0.0000 0.0000
# 4 0.0000 0.0000 0.0000 7.6514 0.0000 0.0000
# 5 0.0000 0.0000 0.0000 0.0000 8.2890 0.0000
# 6 0.0000 0.0000 0.0000 0.0000 0.0000 -3.5754
#
#
#
# Elastic Compliance Matrix: (Units=1/GPa)
#
#
# Indices 1 2 3 4 5 6 
#
# 1 0.012464 -0.003942 -0.001305 0.000000 0.000000 0.000000
# 2 -0.003942 0.026276 -0.001929 0.000000 0.000000 0.000000
# 3 -0.001305 -0.001929 0.010874 0.000000 0.000000 0.000000
# 4 0.000000 0.000000 0.000000 0.130695 0.000000 0.000000
# 5 0.000000 0.000000 0.000000 0.000000 0.120642 0.000000
# 6 0.000000 0.000000 0.000000 0.000000 0.000000 -0.279691
#
#
# Mechanical properties :
#
#
# Convention : Reuss Voigt Hill
#
# Bulk Modulus (GPa) = 28.35968 32.53244 30.44606
# Shear Modulus (GPa) = 105.55935 14.89354 60.22644
#
# Velocity S-wave (km/s) = 6.91567 2.59767 5.22371
# Velocity P-wave (km/s) = 8.75315 4.87205 7.08359
#
# Compressibility (1/GPa) = 0.03526133
#
# Stress axis : x y z
#
# Youngs Moduli (GPa) = 80.22890 38.05738 91.96649
#
# Poissons Ratio (x) = 0.15003 0.12001
# Poissons Ratio (y) = 0.31628 0.17742
# Poissons Ratio (z) = 0.10469 0.07342
#
# Static dielectric constant tensor:
#      x y z
#    x 1.805150 0.000000 0.000000 
#    y 0.000000 1.862230 0.000000 
#    z 0.000000 0.000000 1.885710 
# 
# From -- ./inp_files/25974.got.cif
#   From: 2010.05.17/outbox.cif.g08.bks.cpg/sg73_13_cif.got.tgz:25974.got - 2010.06.03 17:35:07.
