data_PCOD9530862
_publ_section_title
;
Structure prediction by ZEFSAII (Michael W. Deem and Ramdas Pophale) SiO2 
 PCOD9530862
Probable space group: I B C A 
;
_chemical_formula_sum "Si O2"
_cell_formula_units_Z 88
_cell_length_a 30.464376
_cell_length_b 13.699434
_cell_length_c 10.809474
_cell_angle_alpha 90.000000
_cell_angle_beta 90.000000
_cell_angle_gamma 90.000000
_cell_volume 4511.276774
_symmetry_space_group_name_H-M "I B C A "
_symmetry_group_IT_number 73
_symmetry_cell_setting 'orthorhombic'
loop_
_space_group_symop_operation_xyz
x,y,z
-x,1/2-y,z
x,-y,1/2-z
1/2-x,y,-z
-x,-y,-z
x,1/2+y,-z
-x,y,1/2+z
1/2+x,-y,z
1/2+x,1/2+y,1/2+z
1/2-x,-y,1/2+z
1/2+x,1/2-y,-z
-x,1/2+y,1/2-z
1/2-x,1/2-y,1/2-z
1/2+x,y,1/2-z
1/2-x,1/2+y,z
x,1/2-y,1/2+z
loop_
_atom_site_type_symbol
_atom_site_label
_atom_site_fract_x
_atom_site_fract_y
_atom_site_fract_z
Si Si1 0.411753 0.810568 0.123123
Si Si2 0.690526 0.194082 0.826168
Si Si3 0.750000 0.427630 0.500000
Si Si4 0.742178 0.882517 0.138034
Si Si5 0.031868 0.994975 0.616334
Si Si6 0.551228 0.775643 0.876328
O O1 0.361162 0.813792 0.160866
O O2 0.434157 0.916622 0.117375
O O3 0.435734 0.751496 0.234818
O O4 0.420191 0.768694 0.986511
O O5 0.705968 0.307268 0.810235
O O6 0.713293 0.135527 0.713742
O O7 0.712445 0.140419 0.944290
O O8 0.766368 0.502919 0.391939
O O9 0.750000 0.843858 0.000000
O O10 0.007766 0.000000 0.750000
O O11 0.055797 0.891770 0.611956
O O12 0.000000 0.000000 0.500000
O O13 0.500000 0.750000 0.896579
#
# Coordination Sequence:
#
# PCOD9530862 Si02
#       6
#    16  16   8  16  16  16
#     4  11  26  38  68  95 128 169 213 276 309 395
#     4  11  22  41  61  94 127 158 217 254 324 369
#     4  10  20  38  66  86 122 166 202 254 316 378
#     4   9  22  37  63  85 121 166 197 255 311 378
#     4  10  22  40  63  90 123 165 211 259 319 378
#     4  11  23  42  64  90 127 169 215 259 331 378
#
# _framework density 19.506671999999998
#
# number of rings (size 3 to 8) (size 9 to 14) (size 15 to 20)
#    0.545    1.091    2.727    1.091    5.091    5.818 
#    0.000    0.000    0.000    0.000    0.000    0.000 
#    0.000    0.000    0.000    0.000    0.000    0.000 
#
# Total GULP energy -245136.195789 kJ/mol
# GULP energy per Si atom -5571.277177 kJ/mol
# Density = 1.946227 g / cm^3
# Si number density = 19.506672 Si / 1000 Ang^3
#
#
#
# Elastic Constant Matrix: (Units=GPa)
#
#
# Indices 1 2 3 4 5 6 
#
# 1 123.7146 20.8142 44.6287 0.0000 0.0000 0.0000
# 2 20.8142 90.2731 23.6140 0.0000 0.0000 0.0000
# 3 44.6287 23.6140 88.6822 0.0000 0.0000 0.0000
# 4 0.0000 0.0000 0.0000 3829.1202 0.0000 0.0000
# 5 0.0000 0.0000 0.0000 0.0000 25.8787 0.0000
# 6 0.0000 0.0000 0.0000 0.0000 0.0000 10.4817
#
#
#
# Elastic Compliance Matrix: (Units=1/GPa)
#
#
# Indices 1 2 3 4 5 6 
#
# 1 0.009970 -0.001060 -0.004735 0.000000 0.000000 0.000000
# 2 -0.001060 0.012020 -0.002667 0.000000 0.000000 0.000000
# 3 -0.004735 -0.002667 0.014369 0.000000 0.000000 0.000000
# 4 0.000000 0.000000 0.000000 0.000261 0.000000 0.000000
# 5 0.000000 0.000000 0.000000 0.000000 0.038642 0.000000
# 6 0.000000 0.000000 0.000000 0.000000 0.000000 0.095404
#
#
# Mechanical properties :
#
#
# Convention : Reuss Voigt Hill
#
# Bulk Modulus (GPa) = 51.45535 53.42041 52.43788
# Shear Modulus (GPa) = 25.76427 787.33700 406.55064
#
# Velocity S-wave (km/s) = 3.63821 20.11220 14.45229
# Velocity P-wave (km/s) = 6.63961 23.80713 17.47661
#
# Compressibility (1/GPa) = 0.01943432
#
# Stress axis : x y z
#
# Youngs Moduli (GPa) = 100.30591 83.19761 69.59361
#
# Poissons Ratio (x) = 0.08820 0.32951
# Poissons Ratio (y) = 0.10634 0.18561
# Poissons Ratio (z) = 0.47493 0.22189
#
# Static dielectric constant tensor:
#      x y z
#    x 1.580520 0.000000 0.000000 
#    y 0.000000 1.700840 0.000000 
#    z 0.000000 0.000000 1.745190 
# 
# From -- ./inp_files/14203.got.cif
#   From: 2010.05.17/outbox.cif.g08.bks.cpg/sg73_8_cif.got.tgz:14203.got - 2010.06.03 17:35:07.
