data_PCOD9530577
_publ_section_title
;
Structure prediction by ZEFSAII (Michael W. Deem and Ramdas Pophale) SiO2 
 PCOD9530577
Probable space group: I B C A 
;
_chemical_formula_sum "Si O2"
_cell_formula_units_Z 112
_cell_length_a 26.766028
_cell_length_b 15.348157
_cell_length_c 12.350409
_cell_angle_alpha 90.000000
_cell_angle_beta 90.000000
_cell_angle_gamma 90.000000
_cell_volume 5073.661641
_symmetry_space_group_name_H-M "I B C A "
_symmetry_group_IT_number 73
_symmetry_cell_setting 'orthorhombic'
loop_
_space_group_symop_operation_xyz
x,y,z
-x,1/2-y,z
x,-y,1/2-z
1/2-x,y,-z
-x,-y,-z
x,1/2+y,-z
-x,y,1/2+z
1/2+x,-y,z
1/2+x,1/2+y,1/2+z
1/2-x,-y,1/2+z
1/2+x,1/2-y,-z
-x,1/2+y,1/2-z
1/2-x,1/2-y,1/2-z
1/2+x,y,1/2-z
1/2-x,1/2+y,z
x,1/2-y,1/2+z
loop_
_atom_site_type_symbol
_atom_site_label
_atom_site_fract_x
_atom_site_fract_y
_atom_site_fract_z
Si Si1 0.527250 0.040574 0.896033
Si Si2 0.736053 0.149083 0.232653
Si Si3 0.445372 0.771237 0.022292
Si Si4 0.728351 0.482439 0.113960
Si Si5 0.072248 0.112428 0.171987
Si Si6 0.631778 0.141955 0.110719
Si Si7 0.876469 0.524143 0.535594
O O1 0.481814 0.067175 0.819469
O O2 0.548892 0.132484 0.932809
O O3 0.576206 0.981073 0.882183
O O4 0.500000 0.000000 0.000000
O O5 0.750000 0.250000 0.250000
O O6 0.772187 0.075052 0.177939
O O7 0.685844 0.154317 0.162773
O O8 0.733366 0.093039 0.343713
O O9 0.500000 0.750000 0.971096
O O10 0.398804 0.776347 0.939766
O O11 0.437134 0.708490 0.124023
O O12 0.827058 0.444693 0.903442
O O13 0.750000 0.508645 0.000000
O O14 0.098614 0.109078 0.287554
O O15 0.104786 0.073003 0.072875
O O16 0.636707 0.070104 0.016579
#
# Coordination Sequence:
#
# PCOD9530577 Si02
#       7
#    16  16  16  16  16  16  16
#     4   8  17  35  57  89 123 166 211 266 326 408
#     4  11  27  44  65 102 133 169 237 283 339 414
#     4   9  20  36  57  93 132 167 218 277 342 407
#     4  11  23  45  70  93 137 175 221 288 342 400
#     4  10  20  35  63  91 127 165 218 272 336 410
#     4  11  22  39  64  93 127 174 225 274 337 422
#     4  10  20  38  69  87 126 175 217 271 350 404
#
# _framework density 22.074787000000001
#
# number of rings (size 3 to 8) (size 9 to 14) (size 15 to 20)
#    0.000    2.000    1.429    1.286    4.000    4.571 
#    0.000    0.000   25.143    0.000    0.000    0.000 
#    0.000    0.000    0.000    0.000    0.000    0.000 
#
# Total GULP energy -311758.277153 kJ/mol
# GULP energy per Si atom -5567.112092 kJ/mol
# Density = 2.202454 g / cm^3
# Si number density = 22.074787 Si / 1000 Ang^3
#
#
#
# Elastic Constant Matrix: (Units=GPa)
#
#
# Indices 1 2 3 4 5 6 
#
# 1 87.1892 8.5533 9.5803 0.0000 0.0000 0.0000
# 2 8.5533 103.6920 17.6563 0.0000 0.0000 0.0000
# 3 9.5803 17.6563 47.5570 0.0000 0.0000 0.0000
# 4 0.0000 0.0000 0.0000 27.9195 0.0000 0.0000
# 5 0.0000 0.0000 0.0000 0.0000 -1.5546 0.0000
# 6 0.0000 0.0000 0.0000 0.0000 0.0000 21.6606
#
#
#
# Elastic Compliance Matrix: (Units=1/GPa)
#
#
# Indices 1 2 3 4 5 6 
#
# 1 0.011764 -0.000605 -0.002145 0.000000 0.000000 0.000000
# 2 -0.000605 0.010326 -0.003712 0.000000 0.000000 0.000000
# 3 -0.002145 -0.003712 0.022838 0.000000 0.000000 0.000000
# 4 0.000000 0.000000 0.000000 0.035817 0.000000 0.000000
# 5 0.000000 0.000000 0.000000 0.000000 -0.643268 0.000000
# 6 0.000000 0.000000 0.000000 0.000000 0.000000 0.046167
#
#
# Mechanical properties :
#
#
# Convention : Reuss Voigt Hill
#
# Bulk Modulus (GPa) = 31.24648 34.44645 32.84646
# Shear Modulus (GPa) = -10.14684 23.11501 6.48408
#
# Velocity S-wave (km/s) = -2.14629 3.23944 1.71572
# Velocity P-wave (km/s) = 2.83610 5.44337 4.34015
#
# Compressibility (1/GPa) = 0.03200361
#
# Stress axis : x y z
#
# Youngs Moduli (GPa) = 85.00229 96.84406 43.78744
#
# Poissons Ratio (x) = 0.05860 0.09394
# Poissons Ratio (y) = 0.05144 0.16253
# Poissons Ratio (z) = 0.18235 0.35946
#
# Static dielectric constant tensor:
#      x y z
#    x 1.842330 0.000000 0.000000 
#    y 0.000000 1.816330 0.000000 
#    z 0.000000 0.000000 1.881710 
# 
# From -- ./inp_files/19809.got.cif
#   From: 2010.05.17/outbox.cif.g08.bks.cpg/sg73_10_cif.got.tgz:19809.got - 2010.06.03 17:35:07.
