data_PCOD9530568
_publ_section_title
;
Structure prediction by ZEFSAII (Michael W. Deem and Ramdas Pophale) SiO2 
 PCOD9530568
Probable space group: I B C A 
;
_chemical_formula_sum "Si O2"
_cell_formula_units_Z 80
_cell_length_a 4.913645
_cell_length_b 33.413349
_cell_length_c 22.364765
_cell_angle_alpha 90.000000
_cell_angle_beta 90.000000
_cell_angle_gamma 90.000000
_cell_volume 3671.876980
_symmetry_space_group_name_H-M "I B C A "
_symmetry_group_IT_number 73
_symmetry_cell_setting 'orthorhombic'
loop_
_space_group_symop_operation_xyz
x,y,z
-x,1/2-y,z
x,-y,1/2-z
1/2-x,y,-z
-x,-y,-z
x,1/2+y,-z
-x,y,1/2+z
1/2+x,-y,z
1/2+x,1/2+y,1/2+z
1/2-x,-y,1/2+z
1/2+x,1/2-y,-z
-x,1/2+y,1/2-z
1/2-x,1/2-y,1/2-z
1/2+x,y,1/2-z
1/2-x,1/2+y,z
x,1/2-y,1/2+z
loop_
_atom_site_type_symbol
_atom_site_label
_atom_site_fract_x
_atom_site_fract_y
_atom_site_fract_z
Si Si1 0.147444 0.890323 0.063512
Si Si2 0.279153 0.054010 0.210443
Si Si3 0.889216 0.975175 0.078895
Si Si4 0.840340 0.630169 0.360439
Si Si5 0.444767 0.794933 0.209721
O O1 0.007861 0.933712 0.055026
O O2 0.409646 0.892597 0.106777
O O3 0.909954 0.864468 0.094174
O O4 0.250000 0.874969 0.000000
O O5 0.480451 0.045711 0.264945
O O6 0.373013 0.031662 0.150701
O O7 0.274748 0.100840 0.191114
O O8 0.087829 0.011474 0.062471
O O9 0.961795 0.670687 0.334668
O O10 0.500000 0.750000 0.186974
O O11 0.135029 0.799005 0.231190
#
# Coordination Sequence:
#
# PCOD9530568 Si02
#       5
#    16  16  16  16  16
#     4  11  24  41  61  83 110 152 204 255 305 346
#     4  11  21  34  54  79 111 151 186 224 282 353
#     4  11  23  38  55  80 110 144 192 244 295 349
#     4  11  21  38  60  86 119 152 195 243 287 351
#     4  10  20  35  60  95 129 158 186 224 282 348
#
# _framework density 21.787220999999999
#
# number of rings (size 3 to 8) (size 9 to 14) (size 15 to 20)
#    0.000    1.200    0.000    9.000    0.000    3.200 
#    0.000    0.000    0.000    2.400    0.000    0.000 
#    0.000    0.000    0.000    0.000    0.000    0.000 
#
# Total GULP energy -223982.164138 kJ/mol
# GULP energy per Si atom -5599.554103 kJ/mol
# Density = 2.173763 g / cm^3
# Si number density = 21.787221 Si / 1000 Ang^3
#
#
#
# Elastic Constant Matrix: (Units=GPa)
#
#
# Indices 1 2 3 4 5 6 
#
# 1 101.3035 16.6211 19.0632 0.0000 0.0000 0.0000
# 2 16.6211 100.7840 33.3155 0.0000 0.0000 0.0000
# 3 19.0632 33.3155 65.5673 0.0000 0.0000 0.0000
# 4 0.0000 0.0000 0.0000 20.7375 0.0000 0.0000
# 5 0.0000 0.0000 0.0000 0.0000 43.8771 0.0000
# 6 0.0000 0.0000 0.0000 0.0000 0.0000 27.9629
#
#
#
# Elastic Compliance Matrix: (Units=1/GPa)
#
#
# Indices 1 2 3 4 5 6 
#
# 1 0.010506 -0.000869 -0.002613 0.000000 0.000000 0.000000
# 2 -0.000869 0.011997 -0.005843 0.000000 0.000000 0.000000
# 3 -0.002613 -0.005843 0.018980 0.000000 0.000000 0.000000
# 4 0.000000 0.000000 0.000000 0.048222 0.000000 0.000000
# 5 0.000000 0.000000 0.000000 0.000000 0.022791 0.000000
# 6 0.000000 0.000000 0.000000 0.000000 0.000000 0.035762
#
#
# Mechanical properties :
#
#
# Convention : Reuss Voigt Hill
#
# Bulk Modulus (GPa) = 43.79661 45.07272 44.43466
# Shear Modulus (GPa) = 28.65032 31.75918 30.20475
#
# Velocity S-wave (km/s) = 3.63023 3.82212 3.72741
# Velocity P-wave (km/s) = 6.14142 6.34120 6.24211
#
# Compressibility (1/GPa) = 0.02283282
#
# Stress axis : x y z
#
# Youngs Moduli (GPa) = 95.18746 83.35379 52.68641
#
# Poissons Ratio (x) = 0.07242 0.13767
# Poissons Ratio (y) = 0.08270 0.30786
# Poissons Ratio (z) = 0.24872 0.48706
#
# Static dielectric constant tensor:
#      x y z
#    x 1.777820 0.000000 0.000000 
#    y 0.000000 1.787170 0.000000 
#    z 0.000000 0.000000 1.827990 
# 
# From -- ./inp_files/28050.got.cif
#   From: 2010.05.17/outbox.cif.g08.bks.cpg/sg73_15_cif.got.tgz:28050.got - 2010.06.03 17:35:07.
