data_PCOD9530039
_publ_section_title
;
Structure prediction by ZEFSAII (Michael W. Deem and Ramdas Pophale) SiO2 
 PCOD9530039
Probable space group: I B C A 
;
_chemical_formula_sum "Si O2"
_cell_formula_units_Z 88
_cell_length_a 18.810515
_cell_length_b 17.800383
_cell_length_c 10.825672
_cell_angle_alpha 90.000000
_cell_angle_beta 90.000000
_cell_angle_gamma 90.000000
_cell_volume 3624.807079
_symmetry_space_group_name_H-M "I B C A "
_symmetry_group_IT_number 73
_symmetry_cell_setting 'orthorhombic'
loop_
_space_group_symop_operation_xyz
x,y,z
-x,1/2-y,z
x,-y,1/2-z
1/2-x,y,-z
-x,-y,-z
x,1/2+y,-z
-x,y,1/2+z
1/2+x,-y,z
1/2+x,1/2+y,1/2+z
1/2-x,-y,1/2+z
1/2+x,1/2-y,-z
-x,1/2+y,1/2-z
1/2-x,1/2-y,1/2-z
1/2+x,y,1/2-z
1/2-x,1/2+y,z
x,1/2-y,1/2+z
loop_
_atom_site_type_symbol
_atom_site_label
_atom_site_fract_x
_atom_site_fract_y
_atom_site_fract_z
Si Si1 0.500000 0.750000 0.070920
Si Si2 0.897405 0.048030 0.549343
Si Si3 0.442823 0.400512 0.955632
Si Si4 0.357137 0.187178 0.815268
Si Si5 0.345265 0.084991 0.221933
Si Si6 0.748876 0.688255 0.871290
O O1 0.535970 0.681632 0.996643
O O2 0.564232 0.784126 0.151992
O O3 0.856864 0.099144 0.648263
O O4 0.873748 0.083193 0.417170
O O5 0.980890 0.062010 0.568770
O O6 0.894984 0.957566 0.536650
O O7 0.405821 0.394716 0.822031
O O8 0.300767 0.240106 0.889603
O O9 0.330055 0.202494 0.676836
O O10 0.283524 0.141146 0.260276
O O11 0.322316 0.000000 0.250000
O O12 0.750000 0.645638 0.000000
#
# Coordination Sequence:
#
# PCOD9530039 Si02
#       6
#     8  16  16  16  16  16
#     4  10  18  40  68 104 140 176 234 298 362 436
#     4   9  20  38  67  96 132 183 234 292 358 439
#     4   9  18  38  62 101 134 171 227 287 361 421
#     4  10  23  41  69 101 137 189 238 293 375 431
#     4  10  21  43  67  93 137 186 233 298 360 427
#     4  11  25  44  63 100 145 183 242 312 356 445
#
# _framework density 24.277155
#
# number of rings (size 3 to 8) (size 9 to 14) (size 15 to 20)
#    0.000    2.182    1.818    0.000    5.091    0.000 
#   13.091    4.545    4.000    0.000    0.000    0.000 
#    0.000    0.000    0.000    0.000    0.000    0.000 
#
# Total GULP energy -245483.144548 kJ/mol
# GULP energy per Si atom -5579.162376 kJ/mol
# Density = 2.422190 g / cm^3
# Si number density = 24.277155 Si / 1000 Ang^3
#
#
#
# Elastic Constant Matrix: (Units=GPa)
#
#
# Indices 1 2 3 4 5 6 
#
# 1 123.5454 36.9575 44.5296 0.0000 0.0000 0.0000
# 2 36.9575 147.6654 18.5678 0.0000 0.0000 0.0000
# 3 44.5296 18.5678 49.4156 0.0000 0.0000 0.0000
# 4 0.0000 0.0000 0.0000 20.2629 0.0000 0.0000
# 5 0.0000 0.0000 0.0000 0.0000 540.9287 0.0000
# 6 0.0000 0.0000 0.0000 0.0000 0.0000 14.9106
#
#
#
# Elastic Compliance Matrix: (Units=1/GPa)
#
#
# Indices 1 2 3 4 5 6 
#
# 1 0.012421 -0.001786 -0.010522 0.000000 0.000000 0.000000
# 2 -0.001786 0.007365 -0.001158 0.000000 0.000000 0.000000
# 3 -0.010522 -0.001158 0.030153 0.000000 0.000000 0.000000
# 4 0.000000 0.000000 0.000000 0.049351 0.000000 0.000000
# 5 0.000000 0.000000 0.000000 0.000000 0.001849 0.000000
# 6 0.000000 0.000000 0.000000 0.000000 0.000000 0.067066
#
#
# Mechanical properties :
#
#
# Convention : Reuss Voigt Hill
#
# Bulk Modulus (GPa) = 43.46421 57.85959 50.66190
# Shear Modulus (GPa) = 24.65429 129.92521 77.28975
#
# Velocity S-wave (km/s) = 3.19020 7.32350 5.64850
# Velocity P-wave (km/s) = 5.61356 9.76710 7.96581
#
# Compressibility (1/GPa) = 0.02300743
#
# Stress axis : x y z
#
# Youngs Moduli (GPa) = 80.51100 135.78475 33.16421
#
# Poissons Ratio (x) = 0.24246 0.34894
# Poissons Ratio (y) = 0.14376 0.03841
# Poissons Ratio (z) = 0.84711 0.15726
#
# Static dielectric constant tensor:
#      x y z
#    x 1.942210 0.000000 0.000000 
#    y 0.000000 2.052270 0.000000 
#    z 0.000000 0.000000 1.924360 
# 
# From -- ./inp_files/12715.got.cif
#   From: 2010.05.17/outbox.cif.g08.bks.cpg/sg73_7_cif.got.tgz:12715.got - 2010.06.03 17:35:07.
