data_PCOD9530614
_publ_section_title
;
Structure prediction by ZEFSAII (Michael W. Deem and Ramdas Pophale) SiO2 
 PCOD9530614
Probable space group: I B C A 
;
_chemical_formula_sum "Si O2"
_cell_formula_units_Z 72
_cell_length_a 14.519705
_cell_length_b 8.477582
_cell_length_c 25.119337
_cell_angle_alpha 90.000000
_cell_angle_beta 90.000000
_cell_angle_gamma 90.000000
_cell_volume 3091.989173
_symmetry_space_group_name_H-M "I B C A "
_symmetry_group_IT_number 73
_symmetry_cell_setting 'orthorhombic'
loop_
_space_group_symop_operation_xyz
x,y,z
-x,1/2-y,z
x,-y,1/2-z
1/2-x,y,-z
-x,-y,-z
x,1/2+y,-z
-x,y,1/2+z
1/2+x,-y,z
1/2+x,1/2+y,1/2+z
1/2-x,-y,1/2+z
1/2+x,1/2-y,-z
-x,1/2+y,1/2-z
1/2-x,1/2-y,1/2-z
1/2+x,y,1/2-z
1/2-x,1/2+y,z
x,1/2-y,1/2+z
loop_
_atom_site_type_symbol
_atom_site_label
_atom_site_fract_x
_atom_site_fract_y
_atom_site_fract_z
Si Si1 0.797306 0.874002 0.711106
Si Si2 0.679391 0.104550 0.641107
Si Si3 0.156653 0.598866 0.930066
Si Si4 0.482094 0.436932 0.560637
Si Si5 0.750000 0.664196 0.000000
O O1 0.750000 0.750000 0.750000
O O2 0.855385 0.762572 0.671111
O O3 0.846556 0.000000 0.750000
O O4 0.715652 0.968450 0.680449
O O5 0.612695 0.047393 0.593591
O O6 0.775751 0.157480 0.615003
O O7 0.168646 0.727408 0.976500
O O8 0.057907 0.546221 0.910395
O O9 0.203319 0.443620 0.955729
O O10 0.500000 0.250000 0.560957
O O11 0.500000 0.500000 0.500000
#
# Coordination Sequence:
#
# PCOD9530614 Si02
#       5
#    16  16  16  16   8
#     4   9  20  41  70  95 119 161 220 288 350 394
#     4  11  22  39  66  94 123 167 216 271 340 401
#     4  11  21  37  57  85 125 168 217 268 312 378
#     4  12  25  39  59  92 137 183 222 259 313 395
#     4  10  20  36  58  84 126 184 230 260 306 374
#
# _framework density 23.285982000000001
#
# number of rings (size 3 to 8) (size 9 to 14) (size 15 to 20)
#    0.000    1.333    0.000    8.000    0.000    1.778 
#    0.000    0.000    0.000   50.667    0.000    0.000 
#    0.000    0.000    0.000    0.000    0.000    0.000 
#
# Total GULP energy -201003.077178 kJ/mol
# GULP energy per Si atom -5583.418810 kJ/mol
# Density = 2.323298 g / cm^3
# Si number density = 23.285982 Si / 1000 Ang^3
#
#
#
# Elastic Constant Matrix: (Units=GPa)
#
#
# Indices 1 2 3 4 5 6 
#
# 1 86.3011 18.4631 28.4159 0.0000 0.0000 0.0000
# 2 18.4631 129.9128 48.0861 0.0000 0.0000 0.0000
# 3 28.4159 48.0861 106.4414 0.0000 0.0000 0.0000
# 4 0.0000 0.0000 0.0000 58.6078 0.0000 0.0000
# 5 0.0000 0.0000 0.0000 0.0000 17.3662 0.0000
# 6 0.0000 0.0000 0.0000 0.0000 0.0000 23.9092
#
#
#
# Elastic Compliance Matrix: (Units=1/GPa)
#
#
# Indices 1 2 3 4 5 6 
#
# 1 0.012751 -0.000663 -0.003105 0.000000 0.000000 0.000000
# 2 -0.000663 0.009278 -0.004014 0.000000 0.000000 0.000000
# 3 -0.003105 -0.004014 0.012037 0.000000 0.000000 0.000000
# 4 0.000000 0.000000 0.000000 0.017063 0.000000 0.000000
# 5 0.000000 0.000000 0.000000 0.000000 0.057583 0.000000
# 6 0.000000 0.000000 0.000000 0.000000 0.000000 0.041825
#
#
# Mechanical properties :
#
#
# Convention : Reuss Voigt Hill
#
# Bulk Modulus (GPa) = 54.04736 56.95394 55.50065
# Shear Modulus (GPa) = 29.02456 35.15598 32.09027
#
# Velocity S-wave (km/s) = 3.53432 3.88976 3.71630
# Velocity P-wave (km/s) = 6.31790 6.68470 6.50389
#
# Compressibility (1/GPa) = 0.01850229
#
# Stress axis : x y z
#
# Youngs Moduli (GPa) = 78.42256 107.78734 83.07640
#
# Poissons Ratio (x) = 0.07147 0.25792
# Poissons Ratio (y) = 0.05200 0.33349
# Poissons Ratio (z) = 0.24347 0.43268
#
# Static dielectric constant tensor:
#      x y z
#    x 1.953400 0.000000 0.000000 
#    y 0.000000 1.917750 0.000000 
#    z 0.000000 0.000000 2.088900 
# 
# From -- ./inp_files/34225.got.cif
#   From: 2010.05.17/outbox.cif.g08.bks.cpg/sg73_18_cif.got.tgz:34225.got - 2010.06.03 17:35:07.
