data_PCOD9530284
_publ_section_title
;
Structure prediction by ZEFSAII (Michael W. Deem and Ramdas Pophale) SiO2 
 PCOD9530284
Probable space group: I B C A 
;
_chemical_formula_sum "Si O2"
_cell_formula_units_Z 120
_cell_length_a 9.560631
_cell_length_b 27.281022
_cell_length_c 22.658432
_cell_angle_alpha 90.000000
_cell_angle_beta 90.000000
_cell_angle_gamma 90.000000
_cell_volume 5909.857988
_symmetry_space_group_name_H-M "I B C A "
_symmetry_group_IT_number 73
_symmetry_cell_setting 'orthorhombic'
loop_
_space_group_symop_operation_xyz
x,y,z
-x,1/2-y,z
x,-y,1/2-z
1/2-x,y,-z
-x,-y,-z
x,1/2+y,-z
-x,y,1/2+z
1/2+x,-y,z
1/2+x,1/2+y,1/2+z
1/2-x,-y,1/2+z
1/2+x,1/2-y,-z
-x,1/2+y,1/2-z
1/2-x,1/2-y,1/2-z
1/2+x,y,1/2-z
1/2-x,1/2+y,z
x,1/2-y,1/2+z
loop_
_atom_site_type_symbol
_atom_site_label
_atom_site_fract_x
_atom_site_fract_y
_atom_site_fract_z
Si Si1 0.000000 0.750000 0.098446
Si Si2 0.049965 0.806026 0.382568
Si Si3 0.728522 0.444636 0.071373
Si Si4 0.466530 0.472455 0.937511
Si Si5 0.054855 0.806587 0.758866
Si Si6 0.325195 0.835526 0.437247
Si Si7 0.664722 0.178545 0.171819
Si Si8 0.681052 0.631189 0.061960
O O1 0.951542 0.797516 0.062544
O O2 0.873562 0.728877 0.137975
O O3 0.016450 0.826349 0.318143
O O4 0.957821 0.836914 0.427969
O O5 0.000000 0.750000 0.385421
O O6 0.210488 0.812809 0.394382
O O7 0.625907 0.486536 0.094542
O O8 0.658010 0.391849 0.081226
O O9 0.888302 0.454237 0.091479
O O10 0.750000 0.447696 0.000000
O O11 0.368936 0.424877 0.944451
O O12 0.500000 0.500000 0.000000
O O13 0.217974 0.811785 0.777271
O O14 0.000000 0.750000 0.754350
O O15 0.983980 0.833428 0.703136
O O16 0.250000 0.836305 0.500000
O O17 0.724261 0.142948 0.120237
O O18 0.750000 0.645675 0.000000
#
# Coordination Sequence:
#
# PCOD9530284 Si02
#       8
#     8  16  16  16  16  16  16  16
#     4  12  26  38  58  96 128 176 242 264 348 402
#     4  10  22  38  58  84 125 179 218 266 337 382
#     4   9  19  35  58  85 119 167 216 262 320 383
#     4  10  19  37  63  91 125 168 214 272 327 393
#     4  10  20  40  62  83 120 166 234 285 321 382
#     4  11  24  38  54  86 136 179 218 262 326 415
#     4  11  25  38  64  93 125 179 225 287 331 393
#     4  11  23  39  61  95 138 167 220 271 341 417
#
# _framework density 20.305054999999999
#
# number of rings (size 3 to 8) (size 9 to 14) (size 15 to 20)
#    0.000    1.600    2.000    4.000    4.667    2.133 
#    0.000    0.000    0.000    0.000    0.000    0.933 
#    0.000    0.000    0.000    0.000    0.000    0.000 
#
# Total GULP energy -334402.276038 kJ/mol
# GULP energy per Si atom -5573.371267 kJ/mol
# Density = 2.025884 g / cm^3
# Si number density = 20.305055 Si / 1000 Ang^3
#
#
#
# Elastic Constant Matrix: (Units=GPa)
#
#
# Indices 1 2 3 4 5 6 
#
# 1 93.5123 47.6347 33.9517 0.0000 0.0000 0.0000
# 2 47.6347 123.1967 34.7934 0.0000 0.0000 0.0000
# 3 33.9517 34.7934 66.0566 0.0000 0.0000 0.0000
# 4 0.0000 0.0000 0.0000 8.2180 0.0000 0.0000
# 5 0.0000 0.0000 0.0000 0.0000 50.7676 0.0000
# 6 0.0000 0.0000 0.0000 0.0000 0.0000 35.3504
#
#
#
# Elastic Compliance Matrix: (Units=1/GPa)
#
#
# Indices 1 2 3 4 5 6 
#
# 1 0.014788 -0.004195 -0.005391 0.000000 0.000000 0.000000
# 2 -0.004195 0.010726 -0.003493 0.000000 0.000000 0.000000
# 3 -0.005391 -0.003493 0.019749 0.000000 0.000000 0.000000
# 4 0.000000 0.000000 0.000000 0.121684 0.000000 0.000000
# 5 0.000000 0.000000 0.000000 0.000000 0.019698 0.000000
# 6 0.000000 0.000000 0.000000 0.000000 0.000000 0.028288
#
#
# Mechanical properties :
#
#
# Convention : Reuss Voigt Hill
#
# Bulk Modulus (GPa) = 52.34457 57.28058 54.81258
# Shear Modulus (GPa) = 20.20526 29.95960 25.08243
#
# Velocity S-wave (km/s) = 3.15792 3.84536 3.51847
# Velocity P-wave (km/s) = 6.25553 6.92726 6.59995
#
# Compressibility (1/GPa) = 0.01910418
#
# Stress axis : x y z
#
# Youngs Moduli (GPa) = 67.62127 93.23290 50.63458
#
# Poissons Ratio (x) = 0.39115 0.27297
# Poissons Ratio (y) = 0.28370 0.17688
# Poissons Ratio (z) = 0.36455 0.32568
#
# Static dielectric constant tensor:
#      x y z
#    x 1.804560 0.000000 0.000000 
#    y 0.000000 1.763750 0.000000 
#    z 0.000000 0.000000 1.774480 
# 
# From -- ./inp_files/28610.got.cif
#   From: 2010.05.17/outbox.cif.g08.bks.cpg/sg73_15_cif.got.tgz:28610.got - 2010.06.03 17:35:07.
