data_PCOD9530869
_publ_section_title
;
Structure prediction by ZEFSAII (Michael W. Deem and Ramdas Pophale) SiO2 
 PCOD9530869
Probable space group: I B C A 
;
_chemical_formula_sum "Si O2"
_cell_formula_units_Z 112
_cell_length_a 20.093490
_cell_length_b 20.923644
_cell_length_c 9.999219
_cell_angle_alpha 90.000000
_cell_angle_beta 90.000000
_cell_angle_gamma 90.000000
_cell_volume 4203.961960
_symmetry_space_group_name_H-M "I B C A "
_symmetry_group_IT_number 73
_symmetry_cell_setting 'orthorhombic'
loop_
_space_group_symop_operation_xyz
x,y,z
-x,1/2-y,z
x,-y,1/2-z
1/2-x,y,-z
-x,-y,-z
x,1/2+y,-z
-x,y,1/2+z
1/2+x,-y,z
1/2+x,1/2+y,1/2+z
1/2-x,-y,1/2+z
1/2+x,1/2-y,-z
-x,1/2+y,1/2-z
1/2-x,1/2-y,1/2-z
1/2+x,y,1/2-z
1/2-x,1/2+y,z
x,1/2-y,1/2+z
loop_
_atom_site_type_symbol
_atom_site_label
_atom_site_fract_x
_atom_site_fract_y
_atom_site_fract_z
Si Si1 0.007480 0.559487 0.344330
Si Si2 0.612240 0.398802 0.544298
Si Si3 0.995218 0.822407 0.156248
Si Si4 0.791181 0.862155 0.305002
Si Si5 0.145595 0.669263 0.024436
Si Si6 0.687748 0.500000 0.250000
Si Si7 0.637137 0.532243 0.546300
Si Si8 0.250000 0.771719 0.000000
O O1 0.022729 0.500000 0.250000
O O2 0.023267 0.623934 0.263908
O O3 0.932175 0.552573 0.388180
O O4 0.049857 0.563481 0.477671
O O5 0.570613 0.344145 0.618274
O O6 0.656047 0.370227 0.425966
O O7 0.649848 0.460823 0.606340
O O8 0.000000 0.750000 0.205347
O O9 0.934998 0.824742 0.044691
O O10 0.825820 0.834168 0.175252
O O11 0.773097 0.935061 0.274577
O O12 0.736716 0.816567 0.370799
O O13 0.169218 0.603621 0.951787
O O14 0.186385 0.728160 0.964173
O O15 0.647818 0.516311 0.386745
#
# Coordination Sequence:
#
# PCOD9530869 Si02
#       8
#    16  16  16  16  16   8  16   8
#     4  12  22  36  66 105 144 178 216 277 345 429
#     4  11  21  39  67  99 140 183 224 273 347 437
#     4  12  25  39  62 101 148 186 221 275 349 433
#     4  10  22  43  69  96 129 184 232 287 349 416
#     4  11  23  44  65  95 127 186 234 279 350 419
#     4   8  20  40  74  98 132 182 236 278 342 424
#     4  10  20  38  68 102 135 177 227 270 343 427
#     4  12  26  44  70  92 134 182 248 304 344 402
#
# _framework density 26.641535999999999
#
# number of rings (size 3 to 8) (size 9 to 14) (size 15 to 20)
#    0.000    1.143    4.286    2.571    4.000    1.714 
#    0.000    7.857    0.000    0.000    0.000    0.000 
#    0.000    0.000    0.000    0.000    0.000    0.000 
#
# Total GULP energy -312705.467607 kJ/mol
# GULP energy per Si atom -5584.026207 kJ/mol
# Density = 2.658090 g / cm^3
# Si number density = 26.641536 Si / 1000 Ang^3
#
#
#
# Elastic Constant Matrix: (Units=GPa)
#
#
# Indices 1 2 3 4 5 6 
#
# 1 89.9516 15.6790 25.9086 0.0000 0.0000 0.0000
# 2 15.6790 232.3769 38.7334 0.0000 0.0000 0.0000
# 3 25.9086 38.7334 29.9580 0.0000 0.0000 0.0000
# 4 0.0000 0.0000 0.0000 30.6159 0.0000 0.0000
# 5 0.0000 0.0000 0.0000 0.0000 29.8098 0.0000
# 6 0.0000 0.0000 0.0000 0.0000 0.0000 -9.6667
#
#
#
# Elastic Compliance Matrix: (Units=1/GPa)
#
#
# Indices 1 2 3 4 5 6 
#
# 1 0.015197 0.001485 -0.015063 0.000000 0.000000 0.000000
# 2 0.001485 0.005631 -0.008565 0.000000 0.000000 0.000000
# 3 -0.015063 -0.008565 0.057481 0.000000 0.000000 0.000000
# 4 0.000000 0.000000 0.000000 0.032663 0.000000 0.000000
# 5 0.000000 0.000000 0.000000 0.000000 0.033546 0.000000
# 6 0.000000 0.000000 0.000000 0.000000 0.000000 -0.103448
#
#
# Mechanical properties :
#
#
# Convention : Reuss Voigt Hill
#
# Bulk Modulus (GPa) = 29.39164 56.99206 43.19185
# Shear Modulus (GPa) = 51.70859 28.28284 39.99571
#
# Velocity S-wave (km/s) = 4.41035 3.26177 3.87881
# Velocity P-wave (km/s) = 6.08203 5.96859 6.02558
#
# Compressibility (1/GPa) = 0.03402328
#
# Stress axis : x y z
#
# Youngs Moduli (GPa) = 65.80325 177.59689 17.39708
#
# Poissons Ratio (x) = -0.26381 0.26206
# Poissons Ratio (y) = -0.09775 0.14900
# Poissons Ratio (z) = 0.99121 1.52107
#
# Static dielectric constant tensor:
#      x y z
#    x 2.165860 0.000000 0.000000 
#    y 0.000000 2.197280 0.000000 
#    z 0.000000 0.000000 2.098380 
# 
# From -- ./inp_files/13811.got.cif
#   From: 2010.05.17/outbox.cif.g08.bks.cpg/sg73_7_cif.got.tgz:13811.got - 2010.06.03 17:35:07.
