data_PCOD9530013
_publ_section_title
;
Structure prediction by ZEFSAII (Michael W. Deem and Ramdas Pophale) SiO2 
 PCOD9530013
Probable space group: I B C A 
;
_chemical_formula_sum "Si O2"
_cell_formula_units_Z 72
_cell_length_a 5.016377
_cell_length_b 26.081497
_cell_length_c 26.595194
_cell_angle_alpha 90.000000
_cell_angle_beta 90.000000
_cell_angle_gamma 90.000000
_cell_volume 3479.572145
_symmetry_space_group_name_H-M "I B C A "
_symmetry_group_IT_number 73
_symmetry_cell_setting 'orthorhombic'
loop_
_space_group_symop_operation_xyz
x,y,z
-x,1/2-y,z
x,-y,1/2-z
1/2-x,y,-z
-x,-y,-z
x,1/2+y,-z
-x,y,1/2+z
1/2+x,-y,z
1/2+x,1/2+y,1/2+z
1/2-x,-y,1/2+z
1/2+x,1/2-y,-z
-x,1/2+y,1/2-z
1/2-x,1/2-y,1/2-z
1/2+x,y,1/2-z
1/2-x,1/2+y,z
x,1/2-y,1/2+z
loop_
_atom_site_type_symbol
_atom_site_label
_atom_site_fract_x
_atom_site_fract_y
_atom_site_fract_z
Si Si1 0.567635 0.303327 0.715545
Si Si2 0.957713 0.584336 0.715082
Si Si3 0.515039 0.117972 0.033412
Si Si4 0.455729 0.032280 0.612497
Si Si5 0.250000 0.715701 0.500000
O O1 0.500000 0.250000 0.688047
O O2 0.368899 0.302620 0.764191
O O3 0.503329 0.358369 0.692489
O O4 0.166912 0.579542 0.760784
O O5 0.013884 0.544719 0.671287
O O6 0.472672 0.082976 0.081363
O O7 0.632327 0.175489 0.041164
O O8 0.750000 0.092683 0.000000
O O9 0.250000 0.122310 0.000000
O O10 0.661385 0.987065 0.600364
O O11 0.500000 0.750000 0.516673
#
# Coordination Sequence:
#
# PCOD9530013 Si02
#       5
#    16  16  16  16   8
#     4   8  14  27  50  74  99 135 178 231 292 346
#     4  10  21  38  58  83 118 159 205 259 306 359
#     4  10  22  40  64  94 124 160 199 254 305 376
#     4  12  26  40  60  88 123 164 216 263 304 365
#     4  10  18  38  68  96 126 162 188 238 310 382
#
# _framework density 20.692198999999999
#
# number of rings (size 3 to 8) (size 9 to 14) (size 15 to 20)
#    0.667    1.333    1.111    2.667    0.000    5.333 
#    0.000    1.111    0.000    5.333    0.000    0.000 
#    0.000    0.000    0.000    0.000    0.000    0.000 
#
# Total GULP energy -200638.191766 kJ/mol
# GULP energy per Si atom -5573.283105 kJ/mol
# Density = 2.064510 g / cm^3
# Si number density = 20.692199 Si / 1000 Ang^3
#
#
#
# Elastic Constant Matrix: (Units=GPa)
#
#
# Indices 1 2 3 4 5 6 
#
# 1 86.0399 11.1969 4.9759 0.0000 0.0000 0.0000
# 2 11.1969 89.3018 29.4921 0.0000 0.0000 0.0000
# 3 4.9759 29.4921 34.3050 0.0000 0.0000 0.0000
# 4 0.0000 0.0000 0.0000 18.2014 0.0000 0.0000
# 5 0.0000 0.0000 0.0000 0.0000 11.9112 0.0000
# 6 0.0000 0.0000 0.0000 0.0000 0.0000 26.4815
#
#
#
# Elastic Compliance Matrix: (Units=1/GPa)
#
#
# Indices 1 2 3 4 5 6 
#
# 1 0.011825 -0.001279 -0.000615 0.000000 0.000000 0.000000
# 2 -0.001279 0.015776 -0.013377 0.000000 0.000000 0.000000
# 3 -0.000615 -0.013377 0.040740 0.000000 0.000000 0.000000
# 4 0.000000 0.000000 0.000000 0.054941 0.000000 0.000000
# 5 0.000000 0.000000 0.000000 0.000000 0.083954 0.000000
# 6 0.000000 0.000000 0.000000 0.000000 0.000000 0.037762
#
#
# Mechanical properties :
#
#
# Convention : Reuss Voigt Hill
#
# Bulk Modulus (GPa) = 26.45716 33.44185 29.94950
# Shear Modulus (GPa) = 17.35259 22.25094 19.80176
#
# Velocity S-wave (km/s) = 2.89901 3.28278 3.09685
# Velocity P-wave (km/s) = 4.90097 5.52861 5.22422
#
# Compressibility (1/GPa) = 0.03779695
#
# Stress axis : x y z
#
# Youngs Moduli (GPa) = 84.56954 63.38617 24.54585
#
# Poissons Ratio (x) = 0.08110 0.01510
# Poissons Ratio (y) = 0.10820 0.32836
# Poissons Ratio (z) = 0.05203 0.84794
#
# Static dielectric constant tensor:
#      x y z
#    x 1.713010 0.000000 0.000000 
#    y 0.000000 1.821250 0.000000 
#    z 0.000000 0.000000 1.699540 
# 
# From -- ./inp_files/28012.got.cif
#   From: 2010.05.17/outbox.cif.g08.bks.cpg/sg73_15_cif.got.tgz:28012.got - 2010.06.03 17:35:07.
