data_PCOD9530184
_publ_section_title
;
Structure prediction by ZEFSAII (Michael W. Deem and Ramdas Pophale) SiO2 
 PCOD9530184
Probable space group: I B C A 
;
_chemical_formula_sum "Si O2"
_cell_formula_units_Z 72
_cell_length_a 5.380566
_cell_length_b 33.998621
_cell_length_c 18.411283
_cell_angle_alpha 90.000000
_cell_angle_beta 90.000000
_cell_angle_gamma 90.000000
_cell_volume 3368.009585
_symmetry_space_group_name_H-M "I B C A "
_symmetry_group_IT_number 73
_symmetry_cell_setting 'orthorhombic'
loop_
_space_group_symop_operation_xyz
x,y,z
-x,1/2-y,z
x,-y,1/2-z
1/2-x,y,-z
-x,-y,-z
x,1/2+y,-z
-x,y,1/2+z
1/2+x,-y,z
1/2+x,1/2+y,1/2+z
1/2-x,-y,1/2+z
1/2+x,1/2-y,-z
-x,1/2+y,1/2-z
1/2-x,1/2-y,1/2-z
1/2+x,y,1/2-z
1/2-x,1/2+y,z
x,1/2-y,1/2+z
loop_
_atom_site_type_symbol
_atom_site_label
_atom_site_fract_x
_atom_site_fract_y
_atom_site_fract_z
Si Si1 0.244838 0.475237 0.586394
Si Si2 0.750259 0.223951 0.838888
Si Si3 0.801771 0.892065 0.161295
Si Si4 0.197762 0.860221 0.820924
Si Si5 0.250000 0.275705 0.000000
O O1 0.250000 0.465743 0.500000
O O2 0.487862 0.501852 0.601257
O O3 0.260710 0.435718 0.633094
O O4 0.500000 0.250000 0.830896
O O5 0.740603 0.184216 0.792971
O O6 0.000000 0.250000 0.829678
O O7 0.752343 0.205650 0.920613
O O8 0.564657 0.865742 0.139716
O O9 0.819987 0.887287 0.248689
O O10 0.064628 0.875111 0.134942
O O11 0.500000 0.250000 0.999530
#
# Coordination Sequence:
#
# PCOD9530184 Si02
#       5
#    16  16  16  16   8
#     4  10  21  40  66  91 116 148 190 235 282 348
#     4  10  19  35  56  80 111 154 203 247 287 332
#     4  10  21  40  56  83 123 151 183 241 285 348
#     4  10  21  38  57  81 124 155 193 241 286 348
#     4   8  16  30  50  74 104 136 182 242 286 328
#
# _framework density 21.377611999999999
#
# number of rings (size 3 to 8) (size 9 to 14) (size 15 to 20)
#    0.000    2.222    0.000    2.667    0.000    0.000 
#    4.000   26.667    0.000    0.000    0.000    0.000 
#    0.000    0.000    0.000    0.000    0.000    0.000 
#
# Total GULP energy -200719.434721 kJ/mol
# GULP energy per Si atom -5575.539853 kJ/mol
# Density = 2.132896 g / cm^3
# Si number density = 21.377612 Si / 1000 Ang^3
#
#
#
# Elastic Constant Matrix: (Units=GPa)
#
#
# Indices 1 2 3 4 5 6 
#
# 1 114.0018 -16.9947 -0.7819 0.0000 0.0000 0.0000
# 2 -16.9947 87.1666 30.3725 0.0000 0.0000 0.0000
# 3 -0.7819 30.3725 64.1605 0.0000 0.0000 0.0000
# 4 0.0000 0.0000 0.0000 9.6010 0.0000 0.0000
# 5 0.0000 0.0000 0.0000 0.0000 -2.7720 0.0000
# 6 0.0000 0.0000 0.0000 0.0000 0.0000 36.5379
#
#
#
# Elastic Compliance Matrix: (Units=1/GPa)
#
#
# Indices 1 2 3 4 5 6 
#
# 1 0.009075 0.002073 -0.000871 0.000000 0.000000 0.000000
# 2 0.002073 0.014212 -0.006702 0.000000 0.000000 0.000000
# 3 -0.000871 -0.006702 0.018748 0.000000 0.000000 0.000000
# 4 0.000000 0.000000 0.000000 0.104155 0.000000 0.000000
# 5 0.000000 0.000000 0.000000 0.000000 -0.360748 0.000000
# 6 0.000000 0.000000 0.000000 0.000000 0.000000 0.027369
#
#
# Mechanical properties :
#
#
# Convention : Reuss Voigt Hill
#
# Bulk Modulus (GPa) = 32.22266 32.28011 32.25138
# Shear Modulus (GPa) = -30.14889 25.52225 -2.31332
#
# Velocity S-wave (km/s) = -3.75947 3.45900 -1.04138
# Velocity P-wave (km/s) = 1.93366 5.57545 3.69774
#
# Compressibility (1/GPa) = 0.03103406
#
# Stress axis : x y z
#
# Youngs Moduli (GPa) = 110.19531 70.36426 53.33877
#
# Poissons Ratio (x) = -0.14584 0.04643
# Poissons Ratio (y) = -0.22839 0.35750
# Poissons Ratio (z) = 0.09593 0.47161
#
# Static dielectric constant tensor:
#      x y z
#    x 1.902160 0.000000 0.000000 
#    y 0.000000 1.728920 0.000000 
#    z 0.000000 0.000000 1.887010 
# 
# From -- ./inp_files/1665.got.cif
#   From: 2010.05.17/outbox.cif.g08.bks.cpg/sg73_1_cif.got.tgz:1665.got - 2010.06.03 17:35:07.
