data_PCOD9530949
_publ_section_title
;
Structure prediction by ZEFSAII (Michael W. Deem and Ramdas Pophale) SiO2 
 PCOD9530949
Probable space group: I B C A 
;
_chemical_formula_sum "Si O2"
_cell_formula_units_Z 88
_cell_length_a 21.427786
_cell_length_b 13.326919
_cell_length_c 12.141362
_cell_angle_alpha 90.000000
_cell_angle_beta 90.000000
_cell_angle_gamma 90.000000
_cell_volume 3467.164653
_symmetry_space_group_name_H-M "I B C A "
_symmetry_group_IT_number 73
_symmetry_cell_setting 'orthorhombic'
loop_
_space_group_symop_operation_xyz
x,y,z
-x,1/2-y,z
x,-y,1/2-z
1/2-x,y,-z
-x,-y,-z
x,1/2+y,-z
-x,y,1/2+z
1/2+x,-y,z
1/2+x,1/2+y,1/2+z
1/2-x,-y,1/2+z
1/2+x,1/2-y,-z
-x,1/2+y,1/2-z
1/2-x,1/2-y,1/2-z
1/2+x,y,1/2-z
1/2-x,1/2+y,z
x,1/2-y,1/2+z
loop_
_atom_site_type_symbol
_atom_site_label
_atom_site_fract_x
_atom_site_fract_y
_atom_site_fract_z
Si Si1 0.316485 0.818797 0.128897
Si Si2 0.911798 0.922653 0.059747
Si Si3 0.819972 0.000000 0.250000
Si Si4 0.374961 0.914203 0.915476
Si Si5 0.695625 0.892982 0.083680
Si Si6 0.934444 0.762650 0.225586
O O1 0.283100 0.711825 0.134771
O O2 0.382055 0.805044 0.193632
O O3 0.283665 0.906479 0.199537
O O4 0.331837 0.857316 0.005795
O O5 0.864256 0.967032 0.150459
O O6 0.951388 0.844420 0.129843
O O7 0.866892 0.857044 0.981767
O O8 0.927127 0.020152 0.985026
O O9 0.404778 0.836554 0.830464
O O10 0.333038 0.005267 0.867646
O O11 0.750000 0.923536 0.000000
O O12 0.000000 0.750000 0.286842
#
# Coordination Sequence:
#
# PCOD9530949 Si02
#       6
#    16  16   8  16  16  16
#     4  10  20  40  62  89 130 159 217 269 314 405
#     4   8  18  37  57  87 122 160 214 263 313 395
#     4   8  16  36  60  76 120 164 190 258 324 358
#     4   9  19  40  62  84 131 160 215 273 312 397
#     4  10  21  39  64  91 121 170 210 268 337 372
#     4  11  22  38  63  92 126 171 212 266 331 383
#
# _framework density 25.380970999999999
#
# number of rings (size 3 to 8) (size 9 to 14) (size 15 to 20)
#    1.091    1.455    1.818    0.000    0.000    2.909 
#    0.000   14.545    0.000    0.000    0.000    0.000 
#    0.000    0.000    0.000    0.000    0.000    0.000 
#
# Total GULP energy -245110.392326 kJ/mol
# GULP energy per Si atom -5570.690735 kJ/mol
# Density = 2.532320 g / cm^3
# Si number density = 25.380971 Si / 1000 Ang^3
#
#
#
# Elastic Constant Matrix: (Units=GPa)
#
#
# Indices 1 2 3 4 5 6 
#
# 1 55.5010 18.9873 10.8277 0.0000 0.0000 0.0000
# 2 18.9873 193.9814 53.7889 0.0000 0.0000 0.0000
# 3 10.8277 53.7889 72.0083 0.0000 0.0000 0.0000
# 4 0.0000 0.0000 0.0000 25.4030 0.0000 0.0000
# 5 0.0000 0.0000 0.0000 0.0000 18.0513 0.0000
# 6 0.0000 0.0000 0.0000 0.0000 0.0000 15.2883
#
#
#
# Elastic Compliance Matrix: (Units=1/GPa)
#
#
# Indices 1 2 3 4 5 6 
#
# 1 0.018832 -0.001335 -0.001835 0.000000 0.000000 0.000000
# 2 -0.001335 0.006596 -0.004727 0.000000 0.000000 0.000000
# 3 -0.001835 -0.004727 0.017694 0.000000 0.000000 0.000000
# 4 0.000000 0.000000 0.000000 0.039365 0.000000 0.000000
# 5 0.000000 0.000000 0.000000 0.000000 0.055398 0.000000
# 6 0.000000 0.000000 0.000000 0.000000 0.000000 0.065410
#
#
# Mechanical properties :
#
#
# Convention : Reuss Voigt Hill
#
# Bulk Modulus (GPa) = 36.58940 54.29982 45.44461
# Shear Modulus (GPa) = 21.91084 27.60765 24.75924
#
# Velocity S-wave (km/s) = 2.94135 3.30165 3.12669
# Velocity P-wave (km/s) = 5.09733 5.99791 5.56586
#
# Compressibility (1/GPa) = 0.02733032
#
# Stress axis : x y z
#
# Youngs Moduli (GPa) = 53.10048 151.59698 56.51635
#
# Poissons Ratio (x) = 0.20231 0.10370
# Poissons Ratio (y) = 0.07086 0.26714
# Poissons Ratio (z) = 0.09743 0.71656
#
# Static dielectric constant tensor:
#      x y z
#    x 2.057120 0.000000 0.000000 
#    y 0.000000 2.207490 0.000000 
#    z 0.000000 0.000000 2.073180 
# 
# From -- ./inp_files/19780.got.cif
#   From: 2010.05.17/outbox.cif.g08.bks.cpg/sg73_10_cif.got.tgz:19780.got - 2010.06.03 17:35:07.
