data_PCOD9530217
_publ_section_title
;
Structure prediction by ZEFSAII (Michael W. Deem and Ramdas Pophale) SiO2 
 PCOD9530217
Probable space group: I B C A 
;
_chemical_formula_sum "Si O2"
_cell_formula_units_Z 80
_cell_length_a 12.896475
_cell_length_b 9.131484
_cell_length_c 27.558207
_cell_angle_alpha 90.000000
_cell_angle_beta 90.000000
_cell_angle_gamma 90.000000
_cell_volume 3245.363452
_symmetry_space_group_name_H-M "I B C A "
_symmetry_group_IT_number 73
_symmetry_cell_setting 'orthorhombic'
loop_
_space_group_symop_operation_xyz
x,y,z
-x,1/2-y,z
x,-y,1/2-z
1/2-x,y,-z
-x,-y,-z
x,1/2+y,-z
-x,y,1/2+z
1/2+x,-y,z
1/2+x,1/2+y,1/2+z
1/2-x,-y,1/2+z
1/2+x,1/2-y,-z
-x,1/2+y,1/2-z
1/2-x,1/2-y,1/2-z
1/2+x,y,1/2-z
1/2-x,1/2+y,z
x,1/2-y,1/2+z
loop_
_atom_site_type_symbol
_atom_site_label
_atom_site_fract_x
_atom_site_fract_y
_atom_site_fract_z
Si Si1 0.381105 0.957266 0.514128
Si Si2 0.874238 0.252347 0.930559
Si Si3 0.772415 0.865315 0.166229
Si Si4 0.000000 0.250000 0.075654
Si Si5 0.887342 0.638444 0.841983
Si Si6 0.386772 0.000000 0.250000
O O1 0.335098 0.887529 0.464841
O O2 0.403612 0.814541 0.546997
O O3 0.500000 0.000000 0.500000
O O4 0.341375 0.099000 0.543457
O O5 0.837211 0.283526 0.875921
O O6 0.000000 0.250000 0.930833
O O7 0.658993 0.798734 0.164561
O O8 0.786977 0.035321 0.153349
O O9 0.820192 0.876169 0.220781
O O10 0.043453 0.373874 0.111097
O O11 0.943214 0.579858 0.793911
#
# Coordination Sequence:
#
# PCOD9530217 Si02
#       6
#    16  16  16   8  16   8
#     4  10  19  35  63  88 125 167 205 249 326 374
#     4  10  20  36  63  91 122 169 207 257 313 390
#     4  10  22  42  63  93 125 165 216 260 324 375
#     4  12  22  40  66  96 128 172 212 262 322 382
#     4  10  23  41  66  91 127 167 212 266 314 384
#     4   8  22  42  64  90 126 166 206 266 320 386
#
# _framework density 24.650551
#
# number of rings (size 3 to 8) (size 9 to 14) (size 15 to 20)
#    1.200    0.800    3.000    3.000    2.800    0.000 
#    1.800    2.000    4.400    0.000    0.000    0.000 
#    0.000    0.000    0.000    0.000    0.000    0.000 
#
# Total GULP energy -222858.114835 kJ/mol
# GULP energy per Si atom -5571.452871 kJ/mol
# Density = 2.459445 g / cm^3
# Si number density = 24.650551 Si / 1000 Ang^3
#
#
#
# Elastic Constant Matrix: (Units=GPa)
#
#
# Indices 1 2 3 4 5 6 
#
# 1 47.1308 28.0762 23.8877 0.0000 0.0000 0.0000
# 2 28.0762 103.8657 46.8124 0.0000 0.0000 0.0000
# 3 23.8877 46.8124 154.5535 0.0000 0.0000 0.0000
# 4 0.0000 0.0000 0.0000 19.2131 0.0000 0.0000
# 5 0.0000 0.0000 0.0000 0.0000 20.9976 0.0000
# 6 0.0000 0.0000 0.0000 0.0000 0.0000 26.3394
#
#
#
# Elastic Compliance Matrix: (Units=1/GPa)
#
#
# Indices 1 2 3 4 5 6 
#
# 1 0.025910 -0.006021 -0.002181 0.000000 0.000000 0.000000
# 2 -0.006021 0.012549 -0.002870 0.000000 0.000000 0.000000
# 3 -0.002181 -0.002870 0.007677 0.000000 0.000000 0.000000
# 4 0.000000 0.000000 0.000000 0.052048 0.000000 0.000000
# 5 0.000000 0.000000 0.000000 0.000000 0.047624 0.000000
# 6 0.000000 0.000000 0.000000 0.000000 0.000000 0.037966
#
#
# Mechanical properties :
#
#
# Convention : Reuss Voigt Hill
#
# Bulk Modulus (GPa) = 41.68203 55.90028 48.79116
# Shear Modulus (GPa) = 23.37382 27.09495 25.23438
#
# Velocity S-wave (km/s) = 3.08264 3.31896 3.20298
# Velocity P-wave (km/s) = 5.44207 6.11667 5.78920
#
# Compressibility (1/GPa) = 0.02399115
#
# Stress axis : x y z
#
# Youngs Moduli (GPa) = 38.59584 79.68784 130.26357
#
# Poissons Ratio (x) = 0.47978 0.28410
# Poissons Ratio (y) = 0.23237 0.37390
# Poissons Ratio (z) = 0.08418 0.22873
#
# Static dielectric constant tensor:
#      x y z
#    x 2.072360 0.000000 0.000000 
#    y 0.000000 2.069300 0.000000 
#    z 0.000000 0.000000 2.067490 
# 
# From -- ./inp_files/32601.got.cif
#   From: 2010.05.17/outbox.cif.g08.bks.cpg/sg73_17_cif.got.tgz:32601.got - 2010.06.03 17:35:07.
