data_PCOD9530182
_publ_section_title
;
Structure prediction by ZEFSAII (Michael W. Deem and Ramdas Pophale) SiO2 
 PCOD9530182
Probable space group: I B C A 
;
_chemical_formula_sum "Si O2"
_cell_formula_units_Z 120
_cell_length_a 18.381390
_cell_length_b 14.185357
_cell_length_c 17.124870
_cell_angle_alpha 90.000000
_cell_angle_beta 90.000000
_cell_angle_gamma 90.000000
_cell_volume 4465.251274
_symmetry_space_group_name_H-M "I B C A "
_symmetry_group_IT_number 73
_symmetry_cell_setting 'orthorhombic'
loop_
_space_group_symop_operation_xyz
x,y,z
-x,1/2-y,z
x,-y,1/2-z
1/2-x,y,-z
-x,-y,-z
x,1/2+y,-z
-x,y,1/2+z
1/2+x,-y,z
1/2+x,1/2+y,1/2+z
1/2-x,-y,1/2+z
1/2+x,1/2-y,-z
-x,1/2+y,1/2-z
1/2-x,1/2-y,1/2-z
1/2+x,y,1/2-z
1/2-x,1/2+y,z
x,1/2-y,1/2+z
loop_
_atom_site_type_symbol
_atom_site_label
_atom_site_fract_x
_atom_site_fract_y
_atom_site_fract_z
Si Si1 0.414871 0.417353 0.355073
Si Si2 0.466771 0.384400 0.127751
Si Si3 0.336386 0.704520 0.035847
Si Si4 0.129779 0.924163 0.611247
Si Si5 0.439223 0.883238 0.050857
Si Si6 0.773166 0.500000 0.750000
Si Si7 0.219012 0.186426 0.679829
Si Si8 0.915570 0.255330 0.256757
O O1 0.426715 0.525033 0.339288
O O2 0.352732 0.389855 0.415609
O O3 0.491977 0.385677 0.392355
O O4 0.393247 0.352526 0.284529
O O5 0.552418 0.390340 0.150364
O O6 0.421682 0.292738 0.153599
O O7 0.469597 0.399311 0.035714
O O8 0.400729 0.781816 0.041351
O O9 0.279851 0.766203 0.092685
O O10 0.338899 0.653170 0.950246
O O11 0.183290 0.943032 0.682795
O O12 0.111919 0.027072 0.572736
O O13 0.744222 0.414912 0.694320
O O14 0.250000 0.250000 0.750000
O O15 0.133556 0.182702 0.707588
O O16 0.000000 0.250000 0.236511
#
# Coordination Sequence:
#
# PCOD9530182 Si02
#       8
#    16  16  16  16  16   8  16  16
#     4  10  19  35  53  88 141 190 242 300 379 454
#     4  11  22  33  56 101 151 194 245 313 389 456
#     4  11  21  41  68  99 141 196 259 305 385 459
#     4  11  23  39  69 107 153 204 247 316 387 479
#     4  11  20  35  58  99 151 200 243 308 391 458
#     4  12  26  50  76 106 148 206 264 316 406 474
#     4  11  27  53  78 105 147 206 260 329 398 478
#     4  11  24  38  66 104 141 188 247 322 388 467
#
# _framework density 26.874186000000002
#
# number of rings (size 3 to 8) (size 9 to 14) (size 15 to 20)
#    0.000    1.067    4.000    4.000    9.333    0.000 
#    4.800    0.667    0.000    1.600    0.000    0.000 
#    0.000    0.000    0.000    0.000    0.000    0.000 
#
# Total GULP energy -334341.950709 kJ/mol
# GULP energy per Si atom -5572.365845 kJ/mol
# Density = 2.681302 g / cm^3
# Si number density = 26.874186 Si / 1000 Ang^3
#
#
#
# Elastic Constant Matrix: (Units=GPa)
#
#
# Indices 1 2 3 4 5 6 
#
# 1 68.4361 11.1511 23.1573 0.0000 0.0000 0.0000
# 2 11.1511 163.4892 24.8851 0.0000 0.0000 0.0000
# 3 23.1573 24.8851 112.8078 0.0000 0.0000 0.0000
# 4 0.0000 0.0000 0.0000 54.6964 0.0000 0.0000
# 5 0.0000 0.0000 0.0000 0.0000 108.0074 0.0000
# 6 0.0000 0.0000 0.0000 0.0000 0.0000 28.3468
#
#
#
# Elastic Compliance Matrix: (Units=1/GPa)
#
#
# Indices 1 2 3 4 5 6 
#
# 1 0.015760 -0.000603 -0.003102 0.000000 0.000000 0.000000
# 2 -0.000603 0.006352 -0.001278 0.000000 0.000000 0.000000
# 3 -0.003102 -0.001278 0.009783 0.000000 0.000000 0.000000
# 4 0.000000 0.000000 0.000000 0.018283 0.000000 0.000000
# 5 0.000000 0.000000 0.000000 0.000000 0.009259 0.000000
# 6 0.000000 0.000000 0.000000 0.000000 0.000000 0.035277
#
#
# Mechanical properties :
#
#
# Convention : Reuss Voigt Hill
#
# Bulk Modulus (GPa) = 45.59869 51.45779 48.52824
# Shear Modulus (GPa) = 44.64696 57.24608 50.94652
#
# Velocity S-wave (km/s) = 4.08037 4.62036 4.35874
# Velocity P-wave (km/s) = 6.26127 6.90311 6.59001
#
# Compressibility (1/GPa) = 0.02193046
#
# Stress axis : x y z
#
# Youngs Moduli (GPa) = 63.45122 157.42619 102.21496
#
# Poissons Ratio (x) = 0.09489 0.31710
# Poissons Ratio (y) = 0.03824 0.13058
# Poissons Ratio (z) = 0.19684 0.20112
#
# Static dielectric constant tensor:
#      x y z
#    x 2.255680 0.000000 0.000000 
#    y 0.000000 2.062340 0.000000 
#    z 0.000000 0.000000 2.228730 
# 
# From -- ./inp_files/23655.got.cif
#   From: 2010.05.17/outbox.cif.g08.bks.cpg/sg73_12_cif.got.tgz:23655.got - 2010.06.03 17:35:07.
