data_PCOD9530517
_publ_section_title
;
Structure prediction by ZEFSAII (Michael W. Deem and Ramdas Pophale) SiO2 
 PCOD9530517
Probable space group: I B C A 
;
_chemical_formula_sum "Si O2"
_cell_formula_units_Z 104
_cell_length_a 9.950054
_cell_length_b 23.448841
_cell_length_c 21.717651
_cell_angle_alpha 90.000000
_cell_angle_beta 90.000000
_cell_angle_gamma 90.000000
_cell_volume 5067.102264
_symmetry_space_group_name_H-M "I B C A "
_symmetry_group_IT_number 73
_symmetry_cell_setting 'orthorhombic'
loop_
_space_group_symop_operation_xyz
x,y,z
-x,1/2-y,z
x,-y,1/2-z
1/2-x,y,-z
-x,-y,-z
x,1/2+y,-z
-x,y,1/2+z
1/2+x,-y,z
1/2+x,1/2+y,1/2+z
1/2-x,-y,1/2+z
1/2+x,1/2-y,-z
-x,1/2+y,1/2-z
1/2-x,1/2-y,1/2-z
1/2+x,y,1/2-z
1/2-x,1/2+y,z
x,1/2-y,1/2+z
loop_
_atom_site_type_symbol
_atom_site_label
_atom_site_fract_x
_atom_site_fract_y
_atom_site_fract_z
Si Si1 0.626656 0.479272 0.538934
Si Si2 0.000000 0.250000 0.076906
Si Si3 0.195929 0.564980 0.859352
Si Si4 0.065259 0.640649 0.341026
Si Si5 0.649497 0.632007 0.895108
Si Si6 0.409794 0.000000 0.750000
Si Si7 0.447300 0.116080 0.203123
Si Si8 0.750000 0.718043 0.000000
O O1 0.750000 0.454540 0.500000
O O2 0.500000 0.500000 0.500000
O O3 0.692885 0.531115 0.576994
O O4 0.582780 0.426316 0.580790
O O5 0.027571 0.303093 0.121311
O O6 0.133612 0.246317 0.034462
O O7 0.185030 0.518418 0.805649
O O8 0.318160 0.605149 0.839783
O O9 0.055902 0.598030 0.854471
O O10 0.204007 0.617532 0.368433
O O11 0.082070 0.647359 0.267639
O O12 0.557225 0.649368 0.837503
O O13 0.674817 0.677754 0.949306
O O14 0.495258 0.054033 0.725420
#
# Coordination Sequence:
#
# PCOD9530517 Si02
#       8
#    16   8  16  16  16   8  16   8
#     4  12  24  37  57  90 131 177 215 250 306 381
#     4  10  24  48  72  94 118 172 218 282 332 386
#     4  11  23  37  59  96 129 168 211 262 307 395
#     4  10  23  43  66  92 126 163 214 275 335 382
#     4  11  22  42  64  90 131 172 207 260 327 389
#     4  10  20  34  60  84 134 172 210 246 320 382
#     4  11  22  37  62  96 129 168 212 262 322 390
#     4  10  24  46  74  88 126 172 222 270 332 396
#
# _framework density 20.524550999999999
#
# number of rings (size 3 to 8) (size 9 to 14) (size 15 to 20)
#    0.000    1.231    2.308    4.154    6.462    1.231 
#    1.385    7.692    0.000    0.000    0.000    0.000 
#    0.000    0.000    0.000    0.000    0.000    0.000 
#
# Total GULP energy -290361.304065 kJ/mol
# GULP energy per Si atom -5583.871232 kJ/mol
# Density = 2.047784 g / cm^3
# Si number density = 20.524551 Si / 1000 Ang^3
#
#
#
# Elastic Constant Matrix: (Units=GPa)
#
#
# Indices 1 2 3 4 5 6 
#
# 1 97.7576 20.3831 41.8173 0.0000 0.0000 0.0000
# 2 20.3831 33.4179 24.8917 0.0000 0.0000 0.0000
# 3 41.8173 24.8917 108.8250 0.0000 0.0000 0.0000
# 4 0.0000 0.0000 0.0000 26.0712 0.0000 0.0000
# 5 0.0000 0.0000 0.0000 0.0000 16.9409 0.0000
# 6 0.0000 0.0000 0.0000 0.0000 0.0000 22.5463
#
#
#
# Elastic Compliance Matrix: (Units=1/GPa)
#
#
# Indices 1 2 3 4 5 6 
#
# 1 0.012909 -0.005037 -0.003808 0.000000 0.000000 0.000000
# 2 -0.005037 0.038035 -0.006764 0.000000 0.000000 0.000000
# 3 -0.003808 -0.006764 0.012200 0.000000 0.000000 0.000000
# 4 0.000000 0.000000 0.000000 0.038356 0.000000 0.000000
# 5 0.000000 0.000000 0.000000 0.000000 0.059029 0.000000
# 6 0.000000 0.000000 0.000000 0.000000 0.000000 0.044353
#
#
# Mechanical properties :
#
#
# Convention : Reuss Voigt Hill
#
# Bulk Modulus (GPa) = 31.32421 46.02052 38.67236
# Shear Modulus (GPa) = 20.26412 23.30558 21.78485
#
# Velocity S-wave (km/s) = 3.14556 3.37337 3.26145
# Velocity P-wave (km/s) = 5.33739 6.13545 5.75028
#
# Compressibility (1/GPa) = 0.03192419
#
# Stress axis : x y z
#
# Youngs Moduli (GPa) = 77.46748 26.29175 81.96995
#
# Poissons Ratio (x) = 0.13243 0.31216
# Poissons Ratio (y) = 0.39020 0.55446
# Poissons Ratio (z) = 0.29501 0.17784
#
# Static dielectric constant tensor:
#      x y z
#    x 1.720670 0.000000 0.000000 
#    y 0.000000 1.791870 0.000000 
#    z 0.000000 0.000000 1.822390 
# 
# From -- ./inp_files/24996.got.cif
#   From: 2010.05.17/outbox.cif.g08.bks.cpg/sg73_13_cif.got.tgz:24996.got - 2010.06.03 17:35:07.
