data_PCOD9530809
_publ_section_title
;
Structure prediction by ZEFSAII (Michael W. Deem and Ramdas Pophale) SiO2 
 PCOD9530809
Probable space group: I B C A 
;
_chemical_formula_sum "Si O2"
_cell_formula_units_Z 88
_cell_length_a 13.423068
_cell_length_b 19.125074
_cell_length_c 14.633318
_cell_angle_alpha 90.000000
_cell_angle_beta 90.000000
_cell_angle_gamma 90.000000
_cell_volume 3756.623967
_symmetry_space_group_name_H-M "I B C A "
_symmetry_group_IT_number 73
_symmetry_cell_setting 'orthorhombic'
loop_
_space_group_symop_operation_xyz
x,y,z
-x,1/2-y,z
x,-y,1/2-z
1/2-x,y,-z
-x,-y,-z
x,1/2+y,-z
-x,y,1/2+z
1/2+x,-y,z
1/2+x,1/2+y,1/2+z
1/2-x,-y,1/2+z
1/2+x,1/2-y,-z
-x,1/2+y,1/2-z
1/2-x,1/2-y,1/2-z
1/2+x,y,1/2-z
1/2-x,1/2+y,z
x,1/2-y,1/2+z
loop_
_atom_site_type_symbol
_atom_site_label
_atom_site_fract_x
_atom_site_fract_y
_atom_site_fract_z
Si Si1 0.411875 0.654064 0.826473
Si Si2 0.116968 0.147998 0.274191
Si Si3 0.282120 0.216642 0.901192
Si Si4 0.187840 0.979636 0.589597
Si Si5 0.846939 0.000000 0.750000
Si Si6 0.169079 0.634376 0.371197
O O1 0.525573 0.677327 0.832256
O O2 0.324832 0.710083 0.849496
O O3 0.386035 0.583137 0.882737
O O4 0.397167 0.639564 0.718842
O O5 0.145459 0.181153 0.175310
O O6 0.218027 0.137982 0.331881
O O7 0.086245 0.067373 0.260239
O O8 0.332726 0.291711 0.922988
O O9 0.250000 0.186816 0.000000
O O10 0.250000 0.964195 0.500000
O O11 0.270575 0.982669 0.668875
O O12 0.148356 0.059877 0.582034
#
# Coordination Sequence:
#
# PCOD9530809 Si02
#       6
#    16  16  16  16   8  16
#     4  11  21  39  68  91 132 176 226 276 343 405
#     4  10  22  38  65  94 126 172 222 267 340 411
#     4  11  23  43  69  95 133 177 227 281 338 410
#     4  11  20  39  66  94 133 178 227 281 341 401
#     4  10  20  38  60  94 130 162 226 268 338 410
#     4  10  22  41  61  95 134 181 219 276 339 411
#
# _framework density 23.425287999999998
#
# number of rings (size 3 to 8) (size 9 to 14) (size 15 to 20)
#    0.000    1.455    5.455    3.273    2.545    2.909 
#    0.000   10.909    0.000    0.000    0.000    0.000 
#    0.000    0.000    0.000    0.000    0.000    0.000 
#
# Total GULP energy -245265.272081 kJ/mol
# GULP energy per Si atom -5574.210729 kJ/mol
# Density = 2.337197 g / cm^3
# Si number density = 23.425288 Si / 1000 Ang^3
#
#
#
# Elastic Constant Matrix: (Units=GPa)
#
#
# Indices 1 2 3 4 5 6 
#
# 1 95.2125 3.5058 11.9939 0.0000 0.0000 0.0000
# 2 3.5058 137.9708 -6.4424 -0.0001 0.0000 0.0000
# 3 11.9939 -6.4424 99.6731 -0.0001 0.0000 0.0000
# 4 0.0000 -0.0001 -0.0001 2.4446 0.0000 0.0000
# 5 0.0000 0.0000 0.0000 0.0000 13.9176 0.0000
# 6 0.0000 0.0000 0.0000 0.0000 0.0000 3.1751
#
#
#
# Elastic Compliance Matrix: (Units=1/GPa)
#
#
# Indices 1 2 3 4 5 6 
#
# 1 0.010680 -0.000332 -0.001307 0.000000 0.000000 0.000000
# 2 -0.000332 0.007280 0.000511 0.000000 0.000000 0.000000
# 3 -0.001307 0.000511 0.010223 0.000001 0.000000 0.000000
# 4 0.000000 0.000000 0.000001 0.409069 0.000000 0.000001
# 5 0.000000 0.000000 0.000000 0.000000 0.071852 0.000000
# 6 0.000000 0.000000 0.000000 0.000001 0.000000 0.314955
#
#
# Mechanical properties :
#
#
# Convention : Reuss Voigt Hill
#
# Bulk Modulus (GPa) = 38.57124 38.99676 38.78400
# Shear Modulus (GPa) = 5.98833 25.49405 15.74119
#
# Velocity S-wave (km/s) = 1.60059 3.30254 2.59506
# Velocity P-wave (km/s) = 4.46288 5.58800 5.05683
#
# Compressibility (1/GPa) = 0.02592605
#
# Stress axis : x y z
#
# Youngs Moduli (GPa) = 93.63599 137.35895 97.81841
#
# Poissons Ratio (x) = 0.04566 0.12781
# Poissons Ratio (y) = 0.03112 -0.04994
# Poissons Ratio (z) = 0.12234 -0.07013
#
# Static dielectric constant tensor:
#      x y z
#    x 1.861570 0.000000 0.000000 
#    y 0.000000 2.112680 0.000000 
#    z 0.000000 0.000000 1.888620 
# 
# From -- ./inp_files/16970.got.cif
#   From: 2010.05.17/outbox.cif.g08.bks.cpg/sg73_9_cif.got.tgz:16970.got - 2010.06.03 17:35:07.
