data_PCOD9530502
_publ_section_title
;
Structure prediction by ZEFSAII (Michael W. Deem and Ramdas Pophale) SiO2 
 PCOD9530502
Probable space group: I B C A 
;
_chemical_formula_sum "Si O2"
_cell_formula_units_Z 80
_cell_length_a 33.016529
_cell_length_b 4.936685
_cell_length_c 23.935601
_cell_angle_alpha 90.000000
_cell_angle_beta 90.000000
_cell_angle_gamma 90.000000
_cell_volume 3901.316348
_symmetry_space_group_name_H-M "I B C A "
_symmetry_group_IT_number 73
_symmetry_cell_setting 'orthorhombic'
loop_
_space_group_symop_operation_xyz
x,y,z
-x,1/2-y,z
x,-y,1/2-z
1/2-x,y,-z
-x,-y,-z
x,1/2+y,-z
-x,y,1/2+z
1/2+x,-y,z
1/2+x,1/2+y,1/2+z
1/2-x,-y,1/2+z
1/2+x,1/2-y,-z
-x,1/2+y,1/2-z
1/2-x,1/2-y,1/2-z
1/2+x,y,1/2-z
1/2-x,1/2+y,z
x,1/2-y,1/2+z
loop_
_atom_site_type_symbol
_atom_site_label
_atom_site_fract_x
_atom_site_fract_y
_atom_site_fract_z
Si Si1 0.599319 0.178041 0.534424
Si Si2 0.094690 0.373024 0.192083
Si Si3 0.777038 0.954819 0.815292
Si Si4 0.138401 0.644614 0.649789
Si Si5 0.473075 0.010493 0.100301
O O1 0.609172 0.371778 0.482603
O O2 0.621309 0.302722 0.587994
O O3 0.551830 0.153314 0.550229
O O4 0.078882 0.500000 0.250000
O O5 0.133280 0.565164 0.179134
O O6 0.060869 0.418206 0.144655
O O7 0.110359 0.067780 0.184055
O O8 0.760695 0.655299 0.825341
O O9 0.788120 0.000000 0.750000
O O10 0.816280 0.036294 0.849863
O O11 0.500000 0.250000 0.125757
O O12 0.500000 0.750000 0.085222
#
# Coordination Sequence:
#
# PCOD9530502 Si02
#       5
#    16  16  16  16  16
#     4  11  23  40  61  83 109 152 202 248 297 338
#     4  11  22  37  59  84 115 157 193 228 285 354
#     4  10  20  34  57  89 120 149 180 222 283 346
#     4  11  22  39  60  85 118 151 194 240 280 345
#     4  11  23  38  56  84 117 148 193 248 299 352
#
# _framework density 20.5059
#
# number of rings (size 3 to 8) (size 9 to 14) (size 15 to 20)
#    0.000    1.200    0.000    9.000    0.000    4.800 
#    0.000    0.000    0.000    3.600    0.000    0.000 
#    0.000    0.000    0.000    0.000    0.000    0.000 
#
# Total GULP energy -223345.824782 kJ/mol
# GULP energy per Si atom -5583.645620 kJ/mol
# Density = 2.045923 g / cm^3
# Si number density = 20.505900 Si / 1000 Ang^3
#
#
#
# Elastic Constant Matrix: (Units=GPa)
#
#
# Indices 1 2 3 4 5 6 
#
# 1 80.9104 21.4760 21.1474 0.0000 0.0000 0.0000
# 2 21.4760 84.1113 31.5883 0.0000 0.0000 0.0000
# 3 21.1474 31.5883 72.3961 0.0000 0.0000 0.0000
# 4 0.0000 0.0000 0.0000 29.0077 0.0000 0.0000
# 5 0.0000 0.0000 0.0000 0.0000 12.1405 0.0000
# 6 0.0000 0.0000 0.0000 0.0000 0.0000 33.7770
#
#
#
# Elastic Compliance Matrix: (Units=1/GPa)
#
#
# Indices 1 2 3 4 5 6 
#
# 1 0.013774 -0.002399 -0.002977 0.000000 0.000000 0.000000
# 2 -0.002399 0.014637 -0.005686 0.000000 0.000000 0.000000
# 3 -0.002977 -0.005686 0.017163 0.000000 0.000000 0.000000
# 4 0.000000 0.000000 0.000000 0.034474 0.000000 0.000000
# 5 0.000000 0.000000 0.000000 0.000000 0.082369 0.000000
# 6 0.000000 0.000000 0.000000 0.000000 0.000000 0.029606
#
#
# Mechanical properties :
#
#
# Convention : Reuss Voigt Hill
#
# Bulk Modulus (GPa) = 42.64150 42.87125 42.75638
# Shear Modulus (GPa) = 22.52635 25.86548 24.19591
#
# Velocity S-wave (km/s) = 3.31800 3.55543 3.43876
# Velocity P-wave (km/s) = 5.95976 6.14873 6.05498
#
# Compressibility (1/GPa) = 0.02345133
#
# Stress axis : x y z
#
# Youngs Moduli (GPa) = 72.59980 68.32095 58.26404
#
# Poissons Ratio (x) = 0.16390 0.17344
# Poissons Ratio (y) = 0.17417 0.33127
# Poissons Ratio (z) = 0.21611 0.38845
#
# Static dielectric constant tensor:
#      x y z
#    x 1.714470 0.000000 0.000000 
#    y 0.000000 1.732070 0.000000 
#    z 0.000000 0.000000 1.771090 
# 
# From -- ./inp_files/30598.got.cif
#   From: 2010.05.17/outbox.cif.g08.bks.cpg/sg73_16_cif.got.tgz:30598.got - 2010.06.03 17:35:07.
