data_PCOD9530578
_publ_section_title
;
Structure prediction by ZEFSAII (Michael W. Deem and Ramdas Pophale) SiO2 
 PCOD9530578
Probable space group: I B C A 
;
_chemical_formula_sum "Si O2"
_cell_formula_units_Z 96
_cell_length_a 22.389624
_cell_length_b 12.062480
_cell_length_c 17.359760
_cell_angle_alpha 90.000000
_cell_angle_beta 90.000000
_cell_angle_gamma 90.000000
_cell_volume 4688.426622
_symmetry_space_group_name_H-M "I B C A "
_symmetry_group_IT_number 73
_symmetry_cell_setting 'orthorhombic'
loop_
_space_group_symop_operation_xyz
x,y,z
-x,1/2-y,z
x,-y,1/2-z
1/2-x,y,-z
-x,-y,-z
x,1/2+y,-z
-x,y,1/2+z
1/2+x,-y,z
1/2+x,1/2+y,1/2+z
1/2-x,-y,1/2+z
1/2+x,1/2-y,-z
-x,1/2+y,1/2-z
1/2-x,1/2-y,1/2-z
1/2+x,y,1/2-z
1/2-x,1/2+y,z
x,1/2-y,1/2+z
loop_
_atom_site_type_symbol
_atom_site_label
_atom_site_fract_x
_atom_site_fract_y
_atom_site_fract_z
Si Si1 0.352639 0.241089 0.563102
Si Si2 0.347425 0.905857 0.676070
Si Si3 0.575304 0.038357 0.568942
Si Si4 0.443086 0.048341 0.603019
Si Si5 0.151093 0.834706 0.889021
Si Si6 0.276044 0.397349 0.162696
O O1 0.375362 0.365543 0.570881
O O2 0.406689 0.161953 0.592138
O O3 0.335950 0.200068 0.477600
O O4 0.297422 0.209966 0.616409
O O5 0.361682 0.783048 0.649183
O O6 0.310254 0.891424 0.755578
O O7 0.409023 0.975210 0.667039
O O8 0.302625 0.987494 0.627779
O O9 0.513316 0.069607 0.610150
O O10 0.563825 0.017633 0.477976
O O11 0.598636 0.923973 0.604904
O O12 0.205426 0.892463 0.843259
#
# Coordination Sequence:
#
# PCOD9530578 Si02
#       6
#    16  16  16  16  16  16
#     4  10  20  38  60  93 124 161 206 261 321 375
#     4  10  21  42  62  83 122 171 214 253 324 389
#     4  10  20  35  63  98 125 150 212 270 314 381
#     4   9  19  37  64  90 122 166 202 259 326 382
#     4  11  22  37  61  95 119 163 212 260 322 375
#     4  10  23  39  62  82 126 172 207 259 315 390
#
# _framework density 20.475953000000001
#
# number of rings (size 3 to 8) (size 9 to 14) (size 15 to 20)
#    0.000    2.000    1.667    1.500    2.333    0.667 
#    0.000    0.000   25.667    0.000    0.000    0.000 
#    0.000    0.000    0.000    0.000    0.000    0.000 
#
# Total GULP energy -267410.939137 kJ/mol
# GULP energy per Si atom -5571.061232 kJ/mol
# Density = 2.042935 g / cm^3
# Si number density = 20.475953 Si / 1000 Ang^3
#
#
#
# Elastic Constant Matrix: (Units=GPa)
#
#
# Indices 1 2 3 4 5 6 
#
# 1 57.8904 -4.0122 24.4605 0.0000 0.0000 0.0000
# 2 -4.0122 87.7663 15.9888 0.0000 0.0000 0.0000
# 3 24.4605 15.9888 60.3627 0.0000 0.0000 0.0000
# 4 0.0000 0.0000 0.0000 21.0771 0.0000 0.0000
# 5 0.0000 0.0000 0.0000 0.0000 26.9399 0.0000
# 6 0.0000 0.0000 0.0000 0.0000 0.0000 16.9389
#
#
#
# Elastic Compliance Matrix: (Units=1/GPa)
#
#
# Indices 1 2 3 4 5 6 
#
# 1 0.021431 0.002692 -0.009398 0.000000 0.000000 0.000000
# 2 0.002692 0.012310 -0.004351 0.000000 0.000000 0.000000
# 3 -0.009398 -0.004351 0.021527 0.000000 0.000000 0.000000
# 4 0.000000 0.000000 0.000000 0.047445 0.000000 0.000000
# 5 0.000000 0.000000 0.000000 0.000000 0.037120 0.000000
# 6 0.000000 0.000000 0.000000 0.000000 0.000000 0.059036
#
#
# Mechanical properties :
#
#
# Convention : Reuss Voigt Hill
#
# Bulk Modulus (GPa) = 30.16234 30.98820 30.57527
# Shear Modulus (GPa) = 21.54855 24.29665 22.92260
#
# Velocity S-wave (km/s) = 3.24757 3.44843 3.34951
# Velocity P-wave (km/s) = 5.36888 5.56978 5.47025
#
# Compressibility (1/GPa) = 0.03315393
#
# Stress axis : x y z
#
# Youngs Moduli (GPa) = 46.66069 81.23709 46.45279
#
# Poissons Ratio (x) = -0.21867 0.43654
# Poissons Ratio (y) = -0.12560 0.20213
# Poissons Ratio (z) = 0.43849 0.35349
#
# Static dielectric constant tensor:
#      x y z
#    x 1.740730 0.000000 0.000000 
#    y 0.000000 1.739330 0.000000 
#    z 0.000000 0.000000 1.796220 
# 
# From -- ./inp_files/23566.got.cif
#   From: 2010.05.17/outbox.cif.g08.bks.cpg/sg73_12_cif.got.tgz:23566.got - 2010.06.03 17:35:07.
