data_PCOD9530075
_publ_section_title
;
Structure prediction by ZEFSAII (Michael W. Deem and Ramdas Pophale) SiO2 
 PCOD9530075
Probable space group: I B C A 
;
_chemical_formula_sum "Si O2"
_cell_formula_units_Z 88
_cell_length_a 21.856934
_cell_length_b 29.043623
_cell_length_c 5.678342
_cell_angle_alpha 90.000000
_cell_angle_beta 90.000000
_cell_angle_gamma 90.000000
_cell_volume 3604.637344
_symmetry_space_group_name_H-M "I B C A "
_symmetry_group_IT_number 73
_symmetry_cell_setting 'orthorhombic'
loop_
_space_group_symop_operation_xyz
x,y,z
-x,1/2-y,z
x,-y,1/2-z
1/2-x,y,-z
-x,-y,-z
x,1/2+y,-z
-x,y,1/2+z
1/2+x,-y,z
1/2+x,1/2+y,1/2+z
1/2-x,-y,1/2+z
1/2+x,1/2-y,-z
-x,1/2+y,1/2-z
1/2-x,1/2-y,1/2-z
1/2+x,y,1/2-z
1/2-x,1/2+y,z
x,1/2-y,1/2+z
loop_
_atom_site_type_symbol
_atom_site_label
_atom_site_fract_x
_atom_site_fract_y
_atom_site_fract_z
Si Si1 0.318126 0.265065 0.452130
Si Si2 0.648053 0.635433 0.575659
Si Si3 0.653727 0.455369 0.144204
Si Si4 0.432136 0.000000 0.750000
Si Si5 0.434177 0.587636 0.468391
Si Si6 0.981342 0.825910 0.018227
O O1 0.250000 0.245520 0.500000
O O2 0.347063 0.256875 0.714127
O O3 0.312731 0.319059 0.389644
O O4 0.681101 0.592688 0.448347
O O5 0.616067 0.613167 0.804144
O O6 0.588595 0.658204 0.446675
O O7 0.689310 0.500000 0.250000
O O8 0.605394 0.435831 0.330702
O O9 0.613500 0.477297 0.937773
O O10 0.467609 0.043813 0.651578
O O11 0.482151 0.626484 0.527564
O O12 0.008952 0.803551 0.257014
#
# Coordination Sequence:
#
# PCOD9530075 Si02
#       6
#    16  16  16   8  16  16
#     4  10  24  45  70  98 117 137 190 260 320 380
#     4  10  20  34  59  84 117 159 195 245 312 349
#     4   9  16  30  49  81 119 161 212 243 279 340
#     4   8  16  28  44  70 118 164 210 252 274 312
#     4   9  17  30  48  78 116 163 206 246 276 340
#     4  10  19  31  48  78 114 159 198 237 275 343
#
# _framework density 24.412998000000002
#
# number of rings (size 3 to 8) (size 9 to 14) (size 15 to 20)
#    0.000    2.545    1.818    0.000    2.545    0.000 
#    1.636    3.636    0.000   13.091   14.182    0.000 
#    0.000    0.000    0.000    0.000    0.000    0.000 
#
# Total GULP energy -245083.394243 kJ/mol
# GULP energy per Si atom -5570.077142 kJ/mol
# Density = 2.435743 g / cm^3
# Si number density = 24.412998 Si / 1000 Ang^3
#
#
#
# Elastic Constant Matrix: (Units=GPa)
#
#
# Indices 1 2 3 4 5 6 
#
# 1 45.5548 15.1850 10.8657 0.0000 0.0000 0.0000
# 2 15.1850 168.6625 59.3825 0.0000 0.0000 0.0000
# 3 10.8657 59.3825 141.3157 0.0000 0.0000 0.0000
# 4 0.0000 0.0000 0.0000 0.8904 0.0000 0.0000
# 5 0.0000 0.0000 0.0000 0.0000 -0.0344 0.0000
# 6 0.0000 0.0000 0.0000 0.0000 0.0000 25.8246
#
#
#
# Elastic Compliance Matrix: (Units=1/GPa)
#
#
# Indices 1 2 3 4 5 6 
#
# 1 0.022761 -0.001682 -0.001043 0.000000 0.000000 0.000000
# 2 -0.001682 0.007083 -0.002847 0.000000 0.000000 0.000000
# 3 -0.001043 -0.002847 0.008353 0.000000 0.000000 0.000000
# 4 0.000000 0.000000 0.000000 1.123057 0.000000 0.000000
# 5 0.000000 0.000000 0.000000 0.000000-29.067119 0.000000
# 6 0.000000 0.000000 0.000000 0.000000 0.000000 0.038723
#
#
# Mechanical properties :
#
#
# Convention : Reuss Voigt Hill
#
# Bulk Modulus (GPa) = 36.96527 58.48882 47.72705
# Shear Modulus (GPa) = -0.17955 23.34277 11.58161
#
# Velocity S-wave (km/s) = -0.27149 3.09554 2.18044
# Velocity P-wave (km/s) = 3.88281 6.06519 5.09229
#
# Compressibility (1/GPa) = 0.02705242
#
# Stress axis : x y z
#
# Youngs Moduli (GPa) = 43.93462 141.18766 119.71890
#
# Poissons Ratio (x) = 0.23746 0.12491
# Poissons Ratio (y) = 0.07389 0.34083
# Poissons Ratio (z) = 0.04584 0.40195
#
# Static dielectric constant tensor:
#      x y z
#    x 1.939990 0.000000 0.000000 
#    y 0.000000 1.909670 0.000000 
#    z 0.000000 0.000000 2.158370 
# 
# From -- ./inp_files/2293.got.cif
#   From: 2010.05.17/outbox.cif.g08.bks.cpg/sg73_2_cif.got.tgz:2293.got - 2010.06.03 17:35:07.
