data_PCOD9530652
_publ_section_title
;
Structure prediction by ZEFSAII (Michael W. Deem and Ramdas Pophale) SiO2 
 PCOD9530652
Probable space group: I B C A 
;
_chemical_formula_sum "Si O2"
_cell_formula_units_Z 120
_cell_length_a 12.022356
_cell_length_b 19.126530
_cell_length_c 23.965973
_cell_angle_alpha 90.000000
_cell_angle_beta 90.000000
_cell_angle_gamma 90.000000
_cell_volume 5510.878494
_symmetry_space_group_name_H-M "I B C A "
_symmetry_group_IT_number 73
_symmetry_cell_setting 'orthorhombic'
loop_
_space_group_symop_operation_xyz
x,y,z
-x,1/2-y,z
x,-y,1/2-z
1/2-x,y,-z
-x,-y,-z
x,1/2+y,-z
-x,y,1/2+z
1/2+x,-y,z
1/2+x,1/2+y,1/2+z
1/2-x,-y,1/2+z
1/2+x,1/2-y,-z
-x,1/2+y,1/2-z
1/2-x,1/2-y,1/2-z
1/2+x,y,1/2-z
1/2-x,1/2+y,z
x,1/2-y,1/2+z
loop_
_atom_site_type_symbol
_atom_site_label
_atom_site_fract_x
_atom_site_fract_y
_atom_site_fract_z
Si Si1 0.738743 0.105626 0.217764
Si Si2 0.558871 0.679120 0.207022
Si Si3 0.685844 0.111457 0.440823
Si Si4 0.034870 0.328530 0.080703
Si Si5 0.261810 0.734327 0.434283
Si Si6 0.785187 0.961303 0.163418
Si Si7 0.500000 0.750000 0.385122
Si Si8 0.491616 0.615718 0.816635
O O1 0.807325 0.177075 0.207720
O O2 0.736284 0.084512 0.283723
O O3 0.622053 0.110410 0.186651
O O4 0.789910 0.039829 0.185376
O O5 0.500000 0.750000 0.226223
O O6 0.511216 0.664406 0.146441
O O7 0.536838 0.618810 0.251241
O O8 0.750000 0.100688 0.500000
O O9 0.551905 0.119749 0.449200
O O10 0.724002 0.187524 0.415444
O O11 0.718768 0.055721 0.393163
O O12 0.169448 0.325044 0.079322
O O13 0.000000 0.250000 0.062163
O O14 0.250000 0.739467 0.500000
O O15 0.390839 0.724307 0.418561
O O16 0.913860 0.940449 0.154918
O O17 0.540328 0.687481 0.346181
#
# Coordination Sequence:
#
# PCOD9530652 Si02
#       8
#    16  16  16  16  16  16   8  16
#     4  10  23  38  63  88 124 166 209 256 310 382
#     4  10  20  37  58  92 127 160 195 250 316 380
#     4  10  20  36  61  87 119 165 213 261 308 370
#     4   9  19  34  54  86 123 158 208 252 307 371
#     4  10  22  34  57  87 123 170 208 258 305 369
#     4  10  22  41  60  92 120 168 219 252 310 375
#     4  12  22  38  60  92 130 160 202 266 318 366
#     4  11  22  38  61  91 128 162 201 262 311 371
#
# _framework density 21.775112
#
# number of rings (size 3 to 8) (size 9 to 14) (size 15 to 20)
#    0.000    1.867    2.000    1.600    4.667    5.867 
#    0.000    0.000    0.000    6.400    0.000    0.000 
#    0.000    0.000    0.000    0.000    0.000    0.000 
#
# Total GULP energy -334228.652024 kJ/mol
# GULP energy per Si atom -5570.477534 kJ/mol
# Density = 2.172555 g / cm^3
# Si number density = 21.775112 Si / 1000 Ang^3
#
#
#
# Elastic Constant Matrix: (Units=GPa)
#
#
# Indices 1 2 3 4 5 6 
#
# 1 156.0916 26.6967 35.1632 0.0000 0.0000 0.0000
# 2 26.6967 31.3943 26.1837 0.0000 0.0000 0.0000
# 3 35.1632 26.1837 91.4820 0.0000 0.0000 0.0000
# 4 0.0000 0.0000 0.0000 17.4573 0.0000 0.0000
# 5 0.0000 0.0000 0.0000 0.0000 6.7017 0.0000
# 6 0.0000 0.0000 0.0000 0.0000 0.0000 9.9492
#
#
#
# Elastic Compliance Matrix: (Units=1/GPa)
#
#
# Indices 1 2 3 4 5 6 
#
# 1 0.007634 -0.005312 -0.001414 0.000000 0.000000 0.000000
# 2 -0.005312 0.045538 -0.010992 0.000000 0.000000 0.000000
# 3 -0.001414 -0.010992 0.014621 0.000000 0.000000 0.000000
# 4 0.000000 0.000000 0.000000 0.057283 0.000000 0.000000
# 5 0.000000 0.000000 0.000000 0.000000 0.149217 0.000000
# 6 0.000000 0.000000 0.000000 0.000000 0.000000 0.100511
#
#
# Mechanical properties :
#
#
# Convention : Reuss Voigt Hill
#
# Bulk Modulus (GPa) = 30.90579 50.56168 40.73373
# Shear Modulus (GPa) = 11.87583 19.54991 15.71287
#
# Velocity S-wave (km/s) = 2.33788 2.99960 2.68917
# Velocity P-wave (km/s) = 4.63806 5.93861 5.32817
#
# Compressibility (1/GPa) = 0.03235640
#
# Stress axis : x y z
#
# Youngs Moduli (GPa) = 131.00110 21.95974 68.39693
#
# Poissons Ratio (x) = 0.11666 0.09669
# Poissons Ratio (y) = 0.69592 0.75181
# Poissons Ratio (z) = 0.18519 0.24138
#
# Static dielectric constant tensor:
#      x y z
#    x 2.092250 0.000000 0.000000 
#    y 0.000000 1.806320 0.000000 
#    z 0.000000 0.000000 1.792800 
# 
# From -- ./inp_files/29079.got.cif
#   From: 2010.05.17/outbox.cif.g08.bks.cpg/sg73_15_cif.got.tgz:29079.got - 2010.06.03 17:35:07.
