data_PCOD9530207
_publ_section_title
;
Structure prediction by ZEFSAII (Michael W. Deem and Ramdas Pophale) SiO2 
 PCOD9530207
Probable space group: I B C A 
;
_chemical_formula_sum "Si O2"
_cell_formula_units_Z 88
_cell_length_a 17.211129
_cell_length_b 15.285128
_cell_length_c 16.931628
_cell_angle_alpha 90.000000
_cell_angle_beta 90.000000
_cell_angle_gamma 90.000000
_cell_volume 4454.276350
_symmetry_space_group_name_H-M "I B C A "
_symmetry_group_IT_number 73
_symmetry_cell_setting 'orthorhombic'
loop_
_space_group_symop_operation_xyz
x,y,z
-x,1/2-y,z
x,-y,1/2-z
1/2-x,y,-z
-x,-y,-z
x,1/2+y,-z
-x,y,1/2+z
1/2+x,-y,z
1/2+x,1/2+y,1/2+z
1/2-x,-y,1/2+z
1/2+x,1/2-y,-z
-x,1/2+y,1/2-z
1/2-x,1/2-y,1/2-z
1/2+x,y,1/2-z
1/2-x,1/2+y,z
x,1/2-y,1/2+z
loop_
_atom_site_type_symbol
_atom_site_label
_atom_site_fract_x
_atom_site_fract_y
_atom_site_fract_z
Si Si1 0.000000 0.250000 0.513499
Si Si2 0.719522 0.081223 0.636352
Si Si3 0.087523 0.834617 0.209490
Si Si4 0.946750 0.851230 0.126173
Si Si5 0.351718 0.283212 0.378803
Si Si6 0.757088 0.612637 0.823913
O O1 0.006311 0.331997 0.453868
O O2 0.080014 0.255553 0.561702
O O3 0.633256 0.102478 0.607756
O O4 0.788358 0.141207 0.599864
O O5 0.721229 0.103185 0.730908
O O6 0.728236 0.977393 0.631018
O O7 0.078735 0.740224 0.167533
O O8 0.103039 0.818394 0.301308
O O9 0.164945 0.875244 0.174940
O O10 0.009799 0.888027 0.188065
O O11 0.301648 0.197286 0.356351
#
# Coordination Sequence:
#
# PCOD9530207 Si02
#       6
#     8  16  16  16  16  16
#     4  10  24  34  60  84 114 164 198 234 296 350
#     4  10  20  36  61  87 122 145 196 249 300 349
#     4   9  17  34  63  83 112 144 195 244 301 339
#     4  10  19  38  58  84 115 158 191 240 299 352
#     4  11  19  38  60  86 117 149 199 246 287 359
#     4  10  19  35  60  95 107 151 193 246 299 355
#
# _framework density 19.756295000000001
#
# number of rings (size 3 to 8) (size 9 to 14) (size 15 to 20)
#    0.000    2.182    3.636    2.182    0.000    0.727 
#    3.273    2.727   12.000    0.000    0.000    0.000 
#    0.000    0.000    0.000    0.000    0.000    0.000 
#
# Total GULP energy -245138.585816 kJ/mol
# GULP energy per Si atom -5571.331496 kJ/mol
# Density = 1.971133 g / cm^3
# Si number density = 19.756295 Si / 1000 Ang^3
#
#
#
# Elastic Constant Matrix: (Units=GPa)
#
#
# Indices 1 2 3 4 5 6 
#
# 1 161.8273 37.1734 54.2856 0.0000 0.0000 0.0000
# 2 37.1734 52.5356 14.6086 0.0000 0.0000 0.0000
# 3 54.2856 14.6086 41.7748 0.0000 0.0000 0.0000
# 4 0.0000 0.0000 0.0000 11.8002 0.0000 0.0000
# 5 0.0000 0.0000 0.0000 0.0000 86.8125 0.0000
# 6 0.0000 0.0000 0.0000 0.0000 0.0000 17.1495
#
#
#
# Elastic Compliance Matrix: (Units=1/GPa)
#
#
# Indices 1 2 3 4 5 6 
#
# 1 0.011861 -0.004549 -0.013823 0.000000 0.000000 0.000000
# 2 -0.004549 0.022830 -0.002072 0.000000 0.000000 0.000000
# 3 -0.013823 -0.002072 0.042625 0.000000 0.000000 0.000000
# 4 0.000000 0.000000 0.000000 0.084745 0.000000 0.000000
# 5 0.000000 0.000000 0.000000 0.000000 0.011519 0.000000
# 6 0.000000 0.000000 0.000000 0.000000 0.000000 0.058311
#
#
# Mechanical properties :
#
#
# Convention : Reuss Voigt Hill
#
# Bulk Modulus (GPa) = 27.45127 52.03030 39.74078
# Shear Modulus (GPa) = 17.54875 33.15712 25.35294
#
# Velocity S-wave (km/s) = 2.98360 4.10116 3.58618
# Velocity P-wave (km/s) = 5.07881 6.98708 6.10793
#
# Compressibility (1/GPa) = 0.03642819
#
# Stress axis : x y z
#
# Youngs Moduli (GPa) = 84.30786 43.80242 23.46056
#
# Poissons Ratio (x) = 0.19927 0.32429
# Poissons Ratio (y) = 0.38353 0.04861
# Poissons Ratio (z) = 1.16536 0.09076
#
# Static dielectric constant tensor:
#      x y z
#    x 1.760330 0.000000 0.000000 
#    y 0.000000 1.747970 0.000000 
#    z 0.000000 0.000000 1.733950 
# 
# From -- ./inp_files/17936.got.cif
#   From: 2010.05.17/outbox.cif.g08.bks.cpg/sg73_9_cif.got.tgz:17936.got - 2010.06.03 17:35:07.
