data_PCOD9530636
_publ_section_title
;
Structure prediction by ZEFSAII (Michael W. Deem and Ramdas Pophale) SiO2 
 PCOD9530636
Probable space group: I B C A 
;
_chemical_formula_sum "Si O2"
_cell_formula_units_Z 80
_cell_length_a 15.676428
_cell_length_b 13.587490
_cell_length_c 19.254332
_cell_angle_alpha 90.000000
_cell_angle_beta 90.000000
_cell_angle_gamma 90.000000
_cell_volume 4101.236423
_symmetry_space_group_name_H-M "I B C A "
_symmetry_group_IT_number 73
_symmetry_cell_setting 'orthorhombic'
loop_
_space_group_symop_operation_xyz
x,y,z
-x,1/2-y,z
x,-y,1/2-z
1/2-x,y,-z
-x,-y,-z
x,1/2+y,-z
-x,y,1/2+z
1/2+x,-y,z
1/2+x,1/2+y,1/2+z
1/2-x,-y,1/2+z
1/2+x,1/2-y,-z
-x,1/2+y,1/2-z
1/2-x,1/2-y,1/2-z
1/2+x,y,1/2-z
1/2-x,1/2+y,z
x,1/2-y,1/2+z
loop_
_atom_site_type_symbol
_atom_site_label
_atom_site_fract_x
_atom_site_fract_y
_atom_site_fract_z
Si Si1 0.799771 0.999825 0.134748
Si Si2 0.750000 0.884160 0.500000
Si Si3 0.262532 0.135154 0.751247
Si Si4 0.990714 0.511157 0.893145
Si Si5 0.582704 0.000000 0.250000
Si Si6 0.558029 0.343136 0.509387
O O1 0.755174 0.046536 0.067935
O O2 0.799520 0.083296 0.195127
O O3 0.754624 0.908814 0.172313
O O4 0.894819 0.970995 0.114280
O O5 0.659973 0.825621 0.497976
O O6 0.250000 0.250000 0.750000
O O7 0.355208 0.091780 0.732084
O O8 0.028659 0.526159 0.817317
O O9 0.045217 0.431388 0.935490
O O10 0.979270 0.610262 0.938013
O O11 0.500000 0.250000 0.528173
#
# Coordination Sequence:
#
# PCOD9530636 Si02
#       6
#    16   8  16  16   8  16
#     4   9  20  38  58  82 117 152 192 241 291 347
#     4  10  20  40  62  84 120 158 192 244 300 350
#     4  10  21  37  57  84 114 151 195 236 292 352
#     4  10  21  39  59  83 116 152 193 241 291 346
#     4  10  20  36  60  82 114 150 190 242 290 346
#     4  10  22  40  61  88 119 154 199 243 294 356
#
# _framework density 19.506314
#
# number of rings (size 3 to 8) (size 9 to 14) (size 15 to 20)
#    0.000    2.400    0.000    3.600    0.000    6.400 
#    0.000   15.000    0.000    0.000    0.000    0.000 
#    0.000    0.000    0.000    0.000    0.000    0.000 
#
# Total GULP energy -223090.102146 kJ/mol
# GULP energy per Si atom -5577.252554 kJ/mol
# Density = 1.946192 g / cm^3
# Si number density = 19.506314 Si / 1000 Ang^3
#
#
#
# Elastic Constant Matrix: (Units=GPa)
#
#
# Indices 1 2 3 4 5 6 
#
# 1 106.9648 25.8475 12.4457 0.0000 0.0000 0.0000
# 2 25.8475 92.8064 3.3246 0.0000 0.0000 0.0000
# 3 12.4457 3.3246 83.7224 0.0000 0.0000 0.0000
# 4 0.0000 0.0000 0.0000 4.8800 0.0000 0.0000
# 5 0.0000 0.0000 0.0000 0.0000 34.6489 0.0000
# 6 0.0000 0.0000 0.0000 0.0000 0.0000 16.1339
#
#
#
# Elastic Compliance Matrix: (Units=1/GPa)
#
#
# Indices 1 2 3 4 5 6 
#
# 1 0.010186 -0.002786 -0.001403 0.000000 0.000000 0.000000
# 2 -0.002786 0.011553 -0.000045 0.000000 0.000000 0.000000
# 3 -0.001403 -0.000045 0.012155 0.000000 0.000000 0.000000
# 4 0.000000 0.000000 0.000000 0.204917 0.000000 0.000000
# 5 0.000000 0.000000 0.000000 0.000000 0.028861 0.000000
# 6 0.000000 0.000000 0.000000 0.000000 0.000000 0.061981
#
#
# Mechanical properties :
#
#
# Convention : Reuss Voigt Hill
#
# Bulk Modulus (GPa) = 39.33300 40.74767 40.04033
# Shear Modulus (GPa) = 14.42604 27.25762 20.84183
#
# Velocity S-wave (km/s) = 2.72243 3.74220 3.27229
# Velocity P-wave (km/s) = 5.48545 6.29340 5.90327
#
# Compressibility (1/GPa) = 0.02542395
#
# Stress axis : x y z
#
# Youngs Moduli (GPa) = 98.17870 86.55928 82.27316
#
# Poissons Ratio (x) = 0.24120 0.11547
# Poissons Ratio (y) = 0.27357 0.00366
# Poissons Ratio (z) = 0.13779 0.00386
#
# Static dielectric constant tensor:
#      x y z
#    x 1.723090 0.000000 0.000000 
#    y 0.000000 1.654670 0.000000 
#    z 0.000000 0.000000 1.674250 
# 
# From -- ./inp_files/25904.got.cif
#   From: 2010.05.17/outbox.cif.g08.bks.cpg/sg73_13_cif.got.tgz:25904.got - 2010.06.03 17:35:07.
