data_PCOD9530934
_publ_section_title
;
Structure prediction by ZEFSAII (Michael W. Deem and Ramdas Pophale) SiO2 
 PCOD9530934
Probable space group: I B C A 
;
_chemical_formula_sum "Si O2"
_cell_formula_units_Z 112
_cell_length_a 10.642515
_cell_length_b 24.751733
_cell_length_c 21.331483
_cell_angle_alpha 90.000000
_cell_angle_beta 90.000000
_cell_angle_gamma 90.000000
_cell_volume 5619.153965
_symmetry_space_group_name_H-M "I B C A "
_symmetry_group_IT_number 73
_symmetry_cell_setting 'orthorhombic'
loop_
_space_group_symop_operation_xyz
x,y,z
-x,1/2-y,z
x,-y,1/2-z
1/2-x,y,-z
-x,-y,-z
x,1/2+y,-z
-x,y,1/2+z
1/2+x,-y,z
1/2+x,1/2+y,1/2+z
1/2-x,-y,1/2+z
1/2+x,1/2-y,-z
-x,1/2+y,1/2-z
1/2-x,1/2-y,1/2-z
1/2+x,y,1/2-z
1/2-x,1/2+y,z
x,1/2-y,1/2+z
loop_
_atom_site_type_symbol
_atom_site_label
_atom_site_fract_x
_atom_site_fract_y
_atom_site_fract_z
Si Si1 0.639543 0.658329 0.071800
Si Si2 0.069667 0.407252 0.857633
Si Si3 0.666669 0.534667 0.313067
Si Si4 0.426353 0.694139 0.436543
Si Si5 0.783414 0.631736 0.253118
Si Si6 0.461650 0.687919 0.706618
Si Si7 0.741734 0.536372 0.068556
O O1 0.774428 0.690326 0.075071
O O2 0.566106 0.670734 0.135202
O O3 0.669978 0.594413 0.063932
O O4 0.566494 0.677843 0.009746
O O5 0.022392 0.352433 0.890128
O O6 0.191272 0.394609 0.815024
O O7 0.117840 0.446574 0.911679
O O8 0.969542 0.438146 0.816384
O O9 0.677449 0.500000 0.250000
O O10 0.758891 0.585203 0.303553
O O11 0.689712 0.500971 0.376012
O O12 0.500000 0.750000 0.425587
O O13 0.663266 0.670816 0.245441
O O14 0.915354 0.658668 0.267749
O O15 0.500000 0.750000 0.709807
O O16 0.750000 0.510745 0.000000
#
# Coordination Sequence:
#
# PCOD9530934 Si02
#       7
#    16  16  16  16  16  16  16
#     4  10  20  43  65  99 133 173 228 283 346 419
#     4  11  23  42  66  98 136 176 234 285 337 421
#     4  12  26  42  70 102 136 187 234 287 357 416
#     4  10  20  39  71  94 133 181 221 277 350 415
#     4  12  25  46  66 102 140 176 234 289 345 420
#     4  12  25  44  71  98 135 184 228 286 351 417
#     4  11  22  44  70  96 139 187 231 287 356 410
#
# _framework density 19.931826000000001
#
# number of rings (size 3 to 8) (size 9 to 14) (size 15 to 20)
#    0.000    0.857    8.571    0.857    2.000    2.286 
#    2.571    0.000    0.000    0.000    0.000    0.000 
#    0.000    0.000    0.000    0.000    0.000    0.000 
#
# Total GULP energy -312550.011265 kJ/mol
# GULP energy per Si atom -5581.250201 kJ/mol
# Density = 1.988646 g / cm^3
# Si number density = 19.931826 Si / 1000 Ang^3
#
#
#
# Elastic Constant Matrix: (Units=GPa)
#
#
# Indices 1 2 3 4 5 6 
#
# 1 74.8718 25.5322 36.2282 0.0000 0.0000 0.0000
# 2 25.5322 78.0163 43.4227 0.0000 0.0000 0.0000
# 3 36.2282 43.4227 92.7589 0.0000 0.0000 0.0000
# 4 0.0000 0.0000 0.0000 -56.3362 0.0000 0.0000
# 5 0.0000 0.0000 0.0000 0.0000 27.8379 0.0000
# 6 0.0000 0.0000 0.0000 0.0000 0.0000 13.1826
#
#
#
# Elastic Compliance Matrix: (Units=1/GPa)
#
#
# Indices 1 2 3 4 5 6 
#
# 1 0.016821 -0.002500 -0.005400 0.000000 0.000000 0.000000
# 2 -0.002500 0.017706 -0.007312 0.000000 0.000000 0.000000
# 3 -0.005400 -0.007312 0.016313 0.000000 0.000000 0.000000
# 4 0.000000 0.000000 0.000000 -0.017751 0.000000 0.000000
# 5 0.000000 0.000000 0.000000 0.000000 0.035922 0.000000
# 6 0.000000 0.000000 0.000000 0.000000 0.000000 0.075858
#
#
# Mechanical properties :
#
#
# Convention : Reuss Voigt Hill
#
# Bulk Modulus (GPa) = 48.97984 50.66814 49.82399
# Shear Modulus (GPa) = 27.45781 6.30112 16.87947
#
# Velocity S-wave (km/s) = 3.71561 1.77994 2.91324
# Velocity P-wave (km/s) = 6.56009 5.44979 6.03054
#
# Compressibility (1/GPa) = 0.02041656
#
# Stress axis : x y z
#
# Youngs Moduli (GPa) = 59.44842 56.47871 61.30247
#
# Poissons Ratio (x) = 0.14118 0.33101
# Poissons Ratio (y) = 0.14860 0.44826
# Poissons Ratio (z) = 0.32100 0.41298
#
# Static dielectric constant tensor:
#      x y z
#    x 1.713590 0.000000 0.000000 
#    y 0.000000 1.740350 0.000000 
#    z 0.000000 0.000000 1.747570 
# 
# From -- ./inp_files/25563.got.cif
#   From: 2010.05.17/outbox.cif.g08.bks.cpg/sg73_13_cif.got.tgz:25563.got - 2010.06.03 17:35:07.
