data_PCOD9530077
_publ_section_title
;
Structure prediction by ZEFSAII (Michael W. Deem and Ramdas Pophale) SiO2 
 PCOD9530077
Probable space group: I B C A 
;
_chemical_formula_sum "Si O2"
_cell_formula_units_Z 128
_cell_length_a 24.354338
_cell_length_b 25.473149
_cell_length_c 11.600401
_cell_angle_alpha 90.000000
_cell_angle_beta 90.000000
_cell_angle_gamma 90.000000
_cell_volume 7196.676269
_symmetry_space_group_name_H-M "I B C A "
_symmetry_group_IT_number 73
_symmetry_cell_setting 'orthorhombic'
loop_
_space_group_symop_operation_xyz
x,y,z
-x,1/2-y,z
x,-y,1/2-z
1/2-x,y,-z
-x,-y,-z
x,1/2+y,-z
-x,y,1/2+z
1/2+x,-y,z
1/2+x,1/2+y,1/2+z
1/2-x,-y,1/2+z
1/2+x,1/2-y,-z
-x,1/2+y,1/2-z
1/2-x,1/2-y,1/2-z
1/2+x,y,1/2-z
1/2-x,1/2+y,z
x,1/2-y,1/2+z
loop_
_atom_site_type_symbol
_atom_site_label
_atom_site_fract_x
_atom_site_fract_y
_atom_site_fract_z
Si Si1 0.384747 0.806031 0.086497
Si Si2 0.867346 0.695387 0.524645
Si Si3 0.383534 0.941824 0.700685
Si Si4 0.290271 0.200328 0.242621
Si Si5 0.991864 0.189285 0.211029
Si Si6 0.784565 0.122876 0.612322
Si Si7 0.942167 0.371463 0.392043
Si Si8 0.544620 0.112342 0.478745
O O1 0.324242 0.808156 0.140308
O O2 0.427113 0.817607 0.190721
O O3 0.391828 0.747745 0.032714
O O4 0.401981 0.846475 0.986643
O O5 0.833369 0.710007 0.638447
O O6 0.824827 0.669057 0.434266
O O7 0.911826 0.649381 0.545144
O O8 0.323492 0.921501 0.664274
O O9 0.407930 0.903511 0.798829
O O10 0.422547 0.932576 0.589143
O O11 0.383608 0.000000 0.750000
O O12 0.250000 0.250000 0.250000
O O13 0.255701 0.149433 0.204448
O O14 0.000000 0.250000 0.187201
O O15 0.022830 0.174380 0.328430
O O16 0.019900 0.152051 0.116531
O O17 0.750000 0.105514 0.500000
O O18 0.991859 0.405031 0.448238
#
# Coordination Sequence:
#
# PCOD9530077 Si02
#       8
#    16  16  16  16  16  16  16  16
#     4  11  22  32  51  81 116 155 188 223 271 331
#     4  10  19  32  53  78 112 156 184 213 273 341
#     4  10  22  42  64  81 107 147 199 253 289 327
#     4  11  22  33  51  77 114 157 190 224 275 333
#     4  10  19  31  50  79 118 154 180 212 267 339
#     4   9  20  40  56  79 109 146 194 230 284 342
#     4  10  23  34  54  86 117 149 185 229 282 347
#     4   9  19  36  54  83 115 144 184 226 281 343
#
# _framework density 17.785989000000001
#
# number of rings (size 3 to 8) (size 9 to 14) (size 15 to 20)
#    0.000    2.000    2.500    0.750    5.250    0.500 
#    0.000    1.250    0.000    0.000    0.000    2.625 
#    0.000    0.000    0.000    0.000    0.000    0.000 
#
# Total GULP energy -356802.116313 kJ/mol
# GULP energy per Si atom -5575.033067 kJ/mol
# Density = 1.774551 g / cm^3
# Si number density = 17.785989 Si / 1000 Ang^3
#
#
#
# Elastic Constant Matrix: (Units=GPa)
#
#
# Indices 1 2 3 4 5 6 
#
# 1 108.6449 40.1112 42.3444 0.0000 0.0000 0.0000
# 2 40.1112 67.1031 20.5589 0.0000 0.0000 0.0000
# 3 42.3444 20.5589 54.0492 0.0000 0.0000 0.0000
# 4 0.0000 0.0000 0.0000 13.2913 0.0000 0.0000
# 5 0.0000 0.0000 0.0000 0.0000 38.0715 0.0000
# 6 0.0000 0.0000 0.0000 0.0000 0.0000 15.3230
#
#
#
# Elastic Compliance Matrix: (Units=1/GPa)
#
#
# Indices 1 2 3 4 5 6 
#
# 1 0.015209 -0.006158 -0.009573 0.000000 0.000000 0.000000
# 2 -0.006158 0.019362 -0.002540 0.000000 0.000000 0.000000
# 3 -0.009573 -0.002540 0.026968 0.000000 0.000000 0.000000
# 4 0.000000 0.000000 0.000000 0.075237 0.000000 0.000000
# 5 0.000000 0.000000 0.000000 0.000000 0.026266 0.000000
# 6 0.000000 0.000000 0.000000 0.000000 0.000000 0.065261
#
#
# Mechanical properties :
#
#
# Convention : Reuss Voigt Hill
#
# Bulk Modulus (GPa) = 40.00656 48.42515 44.21586
# Shear Modulus (GPa) = 18.30310 21.78933 20.04622
#
# Velocity S-wave (km/s) = 3.21140 3.50392 3.36084
# Velocity P-wave (km/s) = 6.02436 6.60724 6.32252
#
# Compressibility (1/GPa) = 0.02499590
#
# Stress axis : x y z
#
# Youngs Moduli (GPa) = 65.75086 51.64806 37.08157
#
# Poissons Ratio (x) = 0.31806 0.35498
# Poissons Ratio (y) = 0.40491 0.09419
# Poissons Ratio (z) = 0.62942 0.13119
#
# Static dielectric constant tensor:
#      x y z
#    x 1.649060 0.000000 0.000000 
#    y 0.000000 1.560690 0.000000 
#    z 0.000000 0.000000 1.641650 
# 
# From -- ./inp_files/13945.got.cif
#   From: 2010.05.17/outbox.cif.g08.bks.cpg/sg73_7_cif.got.tgz:13945.got - 2010.06.03 17:35:07.
