data_PCOD9530802
_publ_section_title
;
Structure prediction by ZEFSAII (Michael W. Deem and Ramdas Pophale) SiO2 
 PCOD9530802
Probable space group: I B C A 
;
_chemical_formula_sum "Si O2"
_cell_formula_units_Z 88
_cell_length_a 13.226374
_cell_length_b 18.327242
_cell_length_c 17.920756
_cell_angle_alpha 90.000000
_cell_angle_beta 90.000000
_cell_angle_gamma 90.000000
_cell_volume 4344.044248
_symmetry_space_group_name_H-M "I B C A "
_symmetry_group_IT_number 73
_symmetry_cell_setting 'orthorhombic'
loop_
_space_group_symop_operation_xyz
x,y,z
-x,1/2-y,z
x,-y,1/2-z
1/2-x,y,-z
-x,-y,-z
x,1/2+y,-z
-x,y,1/2+z
1/2+x,-y,z
1/2+x,1/2+y,1/2+z
1/2-x,-y,1/2+z
1/2+x,1/2-y,-z
-x,1/2+y,1/2-z
1/2-x,1/2-y,1/2-z
1/2+x,y,1/2-z
1/2-x,1/2+y,z
x,1/2-y,1/2+z
loop_
_atom_site_type_symbol
_atom_site_label
_atom_site_fract_x
_atom_site_fract_y
_atom_site_fract_z
Si Si1 0.107935 0.000000 0.750000
Si Si2 0.000000 0.750000 0.237743
Si Si3 0.458703 0.036347 0.883545
Si Si4 0.355034 0.317168 0.361105
Si Si5 0.860422 0.863877 0.156043
Si Si6 0.482563 0.399836 0.040960
Si Si7 0.500000 0.750000 0.015136
O O1 0.163206 0.930690 0.712708
O O2 0.035996 0.969829 0.815624
O O3 0.087964 0.782290 0.290744
O O4 0.049943 0.684832 0.191006
O O5 0.376539 0.096312 0.864205
O O6 0.421717 0.955632 0.906672
O O7 0.513489 0.067239 0.957919
O O8 0.235050 0.312390 0.358163
O O9 0.411813 0.282363 0.432293
O O10 0.906279 0.897239 0.079686
O O11 0.453672 0.315791 0.032554
#
# Coordination Sequence:
#
# PCOD9530802 Si02
#       7
#     8   8  16  16  16  16   8
#     4  10  20  38  60  88 128 166 210 260 314 378
#     4  11  21  40  60  90 130 162 202 268 322 368
#     4   9  18  36  60  85 117 166 200 253 316 365
#     4  10  21  37  63  90 125 163 208 258 320 379
#     4  11  22  37  63  93 124 166 216 257 311 385
#     4   9  19  36  60  83 121 162 205 253 312 373
#     4   9  19  36  60  90 126 168 198 262 324 372
#
# _framework density 20.257619999999999
#
# number of rings (size 3 to 8) (size 9 to 14) (size 15 to 20)
#    0.000    2.182    1.818    1.091    0.000    3.636 
#    0.000    0.000    0.000   19.636    0.000    0.000 
#    0.000    0.000    0.000    0.000    0.000    0.000 
#
# Total GULP energy -245270.715533 kJ/mol
# GULP energy per Si atom -5574.334444 kJ/mol
# Density = 2.021151 g / cm^3
# Si number density = 20.257620 Si / 1000 Ang^3
#
#
#
# Elastic Constant Matrix: (Units=GPa)
#
#
# Indices 1 2 3 4 5 6 
#
# 1 48.9700 13.1295 27.3746 0.0000 0.0000 0.0000
# 2 13.1295 122.1088 31.6332 0.0000 0.0000 0.0000
# 3 27.3746 31.6332 100.3456 0.0000 0.0000 0.0000
# 4 0.0000 0.0000 0.0000 22.3146 0.0000 0.0000
# 5 0.0000 0.0000 0.0000 0.0000 4.1797 0.0000
# 6 0.0000 0.0000 0.0000 0.0000 0.0000 24.2645
#
#
#
# Elastic Compliance Matrix: (Units=1/GPa)
#
#
# Indices 1 2 3 4 5 6 
#
# 1 0.024200 -0.000971 -0.006296 0.000000 0.000000 0.000000
# 2 -0.000971 0.008957 -0.002559 0.000000 0.000000 0.000000
# 3 -0.006296 -0.002559 0.012490 0.000000 0.000000 0.000000
# 4 0.000000 0.000000 0.000000 0.044814 0.000000 0.000000
# 5 0.000000 0.000000 0.000000 0.000000 0.239253 0.000000
# 6 0.000000 0.000000 0.000000 0.000000 0.000000 0.041212
#
#
# Mechanical properties :
#
#
# Convention : Reuss Voigt Hill
#
# Bulk Modulus (GPa) = 38.46792 46.18879 42.32835
# Shear Modulus (GPa) = 12.52374 23.43756 17.98065
#
# Velocity S-wave (km/s) = 2.48911 3.40512 2.98249
# Velocity P-wave (km/s) = 5.22412 6.18951 5.72719
#
# Compressibility (1/GPa) = 0.02599569
#
# Stress axis : x y z
#
# Youngs Moduli (GPa) = 41.32152 111.64874 80.06621
#
# Poissons Ratio (x) = 0.10843 0.50408
# Poissons Ratio (y) = 0.04013 0.20486
# Poissons Ratio (z) = 0.26015 0.28566
#
# Static dielectric constant tensor:
#      x y z
#    x 1.681350 0.000000 0.000000 
#    y 0.000000 1.789000 0.000000 
#    z 0.000000 0.000000 1.733990 
# 
# From -- ./inp_files/12773.got.cif
#   From: 2010.05.17/outbox.cif.g08.bks.cpg/sg73_7_cif.got.tgz:12773.got - 2010.06.03 17:35:07.
