data_PCOD9530661
_publ_section_title
;
Structure prediction by ZEFSAII (Michael W. Deem and Ramdas Pophale) SiO2 
 PCOD9530661
Probable space group: I B C A 
;
_chemical_formula_sum "Si O2"
_cell_formula_units_Z 88
_cell_length_a 8.337134
_cell_length_b 24.361683
_cell_length_c 20.727703
_cell_angle_alpha 90.000000
_cell_angle_beta 90.000000
_cell_angle_gamma 90.000000
_cell_volume 4209.933606
_symmetry_space_group_name_H-M "I B C A "
_symmetry_group_IT_number 73
_symmetry_cell_setting 'orthorhombic'
loop_
_space_group_symop_operation_xyz
x,y,z
-x,1/2-y,z
x,-y,1/2-z
1/2-x,y,-z
-x,-y,-z
x,1/2+y,-z
-x,y,1/2+z
1/2+x,-y,z
1/2+x,1/2+y,1/2+z
1/2-x,-y,1/2+z
1/2+x,1/2-y,-z
-x,1/2+y,1/2-z
1/2-x,1/2-y,1/2-z
1/2+x,y,1/2-z
1/2-x,1/2+y,z
x,1/2-y,1/2+z
loop_
_atom_site_type_symbol
_atom_site_label
_atom_site_fract_x
_atom_site_fract_y
_atom_site_fract_z
Si Si1 0.076973 0.553980 0.031880
Si Si2 0.301306 0.314693 0.674645
Si Si3 0.500000 0.750000 0.218901
Si Si4 0.250000 0.246089 0.000000
Si Si5 0.991593 0.825379 0.543769
Si Si6 0.054335 0.500000 0.750000
Si Si7 0.193098 0.560186 0.175447
O O1 0.975226 0.610521 0.028125
O O2 0.115573 0.546625 0.107061
O O3 0.250000 0.565104 0.000000
O O4 0.000000 0.500000 0.000000
O O5 0.415354 0.293870 0.732791
O O6 0.143034 0.277100 0.677721
O O7 0.405509 0.316302 0.608897
O O8 0.249634 0.377792 0.681310
O O9 0.329344 0.290162 0.049048
O O10 0.397411 0.203999 0.989160
O O11 0.165113 0.518634 0.808528
O O12 0.942280 0.450382 0.771201
#
# Coordination Sequence:
#
# PCOD9530661 Si02
#       7
#    16  16   8   8  16   8  16
#     4  11  23  40  60  91 130 166 208 260 320 384
#     4  10  21  38  59  91 123 160 204 255 316 375
#     4  10  20  36  62  90 128 164 198 260 320 388
#     4  10  20  40  62  82 118 158 208 254 310 366
#     4  10  22  39  62  89 122 163 208 263 309 382
#     4  10  20  38  62  90 114 164 206 254 318 362
#     4  10  21  38  62  86 124 159 207 263 306 382
#
# _framework density 20.902943
#
# number of rings (size 3 to 8) (size 9 to 14) (size 15 to 20)
#    0.000    1.818    0.909    3.273    1.273    1.455 
#    0.000    0.000    8.000    0.000    0.000    0.000 
#    0.000    0.000    0.000    0.000    0.000    0.000 
#
# Total GULP energy -245263.635119 kJ/mol
# GULP energy per Si atom -5574.173525 kJ/mol
# Density = 2.085537 g / cm^3
# Si number density = 20.902943 Si / 1000 Ang^3
#
#
#
# Elastic Constant Matrix: (Units=GPa)
#
#
# Indices 1 2 3 4 5 6 
#
# 1 59.1396 26.7993 26.9553 0.0000 0.0000 0.0000
# 2 26.7993 144.6831 41.2839 0.0000 0.0000 0.0000
# 3 26.9553 41.2839 63.6497 0.0000 0.0000 0.0000
# 4 0.0000 0.0000 0.0000 26.4156 0.0000 0.0000
# 5 0.0000 0.0000 0.0000 0.0000 25.3444 0.0000
# 6 0.0000 0.0000 0.0000 0.0000 0.0000 52.2282
#
#
#
# Elastic Compliance Matrix: (Units=1/GPa)
#
#
# Indices 1 2 3 4 5 6 
#
# 1 0.021282 -0.001682 -0.007922 0.000000 0.000000 0.000000
# 2 -0.001682 0.008614 -0.004875 0.000000 0.000000 0.000000
# 3 -0.007922 -0.004875 0.022228 0.000000 0.000000 0.000000
# 4 0.000000 0.000000 0.000000 0.037856 0.000000 0.000000
# 5 0.000000 0.000000 0.000000 0.000000 0.039456 0.000000
# 6 0.000000 0.000000 0.000000 0.000000 0.000000 0.019147
#
#
# Mechanical properties :
#
#
# Convention : Reuss Voigt Hill
#
# Bulk Modulus (GPa) = 43.16557 50.83883 47.00220
# Shear Modulus (GPa) = 26.98854 32.29321 29.64088
#
# Velocity S-wave (km/s) = 3.59714 3.93480 3.76975
# Velocity P-wave (km/s) = 6.16018 6.70952 6.44071
#
# Compressibility (1/GPa) = 0.02316661
#
# Stress axis : x y z
#
# Youngs Moduli (GPa) = 46.98812 116.08741 44.98816
#
# Poissons Ratio (x) = 0.19520 0.35640
# Poissons Ratio (y) = 0.07901 0.21932
# Poissons Ratio (z) = 0.37225 0.56595
#
# Static dielectric constant tensor:
#      x y z
#    x 1.788730 0.000000 0.000000 
#    y 0.000000 1.747130 0.000000 
#    z 0.000000 0.000000 1.801120 
# 
# From -- ./inp_files/24821.got.cif
#   From: 2010.05.17/outbox.cif.g08.bks.cpg/sg73_13_cif.got.tgz:24821.got - 2010.06.03 17:35:07.
