data_PCOD9530575
_publ_section_title
;
Structure prediction by ZEFSAII (Michael W. Deem and Ramdas Pophale) SiO2 
 PCOD9530575
Probable space group: I B C A 
;
_chemical_formula_sum "Si O2"
_cell_formula_units_Z 96
_cell_length_a 14.292521
_cell_length_b 20.904568
_cell_length_c 14.350548
_cell_angle_alpha 90.000000
_cell_angle_beta 90.000000
_cell_angle_gamma 90.000000
_cell_volume 4287.642053
_symmetry_space_group_name_H-M "I B C A "
_symmetry_group_IT_number 73
_symmetry_cell_setting 'orthorhombic'
loop_
_space_group_symop_operation_xyz
x,y,z
-x,1/2-y,z
x,-y,1/2-z
1/2-x,y,-z
-x,-y,-z
x,1/2+y,-z
-x,y,1/2+z
1/2+x,-y,z
1/2+x,1/2+y,1/2+z
1/2-x,-y,1/2+z
1/2+x,1/2-y,-z
-x,1/2+y,1/2-z
1/2-x,1/2-y,1/2-z
1/2+x,y,1/2-z
1/2-x,1/2+y,z
x,1/2-y,1/2+z
loop_
_atom_site_type_symbol
_atom_site_label
_atom_site_fract_x
_atom_site_fract_y
_atom_site_fract_z
Si Si1 0.598139 0.561942 0.013686
Si Si2 0.294562 0.432777 0.702284
Si Si3 0.839900 0.795218 0.266379
Si Si4 0.500000 0.250000 0.625397
Si Si5 0.750000 0.547507 0.500000
Si Si6 0.499604 0.518896 0.344745
Si Si7 0.147198 0.298124 0.026364
O O1 0.523364 0.543785 0.093248
O O2 0.652351 0.625327 0.035140
O O3 0.662734 0.499952 0.007996
O O4 0.552609 0.566418 0.912709
O O5 0.260675 0.500000 0.750000
O O6 0.297934 0.367598 0.760646
O O7 0.247847 0.419124 0.600976
O O8 0.403521 0.448685 0.684189
O O9 0.750000 0.750000 0.250000
O O10 0.877530 0.777314 0.369128
O O11 0.925246 0.786792 0.192571
O O12 0.429212 0.215382 0.552828
O O13 0.449356 0.500000 0.250000
O O14 0.250000 0.272399 0.000000
#
# Coordination Sequence:
#
# PCOD9530575 Si02
#       7
#    16  16  16   8   8  16  16
#     4  10  20  35  62  94 131 176 226 282 356 427
#     4  10  22  40  65  97 139 183 231 302 355 430
#     4  12  26  49  73 107 147 193 250 301 369 448
#     4  12  28  48  76 102 142 192 244 310 368 442
#     4  10  20  36  60  98 138 176 226 286 364 424
#     4   9  18  36  57  91 134 172 222 284 349 422
#     4  12  24  45  73 102 142 192 245 306 370 441
#
# _framework density 22.389928999999999
#
# number of rings (size 3 to 8) (size 9 to 14) (size 15 to 20)
#    0.000    1.333    2.500    4.500    0.000    2.000 
#    0.000    6.667    0.000    0.000    0.000    0.000 
#    0.000    0.000    0.000    0.000    0.000    0.000 
#
# Total GULP energy -267687.565492 kJ/mol
# GULP energy per Si atom -5576.824281 kJ/mol
# Density = 2.233897 g / cm^3
# Si number density = 22.389929 Si / 1000 Ang^3
#
#
#
# Elastic Constant Matrix: (Units=GPa)
#
#
# Indices 1 2 3 4 5 6 
#
# 1 95.0448 28.9659 44.5163 0.0000 0.0000 0.0000
# 2 28.9659 72.4471 37.4849 0.0000 0.0000 0.0000
# 3 44.5163 37.4849 195.4661 0.0000 0.0000 0.0000
# 4 0.0000 0.0000 0.0000 15.4596 0.0000 0.0000
# 5 0.0000 0.0000 0.0000 0.0000 38.7322 0.0000
# 6 0.0000 0.0000 0.0000 0.0000 0.0000 16.7502
#
#
#
# Elastic Compliance Matrix: (Units=1/GPa)
#
#
# Indices 1 2 3 4 5 6 
#
# 1 0.012737 -0.003987 -0.002136 0.000000 0.000000 0.000000
# 2 -0.003987 0.016572 -0.002270 0.000000 0.000000 0.000000
# 3 -0.002136 -0.002270 0.006038 0.000000 0.000000 0.000000
# 4 0.000000 0.000000 0.000000 0.064685 0.000000 0.000000
# 5 0.000000 0.000000 0.000000 0.000000 0.025818 0.000000
# 6 0.000000 0.000000 0.000000 0.000000 0.000000 0.059701
#
#
# Mechanical properties :
#
#
# Convention : Reuss Voigt Hill
#
# Bulk Modulus (GPa) = 53.87941 64.98803 59.43372
# Shear Modulus (GPa) = 23.97808 30.98779 27.48294
#
# Velocity S-wave (km/s) = 3.27606 3.72426 3.50733
# Velocity P-wave (km/s) = 6.19891 6.89797 6.55776
#
# Compressibility (1/GPa) = 0.01855996
#
# Stress axis : x y z
#
# Youngs Moduli (GPa) = 78.51130 60.34323 165.62375
#
# Poissons Ratio (x) = 0.24061 0.35380
# Poissons Ratio (y) = 0.31305 0.37596
# Poissons Ratio (z) = 0.16771 0.13698
#
# Static dielectric constant tensor:
#      x y z
#    x 1.865110 0.000000 0.000000 
#    y 0.000000 1.858310 0.000000 
#    z 0.000000 0.000000 1.945190 
# 
# From -- ./inp_files/17101.got.cif
#   From: 2010.05.17/outbox.cif.g08.bks.cpg/sg73_9_cif.got.tgz:17101.got - 2010.06.03 17:35:07.
