data_PCOD9530230
_publ_section_title
;
Structure prediction by ZEFSAII (Michael W. Deem and Ramdas Pophale) SiO2 
 PCOD9530230
Probable space group: I B C A 
;
_chemical_formula_sum "Si O2"
_cell_formula_units_Z 64
_cell_length_a 15.855899
_cell_length_b 13.247646
_cell_length_c 15.572338
_cell_angle_alpha 90.000000
_cell_angle_beta 90.000000
_cell_angle_gamma 90.000000
_cell_volume 3271.021561
_symmetry_space_group_name_H-M "I B C A "
_symmetry_group_IT_number 73
_symmetry_cell_setting 'orthorhombic'
loop_
_space_group_symop_operation_xyz
x,y,z
-x,1/2-y,z
x,-y,1/2-z
1/2-x,y,-z
-x,-y,-z
x,1/2+y,-z
-x,y,1/2+z
1/2+x,-y,z
1/2+x,1/2+y,1/2+z
1/2-x,-y,1/2+z
1/2+x,1/2-y,-z
-x,1/2+y,1/2-z
1/2-x,1/2-y,1/2-z
1/2+x,y,1/2-z
1/2-x,1/2+y,z
x,1/2-y,1/2+z
loop_
_atom_site_type_symbol
_atom_site_label
_atom_site_fract_x
_atom_site_fract_y
_atom_site_fract_z
Si Si1 0.955698 0.605643 0.024340
Si Si2 0.598177 0.629532 0.343327
Si Si3 0.789928 0.808621 0.592819
Si Si4 0.617300 0.110855 0.847341
O O1 0.865812 0.611502 0.074040
O O2 0.023584 0.650003 0.089767
O O3 0.932815 0.650830 0.930863
O O4 0.000000 0.500000 0.000000
O O5 0.670661 0.708394 0.366806
O O6 0.575868 0.640134 0.242945
O O7 0.621643 0.511262 0.353696
O O8 0.750000 0.784731 0.500000
O O9 0.713227 0.850835 0.648664
#
# Coordination Sequence:
#
# PCOD9530230 Si02
#       4
#    16  16  16  16
#     4   9  19  36  57  80 112 147 184 231 282 333
#     4  10  19  36  58  82 111 147 186 230 279 334
#     4  10  20  35  56  83 113 148 186 228 280 338
#     4   9  20  37  56  82 114 146 185 233 280 332
#
# _framework density 19.565752
#
# number of rings (size 3 to 8) (size 9 to 14) (size 15 to 20)
#    0.000    2.500    0.000    1.500    0.000    5.000 
#    0.000   22.500    0.000    0.000    0.000    0.000 
#    0.000    0.000    0.000    0.000    0.000    0.000 
#
# Total GULP energy -178167.693362 kJ/mol
# GULP energy per Si atom -5567.740418 kJ/mol
# Density = 1.952122 g / cm^3
# Si number density = 19.565752 Si / 1000 Ang^3
#
#
#
# Elastic Constant Matrix: (Units=GPa)
#
#
# Indices 1 2 3 4 5 6 
#
# 1 108.1820 53.1842 73.1403 0.0000 0.0000 0.0000
# 2 53.1842 78.3583 45.0235 0.0000 0.0000 0.0000
# 3 73.1403 45.0235 128.1494 0.0000 0.0000 0.0000
# 4 0.0000 0.0000 0.0000 1.2535 0.0000 0.0000
# 5 0.0000 0.0000 0.0000 0.0000 17.4054 0.0000
# 6 0.0000 0.0000 0.0000 0.0000 0.0000 34.6002
#
#
#
# Elastic Compliance Matrix: (Units=1/GPa)
#
#
# Indices 1 2 3 4 5 6 
#
# 1 0.018397 -0.008086 -0.007659 0.000000 0.000000 0.000000
# 2 -0.008086 0.019544 -0.002251 0.000000 0.000000 0.000000
# 3 -0.007659 -0.002251 0.012966 0.000000 0.000000 0.000000
# 4 0.000000 0.000000 0.000000 0.797759 0.000000 0.000000
# 5 0.000000 0.000000 0.000000 0.000000 0.057453 0.000000
# 6 0.000000 0.000000 0.000000 0.000000 0.000000 0.028902
#
#
# Mechanical properties :
#
#
# Convention : Reuss Voigt Hill
#
# Bulk Modulus (GPa) = 67.05265 73.04284 70.04774
# Shear Modulus (GPa) = 5.12303 20.20793 12.66548
#
# Velocity S-wave (km/s) = 1.61989 3.21724 2.54703
# Velocity P-wave (km/s) = 6.15171 7.15639 6.67298
#
# Compressibility (1/GPa) = 0.01491365
#
# Stress axis : x y z
#
# Youngs Moduli (GPa) = 54.35654 51.16755 77.12594
#
# Poissons Ratio (x) = 0.41373 0.59072
# Poissons Ratio (y) = 0.43952 0.17365
# Poissons Ratio (z) = 0.41632 0.11520
#
# Static dielectric constant tensor:
#      x y z
#    x 1.689990 0.000000 0.000000 
#    y 0.000000 1.691520 0.000000 
#    z 0.000000 0.000000 1.704360 
# 
# From -- ./inp_files/16604.got.cif
#   From: 2010.05.17/outbox.cif.g08.bks.cpg/sg73_9_cif.got.tgz:16604.got - 2010.06.03 17:35:07.
