data_PCOD9530696
_publ_section_title
;
Structure prediction by ZEFSAII (Michael W. Deem and Ramdas Pophale) SiO2 
 PCOD9530696
Probable space group: I B C A 
;
_chemical_formula_sum "Si O2"
_cell_formula_units_Z 104
_cell_length_a 9.011270
_cell_length_b 18.012841
_cell_length_c 27.120072
_cell_angle_alpha 90.000000
_cell_angle_beta 90.000000
_cell_angle_gamma 90.000000
_cell_volume 4402.091406
_symmetry_space_group_name_H-M "I B C A "
_symmetry_group_IT_number 73
_symmetry_cell_setting 'orthorhombic'
loop_
_space_group_symop_operation_xyz
x,y,z
-x,1/2-y,z
x,-y,1/2-z
1/2-x,y,-z
-x,-y,-z
x,1/2+y,-z
-x,y,1/2+z
1/2+x,-y,z
1/2+x,1/2+y,1/2+z
1/2-x,-y,1/2+z
1/2+x,1/2-y,-z
-x,1/2+y,1/2-z
1/2-x,1/2-y,1/2-z
1/2+x,y,1/2-z
1/2-x,1/2+y,z
x,1/2-y,1/2+z
loop_
_atom_site_type_symbol
_atom_site_label
_atom_site_fract_x
_atom_site_fract_y
_atom_site_fract_z
Si Si1 0.021983 0.661539 0.856726
Si Si2 0.287444 0.195854 0.205634
Si Si3 0.000000 0.250000 0.873614
Si Si4 0.035275 0.944282 0.705592
Si Si5 0.626612 0.377748 0.563644
Si Si6 0.453306 0.166604 0.463060
Si Si7 0.735786 0.545438 0.149862
O O1 0.149823 0.649833 0.816707
O O2 0.000000 0.750000 0.855252
O O3 0.048460 0.644157 0.914906
O O4 0.878023 0.613701 0.844232
O O5 0.250000 0.250000 0.250000
O O6 0.356525 0.242148 0.160657
O O7 0.413906 0.137429 0.219844
O O8 0.021385 0.324165 0.904913
O O9 0.865794 0.948043 0.689476
O O10 0.063110 0.000000 0.750000
O O11 0.135901 0.973746 0.660091
O O12 0.550538 0.387057 0.510443
O O13 0.781079 0.332909 0.554305
O O14 0.682759 0.446107 0.596930
O O15 0.500000 0.250000 0.478043
#
# Coordination Sequence:
#
# PCOD9530696 Si02
#       7
#    16  16   8  16  16  16  16
#     4  10  23  44  72 105 146 188 232 304 383 441
#     4  12  29  46  70 108 147 188 241 315 369 442
#     4  12  22  40  68 102 146 180 238 288 372 422
#     4  12  28  47  74  95 139 203 258 299 369 456
#     4  10  20  36  67 105 141 186 231 305 360 447
#     4   9  17  35  65 101 144 186 229 288 381 442
#     4  11  24  48  70 100 141 194 251 306 367 453
#
# _framework density 23.625135
#
# number of rings (size 3 to 8) (size 9 to 14) (size 15 to 20)
#    0.000    1.231    2.308    4.154    5.385    1.231 
#    0.000    1.538    0.000   23.077    0.000    0.000 
#    0.000    0.000    0.000    0.000    0.000    0.000 
#
# Total GULP energy -290933.314974 kJ/mol
# GULP energy per Si atom -5594.871442 kJ/mol
# Density = 2.357136 g / cm^3
# Si number density = 23.625135 Si / 1000 Ang^3
#
#
#
# Elastic Constant Matrix: (Units=GPa)
#
#
# Indices 1 2 3 4 5 6 
#
# 1 89.0209 20.6154 44.4170 0.0000 0.0000 0.0000
# 2 20.6154 69.0528 17.3979 0.0000 0.0000 0.0000
# 3 44.4170 17.3979 123.0204 0.0000 0.0000 0.0000
# 4 0.0000 0.0000 0.0000 9.1217 0.0000 0.0000
# 5 0.0000 0.0000 0.0000 0.0000 32.1414 0.0000
# 6 0.0000 0.0000 0.0000 0.0000 0.0000 37.8749
#
#
#
# Elastic Compliance Matrix: (Units=1/GPa)
#
#
# Indices 1 2 3 4 5 6 
#
# 1 0.014306 -0.003079 -0.004730 0.000000 0.000000 0.000000
# 2 -0.003079 0.015680 -0.001106 0.000000 0.000000 0.000000
# 3 -0.004730 -0.001106 0.009993 0.000000 0.000000 0.000000
# 4 0.000000 0.000000 0.000000 0.109629 0.000000 0.000000
# 5 0.000000 0.000000 0.000000 0.000000 0.031112 0.000000
# 6 0.000000 0.000000 0.000000 0.000000 0.000000 0.026403
#
#
# Mechanical properties :
#
#
# Convention : Reuss Voigt Hill
#
# Bulk Modulus (GPa) = 45.14879 49.55053 47.34966
# Shear Modulus (GPa) = 21.52054 29.07186 25.29620
#
# Velocity S-wave (km/s) = 3.02141 3.51172 3.27575
# Velocity P-wave (km/s) = 5.59678 6.12063 5.86456
#
# Compressibility (1/GPa) = 0.02214899
#
# Stress axis : x y z
#
# Youngs Moduli (GPa) = 69.89861 63.77721 100.07167
#
# Poissons Ratio (x) = 0.19640 0.47333
# Poissons Ratio (y) = 0.21525 0.11064
# Poissons Ratio (z) = 0.33061 0.07051
#
# Static dielectric constant tensor:
#      x y z
#    x 1.893980 0.000000 0.000000 
#    y 0.000000 1.870740 0.000000 
#    z 0.000000 0.000000 1.966620 
# 
# From -- ./inp_files/31269.got.cif
#   From: 2010.05.17/outbox.cif.g08.bks.cpg/sg73_16_cif.got.tgz:31269.got - 2010.06.03 17:35:07.
