data_PCOD9530765
_publ_section_title
;
Structure prediction by ZEFSAII (Michael W. Deem and Ramdas Pophale) SiO2 
 PCOD9530765
Probable space group: I B C A 
;
_chemical_formula_sum "Si O2"
_cell_formula_units_Z 104
_cell_length_a 20.512529
_cell_length_b 27.586866
_cell_length_c 8.556940
_cell_angle_alpha 90.000000
_cell_angle_beta 90.000000
_cell_angle_gamma 90.000000
_cell_volume 4842.170307
_symmetry_space_group_name_H-M "I B C A "
_symmetry_group_IT_number 73
_symmetry_cell_setting 'orthorhombic'
loop_
_space_group_symop_operation_xyz
x,y,z
-x,1/2-y,z
x,-y,1/2-z
1/2-x,y,-z
-x,-y,-z
x,1/2+y,-z
-x,y,1/2+z
1/2+x,-y,z
1/2+x,1/2+y,1/2+z
1/2-x,-y,1/2+z
1/2+x,1/2-y,-z
-x,1/2+y,1/2-z
1/2-x,1/2-y,1/2-z
1/2+x,y,1/2-z
1/2-x,1/2+y,z
x,1/2-y,1/2+z
loop_
_atom_site_type_symbol
_atom_site_label
_atom_site_fract_x
_atom_site_fract_y
_atom_site_fract_z
Si Si1 0.750000 0.118322 0.500000
Si Si2 0.835421 0.554743 0.703047
Si Si3 0.636153 0.315712 0.859966
Si Si4 0.399483 0.856237 0.137966
Si Si5 0.174734 0.224427 0.480531
Si Si6 0.537044 0.964491 0.887827
Si Si7 0.521251 0.136058 0.181238
O O1 0.774614 0.084236 0.360725
O O2 0.809721 0.150664 0.560512
O O3 0.816593 0.500000 0.750000
O O4 0.869602 0.590209 0.831971
O O5 0.891402 0.554294 0.565935
O O6 0.662414 0.294466 0.694216
O O7 0.571267 0.344932 0.812064
O O8 0.628996 0.269381 0.972626
O O9 0.448998 0.843928 0.279404
O O10 0.342596 0.818353 0.103105
O O11 0.445349 0.853832 0.984699
O O12 0.250000 0.238791 0.500000
O O13 0.492222 0.921561 0.823899
O O14 0.556546 0.000000 0.750000
O O15 0.500000 0.000000 0.000000
#
# Coordination Sequence:
#
# PCOD9530765 Si02
#       7
#     8  16  16  16  16  16  16
#     4  12  26  44  68 100 136 184 234 286 352 424
#     4  10  23  44  63  95 138 178 223 287 352 422
#     4  11  26  41  67  99 130 179 232 283 350 411
#     4  10  23  41  70  95 138 174 226 288 349 414
#     4  11  23  44  67  95 131 180 232 281 339 419
#     4  10  20  37  66  93 125 172 220 272 339 413
#     4  10  22  40  62 104 132 172 229 287 351 413
#
# _framework density 21.477972999999999
#
# number of rings (size 3 to 8) (size 9 to 14) (size 15 to 20)
#    0.000    1.538    0.769    4.154    8.615    0.615 
#    9.692    3.077    0.000    0.000    0.000    0.000 
#    0.000    0.000    0.000    0.000    0.000    0.000 
#
# Total GULP energy -290113.229185 kJ/mol
# GULP energy per Si atom -5579.100561 kJ/mol
# Density = 2.142909 g / cm^3
# Si number density = 21.477973 Si / 1000 Ang^3
#
#
#
# Elastic Constant Matrix: (Units=GPa)
#
#
# Indices 1 2 3 4 5 6 
#
# 1 42.5704 32.8130 4.2855 0.0000 0.0000 0.0000
# 2 32.8130 132.6614 25.7406 0.0000 0.0000 0.0000
# 3 4.2855 25.7406 48.3731 0.0000 0.0000 0.0000
# 4 0.0000 0.0000 0.0000 41.6762 0.0000 0.0000
# 5 0.0000 0.0000 0.0000 0.0000 30.9446 0.0000
# 6 0.0000 0.0000 0.0000 0.0000 0.0000 32.0333
#
#
#
# Elastic Compliance Matrix: (Units=1/GPa)
#
#
# Indices 1 2 3 4 5 6 
#
# 1 0.029108 -0.007471 0.001397 0.000000 0.000000 0.000000
# 2 -0.007471 0.010323 -0.004831 0.000000 0.000000 0.000000
# 3 0.001397 -0.004831 0.023120 0.000000 0.000000 0.000000
# 4 0.000000 0.000000 0.000000 0.023994 0.000000 0.000000
# 5 0.000000 0.000000 0.000000 0.000000 0.032316 0.000000
# 6 0.000000 0.000000 0.000000 0.000000 0.000000 0.031217
#
#
# Mechanical properties :
#
#
# Convention : Reuss Voigt Hill
#
# Bulk Modulus (GPa) = 24.54576 38.80927 31.67752
# Shear Modulus (GPa) = 26.95846 31.64855 29.30350
#
# Velocity S-wave (km/s) = 3.54668 3.84283 3.69772
# Velocity P-wave (km/s) = 5.31273 6.14804 5.74558
#
# Compressibility (1/GPa) = 0.04074023
#
# Stress axis : x y z
#
# Youngs Moduli (GPa) = 34.35444 96.86832 43.25290
#
# Poissons Ratio (x) = 0.72368 -0.06041
# Poissons Ratio (y) = 0.25665 0.20897
# Poissons Ratio (z) = -0.04798 0.46801
#
# Static dielectric constant tensor:
#      x y z
#    x 1.914090 0.000000 0.000000 
#    y 0.000000 1.820330 0.000000 
#    z 0.000000 0.000000 1.814710 
# 
# From -- ./inp_files/6584.got.cif
#   From: 2010.05.17/outbox.cif.g08.bks.cpg/sg73_4_cif.got.tgz:6584.got - 2010.06.03 17:35:07.
