data_PCOD9530467
_publ_section_title
;
Structure prediction by ZEFSAII (Michael W. Deem and Ramdas Pophale) SiO2 
 PCOD9530467
Probable space group: I B C A 
;
_chemical_formula_sum "Si O2"
_cell_formula_units_Z 88
_cell_length_a 12.113367
_cell_length_b 14.754053
_cell_length_c 22.249577
_cell_angle_alpha 90.000000
_cell_angle_beta 90.000000
_cell_angle_gamma 90.000000
_cell_volume 3976.472408
_symmetry_space_group_name_H-M "I B C A "
_symmetry_group_IT_number 73
_symmetry_cell_setting 'orthorhombic'
loop_
_space_group_symop_operation_xyz
x,y,z
-x,1/2-y,z
x,-y,1/2-z
1/2-x,y,-z
-x,-y,-z
x,1/2+y,-z
-x,y,1/2+z
1/2+x,-y,z
1/2+x,1/2+y,1/2+z
1/2-x,-y,1/2+z
1/2+x,1/2-y,-z
-x,1/2+y,1/2-z
1/2-x,1/2-y,1/2-z
1/2+x,y,1/2-z
1/2-x,1/2+y,z
x,1/2-y,1/2+z
loop_
_atom_site_type_symbol
_atom_site_label
_atom_site_fract_x
_atom_site_fract_y
_atom_site_fract_z
Si Si1 0.985291 0.855072 0.828679
Si Si2 0.466862 0.893750 0.448900
Si Si3 0.831150 0.229780 0.944759
Si Si4 0.124198 0.454609 0.573971
Si Si5 0.227746 0.081061 0.637935
Si Si6 0.138715 0.500000 0.750000
O O1 0.102740 0.895545 0.848152
O O2 0.000000 0.750000 0.812565
O O3 0.901883 0.868106 0.885236
O O4 0.934451 0.919380 0.777705
O O5 0.386881 0.820536 0.419142
O O6 0.571305 0.833781 0.471829
O O7 0.401278 0.933690 0.505301
O O8 0.528903 0.970053 0.410543
O O9 0.777566 0.171303 0.892150
O O10 0.750000 0.250169 0.000000
O O11 0.239469 0.502328 0.589855
O O12 0.287397 0.044869 0.697769
#
# Coordination Sequence:
#
# PCOD9530467 Si02
#       6
#    16  16  16  16  16   8
#     4  11  24  42  69  94 124 171 213 285 332 391
#     4   9  19  36  56  90 135 175 208 259 318 395
#     4  10  20  33  59  97 130 170 215 266 321 395
#     4   9  20  38  60  90 133 173 212 257 325 395
#     4  10  22  42  65  95 130 166 222 269 330 399
#     4  10  24  50  66  94 128 170 228 278 342 394
#
# _framework density 22.130167
#
# number of rings (size 3 to 8) (size 9 to 14) (size 15 to 20)
#    0.000    2.182    0.000    1.636    5.091    2.182 
#   13.091    1.818    0.000    0.000    0.000    0.000 
#    0.000    0.000    0.000    0.000    0.000    0.000 
#
# Total GULP energy -245794.291008 kJ/mol
# GULP energy per Si atom -5586.233887 kJ/mol
# Density = 2.207980 g / cm^3
# Si number density = 22.130167 Si / 1000 Ang^3
#
#
#
# Elastic Constant Matrix: (Units=GPa)
#
#
# Indices 1 2 3 4 5 6 
#
# 1 105.4421 49.4899 24.0892 0.0000 0.0000 0.0000
# 2 49.4899 127.2764 19.9975 0.0000 0.0000 0.0000
# 3 24.0892 19.9975 51.4549 0.0000 0.0000 0.0000
# 4 0.0000 0.0000 0.0000 23.1495 0.0000 0.0000
# 5 0.0000 0.0000 0.0000 0.0000 22.6314 0.0000
# 6 0.0000 0.0000 0.0000 0.0000 0.0000 31.2628
#
#
#
# Elastic Compliance Matrix: (Units=1/GPa)
#
#
# Indices 1 2 3 4 5 6 
#
# 1 0.012393 -0.004161 -0.004185 0.000000 0.000000 0.000000
# 2 -0.004161 0.009765 -0.001847 0.000000 0.000000 0.000000
# 3 -0.004185 -0.001847 0.022111 0.000000 0.000000 0.000000
# 4 0.000000 0.000000 0.000000 0.043198 0.000000 0.000000
# 5 0.000000 0.000000 0.000000 0.000000 0.044186 0.000000
# 6 0.000000 0.000000 0.000000 0.000000 0.000000 0.031987
#
#
# Mechanical properties :
#
#
# Convention : Reuss Voigt Hill
#
# Bulk Modulus (GPa) = 41.86964 52.36961 47.11963
# Shear Modulus (GPa) = 26.04333 28.11520 27.07926
#
# Velocity S-wave (km/s) = 3.43421 3.56820 3.50185
# Velocity P-wave (km/s) = 5.88947 6.37901 6.13912
#
# Compressibility (1/GPa) = 0.02388365
#
# Stress axis : x y z
#
# Youngs Moduli (GPa) = 80.69011 102.40418 45.22552
#
# Poissons Ratio (x) = 0.42615 0.18925
# Poissons Ratio (y) = 0.33579 0.08353
# Poissons Ratio (z) = 0.33766 0.18914
#
# Static dielectric constant tensor:
#      x y z
#    x 1.852410 0.000000 0.000000 
#    y 0.000000 1.852790 0.000000 
#    z 0.000000 0.000000 1.774620 
# 
# From -- ./inp_files/28853.got.cif
#   From: 2010.05.17/outbox.cif.g08.bks.cpg/sg73_15_cif.got.tgz:28853.got - 2010.06.03 17:35:07.
