data_PCOD9530309
_publ_section_title
;
Structure prediction by ZEFSAII (Michael W. Deem and Ramdas Pophale) SiO2 
 PCOD9530309
Probable space group: I B C A 
;
_chemical_formula_sum "Si O2"
_cell_formula_units_Z 72
_cell_length_a 11.047177
_cell_length_b 15.955387
_cell_length_c 16.517825
_cell_angle_alpha 90.000000
_cell_angle_beta 90.000000
_cell_angle_gamma 90.000000
_cell_volume 2911.464611
_symmetry_space_group_name_H-M "I B C A "
_symmetry_group_IT_number 73
_symmetry_cell_setting 'orthorhombic'
loop_
_space_group_symop_operation_xyz
x,y,z
-x,1/2-y,z
x,-y,1/2-z
1/2-x,y,-z
-x,-y,-z
x,1/2+y,-z
-x,y,1/2+z
1/2+x,-y,z
1/2+x,1/2+y,1/2+z
1/2-x,-y,1/2+z
1/2+x,1/2-y,-z
-x,1/2+y,1/2-z
1/2-x,1/2-y,1/2-z
1/2+x,y,1/2-z
1/2-x,1/2+y,z
x,1/2-y,1/2+z
loop_
_atom_site_type_symbol
_atom_site_label
_atom_site_fract_x
_atom_site_fract_y
_atom_site_fract_z
Si Si1 0.114836 0.595698 0.393489
Si Si2 0.000000 0.250000 0.430613
Si Si3 0.386574 0.592645 0.415853
Si Si4 0.711823 0.000000 0.750000
Si Si5 0.250000 0.805039 0.500000
Si Si6 0.863951 0.097211 0.645217
O O1 0.251643 0.629744 0.400090
O O2 0.088818 0.578672 0.488036
O O3 0.135098 0.520019 0.329666
O O4 0.995744 0.640018 0.357656
O O5 0.980359 0.337700 0.385201
O O6 0.877285 0.241282 0.482911
O O7 0.388179 0.499568 0.380801
O O8 0.793591 0.081365 0.728385
O O9 0.220693 0.860885 0.421489
#
# Coordination Sequence:
#
# PCOD9530309 Si02
#       6
#    16   8  16   8   8  16
#     4  10  19  38  62  94 131 164 217 284 316 386
#     4  12  26  42  68 106 136 174 214 278 348 402
#     4  10  22  38  68  97 131 167 219 279 333 388
#     4  10  22  34  64 102 130 172 226 278 330 376
#     4  12  26  42  72 102 134 174 222 278 340 390
#     4  11  22  40  66 101 128 174 223 282 324 392
#
# _framework density 24.729821000000001
#
# number of rings (size 3 to 8) (size 9 to 14) (size 15 to 20)
#    0.000    1.333    2.222    5.333    6.222    0.000 
#    0.000    0.000    0.000   18.667    0.000    0.000 
#    0.000    0.000    0.000    0.000    0.000    0.000 
#
# Total GULP energy -200719.291968 kJ/mol
# GULP energy per Si atom -5575.535888 kJ/mol
# Density = 2.467353 g / cm^3
# Si number density = 24.729821 Si / 1000 Ang^3
#
#
#
# Elastic Constant Matrix: (Units=GPa)
#
#
# Indices 1 2 3 4 5 6 
#
# 1 181.3490 29.2365 18.3783 0.0000 0.0000 0.0000
# 2 29.2365 91.2414 13.8632 0.0000 0.0000 0.0000
# 3 18.3783 13.8632 77.3426 0.0000 0.0000 0.0000
# 4 0.0000 0.0000 0.0000 4.9184 0.0000 0.0000
# 5 0.0000 0.0000 0.0000 0.0000 14.2152 0.0000
# 6 0.0000 0.0000 0.0000 0.0000 0.0000 37.6298
#
#
#
# Elastic Compliance Matrix: (Units=1/GPa)
#
#
# Indices 1 2 3 4 5 6 
#
# 1 0.005903 -0.001725 -0.001093 0.000000 0.000000 0.000000
# 2 -0.001725 0.011771 -0.001700 0.000000 0.000000 0.000000
# 3 -0.001093 -0.001700 0.013494 0.000000 0.000000 0.000000
# 4 0.000000 0.000000 0.000000 0.203320 0.000000 0.000000
# 5 0.000000 0.000000 0.000000 0.000000 0.070347 0.000000
# 6 0.000000 0.000000 0.000000 0.000000 0.000000 0.026575
#
#
# Mechanical properties :
#
#
# Convention : Reuss Voigt Hill
#
# Bulk Modulus (GPa) = 45.18600 52.54324 48.86462
# Shear Modulus (GPa) = 14.37506 30.58301 22.47904
#
# Velocity S-wave (km/s) = 2.41360 3.52047 3.01821
# Velocity P-wave (km/s) = 5.10674 6.14963 5.65229
#
# Compressibility (1/GPa) = 0.02213075
#
# Stress axis : x y z
#
# Youngs Moduli (GPa) = 169.39935 84.95387 74.10690
#
# Poissons Ratio (x) = 0.14658 0.08103
# Poissons Ratio (y) = 0.29229 0.12597
# Poissons Ratio (z) = 0.18523 0.14441
#
# Static dielectric constant tensor:
#      x y z
#    x 2.119040 0.000000 0.000000 
#    y 0.000000 2.043390 0.000000 
#    z 0.000000 0.000000 1.947350 
# 
# From -- ./inp_files/21184.got.cif
#   From: 2010.05.17/outbox.cif.g08.bks.cpg/sg73_11_cif.got.tgz:21184.got - 2010.06.03 17:35:07.
