data_PCOD9530722
_publ_section_title
;
Structure prediction by ZEFSAII (Michael W. Deem and Ramdas Pophale) SiO2 
 PCOD9530722
Probable space group: I B C A 
;
_chemical_formula_sum "Si O2"
_cell_formula_units_Z 112
_cell_length_a 24.573919
_cell_length_b 10.073872
_cell_length_c 21.260585
_cell_angle_alpha 90.000000
_cell_angle_beta 90.000000
_cell_angle_gamma 90.000000
_cell_volume 5263.153799
_symmetry_space_group_name_H-M "I B C A "
_symmetry_group_IT_number 73
_symmetry_cell_setting 'orthorhombic'
loop_
_space_group_symop_operation_xyz
x,y,z
-x,1/2-y,z
x,-y,1/2-z
1/2-x,y,-z
-x,-y,-z
x,1/2+y,-z
-x,y,1/2+z
1/2+x,-y,z
1/2+x,1/2+y,1/2+z
1/2-x,-y,1/2+z
1/2+x,1/2-y,-z
-x,1/2+y,1/2-z
1/2-x,1/2-y,1/2-z
1/2+x,y,1/2-z
1/2-x,1/2+y,z
x,1/2-y,1/2+z
loop_
_atom_site_type_symbol
_atom_site_label
_atom_site_fract_x
_atom_site_fract_y
_atom_site_fract_z
Si Si1 0.691928 0.812921 0.028007
Si Si2 0.546968 0.572015 0.381289
Si Si3 0.677436 0.689219 0.803295
Si Si4 0.575094 0.383940 0.621872
Si Si5 0.351659 0.977440 0.319842
Si Si6 0.121731 0.051613 0.511222
Si Si7 0.296207 0.270510 0.838414
O O1 0.701628 0.829061 0.103134
O O2 0.669578 0.942093 0.992277
O O3 0.750000 0.771260 0.000000
O O4 0.647445 0.697343 0.018819
O O5 0.483914 0.551840 0.366301
O O6 0.560221 0.728526 0.390268
O O7 0.583822 0.530034 0.322575
O O8 0.574727 0.493689 0.439702
O O9 0.623919 0.611474 0.826604
O O10 0.670085 0.833716 0.836449
O O11 0.738104 0.657837 0.826046
O O12 0.682790 0.706949 0.727466
O O13 0.596573 0.448342 0.558356
O O14 0.330819 0.000000 0.250000
O O15 0.333426 0.104696 0.357525
#
# Coordination Sequence:
#
# PCOD9530722 Si02
#       7
#    16  16  16  16  16  16  16
#     4  12  26  39  62  93 134 170 210 269 330 397
#     4  10  20  38  63  89 120 165 215 262 313 380
#     4   9  20  36  60  90 120 160 205 257 322 384
#     4  10  21  39  63  90 123 163 212 265 320 380
#     4   9  18  35  60  86 116 159 207 250 308 378
#     4  12  23  42  60  92 126 168 217 264 323 391
#     4  10  20  37  60  88 123 160 204 260 318 390
#
# _framework density 21.280016
#
# number of rings (size 3 to 8) (size 9 to 14) (size 15 to 20)
#    0.000    1.714    2.857    1.714    2.000    2.286 
#    0.000    3.571    0.000    1.714    0.000    0.000 
#    0.000    0.000    0.000    0.000    0.000    0.000 
#
# Total GULP energy -312092.032825 kJ/mol
# GULP energy per Si atom -5573.072015 kJ/mol
# Density = 2.123158 g / cm^3
# Si number density = 21.280016 Si / 1000 Ang^3
#
#
#
# Elastic Constant Matrix: (Units=GPa)
#
#
# Indices 1 2 3 4 5 6 
#
# 1 146.1002 12.3196 22.6988 0.0000 0.0000 0.0000
# 2 12.3196 25.3039 2.6442 0.0000 0.0000 0.0000
# 3 22.6988 2.6442 70.0818 0.0000 0.0000 0.0000
# 4 0.0000 0.0000 0.0000 19.9644 0.0000 0.0000
# 5 0.0000 0.0000 0.0000 0.0000 29.1867 0.0000
# 6 0.0000 0.0000 0.0000 0.0000 0.0000 26.0350
#
#
#
# Elastic Compliance Matrix: (Units=1/GPa)
#
#
# Indices 1 2 3 4 5 6 
#
# 1 0.007489 -0.003406 -0.002297 0.000000 0.000000 0.000000
# 2 -0.003406 0.041225 -0.000452 0.000000 0.000000 0.000000
# 3 -0.002297 -0.000452 0.015030 0.000000 0.000000 0.000000
# 4 0.000000 0.000000 0.000000 0.050089 0.000000 0.000000
# 5 0.000000 0.000000 0.000000 0.000000 0.034262 0.000000
# 6 0.000000 0.000000 0.000000 0.000000 0.000000 0.038410
#
#
# Mechanical properties :
#
#
# Convention : Reuss Voigt Hill
#
# Bulk Modulus (GPa) = 19.44262 35.20126 27.32194
# Shear Modulus (GPa) = 23.15244 28.62545 25.88895
#
# Velocity S-wave (km/s) = 3.30205 3.67165 3.49174
# Velocity P-wave (km/s) = 4.86769 5.87814 5.39662
#
# Compressibility (1/GPa) = 0.05143339
#
# Stress axis : x y z
#
# Youngs Moduli (GPa) = 133.53470 24.25703 66.53328
#
# Poissons Ratio (x) = 0.08262 0.15283
# Poissons Ratio (y) = 0.45481 0.03009
# Poissons Ratio (z) = 0.30673 0.01097
#
# Static dielectric constant tensor:
#      x y z
#    x 1.782570 0.000000 0.000000 
#    y 0.000000 1.812780 0.000000 
#    z 0.000000 0.000000 1.806900 
# 
# From -- ./inp_files/27319.got.cif
#   From: 2010.05.17/outbox.cif.g08.bks.cpg/sg73_14_cif.got.tgz:27319.got - 2010.06.03 17:35:07.
