data_PCOD9530488
_publ_section_title
;
Structure prediction by ZEFSAII (Michael W. Deem and Ramdas Pophale) SiO2 
 PCOD9530488
Probable space group: I B C A 
;
_chemical_formula_sum "Si O2"
_cell_formula_units_Z 120
_cell_length_a 12.296138
_cell_length_b 17.045210
_cell_length_c 26.804632
_cell_angle_alpha 90.000000
_cell_angle_beta 90.000000
_cell_angle_gamma 90.000000
_cell_volume 5617.989640
_symmetry_space_group_name_H-M "I B C A "
_symmetry_group_IT_number 73
_symmetry_cell_setting 'orthorhombic'
loop_
_space_group_symop_operation_xyz
x,y,z
-x,1/2-y,z
x,-y,1/2-z
1/2-x,y,-z
-x,-y,-z
x,1/2+y,-z
-x,y,1/2+z
1/2+x,-y,z
1/2+x,1/2+y,1/2+z
1/2-x,-y,1/2+z
1/2+x,1/2-y,-z
-x,1/2+y,1/2-z
1/2-x,1/2-y,1/2-z
1/2+x,y,1/2-z
1/2-x,1/2+y,z
x,1/2-y,1/2+z
loop_
_atom_site_type_symbol
_atom_site_label
_atom_site_fract_x
_atom_site_fract_y
_atom_site_fract_z
Si Si1 0.250000 0.678318 0.500000
Si Si2 0.118807 0.091965 0.125431
Si Si3 0.176090 0.947290 0.671668
Si Si4 0.732909 0.608857 0.220226
Si Si5 0.377412 0.781591 0.905474
Si Si6 0.826665 0.256794 0.656470
Si Si7 0.065958 0.421886 0.842669
Si Si8 0.051695 0.832215 0.937741
O O1 0.189830 0.726968 0.543482
O O2 0.352497 0.636292 0.526700
O O3 0.246440 0.069270 0.124469
O O4 0.116106 0.172936 0.156546
O O5 0.047683 0.111089 0.076674
O O6 0.073172 0.015080 0.151422
O O7 0.224663 0.910540 0.722179
O O8 0.060190 0.908585 0.664538
O O9 0.176964 0.039825 0.686524
O O10 0.679832 0.691273 0.205565
O O11 0.857896 0.605096 0.202562
O O12 0.500000 0.750000 0.907180
O O13 0.297179 0.746530 0.863447
O O14 0.389091 0.873479 0.889996
O O15 0.887125 0.307307 0.613480
O O16 0.000000 0.750000 0.957346
#
# Coordination Sequence:
#
# PCOD9530488 Si02
#       8
#     8  16  16  16  16  16  16  16
#     4  10  20  36  60  84 110 146 188 240 290 346
#     4  10  20  35  57  83 113 152 190 232 292 348
#     4  10  20  34  55  82 116 156 196 239 286 341
#     4   9  20  34  53  81 113 152 198 240 281 336
#     4  10  20  37  60  85 113 148 191 237 289 349
#     4   9  18  34  56  83 113 148 191 239 286 343
#     4  10  21  37  57  82 116 155 190 234 294 348
#     4   9  18  33  55  81 108 141 187 235 286 346
#
# _framework density 21.359953999999998
#
# number of rings (size 3 to 8) (size 9 to 14) (size 15 to 20)
#    0.000    2.400    0.000    2.000    0.000    6.933 
#    0.000    0.667    0.000   18.400    0.000    0.000 
#    0.000    0.000    0.000    0.000    0.000    0.000 
#
# Total GULP energy -334374.761097 kJ/mol
# GULP energy per Si atom -5572.912685 kJ/mol
# Density = 2.131134 g / cm^3
# Si number density = 21.359954 Si / 1000 Ang^3
#
#
#
# Elastic Constant Matrix: (Units=GPa)
#
#
# Indices 1 2 3 4 5 6 
#
# 1 136.2024 20.6691 33.6790 0.0000 0.0000 0.0000
# 2 20.6691 79.1641 37.2943 0.0000 0.0000 0.0000
# 3 33.6790 37.2943 42.8242 0.0000 0.0000 0.0000
# 4 0.0000 0.0000 0.0000 7.3882 0.0000 0.0000
# 5 0.0000 0.0000 0.0000 0.0000 23.5469 0.0000
# 6 0.0000 0.0000 0.0000 0.0000 0.0000 13.7737
#
#
#
# Elastic Compliance Matrix: (Units=1/GPa)
#
#
# Indices 1 2 3 4 5 6 
#
# 1 0.009250 0.001716 -0.008769 0.000000 0.000000 0.000000
# 2 0.001716 0.021738 -0.020281 0.000000 0.000000 0.000000
# 3 -0.008769 -0.020281 0.047910 0.000000 0.000000 0.000000
# 4 0.000000 0.000000 0.000000 0.135351 0.000000 0.000000
# 5 0.000000 0.000000 0.000000 0.000000 0.042469 0.000000
# 6 0.000000 0.000000 0.000000 0.000000 0.000000 0.072602
#
#
# Mechanical properties :
#
#
# Convention : Reuss Voigt Hill
#
# Bulk Modulus (GPa) = 41.27077 49.05284 45.16181
# Shear Modulus (GPa) = 12.75304 20.04498 16.39901
#
# Velocity S-wave (km/s) = 2.44612 3.06672 2.77383
# Velocity P-wave (km/s) = 5.22891 5.96275 5.60785
#
# Compressibility (1/GPa) = 0.02423022
#
# Stress axis : x y z
#
# Youngs Moduli (GPa) = 108.10890 46.00188 20.87268
#
# Poissons Ratio (x) = -0.07894 0.18303
# Poissons Ratio (y) = -0.18552 0.42331
# Poissons Ratio (z) = 0.94801 0.93295
#
# Static dielectric constant tensor:
#      x y z
#    x 1.841080 0.000000 0.000000 
#    y 0.000000 1.820310 0.000000 
#    z 0.000000 0.000000 1.773480 
# 
# From -- ./inp_files/34123.got.cif
#   From: 2010.05.17/outbox.cif.g08.bks.cpg/sg73_18_cif.got.tgz:34123.got - 2010.06.03 17:35:07.
