data_PCOD9530406
_publ_section_title
;
Structure prediction by ZEFSAII (Michael W. Deem and Ramdas Pophale) SiO2 
 PCOD9530406
Probable space group: I B C A 
;
_chemical_formula_sum "Si O2"
_cell_formula_units_Z 96
_cell_length_a 24.196038
_cell_length_b 9.937982
_cell_length_c 21.112737
_cell_angle_alpha 90.000000
_cell_angle_beta 90.000000
_cell_angle_gamma 90.000000
_cell_volume 5076.764308
_symmetry_space_group_name_H-M "I B C A "
_symmetry_group_IT_number 73
_symmetry_cell_setting 'orthorhombic'
loop_
_space_group_symop_operation_xyz
x,y,z
-x,1/2-y,z
x,-y,1/2-z
1/2-x,y,-z
-x,-y,-z
x,1/2+y,-z
-x,y,1/2+z
1/2+x,-y,z
1/2+x,1/2+y,1/2+z
1/2-x,-y,1/2+z
1/2+x,1/2-y,-z
-x,1/2+y,1/2-z
1/2-x,1/2-y,1/2-z
1/2+x,y,1/2-z
1/2-x,1/2+y,z
x,1/2-y,1/2+z
loop_
_atom_site_type_symbol
_atom_site_label
_atom_site_fract_x
_atom_site_fract_y
_atom_site_fract_z
Si Si1 0.069850 0.114999 0.052739
Si Si2 0.898723 0.918482 0.184809
Si Si3 0.944154 0.070313 0.069136
Si Si4 0.690313 0.792202 0.274746
Si Si5 0.945810 0.500000 0.250000
Si Si6 0.353438 0.033701 0.838899
Si Si7 0.500000 0.750000 0.280117
O O1 0.068503 0.276868 0.047746
O O2 0.124613 0.077260 0.093212
O O3 0.010376 0.071126 0.083175
O O4 0.068511 0.035822 0.986595
O O5 0.843809 0.827559 0.191974
O O6 0.951064 0.817439 0.180340
O O7 0.902717 0.000000 0.250000
O O8 0.907094 0.023425 0.128207
O O9 0.750000 0.750000 0.250000
O O10 0.659525 0.845271 0.210391
O O11 0.691884 0.919200 0.323685
O O12 0.907833 0.465229 0.308896
O O13 0.979373 0.368572 0.235530
#
# Coordination Sequence:
#
# PCOD9530406 Si02
#       7
#    16  16  16  16   8  16   8
#     4  10  22  41  59  93 132 178 216 251 322 380
#     4  12  24  34  60  94 125 164 206 270 320 394
#     4  10  24  37  64  91 137 175 213 259 309 400
#     4  10  23  40  61  92 122 163 215 272 333 375
#     4  10  20  30  50  84 120 162 188 244 316 370
#     4  10  20  39  60  84 124 167 205 270 316 385
#     4  12  20  32  52  86 132 152 200 240 328 384
#
# _framework density 18.909682
#
# number of rings (size 3 to 8) (size 9 to 14) (size 15 to 20)
#    0.000    1.667    4.167    2.000    4.667    1.333 
#    0.000    0.000    0.000    1.000    0.000    0.000 
#    0.000    0.000    0.000    0.000    0.000    0.000 
#
# Total GULP energy -267321.594553 kJ/mol
# GULP energy per Si atom -5569.199887 kJ/mol
# Density = 1.886664 g / cm^3
# Si number density = 18.909682 Si / 1000 Ang^3
#
#
#
# Elastic Constant Matrix: (Units=GPa)
#
#
# Indices 1 2 3 4 5 6 
#
# 1 78.4699 43.8411 30.0764 0.0000 0.0000 0.0000
# 2 43.8411 127.5420 50.1790 0.0000 0.0000 0.0000
# 3 30.0764 50.1790 95.9012 0.0000 0.0000 0.0000
# 4 0.0000 0.0000 0.0000 31.6651 0.0000 0.0000
# 5 0.0000 0.0000 0.0000 0.0000 19.5537 0.0000
# 6 0.0000 0.0000 0.0000 0.0000 0.0000 26.9023
#
#
#
# Elastic Compliance Matrix: (Units=1/GPa)
#
#
# Indices 1 2 3 4 5 6 
#
# 1 0.016329 -0.004531 -0.002750 0.000000 0.000000 0.000000
# 2 -0.004531 0.011130 -0.004403 0.000000 0.000000 0.000000
# 3 -0.002750 -0.004403 0.013594 0.000000 0.000000 0.000000
# 4 0.000000 0.000000 0.000000 0.031581 0.000000 0.000000
# 5 0.000000 0.000000 0.000000 0.000000 0.051141 0.000000
# 6 0.000000 0.000000 0.000000 0.000000 0.000000 0.037172
#
#
# Mechanical properties :
#
#
# Convention : Reuss Voigt Hill
#
# Bulk Modulus (GPa) = 56.54508 61.12289 58.83399
# Shear Modulus (GPa) = 26.28677 27.47865 26.88271
#
# Velocity S-wave (km/s) = 3.73248 3.81616 3.77455
# Velocity P-wave (km/s) = 6.96727 7.19800 7.08357
#
# Compressibility (1/GPa) = 0.01768500
#
# Stress axis : x y z
#
# Youngs Moduli (GPa) = 61.23934 89.84576 73.56370
#
# Poissons Ratio (x) = 0.40708 0.20233
# Poissons Ratio (y) = 0.27747 0.32388
# Poissons Ratio (z) = 0.16844 0.39557
#
# Static dielectric constant tensor:
#      x y z
#    x 1.717360 0.000000 0.000000 
#    y 0.000000 1.712460 0.000000 
#    z 0.000000 0.000000 1.660200 
# 
# From -- ./inp_files/27531.got.cif
#   From: 2010.05.17/outbox.cif.g08.bks.cpg/sg73_14_cif.got.tgz:27531.got - 2010.06.03 17:35:07.
