data_PCOD9530963
_publ_section_title
;
Structure prediction by ZEFSAII (Michael W. Deem and Ramdas Pophale) SiO2 
 PCOD9530963
Probable space group: I B C A 
;
_chemical_formula_sum "Si O2"
_cell_formula_units_Z 120
_cell_length_a 14.273182
_cell_length_b 24.120250
_cell_length_c 18.163751
_cell_angle_alpha 90.000000
_cell_angle_beta 90.000000
_cell_angle_gamma 90.000000
_cell_volume 6253.283928
_symmetry_space_group_name_H-M "I B C A "
_symmetry_group_IT_number 73
_symmetry_cell_setting 'orthorhombic'
loop_
_space_group_symop_operation_xyz
x,y,z
-x,1/2-y,z
x,-y,1/2-z
1/2-x,y,-z
-x,-y,-z
x,1/2+y,-z
-x,y,1/2+z
1/2+x,-y,z
1/2+x,1/2+y,1/2+z
1/2-x,-y,1/2+z
1/2+x,1/2-y,-z
-x,1/2+y,1/2-z
1/2-x,1/2-y,1/2-z
1/2+x,y,1/2-z
1/2-x,1/2+y,z
x,1/2-y,1/2+z
loop_
_atom_site_type_symbol
_atom_site_label
_atom_site_fract_x
_atom_site_fract_y
_atom_site_fract_z
Si Si1 0.318677 0.056469 0.070297
Si Si2 0.698048 0.149890 0.068774
Si Si3 0.294807 0.419821 0.281899
Si Si4 0.826003 0.940459 0.358826
Si Si5 0.492025 0.563707 0.738486
Si Si6 0.500000 0.750000 0.326628
Si Si7 0.183968 0.297091 0.777621
Si Si8 0.986521 0.131732 0.393326
O O1 0.260976 0.073658 0.143053
O O2 0.405488 0.099062 0.063092
O O3 0.351671 0.994837 0.094359
O O4 0.250000 0.055102 0.000000
O O5 0.765423 0.098739 0.088960
O O6 0.700815 0.191398 0.136748
O O7 0.588933 0.130852 0.067478
O O8 0.750000 0.176472 0.000000
O O9 0.243202 0.448057 0.211831
O O10 0.401639 0.439077 0.288884
O O11 0.299540 0.354902 0.262198
O O12 0.918538 0.913927 0.321694
O O13 0.460030 0.500000 0.750000
O O14 0.491987 0.598828 0.814399
O O15 0.578899 0.775561 0.274859
O O16 0.466482 0.803289 0.374874
O O17 0.250000 0.250000 0.750000
#
# Coordination Sequence:
#
# PCOD9530963 Si02
#       8
#    16  16  16  16  16   8  16  16
#     4  12  25  40  60  94 136 166 208 259 321 391
#     4  10  23  42  62  90 130 165 206 261 329 390
#     4  11  22  38  61  92 122 165 214 256 315 376
#     4  11  21  38  63  91 124 169 210 258 309 380
#     4  12  20  36  64  95 122 161 217 262 306 377
#     4  10  20  40  64  90 122 156 216 274 312 360
#     4  10  21  37  64  92 117 163 219 265 310 380
#     4  11  22  42  64  93 124 172 211 265 327 376
#
# _framework density 19.189916
#
# number of rings (size 3 to 8) (size 9 to 14) (size 15 to 20)
#    0.000    1.067    6.667    2.400    1.867    1.067 
#    0.000    8.000    0.000    0.800    0.000    0.000 
#    0.000    0.000    0.000    0.000    0.000    0.000 
#
# Total GULP energy -334716.805456 kJ/mol
# GULP energy per Si atom -5578.613424 kJ/mol
# Density = 1.914624 g / cm^3
# Si number density = 19.189916 Si / 1000 Ang^3
#
#
#
# Elastic Constant Matrix: (Units=GPa)
#
#
# Indices 1 2 3 4 5 6 
#
# 1 89.0904 6.6068 17.9570 0.0000 0.0000 0.0000
# 2 6.6068 84.8275 -1.5380 0.0000 0.0000 0.0000
# 3 17.9570 -1.5380 61.5616 0.0000 0.0000 0.0000
# 4 0.0000 0.0000 0.0000 1.7416 0.0000 0.0000
# 5 0.0000 0.0000 0.0000 0.0000 30.2341 0.0000
# 6 0.0000 0.0000 0.0000 0.0000 0.0000 32.6885
#
#
#
# Elastic Compliance Matrix: (Units=1/GPa)
#
#
# Indices 1 2 3 4 5 6 
#
# 1 0.012010 -0.000999 -0.003528 0.000000 0.000000 0.000000
# 2 -0.000999 0.011877 0.000588 0.000000 0.000000 0.000000
# 3 -0.003528 0.000588 0.017288 0.000000 0.000000 0.000000
# 4 0.000000 0.000000 0.000000 0.574177 0.000000 0.000000
# 5 0.000000 0.000000 0.000000 0.000000 0.033075 0.000000
# 6 0.000000 0.000000 0.000000 0.000000 0.000000 0.030592
#
#
# Mechanical properties :
#
#
# Convention : Reuss Voigt Hill
#
# Bulk Modulus (GPa) = 30.03351 31.28124 30.65737
# Shear Modulus (GPa) = 7.16336 27.09642 17.12989
#
# Velocity S-wave (km/s) = 1.93416 3.76175 2.99097
# Velocity P-wave (km/s) = 4.54672 5.93329 5.28567
#
# Compressibility (1/GPa) = 0.03329614
#
# Stress axis : x y z
#
# Youngs Moduli (GPa) = 83.26542 84.19546 57.84452
#
# Poissons Ratio (x) = 0.08414 0.20408
# Poissons Ratio (y) = 0.08321 -0.03403
# Poissons Ratio (z) = 0.29377 -0.04953
#
# Static dielectric constant tensor:
#      x y z
#    x 1.755710 0.000000 0.000000 
#    y 0.000000 1.675630 0.000000 
#    z 0.000000 0.000000 1.642730 
# 
# From -- ./inp_files/22159.got.cif
#   From: 2010.05.17/outbox.cif.g08.bks.cpg/sg73_12_cif.got.tgz:22159.got - 2010.06.03 17:35:07.
