data_PCOD9530906
_publ_section_title
;
Structure prediction by ZEFSAII (Michael W. Deem and Ramdas Pophale) SiO2 
 PCOD9530906
Probable space group: I B C A 
;
_chemical_formula_sum "Si O2"
_cell_formula_units_Z 120
_cell_length_a 19.225496
_cell_length_b 14.540593
_cell_length_c 17.317142
_cell_angle_alpha 90.000000
_cell_angle_beta 90.000000
_cell_angle_gamma 90.000000
_cell_volume 4841.008995
_symmetry_space_group_name_H-M "I B C A "
_symmetry_group_IT_number 73
_symmetry_cell_setting 'orthorhombic'
loop_
_space_group_symop_operation_xyz
x,y,z
-x,1/2-y,z
x,-y,1/2-z
1/2-x,y,-z
-x,-y,-z
x,1/2+y,-z
-x,y,1/2+z
1/2+x,-y,z
1/2+x,1/2+y,1/2+z
1/2-x,-y,1/2+z
1/2+x,1/2-y,-z
-x,1/2+y,1/2-z
1/2-x,1/2-y,1/2-z
1/2+x,y,1/2-z
1/2-x,1/2+y,z
x,1/2-y,1/2+z
loop_
_atom_site_type_symbol
_atom_site_label
_atom_site_fract_x
_atom_site_fract_y
_atom_site_fract_z
Si Si1 0.579052 0.171235 0.978311
Si Si2 0.199384 0.469402 0.070529
Si Si3 0.501744 0.344225 0.317662
Si Si4 0.037704 0.000000 0.750000
Si Si5 0.227359 0.850625 0.649173
Si Si6 0.069570 0.449679 0.885319
Si Si7 0.298018 0.641927 0.315397
Si Si8 0.376844 0.860234 0.580619
O O1 0.641730 0.101747 0.959181
O O2 0.529586 0.161453 0.904643
O O3 0.601870 0.277669 0.976561
O O4 0.547046 0.130486 0.056389
O O5 0.181171 0.564563 0.116040
O O6 0.244602 0.408440 0.128344
O O7 0.250000 0.493258 0.000000
O O8 0.500000 0.250000 0.271977
O O9 0.562427 0.401730 0.273245
O O10 0.418707 0.351951 0.337265
O O11 0.989482 0.014938 0.826449
O O12 0.195237 0.749134 0.659700
O O13 0.263495 0.870328 0.731817
O O14 0.295351 0.847671 0.594184
O O15 0.130124 0.410474 0.831120
O O16 0.099062 0.535476 0.936326
#
# Coordination Sequence:
#
# PCOD9530906 Si02
#       8
#    16  16  16   8  16  16  16  16
#     4  11  23  41  60  95 130 163 207 268 323 368
#     4  12  23  38  59  92 129 166 204 258 316 380
#     4   9  21  42  65  89 123 164 211 261 323 371
#     4  10  22  42  68  92 118 168 220 264 304 392
#     4  11  23  38  62  92 129 168 212 261 318 377
#     4  11  22  39  66  90 123 168 215 255 312 393
#     4  11  22  38  59  92 125 168 213 257 308 388
#     4  10  20  39  64  86 119 167 210 256 312 379
#
# _framework density 24.788221
#
# number of rings (size 3 to 8) (size 9 to 14) (size 15 to 20)
#    0.000    1.333    4.000    2.000    0.000    4.800 
#    2.400    3.333    0.000    0.000    0.000    0.000 
#    0.000    0.000    0.000    0.000    0.000    0.000 
#
# Total GULP energy -334494.306918 kJ/mol
# GULP energy per Si atom -5574.905115 kJ/mol
# Density = 2.473180 g / cm^3
# Si number density = 24.788221 Si / 1000 Ang^3
#
#
#
# Elastic Constant Matrix: (Units=GPa)
#
#
# Indices 1 2 3 4 5 6 
#
# 1 19.2314 -12.8157 -4.9111 0.0000 0.0000 0.0000
# 2 -12.8157 134.6998 42.3769 0.0000 0.0000 0.0000
# 3 -4.9111 42.3769 79.9634 0.0000 0.0000 0.0000
# 4 0.0000 0.0000 0.0000 33.4035 0.0000 0.0000
# 5 0.0000 0.0000 0.0000 0.0000 15.3401 0.0000
# 6 0.0000 0.0000 0.0000 0.0000 0.0000 67.5318
#
#
#
# Elastic Compliance Matrix: (Units=1/GPa)
#
#
# Indices 1 2 3 4 5 6 
#
# 1 0.055554 0.005055 0.000733 0.000000 0.000000 0.000000
# 2 0.005055 0.009369 -0.004655 0.000000 0.000000 0.000000
# 3 0.000733 -0.004655 0.015018 0.000000 0.000000 0.000000
# 4 0.000000 0.000000 0.000000 0.029937 0.000000 0.000000
# 5 0.000000 0.000000 0.000000 0.000000 0.065189 0.000000
# 6 0.000000 0.000000 0.000000 0.000000 0.000000 0.014808
#
#
# Mechanical properties :
#
#
# Convention : Reuss Voigt Hill
#
# Bulk Modulus (GPa) = 12.16439 31.46611 21.81525
# Shear Modulus (GPa) = 23.25469 37.20471 30.22970
#
# Velocity S-wave (km/s) = 3.06622 3.87835 3.49595
# Velocity P-wave (km/s) = 4.17775 5.72512 5.01152
#
# Compressibility (1/GPa) = 0.08220719
#
# Stress axis : x y z
#
# Youngs Moduli (GPa) = 18.00050 106.73186 66.58862
#
# Poissons Ratio (x) = -0.53952 -0.04881
# Poissons Ratio (y) = -0.09099 0.30996
# Poissons Ratio (z) = -0.01320 0.49682
#
# Static dielectric constant tensor:
#      x y z
#    x 2.122750 0.000000 0.000000 
#    y 0.000000 1.687980 0.000000 
#    z 0.000000 0.000000 2.019210 
# 
# From -- ./inp_files/23671.got.cif
#   From: 2010.05.17/outbox.cif.g08.bks.cpg/sg73_12_cif.got.tgz:23671.got - 2010.06.03 17:35:07.
