data_PCOD9530244
_publ_section_title
;
Structure prediction by ZEFSAII (Michael W. Deem and Ramdas Pophale) SiO2 
 PCOD9530244
Probable space group: I B C A 
;
_chemical_formula_sum "Si O2"
_cell_formula_units_Z 96
_cell_length_a 24.107512
_cell_length_b 10.859812
_cell_length_c 14.956396
_cell_angle_alpha 90.000000
_cell_angle_beta 90.000000
_cell_angle_gamma 90.000000
_cell_volume 3915.630062
_symmetry_space_group_name_H-M "I B C A "
_symmetry_group_IT_number 73
_symmetry_cell_setting 'orthorhombic'
loop_
_space_group_symop_operation_xyz
x,y,z
-x,1/2-y,z
x,-y,1/2-z
1/2-x,y,-z
-x,-y,-z
x,1/2+y,-z
-x,y,1/2+z
1/2+x,-y,z
1/2+x,1/2+y,1/2+z
1/2-x,-y,1/2+z
1/2+x,1/2-y,-z
-x,1/2+y,1/2-z
1/2-x,1/2-y,1/2-z
1/2+x,y,1/2-z
1/2-x,1/2+y,z
x,1/2-y,1/2+z
loop_
_atom_site_type_symbol
_atom_site_label
_atom_site_fract_x
_atom_site_fract_y
_atom_site_fract_z
Si Si1 0.344194 0.905715 0.053342
Si Si2 0.269837 0.312309 0.397792
Si Si3 0.870184 0.005567 0.625472
Si Si4 0.936590 0.772789 0.674306
Si Si5 0.938477 0.277358 0.039406
Si Si6 0.336734 0.111480 0.185528
O O1 0.295293 0.822634 0.090658
O O2 0.399252 0.830386 0.074164
O O3 0.347869 0.040770 0.092700
O O4 0.341745 0.915688 0.947167
O O5 0.250000 0.350460 0.500000
O O6 0.317802 0.402386 0.355892
O O7 0.216908 0.309063 0.334316
O O8 0.907589 0.908172 0.682520
O O9 0.914612 0.094718 0.576297
O O10 0.937875 0.736291 0.568534
O O11 0.890966 0.682702 0.716359
O O12 0.000000 0.750000 0.705841
O O13 0.000000 0.250000 0.070114
O O14 0.323033 0.000000 0.250000
#
# Coordination Sequence:
#
# PCOD9530244 Si02
#       6
#    16  16  16  16  16  16
#     4  10  21  36  57  89 124 156 207 253 316 382
#     4  11  22  38  64  93 122 168 204 266 325 376
#     4  10  19  36  62  97 126 154 210 264 318 388
#     4  10  22  38  63  90 123 167 207 261 328 380
#     4   9  18  32  62  98 123 153 200 271 327 367
#     4  12  26  42  61  89 126 171 213 260 321 388
#
# _framework density 24.517128
#
# number of rings (size 3 to 8) (size 9 to 14) (size 15 to 20)
#    0.000    1.667    3.333    2.000    7.000    2.667 
#    0.000    0.833    0.000    0.000    0.000    0.000 
#    0.000    0.000    0.000    0.000    0.000    0.000 
#
# Total GULP energy -268168.963196 kJ/mol
# GULP energy per Si atom -5586.853400 kJ/mol
# Density = 2.446133 g / cm^3
# Si number density = 24.517128 Si / 1000 Ang^3
#
#
#
# Elastic Constant Matrix: (Units=GPa)
#
#
# Indices 1 2 3 4 5 6 
#
# 1 187.0647 62.3124 25.3910 0.0000 0.0000 0.0000
# 2 62.3124 113.4410 5.7111 0.0000 0.0000 0.0000
# 3 25.3910 5.7111 48.0672 0.0000 0.0000 0.0000
# 4 0.0000 0.0000 0.0000 31.0935 0.0000 0.0000
# 5 0.0000 0.0000 0.0000 0.0000 -9.2364 0.0000
# 6 0.0000 0.0000 0.0000 0.0000 0.0000 26.4149
#
#
#
# Elastic Compliance Matrix: (Units=1/GPa)
#
#
# Indices 1 2 3 4 5 6 
#
# 1 0.007019 -0.003691 -0.003269 0.000000 0.000000 0.000000
# 2 -0.003691 0.010809 0.000665 0.000000 0.000000 0.000000
# 3 -0.003269 0.000665 0.022452 0.000000 0.000000 0.000000
# 4 0.000000 0.000000 0.000000 0.032161 0.000000 0.000000
# 5 0.000000 0.000000 0.000000 0.000000 -0.108268 0.000000
# 6 0.000000 0.000000 0.000000 0.000000 0.000000 0.037857
#
#
# Mechanical properties :
#
#
# Convention : Reuss Voigt Hill
#
# Bulk Modulus (GPa) = 36.11314 59.48911 47.80113
# Shear Modulus (GPa) = 209.64028 26.66497 118.15263
#
# Velocity S-wave (km/s) = 9.25707 3.30146 6.94957
# Velocity P-wave (km/s) = 11.35867 6.23297 9.16159
#
# Compressibility (1/GPa) = 0.02769075
#
# Stress axis : x y z
#
# Youngs Moduli (GPa) = 142.47186 92.51521 44.53937
#
# Poissons Ratio (x) = 0.34146 0.14561
# Poissons Ratio (y) = 0.52585 -0.02964
# Poissons Ratio (z) = 0.46576 -0.06156
#
# Static dielectric constant tensor:
#      x y z
#    x 1.930130 0.000000 0.000000 
#    y 0.000000 1.914000 0.000000 
#    z 0.000000 0.000000 2.112030 
# 
# From -- ./inp_files/12015.got.cif
#   From: 2010.05.17/outbox.cif.g08.bks.cpg/sg73_7_cif.got.tgz:12015.got - 2010.06.03 17:35:07.
