data_PCOD9530249
_publ_section_title
;
Structure prediction by ZEFSAII (Michael W. Deem and Ramdas Pophale) SiO2 
 PCOD9530249
Probable space group: I B C A 
;
_chemical_formula_sum "Si O2"
_cell_formula_units_Z 120
_cell_length_a 9.529230
_cell_length_b 29.891109
_cell_length_c 23.582724
_cell_angle_alpha 90.000000
_cell_angle_beta 90.000000
_cell_angle_gamma 90.000000
_cell_volume 6717.285479
_symmetry_space_group_name_H-M "I B C A "
_symmetry_group_IT_number 73
_symmetry_cell_setting 'orthorhombic'
loop_
_space_group_symop_operation_xyz
x,y,z
-x,1/2-y,z
x,-y,1/2-z
1/2-x,y,-z
-x,-y,-z
x,1/2+y,-z
-x,y,1/2+z
1/2+x,-y,z
1/2+x,1/2+y,1/2+z
1/2-x,-y,1/2+z
1/2+x,1/2-y,-z
-x,1/2+y,1/2-z
1/2-x,1/2-y,1/2-z
1/2+x,y,1/2-z
1/2-x,1/2+y,z
x,1/2-y,1/2+z
loop_
_atom_site_type_symbol
_atom_site_label
_atom_site_fract_x
_atom_site_fract_y
_atom_site_fract_z
Si Si1 0.750000 0.892063 0.500000
Si Si2 0.282344 0.969193 0.620399
Si Si3 0.149557 0.416461 0.282391
Si Si4 0.849070 0.448640 0.309949
Si Si5 0.943994 0.530748 0.949396
Si Si6 0.622083 0.327748 0.285177
Si Si7 0.405289 0.792408 0.796349
Si Si8 0.208785 0.637052 0.621041
O O1 0.633491 0.926122 0.524844
O O2 0.794123 0.862051 0.553743
O O3 0.209013 0.929808 0.656090
O O4 0.414242 0.954618 0.582850
O O5 0.355932 0.002511 0.665140
O O6 0.165362 0.999672 0.587248
O O7 0.226424 0.445504 0.235056
O O8 0.168766 0.366011 0.259876
O O9 0.988354 0.430213 0.281339
O O10 0.819853 0.413782 0.360621
O O11 0.000000 0.500000 0.000000
O O12 0.476083 0.310973 0.261186
O O13 0.738471 0.288641 0.286314
O O14 0.644377 0.349488 0.347380
O O15 0.500000 0.750000 0.812680
O O16 0.401188 0.830711 0.845729
#
# Coordination Sequence:
#
# PCOD9530249 Si02
#       8
#     8  16  16  16  16  16  16  16
#     4  12  22  40  62  78 116 160 216 246 292 352
#     4  12  24  36  55  77 109 156 206 244 300 331
#     4  11  22  35  55  80 120 150 187 241 293 365
#     4  11  21  37  51  81 116 155 193 238 297 348
#     4  12  23  38  54  75 104 150 211 260 282 332
#     4   9  19  35  57  90 122 147 185 227 303 362
#     4  10  19  36  63  95 120 146 181 237 303 373
#     4   9  21  35  60  84 116 157 195 235 297 352
#
# _framework density 17.864359
#
# number of rings (size 3 to 8) (size 9 to 14) (size 15 to 20)
#    0.800    0.533    5.333    0.800    1.867    2.133 
#    0.000    0.000    0.000    0.800    3.467    0.000 
#    0.000    0.000    0.000    0.000    0.000    0.000 
#
# Total GULP energy -334052.298019 kJ/mol
# GULP energy per Si atom -5567.538300 kJ/mol
# Density = 1.782370 g / cm^3
# Si number density = 17.864359 Si / 1000 Ang^3
#
#
#
# Elastic Constant Matrix: (Units=GPa)
#
#
# Indices 1 2 3 4 5 6 
#
# 1 41.3760 -14.1177 14.9941 0.0000 0.0000 0.0000
# 2 -14.1177 30.9041 5.0636 0.0000 0.0000 0.0000
# 3 14.9941 5.0636 86.5844 -0.0001 0.0000 0.0000
# 4 0.0000 0.0000 -0.0001 15.6511 0.0000 0.0000
# 5 0.0000 0.0000 0.0000 0.0000 23.2211 0.0000
# 6 0.0000 0.0000 0.0000 0.0000 0.0000 20.1561
#
#
#
# Elastic Compliance Matrix: (Units=1/GPa)
#
#
# Indices 1 2 3 4 5 6 
#
# 1 0.031813 0.015585 -0.006421 0.000000 0.000000 0.000000
# 2 0.015585 0.040306 -0.005056 0.000000 0.000000 0.000000
# 3 -0.006421 -0.005056 0.012957 0.000000 0.000000 0.000000
# 4 0.000000 0.000000 0.000000 0.063893 0.000000 0.000000
# 5 0.000000 0.000000 0.000000 0.000000 0.043064 0.000000
# 6 0.000000 0.000000 0.000000 0.000000 0.000000 0.049613
#
#
# Mechanical properties :
#
#
# Convention : Reuss Voigt Hill
#
# Bulk Modulus (GPa) = 10.71895 18.97161 14.84528
# Shear Modulus (GPa) = 18.90163 22.00063 20.45113
#
# Velocity S-wave (km/s) = 3.25632 3.51313 3.38716
# Velocity P-wave (km/s) = 4.48903 5.20567 4.86057
#
# Compressibility (1/GPa) = 0.09329268
#
# Stress axis : x y z
#
# Youngs Moduli (GPa) = 31.43371 24.81011 77.17851
#
# Poissons Ratio (x) = -0.38666 0.49553
# Poissons Ratio (y) = -0.48989 0.39022
# Poissons Ratio (z) = 0.20182 0.12544
#
# Static dielectric constant tensor:
#      x y z
#    x 1.645530 0.000000 0.000000 
#    y 0.000000 1.630580 0.000000 
#    z 0.000000 0.000000 1.619970 
# 
# From -- ./inp_files/31496.got.cif
#   From: 2010.05.17/outbox.cif.g08.bks.cpg/sg73_16_cif.got.tgz:31496.got - 2010.06.03 17:35:07.
