data_PCOD9530794
_publ_section_title
;
Structure prediction by ZEFSAII (Michael W. Deem and Ramdas Pophale) SiO2 
 PCOD9530794
Probable space group: I B C A 
;
_chemical_formula_sum "Si O2"
_cell_formula_units_Z 120
_cell_length_a 8.765999
_cell_length_b 27.334654
_cell_length_c 29.475612
_cell_angle_alpha 90.000000
_cell_angle_beta 90.000000
_cell_angle_gamma 90.000000
_cell_volume 7062.814970
_symmetry_space_group_name_H-M "I B C A "
_symmetry_group_IT_number 73
_symmetry_cell_setting 'orthorhombic'
loop_
_space_group_symop_operation_xyz
x,y,z
-x,1/2-y,z
x,-y,1/2-z
1/2-x,y,-z
-x,-y,-z
x,1/2+y,-z
-x,y,1/2+z
1/2+x,-y,z
1/2+x,1/2+y,1/2+z
1/2-x,-y,1/2+z
1/2+x,1/2-y,-z
-x,1/2+y,1/2-z
1/2-x,1/2-y,1/2-z
1/2+x,y,1/2-z
1/2-x,1/2+y,z
x,1/2-y,1/2+z
loop_
_atom_site_type_symbol
_atom_site_label
_atom_site_fract_x
_atom_site_fract_y
_atom_site_fract_z
Si Si1 0.635933 0.395089 0.457630
Si Si2 0.090546 0.698795 0.064168
Si Si3 0.838161 0.453412 0.042454
Si Si4 0.254819 0.539206 0.814668
Si Si5 0.671980 0.961661 0.390034
Si Si6 0.552410 0.804741 0.041794
Si Si7 0.875589 0.601936 0.612671
Si Si8 0.005381 0.500000 0.750000
O O1 0.750000 0.387826 0.500000
O O2 0.486327 0.424605 0.473447
O O3 0.715514 0.426515 0.418098
O O4 0.564325 0.344600 0.438690
O O5 0.275009 0.697440 0.059916
O O6 0.064118 0.655785 0.100427
O O7 0.000000 0.750000 0.073732
O O8 0.044843 0.685106 0.012514
O O9 0.884355 0.496258 0.075833
O O10 0.721431 0.417822 0.069367
O O11 0.750000 0.475198 0.000000
O O12 0.246489 0.492405 0.849070
O O13 0.267429 0.588256 0.844752
O O14 0.109648 0.533522 0.782209
O O15 0.399003 0.532319 0.782217
O O16 0.523516 0.930972 0.377756
O O17 0.500000 0.750000 0.048598
#
# Coordination Sequence:
#
# PCOD9530794 Si02
#       8
#    16  16  16  16  16  16  16   8
#     4  12  24  34  52  76 107 157 200 240 280 328
#     4  10  21  36  56  74 104 146 194 247 290 326
#     4  11  21  35  48  71 109 152 194 228 271 325
#     4  10  21  37  59  85 115 144 175 224 274 347
#     4  11  23  34  52  78 113 148 185 229 274 332
#     4  10  22  36  51  73 102 147 203 252 283 321
#     4  11  21  36  54  79 112 145 187 233 283 330
#     4  10  20  38  60  84 114 142 178 212 280 352
#
# _framework density 16.990392
#
# number of rings (size 3 to 8) (size 9 to 14) (size 15 to 20)
#    0.000    1.333    2.667    4.400    7.467    1.600 
#    0.000    0.000    0.000    0.000    0.000    0.933 
#    0.000    0.000    0.000    0.000    0.000    0.000 
#
# Total GULP energy -334636.379172 kJ/mol
# GULP energy per Si atom -5577.272986 kJ/mol
# Density = 1.695172 g / cm^3
# Si number density = 16.990392 Si / 1000 Ang^3
#
#
#
# Elastic Constant Matrix: (Units=GPa)
#
#
# Indices 1 2 3 4 5 6 
#
# 1 66.0217 32.9509 24.8997 0.0000 0.0000 0.0000
# 2 32.9509 106.2712 29.3808 0.0000 0.0000 0.0000
# 3 24.8997 29.3808 64.9401 0.0000 0.0000 0.0000
# 4 0.0000 0.0000 0.0000 42.4419 0.0000 0.0000
# 5 0.0000 0.0000 0.0000 0.0000 22.4285 0.0000
# 6 0.0000 0.0000 0.0000 0.0000 0.0000 27.3959
#
#
#
# Elastic Compliance Matrix: (Units=1/GPa)
#
#
# Indices 1 2 3 4 5 6 
#
# 1 0.019449 -0.004536 -0.005405 0.000000 0.000000 0.000000
# 2 -0.004536 0.011813 -0.003605 0.000000 0.000000 0.000000
# 3 -0.005405 -0.003605 0.019102 0.000000 0.000000 0.000000
# 4 0.000000 0.000000 0.000000 0.023562 0.000000 0.000000
# 5 0.000000 0.000000 0.000000 0.000000 0.044586 0.000000
# 6 0.000000 0.000000 0.000000 0.000000 0.000000 0.036502
#
#
# Mechanical properties :
#
#
# Convention : Reuss Voigt Hill
#
# Bulk Modulus (GPa) = 42.97080 45.74397 44.35738
# Shear Modulus (GPa) = 26.33463 28.45336 27.39399
#
# Velocity S-wave (km/s) = 3.94124 4.09672 4.01973
# Velocity P-wave (km/s) = 6.78655 7.02562 6.90712
#
# Compressibility (1/GPa) = 0.02327162
#
# Stress axis : x y z
#
# Youngs Moduli (GPa) = 51.41669 84.65144 52.34946
#
# Poissons Ratio (x) = 0.38399 0.28295
# Poissons Ratio (y) = 0.23323 0.18874
# Poissons Ratio (z) = 0.27791 0.30520
#
# Static dielectric constant tensor:
#      x y z
#    x 1.625210 0.000000 0.000000 
#    y 0.000000 1.602830 0.000000 
#    z 0.000000 0.000000 1.568820 
# 
# From -- ./inp_files/33704.got.cif
#   From: 2010.05.17/outbox.cif.g08.bks.cpg/sg73_17_cif.got.tgz:33704.got - 2010.06.03 17:35:07.
