data_PCOD9530134
_publ_section_title
;
Structure prediction by ZEFSAII (Michael W. Deem and Ramdas Pophale) SiO2 
 PCOD9530134
Probable space group: I B C A 
;
_chemical_formula_sum "Si O2"
_cell_formula_units_Z 120
_cell_length_a 9.240076
_cell_length_b 24.224239
_cell_length_c 29.358877
_cell_angle_alpha 90.000000
_cell_angle_beta 90.000000
_cell_angle_gamma 90.000000
_cell_volume 6571.509279
_symmetry_space_group_name_H-M "I B C A "
_symmetry_group_IT_number 73
_symmetry_cell_setting 'orthorhombic'
loop_
_space_group_symop_operation_xyz
x,y,z
-x,1/2-y,z
x,-y,1/2-z
1/2-x,y,-z
-x,-y,-z
x,1/2+y,-z
-x,y,1/2+z
1/2+x,-y,z
1/2+x,1/2+y,1/2+z
1/2-x,-y,1/2+z
1/2+x,1/2-y,-z
-x,1/2+y,1/2-z
1/2-x,1/2-y,1/2-z
1/2+x,y,1/2-z
1/2-x,1/2+y,z
x,1/2-y,1/2+z
loop_
_atom_site_type_symbol
_atom_site_label
_atom_site_fract_x
_atom_site_fract_y
_atom_site_fract_z
Si Si1 0.041583 0.500000 0.750000
Si Si2 0.451620 0.412153 0.319074
Si Si3 0.240332 0.061581 0.945961
Si Si4 0.165575 0.730729 0.189306
Si Si5 0.996743 0.492644 0.107292
Si Si6 0.695482 0.644876 0.374455
Si Si7 0.552463 0.081709 0.177512
Si Si8 0.298649 0.841037 0.222141
O O1 0.116809 0.457523 0.715310
O O2 0.969738 0.543685 0.715325
O O3 0.547156 0.448128 0.354738
O O4 0.330510 0.383054 0.348730
O O5 0.550385 0.368984 0.291920
O O6 0.205920 0.122194 0.925373
O O7 0.119597 0.023092 0.921572
O O8 0.390828 0.038983 0.926427
O O9 0.250000 0.059880 0.000000
O O10 0.192419 0.708520 0.138608
O O11 0.267035 0.783026 0.197584
O O12 0.199834 0.681123 0.225592
O O13 0.000000 0.750000 0.196889
O O14 0.909007 0.537890 0.137677
O O15 0.552611 0.622497 0.349076
O O16 0.676661 0.115750 0.204046
#
# Coordination Sequence:
#
# PCOD9530134 Si02
#       8
#     8  16  16  16  16  16  16  16
#     4  10  20  30  48  70 106 144 170 198 244 302
#     4  10  21  33  50  77 107 143 173 215 255 308
#     4  10  19  34  56  82 106 139 170 216 268 329
#     4  11  23  37  53  76 102 142 188 229 269 302
#     4   9  19  33  54  81 114 138 172 208 266 324
#     4  10  21  36  52  74 104 133 178 222 265 314
#     4  10  19  34  49  74 105 144 174 210 254 307
#     4  11  23  34  54  74 104 141 186 221 252 298
#
# _framework density 18.260645
#
# number of rings (size 3 to 8) (size 9 to 14) (size 15 to 20)
#    0.000    1.867    1.333    2.800    3.733    4.267 
#    0.000    0.000    0.000    0.000    6.933    0.933 
#    0.000    0.000    0.000    0.000    0.000    0.000 
#
# Total GULP energy -334009.563555 kJ/mol
# GULP energy per Si atom -5566.826059 kJ/mol
# Density = 1.821908 g / cm^3
# Si number density = 18.260645 Si / 1000 Ang^3
#
#
#
# Elastic Constant Matrix: (Units=GPa)
#
#
# Indices 1 2 3 4 5 6 
#
# 1 36.8090 -2.5800 4.1957 0.0000 0.0000 0.0000
# 2 -2.5800 59.3663 34.2696 0.0000 0.0000 0.0000
# 3 4.1957 34.2696 100.6373 0.0000 0.0000 0.0000
# 4 0.0000 0.0000 0.0000 23.8007 0.0000 0.0000
# 5 0.0000 0.0000 0.0000 0.0000 18.5056 0.0000
# 6 0.0000 0.0000 0.0000 0.0000 0.0000 12.3976
#
#
#
# Elastic Compliance Matrix: (Units=1/GPa)
#
#
# Indices 1 2 3 4 5 6 
#
# 1 0.027550 0.002315 -0.001937 0.000000 0.000000 0.000000
# 2 0.002315 0.021160 -0.007302 0.000000 0.000000 0.000000
# 3 -0.001937 -0.007302 0.012504 0.000000 0.000000 0.000000
# 4 0.000000 0.000000 0.000000 0.042016 0.000000 0.000000
# 5 0.000000 0.000000 0.000000 0.000000 0.054038 0.000000
# 6 0.000000 0.000000 0.000000 0.000000 0.000000 0.080661
#
#
# Mechanical properties :
#
#
# Convention : Reuss Voigt Hill
#
# Bulk Modulus (GPa) = 21.11165 29.84258 25.47712
# Shear Modulus (GPa) = 18.68701 21.66926 20.17814
#
# Velocity S-wave (km/s) = 3.20245 3.44854 3.32777
# Velocity P-wave (km/s) = 5.02600 5.67755 5.36168
#
# Compressibility (1/GPa) = 0.04736720
#
# Stress axis : x y z
#
# Youngs Moduli (GPa) = 36.29719 47.25793 79.97419
#
# Poissons Ratio (x) = -0.10943 0.15492
# Poissons Ratio (y) = -0.08405 0.58399
# Poissons Ratio (z) = 0.07031 0.34509
#
# Static dielectric constant tensor:
#      x y z
#    x 1.650700 0.000000 0.000000 
#    y 0.000000 1.675120 0.000000 
#    z 0.000000 0.000000 1.644180 
# 
# From -- ./inp_files/31397.got.cif
#   From: 2010.05.17/outbox.cif.g08.bks.cpg/sg73_16_cif.got.tgz:31397.got - 2010.06.03 17:35:07.
