data_PCOD9530924
_publ_section_title
;
Structure prediction by ZEFSAII (Michael W. Deem and Ramdas Pophale) SiO2 
 PCOD9530924
Probable space group: I B C A 
;
_chemical_formula_sum "Si O2"
_cell_formula_units_Z 64
_cell_length_a 15.249519
_cell_length_b 15.469387
_cell_length_c 11.167626
_cell_angle_alpha 90.000000
_cell_angle_beta 90.000000
_cell_angle_gamma 90.000000
_cell_volume 2634.450913
_symmetry_space_group_name_H-M "I B C A "
_symmetry_group_IT_number 73
_symmetry_cell_setting 'orthorhombic'
loop_
_space_group_symop_operation_xyz
x,y,z
-x,1/2-y,z
x,-y,1/2-z
1/2-x,y,-z
-x,-y,-z
x,1/2+y,-z
-x,y,1/2+z
1/2+x,-y,z
1/2+x,1/2+y,1/2+z
1/2-x,-y,1/2+z
1/2+x,1/2-y,-z
-x,1/2+y,1/2-z
1/2-x,1/2-y,1/2-z
1/2+x,y,1/2-z
1/2-x,1/2+y,z
x,1/2-y,1/2+z
loop_
_atom_site_type_symbol
_atom_site_label
_atom_site_fract_x
_atom_site_fract_y
_atom_site_fract_z
Si Si1 0.502185 0.929580 0.121674
Si Si2 0.226896 0.213006 0.878631
Si Si3 0.544358 0.383989 0.126379
Si Si4 0.700430 0.525966 0.617928
O O1 0.498459 0.874570 0.242943
O O2 0.595323 0.980894 0.119071
O O3 0.435776 0.011524 0.124878
O O4 0.494561 0.874431 0.000418
O O5 0.250000 0.250000 0.750000
O O6 0.127996 0.177540 0.877487
O O7 0.287017 0.128473 0.889338
O O8 0.250000 0.265680 0.000000
O O9 0.733644 0.500000 0.750000
O O10 0.750000 0.489590 0.500000
#
# Coordination Sequence:
#
# PCOD9530924 Si02
#       4
#    16  16  16  16
#     4  10  20  39  67 104 133 169 223 292 363 408
#     4  11  25  47  67  95 141 191 238 287 352 440
#     4  10  20  39  68  96 140 170 224 289 351 427
#     4  11  22  41  69 104 139 177 238 296 353 421
#
# _framework density 24.293488
#
# number of rings (size 3 to 8) (size 9 to 14) (size 15 to 20)
#    0.000    1.500    7.500    0.000    3.500    1.000 
#    4.500    1.250    0.000    0.000    0.000    0.000 
#    0.000    0.000    0.000    0.000    0.000    0.000 
#
# Total GULP energy -178282.299163 kJ/mol
# GULP energy per Si atom -5571.321849 kJ/mol
# Density = 2.423819 g / cm^3
# Si number density = 24.293488 Si / 1000 Ang^3
#
#
#
# Elastic Constant Matrix: (Units=GPa)
#
#
# Indices 1 2 3 4 5 6 
#
# 1 82.3840 8.5226 68.0005 0.0000 0.0000 0.0000
# 2 8.5226 33.7151 32.0951 0.0000 0.0000 0.0000
# 3 68.0005 32.0951 345.3578 0.0000 0.0000 0.0000
# 4 0.0000 0.0000 0.0000 22.7356 0.0000 0.0000
# 5 0.0000 0.0000 0.0000 0.0000 43.2290 0.0000
# 6 0.0000 0.0000 0.0000 0.0000 0.0000 15.9642
#
#
#
# Elastic Compliance Matrix: (Units=1/GPa)
#
#
# Indices 1 2 3 4 5 6 
#
# 1 0.014527 -0.001041 -0.002764 0.000000 0.000000 0.000000
# 2 -0.001041 0.032614 -0.002826 0.000000 0.000000 0.000000
# 3 -0.002764 -0.002826 0.003702 0.000000 0.000000 0.000000
# 4 0.000000 0.000000 0.000000 0.043984 0.000000 0.000000
# 5 0.000000 0.000000 0.000000 0.000000 0.023133 0.000000
# 6 0.000000 0.000000 0.000000 0.000000 0.000000 0.062640
#
#
# Mechanical properties :
#
#
# Convention : Reuss Voigt Hill
#
# Bulk Modulus (GPa) = 26.60890 75.41036 51.00963
# Shear Modulus (GPa) = 24.22615 39.90833 32.06724
#
# Velocity S-wave (km/s) = 3.16132 4.05749 3.63711
# Velocity P-wave (km/s) = 4.92972 7.28421 6.21940
#
# Compressibility (1/GPa) = 0.03758141
#
# Stress axis : x y z
#
# Youngs Moduli (GPa) = 68.83687 30.66204 270.10190
#
# Poissons Ratio (x) = 0.03193 0.74645
# Poissons Ratio (y) = 0.07169 0.76326
# Poissons Ratio (z) = 0.19024 0.08665
#
# Static dielectric constant tensor:
#      x y z
#    x 2.082130 0.000000 0.000000 
#    y 0.000000 1.954470 0.000000 
#    z 0.000000 0.000000 2.228550 
# 
# From -- ./inp_files/11589.got.cif
#   From: 2010.05.17/outbox.cif.g08.bks.cpg/sg73_6_cif.got.tgz:11589.got - 2010.06.03 17:35:07.
