data_PCOD9530173
_publ_section_title
;
Structure prediction by ZEFSAII (Michael W. Deem and Ramdas Pophale) SiO2 
 PCOD9530173
Probable space group: I B C A 
;
_chemical_formula_sum "Si O2"
_cell_formula_units_Z 112
_cell_length_a 19.098032
_cell_length_b 17.461566
_cell_length_c 17.178653
_cell_angle_alpha 90.000000
_cell_angle_beta 90.000000
_cell_angle_gamma 90.000000
_cell_volume 5728.763765
_symmetry_space_group_name_H-M "I B C A "
_symmetry_group_IT_number 73
_symmetry_cell_setting 'orthorhombic'
loop_
_space_group_symop_operation_xyz
x,y,z
-x,1/2-y,z
x,-y,1/2-z
1/2-x,y,-z
-x,-y,-z
x,1/2+y,-z
-x,y,1/2+z
1/2+x,-y,z
1/2+x,1/2+y,1/2+z
1/2-x,-y,1/2+z
1/2+x,1/2-y,-z
-x,1/2+y,1/2-z
1/2-x,1/2-y,1/2-z
1/2+x,y,1/2-z
1/2-x,1/2+y,z
x,1/2-y,1/2+z
loop_
_atom_site_type_symbol
_atom_site_label
_atom_site_fract_x
_atom_site_fract_y
_atom_site_fract_z
Si Si1 0.581113 0.419488 0.172919
Si Si2 0.938470 0.082790 0.725010
Si Si3 0.318354 0.656523 0.719361
Si Si4 0.020162 0.948809 0.926122
Si Si5 0.927916 0.712880 0.908456
Si Si6 0.831636 0.311440 0.310119
Si Si7 0.418301 0.770649 0.432958
O O1 0.510360 0.406333 0.224654
O O2 0.645168 0.411062 0.232473
O O3 0.570749 0.498617 0.127288
O O4 0.588955 0.351930 0.109658
O O5 0.884094 0.147386 0.749944
O O6 0.958721 0.074680 0.634550
O O7 0.909690 0.000000 0.750000
O O8 0.372182 0.688610 0.655314
O O9 0.241354 0.643260 0.685139
O O10 0.313228 0.726692 0.779989
O O11 0.052300 0.867651 0.949810
O O12 0.000000 0.000000 0.000000
O O13 0.000000 0.750000 0.875403
O O14 0.900724 0.769005 0.975695
O O15 0.873186 0.294082 0.389102
O O16 0.500000 0.750000 0.426396
#
# Coordination Sequence:
#
# PCOD9530173 Si02
#       7
#    16  16  16  16  16  16  16
#     4  10  20  38  59  87 115 157 194 251 299 355
#     4  10  20  35  59  86 113 157 197 244 296 354
#     4  10  22  37  59  87 117 156 204 250 307 362
#     4  11  22  36  59  90 127 146 203 257 298 357
#     4  11  22  35  58  91 117 161 201 250 307 360
#     4  10  21  38  58  86 118 154 204 254 298 369
#     4  10  19  34  62  85 116 152 203 245 304 354
#
# _framework density 19.550466
#
# number of rings (size 3 to 8) (size 9 to 14) (size 15 to 20)
#    0.000    1.714    2.857    2.571    2.000    0.571 
#    2.571    0.000    0.000    2.571    0.000    0.000 
#    0.000    0.000    0.000    0.000    0.000    0.000 
#
# Total GULP energy -312350.419301 kJ/mol
# GULP energy per Si atom -5577.686059 kJ/mol
# Density = 1.950597 g / cm^3
# Si number density = 19.550466 Si / 1000 Ang^3
#
#
#
# Elastic Constant Matrix: (Units=GPa)
#
#
# Indices 1 2 3 4 5 6 
#
# 1 86.4637 24.0385 29.2913 0.0000 0.0000 0.0000
# 2 24.0385 76.9384 14.0672 0.0000 0.0000 0.0000
# 3 29.2913 14.0672 91.6804 0.0000 0.0000 0.0000
# 4 0.0000 0.0000 0.0000 41.8217 0.0000 0.0000
# 5 0.0000 0.0000 0.0000 0.0000 10.9123 0.0000
# 6 0.0000 0.0000 0.0000 0.0000 0.0000 16.9354
#
#
#
# Elastic Compliance Matrix: (Units=1/GPa)
#
#
# Indices 1 2 3 4 5 6 
#
# 1 0.013889 -0.003630 -0.003881 0.000000 0.000000 0.000000
# 2 -0.003630 0.014321 -0.001038 0.000000 0.000000 0.000000
# 3 -0.003881 -0.001038 0.012306 0.000000 0.000000 0.000000
# 4 0.000000 0.000000 0.000000 0.023911 0.000000 0.000000
# 5 0.000000 0.000000 0.000000 0.000000 0.091640 0.000000
# 6 0.000000 0.000000 0.000000 0.000000 0.000000 0.059048
#
#
# Mechanical properties :
#
#
# Convention : Reuss Voigt Hill
#
# Bulk Modulus (GPa) = 42.69744 43.31961 43.00853
# Shear Modulus (GPa) = 20.83163 26.44625 23.63894
#
# Velocity S-wave (km/s) = 3.26779 3.68192 3.48102
# Velocity P-wave (km/s) = 6.01040 6.34676 6.18087
#
# Compressibility (1/GPa) = 0.02342061
#
# Stress axis : x y z
#
# Youngs Moduli (GPa) = 71.99736 69.82611 81.25795
#
# Poissons Ratio (x) = 0.25347 0.31533
# Poissons Ratio (y) = 0.26135 0.08432
# Poissons Ratio (z) = 0.27939 0.07245
#
# Static dielectric constant tensor:
#      x y z
#    x 1.699460 0.000000 0.000000 
#    y 0.000000 1.715000 0.000000 
#    z 0.000000 0.000000 1.718810 
# 
# From -- ./inp_files/23284.got.cif
#   From: 2010.05.17/outbox.cif.g08.bks.cpg/sg73_12_cif.got.tgz:23284.got - 2010.06.03 17:35:07.
