data_PCOD9530409
_publ_section_title
;
Structure prediction by ZEFSAII (Michael W. Deem and Ramdas Pophale) SiO2 
 PCOD9530409
Probable space group: I B C A 
;
_chemical_formula_sum "Si O2"
_cell_formula_units_Z 80
_cell_length_a 8.846076
_cell_length_b 22.469381
_cell_length_c 20.710666
_cell_angle_alpha 90.000000
_cell_angle_beta 90.000000
_cell_angle_gamma 90.000000
_cell_volume 4116.573173
_symmetry_space_group_name_H-M "I B C A "
_symmetry_group_IT_number 73
_symmetry_cell_setting 'orthorhombic'
loop_
_space_group_symop_operation_xyz
x,y,z
-x,1/2-y,z
x,-y,1/2-z
1/2-x,y,-z
-x,-y,-z
x,1/2+y,-z
-x,y,1/2+z
1/2+x,-y,z
1/2+x,1/2+y,1/2+z
1/2-x,-y,1/2+z
1/2+x,1/2-y,-z
-x,1/2+y,1/2-z
1/2-x,1/2-y,1/2-z
1/2+x,y,1/2-z
1/2-x,1/2+y,z
x,1/2-y,1/2+z
loop_
_atom_site_type_symbol
_atom_site_label
_atom_site_fract_x
_atom_site_fract_y
_atom_site_fract_z
Si Si1 0.500000 0.750000 0.239214
Si Si2 0.977106 0.000000 0.250000
Si Si3 0.699211 0.079319 0.570926
Si Si4 0.270942 0.080203 0.691929
Si Si5 0.738915 0.169953 0.691355
Si Si6 0.654609 0.047718 0.064711
O O1 0.408132 0.793015 0.287604
O O2 0.382240 0.714337 0.193747
O O3 0.872527 0.961210 0.295767
O O4 0.080656 0.957776 0.207849
O O5 0.750000 0.102090 0.500000
O O6 0.718331 0.127568 0.628675
O O7 0.525338 0.057404 0.561841
O O8 0.800684 0.020230 0.585161
O O9 0.265254 0.129653 0.745592
O O10 0.283045 0.094387 0.617415
O O11 0.750000 0.056595 0.000000
#
# Coordination Sequence:
#
# PCOD9530409 Si02
#       6
#     8   8  16  16  16  16
#     4  10  24  42  62  86 108 144 206 270 300 328
#     4  10  20  30  52  88 118 144 192 226 266 354
#     4  11  23  39  59  88 125 160 191 231 290 359
#     4  11  20  34  56  85 118 156 188 228 283 345
#     4  11  23  41  63  85 115 152 201 253 301 343
#     4  11  22  35  55  90 131 160 190 226 276 360
#
# _framework density 19.43364
#
# number of rings (size 3 to 8) (size 9 to 14) (size 15 to 20)
#    0.000    1.200    0.000    9.600    0.000    4.800 
#    0.000    1.000    0.000    4.800    0.000    0.000 
#    0.000    0.000    0.000    0.000    0.000    0.000 
#
# Total GULP energy -223350.125170 kJ/mol
# GULP energy per Si atom -5583.753129 kJ/mol
# Density = 1.938941 g / cm^3
# Si number density = 19.433640 Si / 1000 Ang^3
#
#
#
# Elastic Constant Matrix: (Units=GPa)
#
#
# Indices 1 2 3 4 5 6 
#
# 1 141.3231 41.9148 48.1490 0.0000 0.0000 0.0000
# 2 41.9148 44.5324 42.6002 0.0000 0.0000 0.0000
# 3 48.1490 42.6002 137.2938 0.0000 0.0000 0.0000
# 4 0.0000 0.0000 0.0000 30.2111 0.0000 0.0000
# 5 0.0000 0.0000 0.0000 0.0000 450.4836 0.0000
# 6 0.0000 0.0000 0.0000 0.0000 0.0000 30.0738
#
#
#
# Elastic Compliance Matrix: (Units=1/GPa)
#
#
# Indices 1 2 3 4 5 6 
#
# 1 0.009881 -0.008512 -0.000824 0.000000 0.000000 0.000000
# 2 -0.008512 0.039267 -0.009199 0.000000 0.000000 0.000000
# 3 -0.000824 -0.009199 0.010427 0.000000 0.000000 0.000000
# 4 0.000000 0.000000 0.000000 0.033100 0.000000 0.000000
# 5 0.000000 0.000000 0.000000 0.000000 0.002220 0.000000
# 6 0.000000 0.000000 0.000000 0.000000 0.000000 0.033252
#
#
# Mechanical properties :
#
#
# Convention : Reuss Voigt Hill
#
# Bulk Modulus (GPa) = 44.43429 65.38637 54.91033
# Shear Modulus (GPa) = 28.94875 114.85271 71.90073
#
# Velocity S-wave (km/s) = 3.86375 7.69599 6.08920
# Velocity P-wave (km/s) = 6.54362 10.61556 8.81785
#
# Compressibility (1/GPa) = 0.02250514
#
# Stress axis : x y z
#
# Youngs Moduli (GPa) = 101.20041 25.46668 95.90528
#
# Poissons Ratio (x) = 0.21677 0.07905
# Poissons Ratio (y) = 0.86143 0.88221
# Poissons Ratio (z) = 0.08341 0.23426
#
# Static dielectric constant tensor:
#      x y z
#    x 1.723700 0.000000 0.000000 
#    y 0.000000 1.710080 0.000000 
#    z 0.000000 0.000000 1.736300 
# 
# From -- ./inp_files/24760.got.cif
#   From: 2010.05.17/outbox.cif.g08.bks.cpg/sg73_13_cif.got.tgz:24760.got - 2010.06.03 17:35:07.
