data_PCOD9530135
_publ_section_title
;
Structure prediction by ZEFSAII (Michael W. Deem and Ramdas Pophale) SiO2 
 PCOD9530135
Probable space group: I B C A 
;
_chemical_formula_sum "Si O2"
_cell_formula_units_Z 128
_cell_length_a 10.355367
_cell_length_b 27.535183
_cell_length_c 21.536917
_cell_angle_alpha 90.000000
_cell_angle_beta 90.000000
_cell_angle_gamma 90.000000
_cell_volume 6140.970295
_symmetry_space_group_name_H-M "I B C A "
_symmetry_group_IT_number 73
_symmetry_cell_setting 'orthorhombic'
loop_
_space_group_symop_operation_xyz
x,y,z
-x,1/2-y,z
x,-y,1/2-z
1/2-x,y,-z
-x,-y,-z
x,1/2+y,-z
-x,y,1/2+z
1/2+x,-y,z
1/2+x,1/2+y,1/2+z
1/2-x,-y,1/2+z
1/2+x,1/2-y,-z
-x,1/2+y,1/2-z
1/2-x,1/2-y,1/2-z
1/2+x,y,1/2-z
1/2-x,1/2+y,z
x,1/2-y,1/2+z
loop_
_atom_site_type_symbol
_atom_site_label
_atom_site_fract_x
_atom_site_fract_y
_atom_site_fract_z
Si Si1 0.787493 0.837552 0.310980
Si Si2 0.975815 0.451911 0.788106
Si Si3 0.296375 0.042245 0.101900
Si Si4 0.537333 0.348022 0.750590
Si Si5 0.778425 0.060359 0.870853
Si Si6 0.443913 0.303131 0.120675
Si Si7 0.944860 0.447961 0.021923
Si Si8 0.884723 0.873638 0.520935
O O1 0.689934 0.835871 0.251044
O O2 0.933464 0.823979 0.295843
O O3 0.779169 0.893307 0.334950
O O4 0.709382 0.805889 0.361615
O O5 0.942832 0.500000 0.750000
O O6 0.858443 0.438600 0.834738
O O7 0.013081 0.405537 0.746849
O O8 0.104922 0.460498 0.828909
O O9 0.367854 0.064366 0.042032
O O10 0.313182 0.983707 0.109558
O O11 0.147974 0.047442 0.081068
O O12 0.499802 0.331529 0.680352
O O13 0.843778 0.083659 0.931349
O O14 0.500000 0.250000 0.117160
O O15 0.463779 0.334166 0.058919
O O16 0.041939 0.403377 0.031697
O O17 0.000000 0.500000 0.000000
O O18 0.750000 0.851208 0.500000
#
# Coordination Sequence:
#
# PCOD9530135 Si02
#       8
#    16  16  16  16  16  16  16  16
#     4   8  18  33  56  84 117 152 197 238 300 355
#     4  11  21  34  51  77 122 165 197 238 298 358
#     4  11  20  31  52  78 116 152 209 235 291 347
#     4   9  18  36  55  84 120 156 199 239 296 371
#     4  10  19  34  49  83 119 159 197 244 281 357
#     4   9  20  38  64  85 114 147 195 259 314 367
#     4  11  20  33  53  83 113 151 196 252 291 343
#     4  11  20  38  62  83 115 153 201 251 308 370
#
# _framework density 20.843612
#
# number of rings (size 3 to 8) (size 9 to 14) (size 15 to 20)
#    0.750    1.250    3.750    1.500    0.000    3.000 
#    0.000    3.750    5.500    0.000    0.000    0.000 
#    0.000    0.000    0.000    0.000    0.000    0.000 
#
# Total GULP energy -356457.381077 kJ/mol
# GULP energy per Si atom -5569.646579 kJ/mol
# Density = 2.079617 g / cm^3
# Si number density = 20.843612 Si / 1000 Ang^3
#
#
#
# Elastic Constant Matrix: (Units=GPa)
#
#
# Indices 1 2 3 4 5 6 
#
# 1 38.5062 5.3480 10.7298 0.0000 0.0000 0.0000
# 2 5.3480 62.5303 -4.2699 0.0000 0.0000 0.0000
# 3 10.7298 -4.2699 39.8066 0.0000 0.0000 0.0000
# 4 0.0000 0.0000 0.0000 10.3934 0.0000 0.0000
# 5 0.0000 0.0000 0.0000 0.0000 36.3176 0.0000
# 6 0.0000 0.0000 0.0000 0.0000 0.0000 11.5157
#
#
#
# Elastic Compliance Matrix: (Units=1/GPa)
#
#
# Indices 1 2 3 4 5 6 
#
# 1 0.028626 -0.002997 -0.008038 0.000000 0.000000 0.000000
# 2 -0.002997 0.016424 0.002570 0.000000 0.000000 0.000000
# 3 -0.008038 0.002570 0.027564 0.000000 0.000000 0.000000
# 4 0.000000 0.000000 0.000000 0.096215 0.000000 0.000000
# 5 0.000000 0.000000 0.000000 0.000000 0.027535 0.000000
# 6 0.000000 0.000000 0.000000 0.000000 0.000000 0.086838
#
#
# Mechanical properties :
#
#
# Convention : Reuss Voigt Hill
#
# Bulk Modulus (GPa) = 17.95867 18.27321 18.11594
# Shear Modulus (GPa) = 15.68910 20.24768 17.96839
#
# Velocity S-wave (km/s) = 2.74652 3.12013 2.93927
# Velocity P-wave (km/s) = 4.32348 4.66541 4.49770
#
# Compressibility (1/GPa) = 0.05568340
#
# Stress axis : x y z
#
# Youngs Moduli (GPa) = 34.93356 60.88634 36.27969
#
# Poissons Ratio (x) = 0.18248 0.29160
# Poissons Ratio (y) = 0.10470 -0.09322
# Poissons Ratio (z) = 0.28078 -0.15645
#
# Static dielectric constant tensor:
#      x y z
#    x 1.864230 0.000000 0.000000 
#    y 0.000000 1.715800 0.000000 
#    z 0.000000 0.000000 1.788160 
# 
# From -- ./inp_files/29180.got.cif
#   From: 2010.05.17/outbox.cif.g08.bks.cpg/sg73_15_cif.got.tgz:29180.got - 2010.06.03 17:35:07.
