data_PCOD9530378
_publ_section_title
;
Structure prediction by ZEFSAII (Michael W. Deem and Ramdas Pophale) SiO2 
 PCOD9530378
Probable space group: I B C A 
;
_chemical_formula_sum "Si O2"
_cell_formula_units_Z 64
_cell_length_a 17.279683
_cell_length_b 13.458910
_cell_length_c 13.820453
_cell_angle_alpha 90.000000
_cell_angle_beta 90.000000
_cell_angle_gamma 90.000000
_cell_volume 3214.163303
_symmetry_space_group_name_H-M "I B C A "
_symmetry_group_IT_number 73
_symmetry_cell_setting 'orthorhombic'
loop_
_space_group_symop_operation_xyz
x,y,z
-x,1/2-y,z
x,-y,1/2-z
1/2-x,y,-z
-x,-y,-z
x,1/2+y,-z
-x,y,1/2+z
1/2+x,-y,z
1/2+x,1/2+y,1/2+z
1/2-x,-y,1/2+z
1/2+x,1/2-y,-z
-x,1/2+y,1/2-z
1/2-x,1/2-y,1/2-z
1/2+x,y,1/2-z
1/2-x,1/2+y,z
x,1/2-y,1/2+z
loop_
_atom_site_type_symbol
_atom_site_label
_atom_site_fract_x
_atom_site_fract_y
_atom_site_fract_z
Si Si1 0.385211 0.923480 0.540236
Si Si2 0.750000 0.433730 0.500000
Si Si3 0.000000 0.750000 0.259650
Si Si4 0.616611 0.194124 0.923026
Si Si5 0.981478 0.907425 0.598548
O O1 0.367263 0.810140 0.559915
O O2 0.429959 0.921381 0.436508
O O3 0.310705 0.992125 0.548406
O O4 0.446132 0.982706 0.607408
O O5 0.803120 0.366145 0.570155
O O6 0.934572 0.800538 0.326479
O O7 0.970352 0.663167 0.189185
O O8 0.562933 0.148221 0.009051
#
# Coordination Sequence:
#
# PCOD9530378 Si02
#       5
#    16   8   8  16  16
#     4  10  19  41  63  89 126 174 206 264 325 392
#     4  10  24  38  66  88 132 176 208 254 338 398
#     4  12  20  38  70  96 122 164 216 282 310 378
#     4  11  21  42  65  94 125 172 213 269 332 375
#     4  10  21  38  66  96 123 158 225 271 316 382
#
# _framework density 19.91187
#
# number of rings (size 3 to 8) (size 9 to 14) (size 15 to 20)
#    0.000    1.500    5.000    0.750    0.000    1.000 
#    0.000    5.000   11.000    0.000    0.000    0.000 
#    0.000    0.000    0.000    0.000    0.000    0.000 
#
# Total GULP energy -178351.892369 kJ/mol
# GULP energy per Si atom -5573.496637 kJ/mol
# Density = 1.986655 g / cm^3
# Si number density = 19.911870 Si / 1000 Ang^3
#
#
#
# Elastic Constant Matrix: (Units=GPa)
#
#
# Indices 1 2 3 4 5 6 
#
# 1 110.0794 52.8704 41.1621 0.0000 0.0000 0.0000
# 2 52.8704 165.9300 35.2149 0.0000 0.0000 0.0000
# 3 41.1621 35.2149 90.7367 0.0000 0.0000 0.0000
# 4 0.0000 0.0000 0.0000 19.5469 0.0000 0.0000
# 5 0.0000 0.0000 0.0000 0.0000 4.0381 0.0000
# 6 0.0000 0.0000 0.0000 0.0000 0.0000 51.3754
#
#
#
# Elastic Compliance Matrix: (Units=1/GPa)
#
#
# Indices 1 2 3 4 5 6 
#
# 1 0.012126 -0.002938 -0.004361 0.000000 0.000000 0.000000
# 2 -0.002938 0.007280 -0.001492 0.000000 0.000000 0.000000
# 3 -0.004361 -0.001492 0.013578 0.000000 0.000000 0.000000
# 4 0.000000 0.000000 0.000000 0.051159 0.000000 0.000000
# 5 0.000000 0.000000 0.000000 0.000000 0.247639 0.000000
# 6 0.000000 0.000000 0.000000 0.000000 0.000000 0.019465
#
#
# Mechanical properties :
#
#
# Convention : Reuss Voigt Hill
#
# Bulk Modulus (GPa) = 64.92832 69.47121 67.19977
# Shear Modulus (GPa) = 13.37031 30.82533 22.09782
#
# Velocity S-wave (km/s) = 2.59409 3.93884 3.33495
# Velocity P-wave (km/s) = 6.45376 7.45996 6.97503
#
# Compressibility (1/GPa) = 0.01540160
#
# Stress axis : x y z
#
# Youngs Moduli (GPa) = 82.46616 137.37066 73.64745
#
# Poissons Ratio (x) = 0.40364 0.32115
# Poissons Ratio (y) = 0.24231 0.10990
# Poissons Ratio (z) = 0.35960 0.20499
#
# Static dielectric constant tensor:
#      x y z
#    x 1.701100 0.000000 0.000000 
#    y 0.000000 1.729870 0.000000 
#    z 0.000000 0.000000 1.712810 
# 
# From -- ./inp_files/11528.got.cif
#   From: 2010.05.17/outbox.cif.g08.bks.cpg/sg73_6_cif.got.tgz:11528.got - 2010.06.03 17:35:07.
