data_PCOD9530654
_publ_section_title
;
Structure prediction by ZEFSAII (Michael W. Deem and Ramdas Pophale) SiO2 
 PCOD9530654
Probable space group: I B C A 
;
_chemical_formula_sum "Si O2"
_cell_formula_units_Z 120
_cell_length_a 18.738523
_cell_length_b 17.870473
_cell_length_c 17.197922
_cell_angle_alpha 90.000000
_cell_angle_beta 90.000000
_cell_angle_gamma 90.000000
_cell_volume 5759.003980
_symmetry_space_group_name_H-M "I B C A "
_symmetry_group_IT_number 73
_symmetry_cell_setting 'orthorhombic'
loop_
_space_group_symop_operation_xyz
x,y,z
-x,1/2-y,z
x,-y,1/2-z
1/2-x,y,-z
-x,-y,-z
x,1/2+y,-z
-x,y,1/2+z
1/2+x,-y,z
1/2+x,1/2+y,1/2+z
1/2-x,-y,1/2+z
1/2+x,1/2-y,-z
-x,1/2+y,1/2-z
1/2-x,1/2-y,1/2-z
1/2+x,y,1/2-z
1/2-x,1/2+y,z
x,1/2-y,1/2+z
loop_
_atom_site_type_symbol
_atom_site_label
_atom_site_fract_x
_atom_site_fract_y
_atom_site_fract_z
Si Si1 0.814153 0.494933 0.104758
Si Si2 0.457185 0.941415 0.053808
Si Si3 0.171250 0.691992 0.019199
Si Si4 0.045950 0.329188 0.782498
Si Si5 0.638960 0.351248 0.567361
Si Si6 0.424955 0.500000 0.250000
Si Si7 0.658017 0.547767 0.422477
Si Si8 0.557482 0.184059 0.384898
O O1 0.807933 0.583860 0.093187
O O2 0.871399 0.485134 0.174843
O O3 0.734577 0.464450 0.116778
O O4 0.837435 0.467110 0.017538
O O5 0.512955 0.891201 0.099522
O O6 0.402441 0.990640 0.104257
O O7 0.410075 0.885583 0.000820
O O8 0.500000 0.000000 0.000000
O O9 0.177765 0.776097 0.045788
O O10 0.138001 0.634853 0.081865
O O11 0.250000 0.663673 0.000000
O O12 0.120042 0.691328 0.945728
O O13 0.087847 0.331425 0.861871
O O14 0.031762 0.421850 0.770286
O O15 0.087132 0.314330 0.702023
O O16 0.000000 0.250000 0.786840
O O17 0.500000 0.250000 0.394853
#
# Coordination Sequence:
#
# PCOD9530654 Si02
#       8
#    16  16  16  16  16   8  16  16
#     4   9  19  38  62  88 118 161 209 252 302 381
#     4  11  22  36  65  93 121 159 212 261 313 370
#     4  12  23  37  64  95 124 167 211 262 324 374
#     4  10  24  40  63  92 129 168 215 259 318 391
#     4  10  24  39  62  90 121 164 208 260 316 379
#     4  10  20  40  68  86 124 184 206 248 336 384
#     4  10  20  36  61  92 124 153 209 264 300 372
#     4  11  23  42  61  91 129 168 208 263 320 390
#
# _framework density 20.836936000000001
#
# number of rings (size 3 to 8) (size 9 to 14) (size 15 to 20)
#    0.000    1.600    4.000    0.800    9.333    0.000 
#    0.000    0.667    8.800    0.000    0.000    0.000 
#    0.000    0.000    0.000    0.000    0.000    0.000 
#
# Total GULP energy -334081.745640 kJ/mol
# GULP energy per Si atom -5568.029094 kJ/mol
# Density = 2.078951 g / cm^3
# Si number density = 20.836936 Si / 1000 Ang^3
#
#
#
# Elastic Constant Matrix: (Units=GPa)
#
#
# Indices 1 2 3 4 5 6 
#
# 1 43.4723 30.8816 8.7103 0.0000 0.0000 0.0000
# 2 30.8816 161.7334 21.0347 0.0000 0.0000 0.0000
# 3 8.7103 21.0347 38.4781 0.0000 0.0000 0.0000
# 4 0.0000 0.0000 0.0000 8.6314 0.0000 0.0000
# 5 0.0000 0.0000 0.0000 0.0000 9.2561 0.0000
# 6 0.0000 0.0000 0.0000 0.0000 0.0000 40.6148
#
#
#
# Elastic Compliance Matrix: (Units=1/GPa)
#
#
# Indices 1 2 3 4 5 6 
#
# 1 0.027057 -0.004704 -0.003553 0.000000 0.000000 0.000000
# 2 -0.004704 0.007474 -0.003021 0.000000 0.000000 0.000000
# 3 -0.003553 -0.003021 0.028445 0.000000 0.000000 0.000000
# 4 0.000000 0.000000 0.000000 0.115856 0.000000 0.000000
# 5 0.000000 0.000000 0.000000 0.000000 0.108037 0.000000
# 6 0.000000 0.000000 0.000000 0.000000 0.000000 0.024622
#
#
# Mechanical properties :
#
#
# Convention : Reuss Voigt Hill
#
# Bulk Modulus (GPa) = 24.74097 40.54857 32.64477
# Shear Modulus (GPa) = 14.38771 23.90429 19.14600
#
# Velocity S-wave (km/s) = 2.63057 3.39072 3.03454
# Velocity P-wave (km/s) = 4.59629 5.90182 5.28949
#
# Compressibility (1/GPa) = 0.04041878
#
# Stress axis : x y z
#
# Youngs Moduli (GPa) = 36.95934 133.79478 35.15605
#
# Poissons Ratio (x) = 0.62939 0.12492
# Poissons Ratio (y) = 0.17386 0.10621
# Poissons Ratio (z) = 0.13133 0.40419
#
# Static dielectric constant tensor:
#      x y z
#    x 1.448470 0.000000 0.000000 
#    y 0.000000 1.841080 0.000000 
#    z 0.000000 0.000000 1.746310 
# 
# From -- ./inp_files/23346.got.cif
#   From: 2010.05.17/outbox.cif.g08.bks.cpg/sg73_12_cif.got.tgz:23346.got - 2010.06.03 17:35:07.
