data_PCOD9530721
_publ_section_title
;
Structure prediction by ZEFSAII (Michael W. Deem and Ramdas Pophale) SiO2 
 PCOD9530721
Probable space group: I B C A 
;
_chemical_formula_sum "Si O2"
_cell_formula_units_Z 96
_cell_length_a 21.481494
_cell_length_b 19.363761
_cell_length_c 9.866333
_cell_angle_alpha 90.000000
_cell_angle_beta 90.000000
_cell_angle_gamma 90.000000
_cell_volume 4104.024696
_symmetry_space_group_name_H-M "I B C A "
_symmetry_group_IT_number 73
_symmetry_cell_setting 'orthorhombic'
loop_
_space_group_symop_operation_xyz
x,y,z
-x,1/2-y,z
x,-y,1/2-z
1/2-x,y,-z
-x,-y,-z
x,1/2+y,-z
-x,y,1/2+z
1/2+x,-y,z
1/2+x,1/2+y,1/2+z
1/2-x,-y,1/2+z
1/2+x,1/2-y,-z
-x,1/2+y,1/2-z
1/2-x,1/2-y,1/2-z
1/2+x,y,1/2-z
1/2-x,1/2+y,z
x,1/2-y,1/2+z
loop_
_atom_site_type_symbol
_atom_site_label
_atom_site_fract_x
_atom_site_fract_y
_atom_site_fract_z
Si Si1 0.591141 0.430182 0.668906
Si Si2 0.329513 0.066491 0.109354
Si Si3 0.804921 0.374595 0.164688
Si Si4 0.934929 0.775611 0.686236
Si Si5 0.860899 0.581904 0.887739
Si Si6 0.856305 0.233740 0.075566
O O1 0.574606 0.500000 0.750000
O O2 0.662988 0.409438 0.706177
O O3 0.559464 0.357996 0.710384
O O4 0.588525 0.432681 0.505142
O O5 0.265933 0.103939 0.150463
O O6 0.317506 0.014998 0.398651
O O7 0.378963 0.080539 0.228319
O O8 0.344520 0.093244 0.960781
O O9 0.812479 0.293138 0.136613
O O10 0.880629 0.758465 0.577548
O O11 0.916217 0.739296 0.826099
O O12 0.000000 0.750000 0.631821
O O13 0.831355 0.656334 0.913211
#
# Coordination Sequence:
#
# PCOD9530721 Si02
#       6
#    16  16  16  16  16  16
#     4  10  20  37  60  86 121 154 197 241 296 354
#     4  10  21  35  54  83 122 161 197 240 278 340
#     4  10  21  35  56  82 122 163 195 245 287 333
#     4  10  21  39  67  88 116 152 194 249 306 365
#     4  10  21  34  57  85 118 161 202 233 291 347
#     4  10  21  39  60  88 118 156 195 246 301 356
#
# _framework density 23.391672
#
# number of rings (size 3 to 8) (size 9 to 14) (size 15 to 20)
#    0.000    2.000    1.667    1.500    2.333    1.333 
#    0.000    6.667    7.333    4.000    0.000    0.000 
#    0.000    0.000    0.000    0.000    0.000    0.000 
#
# Total GULP energy -267688.675002 kJ/mol
# GULP energy per Si atom -5576.847396 kJ/mol
# Density = 2.333843 g / cm^3
# Si number density = 23.391672 Si / 1000 Ang^3
#
#
#
# Elastic Constant Matrix: (Units=GPa)
#
#
# Indices 1 2 3 4 5 6 
#
# 1 21.8058 21.1941 -10.4867 0.0000 0.0000 0.0000
# 2 21.1941 164.3201 13.8540 0.0000 0.0000 0.0000
# 3 -10.4867 13.8540 134.2162 0.0000 0.0000 0.0000
# 4 0.0000 0.0000 0.0000 25.9406 0.0000 0.0000
# 5 0.0000 0.0000 0.0000 0.0000 12.3139 0.0000
# 6 0.0000 0.0000 0.0000 0.0000 0.0000 4.4872
#
#
#
# Elastic Compliance Matrix: (Units=1/GPa)
#
#
# Indices 1 2 3 4 5 6 
#
# 1 0.055742 -0.007623 0.005142 0.000000 0.000000 0.000000
# 2 -0.007623 0.007182 -0.001337 0.000000 0.000000 0.000000
# 3 0.005142 -0.001337 0.007990 0.000000 0.000000 0.000000
# 4 0.000000 0.000000 0.000000 0.038550 0.000000 0.000000
# 5 0.000000 0.000000 0.000000 0.000000 0.081209 0.000000
# 6 0.000000 0.000000 0.000000 0.000000 0.000000 0.222854
#
#
# Mechanical properties :
#
#
# Convention : Reuss Voigt Hill
#
# Bulk Modulus (GPa) = 15.80333 41.05166 28.42750
# Shear Modulus (GPa) = 11.30570 28.26707 19.78638
#
# Velocity S-wave (km/s) = 2.20084 3.48001 2.91154
# Velocity P-wave (km/s) = 3.63716 5.80819 4.84582
#
# Compressibility (1/GPa) = 0.06327779
#
# Stress axis : x y z
#
# Youngs Moduli (GPa) = 17.93995 139.24415 125.14967
#
# Poissons Ratio (x) = 1.06147 -0.64354
# Poissons Ratio (y) = 0.13676 0.16731
# Poissons Ratio (z) = -0.09225 0.18616
#
# Static dielectric constant tensor:
#      x y z
#    x 1.834570 0.000000 0.000000 
#    y 0.000000 1.905910 0.000000 
#    z 0.000000 0.000000 1.965770 
# 
# From -- ./inp_files/14288.got.cif
#   From: 2010.05.17/outbox.cif.g08.bks.cpg/sg73_8_cif.got.tgz:14288.got - 2010.06.03 17:35:07.
