data_PCOD9530943
_publ_section_title
;
Structure prediction by ZEFSAII (Michael W. Deem and Ramdas Pophale) SiO2 
 PCOD9530943
Probable space group: I B C A 
;
_chemical_formula_sum "Si O2"
_cell_formula_units_Z 96
_cell_length_a 14.381398
_cell_length_b 25.219629
_cell_length_c 13.510954
_cell_angle_alpha 90.000000
_cell_angle_beta 90.000000
_cell_angle_gamma 90.000000
_cell_volume 4900.335493
_symmetry_space_group_name_H-M "I B C A "
_symmetry_group_IT_number 73
_symmetry_cell_setting 'orthorhombic'
loop_
_space_group_symop_operation_xyz
x,y,z
-x,1/2-y,z
x,-y,1/2-z
1/2-x,y,-z
-x,-y,-z
x,1/2+y,-z
-x,y,1/2+z
1/2+x,-y,z
1/2+x,1/2+y,1/2+z
1/2-x,-y,1/2+z
1/2+x,1/2-y,-z
-x,1/2+y,1/2-z
1/2-x,1/2-y,1/2-z
1/2+x,y,1/2-z
1/2-x,1/2+y,z
x,1/2-y,1/2+z
loop_
_atom_site_type_symbol
_atom_site_label
_atom_site_fract_x
_atom_site_fract_y
_atom_site_fract_z
Si Si1 0.710274 0.190393 0.329372
Si Si2 0.464936 0.860306 0.744199
Si Si3 0.425615 0.431440 0.082822
Si Si4 0.250000 0.626369 0.500000
Si Si5 0.426965 0.949151 0.583502
Si Si6 0.855728 0.699013 0.840390
Si Si7 0.750000 0.605375 0.500000
O O1 0.630252 0.172471 0.252743
O O2 0.799539 0.201477 0.262771
O O3 0.661520 0.241255 0.380883
O O4 0.740564 0.145101 0.406520
O O5 0.480852 0.889099 0.849036
O O6 0.438846 0.908389 0.672006
O O7 0.544461 0.824393 0.693107
O O8 0.417761 0.491194 0.123227
O O9 0.324316 0.408538 0.059844
O O10 0.481272 0.440995 0.981864
O O11 0.191293 0.660904 0.421273
O O12 0.339937 0.932111 0.514306
#
# Coordination Sequence:
#
# PCOD9530943 Si02
#       7
#    16  16  16   8  16  16   8
#     4  10  22  38  61  87 123 158 202 253 307 372
#     4  11  21  39  62  89 123 163 200 258 306 370
#     4  11  22  39  61  90 121 161 204 253 311 363
#     4  12  22  40  64  90 120 164 202 260 300 374
#     4  10  22  38  61  87 123 158 202 253 307 372
#     4  11  22  39  61  90 121 161 204 253 311 363
#     4  10  20  40  60  86 118 162 198 252 308 366
#
# _framework density 19.590496000000002
#
# number of rings (size 3 to 8) (size 9 to 14) (size 15 to 20)
#    0.000    1.333    3.333    3.000    0.000    0.000 
#    0.000    0.000    0.000    0.000    0.000    0.000 
#    0.000    0.000    0.000    0.000    0.000    0.000 
#
# Total GULP energy -267410.671181 kJ/mol
# GULP energy per Si atom -5571.055650 kJ/mol
# Density = 1.954591 g / cm^3
# Si number density = 19.590496 Si / 1000 Ang^3
#
#
#
# Elastic Constant Matrix: (Units=GPa)
#
#
# Indices 1 2 3 4 5 6 
#
# 1 62.7793 8.6109 -4.8139 0.0000 0.0000 0.0000
# 2 8.6109 67.7994 -8.4819 0.0001 0.0000 0.0000
# 3 -4.8139 -8.4819 27.9997 0.0001 0.0000 0.0000
# 4 0.0000 0.0001 0.0001 27.6040 0.0000 0.0000
# 5 0.0000 0.0000 0.0000 0.0000 30.1455 0.0000
# 6 0.0000 0.0000 0.0000 0.0000 0.0000 23.0332
#
#
#
# Elastic Compliance Matrix: (Units=1/GPa)
#
#
# Indices 1 2 3 4 5 6 
#
# 1 0.016349 -0.001793 0.002268 0.000000 0.000000 0.000000
# 2 -0.001793 0.015527 0.004395 0.000000 0.000000 0.000000
# 3 0.002268 0.004395 0.037436 0.000000 0.000000 0.000000
# 4 0.000000 0.000000 0.000000 0.036227 0.000000 0.000000
# 5 0.000000 0.000000 0.000000 0.000000 0.033172 0.000000
# 6 0.000000 0.000000 0.000000 0.000000 0.000000 0.043416
#
#
# Mechanical properties :
#
#
# Convention : Reuss Voigt Hill
#
# Bulk Modulus (GPa) = 12.64984 16.57872 14.61428
# Shear Modulus (GPa) = 25.15897 27.04076 26.09986
#
# Velocity S-wave (km/s) = 3.58752 3.71927 3.65399
# Velocity P-wave (km/s) = 4.86123 5.18893 5.02775
#
# Compressibility (1/GPa) = 0.07905236
#
# Stress axis : x y z
#
# Youngs Moduli (GPa) = 61.16733 64.40421 26.71224
#
# Poissons Ratio (x) = 0.11545 -0.06058
# Poissons Ratio (y) = 0.10965 -0.11741
# Poissons Ratio (z) = -0.13871 -0.28308
#
# Static dielectric constant tensor:
#      x y z
#    x 1.671140 0.000000 0.000000 
#    y 0.000000 1.762980 0.000000 
#    z 0.000000 0.000000 1.681490 
# 
# From -- ./inp_files/17218.got.cif
#   From: 2010.05.17/outbox.cif.g08.bks.cpg/sg73_9_cif.got.tgz:17218.got - 2010.06.03 17:35:07.
