data_PCOD9530377
_publ_section_title
;
Structure prediction by ZEFSAII (Michael W. Deem and Ramdas Pophale) SiO2 
 PCOD9530377
Probable space group: I B C A 
;
_chemical_formula_sum "Si O2"
_cell_formula_units_Z 72
_cell_length_a 16.461104
_cell_length_b 16.273688
_cell_length_c 10.427800
_cell_angle_alpha 90.000000
_cell_angle_beta 90.000000
_cell_angle_gamma 90.000000
_cell_volume 2793.428998
_symmetry_space_group_name_H-M "I B C A "
_symmetry_group_IT_number 73
_symmetry_cell_setting 'orthorhombic'
loop_
_space_group_symop_operation_xyz
x,y,z
-x,1/2-y,z
x,-y,1/2-z
1/2-x,y,-z
-x,-y,-z
x,1/2+y,-z
-x,y,1/2+z
1/2+x,-y,z
1/2+x,1/2+y,1/2+z
1/2-x,-y,1/2+z
1/2+x,1/2-y,-z
-x,1/2+y,1/2-z
1/2-x,1/2-y,1/2-z
1/2+x,y,1/2-z
1/2-x,1/2+y,z
x,1/2-y,1/2+z
loop_
_atom_site_type_symbol
_atom_site_label
_atom_site_fract_x
_atom_site_fract_y
_atom_site_fract_z
Si Si1 0.769146 0.090149 0.138094
Si Si2 0.000000 0.250000 0.216656
Si Si3 0.583996 0.903230 0.314227
Si Si4 0.010165 0.106662 0.052970
Si Si5 0.177511 0.401002 0.405886
O O1 0.678528 0.081180 0.194342
O O2 0.815969 0.129236 0.258887
O O3 0.809163 0.000608 0.108413
O O4 0.750000 0.131081 0.000000
O O5 0.060613 0.194565 0.300616
O O6 0.964605 0.184901 0.114710
O O7 0.551138 0.930603 0.451886
O O8 0.540737 0.933259 0.184507
O O9 0.091896 0.121137 0.970179
O O10 0.250000 0.372868 0.500000
#
# Coordination Sequence:
#
# PCOD9530377 Si02
#       5
#    16   8  16  16  16
#     4  10  22  37  65  91 138 177 225 280 349 432
#     4   8  20  38  68  88 130 166 226 290 332 394
#     4  10  21  39  62 101 128 178 230 286 351 412
#     4  10  21  37  67  95 131 176 232 288 346 413
#     4  10  19  41  62  90 132 184 220 281 347 422
#
# _framework density 25.774775000000002
#
# number of rings (size 3 to 8) (size 9 to 14) (size 15 to 20)
#    1.333    0.889    2.222    0.667    3.111    0.000 
#    0.000    8.889    0.000   26.667    0.000    0.000 
#    0.000    0.000    0.000    0.000    0.000    0.000 
#
# Total GULP energy -200794.106290 kJ/mol
# GULP energy per Si atom -5577.614064 kJ/mol
# Density = 2.571611 g / cm^3
# Si number density = 25.774775 Si / 1000 Ang^3
#
#
#
# Elastic Constant Matrix: (Units=GPa)
#
#
# Indices 1 2 3 4 5 6 
#
# 1 124.8591 45.8812 43.8437 0.0000 0.0000 0.0000
# 2 45.8812 55.3242 50.3634 0.0000 0.0000 0.0000
# 3 43.8437 50.3634 227.4488 0.0000 0.0000 0.0000
# 4 0.0000 0.0000 0.0000 26.5995 0.0000 0.0000
# 5 0.0000 0.0000 0.0000 0.0000 68.1235 0.0000
# 6 0.0000 0.0000 0.0000 0.0000 0.0000 11.5792
#
#
#
# Elastic Compliance Matrix: (Units=1/GPa)
#
#
# Indices 1 2 3 4 5 6 
#
# 1 0.011523 -0.009436 -0.000132 0.000000 0.000000 0.000000
# 2 -0.009436 0.030366 -0.004905 0.000000 0.000000 0.000000
# 3 -0.000132 -0.004905 0.005508 0.000000 0.000000 0.000000
# 4 0.000000 0.000000 0.000000 0.037595 0.000000 0.000000
# 5 0.000000 0.000000 0.000000 0.000000 0.014679 0.000000
# 6 0.000000 0.000000 0.000000 0.000000 0.000000 0.086362
#
#
# Mechanical properties :
#
#
# Convention : Reuss Voigt Hill
#
# Bulk Modulus (GPa) = 54.19696 76.42318 65.31007
# Shear Modulus (GPa) = 22.61137 39.09671 30.85404
#
# Velocity S-wave (km/s) = 2.96508 3.89891 3.46361
# Velocity P-wave (km/s) = 5.72670 7.06990 6.43345
#
# Compressibility (1/GPa) = 0.01845122
#
# Stress axis : x y z
#
# Youngs Moduli (GPa) = 86.78531 32.93180 181.55174
#
# Poissons Ratio (x) = 0.31074 0.02392
# Poissons Ratio (y) = 0.81891 0.89049
# Poissons Ratio (z) = 0.01143 0.16153
#
# Static dielectric constant tensor:
#      x y z
#    x 1.963590 0.000000 0.000000 
#    y 0.000000 2.021990 0.000000 
#    z 0.000000 0.000000 2.064070 
# 
# From -- ./inp_files/11954.got.cif
#   From: 2010.05.17/outbox.cif.g08.bks.cpg/sg73_6_cif.got.tgz:11954.got - 2010.06.03 17:35:07.
