data_PCOD9530453
_publ_section_title
;
Structure prediction by ZEFSAII (Michael W. Deem and Ramdas Pophale) SiO2 
 PCOD9530453
Probable space group: I B C A 
;
_chemical_formula_sum "Si O2"
_cell_formula_units_Z 112
_cell_length_a 8.042041
_cell_length_b 22.149613
_cell_length_c 29.169713
_cell_angle_alpha 90.000000
_cell_angle_beta 90.000000
_cell_angle_gamma 90.000000
_cell_volume 5195.945434
_symmetry_space_group_name_H-M "I B C A "
_symmetry_group_IT_number 73
_symmetry_cell_setting 'orthorhombic'
loop_
_space_group_symop_operation_xyz
x,y,z
-x,1/2-y,z
x,-y,1/2-z
1/2-x,y,-z
-x,-y,-z
x,1/2+y,-z
-x,y,1/2+z
1/2+x,-y,z
1/2+x,1/2+y,1/2+z
1/2-x,-y,1/2+z
1/2+x,1/2-y,-z
-x,1/2+y,1/2-z
1/2-x,1/2-y,1/2-z
1/2+x,y,1/2-z
1/2-x,1/2+y,z
x,1/2-y,1/2+z
loop_
_atom_site_type_symbol
_atom_site_label
_atom_site_fract_x
_atom_site_fract_y
_atom_site_fract_z
Si Si1 0.489861 0.570067 0.239740
Si Si2 0.186547 0.616912 0.341310
Si Si3 0.353245 0.064676 0.576029
Si Si4 0.866132 0.923272 0.900178
Si Si5 0.199269 0.247817 0.696977
Si Si6 0.982949 0.429696 0.513251
Si Si7 0.183912 0.877034 0.680579
O O1 0.463602 0.500000 0.250000
O O2 0.643530 0.577529 0.203682
O O3 0.531604 0.604989 0.286683
O O4 0.338170 0.599942 0.212470
O O5 0.326627 0.596877 0.376283
O O6 0.231988 0.683657 0.325547
O O7 0.017156 0.607925 0.371868
O O8 0.182112 0.068854 0.545579
O O9 0.472329 0.095428 0.538290
O O10 0.386171 0.995422 0.591766
O O11 0.708349 0.910517 0.867992
O O12 0.878676 0.902824 0.953048
O O13 0.250000 0.250000 0.750000
O O14 0.288111 0.305657 0.674655
O O15 0.000000 0.250000 0.694681
O O16 0.000000 0.500000 0.500000
#
# Coordination Sequence:
#
# PCOD9530453 Si02
#       7
#    16  16  16  16  16  16  16
#     4  11  21  33  50  76 111 145 181 228 293 335
#     4  10  20  33  50  76 106 146 190 231 279 332
#     4   9  16  29  50  79 111 136 178 224 279 342
#     4   9  17  30  50  77 110 137 179 225 282 333
#     4  12  21  40  59  74 106 152 203 240 272 330
#     4   8  15  28  49  77 109 143 170 217 275 345
#     4  11  21  36  53  78 108 149 190 232 274 331
#
# _framework density 21.555268999999999
#
# number of rings (size 3 to 8) (size 9 to 14) (size 15 to 20)
#    0.000    2.000    4.286    1.286    0.000    1.143 
#    0.000    1.429    0.000    0.000    0.000   26.000 
#    0.000    0.000    0.000    0.000    0.000    0.000 
#
# Total GULP energy -312265.778608 kJ/mol
# GULP energy per Si atom -5576.174618 kJ/mol
# Density = 2.150621 g / cm^3
# Si number density = 21.555269 Si / 1000 Ang^3
#
#
#
# Elastic Constant Matrix: (Units=GPa)
#
#
# Indices 1 2 3 4 5 6 
#
# 1 63.8711 11.9442 24.4671 0.0000 0.0000 0.0000
# 2 11.9442 119.5564 42.9565 0.0000 0.0000 0.0000
# 3 24.4671 42.9565 166.1845 0.0000 0.0000 0.0000
# 4 0.0000 0.0000 0.0000 6.0493 0.0000 0.0000
# 5 0.0000 0.0000 0.0000 0.0000 27.5901 0.0000
# 6 0.0000 0.0000 0.0000 0.0000 0.0000 17.0876
#
#
#
# Elastic Compliance Matrix: (Units=1/GPa)
#
#
# Indices 1 2 3 4 5 6 
#
# 1 0.016673 -0.000864 -0.002231 0.000000 0.000000 0.000000
# 2 -0.000864 0.009265 -0.002268 0.000000 0.000000 0.000000
# 3 -0.002231 -0.002268 0.006932 0.000000 0.000000 0.000000
# 4 0.000000 0.000000 0.000000 0.165309 0.000000 0.000000
# 5 0.000000 0.000000 0.000000 0.000000 0.036245 0.000000
# 6 0.000000 0.000000 0.000000 0.000000 0.000000 0.058522
#
#
# Mechanical properties :
#
#
# Convention : Reuss Voigt Hill
#
# Bulk Modulus (GPa) = 45.15873 56.48306 50.82090
# Shear Modulus (GPa) = 16.07438 28.16167 22.11803
#
# Velocity S-wave (km/s) = 2.73377 3.61846 3.20677
# Velocity P-wave (km/s) = 5.56420 6.61199 6.11059
#
# Compressibility (1/GPa) = 0.02214411
#
# Stress axis : x y z
#
# Youngs Moduli (GPa) = 59.97765 107.92866 144.25586
#
# Poissons Ratio (x) = 0.09324 0.32189
# Poissons Ratio (y) = 0.05182 0.32714
# Poissons Ratio (z) = 0.13383 0.24476
#
# Static dielectric constant tensor:
#      x y z
#    x 1.985380 0.000000 0.000000 
#    y 0.000000 1.767500 0.000000 
#    z 0.000000 0.000000 1.831710 
# 
# From -- ./inp_files/31870.got.cif
#   From: 2010.05.17/outbox.cif.g08.bks.cpg/sg73_16_cif.got.tgz:31870.got - 2010.06.03 17:35:07.
