data_PCOD9530408
_publ_section_title
;
Structure prediction by ZEFSAII (Michael W. Deem and Ramdas Pophale) SiO2 
 PCOD9530408
Probable space group: I B C A 
;
_chemical_formula_sum "Si O2"
_cell_formula_units_Z 88
_cell_length_a 23.756569
_cell_length_b 24.226636
_cell_length_c 8.417054
_cell_angle_alpha 90.000000
_cell_angle_beta 90.000000
_cell_angle_gamma 90.000000
_cell_volume 4844.365987
_symmetry_space_group_name_H-M "I B C A "
_symmetry_group_IT_number 73
_symmetry_cell_setting 'orthorhombic'
loop_
_space_group_symop_operation_xyz
x,y,z
-x,1/2-y,z
x,-y,1/2-z
1/2-x,y,-z
-x,-y,-z
x,1/2+y,-z
-x,y,1/2+z
1/2+x,-y,z
1/2+x,1/2+y,1/2+z
1/2-x,-y,1/2+z
1/2+x,1/2-y,-z
-x,1/2+y,1/2-z
1/2-x,1/2-y,1/2-z
1/2+x,y,1/2-z
1/2-x,1/2+y,z
x,1/2-y,1/2+z
loop_
_atom_site_type_symbol
_atom_site_label
_atom_site_fract_x
_atom_site_fract_y
_atom_site_fract_z
Si Si1 0.312598 0.790887 0.422333
Si Si2 0.250000 0.018305 0.000000
Si Si3 0.647573 0.405337 0.970486
Si Si4 0.655906 0.935046 0.398831
Si Si5 0.937599 0.489443 0.937347
Si Si6 0.813918 0.323189 0.553467
O O1 0.250000 0.791360 0.500000
O O2 0.345426 0.840877 0.502595
O O3 0.335953 0.729807 0.455735
O O4 0.312167 0.805458 0.236759
O O5 0.200184 0.061010 0.945756
O O6 0.211485 0.973686 0.093189
O O7 0.650994 0.417265 0.783224
O O8 0.589011 0.429213 0.033435
O O9 0.604598 0.971649 0.462618
O O10 0.657884 0.881061 0.510286
O O11 0.934574 0.500000 0.750000
O O12 0.000000 0.500000 0.000000
O O13 0.750000 0.332064 0.500000
#
# Coordination Sequence:
#
# PCOD9530408 Si02
#       6
#    16   8  16  16  16  16
#     4  11  21  34  53  78 113 151 188 227 274 330
#     4  10  20  30  52  78 116 142 182 216 280 326
#     4  11  22  36  56  81 114 148 185 230 279 333
#     4  11  22  36  56  81 114 148 185 230 279 333
#     4  11  23  40  60  83 111 146 189 232 282 330
#     4  11  21  34  53  78 113 151 188 227 274 330
#
# _framework density 18.165433
#
# number of rings (size 3 to 8) (size 9 to 14) (size 15 to 20)
#    0.000    1.091    1.818    8.727    0.000    7.273 
#    0.000    0.000    0.000    1.091    0.000    7.636 
#    0.000    0.000    0.000    0.000    0.000    0.000 
#
# Total GULP energy -245449.568403 kJ/mol
# GULP energy per Si atom -5578.399282 kJ/mol
# Density = 1.812409 g / cm^3
# Si number density = 18.165433 Si / 1000 Ang^3
#
#
#
# Elastic Constant Matrix: (Units=GPa)
#
#
# Indices 1 2 3 4 5 6 
#
# 1 87.2244 20.3521 14.1872 0.0000 0.0000 0.0000
# 2 20.3521 108.6746 -0.2768 0.0000 0.0000 0.0000
# 3 14.1872 -0.2768 84.7788 0.0000 0.0000 0.0000
# 4 0.0000 0.0000 0.0000 35.3670 0.0000 0.0000
# 5 0.0000 0.0000 0.0000 0.0000 17.7154 0.0000
# 6 0.0000 0.0000 0.0000 0.0000 0.0000 15.0498
#
#
#
# Elastic Compliance Matrix: (Units=1/GPa)
#
#
# Indices 1 2 3 4 5 6 
#
# 1 0.012342 -0.002317 -0.002073 0.000000 0.000000 0.000000
# 2 -0.002317 0.009637 0.000419 0.000000 0.000000 0.000000
# 3 -0.002073 0.000419 0.012144 0.000000 0.000000 0.000000
# 4 0.000000 0.000000 0.000000 0.028275 0.000000 0.000000
# 5 0.000000 0.000000 0.000000 0.000000 0.056448 0.000000
# 6 0.000000 0.000000 0.000000 0.000000 0.000000 0.066446
#
#
# Mechanical properties :
#
#
# Convention : Reuss Voigt Hill
#
# Bulk Modulus (GPa) = 38.19461 38.80031 38.49746
# Shear Modulus (GPa) = 24.75736 30.05412 27.40574
#
# Velocity S-wave (km/s) = 3.69573 4.07193 3.88838
# Velocity P-wave (km/s) = 6.26760 6.59646 6.43413
#
# Compressibility (1/GPa) = 0.02618170
#
# Stress axis : x y z
#
# Youngs Moduli (GPa) = 81.02142 103.76984 82.34741
#
# Poissons Ratio (x) = 0.24041 0.17070
# Poissons Ratio (y) = 0.18770 -0.03452
# Poissons Ratio (z) = 0.16796 -0.04350
#
# Static dielectric constant tensor:
#      x y z
#    x 1.605250 0.000000 0.000000 
#    y 0.000000 1.657480 0.000000 
#    z 0.000000 0.000000 1.669430 
# 
# From -- ./inp_files/6302.got.cif
#   From: 2010.05.17/outbox.cif.g08.bks.cpg/sg73_4_cif.got.tgz:6302.got - 2010.06.03 17:35:07.
