data_PCOD9530165
_publ_section_title
;
Structure prediction by ZEFSAII (Michael W. Deem and Ramdas Pophale) SiO2 
 PCOD9530165
Probable space group: I B C A 
;
_chemical_formula_sum "Si O2"
_cell_formula_units_Z 96
_cell_length_a 21.678156
_cell_length_b 19.076050
_cell_length_c 12.885825
_cell_angle_alpha 90.000000
_cell_angle_beta 90.000000
_cell_angle_gamma 90.000000
_cell_volume 5328.721444
_symmetry_space_group_name_H-M "I B C A "
_symmetry_group_IT_number 73
_symmetry_cell_setting 'orthorhombic'
loop_
_space_group_symop_operation_xyz
x,y,z
-x,1/2-y,z
x,-y,1/2-z
1/2-x,y,-z
-x,-y,-z
x,1/2+y,-z
-x,y,1/2+z
1/2+x,-y,z
1/2+x,1/2+y,1/2+z
1/2-x,-y,1/2+z
1/2+x,1/2-y,-z
-x,1/2+y,1/2-z
1/2-x,1/2-y,1/2-z
1/2+x,y,1/2-z
1/2-x,1/2+y,z
x,1/2-y,1/2+z
loop_
_atom_site_type_symbol
_atom_site_label
_atom_site_fract_x
_atom_site_fract_y
_atom_site_fract_z
Si Si1 0.008677 0.994992 0.367762
Si Si2 0.071760 0.133439 0.905307
Si Si3 0.284451 0.000000 0.750000
Si Si4 0.500000 0.250000 0.965413
Si Si5 0.858815 0.460444 0.047915
Si Si6 0.705130 0.418075 0.414663
Si Si7 0.079433 0.140640 0.660899
O O1 0.071973 0.987167 0.429188
O O2 0.962178 0.928437 0.366832
O O3 0.029521 0.000000 0.250000
O O4 0.974093 0.066564 0.395461
O O5 0.085927 0.148980 0.785065
O O6 0.037504 0.196548 0.962159
O O7 0.128569 0.108766 0.978687
O O8 0.324246 0.961084 0.659472
O O9 0.242218 0.945429 0.814274
O O10 0.454670 0.294692 0.892482
O O11 0.822378 0.513950 0.974225
O O12 0.750000 0.383968 0.500000
O O13 0.647179 0.371704 0.383971
#
# Coordination Sequence:
#
# PCOD9530165 Si02
#       7
#    16  16   8   8  16  16  16
#     4  10  19  34  61  92 118 149 193 266 316 349
#     4  11  22  35  60  91 123 163 195 249 322 366
#     4  10  22  34  54  94 124 156 204 258 304 362
#     4  12  24  38  58  94 128 162 200 254 316 374
#     4  11  18  35  58  88 124 152 203 252 311 363
#     4  10  21  36  60  88 122 164 198 249 306 364
#     4  11  22  40  61  90 127 153 207 256 311 369
#
# _framework density 18.015578000000001
#
# number of rings (size 3 to 8) (size 9 to 14) (size 15 to 20)
#    0.000    1.333    4.167    3.000    1.167    0.000 
#    0.000    0.000    0.000    7.000    0.000    0.000 
#    0.000    0.000    0.000    0.000    0.000    0.000 
#
# Total GULP energy -267621.939462 kJ/mol
# GULP energy per Si atom -5575.457072 kJ/mol
# Density = 1.797457 g / cm^3
# Si number density = 18.015578 Si / 1000 Ang^3
#
#
#
# Elastic Constant Matrix: (Units=GPa)
#
#
# Indices 1 2 3 4 5 6 
#
# 1 106.4449 42.0917 76.3388 0.0000 0.0000 0.0000
# 2 42.0917 90.1320 63.6003 0.0000 0.0000 0.0000
# 3 76.3388 63.6003 177.4523 0.0000 0.0000 0.0000
# 4 0.0000 0.0000 0.0000 15.0707 0.0000 0.0000
# 5 0.0000 0.0000 0.0000 0.0000 26.4483 0.0000
# 6 0.0000 0.0000 0.0000 0.0000 0.0000 12.0629
#
#
#
# Elastic Compliance Matrix: (Units=1/GPa)
#
#
# Indices 1 2 3 4 5 6 
#
# 1 0.014208 -0.003108 -0.004998 0.000000 0.000000 0.000000
# 2 -0.003108 0.015531 -0.004229 0.000000 0.000000 0.000000
# 3 -0.004998 -0.004229 0.009301 0.000000 0.000000 0.000000
# 4 0.000000 0.000000 0.000000 0.066354 0.000000 0.000000
# 5 0.000000 0.000000 0.000000 0.000000 0.037810 0.000000
# 6 0.000000 0.000000 0.000000 0.000000 0.000000 0.082899
#
#
# Mechanical properties :
#
#
# Convention : Reuss Voigt Hill
#
# Bulk Modulus (GPa) = 69.59528 82.01007 75.80268
# Shear Modulus (GPa) = 19.56462 23.51627 21.54044
#
# Velocity S-wave (km/s) = 3.29900 3.61685 3.46158
# Velocity P-wave (km/s) = 7.29559 7.94121 7.62524
#
# Compressibility (1/GPa) = 0.01436879
#
# Stress axis : x y z
#
# Youngs Moduli (GPa) = 70.38172 64.38882 107.51205
#
# Poissons Ratio (x) = 0.20014 0.53737
# Poissons Ratio (y) = 0.21877 0.45468
# Poissons Ratio (z) = 0.35179 0.27231
#
# Static dielectric constant tensor:
#      x y z
#    x 1.624920 0.000000 0.000000 
#    y 0.000000 1.598590 0.000000 
#    z 0.000000 0.000000 1.679980 
# 
# From -- ./inp_files/18881.got.cif
#   From: 2010.05.17/outbox.cif.g08.bks.cpg/sg73_10_cif.got.tgz:18881.got - 2010.06.03 17:35:07.
