data_PCOD9530837
_publ_section_title
;
Structure prediction by ZEFSAII (Michael W. Deem and Ramdas Pophale) SiO2 
 PCOD9530837
Probable space group: I B C A 
;
_chemical_formula_sum "Si O2"
_cell_formula_units_Z 80
_cell_length_a 20.477653
_cell_length_b 8.591189
_cell_length_c 19.231490
_cell_angle_alpha 90.000000
_cell_angle_beta 90.000000
_cell_angle_gamma 90.000000
_cell_volume 3383.345788
_symmetry_space_group_name_H-M "I B C A "
_symmetry_group_IT_number 73
_symmetry_cell_setting 'orthorhombic'
loop_
_space_group_symop_operation_xyz
x,y,z
-x,1/2-y,z
x,-y,1/2-z
1/2-x,y,-z
-x,-y,-z
x,1/2+y,-z
-x,y,1/2+z
1/2+x,-y,z
1/2+x,1/2+y,1/2+z
1/2-x,-y,1/2+z
1/2+x,1/2-y,-z
-x,1/2+y,1/2-z
1/2-x,1/2-y,1/2-z
1/2+x,y,1/2-z
1/2-x,1/2+y,z
x,1/2-y,1/2+z
loop_
_atom_site_type_symbol
_atom_site_label
_atom_site_fract_x
_atom_site_fract_y
_atom_site_fract_z
Si Si1 0.859277 0.389299 0.029827
Si Si2 0.118939 0.000000 0.250000
Si Si3 0.500000 0.250000 0.505051
Si Si4 0.668730 0.398749 0.131199
Si Si5 0.199778 0.744872 0.337446
Si Si6 0.421228 0.135172 0.615305
O O1 0.818882 0.287640 0.083267
O O2 0.864178 0.555058 0.069456
O O3 0.829766 0.412279 0.953372
O O4 0.931988 0.306359 0.028366
O O5 0.162798 0.137331 0.215267
O O6 0.073165 0.047543 0.313456
O O7 0.479462 0.119514 0.561194
O O8 0.723763 0.285308 0.163111
O O9 0.679448 0.564785 0.167658
O O10 0.600403 0.307693 0.137716
#
# Coordination Sequence:
#
# PCOD9530837 Si02
#       6
#    16   8   8  16  16  16
#     4  10  21  39  62  92 122 154 198 247 299 351
#     4  10  24  44  58  82 118 160 202 240 296 360
#     4  10  20  38  64  90 116 152 200 252 300 344
#     4  11  22  37  61  92 120 155 196 245 301 352
#     4  11  23  38  61  88 123 159 195 243 296 360
#     4  10  22  40  62  86 121 157 197 246 293 355
#
# _framework density 23.645233000000001
#
# number of rings (size 3 to 8) (size 9 to 14) (size 15 to 20)
#    0.000    1.600    0.000    6.000    0.000    7.200 
#    0.000    8.000    0.000    0.000    0.000    0.000 
#    0.000    0.000    0.000    0.000    0.000    0.000 
#
# Total GULP energy -222967.633613 kJ/mol
# GULP energy per Si atom -5574.190840 kJ/mol
# Density = 2.359142 g / cm^3
# Si number density = 23.645233 Si / 1000 Ang^3
#
#
#
# Elastic Constant Matrix: (Units=GPa)
#
#
# Indices 1 2 3 4 5 6 
#
# 1 43.2235 18.1572 -22.9663 0.0000 0.0000 0.0000
# 2 18.1572 108.9797 22.3674 0.0000 0.0000 0.0000
# 3 -22.9663 22.3674 88.6758 0.0000 0.0000 0.0000
# 4 0.0000 0.0000 0.0000 33.4341 0.0000 0.0000
# 5 0.0000 0.0000 0.0000 0.0000 38.9457 0.0000
# 6 0.0000 0.0000 0.0000 0.0000 0.0000 26.2932
#
#
#
# Elastic Compliance Matrix: (Units=1/GPa)
#
#
# Indices 1 2 3 4 5 6 
#
# 1 0.031521 -0.007306 0.010006 0.000000 0.000000 0.000000
# 2 -0.007306 0.011370 -0.004760 0.000000 0.000000 0.000000
# 3 0.010006 -0.004760 0.015069 0.000000 0.000000 0.000000
# 4 0.000000 0.000000 0.000000 0.029910 0.000000 0.000000
# 5 0.000000 0.000000 0.000000 0.000000 0.025677 0.000000
# 6 0.000000 0.000000 0.000000 0.000000 0.000000 0.038033
#
#
# Mechanical properties :
#
#
# Convention : Reuss Voigt Hill
#
# Bulk Modulus (GPa) = 18.57271 30.66619 24.61945
# Shear Modulus (GPa) = 28.79431 34.62266 31.70849
#
# Velocity S-wave (km/s) = 3.49343 3.83071 3.66595
# Velocity P-wave (km/s) = 4.91364 5.70642 5.32481
#
# Compressibility (1/GPa) = 0.05384243
#
# Stress axis : x y z
#
# Youngs Moduli (GPa) = 31.72463 87.94938 66.36010
#
# Poissons Ratio (x) = 0.64252 -0.66403
# Poissons Ratio (y) = 0.23177 0.31588
# Poissons Ratio (z) = -0.31745 0.41864
#
# Static dielectric constant tensor:
#      x y z
#    x 1.938730 0.000000 0.000000 
#    y 0.000000 2.063570 0.000000 
#    z 0.000000 0.000000 1.907750 
# 
# From -- ./inp_files/27174.got.cif
#   From: 2010.05.17/outbox.cif.g08.bks.cpg/sg73_14_cif.got.tgz:27174.got - 2010.06.03 17:35:07.
