data_PCOD9530255
_publ_section_title
;
Structure prediction by ZEFSAII (Michael W. Deem and Ramdas Pophale) SiO2 
 PCOD9530255
Probable space group: I B C A 
;
_chemical_formula_sum "Si O2"
_cell_formula_units_Z 120
_cell_length_a 21.677651
_cell_length_b 14.591133
_cell_length_c 16.556678
_cell_angle_alpha 90.000000
_cell_angle_beta 90.000000
_cell_angle_gamma 90.000000
_cell_volume 5236.901902
_symmetry_space_group_name_H-M "I B C A "
_symmetry_group_IT_number 73
_symmetry_cell_setting 'orthorhombic'
loop_
_space_group_symop_operation_xyz
x,y,z
-x,1/2-y,z
x,-y,1/2-z
1/2-x,y,-z
-x,-y,-z
x,1/2+y,-z
-x,y,1/2+z
1/2+x,-y,z
1/2+x,1/2+y,1/2+z
1/2-x,-y,1/2+z
1/2+x,1/2-y,-z
-x,1/2+y,1/2-z
1/2-x,1/2-y,1/2-z
1/2+x,y,1/2-z
1/2-x,1/2+y,z
x,1/2-y,1/2+z
loop_
_atom_site_type_symbol
_atom_site_label
_atom_site_fract_x
_atom_site_fract_y
_atom_site_fract_z
Si Si1 0.962575 0.996813 0.614735
Si Si2 0.407305 0.451614 0.831189
Si Si3 0.677351 0.496941 0.597777
Si Si4 0.028076 0.155212 0.980250
Si Si5 0.654243 0.894415 0.938460
Si Si6 0.252963 0.375044 0.303467
Si Si7 0.320174 0.294034 0.844477
Si Si8 0.250000 0.154022 0.500000
O O1 0.890777 0.988105 0.634802
O O2 0.963047 0.075143 0.545579
O O3 0.019277 0.034155 0.667824
O O4 0.985041 0.896884 0.584428
O O5 0.383465 0.500000 0.750000
O O6 0.375747 0.511326 0.902134
O O7 0.384798 0.347583 0.840925
O O8 0.678254 0.574531 0.526262
O O9 0.723727 0.527108 0.667397
O O10 0.703755 0.408679 0.552605
O O11 0.096226 0.172676 0.946104
O O12 0.000000 0.250000 0.009503
O O13 0.702246 0.855050 0.874011
O O14 0.221932 0.351719 0.218675
O O15 0.312378 0.308621 0.312605
O O16 0.292077 0.295540 0.934240
#
# Coordination Sequence:
#
# PCOD9530255 Si02
#       8
#    16  16  16  16  16  16  16   8
#     4   9  22  38  59  96 122 162 226 272 318 402
#     4  11  20  41  66  84 121 181 223 267 333 397
#     4  11  21  40  64  95 133 161 212 279 333 389
#     4   9  19  36  62  90 126 165 204 273 329 382
#     4  10  19  36  65  92 122 168 213 260 324 402
#     4  11  23  43  62  93 135 173 211 274 339 393
#     4  11  26  40  64  94 128 170 225 269 329 414
#     4  12  24  38  66 102 120 172 210 274 330 406
#
# _framework density 22.914311999999999
#
# number of rings (size 3 to 8) (size 9 to 14) (size 15 to 20)
#    0.000    1.600    4.000    0.800    1.867    3.200 
#    2.400    0.000    2.933    0.800    0.000    0.000 
#    0.000    0.000    0.000    0.000    0.000    0.000 
#
# Total GULP energy -334934.298548 kJ/mol
# GULP energy per Si atom -5582.238309 kJ/mol
# Density = 2.286216 g / cm^3
# Si number density = 22.914312 Si / 1000 Ang^3
#
#
#
# Elastic Constant Matrix: (Units=GPa)
#
#
# Indices 1 2 3 4 5 6 
#
# 1 76.7200 10.5832 9.0358 0.0000 0.0000 0.0000
# 2 10.5832 54.0265 -10.1910 0.0000 0.0000 0.0000
# 3 9.0358 -10.1910 92.8519 0.0000 0.0000 0.0000
# 4 0.0000 0.0000 0.0000 16.7774 0.0000 0.0000
# 5 0.0000 0.0000 0.0000 0.0000 20.5633 0.0000
# 6 0.0000 0.0000 0.0000 0.0000 0.0000 13.0381
#
#
#
# Elastic Compliance Matrix: (Units=1/GPa)
#
#
# Indices 1 2 3 4 5 6 
#
# 1 0.013641 -0.002984 -0.001655 0.000000 0.000000 0.000000
# 2 -0.002984 0.019554 0.002437 0.000000 0.000000 0.000000
# 3 -0.001655 0.002437 0.011198 0.000000 0.000000 0.000000
# 4 0.000000 0.000000 0.000000 0.059604 0.000000 0.000000
# 5 0.000000 0.000000 0.000000 0.000000 0.048630 0.000000
# 6 0.000000 0.000000 0.000000 0.000000 0.000000 0.076698
#
#
# Mechanical properties :
#
#
# Convention : Reuss Voigt Hill
#
# Bulk Modulus (GPa) = 25.00788 26.93938 25.97363
# Shear Modulus (GPa) = 20.23797 24.35377 22.29587
#
# Velocity S-wave (km/s) = 2.97510 3.26363 3.12270
# Velocity P-wave (km/s) = 4.76854 5.09743 4.93572
#
# Compressibility (1/GPa) = 0.03998739
#
# Stress axis : x y z
#
# Youngs Moduli (GPa) = 73.30833 51.14135 89.29911
#
# Poissons Ratio (x) = 0.15262 0.14779
# Poissons Ratio (y) = 0.21878 -0.21758
# Poissons Ratio (z) = 0.12133 -0.12461
#
# Static dielectric constant tensor:
#      x y z
#    x 1.904560 0.000000 0.000000 
#    y 0.000000 1.860420 0.000000 
#    z 0.000000 0.000000 1.937880 
# 
# From -- ./inp_files/23664.got.cif
#   From: 2010.05.17/outbox.cif.g08.bks.cpg/sg73_12_cif.got.tgz:23664.got - 2010.06.03 17:35:07.
