data_PCOD9530183
_publ_section_title
;
Structure prediction by ZEFSAII (Michael W. Deem and Ramdas Pophale) SiO2 
 PCOD9530183
Probable space group: I B C A 
;
_chemical_formula_sum "Si O2"
_cell_formula_units_Z 120
_cell_length_a 19.913639
_cell_length_b 22.871150
_cell_length_c 11.461576
_cell_angle_alpha 90.000000
_cell_angle_beta 90.000000
_cell_angle_gamma 90.000000
_cell_volume 5220.149856
_symmetry_space_group_name_H-M "I B C A "
_symmetry_group_IT_number 73
_symmetry_cell_setting 'orthorhombic'
loop_
_space_group_symop_operation_xyz
x,y,z
-x,1/2-y,z
x,-y,1/2-z
1/2-x,y,-z
-x,-y,-z
x,1/2+y,-z
-x,y,1/2+z
1/2+x,-y,z
1/2+x,1/2+y,1/2+z
1/2-x,-y,1/2+z
1/2+x,1/2-y,-z
-x,1/2+y,1/2-z
1/2-x,1/2-y,1/2-z
1/2+x,y,1/2-z
1/2-x,1/2+y,z
x,1/2-y,1/2+z
loop_
_atom_site_type_symbol
_atom_site_label
_atom_site_fract_x
_atom_site_fract_y
_atom_site_fract_z
Si Si1 0.579215 0.234426 0.814127
Si Si2 0.296391 0.119172 0.902902
Si Si3 0.552287 0.127910 0.660112
Si Si4 0.092123 0.953737 0.462499
Si Si5 0.447884 0.452538 0.873823
Si Si6 0.919536 0.658055 0.032667
Si Si7 0.807820 0.313472 0.309836
Si Si8 0.750000 0.228890 0.500000
O O1 0.500000 0.250000 0.805377
O O2 0.589839 0.178245 0.730356
O O3 0.632103 0.280959 0.762525
O O4 0.587191 0.215228 0.950020
O O5 0.352332 0.071019 0.875905
O O6 0.269302 0.145000 0.780967
O O7 0.308115 0.181201 0.972213
O O8 0.250000 0.088550 0.000000
O O9 0.580464 0.105033 0.538479
O O10 0.553965 0.069735 0.741427
O O11 0.479034 0.154037 0.627766
O O12 0.024458 0.972397 0.397193
O O13 0.102711 0.003759 0.559527
O O14 0.437994 0.392899 0.944634
O O15 0.849148 0.649324 0.095933
O O16 0.764670 0.268211 0.386695
#
# Coordination Sequence:
#
# PCOD9530183 Si02
#       8
#    16  16  16  16  16  16  16   8
#     4  11  23  33  57  95 136 171 209 264 338 403
#     4  10  24  40  63  89 120 169 224 272 316 390
#     4  10  19  35  55  89 131 161 201 249 328 399
#     4  10  19  37  64  85 124 157 214 264 330 396
#     4   9  20  36  59  95 119 160 200 268 336 401
#     4  10  22  34  58  92 129 165 210 262 326 404
#     4  12  22  42  61  88 130 176 223 276 322 390
#     4  10  24  42  64  88 120 182 226 272 318 382
#
# _framework density 22.987846999999999
#
# number of rings (size 3 to 8) (size 9 to 14) (size 15 to 20)
#    0.400    1.333    1.333    3.200    5.600    0.000 
#    2.400    2.000    1.467    0.000    0.000    0.000 
#    0.000    0.000    0.000    0.000    0.000    0.000 
#
# Total GULP energy -334005.088809 kJ/mol
# GULP energy per Si atom -5566.751480 kJ/mol
# Density = 2.293553 g / cm^3
# Si number density = 22.987847 Si / 1000 Ang^3
#
#
#
# Elastic Constant Matrix: (Units=GPa)
#
#
# Indices 1 2 3 4 5 6 
#
# 1 34.0115 12.8998 5.7534 0.0000 0.0000 0.0000
# 2 12.8998 32.4512 11.7632 0.0000 0.0000 0.0000
# 3 5.7534 11.7632 77.0492 0.0000 0.0000 0.0000
# 4 0.0000 0.0000 0.0000 18.6680 0.0000 0.0000
# 5 0.0000 0.0000 0.0000 0.0000 23.4209 0.0000
# 6 0.0000 0.0000 0.0000 0.0000 0.0000 29.3923
#
#
#
# Elastic Compliance Matrix: (Units=1/GPa)
#
#
# Indices 1 2 3 4 5 6 
#
# 1 0.034641 -0.013584 -0.000513 0.000000 0.000000 0.000000
# 2 -0.013584 0.037948 -0.004779 0.000000 0.000000 0.000000
# 3 -0.000513 -0.004779 0.013747 0.000000 0.000000 0.000000
# 4 0.000000 0.000000 0.000000 0.053567 0.000000 0.000000
# 5 0.000000 0.000000 0.000000 0.000000 0.042697 0.000000
# 6 0.000000 0.000000 0.000000 0.000000 0.000000 0.034022
#
#
# Mechanical properties :
#
#
# Convention : Reuss Voigt Hill
#
# Bulk Modulus (GPa) = 20.58345 22.70498 21.64421
# Shear Modulus (GPa) = 18.47959 21.83596 20.15778
#
# Velocity S-wave (km/s) = 2.83836 3.08537 2.96444
# Velocity P-wave (km/s) = 4.44018 4.75301 4.59926
#
# Compressibility (1/GPa) = 0.04858273
#
# Stress axis : x y z
#
# Youngs Moduli (GPa) = 28.86774 26.35197 72.74501
#
# Poissons Ratio (x) = 0.35797 0.03730
# Poissons Ratio (y) = 0.39215 0.34766
# Poissons Ratio (z) = 0.01480 0.12594
#
# Static dielectric constant tensor:
#      x y z
#    x 1.984970 0.000000 0.000000 
#    y 0.000000 1.876890 0.000000 
#    z 0.000000 0.000000 1.970890 
# 
# From -- ./inp_files/13118.got.cif
#   From: 2010.05.17/outbox.cif.g08.bks.cpg/sg73_7_cif.got.tgz:13118.got - 2010.06.03 17:35:07.
