data_PCOD9530359
_publ_section_title
;
Structure prediction by ZEFSAII (Michael W. Deem and Ramdas Pophale) SiO2 
 PCOD9530359
Probable space group: I B C A 
;
_chemical_formula_sum "Si O2"
_cell_formula_units_Z 104
_cell_length_a 8.950709
_cell_length_b 27.794253
_cell_length_c 21.449993
_cell_angle_alpha 90.000000
_cell_angle_beta 90.000000
_cell_angle_gamma 90.000000
_cell_volume 5336.292160
_symmetry_space_group_name_H-M "I B C A "
_symmetry_group_IT_number 73
_symmetry_cell_setting 'orthorhombic'
loop_
_space_group_symop_operation_xyz
x,y,z
-x,1/2-y,z
x,-y,1/2-z
1/2-x,y,-z
-x,-y,-z
x,1/2+y,-z
-x,y,1/2+z
1/2+x,-y,z
1/2+x,1/2+y,1/2+z
1/2-x,-y,1/2+z
1/2+x,1/2-y,-z
-x,1/2+y,1/2-z
1/2-x,1/2-y,1/2-z
1/2+x,y,1/2-z
1/2-x,1/2+y,z
x,1/2-y,1/2+z
loop_
_atom_site_type_symbol
_atom_site_label
_atom_site_fract_x
_atom_site_fract_y
_atom_site_fract_z
Si Si1 0.449541 0.137830 0.265828
Si Si2 0.853822 0.527533 0.438463
Si Si3 0.694240 0.707608 0.796626
Si Si4 0.771575 0.099639 0.665015
Si Si5 0.640188 0.654831 0.442734
Si Si6 0.500000 0.250000 0.095513
Si Si7 0.910590 0.424690 0.478238
O O1 0.555433 0.176878 0.231037
O O2 0.328948 0.169613 0.303418
O O3 0.565109 0.107068 0.306035
O O4 0.353955 0.104606 0.218431
O O5 0.750000 0.531247 0.500000
O O6 0.777949 0.553094 0.379753
O O7 0.889373 0.471138 0.433701
O O8 0.002228 0.555534 0.460540
O O9 0.750000 0.750000 0.750000
O O10 0.631217 0.730381 0.859568
O O11 0.732735 0.144479 0.619815
O O12 0.750000 0.647039 0.500000
O O13 0.567403 0.706761 0.443624
O O14 0.509558 0.615531 0.446251
O O15 0.750000 0.406738 0.500000
#
# Coordination Sequence:
#
# PCOD9530359 Si02
#       7
#    16  16  16  16  16   8  16
#     4  10  22  34  64  92 124 172 221 264 323 377
#     4  10  19  39  70 102 125 162 212 268 334 382
#     4  11  18  37  58  89 119 167 231 266 292 380
#     4  11  20  42  64  95 131 168 217 275 327 387
#     4  12  24  45  64  92 141 174 209 281 343 388
#     4  12  24  38  64  92 134 172 214 270 326 398
#     4  10  21  37  68 104 120 164 221 261 317 402
#
# _framework density 19.489187000000001
#
# number of rings (size 3 to 8) (size 9 to 14) (size 15 to 20)
#    0.000    1.231    6.154    0.923    0.000    1.846 
#    2.769    0.000    0.000    2.769    0.000    0.000 
#    0.000    0.000    0.000    0.000    0.000    0.000 
#
# Total GULP energy -290373.379059 kJ/mol
# GULP energy per Si atom -5584.103443 kJ/mol
# Density = 1.944483 g / cm^3
# Si number density = 19.489187 Si / 1000 Ang^3
#
#
#
# Elastic Constant Matrix: (Units=GPa)
#
#
# Indices 1 2 3 4 5 6 
#
# 1 140.3162 42.1957 44.8821 0.0000 0.0000 0.0000
# 2 42.1957 109.8831 34.6881 0.0000 0.0000 0.0000
# 3 44.8821 34.6881 58.7546 -0.0002 0.0000 0.0000
# 4 0.0000 0.0000 -0.0002 21.1482 0.0000 0.0000
# 5 0.0000 0.0000 0.0000 0.0000 26.0841 0.0000
# 6 0.0000 0.0000 0.0000 0.0000 0.0000 29.4859
#
#
#
# Elastic Compliance Matrix: (Units=1/GPa)
#
#
# Indices 1 2 3 4 5 6 
#
# 1 0.009683 -0.001700 -0.006393 0.000000 0.000000 0.000000
# 2 -0.001700 0.011484 -0.005481 0.000000 0.000000 0.000000
# 3 -0.006393 -0.005481 0.025139 0.000000 0.000000 0.000000
# 4 0.000000 0.000000 0.000000 0.047285 0.000000 0.000000
# 5 0.000000 0.000000 0.000000 0.000000 0.038338 0.000000
# 6 0.000000 0.000000 0.000000 0.000000 0.000000 0.033914
#
#
# Mechanical properties :
#
#
# Convention : Reuss Voigt Hill
#
# Bulk Modulus (GPa) = 52.19851 61.38730 56.79290
# Shear Modulus (GPa) = 25.07802 27.82285 26.45043
#
# Velocity S-wave (km/s) = 3.59104 3.78246 3.68800
# Velocity P-wave (km/s) = 6.63593 7.11636 6.88034
#
# Compressibility (1/GPa) = 0.01915764
#
# Stress axis : x y z
#
# Youngs Moduli (GPa) = 103.27489 87.07957 39.77814
#
# Poissons Ratio (x) = 0.14805 0.25430
# Poissons Ratio (y) = 0.17558 0.21803
# Poissons Ratio (z) = 0.66023 0.47730
#
# Static dielectric constant tensor:
#      x y z
#    x 1.713730 0.000000 0.000000 
#    y 0.000000 1.726050 0.000000 
#    z 0.000000 0.000000 1.690880 
# 
# From -- ./inp_files/28498.got.cif
#   From: 2010.05.17/outbox.cif.g08.bks.cpg/sg73_15_cif.got.tgz:28498.got - 2010.06.03 17:35:07.
