data_PCOD9530438
_publ_section_title
;
Structure prediction by ZEFSAII (Michael W. Deem and Ramdas Pophale) SiO2 
 PCOD9530438
Probable space group: I B C A 
;
_chemical_formula_sum "Si O2"
_cell_formula_units_Z 96
_cell_length_a 27.700602
_cell_length_b 12.860297
_cell_length_c 10.174566
_cell_angle_alpha 90.000000
_cell_angle_beta 90.000000
_cell_angle_gamma 90.000000
_cell_volume 3624.566725
_symmetry_space_group_name_H-M "I B C A "
_symmetry_group_IT_number 73
_symmetry_cell_setting 'orthorhombic'
loop_
_space_group_symop_operation_xyz
x,y,z
-x,1/2-y,z
x,-y,1/2-z
1/2-x,y,-z
-x,-y,-z
x,1/2+y,-z
-x,y,1/2+z
1/2+x,-y,z
1/2+x,1/2+y,1/2+z
1/2-x,-y,1/2+z
1/2+x,1/2-y,-z
-x,1/2+y,1/2-z
1/2-x,1/2-y,1/2-z
1/2+x,y,1/2-z
1/2-x,1/2+y,z
x,1/2-y,1/2+z
loop_
_atom_site_type_symbol
_atom_site_label
_atom_site_fract_x
_atom_site_fract_y
_atom_site_fract_z
Si Si1 0.964168 0.083623 0.141995
Si Si2 0.555653 0.771781 0.846603
Si Si3 0.841419 0.273492 0.861187
Si Si4 0.750000 0.489125 0.500000
Si Si5 0.429954 0.942121 0.570767
Si Si6 0.686632 0.500000 0.250000
Si Si7 0.825753 0.863695 0.866178
O O1 0.944818 0.191389 0.194385
O O2 0.947818 0.000000 0.250000
O O3 0.022299 0.083899 0.154034
O O4 0.944973 0.050617 0.000240
O O5 0.500000 0.750000 0.877046
O O6 0.606489 0.716049 0.855474
O O7 0.566649 0.862486 0.950542
O O8 0.840076 0.394308 0.806318
O O9 0.812204 0.198509 0.764859
O O10 0.826935 0.282664 0.011938
O O11 0.714600 0.453084 0.379392
O O12 0.714153 0.555504 0.591164
O O13 0.377683 0.923772 0.631289
#
# Coordination Sequence:
#
# PCOD9530438 Si02
#       7
#    16  16  16   8  16   8  16
#     4   9  18  32  54  80 113 162 199 252 311 377
#     4  10  20  32  56  84 119 163 210 252 306 381
#     4  10  23  39  66  91 131 165 215 266 326 392
#     4  10  24  42  68  92 130 162 222 270 320 404
#     4   9  19  35  54  80 122 155 205 257 316 372
#     4  10  24  44  66  98 124 174 214 270 338 388
#     4  10  22  41  62  93 123 164 213 269 322 384
#
# _framework density 26.485924000000001
#
# number of rings (size 3 to 8) (size 9 to 14) (size 15 to 20)
#    0.000    2.333    0.000    1.000    8.167    8.000 
#    1.500    1.667    0.000    0.000    0.000    0.000 
#    0.000    0.000    0.000    0.000    0.000    0.000 
#
# Total GULP energy -267588.653810 kJ/mol
# GULP energy per Si atom -5574.763621 kJ/mol
# Density = 2.642564 g / cm^3
# Si number density = 26.485924 Si / 1000 Ang^3
#
#
#
# Elastic Constant Matrix: (Units=GPa)
#
#
# Indices 1 2 3 4 5 6 
#
# 1 80.7542 30.4258 12.1659 0.0000 0.0000 0.0000
# 2 30.4258 54.1864 21.4156 0.0000 0.0000 0.0000
# 3 12.1659 21.4156 85.4442 0.0000 0.0000 0.0000
# 4 0.0000 0.0000 0.0000 42.5520 0.0000 0.0000
# 5 0.0000 0.0000 0.0000 0.0000 34.0662 0.0000
# 6 0.0000 0.0000 0.0000 0.0000 0.0000 -14.0532
#
#
#
# Elastic Compliance Matrix: (Units=1/GPa)
#
#
# Indices 1 2 3 4 5 6 
#
# 1 0.015706 -0.008808 -0.000029 0.000000 0.000000 0.000000
# 2 -0.008808 0.025423 -0.005118 0.000000 0.000000 0.000000
# 3 -0.000029 -0.005118 0.012990 0.000000 0.000000 0.000000
# 4 0.000000 0.000000 0.000000 0.023501 0.000000 0.000000
# 5 0.000000 0.000000 0.000000 0.000000 0.029355 0.000000
# 6 0.000000 0.000000 0.000000 0.000000 0.000000 -0.071158
#
#
# Mechanical properties :
#
#
# Convention : Reuss Voigt Hill
#
# Bulk Modulus (GPa) = 38.15214 38.71105 38.43160
# Shear Modulus (GPa) = 69.00180 22.93818 45.96999
#
# Velocity S-wave (km/s) = 5.10968 2.94607 4.17062
# Velocity P-wave (km/s) = 7.01767 5.12053 6.14278
#
# Compressibility (1/GPa) = 0.02621085
#
# Stress axis : x y z
#
# Youngs Moduli (GPa) = 63.66977 39.33449 76.98006
#
# Poissons Ratio (x) = 0.34644 0.00222
# Poissons Ratio (y) = 0.56078 0.39398
# Poissons Ratio (z) = 0.00183 0.20131
#
# Static dielectric constant tensor:
#      x y z
#    x 2.188490 0.000000 0.000000 
#    y 0.000000 2.351590 0.000000 
#    z 0.000000 0.000000 2.069990 
# 
# From -- ./inp_files/14764.got.cif
#   From: 2010.05.17/outbox.cif.g08.bks.cpg/sg73_8_cif.got.tgz:14764.got - 2010.06.03 17:35:07.
