data_PCOD9530896
_publ_section_title
;
Structure prediction by ZEFSAII (Michael W. Deem and Ramdas Pophale) SiO2 
 PCOD9530896
Probable space group: I B C A 
;
_chemical_formula_sum "Si O2"
_cell_formula_units_Z 120
_cell_length_a 31.256466
_cell_length_b 23.941365
_cell_length_c 6.935784
_cell_angle_alpha 90.000000
_cell_angle_beta 90.000000
_cell_angle_gamma 90.000000
_cell_volume 5190.202953
_symmetry_space_group_name_H-M "I B C A "
_symmetry_group_IT_number 73
_symmetry_cell_setting 'orthorhombic'
loop_
_space_group_symop_operation_xyz
x,y,z
-x,1/2-y,z
x,-y,1/2-z
1/2-x,y,-z
-x,-y,-z
x,1/2+y,-z
-x,y,1/2+z
1/2+x,-y,z
1/2+x,1/2+y,1/2+z
1/2-x,-y,1/2+z
1/2+x,1/2-y,-z
-x,1/2+y,1/2-z
1/2-x,1/2-y,1/2-z
1/2+x,y,1/2-z
1/2-x,1/2+y,z
x,1/2-y,1/2+z
loop_
_atom_site_type_symbol
_atom_site_label
_atom_site_fract_x
_atom_site_fract_y
_atom_site_fract_z
Si Si1 0.406386 0.496151 0.980343
Si Si2 0.128764 0.301409 0.188006
Si Si3 0.224655 0.689265 0.239826
Si Si4 0.674615 0.500000 0.750000
Si Si5 0.040950 0.394780 0.505621
Si Si6 0.941735 0.378672 0.555923
Si Si7 0.613730 0.826507 0.134078
Si Si8 0.201003 0.122086 0.168157
O O1 0.402077 0.500000 0.750000
O O2 0.423843 0.435603 0.029060
O O3 0.359570 0.499553 0.073504
O O4 0.441305 0.542594 0.045582
O O5 0.179770 0.305112 0.147371
O O6 0.094771 0.331020 0.046141
O O7 0.117153 0.236707 0.198131
O O8 0.122362 0.324978 0.402817
O O9 0.250000 0.750000 0.250000
O O10 0.262337 0.647931 0.300271
O O11 0.209505 0.657564 0.035350
O O12 0.702172 0.555153 0.696116
O O13 0.054726 0.387067 0.285965
O O14 0.067401 0.354390 0.647443
O O15 0.991624 0.377099 0.503513
O O16 0.652547 0.862112 0.219060
#
# Coordination Sequence:
#
# PCOD9530896 Si02
#       8
#    16  16  16   8  16  16  16  16
#     4  10  23  42  66 100 140 188 249 302 358 449
#     4  10  22  38  64  97 132 178 230 294 368 425
#     4  10  20  42  73  99 143 185 244 323 366 455
#     4  12  24  44  76 104 148 202 234 314 388 446
#     4  10  21  39  62  90 137 179 236 299 356 442
#     4  10  23  39  61  99 133 183 239 299 363 433
#     4  10  20  39  62  91 132 174 228 293 348 444
#     4  10  22  40  69 106 138 188 254 298 381 464
#
# _framework density 23.120481999999999
#
# number of rings (size 3 to 8) (size 9 to 14) (size 15 to 20)
#    0.000    1.867    2.667    0.400    3.733    2.667 
#    0.000    5.333    0.000    0.000    0.000    0.000 
#    0.000    0.000    0.000    0.000    0.000    0.000 
#
# Total GULP energy -334239.124798 kJ/mol
# GULP energy per Si atom -5570.652080 kJ/mol
# Density = 2.306786 g / cm^3
# Si number density = 23.120482 Si / 1000 Ang^3
#
#
#
# Elastic Constant Matrix: (Units=GPa)
#
#
# Indices 1 2 3 4 5 6 
#
# 1 175.1104 113.0794 24.0117 0.0000 0.0000 0.0000
# 2 113.0794 172.2182 22.2254 0.0000 0.0000 0.0000
# 3 24.0117 22.2254 83.8312 0.0000 0.0000 0.0000
# 4 0.0000 0.0000 0.0000 -506.0453 0.0000 0.0000
# 5 0.0000 0.0000 0.0000 0.0000 39.5806 0.0000
# 6 0.0000 0.0000 0.0000 0.0000 0.0000 39.1247
#
#
#
# Elastic Compliance Matrix: (Units=1/GPa)
#
#
# Indices 1 2 3 4 5 6 
#
# 1 0.010023 -0.006431 -0.001166 0.000000 0.000000 0.000000
# 2 -0.006431 0.010138 -0.000846 0.000000 0.000000 0.000000
# 3 -0.001166 -0.000846 0.012487 0.000000 0.000000 0.000000
# 4 0.000000 0.000000 0.000000 -0.001976 0.000000 0.000000
# 5 0.000000 0.000000 0.000000 0.000000 0.025265 0.000000
# 6 0.000000 0.000000 0.000000 0.000000 0.000000 0.025559
#
#
# Mechanical properties :
#
#
# Convention : Reuss Voigt Hill
#
# Bulk Modulus (GPa) = 63.43950 83.31031 73.37490
# Shear Modulus (GPa) = 48.24537 -67.34510 -9.54986
#
# Velocity S-wave (km/s) = 4.57299 -5.40288 -2.03456
# Velocity P-wave (km/s) = 7.44186 1.67635 5.12694
#
# Compressibility (1/GPa) = 0.01576305
#
# Stress axis : x y z
#
# Youngs Moduli (GPa) = 99.76619 98.63534 80.08341
#
# Poissons Ratio (x) = 0.63432 0.09338
# Poissons Ratio (y) = 0.64159 0.06774
# Poissons Ratio (z) = 0.11633 0.08343
#
# Static dielectric constant tensor:
#      x y z
#    x 1.946640 0.000000 0.000000 
#    y 0.000000 1.730580 0.000000 
#    z 0.000000 0.000000 2.063570 
# 
# From -- ./inp_files/8588.got.cif
#   From: 2010.05.17/outbox.cif.g08.bks.cpg/sg73_5_cif.got.tgz:8588.got - 2010.06.03 17:35:07.
