data_PCOD9530065
_publ_section_title
;
Structure prediction by ZEFSAII (Michael W. Deem and Ramdas Pophale) SiO2 
 PCOD9530065
Probable space group: I B C A 
;
_chemical_formula_sum "Si O2"
_cell_formula_units_Z 128
_cell_length_a 23.768142
_cell_length_b 26.052118
_cell_length_c 11.404615
_cell_angle_alpha 90.000000
_cell_angle_beta 90.000000
_cell_angle_gamma 90.000000
_cell_volume 7061.856672
_symmetry_space_group_name_H-M "I B C A "
_symmetry_group_IT_number 73
_symmetry_cell_setting 'orthorhombic'
loop_
_space_group_symop_operation_xyz
x,y,z
-x,1/2-y,z
x,-y,1/2-z
1/2-x,y,-z
-x,-y,-z
x,1/2+y,-z
-x,y,1/2+z
1/2+x,-y,z
1/2+x,1/2+y,1/2+z
1/2-x,-y,1/2+z
1/2+x,1/2-y,-z
-x,1/2+y,1/2-z
1/2-x,1/2-y,1/2-z
1/2+x,y,1/2-z
1/2-x,1/2+y,z
x,1/2-y,1/2+z
loop_
_atom_site_type_symbol
_atom_site_label
_atom_site_fract_x
_atom_site_fract_y
_atom_site_fract_z
Si Si1 0.484429 0.882593 0.897413
Si Si2 0.658111 0.195579 0.527590
Si Si3 0.982625 0.305335 0.713124
Si Si4 0.604775 0.195855 0.993731
Si Si5 0.199944 0.375307 0.916385
Si Si6 0.260715 0.805665 0.697064
Si Si7 0.610218 0.058507 0.215291
Si Si8 0.570211 0.371513 0.922597
O O1 0.522460 0.852509 0.802858
O O2 0.448718 0.929636 0.849145
O O3 0.439647 0.837630 0.930915
O O4 0.520696 0.899556 0.007994
O O5 0.623689 0.248767 0.542730
O O6 0.691231 0.198492 0.402947
O O7 0.703229 0.182891 0.627234
O O8 0.614000 0.150628 0.513685
O O9 0.927686 0.299367 0.630584
O O10 0.000000 0.250000 0.764673
O O11 0.036767 0.323891 0.636674
O O12 0.661500 0.162393 0.003378
O O13 0.222218 0.343397 0.802956
O O14 0.160284 0.419788 0.865037
O O15 0.250000 0.393424 0.000000
O O16 0.250000 0.750000 0.750000
O O17 0.602939 0.094727 0.328917
O O18 0.617740 0.000000 0.250000
#
# Coordination Sequence:
#
# PCOD9530065 Si02
#       8
#    16  16  16  16  16  16  16  16
#     4   9  22  34  55  89 116 154 197 234 294 362
#     4  11  21  33  52  82 122 164 196 234 285 350
#     4  10  19  30  49  80 120 159 191 223 275 353
#     4  10  20  33  51  80 120 161 192 230 283 347
#     4  11  22  41  59  84 114 151 208 247 291 363
#     4  11  22  34  52  82 118 164 200 234 290 346
#     4  10  22  44  66  83 113 153 201 262 308 341
#     4  10  20  37  55  83 119 148 194 241 289 358
#
# _framework density 18.125544999999999
#
# number of rings (size 3 to 8) (size 9 to 14) (size 15 to 20)
#    0.000    1.750    3.750    0.750    1.750    2.500 
#    0.000    1.250    0.000    0.000    0.000    1.750 
#    0.000    0.000    0.000    0.000    0.000    0.000 
#
# Total GULP energy -356822.755756 kJ/mol
# GULP energy per Si atom -5575.355559 kJ/mol
# Density = 1.808429 g / cm^3
# Si number density = 18.125545 Si / 1000 Ang^3
#
#
#
# Elastic Constant Matrix: (Units=GPa)
#
#
# Indices 1 2 3 4 5 6 
#
# 1 85.6230 34.3466 38.5347 0.0000 0.0000 0.0000
# 2 34.3466 71.4864 13.4095 0.0000 0.0000 0.0000
# 3 38.5347 13.4095 54.2104 0.0000 0.0000 0.0000
# 4 0.0000 0.0000 0.0000 12.4971 0.0000 0.0000
# 5 0.0000 0.0000 0.0000 0.0000 30.7962 0.0000
# 6 0.0000 0.0000 0.0000 0.0000 0.0000 10.6493
#
#
#
# Elastic Compliance Matrix: (Units=1/GPa)
#
#
# Indices 1 2 3 4 5 6 
#
# 1 0.020326 -0.007399 -0.012618 0.000000 0.000000 0.000000
# 2 -0.007399 0.017363 0.000965 0.000000 0.000000 0.000000
# 3 -0.012618 0.000965 0.027177 0.000000 0.000000 0.000000
# 4 0.000000 0.000000 0.000000 0.080019 0.000000 0.000000
# 5 0.000000 0.000000 0.000000 0.000000 0.032472 0.000000
# 6 0.000000 0.000000 0.000000 0.000000 0.000000 0.093903
#
#
# Mechanical properties :
#
#
# Convention : Reuss Voigt Hill
#
# Bulk Modulus (GPa) = 37.36779 42.65572 40.01176
# Shear Modulus (GPa) = 15.70920 19.12378 17.41649
#
# Velocity S-wave (km/s) = 2.94715 3.25171 3.10317
# Velocity P-wave (km/s) = 5.67818 6.13863 5.91289
#
# Compressibility (1/GPa) = 0.02676102
#
# Stress axis : x y z
#
# Youngs Moduli (GPa) = 49.19826 57.59492 36.79515
#
# Poissons Ratio (x) = 0.42614 0.46429
# Poissons Ratio (y) = 0.36401 -0.03549
# Poissons Ratio (z) = 0.62079 -0.05556
#
# Static dielectric constant tensor:
#      x y z
#    x 1.672890 0.000000 0.000000 
#    y 0.000000 1.576590 0.000000 
#    z 0.000000 0.000000 1.681750 
# 
# From -- ./inp_files/13921.got.cif
#   From: 2010.05.17/outbox.cif.g08.bks.cpg/sg73_7_cif.got.tgz:13921.got - 2010.06.03 17:35:07.
