data_PCOD9530673
_publ_section_title
;
Structure prediction by ZEFSAII (Michael W. Deem and Ramdas Pophale) SiO2 
 PCOD9530673
Probable space group: I B C A 
;
_chemical_formula_sum "Si O2"
_cell_formula_units_Z 88
_cell_length_a 9.069020
_cell_length_b 21.206942
_cell_length_c 22.826994
_cell_angle_alpha 90.000000
_cell_angle_beta 90.000000
_cell_angle_gamma 90.000000
_cell_volume 4390.228583
_symmetry_space_group_name_H-M "I B C A "
_symmetry_group_IT_number 73
_symmetry_cell_setting 'orthorhombic'
loop_
_space_group_symop_operation_xyz
x,y,z
-x,1/2-y,z
x,-y,1/2-z
1/2-x,y,-z
-x,-y,-z
x,1/2+y,-z
-x,y,1/2+z
1/2+x,-y,z
1/2+x,1/2+y,1/2+z
1/2-x,-y,1/2+z
1/2+x,1/2-y,-z
-x,1/2+y,1/2-z
1/2-x,1/2-y,1/2-z
1/2+x,y,1/2-z
1/2-x,1/2+y,z
x,1/2-y,1/2+z
loop_
_atom_site_type_symbol
_atom_site_label
_atom_site_fract_x
_atom_site_fract_y
_atom_site_fract_z
Si Si1 0.098886 0.298946 0.028219
Si Si2 0.453656 0.425903 0.447006
Si Si3 0.115159 0.952037 0.582747
Si Si4 0.249353 0.755047 0.136278
Si Si5 0.500000 0.250000 0.267648
Si Si6 0.497990 0.656511 0.839022
O O1 0.157465 0.253376 0.078418
O O2 0.000000 0.250000 0.989973
O O3 0.013158 0.355792 0.058235
O O4 0.250000 0.324051 0.000000
O O5 0.290813 0.439850 0.421361
O O6 0.566792 0.474963 0.417439
O O7 0.445172 0.432103 0.518197
O O8 0.041192 0.912554 0.636019
O O9 0.356086 0.750680 0.191862
O O10 0.133631 0.698797 0.135399
O O11 0.155132 0.819603 0.137491
O O12 0.499061 0.313522 0.227171
#
# Coordination Sequence:
#
# PCOD9530673 Si02
#       6
#    16  16  16  16   8  16
#     4  12  26  37  61  94 131 165 208 268 325 395
#     4  10  24  40  60  89 131 167 213 254 328 390
#     4  10  22  40  63  86 123 174 212 257 314 391
#     4  10  21  37  60  94 129 164 205 260 334 374
#     4  10  20  40  62  98 124 168 216 270 326 380
#     4  10  20  36  63  89 118 163 215 263 308 379
#
# _framework density 20.044513999999999
#
# number of rings (size 3 to 8) (size 9 to 14) (size 15 to 20)
#    0.000    1.818    0.909    4.364   15.273    0.000 
#    0.000    0.000    0.000    1.091    0.000    0.000 
#    0.000    0.000    0.000    0.000    0.000    0.000 
#
# Total GULP energy -245093.112707 kJ/mol
# GULP energy per Si atom -5570.298016 kJ/mol
# Density = 1.999889 g / cm^3
# Si number density = 20.044514 Si / 1000 Ang^3
#
#
#
# Elastic Constant Matrix: (Units=GPa)
#
#
# Indices 1 2 3 4 5 6 
#
# 1 123.2355 64.2509 20.7037 0.0000 0.0000 0.0000
# 2 64.2509 125.0349 19.3838 0.0000 0.0000 0.0000
# 3 20.7037 19.3838 66.2690 0.0000 0.0000 0.0000
# 4 0.0000 0.0000 0.0000 11.0391 0.0000 0.0000
# 5 0.0000 0.0000 0.0000 0.0000 39.8969 0.0000
# 6 0.0000 0.0000 0.0000 0.0000 0.0000 26.2727
#
#
#
# Elastic Compliance Matrix: (Units=1/GPa)
#
#
# Indices 1 2 3 4 5 6 
#
# 1 0.011313 -0.005515 -0.001921 0.000000 0.000000 0.000000
# 2 -0.005515 0.011067 -0.001514 0.000000 0.000000 0.000000
# 3 -0.001921 -0.001514 0.016133 0.000000 0.000000 0.000000
# 4 0.000000 0.000000 0.000000 0.090587 0.000000 0.000000
# 5 0.000000 0.000000 0.000000 0.000000 0.025065 0.000000
# 6 0.000000 0.000000 0.000000 0.000000 0.000000 0.038062
#
#
# Mechanical properties :
#
#
# Convention : Reuss Voigt Hill
#
# Bulk Modulus (GPa) = 48.51612 58.13514 53.32563
# Shear Modulus (GPa) = 23.04171 29.45513 26.24842
#
# Velocity S-wave (km/s) = 3.39415 3.83755 3.62264
# Velocity P-wave (km/s) = 6.29421 6.97866 6.64525
#
# Compressibility (1/GPa) = 0.02061170
#
# Stress axis : x y z
#
# Youngs Moduli (GPa) = 88.39492 90.36148 61.98469
#
# Poissons Ratio (x) = 0.49839 0.11908
# Poissons Ratio (y) = 0.48754 0.09384
# Poissons Ratio (z) = 0.16981 0.13680
#
# Static dielectric constant tensor:
#      x y z
#    x 1.714680 0.000000 0.000000 
#    y 0.000000 1.789000 0.000000 
#    z 0.000000 0.000000 1.745100 
# 
# From -- ./inp_files/28323.got.cif
#   From: 2010.05.17/outbox.cif.g08.bks.cpg/sg73_15_cif.got.tgz:28323.got - 2010.06.03 17:35:07.
