data_PCOD9530218
_publ_section_title
;
Structure prediction by ZEFSAII (Michael W. Deem and Ramdas Pophale) SiO2 
 PCOD9530218
Probable space group: I B C A 
;
_chemical_formula_sum "Si O2"
_cell_formula_units_Z 96
_cell_length_a 15.601639
_cell_length_b 19.297295
_cell_length_c 14.881530
_cell_angle_alpha 90.000000
_cell_angle_beta 90.000000
_cell_angle_gamma 90.000000
_cell_volume 4480.373759
_symmetry_space_group_name_H-M "I B C A "
_symmetry_group_IT_number 73
_symmetry_cell_setting 'orthorhombic'
loop_
_space_group_symop_operation_xyz
x,y,z
-x,1/2-y,z
x,-y,1/2-z
1/2-x,y,-z
-x,-y,-z
x,1/2+y,-z
-x,y,1/2+z
1/2+x,-y,z
1/2+x,1/2+y,1/2+z
1/2-x,-y,1/2+z
1/2+x,1/2-y,-z
-x,1/2+y,1/2-z
1/2-x,1/2-y,1/2-z
1/2+x,y,1/2-z
1/2-x,1/2+y,z
x,1/2-y,1/2+z
loop_
_atom_site_type_symbol
_atom_site_label
_atom_site_fract_x
_atom_site_fract_y
_atom_site_fract_z
Si Si1 0.019037 0.917610 0.259394
Si Si2 0.838391 0.395391 0.373465
Si Si3 0.897406 0.493433 0.983099
Si Si4 0.657710 0.591024 0.176211
Si Si5 0.379115 0.698889 0.525251
Si Si6 0.070429 0.148193 0.047343
O O1 0.076322 0.884285 0.183059
O O2 0.050131 0.885474 0.354540
O O3 0.917063 0.905714 0.250855
O O4 0.034651 0.000000 0.250000
O O5 0.850928 0.460678 0.440667
O O6 0.758782 0.411874 0.307819
O O7 0.828058 0.329772 0.439508
O O8 0.870373 0.527681 0.889344
O O9 0.882692 0.412161 0.992595
O O10 0.000000 0.500000 0.000000
O O11 0.647785 0.658677 0.114573
O O12 0.476579 0.670136 0.510469
O O13 0.378899 0.780038 0.543989
#
# Coordination Sequence:
#
# PCOD9530218 Si02
#       6
#    16  16  16  16  16  16
#     4  11  21  38  63  90 129 168 206 270 333 381
#     4  11  21  38  64  92 127 170 212 265 327 379
#     4  11  16  35  64  92 123 161 216 258 311 380
#     4  10  22  38  62  91 126 172 216 261 323 377
#     4   9  19  37  61  90 122 168 214 260 313 382
#     4  10  19  35  63  91 125 166 211 256 314 388
#
# _framework density 21.426784000000001
#
# number of rings (size 3 to 8) (size 9 to 14) (size 15 to 20)
#    0.000    1.667    6.667    2.000    0.000    0.667 
#    0.000   10.833    0.000    4.000    0.000    0.000 
#    0.000    0.000    0.000    0.000    0.000    0.000 
#
# Total GULP energy -267904.080380 kJ/mol
# GULP energy per Si atom -5581.335008 kJ/mol
# Density = 2.137802 g / cm^3
# Si number density = 21.426784 Si / 1000 Ang^3
#
#
#
# Elastic Constant Matrix: (Units=GPa)
#
#
# Indices 1 2 3 4 5 6 
#
# 1 97.5383 19.8105 41.1264 0.0000 0.0000 0.0000
# 2 19.8105 172.3657 27.4069 0.0000 0.0000 0.0000
# 3 41.1264 27.4069 55.6236 0.0000 0.0000 0.0000
# 4 0.0000 0.0000 0.0000 15.8828 0.0000 0.0000
# 5 0.0000 0.0000 0.0000 0.0000 36.7566 0.0000
# 6 0.0000 0.0000 0.0000 0.0000 0.0000 15.8346
#
#
#
# Elastic Compliance Matrix: (Units=1/GPa)
#
#
# Indices 1 2 3 4 5 6 
#
# 1 0.014897 0.000043 -0.011035 0.000000 0.000000 0.000000
# 2 0.000043 0.006295 -0.003133 0.000000 0.000000 0.000000
# 3 -0.011035 -0.003133 0.027681 0.000000 0.000000 0.000000
# 4 0.000000 0.000000 0.000000 0.062961 0.000000 0.000000
# 5 0.000000 0.000000 0.000000 0.000000 0.027206 0.000000
# 6 0.000000 0.000000 0.000000 0.000000 0.000000 0.063153
#
#
# Mechanical properties :
#
#
# Convention : Reuss Voigt Hill
#
# Bulk Modulus (GPa) = 48.49423 55.80168 52.14796
# Shear Modulus (GPa) = 21.06887 29.50706 25.28796
#
# Velocity S-wave (km/s) = 3.13916 3.71497 3.43914
# Velocity P-wave (km/s) = 5.98504 6.67089 6.33725
#
# Compressibility (1/GPa) = 0.02062101
#
# Stress axis : x y z
#
# Youngs Moduli (GPa) = 67.12933 158.85877 36.12626
#
# Poissons Ratio (x) = -0.00675 0.39866
# Poissons Ratio (y) = -0.00285 0.11319
# Poissons Ratio (z) = 0.74078 0.49771
#
# Static dielectric constant tensor:
#      x y z
#    x 1.856970 0.000000 0.000000 
#    y 0.000000 1.773860 0.000000 
#    z 0.000000 0.000000 1.797240 
# 
# From -- ./inp_files/17074.got.cif
#   From: 2010.05.17/outbox.cif.g08.bks.cpg/sg73_9_cif.got.tgz:17074.got - 2010.06.03 17:35:07.
