data_PCOD9530296
_publ_section_title
;
Structure prediction by ZEFSAII (Michael W. Deem and Ramdas Pophale) SiO2 
 PCOD9530296
Probable space group: I B C A 
;
_chemical_formula_sum "Si O2"
_cell_formula_units_Z 88
_cell_length_a 30.441918
_cell_length_b 14.843127
_cell_length_c 8.899412
_cell_angle_alpha 90.000000
_cell_angle_beta 90.000000
_cell_angle_gamma 90.000000
_cell_volume 4021.228280
_symmetry_space_group_name_H-M "I B C A "
_symmetry_group_IT_number 73
_symmetry_cell_setting 'orthorhombic'
loop_
_space_group_symop_operation_xyz
x,y,z
-x,1/2-y,z
x,-y,1/2-z
1/2-x,y,-z
-x,-y,-z
x,1/2+y,-z
-x,y,1/2+z
1/2+x,-y,z
1/2+x,1/2+y,1/2+z
1/2-x,-y,1/2+z
1/2+x,1/2-y,-z
-x,1/2+y,1/2-z
1/2-x,1/2-y,1/2-z
1/2+x,y,1/2-z
1/2-x,1/2+y,z
x,1/2-y,1/2+z
loop_
_atom_site_type_symbol
_atom_site_label
_atom_site_fract_x
_atom_site_fract_y
_atom_site_fract_z
Si Si1 0.586176 0.000000 0.750000
Si Si2 0.347605 0.837331 0.823635
Si Si3 0.659127 0.357047 0.323762
Si Si4 0.445484 0.172757 0.727942
Si Si5 0.253268 0.149484 0.681494
Si Si6 0.032807 0.862187 0.574015
O O1 0.619051 0.076969 0.802752
O O2 0.556969 0.046778 0.622583
O O3 0.346875 0.735853 0.763088
O O4 0.396723 0.868886 0.785413
O O5 0.301834 0.884166 0.770082
O O6 0.342069 0.833865 0.001235
O O7 0.706909 0.395182 0.274543
O O8 0.481980 0.128624 0.620601
O O9 0.448033 0.277508 0.672262
O O10 0.460522 0.162777 0.900367
O O11 0.250000 0.153244 0.500000
O O12 0.250000 0.250000 0.750000
#
# Coordination Sequence:
#
# PCOD9530296 Si02
#       6
#     8  16  16  16  16  16
#     4  12  26  40  62  92 132 168 200 260 338 364
#     4  10  19  37  71  90 120 165 218 253 299 377
#     4  10  21  38  66  92 129 161 210 257 313 374
#     4  11  22  42  68  92 120 168 219 262 300 381
#     4   8  16  32  59  95 117 152 203 259 292 358
#     4  11  25  41  67  93 127 163 215 263 319 370
#
# _framework density 21.883859999999999
#
# number of rings (size 3 to 8) (size 9 to 14) (size 15 to 20)
#    0.000    1.818    1.818    3.273    2.545    0.727 
#    0.000    0.000   12.000    0.000    0.000    0.000 
#    0.000    0.000    0.000    0.000    0.000    0.000 
#
# Total GULP energy -245347.123243 kJ/mol
# GULP energy per Si atom -5576.070983 kJ/mol
# Density = 2.183405 g / cm^3
# Si number density = 21.883860 Si / 1000 Ang^3
#
#
#
# Elastic Constant Matrix: (Units=GPa)
#
#
# Indices 1 2 3 4 5 6 
#
# 1 237.7889 23.1973 49.7403 0.0000 0.0000 0.0000
# 2 23.1973 37.2702 15.2955 0.0000 0.0000 0.0000
# 3 49.7403 15.2955 85.5838 0.0000 0.0000 0.0000
# 4 0.0000 0.0000 0.0000 19.1917 0.0000 0.0000
# 5 0.0000 0.0000 0.0000 0.0000 26.3707 0.0000
# 6 0.0000 0.0000 0.0000 0.0000 0.0000 27.6377
#
#
#
# Elastic Compliance Matrix: (Units=1/GPa)
#
#
# Indices 1 2 3 4 5 6 
#
# 1 0.004927 -0.002041 -0.002499 0.000000 0.000000 0.000000
# 2 -0.002041 0.029800 -0.004140 0.000000 0.000000 0.000000
# 3 -0.002499 -0.004140 0.013877 0.000000 0.000000 0.000000
# 4 0.000000 0.000000 0.000000 0.052106 0.000000 0.000000
# 5 0.000000 0.000000 0.000000 0.000000 0.037921 0.000000
# 6 0.000000 0.000000 0.000000 0.000000 0.000000 0.036182
#
#
# Mechanical properties :
#
#
# Convention : Reuss Voigt Hill
#
# Bulk Modulus (GPa) = 32.00519 59.67878 45.84199
# Shear Modulus (GPa) = 24.68065 32.80067 28.74066
#
# Velocity S-wave (km/s) = 3.36192 3.87570 3.62792
# Velocity P-wave (km/s) = 5.45223 6.88171 6.20825
#
# Compressibility (1/GPa) = 0.03124493
#
# Stress axis : x y z
#
# Youngs Moduli (GPa) = 202.95315 33.55657 72.06393
#
# Poissons Ratio (x) = 0.06850 0.18008
# Poissons Ratio (y) = 0.41428 0.29831
# Poissons Ratio (z) = 0.50715 0.13891
#
# Static dielectric constant tensor:
#      x y z
#    x 1.932410 0.000000 0.000000 
#    y 0.000000 1.947560 0.000000 
#    z 0.000000 0.000000 1.744140 
# 
# From -- ./inp_files/8385.got.cif
#   From: 2010.05.17/outbox.cif.g08.bks.cpg/sg73_5_cif.got.tgz:8385.got - 2010.06.03 17:35:07.
