data_PCOD9530538
_publ_section_title
;
Structure prediction by ZEFSAII (Michael W. Deem and Ramdas Pophale) SiO2 
 PCOD9530538
Probable space group: I B C A 
;
_chemical_formula_sum "Si O2"
_cell_formula_units_Z 120
_cell_length_a 24.630082
_cell_length_b 8.955443
_cell_length_c 30.351182
_cell_angle_alpha 90.000000
_cell_angle_beta 90.000000
_cell_angle_gamma 90.000000
_cell_volume 6694.660234
_symmetry_space_group_name_H-M "I B C A "
_symmetry_group_IT_number 73
_symmetry_cell_setting 'orthorhombic'
loop_
_space_group_symop_operation_xyz
x,y,z
-x,1/2-y,z
x,-y,1/2-z
1/2-x,y,-z
-x,-y,-z
x,1/2+y,-z
-x,y,1/2+z
1/2+x,-y,z
1/2+x,1/2+y,1/2+z
1/2-x,-y,1/2+z
1/2+x,1/2-y,-z
-x,1/2+y,1/2-z
1/2-x,1/2-y,1/2-z
1/2+x,y,1/2-z
1/2-x,1/2+y,z
x,1/2-y,1/2+z
loop_
_atom_site_type_symbol
_atom_site_label
_atom_site_fract_x
_atom_site_fract_y
_atom_site_fract_z
Si Si1 0.730283 0.238818 0.311048
Si Si2 0.559480 0.677840 0.797668
Si Si3 0.154093 0.318941 0.353770
Si Si4 0.139067 0.167058 0.629117
Si Si5 0.302452 0.287730 0.550173
Si Si6 0.559205 0.678612 0.697439
Si Si7 0.762348 0.000000 0.750000
Si Si8 0.815996 0.143650 0.038735
O O1 0.792114 0.201114 0.323712
O O2 0.697321 0.274715 0.354200
O O3 0.729125 0.378845 0.277976
O O4 0.705467 0.097123 0.285483
O O5 0.500000 0.750000 0.804237
O O6 0.604097 0.736840 0.831383
O O7 0.577626 0.716953 0.747493
O O8 0.555302 0.500061 0.803215
O O9 0.138520 0.492388 0.358843
O O10 0.170432 0.261731 0.402387
O O11 0.096323 0.255636 0.658735
O O12 0.140088 0.181223 0.576437
O O13 0.240508 0.228764 0.549738
O O14 0.304699 0.465802 0.540849
O O15 0.330680 0.199304 0.510041
O O16 0.500000 0.750000 0.692438
#
# Coordination Sequence:
#
# PCOD9530538 Si02
#       8
#    16  16  16  16  16  16   8  16
#     4  11  22  36  49  78 114 150 189 224 275 332
#     4  10  23  40  60  83 111 149 192 234 278 327
#     4  11  23  36  56  81 114 148 188 231 278 335
#     4  11  23  36  56  81 114 148 188 231 278 335
#     4  10  20  35  54  80 112 148 184 229 280 335
#     4  10  23  40  60  83 111 149 192 234 278 327
#     4  10  24  34  48  70 116 158 184 222 274 334
#     4  10  20  35  54  80 112 148 184 229 280 335
#
# _framework density 17.924734000000001
#
# number of rings (size 3 to 8) (size 9 to 14) (size 15 to 20)
#    0.000    1.600    2.667    2.400    5.600    3.733 
#    0.000    0.000    0.000    0.800    0.000    5.600 
#    0.000    0.000    0.000    0.000    0.000    0.000 
#
# Total GULP energy -334875.975484 kJ/mol
# GULP energy per Si atom -5581.266258 kJ/mol
# Density = 1.788394 g / cm^3
# Si number density = 17.924734 Si / 1000 Ang^3
#
#
#
# Elastic Constant Matrix: (Units=GPa)
#
#
# Indices 1 2 3 4 5 6 
#
# 1 70.5134 31.7890 53.2329 0.0000 0.0000 0.0000
# 2 31.7890 85.4004 55.7782 0.0000 0.0000 0.0000
# 3 53.2329 55.7782 145.5609 0.0000 0.0000 0.0000
# 4 0.0000 0.0000 0.0000 26.9941 0.0000 0.0000
# 5 0.0000 0.0000 0.0000 0.0000 25.0114 0.0000
# 6 0.0000 0.0000 0.0000 0.0000 0.0000 19.4863
#
#
#
# Elastic Compliance Matrix: (Units=1/GPa)
#
#
# Indices 1 2 3 4 5 6 
#
# 1 0.020400 -0.003629 -0.006070 0.000000 0.000000 0.000000
# 2 -0.003629 0.016264 -0.004905 0.000000 0.000000 0.000000
# 3 -0.006070 -0.004905 0.010969 0.000000 0.000000 0.000000
# 4 0.000000 0.000000 0.000000 0.037045 0.000000 0.000000
# 5 0.000000 0.000000 0.000000 0.000000 0.039982 0.000000
# 6 0.000000 0.000000 0.000000 0.000000 0.000000 0.051318
#
#
# Mechanical properties :
#
#
# Convention : Reuss Voigt Hill
#
# Bulk Modulus (GPa) = 54.27290 64.78609 59.52950
# Shear Modulus (GPa) = 23.65982 25.01000 24.33491
#
# Velocity S-wave (km/s) = 3.63706 3.73940 3.68858
# Velocity P-wave (km/s) = 6.92687 7.40716 7.17104
#
# Compressibility (1/GPa) = 0.01842540
#
# Stress axis : x y z
#
# Youngs Moduli (GPa) = 49.01933 61.48484 91.16301
#
# Poissons Ratio (x) = 0.22314 0.55334
# Poissons Ratio (y) = 0.17790 0.44716
# Poissons Ratio (z) = 0.29754 0.30159
#
# Static dielectric constant tensor:
#      x y z
#    x 1.594250 0.000000 0.000000 
#    y 0.000000 1.623870 0.000000 
#    z 0.000000 0.000000 1.637020 
# 
# From -- ./inp_files/34804.got.cif
#   From: 2010.05.17/outbox.cif.g08.bks.cpg/sg73_18_cif.got.tgz:34804.got - 2010.06.03 17:35:07.
