data_PCOD9530011
_publ_section_title
;
Structure prediction by ZEFSAII (Michael W. Deem and Ramdas Pophale) SiO2 
 PCOD9530011
Probable space group: I B C A 
;
_chemical_formula_sum "Si O2"
_cell_formula_units_Z 96
_cell_length_a 22.726648
_cell_length_b 13.282443
_cell_length_c 16.137448
_cell_angle_alpha 90.000000
_cell_angle_beta 90.000000
_cell_angle_gamma 90.000000
_cell_volume 4871.337303
_symmetry_space_group_name_H-M "I B C A "
_symmetry_group_IT_number 73
_symmetry_cell_setting 'orthorhombic'
loop_
_space_group_symop_operation_xyz
x,y,z
-x,1/2-y,z
x,-y,1/2-z
1/2-x,y,-z
-x,-y,-z
x,1/2+y,-z
-x,y,1/2+z
1/2+x,-y,z
1/2+x,1/2+y,1/2+z
1/2-x,-y,1/2+z
1/2+x,1/2-y,-z
-x,1/2+y,1/2-z
1/2-x,1/2-y,1/2-z
1/2+x,y,1/2-z
1/2-x,1/2+y,z
x,1/2-y,1/2+z
loop_
_atom_site_type_symbol
_atom_site_label
_atom_site_fract_x
_atom_site_fract_y
_atom_site_fract_z
Si Si1 0.411648 0.500000 0.750000
Si Si2 0.865529 0.154003 0.383828
Si Si3 0.704625 0.000000 0.250000
Si Si4 0.608896 0.421355 0.938100
Si Si5 0.985786 0.633262 0.302421
Si Si6 0.740297 0.410158 0.910530
Si Si7 0.392850 0.379470 0.162187
O O1 0.376675 0.578134 0.807696
O O2 0.455158 0.568171 0.693914
O O3 0.895295 0.104847 0.465412
O O4 0.795344 0.164010 0.401458
O O5 0.889850 0.264701 0.365833
O O6 0.742684 0.979488 0.169541
O O7 0.661058 0.909494 0.276757
O O8 0.556688 0.381274 0.880948
O O9 0.672560 0.374742 0.911946
O O10 0.611471 0.539713 0.912526
O O11 0.950567 0.604560 0.218217
O O12 0.000000 0.750000 0.295459
O O13 0.750000 0.461704 0.000000
#
# Coordination Sequence:
#
# PCOD9530011 Si02
#       7
#     8  16   8  16  16  16  16
#     4  12  24  40  60  92 136 162 210 288 308 374
#     4  11  25  40  64 104 132 163 220 275 327 377
#     4  10  18  38  68  88 128 186 210 260 334 394
#     4  10  22  45  66  92 131 174 215 262 328 398
#     4  12  22  42  66  90 124 171 223 265 319 388
#     4   9  19  39  63  94 134 166 216 269 319 396
#     4  11  20  41  68  90 124 179 217 253 325 405
#
# _framework density 19.707114000000001
#
# number of rings (size 3 to 8) (size 9 to 14) (size 15 to 20)
#    0.000    1.333    6.667    0.500    0.000    2.667 
#    3.000   21.667    0.000    0.000    0.000    0.000 
#    0.000    0.000    0.000    0.000    0.000    0.000 
#
# Total GULP energy -267506.862467 kJ/mol
# GULP energy per Si atom -5573.059635 kJ/mol
# Density = 1.966226 g / cm^3
# Si number density = 19.707114 Si / 1000 Ang^3
#
#
#
# Elastic Constant Matrix: (Units=GPa)
#
#
# Indices 1 2 3 4 5 6 
#
# 1 70.9698 27.4417 23.6812 0.0000 0.0000 0.0000
# 2 27.4417 119.6820 42.3853 0.0000 0.0000 0.0000
# 3 23.6812 42.3853 135.7766 0.0000 0.0000 0.0000
# 4 0.0000 0.0000 0.0000 28.8653 0.0000 0.0000
# 5 0.0000 0.0000 0.0000 0.0000 14.6100 0.0000
# 6 0.0000 0.0000 0.0000 0.0000 0.0000 25.2446
#
#
#
# Elastic Compliance Matrix: (Units=1/GPa)
#
#
# Indices 1 2 3 4 5 6 
#
# 1 0.015857 -0.002987 -0.001833 0.000000 0.000000 0.000000
# 2 -0.002987 0.009957 -0.002587 0.000000 0.000000 0.000000
# 3 -0.001833 -0.002587 0.008492 0.000000 0.000000 0.000000
# 4 0.000000 0.000000 0.000000 0.034644 0.000000 0.000000
# 5 0.000000 0.000000 0.000000 0.000000 0.068446 0.000000
# 6 0.000000 0.000000 0.000000 0.000000 0.000000 0.039612
#
#
# Mechanical properties :
#
#
# Convention : Reuss Voigt Hill
#
# Bulk Modulus (GPa) = 51.30379 57.04941 54.17660
# Shear Modulus (GPa) = 25.21179 29.27199 27.24189
#
# Velocity S-wave (km/s) = 3.58064 3.85821 3.72201
# Velocity P-wave (km/s) = 6.57148 6.98993 6.78393
#
# Compressibility (1/GPa) = 0.01949174
#
# Stress axis : x y z
#
# Youngs Moduli (GPa) = 63.06343 100.43661 117.75157
#
# Poissons Ratio (x) = 0.29996 0.21588
# Poissons Ratio (y) = 0.18834 0.30465
# Poissons Ratio (z) = 0.11562 0.25985
#
# Static dielectric constant tensor:
#      x y z
#    x 1.740510 0.000000 0.000000 
#    y 0.000000 1.664640 0.000000 
#    z 0.000000 0.000000 1.714410 
# 
# From -- ./inp_files/13670.got.cif
#   From: 2010.05.17/outbox.cif.g08.bks.cpg/sg73_7_cif.got.tgz:13670.got - 2010.06.03 17:35:07.
