data_PCOD9530901
_publ_section_title
;
Structure prediction by ZEFSAII (Michael W. Deem and Ramdas Pophale) SiO2 
 PCOD9530901
Probable space group: I B C A 
;
_chemical_formula_sum "Si O2"
_cell_formula_units_Z 112
_cell_length_a 14.347046
_cell_length_b 24.060179
_cell_length_c 14.887435
_cell_angle_alpha 90.000000
_cell_angle_beta 90.000000
_cell_angle_gamma 90.000000
_cell_volume 5139.030830
_symmetry_space_group_name_H-M "I B C A "
_symmetry_group_IT_number 73
_symmetry_cell_setting 'orthorhombic'
loop_
_space_group_symop_operation_xyz
x,y,z
-x,1/2-y,z
x,-y,1/2-z
1/2-x,y,-z
-x,-y,-z
x,1/2+y,-z
-x,y,1/2+z
1/2+x,-y,z
1/2+x,1/2+y,1/2+z
1/2-x,-y,1/2+z
1/2+x,1/2-y,-z
-x,1/2+y,1/2-z
1/2-x,1/2-y,1/2-z
1/2+x,y,1/2-z
1/2-x,1/2+y,z
x,1/2-y,1/2+z
loop_
_atom_site_type_symbol
_atom_site_label
_atom_site_fract_x
_atom_site_fract_y
_atom_site_fract_z
Si Si1 0.158526 0.317593 0.041346
Si Si2 0.111196 0.497181 0.578793
Si Si3 0.104417 0.222223 0.163645
Si Si4 0.199249 0.459567 0.416696
Si Si5 0.980980 0.913096 0.173036
Si Si6 0.424761 0.796754 0.857773
Si Si7 0.990622 0.387701 0.117649
O O1 0.167087 0.268420 0.114950
O O2 0.083816 0.361502 0.076787
O O3 0.250000 0.346053 0.000000
O O4 0.122383 0.287180 0.952259
O O5 0.145497 0.506784 0.475967
O O6 0.209136 0.484687 0.630108
O O7 0.052044 0.440679 0.569219
O O8 0.049757 0.541094 0.631003
O O9 0.133613 0.207691 0.265660
O O10 0.085031 0.162559 0.118249
O O11 0.000000 0.250000 0.162524
O O12 0.250000 0.426444 0.500000
O O13 0.124053 0.427658 0.357989
O O14 0.020674 0.854858 0.138028
O O15 0.988914 0.907629 0.280458
O O16 0.500000 0.750000 0.846936
#
# Coordination Sequence:
#
# PCOD9530901 Si02
#       7
#    16  16  16  16  16  16  16
#     4  11  23  41  59  98 131 174 225 283 343 403
#     4   9  20  40  63  95 129 178 228 277 345 411
#     4   8  18  38  62  85 122 167 216 271 330 403
#     4   8  21  38  63  96 124 169 228 287 328 414
#     4  11  20  41  67  94 134 182 224 282 358 411
#     4  10  21  40  66  91 123 178 219 272 348 416
#     4  10  20  39  63  89 136 175 222 281 341 419
#
# _framework density 21.793994000000001
#
# number of rings (size 3 to 8) (size 9 to 14) (size 15 to 20)
#    0.857    1.429    0.000    3.857    0.000    0.571 
#   15.429    1.429    0.000    0.000    0.000    0.000 
#    0.000    0.000    0.000    0.000    0.000    0.000 
#
# Total GULP energy -311956.435290 kJ/mol
# GULP energy per Si atom -5570.650630 kJ/mol
# Density = 2.174439 g / cm^3
# Si number density = 21.793994 Si / 1000 Ang^3
#
#
#
# Elastic Constant Matrix: (Units=GPa)
#
#
# Indices 1 2 3 4 5 6 
#
# 1 104.6436 47.2594 44.4865 0.0000 0.0000 0.0000
# 2 47.2594 124.5730 29.7014 -0.0001 0.0000 0.0000
# 3 44.4865 29.7014 66.6841 0.0000 0.0000 0.0000
# 4 0.0000 -0.0001 0.0000 10.5625 0.0000 0.0000
# 5 0.0000 0.0000 0.0000 0.0000 25.5954 0.0000
# 6 0.0000 0.0000 0.0000 0.0000 0.0000 13.9160
#
#
#
# Elastic Compliance Matrix: (Units=1/GPa)
#
#
# Indices 1 2 3 4 5 6 
#
# 1 0.014663 -0.003614 -0.008172 0.000000 0.000000 0.000000
# 2 -0.003614 0.009872 -0.001986 0.000000 0.000000 0.000000
# 3 -0.008172 -0.001986 0.021332 0.000000 0.000000 0.000000
# 4 0.000000 0.000000 0.000000 0.094675 0.000000 0.000000
# 5 0.000000 0.000000 0.000000 0.000000 0.039069 0.000000
# 6 0.000000 0.000000 0.000000 0.000000 0.000000 0.071860
#
#
# Mechanical properties :
#
#
# Convention : Reuss Voigt Hill
#
# Bulk Modulus (GPa) = 54.57690 59.86614 57.22152
# Shear Modulus (GPa) = 17.53629 21.64500 19.59064
#
# Velocity S-wave (km/s) = 2.83969 3.15487 3.00142
# Velocity P-wave (km/s) = 5.98735 6.38746 6.19064
#
# Compressibility (1/GPa) = 0.01832277
#
# Stress axis : x y z
#
# Youngs Moduli (GPa) = 68.20084 101.29631 46.87714
#
# Poissons Ratio (x) = 0.36610 0.38308
# Poissons Ratio (y) = 0.24649 0.09310
# Poissons Ratio (z) = 0.55734 0.20117
#
# Static dielectric constant tensor:
#      x y z
#    x 1.919850 0.000000 0.000000 
#    y 0.000000 1.778460 0.000000 
#    z 0.000000 0.000000 1.894010 
# 
# From -- ./inp_files/17283.got.cif
#   From: 2010.05.17/outbox.cif.g08.bks.cpg/sg73_9_cif.got.tgz:17283.got - 2010.06.03 17:35:07.
