data_PCOD9530891
_publ_section_title
;
Structure prediction by ZEFSAII (Michael W. Deem and Ramdas Pophale) SiO2 
 PCOD9530891
Probable space group: I B C A 
;
_chemical_formula_sum "Si O2"
_cell_formula_units_Z 112
_cell_length_a 26.414277
_cell_length_b 13.541357
_cell_length_c 14.227567
_cell_angle_alpha 90.000000
_cell_angle_beta 90.000000
_cell_angle_gamma 90.000000
_cell_volume 5088.989504
_symmetry_space_group_name_H-M "I B C A "
_symmetry_group_IT_number 73
_symmetry_cell_setting 'orthorhombic'
loop_
_space_group_symop_operation_xyz
x,y,z
-x,1/2-y,z
x,-y,1/2-z
1/2-x,y,-z
-x,-y,-z
x,1/2+y,-z
-x,y,1/2+z
1/2+x,-y,z
1/2+x,1/2+y,1/2+z
1/2-x,-y,1/2+z
1/2+x,1/2-y,-z
-x,1/2+y,1/2-z
1/2-x,1/2-y,1/2-z
1/2+x,y,1/2-z
1/2-x,1/2+y,z
x,1/2-y,1/2+z
loop_
_atom_site_type_symbol
_atom_site_label
_atom_site_fract_x
_atom_site_fract_y
_atom_site_fract_z
Si Si1 0.978504 0.079002 0.424262
Si Si2 0.221583 0.602157 0.197115
Si Si3 0.868778 0.235722 0.255966
Si Si4 0.338325 0.922814 0.673676
Si Si5 0.596571 0.910990 0.616129
Si Si6 0.305058 0.992548 0.022226
Si Si7 0.932086 0.709199 0.068987
O O1 0.950598 0.179856 0.456479
O O2 0.027420 0.134806 0.379716
O O3 0.936636 0.010102 0.374736
O O4 0.000000 0.000000 0.500000
O O5 0.208087 0.500000 0.250000
O O6 0.186854 0.688980 0.233900
O O7 0.281705 0.608436 0.206452
O O8 0.209465 0.585394 0.087403
O O9 0.869815 0.323673 0.180594
O O10 0.903108 0.149897 0.212233
O O11 0.887208 0.274914 0.356609
O O12 0.358021 0.000000 0.750000
O O13 0.331807 0.973614 0.573354
O O14 0.654036 0.933696 0.582720
O O15 0.577617 0.844962 0.529006
O O16 0.250000 0.943874 0.000000
#
# Coordination Sequence:
#
# PCOD9530891 Si02
#       7
#    16  16  16  16  16  16  16
#     4   9  21  45  72  92 127 171 208 279 342 388
#     4  10  20  39  61  93 132 175 220 274 322 386
#     4  12  24  38  66 100 125 177 221 272 334 398
#     4  10  23  41  60  90 138 176 221 269 327 389
#     4  11  23  41  70  98 130 177 221 273 335 403
#     4  10  21  40  65  93 131 179 219 266 323 391
#     4  10  23  43  67  97 132 163 220 277 333 404
#
# _framework density 22.008299000000001
#
# number of rings (size 3 to 8) (size 9 to 14) (size 15 to 20)
#    0.000    1.714    1.429    2.143    4.000    0.000 
#    2.571    7.143    3.143    0.000    0.000    0.000 
#    0.000    0.000    0.000    0.000    0.000    0.000 
#
# Total GULP energy -312171.307893 kJ/mol
# GULP energy per Si atom -5574.487641 kJ/mol
# Density = 2.195821 g / cm^3
# Si number density = 22.008299 Si / 1000 Ang^3
#
#
#
# Elastic Constant Matrix: (Units=GPa)
#
#
# Indices 1 2 3 4 5 6 
#
# 1 29.0139 25.7167 -10.0687 0.0000 0.0000 0.0000
# 2 25.7167 124.7587 29.5659 0.0000 0.0000 0.0000
# 3 -10.0687 29.5659 72.8530 0.0000 0.0000 0.0000
# 4 0.0000 0.0000 0.0000 24.1339 0.0000 0.0000
# 5 0.0000 0.0000 0.0000 0.0000 9.3959 0.0000
# 6 0.0000 0.0000 0.0000 0.0000 0.0000 26.4278
#
#
#
# Elastic Compliance Matrix: (Units=1/GPa)
#
#
# Indices 1 2 3 4 5 6 
#
# 1 0.050645 -0.013386 0.012432 0.000000 0.000000 0.000000
# 2 -0.013386 0.012406 -0.006885 0.000000 0.000000 0.000000
# 3 0.012432 -0.006885 0.018238 0.000000 0.000000 0.000000
# 4 0.000000 0.000000 0.000000 0.041436 0.000000 0.000000
# 5 0.000000 0.000000 0.000000 0.000000 0.106429 0.000000
# 6 0.000000 0.000000 0.000000 0.000000 0.000000 0.037839
#
#
# Mechanical properties :
#
#
# Convention : Reuss Voigt Hill
#
# Bulk Modulus (GPa) = 15.24110 35.22815 25.23462
# Shear Modulus (GPa) = 16.41813 24.08563 20.25188
#
# Velocity S-wave (km/s) = 2.73426 3.31174 3.03676
# Velocity P-wave (km/s) = 4.11198 5.53760 4.87716
#
# Compressibility (1/GPa) = 0.06561208
#
# Stress axis : x y z
#
# Youngs Moduli (GPa) = 19.74537 80.60446 54.82915
#
# Poissons Ratio (x) = 1.07894 -0.68162
# Poissons Ratio (y) = 0.26430 0.37749
# Poissons Ratio (z) = -0.24547 0.55495
#
# Static dielectric constant tensor:
#      x y z
#    x 1.894180 0.000000 0.000000 
#    y 0.000000 1.791390 0.000000 
#    z 0.000000 0.000000 1.821190 
# 
# From -- ./inp_files/20032.got.cif
#   From: 2010.05.17/outbox.cif.g08.bks.cpg/sg73_11_cif.got.tgz:20032.got - 2010.06.03 17:35:07.
