data_PCOD9530983
_publ_section_title
;
Structure prediction by ZEFSAII (Michael W. Deem and Ramdas Pophale) SiO2 
 PCOD9530983
Probable space group: I B C A 
;
_chemical_formula_sum "Si O2"
_cell_formula_units_Z 88
_cell_length_a 15.457420
_cell_length_b 11.832798
_cell_length_c 23.451431
_cell_angle_alpha 90.000000
_cell_angle_beta 90.000000
_cell_angle_gamma 90.000000
_cell_volume 4289.372929
_symmetry_space_group_name_H-M "I B C A "
_symmetry_group_IT_number 73
_symmetry_cell_setting 'orthorhombic'
loop_
_space_group_symop_operation_xyz
x,y,z
-x,1/2-y,z
x,-y,1/2-z
1/2-x,y,-z
-x,-y,-z
x,1/2+y,-z
-x,y,1/2+z
1/2+x,-y,z
1/2+x,1/2+y,1/2+z
1/2-x,-y,1/2+z
1/2+x,1/2-y,-z
-x,1/2+y,1/2-z
1/2-x,1/2-y,1/2-z
1/2+x,y,1/2-z
1/2-x,1/2+y,z
x,1/2-y,1/2+z
loop_
_atom_site_type_symbol
_atom_site_label
_atom_site_fract_x
_atom_site_fract_y
_atom_site_fract_z
Si Si1 0.217879 0.623925 0.771247
Si Si2 0.311866 0.832704 0.383744
Si Si3 0.575816 0.342366 0.685814
Si Si4 0.984102 0.480405 0.902757
Si Si5 0.250000 0.759033 0.000000
Si Si6 0.062075 0.645431 0.489689
O O1 0.253923 0.500000 0.750000
O O2 0.250000 0.750000 0.750000
O O3 0.243183 0.624120 0.837384
O O4 0.122261 0.627934 0.744597
O O5 0.355406 0.718912 0.356928
O O6 0.393367 0.914624 0.394588
O O7 0.265918 0.812712 0.443383
O O8 0.500000 0.250000 0.693636
O O9 0.537648 0.451012 0.653455
O O10 0.960589 0.602533 0.926300
O O11 0.038699 0.434156 0.956833
O O12 0.337056 0.829398 0.007994
O O13 0.000000 0.750000 0.501502
#
# Coordination Sequence:
#
# PCOD9530983 Si02
#       6
#    16  16  16  16   8  16
#     4  10  23  43  68  99 133 179 243 298 354 438
#     4  10  21  40  65  94 132 182 223 281 361 430
#     4   9  18  41  69  86 125 186 230 287 361 425
#     4  10  20  40  66  89 135 181 221 276 360 425
#     4  12  22  38  66 100 148 178 230 298 362 428
#     4  11  22  39  60 101 140 177 229 285 346 438
#
# _framework density 20.515817999999999
#
# number of rings (size 3 to 8) (size 9 to 14) (size 15 to 20)
#    0.000    1.818    3.636    0.545    0.000    5.091 
#    0.000   10.909    0.000    0.000    0.000    0.000 
#    0.000    0.000    0.000    0.000    0.000    0.000 
#
# Total GULP energy -244999.543158 kJ/mol
# GULP energy per Si atom -5568.171435 kJ/mol
# Density = 2.046912 g / cm^3
# Si number density = 20.515818 Si / 1000 Ang^3
#
#
#
# Elastic Constant Matrix: (Units=GPa)
#
#
# Indices 1 2 3 4 5 6 
#
# 1 110.4364 13.5727 68.7688 0.0000 0.0000 0.0000
# 2 13.5727 57.2116 20.9322 0.0000 0.0000 0.0000
# 3 68.7688 20.9322 133.8204 0.0000 0.0000 0.0000
# 4 0.0000 0.0000 0.0000 14.9353 0.0000 0.0000
# 5 0.0000 0.0000 0.0000 0.0000 68.4711 0.0000
# 6 0.0000 0.0000 0.0000 0.0000 0.0000 5.6354
#
#
#
# Elastic Compliance Matrix: (Units=1/GPa)
#
#
# Indices 1 2 3 4 5 6 
#
# 1 0.013342 -0.000697 -0.006747 0.000000 0.000000 0.000000
# 2 -0.000697 0.018576 -0.002548 0.000000 0.000000 0.000000
# 3 -0.006747 -0.002548 0.011339 0.000000 0.000000 0.000000
# 4 0.000000 0.000000 0.000000 0.066955 0.000000 0.000000
# 5 0.000000 0.000000 0.000000 0.000000 0.014605 0.000000
# 6 0.000000 0.000000 0.000000 0.000000 0.000000 0.177449
#
#
# Mechanical properties :
#
#
# Convention : Reuss Voigt Hill
#
# Bulk Modulus (GPa) = 42.96691 56.44619 49.70655
# Shear Modulus (GPa) = 15.15113 31.02135 23.08624
#
# Velocity S-wave (km/s) = 2.72050 3.89275 3.35817
# Velocity P-wave (km/s) = 5.55490 6.91216 6.27036
#
# Compressibility (1/GPa) = 0.02327372
#
# Stress axis : x y z
#
# Youngs Moduli (GPa) = 74.94983 53.83176 88.19363
#
# Poissons Ratio (x) = 0.03750 0.59509
# Poissons Ratio (y) = 0.05221 0.22470
# Poissons Ratio (z) = 0.50572 0.13715
#
# Static dielectric constant tensor:
#      x y z
#    x 1.721490 0.000000 0.000000 
#    y 0.000000 1.789740 0.000000 
#    z 0.000000 0.000000 1.739280 
# 
# From -- ./inp_files/32094.got.cif
#   From: 2010.05.17/outbox.cif.g08.bks.cpg/sg73_17_cif.got.tgz:32094.got - 2010.06.03 17:35:07.
