data_PCOD9530546
_publ_section_title
;
Structure prediction by ZEFSAII (Michael W. Deem and Ramdas Pophale) SiO2 
 PCOD9530546
Probable space group: I B C A 
;
_chemical_formula_sum "Si O2"
_cell_formula_units_Z 120
_cell_length_a 19.732898
_cell_length_b 13.441228
_cell_length_c 24.350073
_cell_angle_alpha 90.000000
_cell_angle_beta 90.000000
_cell_angle_gamma 90.000000
_cell_volume 6458.476542
_symmetry_space_group_name_H-M "I B C A "
_symmetry_group_IT_number 73
_symmetry_cell_setting 'orthorhombic'
loop_
_space_group_symop_operation_xyz
x,y,z
-x,1/2-y,z
x,-y,1/2-z
1/2-x,y,-z
-x,-y,-z
x,1/2+y,-z
-x,y,1/2+z
1/2+x,-y,z
1/2+x,1/2+y,1/2+z
1/2-x,-y,1/2+z
1/2+x,1/2-y,-z
-x,1/2+y,1/2-z
1/2-x,1/2-y,1/2-z
1/2+x,y,1/2-z
1/2-x,1/2+y,z
x,1/2-y,1/2+z
loop_
_atom_site_type_symbol
_atom_site_label
_atom_site_fract_x
_atom_site_fract_y
_atom_site_fract_z
Si Si1 0.081773 0.762999 0.941557
Si Si2 0.628911 0.261141 0.175823
Si Si3 0.820365 0.462142 0.311949
Si Si4 0.177177 0.468614 0.312503
Si Si5 0.000000 0.250000 0.745910
Si Si6 0.428144 0.193724 0.056978
Si Si7 0.932303 0.524675 0.902935
Si Si8 0.065655 0.113965 0.151385
O O1 0.096834 0.879038 0.934023
O O2 0.098297 0.699589 0.887207
O O3 0.000000 0.750000 0.944000
O O4 0.107216 0.721175 0.999476
O O5 0.681676 0.349046 0.187865
O O6 0.562227 0.280081 0.213983
O O7 0.609651 0.271364 0.111883
O O8 0.657319 0.151934 0.186686
O O9 0.813708 0.500000 0.250000
O O10 0.745560 0.481645 0.335417
O O11 0.878250 0.531933 0.336616
O O12 0.164182 0.500000 0.250000
O O13 0.114982 0.498703 0.351217
O O14 0.031442 0.333927 0.704983
O O15 0.500000 0.250000 0.058612
O O16 0.437887 0.075010 0.061369
O O17 0.005083 0.559456 0.880793
#
# Coordination Sequence:
#
# PCOD9530546 Si02
#       8
#    16  16  16  16   8  16  16  16
#     4   9  20  35  56  87 117 152 197 248 298 354
#     4  11  23  39  59  88 125 155 197 255 301 358
#     4  11  24  38  58  89 124 160 197 245 301 368
#     4  10  24  39  59  85 118 166 198 238 302 366
#     4  12  20  36  60  92 124 154 192 254 300 366
#     4  10  20  35  56  87 118 151 198 248 308 348
#     4  10  20  37  60  85 114 158 199 246 297 359
#     4  11  21  36  59  91 120 155 197 248 301 354
#
# _framework density 18.580233
#
# number of rings (size 3 to 8) (size 9 to 14) (size 15 to 20)
#    0.000    1.600    4.000    1.600    1.867    9.600 
#    0.000    0.000    0.000   10.400    0.000    0.000 
#    0.000    0.000    0.000    0.000    0.000    0.000 
#
# Total GULP energy -334689.690255 kJ/mol
# GULP energy per Si atom -5578.161504 kJ/mol
# Density = 1.853794 g / cm^3
# Si number density = 18.580233 Si / 1000 Ang^3
#
#
#
# Elastic Constant Matrix: (Units=GPa)
#
#
# Indices 1 2 3 4 5 6 
#
# 1 41.8018 31.5575 10.7884 0.0000 0.0000 0.0000
# 2 31.5575 162.2043 47.7681 0.0000 0.0000 0.0000
# 3 10.7884 47.7681 84.5338 0.0000 0.0000 0.0000
# 4 0.0000 0.0000 0.0000 24.3241 0.0000 0.0000
# 5 0.0000 0.0000 0.0000 0.0000 17.8585 0.0000
# 6 0.0000 0.0000 0.0000 0.0000 0.0000 18.6274
#
#
#
# Elastic Compliance Matrix: (Units=1/GPa)
#
#
# Indices 1 2 3 4 5 6 
#
# 1 0.028066 -0.005285 -0.000595 0.000000 0.000000 0.000000
# 2 -0.005285 0.008391 -0.004067 0.000000 0.000000 0.000000
# 3 -0.000595 -0.004067 0.014204 0.000000 0.000000 0.000000
# 4 0.000000 0.000000 0.000000 0.041112 0.000000 0.000000
# 5 0.000000 0.000000 0.000000 0.000000 0.055996 0.000000
# 6 0.000000 0.000000 0.000000 0.000000 0.000000 0.053684
#
#
# Mechanical properties :
#
#
# Convention : Reuss Voigt Hill
#
# Bulk Modulus (GPa) = 32.50369 52.08534 42.29451
# Shear Modulus (GPa) = 21.58870 25.39038 23.48954
#
# Velocity S-wave (km/s) = 3.41239 3.70067 3.55945
# Velocity P-wave (km/s) = 5.74957 6.80833 6.30123
#
# Compressibility (1/GPa) = 0.03076574
#
# Stress axis : x y z
#
# Youngs Moduli (GPa) = 35.63038 119.17508 70.40371
#
# Poissons Ratio (x) = 0.62984 0.04192
# Poissons Ratio (y) = 0.18831 0.28634
# Poissons Ratio (z) = 0.02121 0.48470
#
# Static dielectric constant tensor:
#      x y z
#    x 1.646930 0.000000 0.000000 
#    y 0.000000 1.671290 0.000000 
#    z 0.000000 0.000000 1.677830 
# 
# From -- ./inp_files/30193.got.cif
#   From: 2010.05.17/outbox.cif.g08.bks.cpg/sg73_16_cif.got.tgz:30193.got - 2010.06.03 17:35:07.
