data_PCOD9530096
_publ_section_title
;
Structure prediction by ZEFSAII (Michael W. Deem and Ramdas Pophale) SiO2 
 PCOD9530096
Probable space group: I B C A 
;
_chemical_formula_sum "Si O2"
_cell_formula_units_Z 88
_cell_length_a 26.163309
_cell_length_b 29.600218
_cell_length_c 5.368951
_cell_angle_alpha 90.000000
_cell_angle_beta 90.000000
_cell_angle_gamma 90.000000
_cell_volume 4157.928533
_symmetry_space_group_name_H-M "I B C A "
_symmetry_group_IT_number 73
_symmetry_cell_setting 'orthorhombic'
loop_
_space_group_symop_operation_xyz
x,y,z
-x,1/2-y,z
x,-y,1/2-z
1/2-x,y,-z
-x,-y,-z
x,1/2+y,-z
-x,y,1/2+z
1/2+x,-y,z
1/2+x,1/2+y,1/2+z
1/2-x,-y,1/2+z
1/2+x,1/2-y,-z
-x,1/2+y,1/2-z
1/2-x,1/2-y,1/2-z
1/2+x,y,1/2-z
1/2-x,1/2+y,z
x,1/2-y,1/2+z
loop_
_atom_site_type_symbol
_atom_site_label
_atom_site_fract_x
_atom_site_fract_y
_atom_site_fract_z
Si Si1 0.877123 0.154635 0.155341
Si Si2 0.199391 0.500000 0.250000
Si Si3 0.689618 0.769980 0.535406
Si Si4 0.635526 0.000000 0.250000
Si Si5 0.364646 0.899161 0.649468
Si Si6 0.750000 0.079713 0.500000
Si Si7 0.520437 0.198602 0.945527
O O1 0.885353 0.126091 0.404333
O O2 0.823735 0.181482 0.149040
O O3 0.877200 0.125067 0.907085
O O4 0.920753 0.192850 0.126478
O O5 0.167199 0.508205 0.497843
O O6 0.231609 0.454996 0.288344
O O7 0.750000 0.763843 0.500000
O O8 0.669357 0.736390 0.752851
O O9 0.613859 0.049638 0.319275
O O10 0.302545 0.898203 0.598749
O O11 0.500000 0.250000 0.970399
O O12 0.510262 0.177401 0.215007
#
# Coordination Sequence:
#
# PCOD9530096 Si02
#       7
#    16   8  16   8  16   8  16
#     4  12  25  39  64  97 125 155 224 262 315 380
#     4  10  19  32  56  80 116 175 244 257 290 362
#     4  10  23  40  60  82 125 176 208 245 306 382
#     4  10  21  40  56  84 130 183 218 263 314 340
#     4  11  24  36  59  91 134 173 218 261 296 369
#     4  10  20  34  54  82 128 182 216 262 302 336
#     4  10  23  42  69  93 117 151 194 263 350 388
#
# _framework density 21.164383999999998
#
# number of rings (size 3 to 8) (size 9 to 14) (size 15 to 20)
#    0.000    1.455    0.000    6.545    7.636    2.909 
#    0.000    0.000    0.000    0.000    0.000   12.727 
#    0.000    0.000    0.000    0.000    0.000    0.000 
#
# Total GULP energy -245159.967179 kJ/mol
# GULP energy per Si atom -5571.817436 kJ/mol
# Density = 2.111621 g / cm^3
# Si number density = 21.164384 Si / 1000 Ang^3
#
#
#
# Elastic Constant Matrix: (Units=GPa)
#
#
# Indices 1 2 3 4 5 6 
#
# 1 23.4297 4.5987 -5.5300 0.0000 0.0000 0.0000
# 2 4.5987 87.9481 38.4747 0.0000 0.0000 0.0000
# 3 -5.5300 38.4747 158.2985 0.0000 0.0000 0.0000
# 4 0.0000 0.0000 0.0000 31.4041 0.0000 0.0000
# 5 0.0000 0.0000 0.0000 0.0000 51.2783 0.0000
# 6 0.0000 0.0000 0.0000 0.0000 0.0000 23.3855
#
#
#
# Elastic Compliance Matrix: (Units=1/GPa)
#
#
# Indices 1 2 3 4 5 6 
#
# 1 0.043884 -0.003318 0.002340 0.000000 0.000000 0.000000
# 2 -0.003318 0.012974 -0.003269 0.000000 0.000000 0.000000
# 3 0.002340 -0.003269 0.007194 0.000000 0.000000 0.000000
# 4 0.000000 0.000000 0.000000 0.031843 0.000000 0.000000
# 5 0.000000 0.000000 0.000000 0.000000 0.019501 0.000000
# 6 0.000000 0.000000 0.000000 0.000000 0.000000 0.042762
#
#
# Mechanical properties :
#
#
# Convention : Reuss Voigt Hill
#
# Bulk Modulus (GPa) = 17.99980 38.30701 28.15340
# Shear Modulus (GPa) = 27.00187 36.68911 31.84549
#
# Velocity S-wave (km/s) = 3.57573 4.16809 3.88322
# Velocity P-wave (km/s) = 5.05678 6.42674 5.78247
#
# Compressibility (1/GPa) = 0.05555618
#
# Stress axis : x y z
#
# Youngs Moduli (GPa) = 22.78715 77.07692 139.01417
#
# Poissons Ratio (x) = 0.25575 -0.32523
# Poissons Ratio (y) = 0.07561 0.45448
# Poissons Ratio (z) = -0.05331 0.25199
#
# Static dielectric constant tensor:
#      x y z
#    x 1.823150 0.000000 0.000000 
#    y 0.000000 1.813760 0.000000 
#    z 0.000000 0.000000 1.765910 
# 
# From -- ./inp_files/2766.got.cif
#   From: 2010.05.17/outbox.cif.g08.bks.cpg/sg73_2_cif.got.tgz:2766.got - 2010.06.03 17:35:07.
