data_PCOD9530855
_publ_section_title
;
Structure prediction by ZEFSAII (Michael W. Deem and Ramdas Pophale) SiO2 
 PCOD9530855
Probable space group: I B C A 
;
_chemical_formula_sum "Si O2"
_cell_formula_units_Z 112
_cell_length_a 14.733785
_cell_length_b 26.600497
_cell_length_c 14.841642
_cell_angle_alpha 90.000000
_cell_angle_beta 90.000000
_cell_angle_gamma 90.000000
_cell_volume 5816.825437
_symmetry_space_group_name_H-M "I B C A "
_symmetry_group_IT_number 73
_symmetry_cell_setting 'orthorhombic'
loop_
_space_group_symop_operation_xyz
x,y,z
-x,1/2-y,z
x,-y,1/2-z
1/2-x,y,-z
-x,-y,-z
x,1/2+y,-z
-x,y,1/2+z
1/2+x,-y,z
1/2+x,1/2+y,1/2+z
1/2-x,-y,1/2+z
1/2+x,1/2-y,-z
-x,1/2+y,1/2-z
1/2-x,1/2-y,1/2-z
1/2+x,y,1/2-z
1/2-x,1/2+y,z
x,1/2-y,1/2+z
loop_
_atom_site_type_symbol
_atom_site_label
_atom_site_fract_x
_atom_site_fract_y
_atom_site_fract_z
Si Si1 0.228182 0.223281 0.894505
Si Si2 0.090750 0.686666 0.585661
Si Si3 0.541447 0.959191 0.824195
Si Si4 0.089581 0.217091 0.623983
Si Si5 0.910233 0.344295 0.803636
Si Si6 0.859114 0.075743 0.912061
Si Si7 0.196904 0.480904 0.078590
O O1 0.150347 0.266067 0.883008
O O2 0.321905 0.247827 0.860765
O O3 0.184028 0.174535 0.848374
O O4 0.250000 0.213948 0.000000
O O5 0.086509 0.694145 0.477196
O O6 0.142814 0.634665 0.604845
O O7 0.993237 0.679002 0.634776
O O8 0.575994 0.904040 0.796391
O O9 0.454255 0.947454 0.884321
O O10 0.513159 0.000000 0.750000
O O11 0.623666 0.986537 0.873788
O O12 0.086905 0.176932 0.703151
O O13 0.000000 0.250000 0.632194
O O14 0.776154 0.045945 0.865284
O O15 0.846760 0.063571 0.018132
O O16 0.250000 0.511568 0.000000
#
# Coordination Sequence:
#
# PCOD9530855 Si02
#       7
#    16  16  16  16  16  16  16
#     4  10  21  37  64  88 123 158 198 247 305 379
#     4  10  20  38  65  91 120 157 201 248 303 375
#     4  11  23  39  59  88 121 159 205 258 306 355
#     4  11  23  38  61  90 122 163 201 246 305 370
#     4  11  24  40  59  89 126 159 204 254 307 358
#     4   8  20  37  63  87 115 154 198 250 303 361
#     4   8  20  37  63  81 114 155 200 248 295 360
#
# _framework density 19.254487999999998
#
# number of rings (size 3 to 8) (size 9 to 14) (size 15 to 20)
#    0.857    1.143    0.000    3.857    8.000    1.143 
#    0.000    4.286    0.000    0.000    0.000    0.000 
#    0.000    0.000    0.000    0.000    0.000    0.000 
#
# Total GULP energy -311950.712021 kJ/mol
# GULP energy per Si atom -5570.548429 kJ/mol
# Density = 1.921066 g / cm^3
# Si number density = 19.254488 Si / 1000 Ang^3
#
#
#
# Elastic Constant Matrix: (Units=GPa)
#
#
# Indices 1 2 3 4 5 6 
#
# 1 96.7346 39.4753 3.0204 0.0001 0.0002 -0.0002
# 2 39.4753 116.4673 34.6903 0.0001 -0.0002 -0.0002
# 3 3.0204 34.6903 61.4552 0.0001 -0.0002 -0.0001
# 4 0.0001 0.0001 0.0001 21.8013 0.0000 -0.0003
# 5 0.0002 -0.0002 -0.0002 0.0000 70.0960 0.0001
# 6 -0.0002 -0.0002 -0.0001 -0.0003 0.0001 -39.3302
#
#
#
# Elastic Compliance Matrix: (Units=1/GPa)
#
#
# Indices 1 2 3 4 5 6 
#
# 1 0.012216 -0.004762 0.002088 0.000000 0.000000 0.000000
# 2 -0.004762 0.012178 -0.006640 0.000000 0.000000 0.000000
# 3 0.002088 -0.006640 0.019918 0.000000 0.000000 0.000000
# 4 0.000000 0.000000 0.000000 0.045869 0.000000 0.000000
# 5 0.000000 0.000000 0.000000 0.000000 0.014266 0.000000
# 6 0.000000 0.000000 0.000000 0.000000 0.000000 -0.025426
#
#
# Mechanical properties :
#
#
# Convention : Reuss Voigt Hill
#
# Bulk Modulus (GPa) = 38.93749 47.66990 43.30369
# Shear Modulus (GPa) = 47.07621 23.67816 35.37719
#
# Velocity S-wave (km/s) = 4.95001 3.51058 4.29108
# Velocity P-wave (km/s) = 7.27575 6.42213 6.86223
#
# Compressibility (1/GPa) = 0.02568219
#
# Stress axis : x y z
#
# Youngs Moduli (GPa) = 81.86151 82.11504 50.20659
#
# Poissons Ratio (x) = 0.39105 -0.10482
# Poissons Ratio (y) = 0.38985 0.33338
# Poissons Ratio (z) = -0.17091 0.54526
#
# Static dielectric constant tensor:
#      x y z
#    x 1.684040 0.000000 0.000000 
#    y 0.000000 3.090670 0.000000 
#    z 0.000000 0.000000 1.669910 
# 
# From -- ./inp_files/17384.got.cif
#   From: 2010.05.17/outbox.cif.g08.bks.cpg/sg73_9_cif.got.tgz:17384.got - 2010.06.03 17:35:07.
