data_PCOD9530579
_publ_section_title
;
Structure prediction by ZEFSAII (Michael W. Deem and Ramdas Pophale) SiO2 
 PCOD9530579
Probable space group: I B C A 
;
_chemical_formula_sum "Si O2"
_cell_formula_units_Z 88
_cell_length_a 14.652938
_cell_length_b 19.423301
_cell_length_c 14.427357
_cell_angle_alpha 90.000000
_cell_angle_beta 90.000000
_cell_angle_gamma 90.000000
_cell_volume 4106.147357
_symmetry_space_group_name_H-M "I B C A "
_symmetry_group_IT_number 73
_symmetry_cell_setting 'orthorhombic'
loop_
_space_group_symop_operation_xyz
x,y,z
-x,1/2-y,z
x,-y,1/2-z
1/2-x,y,-z
-x,-y,-z
x,1/2+y,-z
-x,y,1/2+z
1/2+x,-y,z
1/2+x,1/2+y,1/2+z
1/2-x,-y,1/2+z
1/2+x,1/2-y,-z
-x,1/2+y,1/2-z
1/2-x,1/2-y,1/2-z
1/2+x,y,1/2-z
1/2-x,1/2+y,z
x,1/2-y,1/2+z
loop_
_atom_site_type_symbol
_atom_site_label
_atom_site_fract_x
_atom_site_fract_y
_atom_site_fract_z
Si Si1 0.283383 0.634521 0.396486
Si Si2 0.988803 0.172606 0.856280
Si Si3 0.527054 0.420661 0.978870
Si Si4 0.706612 0.967824 0.098316
Si Si5 0.408731 0.867596 0.172564
Si Si6 0.662386 0.500000 0.250000
O O1 0.250000 0.654098 0.500000
O O2 0.380279 0.659942 0.360439
O O3 0.297757 0.551236 0.398987
O O4 0.196116 0.655955 0.334941
O O5 0.000000 0.250000 0.891013
O O6 0.032524 0.165657 0.753890
O O7 0.039574 0.117153 0.922649
O O8 0.610441 0.429919 0.906854
O O9 0.455026 0.370725 0.927925
O O10 0.500000 0.500000 0.000000
O O11 0.772643 0.954337 0.184118
O O12 0.750000 0.949626 0.000000
O O13 0.399825 0.949293 0.192433
#
# Coordination Sequence:
#
# PCOD9530579 Si02
#       6
#    16  16  16  16  16   8
#     4  10  20  45  67  94 137 186 218 281 356 407
#     4  12  27  45  67 100 138 181 240 281 341 424
#     4  12  22  41  71  99 132 174 228 286 340 406
#     4  10  20  35  63  99 135 166 217 281 345 401
#     4  11  24  40  68  97 136 180 221 277 348 411
#     4  10  22  36  62 104 134 164 224 280 360 404
#
# _framework density 21.431280999999998
#
# number of rings (size 3 to 8) (size 9 to 14) (size 15 to 20)
#    0.000    1.091    3.636    4.364    5.091    1.455 
#    0.000    2.727    0.000    0.000    0.000    0.000 
#    0.000    0.000    0.000    0.000    0.000    0.000 
#
# Total GULP energy -245445.580586 kJ/mol
# GULP energy per Si atom -5578.308650 kJ/mol
# Density = 2.138250 g / cm^3
# Si number density = 21.431281 Si / 1000 Ang^3
#
#
#
# Elastic Constant Matrix: (Units=GPa)
#
#
# Indices 1 2 3 4 5 6 
#
# 1 132.4088 17.3990 30.8317 0.0000 0.0000 0.0000
# 2 17.3990 57.5349 12.9951 0.0000 0.0000 0.0000
# 3 30.8317 12.9951 97.9377 0.0001 0.0000 0.0000
# 4 0.0000 0.0000 0.0001 14.6424 0.0000 0.0000
# 5 0.0000 0.0000 0.0000 0.0000 43.6699 0.0000
# 6 0.0000 0.0000 0.0000 0.0000 0.0000 10.3638
#
#
#
# Elastic Compliance Matrix: (Units=1/GPa)
#
#
# Indices 1 2 3 4 5 6 
#
# 1 0.008366 -0.001995 -0.002369 0.000000 0.000000 0.000000
# 2 -0.001995 0.018393 -0.001813 0.000000 0.000000 0.000000
# 3 -0.002369 -0.001813 0.011197 0.000000 0.000000 0.000000
# 4 0.000000 0.000000 0.000000 0.068295 0.000000 0.000000
# 5 0.000000 0.000000 0.000000 0.000000 0.022899 0.000000
# 6 0.000000 0.000000 0.000000 0.000000 0.000000 0.096490
#
#
# Mechanical properties :
#
#
# Convention : Reuss Voigt Hill
#
# Bulk Modulus (GPa) = 39.05728 45.59257 42.32492
# Shear Modulus (GPa) = 20.28170 28.84559 24.56364
#
# Velocity S-wave (km/s) = 3.07963 3.67271 3.38917
# Velocity P-wave (km/s) = 5.55963 6.26938 5.92514
#
# Compressibility (1/GPa) = 0.02560342
#
# Stress axis : x y z
#
# Youngs Moduli (GPa) = 119.52946 54.36722 89.31071
#
# Poissons Ratio (x) = 0.10846 0.21158
# Poissons Ratio (y) = 0.23845 0.16188
# Poissons Ratio (z) = 0.28317 0.09854
#
# Static dielectric constant tensor:
#      x y z
#    x 1.909950 0.000000 0.000000 
#    y 0.000000 1.748590 0.000000 
#    z 0.000000 0.000000 1.825150 
# 
# From -- ./inp_files/16949.got.cif
#   From: 2010.05.17/outbox.cif.g08.bks.cpg/sg73_9_cif.got.tgz:16949.got - 2010.06.03 17:35:07.
