data_PCOD9530310
_publ_section_title
;
Structure prediction by ZEFSAII (Michael W. Deem and Ramdas Pophale) SiO2 
 PCOD9530310
Probable space group: I B C A 
;
_chemical_formula_sum "Si O2"
_cell_formula_units_Z 96
_cell_length_a 12.450276
_cell_length_b 17.291675
_cell_length_c 21.101159
_cell_angle_alpha 90.000000
_cell_angle_beta 90.000000
_cell_angle_gamma 90.000000
_cell_volume 4542.786781
_symmetry_space_group_name_H-M "I B C A "
_symmetry_group_IT_number 73
_symmetry_cell_setting 'orthorhombic'
loop_
_space_group_symop_operation_xyz
x,y,z
-x,1/2-y,z
x,-y,1/2-z
1/2-x,y,-z
-x,-y,-z
x,1/2+y,-z
-x,y,1/2+z
1/2+x,-y,z
1/2+x,1/2+y,1/2+z
1/2-x,-y,1/2+z
1/2+x,1/2-y,-z
-x,1/2+y,1/2-z
1/2-x,1/2-y,1/2-z
1/2+x,y,1/2-z
1/2-x,1/2+y,z
x,1/2-y,1/2+z
loop_
_atom_site_type_symbol
_atom_site_label
_atom_site_fract_x
_atom_site_fract_y
_atom_site_fract_z
Si Si1 0.402165 0.597006 0.637040
Si Si2 0.791031 0.807244 0.694218
Si Si3 0.604127 0.917280 0.223280
Si Si4 0.961830 0.328689 0.032924
Si Si5 0.641520 0.543276 0.458212
Si Si6 0.744760 0.330753 0.884397
O O1 0.299719 0.631468 0.673118
O O2 0.490289 0.573068 0.689107
O O3 0.458537 0.661676 0.592908
O O4 0.378052 0.528892 0.587528
O O5 0.750000 0.750000 0.750000
O O6 0.892059 0.855078 0.719772
O O7 0.799809 0.747984 0.637027
O O8 0.682837 0.878455 0.171100
O O9 0.640467 0.000000 0.250000
O O10 0.843431 0.315970 0.061470
O O11 0.000000 0.250000 0.998381
O O12 0.950973 0.413671 0.999827
O O13 0.750000 0.528112 0.500000
O O14 0.668113 0.612650 0.411228
#
# Coordination Sequence:
#
# PCOD9530310 Si02
#       6
#    16  16  16  16  16  16
#     4  11  22  40  64  87 129 167 203 260 319 368
#     4  10  21  38  63  88 116 167 213 255 314 375
#     4  10  22  37  60  89 120 163 211 252 316 377
#     4  10  19  38  63  90 122 163 209 257 318 375
#     4  10  22  40  61  92 127 166 207 259 318 386
#     4   9  19  38  61  84 123 162 206 264 313 368
#
# _framework density 21.132401999999999
#
# number of rings (size 3 to 8) (size 9 to 14) (size 15 to 20)
#    0.000    2.000    1.667    1.500    0.000    3.333 
#    6.000    0.000    0.000    0.000    0.000    0.000 
#    0.000    0.000    0.000    0.000    0.000    0.000 
#
# Total GULP energy -267473.623074 kJ/mol
# GULP energy per Si atom -5572.367147 kJ/mol
# Density = 2.108430 g / cm^3
# Si number density = 21.132402 Si / 1000 Ang^3
#
#
#
# Elastic Constant Matrix: (Units=GPa)
#
#
# Indices 1 2 3 4 5 6 
#
# 1 41.2594 30.8408 39.2789 0.0000 0.0000 0.0000
# 2 30.8408 137.7343 52.1798 0.0000 0.0000 0.0000
# 3 39.2789 52.1798 71.0760 0.0000 0.0000 0.0000
# 4 0.0000 0.0000 0.0000 61.0188 0.0000 0.0000
# 5 0.0000 0.0000 0.0000 0.0000 32.2807 0.0000
# 6 0.0000 0.0000 0.0000 0.0000 0.0000 12.5957
#
#
#
# Elastic Compliance Matrix: (Units=1/GPa)
#
#
# Indices 1 2 3 4 5 6 
#
# 1 0.051250 -0.001033 -0.027564 0.000000 0.000000 0.000000
# 2 -0.001033 0.010078 -0.006828 0.000000 0.000000 0.000000
# 3 -0.027564 -0.006828 0.034315 0.000000 0.000000 0.000000
# 4 0.000000 0.000000 0.000000 0.016388 0.000000 0.000000
# 5 0.000000 0.000000 0.000000 0.000000 0.030978 0.000000
# 6 0.000000 0.000000 0.000000 0.000000 0.000000 0.079392
#
#
# Mechanical properties :
#
#
# Convention : Reuss Voigt Hill
#
# Bulk Modulus (GPa) = 40.33381 54.96317 47.64849
# Shear Modulus (GPa) = 16.58285 29.69706 23.13996
#
# Velocity S-wave (km/s) = 2.80431 3.75278 3.31267
# Velocity P-wave (km/s) = 5.44180 6.69651 6.10149
#
# Compressibility (1/GPa) = 0.02479310
#
# Stress axis : x y z
#
# Youngs Moduli (GPa) = 19.51221 99.22156 29.14198
#
# Poissons Ratio (x) = 0.10252 0.80326
# Poissons Ratio (y) = 0.02016 0.19898
# Poissons Ratio (z) = 0.53783 0.67748
#
# Static dielectric constant tensor:
#      x y z
#    x 1.760020 0.000000 0.000000 
#    y 0.000000 1.799920 0.000000 
#    z 0.000000 0.000000 1.832760 
# 
# From -- ./inp_files/13645.got.cif
#   From: 2010.05.17/outbox.cif.g08.bks.cpg/sg73_7_cif.got.tgz:13645.got - 2010.06.03 17:35:07.
