data_PCOD9530116
_publ_section_title
;
Structure prediction by ZEFSAII (Michael W. Deem and Ramdas Pophale) SiO2 
 PCOD9530116
Probable space group: I B C A 
;
_chemical_formula_sum "Si O2"
_cell_formula_units_Z 120
_cell_length_a 21.968759
_cell_length_b 13.779703
_cell_length_c 22.076895
_cell_angle_alpha 90.000000
_cell_angle_beta 90.000000
_cell_angle_gamma 90.000000
_cell_volume 6683.183318
_symmetry_space_group_name_H-M "I B C A "
_symmetry_group_IT_number 73
_symmetry_cell_setting 'orthorhombic'
loop_
_space_group_symop_operation_xyz
x,y,z
-x,1/2-y,z
x,-y,1/2-z
1/2-x,y,-z
-x,-y,-z
x,1/2+y,-z
-x,y,1/2+z
1/2+x,-y,z
1/2+x,1/2+y,1/2+z
1/2-x,-y,1/2+z
1/2+x,1/2-y,-z
-x,1/2+y,1/2-z
1/2-x,1/2-y,1/2-z
1/2+x,y,1/2-z
1/2-x,1/2+y,z
x,1/2-y,1/2+z
loop_
_atom_site_type_symbol
_atom_site_label
_atom_site_fract_x
_atom_site_fract_y
_atom_site_fract_z
Si Si1 0.000000 0.750000 0.553671
Si Si2 0.470502 0.038320 0.593570
Si Si3 0.702265 0.680216 0.618761
Si Si4 0.213249 0.149422 0.396548
Si Si5 0.866348 0.009020 0.678439
Si Si6 0.129472 0.761145 0.995676
Si Si7 0.910277 0.527918 0.964030
Si Si8 0.282311 0.964718 0.439912
O O1 0.018538 0.654107 0.590471
O O2 0.062041 0.776477 0.516296
O O3 0.431297 0.012159 0.533325
O O4 0.433742 0.005180 0.651536
O O5 0.534609 0.988254 0.581220
O O6 0.738948 0.778006 0.635754
O O7 0.656948 0.616538 0.659614
O O8 0.666039 0.702495 0.555794
O O9 0.757311 0.603871 0.611395
O O10 0.171664 0.208852 0.445801
O O11 0.171766 0.078915 0.354569
O O12 0.255957 0.072195 0.430926
O O13 0.862694 0.000000 0.750000
O O14 0.112767 0.862603 0.963629
O O15 0.853709 0.461614 0.947496
O O16 0.250000 0.928346 0.500000
#
# Coordination Sequence:
#
# PCOD9530116 Si02
#       8
#     8  16  16  16  16  16  16  16
#     4  10  22  32  56  86 122 158 186 242 308 386
#     4  10  22  36  57  84 118 160 204 248 307 365
#     4  11  24  33  61  92 121 162 203 251 316 373
#     4  11  20  38  57  89 126 155 201 254 311 369
#     4  11  25  45  64  82 120 174 220 253 292 361
#     4  11  20  34  55  94 131 154 188 256 325 376
#     4  10  19  33  55  86 125 153 183 255 315 370
#     4  11  18  30  52  87 126 158 183 234 313 375
#
# _framework density 17.955514999999998
#
# number of rings (size 3 to 8) (size 9 to 14) (size 15 to 20)
#    0.000    1.333    5.333    2.000    9.333    0.533 
#    0.000    0.000    2.933    3.200    0.000    0.000 
#    0.000    0.000    0.000    0.000    0.000    0.000 
#
# Total GULP energy -334355.186382 kJ/mol
# GULP energy per Si atom -5572.586440 kJ/mol
# Density = 1.791465 g / cm^3
# Si number density = 17.955515 Si / 1000 Ang^3
#
#
#
# Elastic Constant Matrix: (Units=GPa)
#
#
# Indices 1 2 3 4 5 6 
#
# 1 122.2543 27.2676 44.7749 0.0000 0.0000 0.0000
# 2 27.2676 63.9548 30.6636 0.0000 0.0000 0.0000
# 3 44.7749 30.6636 86.3969 0.0000 0.0000 0.0000
# 4 0.0000 0.0000 0.0000 19.7383 0.0000 0.0000
# 5 0.0000 0.0000 0.0000 0.0000 9.3417 0.0000
# 6 0.0000 0.0000 0.0000 0.0000 0.0000 11.1965
#
#
#
# Elastic Compliance Matrix: (Units=1/GPa)
#
#
# Indices 1 2 3 4 5 6 
#
# 1 0.010351 -0.002219 -0.004577 0.000000 0.000000 0.000000
# 2 -0.002219 0.019318 -0.005706 0.000000 0.000000 0.000000
# 3 -0.004577 -0.005706 0.015972 0.000000 0.000000 0.000000
# 4 0.000000 0.000000 0.000000 0.050663 0.000000 0.000000
# 5 0.000000 0.000000 0.000000 0.000000 0.107046 0.000000
# 6 0.000000 0.000000 0.000000 0.000000 0.000000 0.089313
#
#
# Mechanical properties :
#
#
# Convention : Reuss Voigt Hill
#
# Bulk Modulus (GPa) = 48.45764 53.11315 50.78540
# Shear Modulus (GPa) = 15.40614 19.38198 17.39406
#
# Velocity S-wave (km/s) = 2.93237 3.28905 3.11582
# Velocity P-wave (km/s) = 6.20574 6.63841 6.42572
#
# Compressibility (1/GPa) = 0.02063658
#
# Stress axis : x y z
#
# Youngs Moduli (GPa) = 96.61126 51.76524 62.61083
#
# Poissons Ratio (x) = 0.11485 0.28656
# Poissons Ratio (y) = 0.21436 0.35728
# Poissons Ratio (z) = 0.44217 0.29539
#
# Static dielectric constant tensor:
#      x y z
#    x 1.659890 0.000000 0.000000 
#    y 0.000000 1.692010 0.000000 
#    z 0.000000 0.000000 1.584860 
# 
# From -- ./inp_files/26994.got.cif
#   From: 2010.05.17/outbox.cif.g08.bks.cpg/sg73_14_cif.got.tgz:26994.got - 2010.06.03 17:35:07.
