data_PCOD9530593
_publ_section_title
;
Structure prediction by ZEFSAII (Michael W. Deem and Ramdas Pophale) SiO2 
 PCOD9530593
Probable space group: I B C A 
;
_chemical_formula_sum "Si O2"
_cell_formula_units_Z 96
_cell_length_a 19.193732
_cell_length_b 16.007232
_cell_length_c 15.558365
_cell_angle_alpha 90.000000
_cell_angle_beta 90.000000
_cell_angle_gamma 90.000000
_cell_volume 4780.129053
_symmetry_space_group_name_H-M "I B C A "
_symmetry_group_IT_number 73
_symmetry_cell_setting 'orthorhombic'
loop_
_space_group_symop_operation_xyz
x,y,z
-x,1/2-y,z
x,-y,1/2-z
1/2-x,y,-z
-x,-y,-z
x,1/2+y,-z
-x,y,1/2+z
1/2+x,-y,z
1/2+x,1/2+y,1/2+z
1/2-x,-y,1/2+z
1/2+x,1/2-y,-z
-x,1/2+y,1/2-z
1/2-x,1/2-y,1/2-z
1/2+x,y,1/2-z
1/2-x,1/2+y,z
x,1/2-y,1/2+z
loop_
_atom_site_type_symbol
_atom_site_label
_atom_site_fract_x
_atom_site_fract_y
_atom_site_fract_z
Si Si1 0.928336 0.727735 0.207881
Si Si2 0.681533 0.342642 0.833484
Si Si3 0.666202 0.356420 0.119963
Si Si4 0.045789 0.124288 0.464154
Si Si5 0.679811 0.710882 0.026334
Si Si6 0.094593 0.937437 0.474701
O O1 0.868794 0.672400 0.253356
O O2 0.890823 0.813470 0.180078
O O3 0.952702 0.675978 0.124005
O O4 0.000000 0.750000 0.257424
O O5 0.762067 0.369999 0.828716
O O6 0.684882 0.252901 0.881151
O O7 0.643070 0.404591 0.898972
O O8 0.678523 0.286413 0.044467
O O9 0.637009 0.433943 0.064884
O O10 0.108651 0.161697 0.519116
O O11 0.970489 0.125178 0.508914
O O12 0.064423 0.027278 0.451073
O O13 0.750000 0.661917 0.000000
#
# Coordination Sequence:
#
# PCOD9530593 Si02
#       6
#    16  16  16  16  16  16
#     4  11  21  35  57  86 116 150 185 240 290 337
#     4  10  21  33  59  85 110 149 189 230 288 346
#     4   9  18  37  56  82 113 143 184 236 280 333
#     4  10  21  35  55  80 113 146 189 235 280 336
#     4   8  17  32  53  80 107 138 185 232 268 328
#     4  10  20  36  56  81 109 151 190 234 279 338
#
# _framework density 20.083141000000001
#
# number of rings (size 3 to 8) (size 9 to 14) (size 15 to 20)
#    0.000    2.333    1.667    2.000    2.333    2.000 
#    0.000    0.000    0.000    3.000    0.000    0.000 
#    0.000    0.000    0.000    0.000    0.000    0.000 
#
# Total GULP energy -267545.087602 kJ/mol
# GULP energy per Si atom -5573.855992 kJ/mol
# Density = 2.003743 g / cm^3
# Si number density = 20.083141 Si / 1000 Ang^3
#
#
#
# Elastic Constant Matrix: (Units=GPa)
#
#
# Indices 1 2 3 4 5 6 
#
# 1 149.0214 18.6769 15.0885 0.0000 0.0000 0.0000
# 2 18.6769 35.2185 3.8389 0.0000 0.0000 0.0000
# 3 15.0885 3.8389 19.1738 0.0000 0.0000 0.0000
# 4 0.0000 0.0000 0.0000 5.2968 0.0000 0.0000
# 5 0.0000 0.0000 0.0000 0.0000 28.4521 0.0000
# 6 0.0000 0.0000 0.0000 0.0000 0.0000 13.4715
#
#
#
# Elastic Compliance Matrix: (Units=1/GPa)
#
#
# Indices 1 2 3 4 5 6 
#
# 1 0.007690 -0.003495 -0.005352 0.000000 0.000000 0.000000
# 2 -0.003495 0.030616 -0.003379 0.000000 0.000000 0.000000
# 3 -0.005352 -0.003379 0.057043 0.000000 0.000000 0.000000
# 4 0.000000 0.000000 0.000000 0.188792 0.000000 0.000000
# 5 0.000000 0.000000 0.000000 0.000000 0.035147 0.000000
# 6 0.000000 0.000000 0.000000 0.000000 0.000000 0.074231
#
#
# Mechanical properties :
#
#
# Convention : Reuss Voigt Hill
#
# Bulk Modulus (GPa) = 14.10514 30.95803 22.53158
# Shear Modulus (GPa) = 11.32239 20.49806 15.91023
#
# Velocity S-wave (km/s) = 2.37697 3.19824 2.81769
# Velocity P-wave (km/s) = 3.81732 5.39321 4.67219
#
# Compressibility (1/GPa) = 0.07089616
#
# Stress axis : x y z
#
# Youngs Moduli (GPa) = 130.03288 32.66267 17.53074
#
# Poissons Ratio (x) = 0.11415 0.09383
# Poissons Ratio (y) = 0.45446 0.05924
# Poissons Ratio (z) = 0.69594 0.11038
#
# Static dielectric constant tensor:
#      x y z
#    x 1.785610 0.000000 0.000000 
#    y 0.000000 1.697730 0.000000 
#    z 0.000000 0.000000 1.722400 
# 
# From -- ./inp_files/18623.got.cif
#   From: 2010.05.17/outbox.cif.g08.bks.cpg/sg73_10_cif.got.tgz:18623.got - 2010.06.03 17:35:07.
