data_PCOD9530331
_publ_section_title
;
Structure prediction by ZEFSAII (Michael W. Deem and Ramdas Pophale) SiO2 
 PCOD9530331
Probable space group: I B C A 
;
_chemical_formula_sum "Si O2"
_cell_formula_units_Z 72
_cell_length_a 24.171728
_cell_length_b 15.231817
_cell_length_c 9.342956
_cell_angle_alpha 90.000000
_cell_angle_beta 90.000000
_cell_angle_gamma 90.000000
_cell_volume 3439.883350
_symmetry_space_group_name_H-M "I B C A "
_symmetry_group_IT_number 73
_symmetry_cell_setting 'orthorhombic'
loop_
_space_group_symop_operation_xyz
x,y,z
-x,1/2-y,z
x,-y,1/2-z
1/2-x,y,-z
-x,-y,-z
x,1/2+y,-z
-x,y,1/2+z
1/2+x,-y,z
1/2+x,1/2+y,1/2+z
1/2-x,-y,1/2+z
1/2+x,1/2-y,-z
-x,1/2+y,1/2-z
1/2-x,1/2-y,1/2-z
1/2+x,y,1/2-z
1/2-x,1/2+y,z
x,1/2-y,1/2+z
loop_
_atom_site_type_symbol
_atom_site_label
_atom_site_fract_x
_atom_site_fract_y
_atom_site_fract_z
Si Si1 0.741736 0.852783 0.776167
Si Si2 0.843221 0.883068 0.957966
Si Si3 0.845023 0.553165 0.890674
Si Si4 0.500000 0.250000 0.681905
Si Si5 0.921273 0.215295 0.065249
O O1 0.750000 0.750000 0.750000
O O2 0.802074 0.881429 0.824888
O O3 0.716915 0.914732 0.651997
O O4 0.696300 0.859695 0.904655
O O5 0.892339 0.811783 0.945272
O O6 0.857273 0.983937 0.985780
O O7 0.865673 0.500000 0.750000
O O8 0.874172 0.643887 0.923523
O O9 0.541881 0.204465 0.792230
O O10 0.539706 0.300858 0.571608
#
# Coordination Sequence:
#
# PCOD9530331 Si02
#       5
#    16  16  16   8  16
#     4  10  19  39  60  94 134 175 210 254 313 385
#     4  10  22  39  62  95 130 173 214 258 323 387
#     4  10  21  41  63  94 135 172 214 265 318 401
#     4  10  24  42  72  96 120 172 218 294 332 384
#     4  11  22  46  68  93 132 166 226 273 340 383
#
# _framework density 20.930941000000001
#
# number of rings (size 3 to 8) (size 9 to 14) (size 15 to 20)
#    0.000    1.778    2.222    2.667    0.000    0.000 
#   20.000   13.333    0.000    0.000    0.000    0.000 
#    0.000    0.000    0.000    0.000    0.000    0.000 
#
# Total GULP energy -200710.169290 kJ/mol
# GULP energy per Si atom -5575.282480 kJ/mol
# Density = 2.088330 g / cm^3
# Si number density = 20.930941 Si / 1000 Ang^3
#
#
#
# Elastic Constant Matrix: (Units=GPa)
#
#
# Indices 1 2 3 4 5 6 
#
# 1 78.2355 32.8751 30.9959 0.0000 0.0000 0.0000
# 2 32.8751 120.8014 26.9196 0.0000 0.0000 0.0000
# 3 30.9959 26.9196 80.6830 0.0000 0.0000 0.0000
# 4 0.0000 0.0000 0.0000 15.7378 0.0000 0.0000
# 5 0.0000 0.0000 0.0000 0.0000 14.9798 0.0000
# 6 0.0000 0.0000 0.0000 0.0000 0.0000 -4.5628
#
#
#
# Elastic Compliance Matrix: (Units=1/GPa)
#
#
# Indices 1 2 3 4 5 6 
#
# 1 0.016185 -0.003261 -0.005129 0.000000 0.000000 0.000000
# 2 -0.003261 0.009600 -0.001950 0.000000 0.000000 0.000000
# 3 -0.005129 -0.001950 0.015015 0.000000 0.000000 0.000000
# 4 0.000000 0.000000 0.000000 0.063541 0.000000 0.000000
# 5 0.000000 0.000000 0.000000 0.000000 0.066757 0.000000
# 6 0.000000 0.000000 0.000000 0.000000 0.000000 -0.219166
#
#
# Mechanical properties :
#
#
# Convention : Reuss Voigt Hill
#
# Bulk Modulus (GPa) = 49.70631 51.25568 50.48099
# Shear Modulus (GPa) = -241.78681 17.82626 -111.98028
#
# Velocity S-wave (km/s) = -10.75952 2.92150 -7.32230
# Velocity P-wave (km/s) = 11.42615 5.99345 6.87879
#
# Compressibility (1/GPa) = 0.02011817
#
# Stress axis : x y z
#
# Youngs Moduli (GPa) = 61.78704 104.16453 66.59825
#
# Poissons Ratio (x) = 0.33973 0.34161
# Poissons Ratio (y) = 0.20152 0.12987
# Poissons Ratio (z) = 0.31693 0.20313
#
# Static dielectric constant tensor:
#      x y z
#    x 1.754300 0.000000 0.000000 
#    y 0.000000 1.720160 0.000000 
#    z 0.000000 0.000000 1.862740 
# 
# From -- ./inp_files/4786.got.cif
#   From: 2010.05.17/outbox.cif.g08.bks.cpg/sg73_3_cif.got.tgz:4786.got - 2010.06.03 17:35:07.
