data_PCOD9530042
_publ_section_title
;
Structure prediction by ZEFSAII (Michael W. Deem and Ramdas Pophale) SiO2 
 PCOD9530042
Probable space group: I B C A 
;
_chemical_formula_sum "Si O2"
_cell_formula_units_Z 104
_cell_length_a 16.071910
_cell_length_b 14.109590
_cell_length_c 21.000172
_cell_angle_alpha 90.000000
_cell_angle_beta 90.000000
_cell_angle_gamma 90.000000
_cell_volume 4762.168277
_symmetry_space_group_name_H-M "I B C A "
_symmetry_group_IT_number 73
_symmetry_cell_setting 'orthorhombic'
loop_
_space_group_symop_operation_xyz
x,y,z
-x,1/2-y,z
x,-y,1/2-z
1/2-x,y,-z
-x,-y,-z
x,1/2+y,-z
-x,y,1/2+z
1/2+x,-y,z
1/2+x,1/2+y,1/2+z
1/2-x,-y,1/2+z
1/2+x,1/2-y,-z
-x,1/2+y,1/2-z
1/2-x,1/2-y,1/2-z
1/2+x,y,1/2-z
1/2-x,1/2+y,z
x,1/2-y,1/2+z
loop_
_atom_site_type_symbol
_atom_site_label
_atom_site_fract_x
_atom_site_fract_y
_atom_site_fract_z
Si Si1 0.048910 0.949736 0.816591
Si Si2 0.345631 0.182766 0.927975
Si Si3 0.906853 0.274298 0.450236
Si Si4 0.773419 0.404981 0.719126
Si Si5 0.942763 0.989380 0.562443
Si Si6 0.809676 0.724994 0.662213
Si Si7 0.500000 0.250000 0.347643
O O1 0.148951 0.938198 0.824407
O O2 0.002439 0.997824 0.875976
O O3 0.010844 0.845329 0.809342
O O4 0.035773 0.000000 0.750000
O O5 0.376290 0.074638 0.935446
O O6 0.265381 0.191850 0.883776
O O7 0.418851 0.237538 0.890630
O O8 0.345320 0.232064 0.996851
O O9 0.900789 0.386778 0.441720
O O10 0.889660 0.225956 0.382391
O O11 0.000000 0.250000 0.471612
O O12 0.735009 0.500000 0.750000
O O13 0.812283 0.342688 0.776891
O O14 0.712092 0.331926 0.684939
O O15 0.000000 0.000000 0.500000
#
# Coordination Sequence:
#
# PCOD9530042 Si02
#       7
#    16  16  16  16  16  16   8
#     4  10  22  39  66 101 130 177 228 280 344 407
#     4  11  22  46  68  98 135 180 231 280 355 418
#     4  12  25  44  69 104 141 172 235 296 343 417
#     4  10  24  45  66  93 140 178 228 291 346 419
#     4  11  24  44  72 102 139 185 229 289 351 421
#     4  11  26  45  67  99 136 185 229 286 357 412
#     4  10  18  40  68  90 134 176 212 280 338 410
#
# _framework density 21.838791000000001
#
# number of rings (size 3 to 8) (size 9 to 14) (size 15 to 20)
#    0.000    1.231    3.846    1.385    6.462    1.231 
#    2.769    1.538    0.000    0.000    0.000    0.000 
#    0.000    0.000    0.000    0.000    0.000    0.000 
#
# Total GULP energy -290794.604396 kJ/mol
# GULP energy per Si atom -5592.203931 kJ/mol
# Density = 2.178908 g / cm^3
# Si number density = 21.838791 Si / 1000 Ang^3
#
#
#
# Elastic Constant Matrix: (Units=GPa)
#
#
# Indices 1 2 3 4 5 6 
#
# 1 50.9379 2.6086 11.7316 0.0000 0.0000 0.0000
# 2 2.6086 129.4659 24.5763 0.0000 0.0000 0.0000
# 3 11.7316 24.5763 71.4670 0.0000 0.0000 0.0000
# 4 0.0000 0.0000 0.0000 13.0094 0.0000 0.0000
# 5 0.0000 0.0000 0.0000 0.0000 28.5880 0.0000
# 6 0.0000 0.0000 0.0000 0.0000 0.0000 7.2771
#
#
#
# Elastic Compliance Matrix: (Units=1/GPa)
#
#
# Indices 1 2 3 4 5 6 
#
# 1 0.020410 0.000240 -0.003433 0.000000 0.000000 0.000000
# 2 0.000240 0.008266 -0.002882 0.000000 0.000000 0.000000
# 3 -0.003433 -0.002882 0.015547 0.000000 0.000000 0.000000
# 4 0.000000 0.000000 0.000000 0.076867 0.000000 0.000000
# 5 0.000000 0.000000 0.000000 0.000000 0.034980 0.000000
# 6 0.000000 0.000000 0.000000 0.000000 0.000000 0.137418
#
#
# Mechanical properties :
#
#
# Convention : Reuss Voigt Hill
#
# Bulk Modulus (GPa) = 31.17783 36.63375 33.90579
# Shear Modulus (GPa) = 15.80629 23.97184 19.88906
#
# Velocity S-wave (km/s) = 2.69322 3.31671 3.02109
# Velocity P-wave (km/s) = 4.89679 5.61057 5.26579
#
# Compressibility (1/GPa) = 0.03207407
#
# Stress axis : x y z
#
# Youngs Moduli (GPa) = 48.99527 120.97306 64.32051
#
# Poissons Ratio (x) = -0.02909 0.22082
# Poissons Ratio (y) = -0.01178 0.18538
# Poissons Ratio (z) = 0.16821 0.34866
#
# Static dielectric constant tensor:
#      x y z
#    x 1.801590 0.000000 0.000000 
#    y 0.000000 1.863140 0.000000 
#    z 0.000000 0.000000 1.778880 
# 
# From -- ./inp_files/26527.got.cif
#   From: 2010.05.17/outbox.cif.g08.bks.cpg/sg73_14_cif.got.tgz:26527.got - 2010.06.03 17:35:07.
