data_PCOD9530705
_publ_section_title
;
Structure prediction by ZEFSAII (Michael W. Deem and Ramdas Pophale) SiO2 
 PCOD9530705
Probable space group: I B C A 
;
_chemical_formula_sum "Si O2"
_cell_formula_units_Z 120
_cell_length_a 20.112622
_cell_length_b 8.891556
_cell_length_c 28.359799
_cell_angle_alpha 90.000000
_cell_angle_beta 90.000000
_cell_angle_gamma 90.000000
_cell_volume 5071.653891
_symmetry_space_group_name_H-M "I B C A "
_symmetry_group_IT_number 73
_symmetry_cell_setting 'orthorhombic'
loop_
_space_group_symop_operation_xyz
x,y,z
-x,1/2-y,z
x,-y,1/2-z
1/2-x,y,-z
-x,-y,-z
x,1/2+y,-z
-x,y,1/2+z
1/2+x,-y,z
1/2+x,1/2+y,1/2+z
1/2-x,-y,1/2+z
1/2+x,1/2-y,-z
-x,1/2+y,1/2-z
1/2-x,1/2-y,1/2-z
1/2+x,y,1/2-z
1/2-x,1/2+y,z
x,1/2-y,1/2+z
loop_
_atom_site_type_symbol
_atom_site_label
_atom_site_fract_x
_atom_site_fract_y
_atom_site_fract_z
Si Si1 0.265648 0.126257 0.287159
Si Si2 0.070089 0.481241 0.368768
Si Si3 0.121907 0.189326 0.308151
Si Si4 0.333730 0.793202 0.117204
Si Si5 0.435271 0.840693 0.224485
Si Si6 0.750000 0.401444 0.000000
Si Si7 0.303551 0.165580 0.562979
Si Si8 0.921732 0.990615 0.615932
O O1 0.250000 0.250000 0.250000
O O2 0.194652 0.112516 0.313684
O O3 0.315612 0.170341 0.328130
O O4 0.287270 0.000000 0.250000
O O5 0.066765 0.500000 0.250000
O O6 0.099909 0.337604 0.339407
O O7 0.128363 0.555926 0.400108
O O8 0.058460 0.613478 0.330035
O O9 0.115780 0.236195 0.253879
O O10 0.075747 0.058969 0.328875
O O11 0.260802 0.781229 0.093609
O O12 0.382409 0.649233 0.111370
O O13 0.500000 0.750000 0.237398
O O14 0.499824 0.469787 0.103780
O O15 0.718372 0.510959 0.961563
O O16 0.805592 0.292294 0.977390
O O17 0.372048 0.127623 0.589804
#
# Coordination Sequence:
#
# PCOD9530705 Si02
#       8
#    16  16  16  16  16   8  16  16
#     4  12  25  39  61  97 144 192 250 311 358 414
#     4  11  25  41  66  96 145 191 252 296 365 425
#     4  11  23  40  62  94 136 190 255 303 363 407
#     4  12  25  44  69 102 144 195 241 305 368 440
#     4  10  20  37  56  86 129 188 247 302 346 411
#     4  10  24  48  78 120 140 180 224 312 372 488
#     4  11  24  46  81 110 144 177 240 290 381 455
#     4  12  24  44  70 107 138 193 240 308 364 455
#
# _framework density 23.660920000000001
#
# number of rings (size 3 to 8) (size 9 to 14) (size 15 to 20)
#    0.000    0.800    2.667    5.600    3.733    2.667 
#    0.000    1.333    0.000    4.800    0.000    0.000 
#    0.000    0.000    0.000    0.000    0.000    0.000 
#
# Total GULP energy -334327.066999 kJ/mol
# GULP energy per Si atom -5572.117783 kJ/mol
# Density = 2.360707 g / cm^3
# Si number density = 23.660920 Si / 1000 Ang^3
#
#
#
# Elastic Constant Matrix: (Units=GPa)
#
#
# Indices 1 2 3 4 5 6 
#
# 1 129.8974 16.2916 9.6517 0.0000 0.0000 0.0000
# 2 16.2916 73.1618 30.7405 0.0000 0.0000 0.0000
# 3 9.6517 30.7405 54.7047 0.0000 0.0000 0.0000
# 4 0.0000 0.0000 0.0000 26.1035 0.0000 0.0000
# 5 0.0000 0.0000 0.0000 0.0000 15.0521 0.0000
# 6 0.0000 0.0000 0.0000 0.0000 0.0000 113.7733
#
#
#
# Elastic Compliance Matrix: (Units=1/GPa)
#
#
# Indices 1 2 3 4 5 6 
#
# 1 0.007931 -0.001542 -0.000533 0.000000 0.000000 0.000000
# 2 -0.001542 0.018193 -0.009951 0.000000 0.000000 0.000000
# 3 -0.000533 -0.009951 0.023966 0.000000 0.000000 0.000000
# 4 0.000000 0.000000 0.000000 0.038309 0.000000 0.000000
# 5 0.000000 0.000000 0.000000 0.000000 0.066436 0.000000
# 6 0.000000 0.000000 0.000000 0.000000 0.000000 0.008789
#
#
# Mechanical properties :
#
#
# Convention : Reuss Voigt Hill
#
# Bulk Modulus (GPa) = 38.40555 41.23683 39.82119
# Shear Modulus (GPa) = 25.46394 44.39113 34.92754
#
# Velocity S-wave (km/s) = 3.28411 4.33614 3.84626
# Velocity P-wave (km/s) = 5.53601 6.52193 6.04909
#
# Compressibility (1/GPa) = 0.02603790
#
# Stress axis : x y z
#
# Youngs Moduli (GPa) = 126.08110 54.96628 41.72601
#
# Poissons Ratio (x) = 0.08478 0.02223
# Poissons Ratio (y) = 0.19446 0.41522
# Poissons Ratio (z) = 0.06716 0.54698
#
# Static dielectric constant tensor:
#      x y z
#    x 2.100590 0.000000 0.000000 
#    y 0.000000 1.898960 0.000000 
#    z 0.000000 0.000000 1.965250 
# 
# From -- ./inp_files/34872.got.cif
#   From: 2010.05.17/outbox.cif.g08.bks.cpg/sg73_18_cif.got.tgz:34872.got - 2010.06.03 17:35:07.
