data_PCOD9530248
_publ_section_title
;
Structure prediction by ZEFSAII (Michael W. Deem and Ramdas Pophale) SiO2 
 PCOD9530248
Probable space group: I B C A 
;
_chemical_formula_sum "Si O2"
_cell_formula_units_Z 88
_cell_length_a 16.125619
_cell_length_b 19.464429
_cell_length_c 13.658222
_cell_angle_alpha 90.000000
_cell_angle_beta 90.000000
_cell_angle_gamma 90.000000
_cell_volume 4286.987626
_symmetry_space_group_name_H-M "I B C A "
_symmetry_group_IT_number 73
_symmetry_cell_setting 'orthorhombic'
loop_
_space_group_symop_operation_xyz
x,y,z
-x,1/2-y,z
x,-y,1/2-z
1/2-x,y,-z
-x,-y,-z
x,1/2+y,-z
-x,y,1/2+z
1/2+x,-y,z
1/2+x,1/2+y,1/2+z
1/2-x,-y,1/2+z
1/2+x,1/2-y,-z
-x,1/2+y,1/2-z
1/2-x,1/2-y,1/2-z
1/2+x,y,1/2-z
1/2-x,1/2+y,z
x,1/2-y,1/2+z
loop_
_atom_site_type_symbol
_atom_site_label
_atom_site_fract_x
_atom_site_fract_y
_atom_site_fract_z
Si Si1 0.154445 0.821093 0.821063
Si Si2 0.113608 0.275443 0.854032
Si Si3 0.532046 0.358638 0.811012
Si Si4 0.284851 0.413524 0.108192
Si Si5 0.396037 0.500000 0.250000
Si Si6 0.661276 0.201263 0.464070
O O1 0.158845 0.775949 0.722766
O O2 0.209111 0.889299 0.822309
O O3 0.185380 0.770000 0.905235
O O4 0.059786 0.840627 0.845327
O O5 0.045321 0.311662 0.785454
O O6 0.160328 0.343783 0.892514
O O7 0.103098 0.226352 0.946947
O O8 0.547027 0.436986 0.783206
O O9 0.604272 0.340479 0.888607
O O10 0.338093 0.472065 0.161654
O O11 0.250000 0.429642 0.000000
O O12 0.750000 0.170949 0.500000
#
# Coordination Sequence:
#
# PCOD9530248 Si02
#       6
#    16  16  16  16   8  16
#     4  11  21  37  61  98 121 158 202 268 320 362
#     4  10  19  36  63  94 124 155 194 256 327 373
#     4  10  25  39  60  90 133 159 208 259 310 368
#     4  11  21  42  67  86 123 170 209 257 304 373
#     4  10  26  46  60  82 128 180 218 248 290 378
#     4  11  20  35  65  97 124 153 202 255 322 383
#
# _framework density 20.527235000000001
#
# number of rings (size 3 to 8) (size 9 to 14) (size 15 to 20)
#    0.000    1.455    3.636    2.727    5.091    4.364 
#    0.000    0.909    0.000    0.000    0.000    0.000 
#    0.000    0.000    0.000    0.000    0.000    0.000 
#
# Total GULP energy -245357.519840 kJ/mol
# GULP energy per Si atom -5576.307269 kJ/mol
# Density = 2.048051 g / cm^3
# Si number density = 20.527235 Si / 1000 Ang^3
#
#
#
# Elastic Constant Matrix: (Units=GPa)
#
#
# Indices 1 2 3 4 5 6 
#
# 1 59.4043 14.8745 -19.6716 0.0000 0.0000 0.0000
# 2 14.8745 92.5170 26.0648 0.0000 0.0000 0.0000
# 3 -19.6716 26.0648 77.5635 0.0000 0.0000 0.0000
# 4 0.0000 0.0000 0.0000 24.4154 0.0000 0.0000
# 5 0.0000 0.0000 0.0000 0.0000 16.5724 0.0000
# 6 0.0000 0.0000 0.0000 0.0000 0.0000 34.1512
#
#
#
# Elastic Compliance Matrix: (Units=1/GPa)
#
#
# Indices 1 2 3 4 5 6 
#
# 1 0.020448 -0.005245 0.006949 0.000000 0.000000 0.000000
# 2 -0.005245 0.013285 -0.005795 0.000000 0.000000 0.000000
# 3 0.006949 -0.005795 0.016602 0.000000 0.000000 0.000000
# 4 0.000000 0.000000 0.000000 0.040958 0.000000 0.000000
# 5 0.000000 0.000000 0.000000 0.000000 0.060341 0.000000
# 6 0.000000 0.000000 0.000000 0.000000 0.000000 0.029282
#
#
# Mechanical properties :
#
#
# Convention : Reuss Voigt Hill
#
# Bulk Modulus (GPa) = 23.72317 30.22448 26.97383
# Shear Modulus (GPa) = 24.61250 28.90893 26.76071
#
# Velocity S-wave (km/s) = 3.46644 3.75683 3.61455
# Velocity P-wave (km/s) = 5.25391 5.79434 5.53073
#
# Compressibility (1/GPa) = 0.04215288
#
# Stress axis : x y z
#
# Youngs Moduli (GPa) = 48.90409 75.27511 60.23306
#
# Poissons Ratio (x) = 0.39483 -0.41854
# Poissons Ratio (y) = 0.25651 0.34902
# Poissons Ratio (z) = -0.33982 0.43618
#
# Static dielectric constant tensor:
#      x y z
#    x 1.810500 0.000000 0.000000 
#    y 0.000000 1.695530 0.000000 
#    z 0.000000 0.000000 1.759000 
# 
# From -- ./inp_files/18089.got.cif
#   From: 2010.05.17/outbox.cif.g08.bks.cpg/sg73_10_cif.got.tgz:18089.got - 2010.06.03 17:35:07.
