data_PCOD9530839
_publ_section_title
;
Structure prediction by ZEFSAII (Michael W. Deem and Ramdas Pophale) SiO2 
 PCOD9530839
Probable space group: I B C A 
;
_chemical_formula_sum "Si O2"
_cell_formula_units_Z 88
_cell_length_a 17.064849
_cell_length_b 20.202436
_cell_length_c 12.885378
_cell_angle_alpha 90.000000
_cell_angle_beta 90.000000
_cell_angle_gamma 90.000000
_cell_volume 4442.253648
_symmetry_space_group_name_H-M "I B C A "
_symmetry_group_IT_number 73
_symmetry_cell_setting 'orthorhombic'
loop_
_space_group_symop_operation_xyz
x,y,z
-x,1/2-y,z
x,-y,1/2-z
1/2-x,y,-z
-x,-y,-z
x,1/2+y,-z
-x,y,1/2+z
1/2+x,-y,z
1/2+x,1/2+y,1/2+z
1/2-x,-y,1/2+z
1/2+x,1/2-y,-z
-x,1/2+y,1/2-z
1/2-x,1/2-y,1/2-z
1/2+x,y,1/2-z
1/2-x,1/2+y,z
x,1/2-y,1/2+z
loop_
_atom_site_type_symbol
_atom_site_label
_atom_site_fract_x
_atom_site_fract_y
_atom_site_fract_z
Si Si1 0.215878 0.664232 0.106391
Si Si2 0.250000 0.889344 0.000000
Si Si3 0.116241 0.792315 0.081432
Si Si4 0.382602 0.708773 0.177900
Si Si5 0.532708 0.341483 0.400647
Si Si6 0.839608 0.428184 0.700669
O O1 0.149374 0.717467 0.073200
O O2 0.291953 0.704413 0.148226
O O3 0.186770 0.619514 0.202890
O O4 0.250000 0.631214 0.000000
O O5 0.318928 0.840430 0.966526
O O6 0.222159 0.926927 0.895777
O O7 0.108333 0.803963 0.201647
O O8 0.041027 0.818538 0.019828
O O9 0.441376 0.657239 0.124312
O O10 0.420363 0.779922 0.152707
O O11 0.580315 0.403091 0.354695
O O12 0.847598 0.500000 0.750000
#
# Coordination Sequence:
#
# PCOD9530839 Si02
#       6
#    16   8  16  16  16  16
#     4  12  21  36  63  94 118 156 208 266 308 360
#     4  10  20  38  64  90 120 160 212 266 314 354
#     4  11  19  36  64  91 125 153 203 270 326 363
#     4  11  21  36  60  95 123 153 203 266 325 369
#     4  10  23  37  59  91 125 166 195 255 327 374
#     4  11  24  41  61  88 127 172 213 249 305 381
#
# _framework density 19.809766
#
# number of rings (size 3 to 8) (size 9 to 14) (size 15 to 20)
#    0.000    1.091    6.364    1.636    1.273    4.364 
#    0.000    0.909    0.000    3.273    0.000    0.000 
#    0.000    0.000    0.000    0.000    0.000    0.000 
#
# Total GULP energy -245294.680361 kJ/mol
# GULP energy per Si atom -5574.879099 kJ/mol
# Density = 1.976468 g / cm^3
# Si number density = 19.809766 Si / 1000 Ang^3
#
#
#
# Elastic Constant Matrix: (Units=GPa)
#
#
# Indices 1 2 3 4 5 6 
#
# 1 55.6451 14.9055 1.7528 0.0000 0.0000 0.0000
# 2 14.9055 78.4659 19.1043 0.0000 0.0000 0.0000
# 3 1.7528 19.1043 135.6155 0.0000 0.0000 0.0000
# 4 0.0000 0.0000 0.0000 30.5131 0.0000 0.0000
# 5 0.0000 0.0000 0.0000 0.0000 58.6392 0.0000
# 6 0.0000 0.0000 0.0000 0.0000 0.0000 147.6837
#
#
#
# Elastic Compliance Matrix: (Units=1/GPa)
#
#
# Indices 1 2 3 4 5 6 
#
# 1 0.018944 -0.003665 0.000271 0.000000 0.000000 0.000000
# 2 -0.003665 0.013906 -0.001912 0.000000 0.000000 0.000000
# 3 0.000271 -0.001912 0.007640 0.000000 0.000000 0.000000
# 4 0.000000 0.000000 0.000000 0.032773 0.000000 0.000000
# 5 0.000000 0.000000 0.000000 0.000000 0.017053 0.000000
# 6 0.000000 0.000000 0.000000 0.000000 0.000000 0.006771
#
#
# Mechanical properties :
#
#
# Convention : Reuss Voigt Hill
#
# Bulk Modulus (GPa) = 33.46738 37.91687 35.69212
# Shear Modulus (GPa) = 42.49643 62.96479 52.73061
#
# Velocity S-wave (km/s) = 4.63668 5.64391 5.16491
# Velocity P-wave (km/s) = 6.75249 7.85199 7.32290
#
# Compressibility (1/GPa) = 0.02987984
#
# Stress axis : x y z
#
# Youngs Moduli (GPa) = 52.78679 71.91160 130.89748
#
# Poissons Ratio (x) = 0.26354 -0.03553
# Poissons Ratio (y) = 0.19345 0.25022
# Poissons Ratio (z) = -0.01433 0.13746
#
# Static dielectric constant tensor:
#      x y z
#    x 1.702060 0.000000 0.000000 
#    y 0.000000 1.689330 0.000000 
#    z 0.000000 0.000000 1.732930 
# 
# From -- ./inp_files/11878.got.cif
#   From: 2010.05.17/outbox.cif.g08.bks.cpg/sg73_6_cif.got.tgz:11878.got - 2010.06.03 17:35:07.
