data_PCOD9530445
_publ_section_title
;
Structure prediction by ZEFSAII (Michael W. Deem and Ramdas Pophale) SiO2 
 PCOD9530445
Probable space group: I B C A 
;
_chemical_formula_sum "Si O2"
_cell_formula_units_Z 104
_cell_length_a 8.916898
_cell_length_b 26.742696
_cell_length_c 23.575762
_cell_angle_alpha 90.000000
_cell_angle_beta 90.000000
_cell_angle_gamma 90.000000
_cell_volume 5621.920823
_symmetry_space_group_name_H-M "I B C A "
_symmetry_group_IT_number 73
_symmetry_cell_setting 'orthorhombic'
loop_
_space_group_symop_operation_xyz
x,y,z
-x,1/2-y,z
x,-y,1/2-z
1/2-x,y,-z
-x,-y,-z
x,1/2+y,-z
-x,y,1/2+z
1/2+x,-y,z
1/2+x,1/2+y,1/2+z
1/2-x,-y,1/2+z
1/2+x,1/2-y,-z
-x,1/2+y,1/2-z
1/2-x,1/2-y,1/2-z
1/2+x,y,1/2-z
1/2-x,1/2+y,z
x,1/2-y,1/2+z
loop_
_atom_site_type_symbol
_atom_site_label
_atom_site_fract_x
_atom_site_fract_y
_atom_site_fract_z
Si Si1 0.831632 0.856761 0.124168
Si Si2 0.500000 0.250000 0.754243
Si Si3 0.759830 0.320653 0.231845
Si Si4 0.341494 0.956870 0.440983
Si Si5 0.318195 0.753520 0.437089
Si Si6 0.298596 0.559393 0.435743
Si Si7 0.810347 0.843331 0.636154
O O1 0.768751 0.863287 0.187348
O O2 0.794944 0.906303 0.090165
O O3 0.777613 0.806369 0.092511
O O4 0.009699 0.848942 0.131638
O O5 0.587194 0.293267 0.785611
O O6 0.370553 0.279260 0.720962
O O7 0.767291 0.335700 0.297705
O O8 0.250000 0.956436 0.500000
O O9 0.523162 0.953277 0.441372
O O10 0.289143 0.009834 0.415628
O O11 0.500000 0.750000 0.440748
O O12 0.250000 0.750833 0.500000
O O13 0.266902 0.706377 0.398864
O O14 0.250000 0.572273 0.500000
O O15 0.259817 0.605864 0.394877
#
# Coordination Sequence:
#
# PCOD9530445 Si02
#       7
#    16   8  16  16  16  16  16
#     4  10  21  37  58  80 116 151 182 230 286 335
#     4  10  20  32  58  74 112 150 190 224 258 336
#     4  11  20  38  55  84 110 152 197 225 280 328
#     4  10  20  38  61  85 111 149 190 235 283 335
#     4  10  20  36  53  78 112 145 177 224 280 335
#     4  10  20  38  61  85 111 149 190 235 283 335
#     4  10  21  37  58  80 116 151 182 230 286 335
#
# _framework density 18.499016000000001
#
# number of rings (size 3 to 8) (size 9 to 14) (size 15 to 20)
#    0.000    1.846    1.538    4.615    2.154    0.000 
#   11.077    0.769    0.000    3.692    0.000    0.000 
#    0.000    0.000    0.000    0.000    0.000    0.000 
#
# Total GULP energy -289729.093911 kJ/mol
# GULP energy per Si atom -5571.713344 kJ/mol
# Density = 1.845691 g / cm^3
# Si number density = 18.499016 Si / 1000 Ang^3
#
#
#
# Elastic Constant Matrix: (Units=GPa)
#
#
# Indices 1 2 3 4 5 6 
#
# 1 48.5462 30.0997 17.5029 0.0000 0.0000 0.0000
# 2 30.0997 168.0017 88.4651 0.0000 0.0000 0.0000
# 3 17.5029 88.4651 124.7411 0.0000 0.0000 0.0000
# 4 0.0000 0.0000 0.0000 7.5080 0.0000 0.0000
# 5 0.0000 0.0000 0.0000 0.0000 21.3268 0.0000
# 6 0.0000 0.0000 0.0000 0.0000 0.0000 21.8052
#
#
#
# Elastic Compliance Matrix: (Units=1/GPa)
#
#
# Indices 1 2 3 4 5 6 
#
# 1 0.023192 -0.003897 -0.000491 0.000000 0.000000 0.000000
# 2 -0.003897 0.010155 -0.006655 0.000000 0.000000 0.000000
# 3 -0.000491 -0.006655 0.012805 0.000000 0.000000 0.000000
# 4 0.000000 0.000000 0.000000 0.133190 0.000000 0.000000
# 5 0.000000 0.000000 0.000000 0.000000 0.046889 0.000000
# 6 0.000000 0.000000 0.000000 0.000000 0.000000 0.045861
#
#
# Mechanical properties :
#
#
# Convention : Reuss Voigt Hill
#
# Bulk Modulus (GPa) = 41.55037 68.15827 54.85432
# Shear Modulus (GPa) = 16.54538 23.80942 20.17740
#
# Velocity S-wave (km/s) = 2.99388 3.59146 3.30620
# Velocity P-wave (km/s) = 5.87033 7.35679 6.65519
#
# Compressibility (1/GPa) = 0.02406718
#
# Stress axis : x y z
#
# Youngs Moduli (GPa) = 43.11845 98.47598 78.09446
#
# Poissons Ratio (x) = 0.38374 0.03831
# Poissons Ratio (y) = 0.16802 0.51971
# Poissons Ratio (z) = 0.02115 0.65535
#
# Static dielectric constant tensor:
#      x y z
#    x 1.680390 0.000000 0.000000 
#    y 0.000000 1.651910 0.000000 
#    z 0.000000 0.000000 1.634190 
# 
# From -- ./inp_files/28494.got.cif
#   From: 2010.05.17/outbox.cif.g08.bks.cpg/sg73_15_cif.got.tgz:28494.got - 2010.06.03 17:35:07.
