data_PCOD9530214
_publ_section_title
;
Structure prediction by ZEFSAII (Michael W. Deem and Ramdas Pophale) SiO2 
 PCOD9530214
Probable space group: I B C A 
;
_chemical_formula_sum "Si O2"
_cell_formula_units_Z 104
_cell_length_a 8.456428
_cell_length_b 21.084949
_cell_length_c 27.623543
_cell_angle_alpha 90.000000
_cell_angle_beta 90.000000
_cell_angle_gamma 90.000000
_cell_volume 4925.370341
_symmetry_space_group_name_H-M "I B C A "
_symmetry_group_IT_number 73
_symmetry_cell_setting 'orthorhombic'
loop_
_space_group_symop_operation_xyz
x,y,z
-x,1/2-y,z
x,-y,1/2-z
1/2-x,y,-z
-x,-y,-z
x,1/2+y,-z
-x,y,1/2+z
1/2+x,-y,z
1/2+x,1/2+y,1/2+z
1/2-x,-y,1/2+z
1/2+x,1/2-y,-z
-x,1/2+y,1/2-z
1/2-x,1/2-y,1/2-z
1/2+x,y,1/2-z
1/2-x,1/2+y,z
x,1/2-y,1/2+z
loop_
_atom_site_type_symbol
_atom_site_label
_atom_site_fract_x
_atom_site_fract_y
_atom_site_fract_z
Si Si1 0.000000 0.250000 0.121027
Si Si2 0.514410 0.675458 0.282322
Si Si3 0.804922 0.830058 0.446788
Si Si4 0.092646 0.451205 0.031886
Si Si5 0.341257 0.900212 0.856315
Si Si6 0.963660 0.976881 0.358636
Si Si7 0.133478 0.864067 0.314724
O O1 0.140396 0.273165 0.086412
O O2 0.055835 0.191199 0.153040
O O3 0.500000 0.750000 0.270460
O O4 0.386981 0.659243 0.323766
O O5 0.688080 0.655971 0.300992
O O6 0.463079 0.635384 0.235543
O O7 0.750000 0.809554 0.500000
O O8 0.951991 0.878014 0.458150
O O9 0.693049 0.873677 0.411040
O O10 0.087172 0.479669 0.085180
O O11 0.250000 0.443720 0.000000
O O12 0.000000 0.500000 0.000000
O O13 0.186602 0.938355 0.837887
O O14 0.480281 0.951856 0.849006
O O15 0.108187 0.929901 0.343836
#
# Coordination Sequence:
#
# PCOD9530214 Si02
#       7
#     8  16  16  16  16  16  16
#     4  12  22  46  70  98 142 182 234 286 346 408
#     4  12  26  43  70 101 136 183 234 286 345 426
#     4  10  22  42  67  94 140 184 223 287 341 411
#     4  10  19  35  62  91 124 173 222 271 334 399
#     4  11  23  44  69 100 141 183 230 292 350 411
#     4  11  22  41  67  99 136 176 228 288 347 413
#     4  12  25  43  71 101 135 182 231 290 350 411
#
# _framework density 21.115162999999999
#
# number of rings (size 3 to 8) (size 9 to 14) (size 15 to 20)
#    0.000    0.923    3.846    6.000    0.000    0.615 
#    4.154    3.846    0.000    0.000    0.000    0.000 
#    0.000    0.000    0.000    0.000    0.000    0.000 
#
# Total GULP energy -289656.580576 kJ/mol
# GULP energy per Si atom -5570.318857 kJ/mol
# Density = 2.106710 g / cm^3
# Si number density = 21.115163 Si / 1000 Ang^3
#
#
#
# Elastic Constant Matrix: (Units=GPa)
#
#
# Indices 1 2 3 4 5 6 
#
# 1 61.1089 -4.7398 26.0610 0.0000 0.0000 0.0000
# 2 -4.7398 53.3349 26.3525 0.0000 0.0000 0.0000
# 3 26.0610 26.3525 117.1356 0.0000 0.0000 0.0000
# 4 0.0000 0.0000 0.0000 11.0952 0.0000 0.0000
# 5 0.0000 0.0000 0.0000 0.0000 30.8832 0.0000
# 6 0.0000 0.0000 0.0000 0.0000 0.0000 28.9965
#
#
#
# Elastic Compliance Matrix: (Units=1/GPa)
#
#
# Indices 1 2 3 4 5 6 
#
# 1 0.018890 0.004225 -0.005153 0.000000 0.000000 0.000000
# 2 0.004225 0.022039 -0.005898 0.000000 0.000000 0.000000
# 3 -0.005153 -0.005898 0.011011 0.000000 0.000000 0.000000
# 4 0.000000 0.000000 0.000000 0.090129 0.000000 0.000000
# 5 0.000000 0.000000 0.000000 0.000000 0.032380 0.000000
# 6 0.000000 0.000000 0.000000 0.000000 0.000000 0.034487
#
#
# Mechanical properties :
#
#
# Convention : Reuss Voigt Hill
#
# Bulk Modulus (GPa) = 26.11907 36.32522 31.22215
# Shear Modulus (GPa) = 21.24490 26.45535 23.85012
#
# Velocity S-wave (km/s) = 3.17542 3.54348 3.36449
# Velocity P-wave (km/s) = 5.08341 5.82945 5.46916
#
# Compressibility (1/GPa) = 0.03828620
#
# Stress axis : x y z
#
# Youngs Moduli (GPa) = 52.93934 45.37379 90.82195
#
# Poissons Ratio (x) = -0.19170 0.46802
# Poissons Ratio (y) = -0.22366 0.53569
# Poissons Ratio (z) = 0.27280 0.26762
#
# Static dielectric constant tensor:
#      x y z
#    x 1.850550 0.000000 0.000000 
#    y 0.000000 1.618270 0.000000 
#    z 0.000000 0.000000 1.812270 
# 
# From -- ./inp_files/31285.got.cif
#   From: 2010.05.17/outbox.cif.g08.bks.cpg/sg73_16_cif.got.tgz:31285.got - 2010.06.03 17:35:07.
