data_PCOD9530953
_publ_section_title
;
Structure prediction by ZEFSAII (Michael W. Deem and Ramdas Pophale) SiO2 
 PCOD9530953
Probable space group: I B C A 
;
_chemical_formula_sum "Si O2"
_cell_formula_units_Z 104
_cell_length_a 18.707093
_cell_length_b 9.118549
_cell_length_c 30.791069
_cell_angle_alpha 90.000000
_cell_angle_beta 90.000000
_cell_angle_gamma 90.000000
_cell_volume 5252.388097
_symmetry_space_group_name_H-M "I B C A "
_symmetry_group_IT_number 73
_symmetry_cell_setting 'orthorhombic'
loop_
_space_group_symop_operation_xyz
x,y,z
-x,1/2-y,z
x,-y,1/2-z
1/2-x,y,-z
-x,-y,-z
x,1/2+y,-z
-x,y,1/2+z
1/2+x,-y,z
1/2+x,1/2+y,1/2+z
1/2-x,-y,1/2+z
1/2+x,1/2-y,-z
-x,1/2+y,1/2-z
1/2-x,1/2-y,1/2-z
1/2+x,y,1/2-z
1/2-x,1/2+y,z
x,1/2-y,1/2+z
loop_
_atom_site_type_symbol
_atom_site_label
_atom_site_fract_x
_atom_site_fract_y
_atom_site_fract_z
Si Si1 0.315531 0.960133 0.151091
Si Si2 0.287306 0.247204 0.702962
Si Si3 0.053969 0.111398 0.290133
Si Si4 0.750000 0.296103 0.500000
Si Si5 0.985393 0.922461 0.366353
Si Si6 0.314578 0.543028 0.944800
Si Si7 0.518998 0.421329 0.045276
O O1 0.269294 0.827602 0.170254
O O2 0.400527 0.936875 0.144384
O O3 0.303988 0.091964 0.184785
O O4 0.288309 0.002577 0.103056
O O5 0.250000 0.250000 0.750000
O O6 0.363850 0.164553 0.705228
O O7 0.000000 0.250000 0.284762
O O8 0.048358 0.000000 0.250000
O O9 0.028249 0.019548 0.331751
O O10 0.695219 0.406683 0.477435
O O11 0.777020 0.187075 0.463085
O O12 0.000000 0.750000 0.363934
O O13 0.008798 0.986155 0.413404
O O14 0.397266 0.576631 0.945671
O O15 0.500000 0.250000 0.044646
O O16 0.500000 0.500000 0.000000
#
# Coordination Sequence:
#
# PCOD9530953 Si02
#       7
#    16  16  16   8  16  16  16
#     4  11  25  45  68 100 140 177 236 285 350 420
#     4  12  27  46  70 102 138 181 231 291 355 424
#     4  12  26  46  72 102 137 184 229 289 356 420
#     4  10  20  40  62  94 130 172 228 268 334 400
#     4  11  26  45  70 102 140 188 239 290 354 422
#     4  10  22  40  65  95 132 179 221 279 339 401
#     4  11  23  42  68 102 140 182 231 289 348 415
#
# _framework density 19.800518
#
# number of rings (size 3 to 8) (size 9 to 14) (size 15 to 20)
#    0.000    0.923    1.538    4.615    8.615    1.231 
#    5.538    0.000    0.000    0.000    0.000    0.000 
#    0.000    0.000    0.000    0.000    0.000    0.000 
#
# Total GULP energy -290511.475911 kJ/mol
# GULP energy per Si atom -5586.759152 kJ/mol
# Density = 1.975545 g / cm^3
# Si number density = 19.800518 Si / 1000 Ang^3
#
#
#
# Elastic Constant Matrix: (Units=GPa)
#
#
# Indices 1 2 3 4 5 6 
#
# 1 79.3313 32.3547 34.4391 0.0000 0.0000 0.0000
# 2 32.3547 124.7171 26.6959 0.0000 0.0000 0.0000
# 3 34.4391 26.6959 95.0499 0.0000 0.0000 0.0000
# 4 0.0000 0.0000 0.0000 41.1613 0.0000 0.0000
# 5 0.0000 0.0000 0.0000 0.0000 28.9978 0.0000
# 6 0.0000 0.0000 0.0000 0.0000 0.0000 -6.6094
#
#
#
# Elastic Compliance Matrix: (Units=1/GPa)
#
#
# Indices 1 2 3 4 5 6 
#
# 1 0.016009 -0.003098 -0.004930 0.000000 0.000000 0.000000
# 2 -0.003098 0.009130 -0.001442 0.000000 0.000000 0.000000
# 3 -0.004930 -0.001442 0.012712 0.000000 0.000000 0.000000
# 4 0.000000 0.000000 0.000000 0.024295 0.000000 0.000000
# 5 0.000000 0.000000 0.000000 0.000000 0.034485 0.000000
# 6 0.000000 0.000000 0.000000 0.000000 0.000000 -0.151299
#
#
# Mechanical properties :
#
#
# Convention : Reuss Voigt Hill
#
# Bulk Modulus (GPa) = 52.87838 54.00864 53.44351
# Shear Modulus (GPa) = -169.93867 26.41717 -71.76075
#
# Velocity S-wave (km/s) = -9.27425 3.65659 -6.02665
# Velocity P-wave (km/s) = 9.37650 6.72035 4.62362
#
# Compressibility (1/GPa) = 0.01891132
#
# Stress axis : x y z
#
# Youngs Moduli (GPa) = 62.46416 109.52364 78.66440
#
# Poissons Ratio (x) = 0.33928 0.38785
# Poissons Ratio (y) = 0.19350 0.11343
# Poissons Ratio (z) = 0.30798 0.15793
#
# Static dielectric constant tensor:
#      x y z
#    x 1.686460 0.000000 0.000000 
#    y 0.000000 1.678810 0.000000 
#    z 0.000000 0.000000 1.709500 
# 
# From -- ./inp_files/32668.got.cif
#   From: 2010.05.17/outbox.cif.g08.bks.cpg/sg73_17_cif.got.tgz:32668.got - 2010.06.03 17:35:07.
