data_PCOD9530324
_publ_section_title
;
Structure prediction by ZEFSAII (Michael W. Deem and Ramdas Pophale) SiO2 
 PCOD9530324
Probable space group: I B C A 
;
_chemical_formula_sum "Si O2"
_cell_formula_units_Z 112
_cell_length_a 26.744083
_cell_length_b 13.199887
_cell_length_c 12.946955
_cell_angle_alpha 90.000000
_cell_angle_beta 90.000000
_cell_angle_gamma 90.000000
_cell_volume 4570.519470
_symmetry_space_group_name_H-M "I B C A "
_symmetry_group_IT_number 73
_symmetry_cell_setting 'orthorhombic'
loop_
_space_group_symop_operation_xyz
x,y,z
-x,1/2-y,z
x,-y,1/2-z
1/2-x,y,-z
-x,-y,-z
x,1/2+y,-z
-x,y,1/2+z
1/2+x,-y,z
1/2+x,1/2+y,1/2+z
1/2-x,-y,1/2+z
1/2+x,1/2-y,-z
-x,1/2+y,1/2-z
1/2-x,1/2-y,1/2-z
1/2+x,y,1/2-z
1/2-x,1/2+y,z
x,1/2-y,1/2+z
loop_
_atom_site_type_symbol
_atom_site_label
_atom_site_fract_x
_atom_site_fract_y
_atom_site_fract_z
Si Si1 0.703709 0.805482 0.802750
Si Si2 0.127564 0.428919 0.167516
Si Si3 0.622868 0.245158 0.445609
Si Si4 0.160721 0.384595 0.898331
Si Si5 0.048042 0.464717 0.865568
Si Si6 0.528785 0.157348 0.510622
Si Si7 0.181825 0.066994 0.000202
O O1 0.750000 0.750000 0.750000
O O2 0.676141 0.884340 0.727258
O O3 0.669788 0.705614 0.819201
O O4 0.711130 0.866023 0.912865
O O5 0.099545 0.500000 0.250000
O O6 0.099427 0.325805 0.133546
O O7 0.143210 0.504657 0.074743
O O8 0.662662 0.319604 0.496741
O O9 0.582865 0.206769 0.529805
O O10 0.653525 0.144661 0.423285
O O11 0.104896 0.426502 0.880770
O O12 0.198777 0.477310 0.921252
O O13 0.041484 0.500000 0.750000
O O14 0.007114 0.381483 0.899117
O O15 0.038992 0.561899 0.938134
O O16 0.500000 0.250000 0.457253
#
# Coordination Sequence:
#
# PCOD9530324 Si02
#       7
#    16  16  16  16  16  16  16
#     4  10  22  41  66 102 138 169 231 301 357 432
#     4   9  20  39  64  98 130 175 228 282 344 423
#     4  10  19  38  68  93 131 186 229 269 353 420
#     4  10  20  39  67  95 132 184 230 286 352 438
#     4  11  25  41  64 100 141 185 242 290 358 416
#     4  11  23  43  66  94 146 182 230 302 341 417
#     4   9  19  40  66  93 129 181 222 273 352 431
#
# _framework density 24.504873
#
# number of rings (size 3 to 8) (size 9 to 14) (size 15 to 20)
#    0.000    2.000    2.857    0.000    2.000    0.571 
#    0.000   18.571    0.000    0.000    0.000    0.000 
#    0.000    0.000    0.000    0.000    0.000    0.000 
#
# Total GULP energy -311748.180194 kJ/mol
# GULP energy per Si atom -5566.931789 kJ/mol
# Density = 2.444910 g / cm^3
# Si number density = 24.504873 Si / 1000 Ang^3
#
#
#
# Elastic Constant Matrix: (Units=GPa)
#
#
# Indices 1 2 3 4 5 6 
#
# 1 57.2012 46.9511 22.3186 0.0000 0.0000 0.0000
# 2 46.9511 195.9705 41.1967 0.0000 0.0000 0.0000
# 3 22.3186 41.1967 86.6722 0.0000 0.0000 0.0000
# 4 0.0000 0.0000 0.0000 46.4928 0.0000 0.0000
# 5 0.0000 0.0000 0.0000 0.0000 30.7950 0.0000
# 6 0.0000 0.0000 0.0000 0.0000 0.0000 42.0496
#
#
#
# Elastic Compliance Matrix: (Units=1/GPa)
#
#
# Indices 1 2 3 4 5 6 
#
# 1 0.022745 -0.004686 -0.003629 0.000000 0.000000 0.000000
# 2 -0.004686 0.006635 -0.001947 0.000000 0.000000 0.000000
# 3 -0.003629 -0.001947 0.013398 0.000000 0.000000 0.000000
# 4 0.000000 0.000000 0.000000 0.021509 0.000000 0.000000
# 5 0.000000 0.000000 0.000000 0.000000 0.032473 0.000000
# 6 0.000000 0.000000 0.000000 0.000000 0.000000 0.023781
#
#
# Mechanical properties :
#
#
# Convention : Reuss Voigt Hill
#
# Bulk Modulus (GPa) = 44.93956 62.30851 53.62403
# Shear Modulus (GPa) = 33.67388 39.15930 36.41659
#
# Velocity S-wave (km/s) = 3.71100 4.00186 3.85917
# Velocity P-wave (km/s) = 6.06143 6.84364 6.46437
#
# Compressibility (1/GPa) = 0.02225211
#
# Stress axis : x y z
#
# Youngs Moduli (GPa) = 43.96605 150.71961 74.63951
#
# Poissons Ratio (x) = 0.70631 0.27090
# Poissons Ratio (y) = 0.20604 0.14532
# Poissons Ratio (z) = 0.15957 0.29344
#
# Static dielectric constant tensor:
#      x y z
#    x 2.086120 0.000000 0.000000 
#    y 0.000000 2.017250 0.000000 
#    z 0.000000 0.000000 2.102480 
# 
# From -- ./inp_files/20029.got.cif
#   From: 2010.05.17/outbox.cif.g08.bks.cpg/sg73_11_cif.got.tgz:20029.got - 2010.06.03 17:35:07.
