data_PCOD9530376
_publ_section_title
;
Structure prediction by ZEFSAII (Michael W. Deem and Ramdas Pophale) SiO2 
 PCOD9530376
Probable space group: I B C A 
;
_chemical_formula_sum "Si O2"
_cell_formula_units_Z 112
_cell_length_a 12.712409
_cell_length_b 22.082214
_cell_length_c 20.308132
_cell_angle_alpha 90.000000
_cell_angle_beta 90.000000
_cell_angle_gamma 90.000000
_cell_volume 5700.860961
_symmetry_space_group_name_H-M "I B C A "
_symmetry_group_IT_number 73
_symmetry_cell_setting 'orthorhombic'
loop_
_space_group_symop_operation_xyz
x,y,z
-x,1/2-y,z
x,-y,1/2-z
1/2-x,y,-z
-x,-y,-z
x,1/2+y,-z
-x,y,1/2+z
1/2+x,-y,z
1/2+x,1/2+y,1/2+z
1/2-x,-y,1/2+z
1/2+x,1/2-y,-z
-x,1/2+y,1/2-z
1/2-x,1/2-y,1/2-z
1/2+x,y,1/2-z
1/2-x,1/2+y,z
x,1/2-y,1/2+z
loop_
_atom_site_type_symbol
_atom_site_label
_atom_site_fract_x
_atom_site_fract_y
_atom_site_fract_z
Si Si1 0.667086 0.681770 0.077731
Si Si2 0.090217 0.410822 0.840930
Si Si3 0.635793 0.539138 0.315763
Si Si4 0.403558 0.704356 0.429848
Si Si5 0.770508 0.648645 0.274942
Si Si6 0.392216 0.736906 0.703244
Si Si7 0.732679 0.540481 0.076202
O O1 0.780529 0.715069 0.091847
O O2 0.590497 0.701508 0.135543
O O3 0.694050 0.610476 0.077768
O O4 0.616494 0.696445 0.007711
O O5 0.065998 0.357158 0.892435
O O6 0.162405 0.382864 0.783191
O O7 0.159192 0.458895 0.882016
O O8 0.983608 0.437944 0.812856
O O9 0.658400 0.500000 0.250000
O O10 0.713994 0.596386 0.315539
O O11 0.654102 0.500422 0.381632
O O12 0.500000 0.750000 0.418319
O O13 0.681958 0.692188 0.243586
O O14 0.843369 0.697398 0.310724
O O15 0.500000 0.750000 0.740686
O O16 0.750000 0.523537 0.000000
#
# Coordination Sequence:
#
# PCOD9530376 Si02
#       7
#    16  16  16  16  16  16  16
#     4  10  19  41  62  90 127 172 207 261 327 394
#     4  11  23  42  67  93 128 174 216 268 337 388
#     4  12  26  41  68  99 129 173 229 274 329 386
#     4  10  20  36  66  92 123 165 211 260 324 399
#     4  11  24  42  63  97 132 167 210 276 328 394
#     4  11  22  39  64  93 129 165 207 262 331 396
#     4  11  22  47  67  90 135 178 224 270 329 395
#
# _framework density 19.646155
#
# number of rings (size 3 to 8) (size 9 to 14) (size 15 to 20)
#    0.000    1.143    7.143    1.286    4.000    1.143 
#    0.000    1.429    0.000    0.000    0.000    0.000 
#    0.000    0.000    0.000    0.000    0.000    0.000 
#
# Total GULP energy -312479.302989 kJ/mol
# GULP energy per Si atom -5579.987553 kJ/mol
# Density = 1.960144 g / cm^3
# Si number density = 19.646155 Si / 1000 Ang^3
#
#
#
# Elastic Constant Matrix: (Units=GPa)
#
#
# Indices 1 2 3 4 5 6 
#
# 1 92.3626 47.8020 12.1406 0.0000 0.0000 0.0000
# 2 47.8020 65.5948 17.0671 0.0000 0.0000 0.0000
# 3 12.1406 17.0671 69.1139 0.0000 0.0000 0.0000
# 4 0.0000 0.0000 0.0000 -12.8679 0.0000 0.0000
# 5 0.0000 0.0000 0.0000 0.0000 8.1344 0.0000
# 6 0.0000 0.0000 0.0000 0.0000 0.0000 32.5841
#
#
#
# Elastic Compliance Matrix: (Units=1/GPa)
#
#
# Indices 1 2 3 4 5 6 
#
# 1 0.017384 -0.012689 0.000080 0.000000 0.000000 0.000000
# 2 -0.012689 0.025554 -0.004081 0.000000 0.000000 0.000000
# 3 0.000080 -0.004081 0.015463 0.000000 0.000000 0.000000
# 4 0.000000 0.000000 0.000000 -0.077713 0.000000 0.000000
# 5 0.000000 0.000000 0.000000 0.000000 0.122935 0.000000
# 6 0.000000 0.000000 0.000000 0.000000 0.000000 0.030690
#
#
# Mechanical properties :
#
#
# Convention : Reuss Voigt Hill
#
# Bulk Modulus (GPa) = 39.96923 42.34341 41.15632
# Shear Modulus (GPa) = 28.40369 15.57421 21.98895
#
# Velocity S-wave (km/s) = 3.80644 2.81861 3.34915
# Velocity P-wave (km/s) = 6.30138 5.67385 5.99583
#
# Compressibility (1/GPa) = 0.02501924
#
# Stress axis : x y z
#
# Youngs Moduli (GPa) = 57.52561 39.13259 64.67168
#
# Poissons Ratio (x) = 0.49655 -0.00516
# Poissons Ratio (y) = 0.72994 0.26395
# Poissons Ratio (z) = -0.00459 0.15972
#
# Static dielectric constant tensor:
#      x y z
#    x 1.816680 0.000000 0.000000 
#    y 0.000000 1.677210 0.000000 
#    z 0.000000 0.000000 1.671820 
# 
# From -- ./inp_files/25564.got.cif
#   From: 2010.05.17/outbox.cif.g08.bks.cpg/sg73_13_cif.got.tgz:25564.got - 2010.06.03 17:35:07.
