data_PCOD9530335
_publ_section_title
;
Structure prediction by ZEFSAII (Michael W. Deem and Ramdas Pophale) SiO2 
 PCOD9530335
Probable space group: I B C A 
;
_chemical_formula_sum "Si O2"
_cell_formula_units_Z 112
_cell_length_a 14.407591
_cell_length_b 27.409790
_cell_length_c 13.968784
_cell_angle_alpha 90.000000
_cell_angle_beta 90.000000
_cell_angle_gamma 90.000000
_cell_volume 5516.399131
_symmetry_space_group_name_H-M "I B C A "
_symmetry_group_IT_number 73
_symmetry_cell_setting 'orthorhombic'
loop_
_space_group_symop_operation_xyz
x,y,z
-x,1/2-y,z
x,-y,1/2-z
1/2-x,y,-z
-x,-y,-z
x,1/2+y,-z
-x,y,1/2+z
1/2+x,-y,z
1/2+x,1/2+y,1/2+z
1/2-x,-y,1/2+z
1/2+x,1/2-y,-z
-x,1/2+y,1/2-z
1/2-x,1/2-y,1/2-z
1/2+x,y,1/2-z
1/2-x,1/2+y,z
x,1/2-y,1/2+z
loop_
_atom_site_type_symbol
_atom_site_label
_atom_site_fract_x
_atom_site_fract_y
_atom_site_fract_z
Si Si1 0.151206 0.955972 0.526673
Si Si2 0.992848 0.805715 0.399172
Si Si3 0.996584 0.114168 0.942867
Si Si4 0.124070 0.560212 0.402641
Si Si5 0.615117 0.149052 0.237540
Si Si6 0.571054 0.546230 0.681843
Si Si7 0.716433 0.158386 0.890010
O O1 0.250000 0.934177 0.500000
O O2 0.101241 0.966946 0.425687
O O3 0.084412 0.918952 0.580863
O O4 0.162408 0.006307 0.583006
O O5 0.021308 0.843992 0.481250
O O6 0.885166 0.818255 0.376294
O O7 0.000000 0.750000 0.430205
O O8 0.061304 0.816397 0.311096
O O9 0.951055 0.138117 0.852032
O O10 0.922078 0.080074 0.998395
O O11 0.200672 0.600137 0.379242
O O12 0.038501 0.559153 0.328126
O O13 0.624162 0.095334 0.286214
O O14 0.707978 0.170968 0.190344
O O15 0.584857 0.500000 0.750000
O O16 0.750000 0.167992 0.000000
#
# Coordination Sequence:
#
# PCOD9530335 Si02
#       7
#    16  16  16  16  16  16  16
#     4  11  22  36  58  91 136 179 221 268 336 402
#     4  11  25  47  70 100 132 165 225 288 342 405
#     4  10  21  43  64  89 135 172 212 280 337 390
#     4  10  19  39  61  90 128 178 221 265 315 399
#     4  12  22  42  73  95 131 176 220 282 337 394
#     4  11  22  37  57  94 131 175 222 275 328 392
#     4  11  22  43  72  95 129 178 224 264 329 412
#
# _framework density 20.303099
#
# number of rings (size 3 to 8) (size 9 to 14) (size 15 to 20)
#    0.000    1.143    7.143    3.857    2.000    2.286 
#    2.571    0.714    0.000    0.000    0.000    0.000 
#    0.000    0.000    0.000    0.000    0.000    0.000 
#
# Total GULP energy -312873.884469 kJ/mol
# GULP energy per Si atom -5587.033651 kJ/mol
# Density = 2.025689 g / cm^3
# Si number density = 20.303099 Si / 1000 Ang^3
#
#
#
# Elastic Constant Matrix: (Units=GPa)
#
#
# Indices 1 2 3 4 5 6 
#
# 1 68.1078 14.6909 4.7124 0.0001 0.0000 0.0000
# 2 14.6909 52.2261 8.5996 -0.0004 0.0000 0.0000
# 3 4.7124 8.5996 43.9233 -0.0005 0.0000 0.0000
# 4 0.0001 -0.0004 -0.0005 9.4471 0.0000 0.0000
# 5 0.0000 0.0000 0.0000 0.0000 27.7196 0.0000
# 6 0.0000 0.0000 0.0000 0.0000 0.0000 10.9404
#
#
#
# Elastic Compliance Matrix: (Units=1/GPa)
#
#
# Indices 1 2 3 4 5 6 
#
# 1 0.015661 -0.004266 -0.000845 0.000000 0.000000 0.000000
# 2 -0.004266 0.020948 -0.003644 0.000001 0.000000 0.000000
# 3 -0.000845 -0.003644 0.023571 0.000001 0.000000 0.000000
# 4 0.000000 0.000001 0.000001 0.105853 0.000000 0.000000
# 5 0.000000 0.000000 0.000000 0.000000 0.036076 0.000000
# 6 0.000000 0.000000 0.000000 0.000000 0.000000 0.091404
#
#
# Mechanical properties :
#
#
# Convention : Reuss Voigt Hill
#
# Bulk Modulus (GPa) = 23.43557 24.47368 23.95463
# Shear Modulus (GPa) = 15.37299 18.70503 17.03901
#
# Velocity S-wave (km/s) = 2.75467 3.03857 2.90009
# Velocity P-wave (km/s) = 4.65677 4.93871 4.79981
#
# Compressibility (1/GPa) = 0.04267018
#
# Stress axis : x y z
#
# Youngs Moduli (GPa) = 63.85157 47.73826 42.42510
#
# Poissons Ratio (x) = 0.20367 0.03585
# Poissons Ratio (y) = 0.27241 0.15458
# Poissons Ratio (z) = 0.05395 0.17394
#
# Static dielectric constant tensor:
#      x y z
#    x 1.750130 0.000000 0.000000 
#    y 0.000000 1.708050 0.000000 
#    z 0.000000 0.000000 1.739290 
# 
# From -- ./inp_files/17375.got.cif
#   From: 2010.05.17/outbox.cif.g08.bks.cpg/sg73_9_cif.got.tgz:17375.got - 2010.06.03 17:35:07.
