data_PCOD9530140
_publ_section_title
;
Structure prediction by ZEFSAII (Michael W. Deem and Ramdas Pophale) SiO2 
 PCOD9530140
Probable space group: I B C A 
;
_chemical_formula_sum "Si O2"
_cell_formula_units_Z 112
_cell_length_a 14.184356
_cell_length_b 14.137581
_cell_length_c 21.292369
_cell_angle_alpha 90.000000
_cell_angle_beta 90.000000
_cell_angle_gamma 90.000000
_cell_volume 4269.811601
_symmetry_space_group_name_H-M "I B C A "
_symmetry_group_IT_number 73
_symmetry_cell_setting 'orthorhombic'
loop_
_space_group_symop_operation_xyz
x,y,z
-x,1/2-y,z
x,-y,1/2-z
1/2-x,y,-z
-x,-y,-z
x,1/2+y,-z
-x,y,1/2+z
1/2+x,-y,z
1/2+x,1/2+y,1/2+z
1/2-x,-y,1/2+z
1/2+x,1/2-y,-z
-x,1/2+y,1/2-z
1/2-x,1/2-y,1/2-z
1/2+x,y,1/2-z
1/2-x,1/2+y,z
x,1/2-y,1/2+z
loop_
_atom_site_type_symbol
_atom_site_label
_atom_site_fract_x
_atom_site_fract_y
_atom_site_fract_z
Si Si1 0.490960 0.860621 0.107960
Si Si2 0.900760 0.887752 0.260078
Si Si3 0.289208 0.131903 0.430877
Si Si4 0.601188 0.354242 0.113653
Si Si5 0.900871 0.637515 0.121076
Si Si6 0.193711 0.148513 0.109730
Si Si7 0.311186 0.612697 0.255586
O O1 0.500000 0.750000 0.090181
O O2 0.470418 0.863194 0.183231
O O3 0.395495 0.904228 0.079418
O O4 0.594724 0.898210 0.089836
O O5 0.904102 0.849363 0.189541
O O6 0.793596 0.863675 0.280854
O O7 0.907978 0.000000 0.250000
O O8 0.250000 0.122793 0.500000
O O9 0.199411 0.090573 0.393282
O O10 0.299871 0.243857 0.414557
O O11 0.501005 0.401633 0.098051
O O12 0.601110 0.244148 0.093594
O O13 0.703066 0.394841 0.094942
O O14 0.892500 0.643084 0.196806
O O15 0.184845 0.152008 0.185375
O O16 0.317718 0.500000 0.250000
#
# Coordination Sequence:
#
# PCOD9530140 Si02
#       7
#    16  16  16  16  16  16  16
#     4  10  20  34  55  83 115 155 193 240 294 350
#     4  10  20  33  54  88 125 156 188 234 295 368
#     4  10  21  38  57  80 108 151 208 255 288 331
#     4   9  20  31  50  82 117 153 177 228 296 353
#     4  10  19  34  55  81 114 150 191 239 291 354
#     4   9  20  35  51  82 116 146 191 235 297 356
#     4  10  20  34  58  89 123 158 192 239 303 367
#
# _framework density 26.230664000000001
#
# number of rings (size 3 to 8) (size 9 to 14) (size 15 to 20)
#    0.000    2.286    1.429    0.857    6.000    4.000 
#   15.429    0.000    0.000    0.857    0.000    2.000 
#    0.000    0.000    0.000    0.000    0.000    0.000 
#
# Total GULP energy -312769.411238 kJ/mol
# GULP energy per Si atom -5585.168058 kJ/mol
# Density = 2.617096 g / cm^3
# Si number density = 26.230664 Si / 1000 Ang^3
#
#
#
# Elastic Constant Matrix: (Units=GPa)
#
#
# Indices 1 2 3 4 5 6 
#
# 1 319.5586 24.2640 9.3313 0.0000 0.0000 0.0000
# 2 24.2640 76.4534 -14.1729 0.0000 0.0000 0.0000
# 3 9.3313 -14.1729 32.4098 0.0000 0.0000 0.0000
# 4 0.0000 0.0000 0.0000 62.5444 0.0000 0.0000
# 5 0.0000 0.0000 0.0000 0.0000 12.8294 0.0000
# 6 0.0000 0.0000 0.0000 0.0000 0.0000 30.7212
#
#
#
# Elastic Compliance Matrix: (Units=1/GPa)
#
#
# Indices 1 2 3 4 5 6 
#
# 1 0.003274 -0.001321 -0.001520 0.000000 0.000000 0.000000
# 2 -0.001321 0.014767 0.006838 0.000000 0.000000 0.000000
# 3 -0.001520 0.006838 0.034283 0.000000 0.000000 0.000000
# 4 0.000000 0.000000 0.000000 0.015989 0.000000 0.000000
# 5 0.000000 0.000000 0.000000 0.000000 0.077946 0.000000
# 6 0.000000 0.000000 0.000000 0.000000 0.000000 0.032551
#
#
# Mechanical properties :
#
#
# Convention : Reuss Voigt Hill
#
# Bulk Modulus (GPa) = 16.57913 51.91851 34.24882
# Shear Modulus (GPa) = 26.18883 48.48561 37.33722
#
# Velocity S-wave (km/s) = 3.16318 4.30400 3.77692
# Velocity P-wave (km/s) = 4.43567 6.67348 5.66615
#
# Compressibility (1/GPa) = 0.06031679
#
# Stress axis : x y z
#
# Youngs Moduli (GPa) = 305.43635 67.72005 29.16914
#
# Poissons Ratio (x) = 0.08945 0.04435
# Poissons Ratio (y) = 0.40345 -0.19945
# Poissons Ratio (z) = 0.46435 -0.46306
#
# Static dielectric constant tensor:
#      x y z
#    x 2.171510 0.000000 0.000000 
#    y 0.000000 2.047570 0.000000 
#    z 0.000000 0.000000 2.149630 
# 
# From -- ./inp_files/29533.got.cif
#   From: 2010.05.17/outbox.cif.g08.bks.cpg/sg73_15_cif.got.tgz:29533.got - 2010.06.03 17:35:07.
