data_PCOD9530599
_publ_section_title
;
Structure prediction by ZEFSAII (Michael W. Deem and Ramdas Pophale) SiO2 
 PCOD9530599
Probable space group: I B C A 
;
_chemical_formula_sum "Si O2"
_cell_formula_units_Z 104
_cell_length_a 31.284647
_cell_length_b 18.501957
_cell_length_c 8.773991
_cell_angle_alpha 90.000000
_cell_angle_beta 90.000000
_cell_angle_gamma 90.000000
_cell_volume 5078.624587
_symmetry_space_group_name_H-M "I B C A "
_symmetry_group_IT_number 73
_symmetry_cell_setting 'orthorhombic'
loop_
_space_group_symop_operation_xyz
x,y,z
-x,1/2-y,z
x,-y,1/2-z
1/2-x,y,-z
-x,-y,-z
x,1/2+y,-z
-x,y,1/2+z
1/2+x,-y,z
1/2+x,1/2+y,1/2+z
1/2-x,-y,1/2+z
1/2+x,1/2-y,-z
-x,1/2+y,1/2-z
1/2-x,1/2-y,1/2-z
1/2+x,y,1/2-z
1/2-x,1/2+y,z
x,1/2-y,1/2+z
loop_
_atom_site_type_symbol
_atom_site_label
_atom_site_fract_x
_atom_site_fract_y
_atom_site_fract_z
Si Si1 0.439063 0.047854 0.983283
Si Si2 0.703252 0.450650 0.048955
Si Si3 0.992974 0.500000 0.750000
Si Si4 0.874450 0.049446 0.101404
Si Si5 0.830794 0.220534 0.893305
Si Si6 0.310744 0.346958 0.820362
Si Si7 0.637814 0.345840 0.898646
O O1 0.402888 0.106874 0.948680
O O2 0.475834 0.045116 0.858513
O O3 0.463678 0.050852 0.144229
O O4 0.413240 0.970818 0.991730
O O5 0.669579 0.515847 0.036641
O O6 0.706763 0.412350 0.216048
O O7 0.750000 0.471874 0.000000
O O8 0.680688 0.389896 0.944568
O O9 0.861023 0.128100 0.158627
O O10 0.881807 0.000000 0.250000
O O11 0.806056 0.275374 0.781258
O O12 0.858838 0.171625 0.780087
O O13 0.800733 0.174588 0.006223
O O14 0.858703 0.272976 0.001690
#
# Coordination Sequence:
#
# PCOD9530599 Si02
#       7
#    16  16   8  16  16  16  16
#     4  10  20  36  56  87 111 144 179 236 292 347
#     4   9  18  35  56  83 114 145 184 240 289 338
#     4  10  22  34  56  90 114 136 180 234 304 346
#     4   9  17  33  59  80 108 148 182 227 294 347
#     4   9  18  34  55  83 102 153 197 224 268 335
#     4   9  18  33  54  79 108 145 190 228 273 327
#     4   9  19  36  57  80 114 146 195 228 277 339
#
# _framework density 20.477985
#
# number of rings (size 3 to 8) (size 9 to 14) (size 15 to 20)
#    0.000    2.769    0.769    0.923    2.154    0.000 
#    0.000   17.692    0.000    3.692    0.000    0.000 
#    0.000    0.000    0.000    0.000    0.000    0.000 
#
# Total GULP energy -289529.250940 kJ/mol
# GULP energy per Si atom -5567.870210 kJ/mol
# Density = 2.043138 g / cm^3
# Si number density = 20.477985 Si / 1000 Ang^3
#
#
#
# Elastic Constant Matrix: (Units=GPa)
#
#
# Indices 1 2 3 4 5 6 
#
# 1 110.6172 6.2524 30.6563 0.0000 0.0000 0.0000
# 2 6.2524 43.7187 13.9659 0.0000 0.0000 0.0000
# 3 30.6563 13.9659 112.3377 0.0000 0.0000 0.0000
# 4 0.0000 0.0000 0.0000 25.2594 0.0000 0.0000
# 5 0.0000 0.0000 0.0000 0.0000 23.8348 0.0000
# 6 0.0000 0.0000 0.0000 0.0000 0.0000 1.1927
#
#
#
# Elastic Compliance Matrix: (Units=1/GPa)
#
#
# Indices 1 2 3 4 5 6 
#
# 1 0.009793 -0.000569 -0.002602 0.000000 0.000000 0.000000
# 2 -0.000569 0.023853 -0.002810 0.000000 0.000000 0.000000
# 3 -0.002602 -0.002810 0.009961 0.000000 0.000000 0.000000
# 4 0.000000 0.000000 0.000000 0.039589 0.000000 0.000000
# 5 0.000000 0.000000 0.000000 0.000000 0.041955 0.000000
# 6 0.000000 0.000000 0.000000 0.000000 0.000000 0.838420
#
#
# Mechanical properties :
#
#
# Convention : Reuss Voigt Hill
#
# Bulk Modulus (GPa) = 31.60090 40.93588 36.26839
# Shear Modulus (GPa) = 5.07057 24.44398 14.75727
#
# Velocity S-wave (km/s) = 1.57527 3.45870 2.68739
# Velocity P-wave (km/s) = 4.33287 5.99865 5.23247
#
# Compressibility (1/GPa) = 0.03164466
#
# Stress axis : x y z
#
# Youngs Moduli (GPa) = 102.10934 41.92420 100.39079
#
# Poissons Ratio (x) = 0.02387 0.26119
# Poissons Ratio (y) = 0.05815 0.28209
# Poissons Ratio (z) = 0.26567 0.11781
#
# Static dielectric constant tensor:
#      x y z
#    x 1.727880 0.000000 0.000000 
#    y 0.000000 1.804220 0.000000 
#    z 0.000000 0.000000 1.842350 
# 
# From -- ./inp_files/8482.got.cif
#   From: 2010.05.17/outbox.cif.g08.bks.cpg/sg73_5_cif.got.tgz:8482.got - 2010.06.03 17:35:07.
