data_PCOD9530231
_publ_section_title
;
Structure prediction by ZEFSAII (Michael W. Deem and Ramdas Pophale) SiO2 
 PCOD9530231
Probable space group: I B C A 
;
_chemical_formula_sum "Si O2"
_cell_formula_units_Z 88
_cell_length_a 8.626804
_cell_length_b 14.240695
_cell_length_c 28.574623
_cell_angle_alpha 90.000000
_cell_angle_beta 90.000000
_cell_angle_gamma 90.000000
_cell_volume 3510.440572
_symmetry_space_group_name_H-M "I B C A "
_symmetry_group_IT_number 73
_symmetry_cell_setting 'orthorhombic'
loop_
_space_group_symop_operation_xyz
x,y,z
-x,1/2-y,z
x,-y,1/2-z
1/2-x,y,-z
-x,-y,-z
x,1/2+y,-z
-x,y,1/2+z
1/2+x,-y,z
1/2+x,1/2+y,1/2+z
1/2-x,-y,1/2+z
1/2+x,1/2-y,-z
-x,1/2+y,1/2-z
1/2-x,1/2-y,1/2-z
1/2+x,y,1/2-z
1/2-x,1/2+y,z
x,1/2-y,1/2+z
loop_
_atom_site_type_symbol
_atom_site_label
_atom_site_fract_x
_atom_site_fract_y
_atom_site_fract_z
Si Si1 0.488326 0.155135 0.907837
Si Si2 0.856597 0.111730 0.738623
Si Si3 0.668334 0.125298 0.820917
Si Si4 0.183166 0.593425 0.149180
Si Si5 0.250000 0.505201 0.000000
Si Si6 0.497669 0.556297 0.935546
O O1 0.500000 0.250000 0.937550
O O2 0.617054 0.176973 0.867565
O O3 0.327551 0.126544 0.882216
O O4 0.526317 0.056412 0.930675
O O5 0.812441 0.154286 0.788796
O O6 0.722244 0.133784 0.700426
O O7 0.018826 0.131351 0.713511
O O8 0.856338 0.000000 0.750000
O O9 0.688321 0.017999 0.838697
O O10 0.033308 0.602582 0.115130
O O11 0.138676 0.575974 0.028333
O O12 0.342524 0.440368 0.036962
#
# Coordination Sequence:
#
# PCOD9530231 Si02
#       6
#    16  16  16  16   8  16
#     4  10  20  36  56  83 116 156 190 237 293 347
#     4   9  15  27  47  80 105 140 191 245 270 317
#     4   9  18  30  51  78 107 146 195 235 279 328
#     4   9  17  31  53  79 110 151 191 231 283 344
#     4  10  20  34  62  90 112 138 196 240 294 344
#     4  10  19  36  58  90 111 149 188 241 289 350
#
# _framework density 25.068079000000001
#
# number of rings (size 3 to 8) (size 9 to 14) (size 15 to 20)
#    0.000    2.545    1.818    1.636    0.000    1.455 
#    0.000    4.545    0.000    0.000    0.000    0.000 
#    0.000    0.000    0.000    0.000    0.000    0.000 
#
# Total GULP energy -245203.070262 kJ/mol
# GULP energy per Si atom -5572.797051 kJ/mol
# Density = 2.501102 g / cm^3
# Si number density = 25.068079 Si / 1000 Ang^3
#
#
#
# Elastic Constant Matrix: (Units=GPa)
#
#
# Indices 1 2 3 4 5 6 
#
# 1 85.0256 10.0801 32.7519 0.0000 0.0000 0.0000
# 2 10.0801 77.0726 -6.2997 0.0000 0.0000 0.0000
# 3 32.7519 -6.2997 72.9931 0.0000 0.0000 0.0000
# 4 0.0000 0.0000 0.0000 2.7456 0.0000 0.0000
# 5 0.0000 0.0000 0.0000 0.0000 51.4280 0.0000
# 6 0.0000 0.0000 0.0000 0.0000 0.0000 -15.3249
#
#
#
# Elastic Compliance Matrix: (Units=1/GPa)
#
#
# Indices 1 2 3 4 5 6 
#
# 1 0.014673 -0.002475 -0.006797 0.000000 0.000000 0.000000
# 2 -0.002475 0.013484 0.002274 0.000000 0.000000 0.000000
# 3 -0.006797 0.002274 0.016946 0.000000 0.000000 0.000000
# 4 0.000000 0.000000 0.000000 0.364222 0.000000 0.000000
# 5 0.000000 0.000000 0.000000 0.000000 0.019445 0.000000
# 6 0.000000 0.000000 0.000000 0.000000 0.000000 -0.065253
#
#
# Mechanical properties :
#
#
# Convention : Reuss Voigt Hill
#
# Bulk Modulus (GPa) = 32.14631 34.23956 33.19294
# Shear Modulus (GPa) = 12.89054 21.00699 16.94876
#
# Velocity S-wave (km/s) = 2.27010 2.89796 2.60303
# Velocity P-wave (km/s) = 4.44101 4.98857 4.72273
#
# Compressibility (1/GPa) = 0.03110776
#
# Stress axis : x y z
#
# Youngs Moduli (GPa) = 68.15316 74.16030 59.01059
#
# Poissons Ratio (x) = 0.18352 0.40111
# Poissons Ratio (y) = 0.16865 -0.13420
# Poissons Ratio (z) = 0.46325 -0.16865
#
# Static dielectric constant tensor:
#      x y z
#    x 2.095760 0.000000 0.000000 
#    y 0.000000 2.042550 0.000000 
#    z 0.000000 0.000000 2.046840 
# 
# From -- ./inp_files/33536.got.cif
#   From: 2010.05.17/outbox.cif.g08.bks.cpg/sg73_17_cif.got.tgz:33536.got - 2010.06.03 17:35:07.
