data_PCOD9530570
_publ_section_title
;
Structure prediction by ZEFSAII (Michael W. Deem and Ramdas Pophale) SiO2 
 PCOD9530570
Probable space group: I B C A 
;
_chemical_formula_sum "Si O2"
_cell_formula_units_Z 96
_cell_length_a 9.520829
_cell_length_b 20.111711
_cell_length_c 23.402379
_cell_angle_alpha 90.000000
_cell_angle_beta 90.000000
_cell_angle_gamma 90.000000
_cell_volume 4481.091306
_symmetry_space_group_name_H-M "I B C A "
_symmetry_group_IT_number 73
_symmetry_cell_setting 'orthorhombic'
loop_
_space_group_symop_operation_xyz
x,y,z
-x,1/2-y,z
x,-y,1/2-z
1/2-x,y,-z
-x,-y,-z
x,1/2+y,-z
-x,y,1/2+z
1/2+x,-y,z
1/2+x,1/2+y,1/2+z
1/2-x,-y,1/2+z
1/2+x,1/2-y,-z
-x,1/2+y,1/2-z
1/2-x,1/2-y,1/2-z
1/2+x,y,1/2-z
1/2-x,1/2+y,z
x,1/2-y,1/2+z
loop_
_atom_site_type_symbol
_atom_site_label
_atom_site_fract_x
_atom_site_fract_y
_atom_site_fract_z
Si Si1 0.750000 0.810915 0.000000
Si Si2 0.441924 0.442977 0.926016
Si Si3 0.034377 0.384501 0.197215
Si Si4 0.729363 0.070297 0.585258
Si Si5 0.500000 0.250000 0.856413
Si Si6 0.238849 0.931040 0.720119
Si Si7 0.097599 0.200216 0.531347
O O1 0.717025 0.858775 0.945525
O O2 0.925255 0.792184 0.985266
O O3 0.410565 0.420325 0.860313
O O4 0.368989 0.512489 0.939116
O O5 0.609551 0.450168 0.925071
O O6 0.398405 0.380952 0.965622
O O7 0.157830 0.376593 0.242500
O O8 0.964716 0.314350 0.179464
O O9 0.906069 0.424978 0.223862
O O10 0.703249 0.073914 0.653206
O O11 0.385591 0.278511 0.901217
O O12 0.195681 0.000000 0.750000
O O13 0.250000 0.220289 0.500000
#
# Coordination Sequence:
#
# PCOD9530570 Si02
#       7
#     8  16  16  16   8  16  16
#     4  12  22  42  66  86 124 164 214 268 312 388
#     4  10  21  42  62  93 123 164 211 262 320 386
#     4  10  20  35  61  89 119 161 202 255 313 375
#     4  11  24  39  64  95 129 163 216 268 320 377
#     4   8  18  40  62  80 120 162 210 252 314 384
#     4  11  21  35  62  90 125 162 202 256 316 377
#     4   9  18  40  66  82 114 172 210 245 320 382
#
# _framework density 21.423352999999999
#
# number of rings (size 3 to 8) (size 9 to 14) (size 15 to 20)
#    0.500    1.333    3.333    1.500    2.333    2.000 
#    3.000    0.000    1.833    0.000    0.000    0.000 
#    0.000    0.000    0.000    0.000    0.000    0.000 
#
# Total GULP energy -267393.720020 kJ/mol
# GULP energy per Si atom -5570.702500 kJ/mol
# Density = 2.137459 g / cm^3
# Si number density = 21.423353 Si / 1000 Ang^3
#
#
#
# Elastic Constant Matrix: (Units=GPa)
#
#
# Indices 1 2 3 4 5 6 
#
# 1 94.0538 57.9274 57.3922 0.0000 0.0000 0.0000
# 2 57.9274 124.1755 38.8262 0.0000 0.0000 0.0000
# 3 57.3922 38.8262 100.1342 0.0000 0.0000 0.0000
# 4 0.0000 0.0000 0.0000 29.8737 0.0000 0.0000
# 5 0.0000 0.0000 0.0000 0.0000 30.5919 0.0000
# 6 0.0000 0.0000 0.0000 0.0000 0.0000 50.1524
#
#
#
# Elastic Compliance Matrix: (Units=1/GPa)
#
#
# Indices 1 2 3 4 5 6 
#
# 1 0.020203 -0.006605 -0.009019 0.000000 0.000000 0.000000
# 2 -0.006605 0.011323 -0.000605 0.000000 0.000000 0.000000
# 3 -0.009019 -0.000605 0.015390 0.000000 0.000000 0.000000
# 4 0.000000 0.000000 0.000000 0.033474 0.000000 0.000000
# 5 0.000000 0.000000 0.000000 0.000000 0.032688 0.000000
# 6 0.000000 0.000000 0.000000 0.000000 0.000000 0.019939
#
#
# Mechanical properties :
#
#
# Convention : Reuss Voigt Hill
#
# Bulk Modulus (GPa) = 69.15601 69.62833 69.39217
# Shear Modulus (GPa) = 29.36067 33.07145 31.21606
#
# Velocity S-wave (km/s) = 3.70604 3.93327 3.82134
# Velocity P-wave (km/s) = 7.11785 7.29378 7.20635
#
# Compressibility (1/GPa) = 0.01446006
#
# Stress axis : x y z
#
# Youngs Moduli (GPa) = 49.49673 88.31245 64.97640
#
# Poissons Ratio (x) = 0.58330 0.58600
# Poissons Ratio (y) = 0.32692 0.03931
# Poissons Ratio (z) = 0.44639 0.05342
#
# Static dielectric constant tensor:
#      x y z
#    x 1.786280 0.000000 0.000000 
#    y 0.000000 1.887650 0.000000 
#    z 0.000000 0.000000 1.792650 
# 
# From -- ./inp_files/7276.got.cif
#   From: 2010.05.17/outbox.cif.g08.bks.cpg/sg73_4_cif.got.tgz:7276.got - 2010.06.03 17:35:07.
