data_PCOD9530352
_publ_section_title
;
Structure prediction by ZEFSAII (Michael W. Deem and Ramdas Pophale) SiO2 
 PCOD9530352
Probable space group: I B C A 
;
_chemical_formula_sum "Si O2"
_cell_formula_units_Z 120
_cell_length_a 17.097639
_cell_length_b 14.808758
_cell_length_c 21.208855
_cell_angle_alpha 90.000000
_cell_angle_beta 90.000000
_cell_angle_gamma 90.000000
_cell_volume 5369.971764
_symmetry_space_group_name_H-M "I B C A "
_symmetry_group_IT_number 73
_symmetry_cell_setting 'orthorhombic'
loop_
_space_group_symop_operation_xyz
x,y,z
-x,1/2-y,z
x,-y,1/2-z
1/2-x,y,-z
-x,-y,-z
x,1/2+y,-z
-x,y,1/2+z
1/2+x,-y,z
1/2+x,1/2+y,1/2+z
1/2-x,-y,1/2+z
1/2+x,1/2-y,-z
-x,1/2+y,1/2-z
1/2-x,1/2-y,1/2-z
1/2+x,y,1/2-z
1/2-x,1/2+y,z
x,1/2-y,1/2+z
loop_
_atom_site_type_symbol
_atom_site_label
_atom_site_fract_x
_atom_site_fract_y
_atom_site_fract_z
Si Si1 0.361730 0.077219 0.898195
Si Si2 0.544915 0.403088 0.366706
Si Si3 0.114846 0.000000 0.750000
Si Si4 0.908036 0.264700 0.941583
Si Si5 0.210107 0.695406 0.656631
Si Si6 0.653499 0.719277 0.073338
Si Si7 0.088669 0.476034 0.477572
Si Si8 0.240369 0.114524 0.213886
O O1 0.453581 0.088815 0.881750
O O2 0.330836 0.173801 0.922331
O O3 0.314062 0.060510 0.834800
O O4 0.359588 0.012643 0.959230
O O5 0.563816 0.443580 0.299001
O O6 0.581426 0.305245 0.380301
O O7 0.595866 0.460654 0.417367
O O8 0.174941 0.931214 0.716976
O O9 0.868065 0.226672 0.878625
O O10 0.899407 0.372539 0.954273
O O11 0.000000 0.250000 0.940250
O O12 0.872802 0.209763 0.001196
O O13 0.271462 0.668977 0.601801
O O14 0.206382 0.627294 0.715450
O O15 0.248011 0.785322 0.686897
O O16 0.000000 0.500000 0.500000
#
# Coordination Sequence:
#
# PCOD9530352 Si02
#       8
#    16  16   8  16  16  16  16  16
#     4   9  20  39  66  89 115 162 210 261 306 376
#     4  11  21  39  62  94 119 163 204 262 320 375
#     4  12  24  40  58  86 134 164 204 256 322 388
#     4  11  21  37  61  95 124 158 208 267 310 366
#     4  10  21  41  61  85 121 169 208 255 306 378
#     4  10  19  39  66  88 119 159 212 251 315 377
#     4   9  19  38  61  91 127 154 199 263 321 364
#     4  10  22  43  59  83 124 169 209 250 313 388
#
# _framework density 22.346485999999999
#
# number of rings (size 3 to 8) (size 9 to 14) (size 15 to 20)
#    0.000    1.867    1.333    4.000    0.000    0.533 
#   12.000    2.000    0.000    0.000    0.000    0.000 
#    0.000    0.000    0.000    0.000    0.000    0.000 
#
# Total GULP energy -334748.734957 kJ/mol
# GULP energy per Si atom -5579.145583 kJ/mol
# Density = 2.229562 g / cm^3
# Si number density = 22.346486 Si / 1000 Ang^3
#
#
#
# Elastic Constant Matrix: (Units=GPa)
#
#
# Indices 1 2 3 4 5 6 
#
# 1 34.0149 -17.2838 39.3468 0.0000 0.0000 0.0000
# 2 -17.2838 32.4408 7.7461 0.0000 0.0000 0.0000
# 3 39.3468 7.7461 124.7051 0.0000 0.0000 0.0000
# 4 0.0000 0.0000 0.0000 23.8451 0.0000 0.0000
# 5 0.0000 0.0000 0.0000 0.0000 150.8399 0.0000
# 6 0.0000 0.0000 0.0000 0.0000 0.0000 15.3340
#
#
#
# Elastic Compliance Matrix: (Units=1/GPa)
#
#
# Indices 1 2 3 4 5 6 
#
# 1 0.106126 0.065509 -0.037554 0.000000 0.000000 0.000000
# 2 0.065509 0.071726 -0.025124 0.000000 0.000000 0.000000
# 3 -0.037554 -0.025124 0.021428 0.000000 0.000000 0.000000
# 4 0.000000 0.000000 0.000000 0.041937 0.000000 0.000000
# 5 0.000000 0.000000 0.000000 0.000000 0.006630 0.000000
# 6 0.000000 0.000000 0.000000 0.000000 0.000000 0.065214
#
#
# Mechanical properties :
#
#
# Convention : Reuss Voigt Hill
#
# Bulk Modulus (GPa) = 4.87945 27.86433 16.37189
# Shear Modulus (GPa) = 13.30796 48.76059 31.03428
#
# Velocity S-wave (km/s) = 2.44299 4.67628 3.73067
# Velocity P-wave (km/s) = 3.18526 6.45392 5.08916
#
# Compressibility (1/GPa) = 0.20494129
#
# Stress axis : x y z
#
# Youngs Moduli (GPa) = 9.42277 13.94192 46.66694
#
# Poissons Ratio (x) = -0.91332 1.75252
# Poissons Ratio (y) = -0.61727 1.17248
# Poissons Ratio (z) = 0.35386 0.35028
#
# Static dielectric constant tensor:
#      x y z
#    x 1.804940 0.000000 0.000000 
#    y 0.000000 1.957110 0.000000 
#    z 0.000000 0.000000 1.854990 
# 
# From -- ./inp_files/26654.got.cif
#   From: 2010.05.17/outbox.cif.g08.bks.cpg/sg73_14_cif.got.tgz:26654.got - 2010.06.03 17:35:07.
