data_PCOD9530805
_publ_section_title
;
Structure prediction by ZEFSAII (Michael W. Deem and Ramdas Pophale) SiO2 
 PCOD9530805
Probable space group: I B C A 
;
_chemical_formula_sum "Si O2"
_cell_formula_units_Z 72
_cell_length_a 5.313802
_cell_length_b 27.659361
_cell_length_c 22.415059
_cell_angle_alpha 90.000000
_cell_angle_beta 90.000000
_cell_angle_gamma 90.000000
_cell_volume 3294.483956
_symmetry_space_group_name_H-M "I B C A "
_symmetry_group_IT_number 73
_symmetry_cell_setting 'orthorhombic'
loop_
_space_group_symop_operation_xyz
x,y,z
-x,1/2-y,z
x,-y,1/2-z
1/2-x,y,-z
-x,-y,-z
x,1/2+y,-z
-x,y,1/2+z
1/2+x,-y,z
1/2+x,1/2+y,1/2+z
1/2-x,-y,1/2+z
1/2+x,1/2-y,-z
-x,1/2+y,1/2-z
1/2-x,1/2-y,1/2-z
1/2+x,y,1/2-z
1/2-x,1/2+y,z
x,1/2-y,1/2+z
loop_
_atom_site_type_symbol
_atom_site_label
_atom_site_fract_x
_atom_site_fract_y
_atom_site_fract_z
Si Si1 0.248264 0.728679 0.683379
Si Si2 0.582553 0.480160 0.682455
Si Si3 0.679781 0.857941 0.066657
Si Si4 0.500000 0.250000 0.464248
Si Si5 0.308955 0.123955 0.640911
O O1 0.500000 0.750000 0.655901
O O2 0.250000 0.750000 0.750000
O O3 0.244457 0.671319 0.681007
O O4 0.000000 0.750000 0.652983
O O5 0.554435 0.500000 0.750000
O O6 0.812501 0.509536 0.653685
O O7 0.652230 0.424139 0.679385
O O8 0.603204 0.801551 0.060763
O O9 0.433131 0.881435 0.097616
O O10 0.931051 0.865389 0.106003
O O11 0.750000 0.875176 0.000000
O O12 0.750000 0.267243 0.500000
#
# Coordination Sequence:
#
# PCOD9530805 Si02
#       5
#    16  16  16   8  16
#     4  10  23  39  57  89 134 172 211 257 320 400
#     4  10  23  43  70  97 128 163 227 284 337 407
#     4  11  24  41  64  95 136 179 229 272 317 390
#     4  10  20  38  60  90 132 182 228 270 308 366
#     4  12  24  40  68  96 131 180 219 272 345 389
#
# _framework density 21.854713
#
# number of rings (size 3 to 8) (size 9 to 14) (size 15 to 20)
#    0.000    1.333    0.000    6.000    4.667    7.111 
#    0.000    0.000    0.000   13.333    0.000    0.000 
#    0.000    0.000    0.000    0.000    0.000    0.000 
#
# Total GULP energy -200902.844038 kJ/mol
# GULP energy per Si atom -5580.634557 kJ/mol
# Density = 2.180497 g / cm^3
# Si number density = 21.854713 Si / 1000 Ang^3
#
#
#
# Elastic Constant Matrix: (Units=GPa)
#
#
# Indices 1 2 3 4 5 6 
#
# 1 187.5717 12.9265 23.7659 0.0000 0.0000 0.0000
# 2 12.9265 111.5332 31.4954 0.0000 0.0000 0.0000
# 3 23.7659 31.4954 68.8231 0.0000 0.0000 0.0000
# 4 0.0000 0.0000 0.0000 23.6914 0.0000 0.0000
# 5 0.0000 0.0000 0.0000 0.0000 18.9601 0.0000
# 6 0.0000 0.0000 0.0000 0.0000 0.0000 57.4071
#
#
#
# Elastic Compliance Matrix: (Units=1/GPa)
#
#
# Indices 1 2 3 4 5 6 
#
# 1 0.005577 -0.000118 -0.001872 0.000000 0.000000 0.000000
# 2 -0.000118 0.010299 -0.004672 0.000000 0.000000 0.000000
# 3 -0.001872 -0.004672 0.017315 0.000000 0.000000 0.000000
# 4 0.000000 0.000000 0.000000 0.042209 0.000000 0.000000
# 5 0.000000 0.000000 0.000000 0.000000 0.052742 0.000000
# 6 0.000000 0.000000 0.000000 0.000000 0.000000 0.017419
#
#
# Mechanical properties :
#
#
# Convention : Reuss Voigt Hill
#
# Bulk Modulus (GPa) = 50.33679 56.03373 53.18526
# Shear Modulus (GPa) = 30.21010 39.99440 35.10225
#
# Velocity S-wave (km/s) = 3.72198 4.28251 4.01205
# Velocity P-wave (km/s) = 6.44619 7.08153 6.77131
#
# Compressibility (1/GPa) = 0.01986619
#
# Stress axis : x y z
#
# Youngs Moduli (GPa) = 179.32160 97.09662 57.75461
#
# Poissons Ratio (x) = 0.01143 0.10811
# Poissons Ratio (y) = 0.02111 0.26986
# Poissons Ratio (z) = 0.33566 0.45368
#
# Static dielectric constant tensor:
#      x y z
#    x 1.999710 0.000000 0.000000 
#    y 0.000000 1.758240 0.000000 
#    z 0.000000 0.000000 1.199420 
# 
# From -- ./inp_files/28013.got.cif
#   From: 2010.05.17/outbox.cif.g08.bks.cpg/sg73_15_cif.got.tgz:28013.got - 2010.06.03 17:35:07.
