data_PCOD9530560
_publ_section_title
;
Structure prediction by ZEFSAII (Michael W. Deem and Ramdas Pophale) SiO2 
 PCOD9530560
Probable space group: I B C A 
;
_chemical_formula_sum "Si O2"
_cell_formula_units_Z 112
_cell_length_a 14.113484
_cell_length_b 24.080847
_cell_length_c 14.369977
_cell_angle_alpha 90.000000
_cell_angle_beta 90.000000
_cell_angle_gamma 90.000000
_cell_volume 4883.847187
_symmetry_space_group_name_H-M "I B C A "
_symmetry_group_IT_number 73
_symmetry_cell_setting 'orthorhombic'
loop_
_space_group_symop_operation_xyz
x,y,z
-x,1/2-y,z
x,-y,1/2-z
1/2-x,y,-z
-x,-y,-z
x,1/2+y,-z
-x,y,1/2+z
1/2+x,-y,z
1/2+x,1/2+y,1/2+z
1/2-x,-y,1/2+z
1/2+x,1/2-y,-z
-x,1/2+y,1/2-z
1/2-x,1/2-y,1/2-z
1/2+x,y,1/2-z
1/2-x,1/2+y,z
x,1/2-y,1/2+z
loop_
_atom_site_type_symbol
_atom_site_label
_atom_site_fract_x
_atom_site_fract_y
_atom_site_fract_z
Si Si1 0.393804 0.774105 0.052412
Si Si2 0.748119 0.913721 0.247052
Si Si3 0.437846 0.305398 0.141188
Si Si4 0.409585 0.106705 0.372408
Si Si5 0.078931 0.969642 0.343559
Si Si6 0.802066 0.297977 0.193185
Si Si7 0.100938 0.083012 0.419900
O O1 0.500000 0.750000 0.047345
O O2 0.397545 0.826559 0.123246
O O3 0.329961 0.726201 0.094569
O O4 0.368200 0.792739 0.947240
O O5 0.850670 0.922909 0.290918
O O6 0.688209 0.953279 0.178830
O O7 0.754493 0.854799 0.195277
O O8 0.681663 0.910090 0.340432
O O9 0.500000 0.250000 0.146100
O O10 0.393462 0.310493 0.242711
O O11 0.472167 0.367028 0.109051
O O12 0.516639 0.084016 0.366554
O O13 0.370026 0.091352 0.474104
O O14 0.043951 0.000000 0.250000
O O15 0.068950 0.019496 0.415281
O O16 0.750000 0.250000 0.250000
#
# Coordination Sequence:
#
# PCOD9530560 Si02
#       7
#    16  16  16  16  16  16  16
#     4  10  20  35  58  89 117 156 202 247 302 366
#     4  10  21  38  57  89 121 155 204 250 297 366
#     4   9  20  36  59  86 118 154 196 250 299 365
#     4  11  20  37  63  87 116 160 206 244 307 367
#     4  10  22  37  57  88 119 156 196 258 302 353
#     4  11  20  34  54  86 118 156 196 243 297 359
#     4   9  20  38  61  87 117 154 201 253 304 363
#
# _framework density 22.932739999999999
#
# number of rings (size 3 to 8) (size 9 to 14) (size 15 to 20)
#    0.000    2.000    1.429    2.143    0.000    4.571 
#    0.000    0.000    0.000    0.000   14.857    0.000 
#    0.000    0.000    0.000    0.000    0.000    0.000 
#
# Total GULP energy -312139.730137 kJ/mol
# GULP energy per Si atom -5573.923752 kJ/mol
# Density = 2.288054 g / cm^3
# Si number density = 22.932740 Si / 1000 Ang^3
#
#
#
# Elastic Constant Matrix: (Units=GPa)
#
#
# Indices 1 2 3 4 5 6 
#
# 1 39.0350 23.0486 3.8336 0.0001 0.0000 0.0000
# 2 23.0486 124.9085 21.4538 -0.0003 0.0000 0.0000
# 3 3.8336 21.4538 57.9137 -0.0004 0.0000 0.0001
# 4 0.0001 -0.0003 -0.0004 30.8660 0.0000 0.0001
# 5 0.0000 0.0000 0.0000 0.0000 14.3982 0.0000
# 6 0.0000 0.0000 0.0001 0.0001 0.0000 23.5083
#
#
#
# Elastic Compliance Matrix: (Units=1/GPa)
#
#
# Indices 1 2 3 4 5 6 
#
# 1 0.028751 -0.005317 0.000066 0.000000 0.000000 0.000000
# 2 -0.005317 0.009533 -0.003180 0.000000 0.000000 0.000000
# 3 0.000066 -0.003180 0.018441 0.000000 0.000000 0.000000
# 4 0.000000 0.000000 0.000000 0.032398 0.000000 0.000000
# 5 0.000000 0.000000 0.000000 0.000000 0.069453 0.000000
# 6 0.000000 0.000000 0.000000 0.000000 0.000000 0.042538
#
#
# Mechanical properties :
#
#
# Convention : Reuss Voigt Hill
#
# Bulk Modulus (GPa) = 25.08483 35.39214 30.23848
# Shear Modulus (GPa) = 21.62054 25.32257 23.47156
#
# Velocity S-wave (km/s) = 3.07380 3.32657 3.20268
# Velocity P-wave (km/s) = 4.85385 5.49739 5.18561
#
# Compressibility (1/GPa) = 0.03986474
#
# Stress axis : x y z
#
# Youngs Moduli (GPa) = 34.78169 104.89872 54.22844
#
# Poissons Ratio (x) = 0.55771 -0.00360
# Poissons Ratio (y) = 0.18492 0.17242
# Poissons Ratio (z) = -0.00231 0.33353
#
# Static dielectric constant tensor:
#      x y z
#    x 1.911090 0.000000 0.000000 
#    y 0.000000 2.000060 0.000000 
#    z 0.000000 0.000000 1.863390 
# 
# From -- ./inp_files/17268.got.cif
#   From: 2010.05.17/outbox.cif.g08.bks.cpg/sg73_9_cif.got.tgz:17268.got - 2010.06.03 17:35:07.
