data_PCOD9530678
_publ_section_title
;
Structure prediction by ZEFSAII (Michael W. Deem and Ramdas Pophale) SiO2 
 PCOD9530678
Probable space group: I B C A 
;
_chemical_formula_sum "Si O2"
_cell_formula_units_Z 88
_cell_length_a 10.935805
_cell_length_b 27.365374
_cell_length_c 13.995576
_cell_angle_alpha 90.000000
_cell_angle_beta 90.000000
_cell_angle_gamma 90.000000
_cell_volume 4188.349577
_symmetry_space_group_name_H-M "I B C A "
_symmetry_group_IT_number 73
_symmetry_cell_setting 'orthorhombic'
loop_
_space_group_symop_operation_xyz
x,y,z
-x,1/2-y,z
x,-y,1/2-z
1/2-x,y,-z
-x,-y,-z
x,1/2+y,-z
-x,y,1/2+z
1/2+x,-y,z
1/2+x,1/2+y,1/2+z
1/2-x,-y,1/2+z
1/2+x,1/2-y,-z
-x,1/2+y,1/2-z
1/2-x,1/2-y,1/2-z
1/2+x,y,1/2-z
1/2-x,1/2+y,z
x,1/2-y,1/2+z
loop_
_atom_site_type_symbol
_atom_site_label
_atom_site_fract_x
_atom_site_fract_y
_atom_site_fract_z
Si Si1 0.109259 0.155210 0.501010
Si Si2 0.286986 0.185494 0.113848
Si Si3 0.476815 0.401277 0.654893
Si Si4 0.381080 0.032680 0.011386
Si Si5 0.070489 0.617613 0.856129
Si Si6 0.500000 0.750000 0.408341
O O1 0.250000 0.166491 0.500000
O O2 0.078427 0.113312 0.423700
O O3 0.056193 0.137343 0.600832
O O4 0.035468 0.203445 0.471248
O O5 0.381157 0.143102 0.145347
O O6 0.160731 0.164155 0.157108
O O7 0.370235 0.233179 0.139991
O O8 0.250000 0.188294 0.000000
O O9 0.399162 0.446444 0.617488
O O10 0.540496 0.406627 0.755799
O O11 0.381395 0.078700 0.935913
O O12 0.250000 0.007637 0.000000
O O13 0.500000 0.000000 0.000000
#
# Coordination Sequence:
#
# PCOD9530678 Si02
#       6
#    16  16  16  16  16   8
#     4  10  22  36  57  92 123 159 221 266 315 384
#     4  11  18  42  66  84 128 173 223 258 330 387
#     4  10  22  40  65  91 121 176 211 258 333 396
#     4  11  23  45  69  98 132 169 218 275 333 400
#     4  11  22  41  68  89 127 180 211 263 337 403
#     4  10  20  36  64  88 118 178 214 270 320 380
#
# _framework density 21.010662
#
# number of rings (size 3 to 8) (size 9 to 14) (size 15 to 20)
#    0.000    1.455    7.273    0.545    2.545    3.636 
#    0.000    9.091    0.000    0.000    0.000    0.000 
#    0.000    0.000    0.000    0.000    0.000    0.000 
#
# Total GULP energy -244949.194931 kJ/mol
# GULP energy per Si atom -5567.027158 kJ/mol
# Density = 2.096284 g / cm^3
# Si number density = 21.010662 Si / 1000 Ang^3
#
#
#
# Elastic Constant Matrix: (Units=GPa)
#
#
# Indices 1 2 3 4 5 6 
#
# 1 132.9599 17.0207 28.7093 0.0000 0.0000 0.0000
# 2 17.0207 33.2028 -0.1760 0.0000 0.0000 -0.0002
# 3 28.7093 -0.1760 77.5072 0.0000 -0.0002 -0.0014
# 4 0.0000 0.0000 0.0000 1.0831 0.0000 -0.0004
# 5 0.0000 0.0000 -0.0002 0.0000 18.6750 0.0000
# 6 0.0000 -0.0002 -0.0014 -0.0004 0.0000 -73.4980
#
#
#
# Elastic Compliance Matrix: (Units=1/GPa)
#
#
# Indices 1 2 3 4 5 6 
#
# 1 0.008808 -0.004533 -0.003273 0.000000 0.000000 0.000000
# 2 -0.004533 0.032451 0.001753 0.000001 0.000000 0.000000
# 3 -0.003273 0.001753 0.014118 0.000000 0.000000 0.000000
# 4 0.000000 0.000001 0.000000 0.923300 0.000002 -0.000005
# 5 0.000000 0.000000 0.000000 0.000002 0.053547 0.000000
# 6 0.000000 0.000000 0.000000 -0.000005 0.000000 -0.013606
#
#
# Mechanical properties :
#
#
# Convention : Reuss Voigt Hill
#
# Bulk Modulus (GPa) = 23.10996 37.19753 30.15374
# Shear Modulus (GPa) = 4.78401 2.45975 3.62188
#
# Velocity S-wave (km/s) = 1.51059 1.08317 1.31437
# Velocity P-wave (km/s) = 3.75041 4.39396 4.08488
#
# Compressibility (1/GPa) = 0.04327140
#
# Stress axis : x y z
#
# Youngs Moduli (GPa) = 113.53346 30.81595 70.83014
#
# Poissons Ratio (x) = 0.13968 0.23182
# Poissons Ratio (y) = 0.51460 -0.12414
# Poissons Ratio (z) = 0.37158 -0.05401
#
# Static dielectric constant tensor:
#      x y z
#    x 1.846170 0.000000 0.000000 
#    y 0.000000 1.819280 0.000000 
#    z 0.000000 0.000000 1.757790 
# 
# From -- ./inp_files/16115.got.cif
#   From: 2010.05.17/outbox.cif.g08.bks.cpg/sg73_9_cif.got.tgz:16115.got - 2010.06.03 17:35:07.
