data_PCOD9530031
_publ_section_title
;
Structure prediction by ZEFSAII (Michael W. Deem and Ramdas Pophale) SiO2 
 PCOD9530031
Probable space group: I B C A 
;
_chemical_formula_sum "Si O2"
_cell_formula_units_Z 88
_cell_length_a 17.930888
_cell_length_b 19.926883
_cell_length_c 12.004650
_cell_angle_alpha 90.000000
_cell_angle_beta 90.000000
_cell_angle_gamma 90.000000
_cell_volume 4289.341963
_symmetry_space_group_name_H-M "I B C A "
_symmetry_group_IT_number 73
_symmetry_cell_setting 'orthorhombic'
loop_
_space_group_symop_operation_xyz
x,y,z
-x,1/2-y,z
x,-y,1/2-z
1/2-x,y,-z
-x,-y,-z
x,1/2+y,-z
-x,y,1/2+z
1/2+x,-y,z
1/2+x,1/2+y,1/2+z
1/2-x,-y,1/2+z
1/2+x,1/2-y,-z
-x,1/2+y,1/2-z
1/2-x,1/2-y,1/2-z
1/2+x,y,1/2-z
1/2-x,1/2+y,z
x,1/2-y,1/2+z
loop_
_atom_site_type_symbol
_atom_site_label
_atom_site_fract_x
_atom_site_fract_y
_atom_site_fract_z
Si Si1 0.983667 0.176566 0.955631
Si Si2 0.261225 0.668302 0.873327
Si Si3 0.106938 0.918967 0.634615
Si Si4 0.750000 0.621606 0.000000
Si Si5 0.602795 0.567877 0.102362
Si Si6 0.157425 0.299005 0.812679
O O1 0.927140 0.190044 0.851677
O O2 0.000000 0.250000 0.005612
O O3 0.058786 0.140455 0.917700
O O4 0.943596 0.124163 0.037401
O O5 0.305755 0.598737 0.876853
O O6 0.184723 0.669566 0.803882
O O7 0.316272 0.721575 0.812549
O O8 0.250000 0.690193 0.000000
O O9 0.092309 0.922614 0.766206
O O10 0.085385 0.989874 0.579834
O O11 0.688158 0.579618 0.065790
O O12 0.792953 0.665998 0.091316
#
# Coordination Sequence:
#
# PCOD9530031 Si02
#       6
#    16  16  16   8  16  16
#     4  11  23  41  65  97 128 174 218 273 334 395
#     4  11  22  37  64  95 129 163 218 274 318 380
#     4  11  23  43  62  96 131 174 214 269 329 400
#     4  10  18  40  64  88 118 174 208 268 318 380
#     4  10  24  41  67  87 134 172 218 264 333 395
#     4  10  21  38  61  95 125 165 217 267 325 379
#
# _framework density 20.515967
#
# number of rings (size 3 to 8) (size 9 to 14) (size 15 to 20)
#    0.000    1.455    4.545    0.545    1.273    2.182 
#    0.000    0.000    0.000    0.000    0.000    0.000 
#    0.000    0.000    0.000    0.000    0.000    0.000 
#
# Total GULP energy -245659.016730 kJ/mol
# GULP energy per Si atom -5583.159471 kJ/mol
# Density = 2.046927 g / cm^3
# Si number density = 20.515967 Si / 1000 Ang^3
#
#
#
# Elastic Constant Matrix: (Units=GPa)
#
#
# Indices 1 2 3 4 5 6 
#
# 1 52.0242 26.8598 5.8926 0.0000 0.0000 0.0000
# 2 26.8598 138.2862 19.3881 0.0000 0.0000 0.0000
# 3 5.8926 19.3881 53.6553 0.0000 0.0000 0.0000
# 4 0.0000 0.0000 0.0000 20.0159 0.0000 0.0000
# 5 0.0000 0.0000 0.0000 0.0000 21.2902 0.0000
# 6 0.0000 0.0000 0.0000 0.0000 0.0000 22.2714
#
#
#
# Elastic Compliance Matrix: (Units=1/GPa)
#
#
# Indices 1 2 3 4 5 6 
#
# 1 0.021405 -0.004032 -0.000894 0.000000 0.000000 0.000000
# 2 -0.004032 0.008377 -0.002584 0.000000 0.000000 0.000000
# 3 -0.000894 -0.002584 0.019669 0.000000 0.000000 0.000000
# 4 0.000000 0.000000 0.000000 0.049960 0.000000 0.000000
# 5 0.000000 0.000000 0.000000 0.000000 0.046970 0.000000
# 6 0.000000 0.000000 0.000000 0.000000 0.000000 0.044901
#
#
# Mechanical properties :
#
#
# Convention : Reuss Voigt Hill
#
# Bulk Modulus (GPa) = 29.04362 38.69409 33.86885
# Shear Modulus (GPa) = 22.95903 25.50384 24.23144
#
# Velocity S-wave (km/s) = 3.34890 3.52962 3.44044
# Velocity P-wave (km/s) = 5.39822 5.95922 5.68565
#
# Compressibility (1/GPa) = 0.03443097
#
# Stress axis : x y z
#
# Youngs Moduli (GPa) = 46.71835 119.37628 50.84043
#
# Poissons Ratio (x) = 0.48135 0.04544
# Poissons Ratio (y) = 0.18838 0.13138
# Poissons Ratio (z) = 0.04175 0.30848
#
# Static dielectric constant tensor:
#      x y z
#    x 1.737530 0.000000 0.000000 
#    y 0.000000 1.755520 0.000000 
#    z 0.000000 0.000000 1.720210 
# 
# From -- ./inp_files/11857.got.cif
#   From: 2010.05.17/outbox.cif.g08.bks.cpg/sg73_6_cif.got.tgz:11857.got - 2010.06.03 17:35:07.
