data_PCOD9530606
_publ_section_title
;
Structure prediction by ZEFSAII (Michael W. Deem and Ramdas Pophale) SiO2 
 PCOD9530606
Probable space group: I B C A 
;
_chemical_formula_sum "Si O2"
_cell_formula_units_Z 88
_cell_length_a 22.272480
_cell_length_b 17.018663
_cell_length_c 13.006667
_cell_angle_alpha 90.000000
_cell_angle_beta 90.000000
_cell_angle_gamma 90.000000
_cell_volume 4930.148919
_symmetry_space_group_name_H-M "I B C A "
_symmetry_group_IT_number 73
_symmetry_cell_setting 'orthorhombic'
loop_
_space_group_symop_operation_xyz
x,y,z
-x,1/2-y,z
x,-y,1/2-z
1/2-x,y,-z
-x,-y,-z
x,1/2+y,-z
-x,y,1/2+z
1/2+x,-y,z
1/2+x,1/2+y,1/2+z
1/2-x,-y,1/2+z
1/2+x,1/2-y,-z
-x,1/2+y,1/2-z
1/2-x,1/2-y,1/2-z
1/2+x,y,1/2-z
1/2-x,1/2+y,z
x,1/2-y,1/2+z
loop_
_atom_site_type_symbol
_atom_site_label
_atom_site_fract_x
_atom_site_fract_y
_atom_site_fract_z
Si Si1 0.440511 0.800669 0.948168
Si Si2 0.097188 0.481390 0.431557
Si Si3 0.846328 0.319052 0.857066
Si Si4 0.250000 0.243108 0.500000
Si Si5 0.852422 0.147110 0.116304
Si Si6 0.461612 0.973970 0.862973
O O1 0.500000 0.750000 0.958961
O O2 0.392337 0.750604 0.884626
O O3 0.454010 0.882060 0.889808
O O4 0.411999 0.819421 0.059676
O O5 0.126755 0.399467 0.402406
O O6 0.140057 0.553645 0.400437
O O7 0.078897 0.483448 0.551374
O O8 0.032237 0.492965 0.377434
O O9 0.784821 0.295642 0.915186
O O10 0.844304 0.331023 0.734916
O O11 0.201980 0.186960 0.555236
O O12 0.443282 0.000000 0.750000
#
# Coordination Sequence:
#
# PCOD9530606 Si02
#       6
#    16  16  16   8  16  16
#     4  10  21  36  55  92 122 149 195 234 285 360
#     4  10  21  36  57  87 115 151 197 233 285 360
#     4  11  21  39  61  86 115 154 195 242 298 339
#     4  10  24  40  58  82 112 148 208 252 282 352
#     4  10  22  39  59  79 118 156 190 245 295 339
#     4  10  20  36  57  85 127 158 185 230 287 351
#
# _framework density 17.849360000000001
#
# number of rings (size 3 to 8) (size 9 to 14) (size 15 to 20)
#    0.000    1.818    1.818    2.182    0.000    4.364 
#    0.000    1.818    0.000    0.000    0.000    0.000 
#    0.000    0.000    0.000    0.000    0.000    0.000 
#
# Total GULP energy -245568.343730 kJ/mol
# GULP energy per Si atom -5581.098721 kJ/mol
# Density = 1.780873 g / cm^3
# Si number density = 17.849360 Si / 1000 Ang^3
#
#
#
# Elastic Constant Matrix: (Units=GPa)
#
#
# Indices 1 2 3 4 5 6 
#
# 1 84.0392 42.8518 56.3467 0.0000 0.0000 0.0000
# 2 42.8518 96.0676 75.9075 0.0000 0.0000 0.0000
# 3 56.3467 75.9075 170.0765 0.0000 0.0000 0.0000
# 4 0.0000 0.0000 0.0000 11.0852 0.0000 0.0000
# 5 0.0000 0.0000 0.0000 0.0000 7.2356 0.0000
# 6 0.0000 0.0000 0.0000 0.0000 0.0000 23.4160
#
#
#
# Elastic Compliance Matrix: (Units=1/GPa)
#
#
# Indices 1 2 3 4 5 6 
#
# 1 0.016575 -0.004718 -0.003385 0.000000 0.000000 0.000000
# 2 -0.004718 0.017423 -0.006213 0.000000 0.000000 0.000000
# 3 -0.003385 -0.006213 0.009774 0.000000 0.000000 0.000000
# 4 0.000000 0.000000 0.000000 0.090211 0.000000 0.000000
# 5 0.000000 0.000000 0.000000 0.000000 0.138205 0.000000
# 6 0.000000 0.000000 0.000000 0.000000 0.000000 0.042706
#
#
# Mechanical properties :
#
#
# Convention : Reuss Voigt Hill
#
# Bulk Modulus (GPa) = 66.05566 77.82171 71.93869
# Shear Modulus (GPa) = 14.34415 20.01917 17.18166
#
# Velocity S-wave (km/s) = 2.83790 3.35261 3.10593
# Velocity P-wave (km/s) = 6.91563 7.66032 7.29748
#
# Compressibility (1/GPa) = 0.01513875
#
# Stress axis : x y z
#
# Youngs Moduli (GPa) = 60.33177 57.39462 102.30958
#
# Poissons Ratio (x) = 0.27081 0.34636
# Poissons Ratio (y) = 0.28467 0.63565
# Poissons Ratio (z) = 0.20425 0.35659
#
# Static dielectric constant tensor:
#      x y z
#    x 1.595710 0.000000 0.000000 
#    y 0.000000 1.597350 0.000000 
#    z 0.000000 0.000000 1.605070 
# 
# From -- ./inp_files/11871.got.cif
#   From: 2010.05.17/outbox.cif.g08.bks.cpg/sg73_6_cif.got.tgz:11871.got - 2010.06.03 17:35:07.
