data_PCOD9530977
_publ_section_title
;
Structure prediction by ZEFSAII (Michael W. Deem and Ramdas Pophale) SiO2 
 PCOD9530977
Probable space group: I B C A 
;
_chemical_formula_sum "Si O2"
_cell_formula_units_Z 72
_cell_length_a 9.119153
_cell_length_b 18.043970
_cell_length_c 18.865306
_cell_angle_alpha 90.000000
_cell_angle_beta 90.000000
_cell_angle_gamma 90.000000
_cell_volume 3104.205418
_symmetry_space_group_name_H-M "I B C A "
_symmetry_group_IT_number 73
_symmetry_cell_setting 'orthorhombic'
loop_
_space_group_symop_operation_xyz
x,y,z
-x,1/2-y,z
x,-y,1/2-z
1/2-x,y,-z
-x,-y,-z
x,1/2+y,-z
-x,y,1/2+z
1/2+x,-y,z
1/2+x,1/2+y,1/2+z
1/2-x,-y,1/2+z
1/2+x,1/2-y,-z
-x,1/2+y,1/2-z
1/2-x,1/2-y,1/2-z
1/2+x,y,1/2-z
1/2-x,1/2+y,z
x,1/2-y,1/2+z
loop_
_atom_site_type_symbol
_atom_site_label
_atom_site_fract_x
_atom_site_fract_y
_atom_site_fract_z
Si Si1 0.019863 0.453327 0.396962
Si Si2 0.137125 0.802233 0.065854
Si Si3 0.146108 0.702227 0.870350
Si Si4 0.813854 0.555710 0.314392
Si Si5 0.750000 0.596277 0.500000
O O1 0.143027 0.444975 0.335899
O O2 0.124212 0.454080 0.465735
O O3 0.922386 0.380557 0.408185
O O4 0.916155 0.520364 0.375719
O O5 0.221447 0.760198 0.128875
O O6 0.000000 0.750000 0.045397
O O7 0.250000 0.810948 0.000000
O O8 0.141476 0.641540 0.808085
O O9 0.000000 0.750000 0.875918
O O10 0.184929 0.651449 0.939725
O O11 0.835003 0.500000 0.250000
#
# Coordination Sequence:
#
# PCOD9530977 Si02
#       5
#    16  16  16  16   8
#     4  11  25  44  70 102 141 189 235 294 371 430
#     4  12  21  42  69 107 147 182 222 292 374 453
#     4  11  23  41  72 108 145 184 232 291 368 430
#     4  11  26  50  70  94 143 199 252 300 344 416
#     4  10  20  40  66 108 146 178 228 288 376 444
#
# _framework density 23.194341999999999
#
# number of rings (size 3 to 8) (size 9 to 14) (size 15 to 20)
#    0.000    0.889    5.556    2.667    3.111    3.556 
#    8.000    3.333    0.000    0.000    0.000    0.000 
#    0.000    0.000    0.000    0.000    0.000    0.000 
#
# Total GULP energy -201306.446018 kJ/mol
# GULP energy per Si atom -5591.845723 kJ/mol
# Density = 2.314155 g / cm^3
# Si number density = 23.194342 Si / 1000 Ang^3
#
#
#
# Elastic Constant Matrix: (Units=GPa)
#
#
# Indices 1 2 3 4 5 6 
#
# 1 167.0070 87.9254 22.1610 0.0000 0.0000 0.0000
# 2 87.9254 136.9776 34.8836 0.0000 0.0000 0.0000
# 3 22.1610 34.8836 66.5553 0.0000 0.0000 0.0000
# 4 0.0000 0.0000 0.0000 28.3703 0.0000 0.0000
# 5 0.0000 0.0000 0.0000 0.0000 15.3232 0.0000
# 6 0.0000 0.0000 0.0000 0.0000 0.0000 54.5991
#
#
#
# Elastic Compliance Matrix: (Units=1/GPa)
#
#
# Indices 1 2 3 4 5 6 
#
# 1 0.009044 -0.005815 0.000036 0.000000 0.000000 0.000000
# 2 -0.005815 0.012163 -0.004439 0.000000 0.000000 0.000000
# 3 0.000036 -0.004439 0.017340 0.000000 0.000000 0.000000
# 4 0.000000 0.000000 0.000000 0.035248 0.000000 0.000000
# 5 0.000000 0.000000 0.000000 0.000000 0.065261 0.000000
# 6 0.000000 0.000000 0.000000 0.000000 0.000000 0.018315
#
#
# Mechanical properties :
#
#
# Convention : Reuss Voigt Hill
#
# Bulk Modulus (GPa) = 55.21143 73.38663 64.29903
# Shear Modulus (GPa) = 27.19697 34.69650 30.94674
#
# Velocity S-wave (km/s) = 3.42799 3.87189 3.65668
# Velocity P-wave (km/s) = 6.28679 7.19008 6.75355
#
# Compressibility (1/GPa) = 0.01811219
#
# Stress axis : x y z
#
# Youngs Moduli (GPa) = 110.56711 82.21396 57.67110
#
# Poissons Ratio (x) = 0.47805 -0.00209
# Poissons Ratio (y) = 0.64292 0.25601
# Poissons Ratio (z) = -0.00400 0.36495
#
# Static dielectric constant tensor:
#      x y z
#    x 1.852820 0.000000 0.000000 
#    y 0.000000 1.838630 0.000000 
#    z 0.000000 0.000000 2.009090 
# 
# From -- ./inp_files/24634.got.cif
#   From: 2010.05.17/outbox.cif.g08.bks.cpg/sg73_13_cif.got.tgz:24634.got - 2010.06.03 17:35:07.
