data_PCOD9530360
_publ_section_title
;
Structure prediction by ZEFSAII (Michael W. Deem and Ramdas Pophale) SiO2 
 PCOD9530360
Probable space group: I B C A 
;
_chemical_formula_sum "Si O2"
_cell_formula_units_Z 56
_cell_length_a 9.317580
_cell_length_b 17.597431
_cell_length_c 13.355528
_cell_angle_alpha 90.000000
_cell_angle_beta 90.000000
_cell_angle_gamma 90.000000
_cell_volume 2189.845441
_symmetry_space_group_name_H-M "I B C A "
_symmetry_group_IT_number 73
_symmetry_cell_setting 'orthorhombic'
loop_
_space_group_symop_operation_xyz
x,y,z
-x,1/2-y,z
x,-y,1/2-z
1/2-x,y,-z
-x,-y,-z
x,1/2+y,-z
-x,y,1/2+z
1/2+x,-y,z
1/2+x,1/2+y,1/2+z
1/2-x,-y,1/2+z
1/2+x,1/2-y,-z
-x,1/2+y,1/2-z
1/2-x,1/2-y,1/2-z
1/2+x,y,1/2-z
1/2-x,1/2+y,z
x,1/2-y,1/2+z
loop_
_atom_site_type_symbol
_atom_site_label
_atom_site_fract_x
_atom_site_fract_y
_atom_site_fract_z
Si Si1 0.367946 0.026963 0.926645
Si Si2 0.861133 0.204915 0.315579
Si Si3 0.750000 0.780463 0.500000
Si Si4 0.361657 0.404666 0.843668
O O1 0.470840 0.072131 0.852074
O O2 0.267904 0.962362 0.874034
O O3 0.250000 0.064828 0.000000
O O4 0.500000 0.000000 0.000000
O O5 0.750000 0.250000 0.250000
O O6 0.841489 0.224972 0.430434
O O7 0.850232 0.120691 0.272343
O O8 0.000000 0.250000 0.283556
O O9 0.836305 0.836246 0.424299
#
# Coordination Sequence:
#
# PCOD9530360 Si02
#       4
#    16  16   8  16
#     4   9  16  33  69 111 152 198 245 313 369 448
#     4  10  24  46  73 109 152 200 252 317 382 455
#     4  10  20  40  74 102 152 198 250 318 374 462
#     4  10  19  39  72 117 150 187 262 308 392 448
#
# _framework density 25.572581
#
# number of rings (size 3 to 8) (size 9 to 14) (size 15 to 20)
#    0.000    2.286    4.286    0.000    0.000    4.571 
#    5.143    0.000    0.000   25.714    0.000    0.000 
#    0.000    0.000    0.000    0.000    0.000    0.000 
#
# Total GULP energy -156107.662093 kJ/mol
# GULP energy per Si atom -5575.273646 kJ/mol
# Density = 2.551438 g / cm^3
# Si number density = 25.572581 Si / 1000 Ang^3
#
#
#
# Elastic Constant Matrix: (Units=GPa)
#
#
# Indices 1 2 3 4 5 6 
#
# 1 237.0854 66.9433 68.8602 0.0000 0.0000 0.0000
# 2 66.9433 115.6266 72.9498 0.0000 0.0000 0.0000
# 3 68.8602 72.9498 122.9263 0.0001 0.0000 0.0000
# 4 0.0000 0.0000 0.0001 51.4285 0.0000 0.0000
# 5 0.0000 0.0000 0.0000 0.0000 39.9385 0.0000
# 6 0.0000 0.0000 0.0000 0.0000 0.0000 20.5873
#
#
#
# Elastic Compliance Matrix: (Units=1/GPa)
#
#
# Indices 1 2 3 4 5 6 
#
# 1 0.005288 -0.001906 -0.001831 0.000000 0.000000 0.000000
# 2 -0.001906 0.014512 -0.007544 0.000000 0.000000 0.000000
# 3 -0.001831 -0.007544 0.013637 0.000000 0.000000 0.000000
# 4 0.000000 0.000000 0.000000 0.019444 0.000000 0.000000
# 5 0.000000 0.000000 0.000000 0.000000 0.025039 0.000000
# 6 0.000000 0.000000 0.000000 0.000000 0.000000 0.048574
#
#
# Mechanical properties :
#
#
# Convention : Reuss Voigt Hill
#
# Bulk Modulus (GPa) = 91.95626 99.23833 95.59730
# Shear Modulus (GPa) = 32.74792 40.18318 36.46555
#
# Velocity S-wave (km/s) = 3.58241 3.96831 3.78029
# Velocity P-wave (km/s) = 7.29031 7.73870 7.51785
#
# Compressibility (1/GPa) = 0.01087473
#
# Stress axis : x y z
#
# Youngs Moduli (GPa) = 189.10956 68.90908 73.32735
#
# Poissons Ratio (x) = 0.13137 0.13425
# Poissons Ratio (y) = 0.36053 0.55318
# Poissons Ratio (z) = 0.34622 0.51985
#
# Static dielectric constant tensor:
#      x y z
#    x 1.972140 0.000000 0.000000 
#    y 0.000000 2.197820 0.000000 
#    z 0.000000 0.000000 2.146090 
# 
# From -- ./inp_files/15377.got.cif
#   From: 2010.05.17/outbox.cif.g08.bks.cpg/sg73_8_cif.got.tgz:15377.got - 2010.06.03 17:35:07.
