data_PCOD9530972
_publ_section_title
;
Structure prediction by ZEFSAII (Michael W. Deem and Ramdas Pophale) SiO2 
 PCOD9530972
Probable space group: I B C A 
;
_chemical_formula_sum "Si O2"
_cell_formula_units_Z 96
_cell_length_a 23.466778
_cell_length_b 15.607787
_cell_length_c 12.134154
_cell_angle_alpha 90.000000
_cell_angle_beta 90.000000
_cell_angle_gamma 90.000000
_cell_volume 4444.309515
_symmetry_space_group_name_H-M "I B C A "
_symmetry_group_IT_number 73
_symmetry_cell_setting 'orthorhombic'
loop_
_space_group_symop_operation_xyz
x,y,z
-x,1/2-y,z
x,-y,1/2-z
1/2-x,y,-z
-x,-y,-z
x,1/2+y,-z
-x,y,1/2+z
1/2+x,-y,z
1/2+x,1/2+y,1/2+z
1/2-x,-y,1/2+z
1/2+x,1/2-y,-z
-x,1/2+y,1/2-z
1/2-x,1/2-y,1/2-z
1/2+x,y,1/2-z
1/2-x,1/2+y,z
x,1/2-y,1/2+z
loop_
_atom_site_type_symbol
_atom_site_label
_atom_site_fract_x
_atom_site_fract_y
_atom_site_fract_z
Si Si1 0.399531 0.183496 0.421591
Si Si2 0.670473 0.693123 0.882791
Si Si3 0.847736 0.631754 0.352309
Si Si4 0.008030 0.089015 0.439328
Si Si5 0.427370 0.000000 0.750000
Si Si6 0.750000 0.323404 0.000000
Si Si7 0.939038 0.699442 0.691146
O O1 0.347820 0.150192 0.500023
O O2 0.381582 0.281861 0.391458
O O3 0.455264 0.155985 0.490110
O O4 0.415981 0.151758 0.299711
O O5 0.680484 0.641955 0.770259
O O6 0.611730 0.740634 0.849757
O O7 0.719763 0.760314 0.911435
O O8 0.890132 0.553482 0.336372
O O9 0.798122 0.622067 0.440424
O O10 0.949926 0.133657 0.406744
O O11 0.037082 0.066547 0.322226
O O12 0.000000 0.000000 0.500000
O O13 0.000000 0.750000 0.711095
#
# Coordination Sequence:
#
# PCOD9530972 Si02
#       7
#    16  16  16  16   8   8  16
#     4  10  21  39  61  91 123 174 221 267 327 408
#     4  10  20  40  65  97 123 170 221 280 328 410
#     4  10  22  42  70  93 130 168 225 282 339 412
#     4  12  25  36  61  94 137 183 217 273 342 411
#     4  12  24  44  62 100 138 176 216 280 358 418
#     4  10  22  38  74  94 122 166 232 284 330 402
#     4  11  22  36  61  92 129 167 227 269 334 415
#
# _framework density 21.600656000000001
#
# number of rings (size 3 to 8) (size 9 to 14) (size 15 to 20)
#    0.000    1.333    3.333    2.500    7.000    0.000 
#    0.000    0.833    7.333    0.000    0.000    0.000 
#    0.000    0.000    0.000    0.000    0.000    0.000 
#
# Total GULP energy -267607.396536 kJ/mol
# GULP energy per Si atom -5575.154095 kJ/mol
# Density = 2.155149 g / cm^3
# Si number density = 21.600656 Si / 1000 Ang^3
#
#
#
# Elastic Constant Matrix: (Units=GPa)
#
#
# Indices 1 2 3 4 5 6 
#
# 1 54.0764 7.7245 9.6577 0.0000 0.0000 0.0000
# 2 7.7245 38.1956 18.3315 0.0000 0.0000 0.0000
# 3 9.6577 18.3315 90.8025 0.0000 0.0000 0.0000
# 4 0.0000 0.0000 0.0000 27.9118 0.0000 0.0000
# 5 0.0000 0.0000 0.0000 0.0000 30.1840 0.0000
# 6 0.0000 0.0000 0.0000 0.0000 0.0000 20.9584
#
#
#
# Elastic Compliance Matrix: (Units=1/GPa)
#
#
# Indices 1 2 3 4 5 6 
#
# 1 0.019200 -0.003214 -0.001393 0.000000 0.000000 0.000000
# 2 -0.003214 0.029528 -0.005619 0.000000 0.000000 0.000000
# 3 -0.001393 -0.005619 0.012296 0.000000 0.000000 0.000000
# 4 0.000000 0.000000 0.000000 0.035827 0.000000 0.000000
# 5 0.000000 0.000000 0.000000 0.000000 0.033130 0.000000
# 6 0.000000 0.000000 0.000000 0.000000 0.000000 0.047714
#
#
# Mechanical properties :
#
#
# Convention : Reuss Voigt Hill
#
# Bulk Modulus (GPa) = 24.64869 28.27799 26.46334
# Shear Modulus (GPa) = 23.62144 25.63487 24.62815
#
# Velocity S-wave (km/s) = 3.31048 3.44868 3.38029
# Velocity P-wave (km/s) = 5.10374 5.38308 5.24527
#
# Compressibility (1/GPa) = 0.04057012
#
# Stress axis : x y z
#
# Youngs Moduli (GPa) = 52.08244 33.86610 81.33026
#
# Poissons Ratio (x) = 0.10886 0.11331
# Poissons Ratio (y) = 0.16741 0.45702
# Poissons Ratio (z) = 0.07256 0.19030
#
# Static dielectric constant tensor:
#      x y z
#    x 1.791270 0.000000 0.000000 
#    y 0.000000 1.795950 0.000000 
#    z 0.000000 0.000000 1.896140 
# 
# From -- ./inp_files/13675.got.cif
#   From: 2010.05.17/outbox.cif.g08.bks.cpg/sg73_7_cif.got.tgz:13675.got - 2010.06.03 17:35:07.
