data_PCOD9530980
_publ_section_title
;
Structure prediction by ZEFSAII (Michael W. Deem and Ramdas Pophale) SiO2 
 PCOD9530980
Probable space group: I B C A 
;
_chemical_formula_sum "Si O2"
_cell_formula_units_Z 112
_cell_length_a 24.830654
_cell_length_b 15.896479
_cell_length_c 14.557390
_cell_angle_alpha 90.000000
_cell_angle_beta 90.000000
_cell_angle_gamma 90.000000
_cell_volume 5746.092542
_symmetry_space_group_name_H-M "I B C A "
_symmetry_group_IT_number 73
_symmetry_cell_setting 'orthorhombic'
loop_
_space_group_symop_operation_xyz
x,y,z
-x,1/2-y,z
x,-y,1/2-z
1/2-x,y,-z
-x,-y,-z
x,1/2+y,-z
-x,y,1/2+z
1/2+x,-y,z
1/2+x,1/2+y,1/2+z
1/2-x,-y,1/2+z
1/2+x,1/2-y,-z
-x,1/2+y,1/2-z
1/2-x,1/2-y,1/2-z
1/2+x,y,1/2-z
1/2-x,1/2+y,z
x,1/2-y,1/2+z
loop_
_atom_site_type_symbol
_atom_site_label
_atom_site_fract_x
_atom_site_fract_y
_atom_site_fract_z
Si Si1 0.083436 0.916689 0.808566
Si Si2 0.556909 0.467545 0.036767
Si Si3 0.377764 0.383027 0.186654
Si Si4 0.262502 0.813934 0.603287
Si Si5 0.673096 0.288608 0.242505
Si Si6 0.500939 0.850423 0.820455
Si Si7 0.146488 0.551431 0.889404
O O1 0.126360 0.846489 0.782963
O O2 0.024767 0.883031 0.776587
O O3 0.095611 0.000000 0.750000
O O4 0.082041 0.952043 0.910795
O O5 0.541485 0.392651 0.106864
O O6 0.500000 0.500000 0.000000
O O7 0.599560 0.436077 0.963026
O O8 0.352363 0.290797 0.188524
O O9 0.440588 0.381867 0.161393
O O10 0.346551 0.451482 0.125739
O O11 0.373938 0.413815 0.291711
O O12 0.250000 0.782661 0.500000
O O13 0.293721 0.747872 0.669989
O O14 0.210788 0.834160 0.667264
O O15 0.300235 0.895627 0.589926
O O16 0.500000 0.750000 0.823309
#
# Coordination Sequence:
#
# PCOD9530980 Si02
#       7
#    16  16  16  16  16  16  16
#     4  10  23  38  64  91 128 171 208 262 322 387
#     4  11  22  39  59  97 132 165 212 264 315 396
#     4  10  20  40  66  88 128 169 208 255 321 392
#     4  10  24  43  67  91 131 167 218 283 322 378
#     4  10  22  46  64  95 126 169 223 271 326 385
#     4  11  21  37  61  92 127 171 202 252 321 385
#     4  10  22  40  63  93 126 170 212 263 323 383
#
# _framework density 19.491506000000001
#
# number of rings (size 3 to 8) (size 9 to 14) (size 15 to 20)
#    0.000    1.714    2.857    0.857    8.000    1.143 
#   12.857    0.714    0.000    0.000    0.000    0.000 
#    0.000    0.000    0.000    0.000    0.000    0.000 
#
# Total GULP energy -312403.878604 kJ/mol
# GULP energy per Si atom -5578.640689 kJ/mol
# Density = 1.944714 g / cm^3
# Si number density = 19.491506 Si / 1000 Ang^3
#
#
#
# Elastic Constant Matrix: (Units=GPa)
#
#
# Indices 1 2 3 4 5 6 
#
# 1 91.0582 28.0670 31.3405 0.0000 0.0000 0.0000
# 2 28.0670 85.2333 8.0967 0.0000 0.0000 0.0000
# 3 31.3405 8.0967 69.8636 0.0000 0.0000 0.0000
# 4 0.0000 0.0000 0.0000 14.2817 0.0000 0.0000
# 5 0.0000 0.0000 0.0000 0.0000 29.6485 0.0000
# 6 0.0000 0.0000 0.0000 0.0000 0.0000 23.5150
#
#
#
# Elastic Compliance Matrix: (Units=1/GPa)
#
#
# Indices 1 2 3 4 5 6 
#
# 1 0.014303 -0.004146 -0.005936 0.000000 0.000000 0.000000
# 2 -0.004146 0.013065 0.000346 0.000000 0.000000 0.000000
# 3 -0.005936 0.000346 0.016936 0.000000 0.000000 0.000000
# 4 0.000000 0.000000 0.000000 0.070020 0.000000 0.000000
# 5 0.000000 0.000000 0.000000 0.000000 0.033728 0.000000
# 6 0.000000 0.000000 0.000000 0.000000 0.000000 0.042526
#
#
# Mechanical properties :
#
#
# Convention : Reuss Voigt Hill
#
# Bulk Modulus (GPa) = 40.27043 42.35148 41.31096
# Shear Modulus (GPa) = 22.90136 25.39911 24.15023
#
# Velocity S-wave (km/s) = 3.43146 3.61374 3.52378
# Velocity P-wave (km/s) = 6.03368 6.26000 6.14788
#
# Compressibility (1/GPa) = 0.02483212
#
# Stress axis : x y z
#
# Youngs Moduli (GPa) = 69.91600 76.54085 59.04495
#
# Poissons Ratio (x) = 0.31734 0.35047
# Poissons Ratio (y) = 0.28987 -0.02042
# Poissons Ratio (z) = 0.41500 -0.02646
#
# Static dielectric constant tensor:
#      x y z
#    x 1.689510 0.000000 0.000000 
#    y 0.000000 1.688430 0.000000 
#    z 0.000000 0.000000 1.713070 
# 
# From -- ./inp_files/19835.got.cif
#   From: 2010.05.17/outbox.cif.g08.bks.cpg/sg73_10_cif.got.tgz:19835.got - 2010.06.03 17:35:07.
