data_PCOD9530194
_publ_section_title
;
Structure prediction by ZEFSAII (Michael W. Deem and Ramdas Pophale) SiO2 
 PCOD9530194
Probable space group: I B C A 
;
_chemical_formula_sum "Si O2"
_cell_formula_units_Z 96
_cell_length_a 27.351328
_cell_length_b 7.642820
_cell_length_c 18.315543
_cell_angle_alpha 90.000000
_cell_angle_beta 90.000000
_cell_angle_gamma 90.000000
_cell_volume 3828.704492
_symmetry_space_group_name_H-M "I B C A "
_symmetry_group_IT_number 73
_symmetry_cell_setting 'orthorhombic'
loop_
_space_group_symop_operation_xyz
x,y,z
-x,1/2-y,z
x,-y,1/2-z
1/2-x,y,-z
-x,-y,-z
x,1/2+y,-z
-x,y,1/2+z
1/2+x,-y,z
1/2+x,1/2+y,1/2+z
1/2-x,-y,1/2+z
1/2+x,1/2-y,-z
-x,1/2+y,1/2-z
1/2-x,1/2-y,1/2-z
1/2+x,y,1/2-z
1/2-x,1/2+y,z
x,1/2-y,1/2+z
loop_
_atom_site_type_symbol
_atom_site_label
_atom_site_fract_x
_atom_site_fract_y
_atom_site_fract_z
Si Si1 0.303253 0.851368 0.400809
Si Si2 0.097944 0.740147 0.054915
Si Si3 0.960389 0.935728 0.938747
Si Si4 0.047428 0.038547 0.665739
Si Si5 0.787025 0.481241 0.171668
Si Si6 0.146347 0.350568 0.185606
O O1 0.344853 0.795775 0.458983
O O2 0.246101 0.903399 0.394620
O O3 0.304465 0.674661 0.350902
O O4 0.325935 0.035246 0.374719
O O5 0.074591 0.614258 0.117642
O O6 0.083572 0.932618 0.078719
O O7 0.066991 0.717245 0.981316
O O8 0.996062 0.924466 0.870907
O O9 0.000000 0.000000 0.000000
O O10 0.089887 0.183632 0.667666
O O11 0.037982 0.000000 0.750000
O O12 0.758240 0.500000 0.250000
O O13 0.826556 0.333729 0.191669
O O14 0.145441 0.500000 0.250000
#
# Coordination Sequence:
#
# PCOD9530194 Si02
#       6
#    16  16  16  16  16  16
#     4  11  22  37  60  99 137 181 247 296 335 434
#     4  10  23  44  69  99 137 186 247 299 357 444
#     4  10  20  45  73  94 130 192 241 288 368 439
#     4   9  19  37  69 103 146 182 228 300 367 425
#     4  12  21  35  64  98 146 203 237 282 369 443
#     4  10  19  35  58  95 148 192 232 282 355 432
#
# _framework density 25.073754999999998
#
# number of rings (size 3 to 8) (size 9 to 14) (size 15 to 20)
#    0.000    1.667    3.333    3.000    0.000    0.667 
#   12.000    7.500    3.667    3.000    0.000    0.000 
#    0.000    0.000    0.000    0.333    0.000    0.000 
#
# Total GULP energy -267393.731263 kJ/mol
# GULP energy per Si atom -5570.702735 kJ/mol
# Density = 2.501669 g / cm^3
# Si number density = 25.073755 Si / 1000 Ang^3
#
#
#
# Elastic Constant Matrix: (Units=GPa)
#
#
# Indices 1 2 3 4 5 6 
#
# 1 124.7919 18.0079 47.3967 0.0000 0.0000 0.0000
# 2 18.0079 116.1590 10.4569 0.0000 0.0000 0.0000
# 3 47.3967 10.4569 89.6539 0.0000 0.0000 0.0000
# 4 0.0000 0.0000 0.0000 24.6488 0.0000 0.0000
# 5 0.0000 0.0000 0.0000 0.0000 29.0967 0.0000
# 6 0.0000 0.0000 0.0000 0.0000 0.0000 34.7730
#
#
#
# Elastic Compliance Matrix: (Units=1/GPa)
#
#
# Indices 1 2 3 4 5 6 
#
# 1 0.010165 -0.001104 -0.005245 0.000000 0.000000 0.000000
# 2 -0.001104 0.008820 -0.000445 0.000000 0.000000 0.000000
# 3 -0.005245 -0.000445 0.013979 0.000000 0.000000 0.000000
# 4 0.000000 0.000000 0.000000 0.040570 0.000000 0.000000
# 5 0.000000 0.000000 0.000000 0.000000 0.034368 0.000000
# 6 0.000000 0.000000 0.000000 0.000000 0.000000 0.028758
#
#
# Mechanical properties :
#
#
# Convention : Reuss Voigt Hill
#
# Bulk Modulus (GPa) = 51.61100 53.59198 52.60149
# Shear Modulus (GPa) = 31.90690 34.68658 33.29674
#
# Velocity S-wave (km/s) = 3.57111 3.72342 3.64806
# Velocity P-wave (km/s) = 6.13451 6.31706 6.22645
#
# Compressibility (1/GPa) = 0.01937571
#
# Stress axis : x y z
#
# Youngs Moduli (GPa) = 98.38000 113.37783 71.53716
#
# Poissons Ratio (x) = 0.12513 0.37521
# Poissons Ratio (y) = 0.10858 0.03185
# Poissons Ratio (z) = 0.51600 0.05049
#
# Static dielectric constant tensor:
#      x y z
#    x 2.034900 0.000000 0.000000 
#    y 0.000000 2.124330 0.000000 
#    z 0.000000 0.000000 2.094050 
# 
# From -- ./inp_files/27495.got.cif
#   From: 2010.05.17/outbox.cif.g08.bks.cpg/sg73_14_cif.got.tgz:27495.got - 2010.06.03 17:35:07.
