data_PCOD9530921
_publ_section_title
;
Structure prediction by ZEFSAII (Michael W. Deem and Ramdas Pophale) SiO2 
 PCOD9530921
Probable space group: I B C A 
;
_chemical_formula_sum "Si O2"
_cell_formula_units_Z 96
_cell_length_a 14.448608
_cell_length_b 20.887412
_cell_length_c 14.306669
_cell_angle_alpha 90.000000
_cell_angle_beta 90.000000
_cell_angle_gamma 90.000000
_cell_volume 4317.667267
_symmetry_space_group_name_H-M "I B C A "
_symmetry_group_IT_number 73
_symmetry_cell_setting 'orthorhombic'
loop_
_space_group_symop_operation_xyz
x,y,z
-x,1/2-y,z
x,-y,1/2-z
1/2-x,y,-z
-x,-y,-z
x,1/2+y,-z
-x,y,1/2+z
1/2+x,-y,z
1/2+x,1/2+y,1/2+z
1/2-x,-y,1/2+z
1/2+x,1/2-y,-z
-x,1/2+y,1/2-z
1/2-x,1/2-y,1/2-z
1/2+x,y,1/2-z
1/2-x,1/2+y,z
x,1/2-y,1/2+z
loop_
_atom_site_type_symbol
_atom_site_label
_atom_site_fract_x
_atom_site_fract_y
_atom_site_fract_z
Si Si1 0.432174 0.481505 0.148522
Si Si2 0.209446 0.846759 0.745384
Si Si3 0.859364 0.124686 0.969655
Si Si4 0.695819 0.254547 0.595802
Si Si5 0.626220 0.460641 0.362396
Si Si6 0.714951 0.934450 0.097819
O O1 0.395966 0.500000 0.250000
O O2 0.390781 0.413957 0.120724
O O3 0.541089 0.491358 0.150783
O O4 0.384308 0.533646 0.081993
O O5 0.163900 0.800542 0.666768
O O6 0.245330 0.802530 0.832359
O O7 0.150982 0.906387 0.785647
O O8 0.285097 0.882344 0.679839
O O9 0.880035 0.198004 0.948668
O O10 0.750000 0.120809 0.000000
O O11 0.904049 0.084668 0.052071
O O12 0.750000 0.234912 0.500000
O O13 0.715939 0.505449 0.379428
O O14 0.750000 0.907232 0.000000
#
# Coordination Sequence:
#
# PCOD9530921 Si02
#       6
#    16  16  16  16  16  16
#     4  12  23  36  63  98 130 173 213 269 340 401
#     4  11  22  37  64  98 126 166 231 273 320 405
#     4  11  19  40  65  92 129 175 215 266 336 401
#     4  10  20  39  66  93 124 180 223 271 332 395
#     4  12  22  41  62  97 139 169 220 277 334 400
#     4  12  23  39  62  97 139 173 219 277 336 396
#
# _framework density 22.234228000000002
#
# number of rings (size 3 to 8) (size 9 to 14) (size 15 to 20)
#    0.000    0.667    6.667    4.500    0.000    0.000 
#    0.000    0.000    0.000   16.000    8.667    0.000 
#    0.000    0.000    0.000    0.000    0.000    0.000 
#
# Total GULP energy -267297.273960 kJ/mol
# GULP energy per Si atom -5568.693207 kJ/mol
# Density = 2.218362 g / cm^3
# Si number density = 22.234228 Si / 1000 Ang^3
#
#
#
# Elastic Constant Matrix: (Units=GPa)
#
#
# Indices 1 2 3 4 5 6 
#
# 1 70.6805 15.5608 -0.2280 0.0000 0.0000 0.0000
# 2 15.5608 107.9190 41.2037 0.0001 0.0000 0.0000
# 3 -0.2280 41.2037 136.2851 0.0003 0.0000 0.0000
# 4 0.0000 0.0001 0.0003 59.4270 0.0000 0.0000
# 5 0.0000 0.0000 0.0000 0.0000 15.8253 0.0000
# 6 0.0000 0.0000 0.0000 0.0000 0.0000 2.9811
#
#
#
# Elastic Compliance Matrix: (Units=1/GPa)
#
#
# Indices 1 2 3 4 5 6 
#
# 1 0.014680 -0.002403 0.000751 0.000000 0.000000 0.000000
# 2 -0.002403 0.010869 -0.003290 0.000000 0.000000 0.000000
# 3 0.000751 -0.003290 0.008334 0.000000 0.000000 0.000000
# 4 0.000000 0.000000 0.000000 0.016827 0.000000 0.000000
# 5 0.000000 0.000000 0.000000 0.000000 0.063190 0.000000
# 6 0.000000 0.000000 0.000000 0.000000 0.000000 0.335450
#
#
# Mechanical properties :
#
#
# Convention : Reuss Voigt Hill
#
# Bulk Modulus (GPa) = 41.67101 47.55084 44.61092
# Shear Modulus (GPa) = 10.70128 32.86988 21.78558
#
# Velocity S-wave (km/s) = 2.19623 3.84910 3.13361
# Velocity P-wave (km/s) = 5.02133 6.41770 5.76197
#
# Compressibility (1/GPa) = 0.02399750
#
# Stress axis : x y z
#
# Youngs Moduli (GPa) = 68.12115 92.00550 119.99738
#
# Poissons Ratio (x) = 0.22113 -0.09014
# Poissons Ratio (y) = 0.16373 0.39480
# Poissons Ratio (z) = -0.05117 0.30270
#
# Static dielectric constant tensor:
#      x y z
#    x 1.795010 0.000000 0.000000 
#    y 0.000000 1.858920 0.000000 
#    z 0.000000 0.000000 2.146470 
# 
# From -- ./inp_files/17025.got.cif
#   From: 2010.05.17/outbox.cif.g08.bks.cpg/sg73_9_cif.got.tgz:17025.got - 2010.06.03 17:35:07.
