data_PCOD9530307
_publ_section_title
;
Structure prediction by ZEFSAII (Michael W. Deem and Ramdas Pophale) SiO2 
 PCOD9530307
Probable space group: I B C A 
;
_chemical_formula_sum "Si O2"
_cell_formula_units_Z 96
_cell_length_a 7.873243
_cell_length_b 22.200839
_cell_length_c 23.501117
_cell_angle_alpha 90.000000
_cell_angle_beta 90.000000
_cell_angle_gamma 90.000000
_cell_volume 4107.821349
_symmetry_space_group_name_H-M "I B C A "
_symmetry_group_IT_number 73
_symmetry_cell_setting 'orthorhombic'
loop_
_space_group_symop_operation_xyz
x,y,z
-x,1/2-y,z
x,-y,1/2-z
1/2-x,y,-z
-x,-y,-z
x,1/2+y,-z
-x,y,1/2+z
1/2+x,-y,z
1/2+x,1/2+y,1/2+z
1/2-x,-y,1/2+z
1/2+x,1/2-y,-z
-x,1/2+y,1/2-z
1/2-x,1/2-y,1/2-z
1/2+x,y,1/2-z
1/2-x,1/2+y,z
x,1/2-y,1/2+z
loop_
_atom_site_type_symbol
_atom_site_label
_atom_site_fract_x
_atom_site_fract_y
_atom_site_fract_z
Si Si1 0.485392 0.126962 0.607743
Si Si2 0.222112 0.983848 0.068391
Si Si3 0.462130 0.594655 0.107100
Si Si4 0.046859 0.316591 0.007444
Si Si5 0.333722 0.204292 0.190100
Si Si6 0.665646 0.320582 0.321968
O O1 0.433586 0.062704 0.581195
O O2 0.525014 0.169604 0.554431
O O3 0.628954 0.146051 0.652295
O O4 0.316324 0.149474 0.641149
O O5 0.379669 0.950538 0.096925
O O6 0.190191 0.047859 0.098156
O O7 0.250000 0.989309 0.000000
O O8 0.506967 0.637176 0.160791
O O9 0.471673 0.638397 0.053089
O O10 0.000000 0.250000 0.025261
O O11 0.250000 0.324904 0.000000
O O12 0.500000 0.250000 0.191265
O O13 0.306119 0.181239 0.254154
O O14 0.187462 0.248810 0.166369
#
# Coordination Sequence:
#
# PCOD9530307 Si02
#       6
#    16  16  16  16  16  16
#     4  10  19  38  62  88 122 170 212 257 321 395
#     4  11  21  40  67  89 126 172 217 256 323 395
#     4  11  23  41  63  94 127 168 216 268 320 397
#     4  12  23  40  61  96 132 163 201 270 331 388
#     4   9  18  34  64  88 121 168 206 256 328 386
#     4   9  18  36  58  90 121 159 212 262 316 383
#
# _framework density 23.370054
#
# number of rings (size 3 to 8) (size 9 to 14) (size 15 to 20)
#    0.000    1.667    5.000    2.000    0.000    1.333 
#    0.000    5.833    0.000    6.000    0.000    0.000 
#    0.000    0.000    0.000    0.000    0.000    0.000 
#
# Total GULP energy -268132.935149 kJ/mol
# GULP energy per Si atom -5586.102816 kJ/mol
# Density = 2.331686 g / cm^3
# Si number density = 23.370054 Si / 1000 Ang^3
#
#
#
# Elastic Constant Matrix: (Units=GPa)
#
#
# Indices 1 2 3 4 5 6 
#
# 1 75.7290 39.9110 21.3111 0.0000 0.0000 0.0000
# 2 39.9110 197.0798 79.4851 0.0000 0.0000 0.0000
# 3 21.3111 79.4851 115.1276 0.0000 0.0000 0.0000
# 4 0.0000 0.0000 0.0000 36.3006 0.0000 0.0000
# 5 0.0000 0.0000 0.0000 0.0000 22.3542 0.0000
# 6 0.0000 0.0000 0.0000 0.0000 0.0000 53.3183
#
#
#
# Elastic Compliance Matrix: (Units=1/GPa)
#
#
# Indices 1 2 3 4 5 6 
#
# 1 0.014855 -0.002632 -0.000932 0.000000 0.000000 0.000000
# 2 -0.002632 0.007499 -0.004690 0.000000 0.000000 0.000000
# 3 -0.000932 -0.004690 0.012097 0.000000 0.000000 0.000000
# 4 0.000000 0.000000 0.000000 0.027548 0.000000 0.000000
# 5 0.000000 0.000000 0.000000 0.000000 0.044734 0.000000
# 6 0.000000 0.000000 0.000000 0.000000 0.000000 0.018755
#
#
# Mechanical properties :
#
#
# Convention : Reuss Voigt Hill
#
# Bulk Modulus (GPa) = 55.73888 74.37231 65.05560
# Shear Modulus (GPa) = 33.78914 38.87654 36.33284
#
# Velocity S-wave (km/s) = 3.80653 4.08305 3.94721
# Velocity P-wave (km/s) = 6.57434 7.35672 6.97650
#
# Compressibility (1/GPa) = 0.01794080
#
# Stress axis : x y z
#
# Youngs Moduli (GPa) = 67.31921 133.35772 82.66815
#
# Poissons Ratio (x) = 0.35102 0.07708
# Poissons Ratio (y) = 0.17719 0.38770
# Poissons Ratio (z) = 0.06277 0.62543
#
# Static dielectric constant tensor:
#      x y z
#    x 1.908770 0.000000 0.000000 
#    y 0.000000 1.865040 0.000000 
#    z 0.000000 0.000000 1.819950 
# 
# From -- ./inp_files/28393.got.cif
#   From: 2010.05.17/outbox.cif.g08.bks.cpg/sg73_15_cif.got.tgz:28393.got - 2010.06.03 17:35:07.
