data_PCOD9530605
_publ_section_title
;
Structure prediction by ZEFSAII (Michael W. Deem and Ramdas Pophale) SiO2 
 PCOD9530605
Probable space group: I B C A 
;
_chemical_formula_sum "Si O2"
_cell_formula_units_Z 80
_cell_length_a 15.306112
_cell_length_b 28.146930
_cell_length_c 8.771731
_cell_angle_alpha 90.000000
_cell_angle_beta 90.000000
_cell_angle_gamma 90.000000
_cell_volume 3779.037702
_symmetry_space_group_name_H-M "I B C A "
_symmetry_group_IT_number 73
_symmetry_cell_setting 'orthorhombic'
loop_
_space_group_symop_operation_xyz
x,y,z
-x,1/2-y,z
x,-y,1/2-z
1/2-x,y,-z
-x,-y,-z
x,1/2+y,-z
-x,y,1/2+z
1/2+x,-y,z
1/2+x,1/2+y,1/2+z
1/2-x,-y,1/2+z
1/2+x,1/2-y,-z
-x,1/2+y,1/2-z
1/2-x,1/2-y,1/2-z
1/2+x,y,1/2-z
1/2-x,1/2+y,z
x,1/2-y,1/2+z
loop_
_atom_site_type_symbol
_atom_site_label
_atom_site_fract_x
_atom_site_fract_y
_atom_site_fract_z
Si Si1 0.250000 0.476063 0.000000
Si Si2 0.881514 0.000000 0.750000
Si Si3 0.371695 0.398088 0.862075
Si Si4 0.028434 0.402561 0.830383
Si Si5 0.750000 0.682152 0.000000
Si Si6 0.500000 0.250000 0.957695
Si Si7 0.600657 0.802810 0.294174
O O1 0.319148 0.503709 0.102206
O O2 0.195014 0.441593 0.113658
O O3 0.939106 0.046997 0.767360
O O4 0.426775 0.395649 0.708115
O O5 0.316733 0.351678 0.906856
O O6 0.445762 0.403234 0.992381
O O7 0.084870 0.358489 0.762299
O O8 0.806963 0.708001 0.127693
O O9 0.424922 0.229425 0.848445
O O10 0.532610 0.209271 0.070418
#
# Coordination Sequence:
#
# PCOD9530605 Si02
#       7
#     8   8  16  16   8   8  16
#     4   9  20  36  52  81 120 150 186 229 274 321
#     4  10  22  36  56  86 116 152 186 226 278 332
#     4   9  19  35  56  81 113 153 186 227 277 327
#     4  10  20  36  57  82 113 147 189 226 273 335
#     4   9  18  34  58  81 114 146 178 233 290 325
#     4  10  22  38  62  84 108 148 190 230 280 338
#     4  10  20  38  59  84 113 146 187 232 279 331
#
# _framework density 21.169409999999999
#
# number of rings (size 3 to 8) (size 9 to 14) (size 15 to 20)
#    0.000    2.400    0.000    3.600    0.000    6.400 
#    0.000    0.000    0.000   18.000    0.000    0.000 
#    0.000    0.000    0.000    0.000    0.000    0.000 
#
# Total GULP energy -223246.632288 kJ/mol
# GULP energy per Si atom -5581.165807 kJ/mol
# Density = 2.112123 g / cm^3
# Si number density = 21.169410 Si / 1000 Ang^3
#
#
#
# Elastic Constant Matrix: (Units=GPa)
#
#
# Indices 1 2 3 4 5 6 
#
# 1 81.3971 -6.2820 19.0535 0.0033 -0.0013 -0.0002
# 2 -6.2820 63.2316 5.8363 0.0040 -0.0012 -0.0006
# 3 19.0535 5.8363 39.6110 0.0168 -0.0045 -0.0011
# 4 0.0033 0.0040 0.0168 11.1544 -0.0011 0.0002
# 5 -0.0013 -0.0012 -0.0045 -0.0011 42.9364 0.0003
# 6 -0.0002 -0.0006 -0.0011 0.0002 0.0003 11.6743
#
#
#
# Elastic Compliance Matrix: (Units=1/GPa)
#
#
# Indices 1 2 3 4 5 6 
#
# 1 0.014103 0.002055 -0.007087 0.000006 0.000000 0.000000
# 2 0.002055 0.016332 -0.003395 -0.000001 0.000000 0.000001
# 3 -0.007087 -0.003395 0.029154 -0.000041 0.000003 0.000002
# 4 0.000006 -0.000001 -0.000041 0.089651 0.000002 -0.000002
# 5 0.000000 0.000000 0.000003 0.000002 0.023290 -0.000001
# 6 0.000000 0.000001 0.000002 -0.000002 -0.000001 0.085658
#
#
# Mechanical properties :
#
#
# Convention : Reuss Voigt Hill
#
# Bulk Modulus (GPa) = 23.39887 24.60615 24.00251
# Shear Modulus (GPa) = 17.28383 24.19513 20.73948
#
# Velocity S-wave (km/s) = 2.86046 3.38439 3.13340
# Velocity P-wave (km/s) = 4.68901 5.18853 4.94508
#
# Compressibility (1/GPa) = 0.04273711
#
# Stress axis : x y z
#
# Youngs Moduli (GPa) = 70.90743 61.22796 34.30008
#
# Poissons Ratio (x) = -0.12583 0.24307
# Poissons Ratio (y) = -0.14573 0.11645
# Poissons Ratio (z) = 0.50249 0.20787
#
# Static dielectric constant tensor:
#      x y z
#    x 1.777230 0.000000 0.000000 
#    y 0.000000 1.776940 0.000000 
#    z 0.000000 0.000000 1.775090 
# 
# From -- ./inp_files/5639.got.cif
#   From: 2010.05.17/outbox.cif.g08.bks.cpg/sg73_3_cif.got.tgz:5639.got - 2010.06.03 17:35:07.
