data_PCOD9530617
_publ_section_title
;
Structure prediction by ZEFSAII (Michael W. Deem and Ramdas Pophale) SiO2 
 PCOD9530617
Probable space group: I B C A 
;
_chemical_formula_sum "Si O2"
_cell_formula_units_Z 104
_cell_length_a 7.487784
_cell_length_b 27.819097
_cell_length_c 23.451903
_cell_angle_alpha 90.000000
_cell_angle_beta 90.000000
_cell_angle_gamma 90.000000
_cell_volume 4885.110883
_symmetry_space_group_name_H-M "I B C A "
_symmetry_group_IT_number 73
_symmetry_cell_setting 'orthorhombic'
loop_
_space_group_symop_operation_xyz
x,y,z
-x,1/2-y,z
x,-y,1/2-z
1/2-x,y,-z
-x,-y,-z
x,1/2+y,-z
-x,y,1/2+z
1/2+x,-y,z
1/2+x,1/2+y,1/2+z
1/2-x,-y,1/2+z
1/2+x,1/2-y,-z
-x,1/2+y,1/2-z
1/2-x,1/2-y,1/2-z
1/2+x,y,1/2-z
1/2-x,1/2+y,z
x,1/2-y,1/2+z
loop_
_atom_site_type_symbol
_atom_site_label
_atom_site_fract_x
_atom_site_fract_y
_atom_site_fract_z
Si Si1 0.476293 0.832735 0.317781
Si Si2 0.000000 0.250000 0.224004
Si Si3 0.150231 0.537777 0.827902
Si Si4 0.294082 0.708776 0.624981
Si Si5 0.750000 0.330192 0.000000
Si Si6 0.380590 0.366217 0.380350
Si Si7 0.948772 0.061375 0.799479
Si Si8 0.500000 0.250000 0.477783
O O1 0.489030 0.797122 0.263752
O O2 0.593020 0.808033 0.367198
O O3 0.276887 0.847234 0.337720
O O4 0.584527 0.882258 0.305224
O O5 0.837564 0.243325 0.179000
O O6 0.074571 0.577635 0.870564
O O7 0.154975 0.480109 0.833948
O O8 0.059437 0.548796 0.767166
O O9 0.353197 0.552784 0.820871
O O10 0.442493 0.666166 0.627905
O O11 0.341923 0.734696 0.566126
O O12 0.700122 0.359100 0.943378
O O13 0.577616 0.295877 0.009330
#
# Coordination Sequence:
#
# PCOD9530617 Si02
#       8
#    16   8  16  16   8  16  16   8
#     4  11  25  35  59  86 120 164 191 244 290 373
#     4  11  24  35  54  86 132 159 194 231 300 364
#     4  10  20  36  58  88 119 153 197 244 294 362
#     4  10  23  39  54  86 120 162 196 237 299 363
#     4  10  22  42  62  84 116 154 208 268 302 350
#     4  10  24  40  60  88 116 153 209 250 305 348
#     4  10  21  34  57  88 115 160 192 236 299 356
#     4   9  22  37  60  84 106 159 204 249 302 356
#
# _framework density 21.289179000000001
#
# number of rings (size 3 to 8) (size 9 to 14) (size 15 to 20)
#    0.000    1.846    0.000    3.231   19.385    0.000 
#    0.000    0.000    0.000    3.692    0.000    0.000 
#    0.000    0.000    0.000    0.000    0.000    0.000 
#
# Total GULP energy -290244.725551 kJ/mol
# GULP energy per Si atom -5581.629338 kJ/mol
# Density = 2.124072 g / cm^3
# Si number density = 21.289179 Si / 1000 Ang^3
#
#
#
# Elastic Constant Matrix: (Units=GPa)
#
#
# Indices 1 2 3 4 5 6 
#
# 1 29.2887 5.1097 3.1374 0.0000 0.0000 0.0000
# 2 5.1097 155.5996 53.3259 0.0000 0.0000 0.0000
# 3 3.1374 53.3259 86.2510 0.0000 0.0000 0.0000
# 4 0.0000 0.0000 0.0000 30.2899 0.0000 0.0000
# 5 0.0000 0.0000 0.0000 0.0000 6.6799 0.0000
# 6 0.0000 0.0000 0.0000 0.0000 0.0000 30.3769
#
#
#
# Elastic Compliance Matrix: (Units=1/GPa)
#
#
# Indices 1 2 3 4 5 6 
#
# 1 0.034373 -0.000889 -0.000701 0.000000 0.000000 0.000000
# 2 -0.000889 0.008178 -0.005024 0.000000 0.000000 0.000000
# 3 -0.000701 -0.005024 0.014725 0.000000 0.000000 0.000000
# 4 0.000000 0.000000 0.000000 0.033014 0.000000 0.000000
# 5 0.000000 0.000000 0.000000 0.000000 0.149704 0.000000
# 6 0.000000 0.000000 0.000000 0.000000 0.000000 0.032920
#
#
# Mechanical properties :
#
#
# Convention : Reuss Voigt Hill
#
# Bulk Modulus (GPa) = 22.70155 43.80948 33.25552
# Shear Modulus (GPa) = 16.62106 27.44042 22.03074
#
# Velocity S-wave (km/s) = 2.79718 3.59407 3.22037
# Velocity P-wave (km/s) = 4.59553 6.15192 5.42978
#
# Compressibility (1/GPa) = 0.04404985
#
# Stress axis : x y z
#
# Youngs Moduli (GPa) = 29.09258 122.28577 67.90961
#
# Poissons Ratio (x) = 0.10865 0.04760
# Poissons Ratio (y) = 0.02585 0.34115
# Poissons Ratio (z) = 0.02039 0.61431
#
# Static dielectric constant tensor:
#      x y z
#    x 1.845250 0.000000 0.000000 
#    y 0.000000 1.915230 0.000000 
#    z 0.000000 0.000000 1.750950 
# 
# From -- ./inp_files/8510.got.cif
#   From: 2010.05.17/outbox.cif.g08.bks.cpg/sg73_5_cif.got.tgz:8510.got - 2010.06.03 17:35:07.
