data_PCOD9530482
_publ_section_title
;
Structure prediction by ZEFSAII (Michael W. Deem and Ramdas Pophale) SiO2 
 PCOD9530482
Probable space group: I B C A 
;
_chemical_formula_sum "Si O2"
_cell_formula_units_Z 64
_cell_length_a 20.766990
_cell_length_b 5.123155
_cell_length_c 28.861831
_cell_angle_alpha 90.000000
_cell_angle_beta 90.000000
_cell_angle_gamma 90.000000
_cell_volume 3070.682604
_symmetry_space_group_name_H-M "I B C A "
_symmetry_group_IT_number 73
_symmetry_cell_setting 'orthorhombic'
loop_
_space_group_symop_operation_xyz
x,y,z
-x,1/2-y,z
x,-y,1/2-z
1/2-x,y,-z
-x,-y,-z
x,1/2+y,-z
-x,y,1/2+z
1/2+x,-y,z
1/2+x,1/2+y,1/2+z
1/2-x,-y,1/2+z
1/2+x,1/2-y,-z
-x,1/2+y,1/2-z
1/2-x,1/2-y,1/2-z
1/2+x,y,1/2-z
1/2-x,1/2+y,z
x,1/2-y,1/2+z
loop_
_atom_site_type_symbol
_atom_site_label
_atom_site_fract_x
_atom_site_fract_y
_atom_site_fract_z
Si Si1 0.321165 0.554438 0.520075
Si Si2 0.117823 0.240640 0.604469
Si Si3 0.042367 0.000000 0.250000
Si Si4 0.922756 0.741577 0.155251
Si Si5 0.500000 0.250000 0.967250
O O1 0.250000 0.505563 0.500000
O O2 0.352755 0.272113 0.513199
O O3 0.322357 0.659058 0.572166
O O4 0.114397 0.529603 0.624470
O O5 0.060110 0.223377 0.567434
O O6 0.104908 0.026280 0.644136
O O7 0.080013 0.131970 0.292392
O O8 0.000000 0.250000 0.232062
O O9 0.000000 0.750000 0.144490
O O10 0.500000 0.500000 0.000000
#
# Coordination Sequence:
#
# PCOD9530482 Si02
#       5
#    16  16   8  16   8
#     4  10  21  38  56  75 105 143 188 242 283 324
#     4  12  21  34  53  77 110 146 192 235 268 336
#     4  10  20  34  54  76 110 156 190 226 284 336
#     4  11  20  35  51  79 112 148 188 228 276 342
#     4  12  22  32  46  70 108 148 182 220 276 316
#
# _framework density 20.842272999999999
#
# number of rings (size 3 to 8) (size 9 to 14) (size 15 to 20)
#    0.000    1.000    2.500    7.500    0.000    0.000 
#    0.000    0.000    0.000    0.000    0.000    0.000 
#    0.000   80.000    0.000    0.000    0.000    0.000 
#
# Total GULP energy -178647.645265 kJ/mol
# GULP energy per Si atom -5582.738915 kJ/mol
# Density = 2.079483 g / cm^3
# Si number density = 20.842273 Si / 1000 Ang^3
#
#
#
# Elastic Constant Matrix: (Units=GPa)
#
#
# Indices 1 2 3 4 5 6 
#
# 1 40.9856 -7.1091 14.8828 0.0000 0.0000 0.0000
# 2 -7.1091 133.0549 17.2086 0.0000 0.0000 0.0000
# 3 14.8828 17.2086 100.5156 0.0000 0.0000 0.0000
# 4 0.0000 0.0000 0.0000 31.1566 0.0000 0.0000
# 5 0.0000 0.0000 0.0000 0.0000 23.9270 0.0000
# 6 0.0000 0.0000 0.0000 0.0000 0.0000 16.2751
#
#
#
# Elastic Compliance Matrix: (Units=1/GPa)
#
#
# Indices 1 2 3 4 5 6 
#
# 1 0.026271 0.001950 -0.004224 0.000000 0.000000 0.000000
# 2 0.001950 0.007831 -0.001629 0.000000 0.000000 0.000000
# 3 -0.004224 -0.001629 0.010853 0.000000 0.000000 0.000000
# 4 0.000000 0.000000 0.000000 0.032096 0.000000 0.000000
# 5 0.000000 0.000000 0.000000 0.000000 0.041794 0.000000
# 6 0.000000 0.000000 0.000000 0.000000 0.000000 0.061444
#
#
# Mechanical properties :
#
#
# Convention : Reuss Voigt Hill
#
# Bulk Modulus (GPa) = 26.91916 36.05786 31.48851
# Shear Modulus (GPa) = 24.94059 30.91000 27.92529
#
# Velocity S-wave (km/s) = 3.46299 3.85521 3.66435
# Velocity P-wave (km/s) = 5.37898 6.09547 5.74840
#
# Compressibility (1/GPa) = 0.03714826
#
# Stress axis : x y z
#
# Youngs Moduli (GPa) = 38.06519 127.70403 92.14022
#
# Poissons Ratio (x) = -0.24901 0.38916
# Poissons Ratio (y) = -0.07422 0.15013
# Poissons Ratio (z) = 0.16077 0.20807
#
# Static dielectric constant tensor:
#      x y z
#    x 2.099210 0.000000 0.000000 
#    y 0.000000 1.845220 0.000000 
#    z 0.000000 0.000000 1.780500 
# 
# From -- ./inp_files/2079.got.cif
#   From: 2010.05.17/outbox.cif.g08.bks.cpg/sg73_2_cif.got.tgz:2079.got - 2010.06.03 17:35:07.
