data_PCOD9530021
_publ_section_title
;
Structure prediction by ZEFSAII (Michael W. Deem and Ramdas Pophale) SiO2 
 PCOD9530021
Probable space group: I B C A 
;
_chemical_formula_sum "Si O2"
_cell_formula_units_Z 96
_cell_length_a 17.839686
_cell_length_b 17.408328
_cell_length_c 15.739248
_cell_angle_alpha 90.000000
_cell_angle_beta 90.000000
_cell_angle_gamma 90.000000
_cell_volume 4887.966777
_symmetry_space_group_name_H-M "I B C A "
_symmetry_group_IT_number 73
_symmetry_cell_setting 'orthorhombic'
loop_
_space_group_symop_operation_xyz
x,y,z
-x,1/2-y,z
x,-y,1/2-z
1/2-x,y,-z
-x,-y,-z
x,1/2+y,-z
-x,y,1/2+z
1/2+x,-y,z
1/2+x,1/2+y,1/2+z
1/2-x,-y,1/2+z
1/2+x,1/2-y,-z
-x,1/2+y,1/2-z
1/2-x,1/2-y,1/2-z
1/2+x,y,1/2-z
1/2-x,1/2+y,z
x,1/2-y,1/2+z
loop_
_atom_site_type_symbol
_atom_site_label
_atom_site_fract_x
_atom_site_fract_y
_atom_site_fract_z
Si Si1 0.419597 0.224344 0.429088
Si Si2 0.266087 0.792669 0.162798
Si Si3 0.657553 0.032040 0.657105
Si Si4 0.179236 0.173548 0.949851
Si Si5 0.427522 0.946632 0.007117
Si Si6 0.713253 0.050980 0.094321
O O1 0.500000 0.250000 0.393850
O O2 0.353826 0.208011 0.361285
O O3 0.384052 0.291632 0.488374
O O4 0.434416 0.145043 0.480533
O O5 0.250000 0.750000 0.250000
O O6 0.220465 0.745322 0.092614
O O7 0.233978 0.877825 0.154230
O O8 0.645063 0.118219 0.622628
O O9 0.639028 0.000000 0.750000
O O10 0.614946 0.978017 0.590370
O O11 0.745790 0.019190 0.639448
O O12 0.250000 0.134474 0.000000
O O13 0.373262 0.959869 0.926594
O O14 0.500000 0.000000 0.000000
O O15 0.750000 0.065814 0.000000
#
# Coordination Sequence:
#
# PCOD9530021 Si02
#       6
#    16  16  16  16  16  16
#     4  11  22  39  62  91 130 170 222 276 322 395
#     4  11  20  37  64  93 126 171 218 271 335 396
#     4  11  22  37  62  95 128 162 214 276 330 386
#     4  10  20  36  60  92 121 166 223 260 314 407
#     4  11  22  40  65  89 125 176 220 266 329 397
#     4  10  18  39  65  86 121 173 216 259 319 401
#
# _framework density 19.640067999999999
#
# number of rings (size 3 to 8) (size 9 to 14) (size 15 to 20)
#    0.000    1.333    5.000    4.000    0.000    1.333 
#    0.000    3.333    0.000    0.000    0.000    0.000 
#    0.000    0.000    0.000    0.000    0.000    0.000 
#
# Total GULP energy -267618.951405 kJ/mol
# GULP energy per Si atom -5575.394821 kJ/mol
# Density = 1.959537 g / cm^3
# Si number density = 19.640068 Si / 1000 Ang^3
#
#
#
# Elastic Constant Matrix: (Units=GPa)
#
#
# Indices 1 2 3 4 5 6 
#
# 1 132.6375 27.5280 41.0310 0.0000 0.0000 0.0000
# 2 27.5280 81.2448 21.0770 0.0000 0.0000 0.0000
# 3 41.0310 21.0770 69.0931 0.0000 0.0000 0.0000
# 4 0.0000 0.0000 0.0000 22.5827 0.0000 0.0000
# 5 0.0000 0.0000 0.0000 0.0000 13.7246 0.0000
# 6 0.0000 0.0000 0.0000 0.0000 0.0000 29.3035
#
#
#
# Elastic Compliance Matrix: (Units=1/GPa)
#
#
# Indices 1 2 3 4 5 6 
#
# 1 0.009500 -0.001906 -0.005060 0.000000 0.000000 0.000000
# 2 -0.001906 0.013749 -0.003062 0.000000 0.000000 0.000000
# 3 -0.005060 -0.003062 0.018412 0.000000 0.000000 0.000000
# 4 0.000000 0.000000 0.000000 0.044282 0.000000 0.000000
# 5 0.000000 0.000000 0.000000 0.000000 0.072862 0.000000
# 6 0.000000 0.000000 0.000000 0.000000 0.000000 0.034126
#
#
# Mechanical properties :
#
#
# Convention : Reuss Voigt Hill
#
# Bulk Modulus (GPa) = 46.28707 51.36081 48.82394
# Shear Modulus (GPa) = 22.70773 26.01146 24.35959
#
# Velocity S-wave (km/s) = 3.40397 3.64319 3.52561
# Velocity P-wave (km/s) = 6.25046 6.62608 6.44101
#
# Compressibility (1/GPa) = 0.02160431
#
# Stress axis : x y z
#
# Youngs Moduli (GPa) = 105.25915 72.73398 54.31126
#
# Poissons Ratio (x) = 0.13865 0.27483
# Poissons Ratio (y) = 0.20065 0.16630
# Poissons Ratio (z) = 0.53264 0.22272
#
# Static dielectric constant tensor:
#      x y z
#    x 1.724090 0.000000 0.000000 
#    y 0.000000 1.769290 0.000000 
#    z 0.000000 0.000000 1.708500 
# 
# From -- ./inp_files/22539.got.cif
#   From: 2010.05.17/outbox.cif.g08.bks.cpg/sg73_12_cif.got.tgz:22539.got - 2010.06.03 17:35:07.
