data_PCOD9530836
_publ_section_title
;
Structure prediction by ZEFSAII (Michael W. Deem and Ramdas Pophale) SiO2 
 PCOD9530836
Probable space group: I B C A 
;
_chemical_formula_sum "Si O2"
_cell_formula_units_Z 72
_cell_length_a 8.667788
_cell_length_b 27.718784
_cell_length_c 14.272582
_cell_angle_alpha 90.000000
_cell_angle_beta 90.000000
_cell_angle_gamma 90.000000
_cell_volume 3429.138306
_symmetry_space_group_name_H-M "I B C A "
_symmetry_group_IT_number 73
_symmetry_cell_setting 'orthorhombic'
loop_
_space_group_symop_operation_xyz
x,y,z
-x,1/2-y,z
x,-y,1/2-z
1/2-x,y,-z
-x,-y,-z
x,1/2+y,-z
-x,y,1/2+z
1/2+x,-y,z
1/2+x,1/2+y,1/2+z
1/2-x,-y,1/2+z
1/2+x,1/2-y,-z
-x,1/2+y,1/2-z
1/2-x,1/2-y,1/2-z
1/2+x,y,1/2-z
1/2-x,1/2+y,z
x,1/2-y,1/2+z
loop_
_atom_site_type_symbol
_atom_site_label
_atom_site_fract_x
_atom_site_fract_y
_atom_site_fract_z
Si Si1 0.902573 0.299090 0.653046
Si Si2 0.080871 0.637986 0.994438
Si Si3 0.134497 0.068254 0.170105
Si Si4 0.586492 0.653407 0.815348
Si Si5 0.121451 0.500000 0.250000
O O1 0.718241 0.307532 0.656545
O O2 0.000000 0.250000 0.642158
O O3 0.963819 0.331730 0.568559
O O4 0.961245 0.320219 0.751493
O O5 0.116068 0.591252 0.931548
O O6 0.250000 0.662878 0.000000
O O7 0.000827 0.631811 0.094571
O O8 0.152940 0.110861 0.248223
O O9 0.272883 0.030831 0.180395
O O10 0.983307 0.038283 0.196422
#
# Coordination Sequence:
#
# PCOD9530836 Si02
#       5
#    16  16  16  16   8
#     4  11  24  40  63  94 122 161 210 260 314 374
#     4  11  23  40  62  90 126 167 208 254 313 379
#     4  10  21  40  61  90 123 165 210 257 318 373
#     4  11  22  42  65  88 127 170 208 259 319 382
#     4  10  20  38  64  88 124 160 208 270 310 368
#
# _framework density 20.996528999999999
#
# number of rings (size 3 to 8) (size 9 to 14) (size 15 to 20)
#    0.000    1.333    0.000    8.000    0.000    2.667 
#    0.000   12.222    0.000    0.000    0.000    0.000 
#    0.000    0.000    0.000    0.000    0.000    0.000 
#
# Total GULP energy -201026.177402 kJ/mol
# GULP energy per Si atom -5584.060483 kJ/mol
# Density = 2.094874 g / cm^3
# Si number density = 20.996529 Si / 1000 Ang^3
#
#
#
# Elastic Constant Matrix: (Units=GPa)
#
#
# Indices 1 2 3 4 5 6 
#
# 1 102.1131 8.3132 26.8265 0.0000 0.0000 0.0000
# 2 8.3132 69.2848 21.2584 0.0000 0.0000 0.0000
# 3 26.8265 21.2584 105.0637 0.0001 0.0000 -0.0001
# 4 0.0000 0.0000 0.0001 -8.8738 0.0000 -0.0001
# 5 0.0000 0.0000 0.0000 0.0000 -1.2029 0.0000
# 6 0.0000 0.0000 -0.0001 -0.0001 0.0000 62.1642
#
#
#
# Elastic Compliance Matrix: (Units=1/GPa)
#
#
# Indices 1 2 3 4 5 6 
#
# 1 0.010511 -0.000467 -0.002589 0.000000 0.000000 0.000000
# 2 -0.000467 0.015409 -0.002999 0.000000 0.000000 0.000000
# 3 -0.002589 -0.002999 0.010786 0.000000 0.000000 0.000000
# 4 0.000000 0.000000 0.000000 -0.112692 0.000000 0.000000
# 5 0.000000 0.000000 0.000000 0.000000 -0.831312 0.000000
# 6 0.000000 0.000000 0.000000 0.000000 0.000000 0.016086
#
#
# Mechanical properties :
#
#
# Convention : Reuss Voigt Hill
#
# Bulk Modulus (GPa) = 40.65572 43.25088 41.95330
# Shear Modulus (GPa) = -5.74118 25.08840 9.67361
#
# Velocity S-wave (km/s) = -1.65538 3.46046 2.14878
# Velocity P-wave (km/s) = 3.96880 6.05063 5.11671
#
# Compressibility (1/GPa) = 0.02459679
#
# Stress axis : x y z
#
# Youngs Moduli (GPa) = 95.13525 64.89600 92.71297
#
# Poissons Ratio (x) = 0.03029 0.24008
# Poissons Ratio (y) = 0.04440 0.27802
# Poissons Ratio (z) = 0.24635 0.19461
#
# Static dielectric constant tensor:
#      x y z
#    x 1.784010 0.000000 0.000000 
#    y 0.000000 1.781440 0.000000 
#    z 0.000000 0.000000 1.755810 
# 
# From -- ./inp_files/4798.got.cif
#   From: 2010.05.17/outbox.cif.g08.bks.cpg/sg73_3_cif.got.tgz:4798.got - 2010.06.03 17:35:07.
