data_PCOD9530405
_publ_section_title
;
Structure prediction by ZEFSAII (Michael W. Deem and Ramdas Pophale) SiO2 
 PCOD9530405
Probable space group: I B C A 
;
_chemical_formula_sum "Si O2"
_cell_formula_units_Z 80
_cell_length_a 8.759079
_cell_length_b 34.860372
_cell_length_c 12.446381
_cell_angle_alpha 90.000000
_cell_angle_beta 90.000000
_cell_angle_gamma 90.000000
_cell_volume 3800.437124
_symmetry_space_group_name_H-M "I B C A "
_symmetry_group_IT_number 73
_symmetry_cell_setting 'orthorhombic'
loop_
_space_group_symop_operation_xyz
x,y,z
-x,1/2-y,z
x,-y,1/2-z
1/2-x,y,-z
-x,-y,-z
x,1/2+y,-z
-x,y,1/2+z
1/2+x,-y,z
1/2+x,1/2+y,1/2+z
1/2-x,-y,1/2+z
1/2+x,1/2-y,-z
-x,1/2+y,1/2-z
1/2-x,1/2-y,1/2-z
1/2+x,y,1/2-z
1/2-x,1/2+y,z
x,1/2-y,1/2+z
loop_
_atom_site_type_symbol
_atom_site_label
_atom_site_fract_x
_atom_site_fract_y
_atom_site_fract_z
Si Si1 0.955903 0.325491 0.631454
Si Si2 0.262853 0.549604 0.870108
Si Si3 0.000000 0.250000 0.766827
Si Si4 0.258489 0.134843 0.211113
Si Si5 0.510533 0.500000 0.750000
Si Si6 0.101673 0.696110 0.071215
O O1 0.093362 0.354763 0.661211
O O2 0.961172 0.310731 0.508944
O O3 0.011402 0.287272 0.694726
O O4 0.800816 0.345718 0.673798
O O5 0.279906 0.590156 0.808534
O O6 0.405283 0.523648 0.832844
O O7 0.115806 0.528301 0.820274
O O8 0.250000 0.554310 0.000000
O O9 0.880902 0.266503 0.853658
O O10 0.383261 0.158073 0.141618
O O11 0.250000 0.696984 0.000000
#
# Coordination Sequence:
#
# PCOD9530405 Si02
#       6
#    16  16   8  16   8  16
#     4  10  20  35  52  77 107 142 188 232 273 333
#     4  11  21  40  63  88 123 156 193 246 295 358
#     4  10  20  30  50  76 104 142 186 232 276 322
#     4  10  21  36  57  79 106 146 185 226 285 337
#     4  10  24  38  62  96 118 154 200 234 300 366
#     4   9  19  33  49  73 103 143 182 222 281 331
#
# _framework density 21.050211000000001
#
# number of rings (size 3 to 8) (size 9 to 14) (size 15 to 20)
#    0.000    2.000    0.000    4.200    0.000    8.800 
#    0.000    3.000    0.000    7.200    0.000    0.000 
#    0.000    0.000    0.000    0.000    0.000    0.000 
#
# Total GULP energy -222675.095126 kJ/mol
# GULP energy per Si atom -5566.877378 kJ/mol
# Density = 2.100230 g / cm^3
# Si number density = 21.050211 Si / 1000 Ang^3
#
#
#
# Elastic Constant Matrix: (Units=GPa)
#
#
# Indices 1 2 3 4 5 6 
#
# 1 49.9146 21.6296 8.6367 -0.0001 0.0000 0.0000
# 2 21.6296 145.1679 19.3419 -0.0003 0.0001 0.0000
# 3 8.6367 19.3419 78.6226 -0.0010 0.0000 -0.0001
# 4 -0.0001 -0.0003 -0.0010 10.6101 0.0001 0.0000
# 5 0.0000 0.0001 0.0000 0.0001 17.4675 0.0000
# 6 0.0000 0.0000 -0.0001 0.0000 0.0000 15.9378
#
#
#
# Elastic Compliance Matrix: (Units=1/GPa)
#
#
# Indices 1 2 3 4 5 6 
#
# 1 0.021619 -0.003003 -0.001636 0.000000 0.000000 0.000000
# 2 -0.003003 0.007539 -0.001525 0.000000 0.000000 0.000000
# 3 -0.001636 -0.001525 0.013274 0.000001 0.000000 0.000000
# 4 0.000000 0.000000 0.000001 0.094250 -0.000001 0.000000
# 5 0.000000 0.000000 0.000000 -0.000001 0.057249 0.000000
# 6 0.000000 0.000000 0.000000 0.000000 0.000000 0.062744
#
#
# Mechanical properties :
#
#
# Convention : Reuss Voigt Hill
#
# Bulk Modulus (GPa) = 33.21845 41.43574 37.32709
# Shear Modulus (GPa) = 17.91874 23.74286 20.83080
#
# Velocity S-wave (km/s) = 2.92076 3.36209 3.14917
# Velocity P-wave (km/s) = 5.21434 5.89903 5.56722
#
# Compressibility (1/GPa) = 0.03010375
#
# Stress axis : x y z
#
# Youngs Moduli (GPa) = 46.25631 132.64007 75.33625
#
# Poissons Ratio (x) = 0.39834 0.12325
# Poissons Ratio (y) = 0.13891 0.11487
# Poissons Ratio (z) = 0.07568 0.20225
#
# Static dielectric constant tensor:
#      x y z
#    x 1.814850 0.000000 0.000000 
#    y 0.000000 1.746160 0.000000 
#    z 0.000000 0.000000 1.868060 
# 
# From -- ./inp_files/9807.got.cif
#   From: 2010.05.17/outbox.cif.g08.bks.cpg/sg73_5_cif.got.tgz:9807.got - 2010.06.03 17:35:07.
