data_PCOD9530133
_publ_section_title
;
Structure prediction by ZEFSAII (Michael W. Deem and Ramdas Pophale) SiO2 
 PCOD9530133
Probable space group: I B C A 
;
_chemical_formula_sum "Si O2"
_cell_formula_units_Z 72
_cell_length_a 18.296149
_cell_length_b 16.459939
_cell_length_c 10.618303
_cell_angle_alpha 90.000000
_cell_angle_beta 90.000000
_cell_angle_gamma 90.000000
_cell_volume 3197.739075
_symmetry_space_group_name_H-M "I B C A "
_symmetry_group_IT_number 73
_symmetry_cell_setting 'orthorhombic'
loop_
_space_group_symop_operation_xyz
x,y,z
-x,1/2-y,z
x,-y,1/2-z
1/2-x,y,-z
-x,-y,-z
x,1/2+y,-z
-x,y,1/2+z
1/2+x,-y,z
1/2+x,1/2+y,1/2+z
1/2-x,-y,1/2+z
1/2+x,1/2-y,-z
-x,1/2+y,1/2-z
1/2-x,1/2-y,1/2-z
1/2+x,y,1/2-z
1/2-x,1/2+y,z
x,1/2-y,1/2+z
loop_
_atom_site_type_symbol
_atom_site_label
_atom_site_fract_x
_atom_site_fract_y
_atom_site_fract_z
Si Si1 0.750000 0.309556 0.000000
Si Si2 0.578078 0.645855 0.723626
Si Si3 0.858964 0.195501 0.107036
Si Si4 0.494953 0.651635 0.477407
Si Si5 0.261859 0.406692 0.246655
O O1 0.822249 0.254653 0.004394
O O2 0.749731 0.365199 0.119926
O O3 0.601803 0.741507 0.704857
O O4 0.553551 0.620463 0.581144
O O5 0.651336 0.602886 0.773156
O O6 0.515903 0.630791 0.830060
O O7 0.917901 0.136724 0.046656
O O8 0.790638 0.145637 0.158535
O O9 0.500000 0.750000 0.479249
O O10 0.241046 0.500000 0.250000
#
# Coordination Sequence:
#
# PCOD9530133 Si02
#       5
#     8  16  16  16  16
#     4  10  20  36  62  88 118 160 208 254 308 368
#     4  10  21  37  60  90 124 162 208 258 309 372
#     4  10  19  36  63  90 120 159 209 260 313 373
#     4  10  19  33  59  91 118 156 210 262 306 361
#     4  11  24  40  60  94 131 166 206 259 318 377
#
# _framework density 22.515909000000001
#
# number of rings (size 3 to 8) (size 9 to 14) (size 15 to 20)
#    0.000    1.778    0.000    7.333    0.000    6.222 
#    0.000    2.222    0.000    0.000    0.000    9.333 
#    0.000    0.000    0.000    0.000    0.000    0.000 
#
# Total GULP energy -200810.157891 kJ/mol
# GULP energy per Si atom -5578.059941 kJ/mol
# Density = 2.246466 g / cm^3
# Si number density = 22.515909 Si / 1000 Ang^3
#
#
#
# Elastic Constant Matrix: (Units=GPa)
#
#
# Indices 1 2 3 4 5 6 
#
# 1 93.5759 10.0574 37.2878 0.0000 0.0000 0.0000
# 2 10.0574 39.1807 5.8511 0.0000 0.0000 0.0000
# 3 37.2878 5.8511 85.6220 0.0000 0.0000 0.0000
# 4 0.0000 0.0000 0.0000 50.3440 0.0000 0.0000
# 5 0.0000 0.0000 0.0000 0.0000 47.6405 0.0000
# 6 0.0000 0.0000 0.0000 0.0000 0.0000 5.8162
#
#
#
# Elastic Compliance Matrix: (Units=1/GPa)
#
#
# Indices 1 2 3 4 5 6 
#
# 1 0.013178 -0.002552 -0.005565 0.000000 0.000000 0.000000
# 2 -0.002552 0.026280 -0.000685 0.000000 0.000000 0.000000
# 3 -0.005565 -0.000685 0.014149 0.000000 0.000000 0.000000
# 4 0.000000 0.000000 0.000000 0.019863 0.000000 0.000000
# 5 0.000000 0.000000 0.000000 0.000000 0.020991 0.000000
# 6 0.000000 0.000000 0.000000 0.000000 0.000000 0.171934
#
#
# Mechanical properties :
#
#
# Convention : Reuss Voigt Hill
#
# Bulk Modulus (GPa) = 27.77348 36.08571 31.92959
# Shear Modulus (GPa) = 16.89193 31.77228 24.33210
#
# Velocity S-wave (km/s) = 2.74199 3.76054 3.29091
# Velocity P-wave (km/s) = 4.73144 5.90907 5.35274
#
# Compressibility (1/GPa) = 0.03600557
#
# Stress axis : x y z
#
# Youngs Moduli (GPa) = 75.88324 38.05173 70.67443
#
# Poissons Ratio (x) = 0.09710 0.39328
# Poissons Ratio (y) = 0.19363 0.04839
# Poissons Ratio (z) = 0.42226 0.02605
#
# Static dielectric constant tensor:
#      x y z
#    x 1.967000 0.000000 0.000000 
#    y 0.000000 1.804090 0.000000 
#    z 0.000000 0.000000 1.888260 
# 
# From -- ./inp_files/12643.got.cif
#   From: 2010.05.17/outbox.cif.g08.bks.cpg/sg73_7_cif.got.tgz:12643.got - 2010.06.03 17:35:07.
