data_PCOD9530596
_publ_section_title
;
Structure prediction by ZEFSAII (Michael W. Deem and Ramdas Pophale) SiO2 
 PCOD9530596
Probable space group: I B C A 
;
_chemical_formula_sum "Si O2"
_cell_formula_units_Z 120
_cell_length_a 17.236583
_cell_length_b 16.821006
_cell_length_c 16.838229
_cell_angle_alpha 90.000000
_cell_angle_beta 90.000000
_cell_angle_gamma 90.000000
_cell_volume 4882.019979
_symmetry_space_group_name_H-M "I B C A "
_symmetry_group_IT_number 73
_symmetry_cell_setting 'orthorhombic'
loop_
_space_group_symop_operation_xyz
x,y,z
-x,1/2-y,z
x,-y,1/2-z
1/2-x,y,-z
-x,-y,-z
x,1/2+y,-z
-x,y,1/2+z
1/2+x,-y,z
1/2+x,1/2+y,1/2+z
1/2-x,-y,1/2+z
1/2+x,1/2-y,-z
-x,1/2+y,1/2-z
1/2-x,1/2-y,1/2-z
1/2+x,y,1/2-z
1/2-x,1/2+y,z
x,1/2-y,1/2+z
loop_
_atom_site_type_symbol
_atom_site_label
_atom_site_fract_x
_atom_site_fract_y
_atom_site_fract_z
Si Si1 0.657880 0.329923 0.795760
Si Si2 0.865880 0.432932 0.609710
Si Si3 0.085890 0.009247 0.155151
Si Si4 0.339446 0.161367 0.243011
Si Si5 0.991826 0.836083 0.475583
Si Si6 0.250000 0.836897 0.000000
Si Si7 0.072014 0.408893 0.393046
Si Si8 0.631254 0.151325 0.111612
O O1 0.613877 0.397158 0.848643
O O2 0.647986 0.234876 0.805082
O O3 0.751377 0.340642 0.789959
O O4 0.627057 0.334661 0.704558
O O5 0.850848 0.413377 0.700406
O O6 0.948429 0.396253 0.581705
O O7 0.809115 0.388587 0.550562
O O8 0.861326 0.526067 0.601266
O O9 0.091779 0.000000 0.250000
O O10 0.142131 0.945686 0.110213
O O11 0.003640 0.963282 0.132844
O O12 0.402959 0.154313 0.173310
O O13 0.940676 0.826253 0.556615
O O14 0.000000 0.750000 0.438615
O O15 0.064419 0.874721 0.518678
O O16 0.199605 0.798538 0.069724
#
# Coordination Sequence:
#
# PCOD9530596 Si02
#       8
#    16  16  16  16  16   8  16  16
#     4  10  21  38  62  96 133 167 210 276 341 395
#     4  11  23  39  64  90 126 172 215 271 321 393
#     4   9  19  35  58  88 121 161 202 259 323 381
#     4  11  23  38  64  99 132 167 219 280 341 392
#     4  10  22  41  63  90 130 177 214 262 334 399
#     4  10  20  36  56  84 114 162 216 250 318 376
#     4  11  23  41  65  97 128 167 226 276 326 392
#     4   9  18  35  61  83 118 168 212 255 319 389
#
# _framework density 24.579989999999999
#
# number of rings (size 3 to 8) (size 9 to 14) (size 15 to 20)
#    0.000    1.867    1.333    2.400    1.867    2.133 
#    0.000    4.667    0.000    0.800    0.000    0.000 
#    0.000    0.000    0.000    0.000    0.000    0.000 
#
# Total GULP energy -334206.600972 kJ/mol
# GULP energy per Si atom -5570.110016 kJ/mol
# Density = 2.452405 g / cm^3
# Si number density = 24.579990 Si / 1000 Ang^3
#
#
#
# Elastic Constant Matrix: (Units=GPa)
#
#
# Indices 1 2 3 4 5 6 
#
# 1 51.7938 21.1699 25.0128 0.0000 0.0000 0.0000
# 2 21.1699 111.1344 9.5367 0.0000 0.0000 0.0000
# 3 25.0128 9.5367 83.4729 0.0000 0.0000 0.0000
# 4 0.0000 0.0000 0.0000 -5.3740 0.0000 0.0000
# 5 0.0000 0.0000 0.0000 0.0000 36.5162 0.0000
# 6 0.0000 0.0000 0.0000 0.0000 0.0000 -8.9505
#
#
#
# Elastic Compliance Matrix: (Units=1/GPa)
#
#
# Indices 1 2 3 4 5 6 
#
# 1 0.024242 -0.004034 -0.006803 0.000000 0.000000 0.000000
# 2 -0.004034 0.009758 0.000094 0.000000 0.000000 0.000000
# 3 -0.006803 0.000094 0.014008 0.000000 0.000000 0.000000
# 4 0.000000 0.000000 0.000000 -0.186082 0.000000 0.000000
# 5 0.000000 0.000000 0.000000 0.000000 0.027385 0.000000
# 6 0.000000 0.000000 0.000000 0.000000 0.000000 -0.111725
#
#
# Mechanical properties :
#
#
# Convention : Reuss Voigt Hill
#
# Bulk Modulus (GPa) = 37.70542 39.75999 38.73271
# Shear Modulus (GPa) = -26.02979 17.15045 -4.43967
#
# Velocity S-wave (km/s) = -3.25773 2.64434 -1.34541
# Velocity P-wave (km/s) = 1.10578 5.05314 3.65767
#
# Compressibility (1/GPa) = 0.02652139
#
# Stress axis : x y z
#
# Youngs Moduli (GPa) = 41.25142 102.47491 71.38888
#
# Poissons Ratio (x) = 0.41338 0.48567
# Poissons Ratio (y) = 0.16641 -0.00670
# Poissons Ratio (z) = 0.28064 -0.00962
#
# Static dielectric constant tensor:
#      x y z
#    x 2.210600 0.000000 0.000000 
#    y 0.000000 2.101190 0.000000 
#    z 0.000000 0.000000 1.933310 
# 
# From -- ./inp_files/22686.got.cif
#   From: 2010.05.17/outbox.cif.g08.bks.cpg/sg73_12_cif.got.tgz:22686.got - 2010.06.03 17:35:07.
