data_PCOD9530947
_publ_section_title
;
Structure prediction by ZEFSAII (Michael W. Deem and Ramdas Pophale) SiO2 
 PCOD9530947
Probable space group: I B C A 
;
_chemical_formula_sum "Si O2"
_cell_formula_units_Z 120
_cell_length_a 14.265516
_cell_length_b 23.394836
_cell_length_c 16.022233
_cell_angle_alpha 90.000000
_cell_angle_beta 90.000000
_cell_angle_gamma 90.000000
_cell_volume 5347.250545
_symmetry_space_group_name_H-M "I B C A "
_symmetry_group_IT_number 73
_symmetry_cell_setting 'orthorhombic'
loop_
_space_group_symop_operation_xyz
x,y,z
-x,1/2-y,z
x,-y,1/2-z
1/2-x,y,-z
-x,-y,-z
x,1/2+y,-z
-x,y,1/2+z
1/2+x,-y,z
1/2+x,1/2+y,1/2+z
1/2-x,-y,1/2+z
1/2+x,1/2-y,-z
-x,1/2+y,1/2-z
1/2-x,1/2-y,1/2-z
1/2+x,y,1/2-z
1/2-x,1/2+y,z
x,1/2-y,1/2+z
loop_
_atom_site_type_symbol
_atom_site_label
_atom_site_fract_x
_atom_site_fract_y
_atom_site_fract_z
Si Si1 0.605683 0.624886 0.833396
Si Si2 0.351950 0.851892 0.000058
Si Si3 0.731595 0.688250 0.705397
Si Si4 0.900508 0.760606 0.384649
Si Si5 0.586856 0.446880 0.393547
Si Si6 0.908203 0.360727 0.749831
Si Si7 0.750000 0.488419 0.000000
Si Si8 0.118231 0.503259 0.852046
O O1 0.611523 0.667000 0.911131
O O2 0.683149 0.645261 0.769501
O O3 0.505832 0.623413 0.790561
O O4 0.627433 0.563729 0.873361
O O5 0.426615 0.893070 0.044266
O O6 0.250000 0.881447 0.000000
O O7 0.335037 0.798173 0.058244
O O8 0.750000 0.750000 0.750000
O O9 0.653560 0.703566 0.638477
O O10 0.829163 0.658328 0.684650
O O11 0.921758 0.803298 0.306482
O O12 0.000000 0.750000 0.425968
O O13 0.621801 0.413770 0.309606
O O14 0.663743 0.485056 0.442060
O O15 0.812982 0.534522 0.419137
O O16 0.488551 0.476563 0.370211
O O17 0.134887 0.500000 0.750000
#
# Coordination Sequence:
#
# PCOD9530947 Si02
#       8
#    16  16  16  16  16  16   8  16
#     4  12  22  42  68 100 138 186 241 295 365 445
#     4  11  22  41  67  95 131 187 239 291 366 444
#     4  10  21  39  67  95 130 173 233 290 354 426
#     4  10  20  40  61  94 136 175 218 296 364 428
#     4  11  22  44  66 100 141 185 242 301 364 430
#     4  10  21  38  68  96 135 177 228 295 356 437
#     4  12  24  44  74 100 144 190 248 302 368 436
#     4  12  26  45  71 110 146 197 252 308 369 450
#
# _framework density 22.441438999999999
#
# number of rings (size 3 to 8) (size 9 to 14) (size 15 to 20)
#    0.000    1.067    4.667    3.600    0.000    0.533 
#    9.600    0.000    0.000    0.000    5.200    0.000 
#    0.000    0.000    0.000    0.000    0.000    0.000 
#
# Total GULP energy -334078.752443 kJ/mol
# GULP energy per Si atom -5567.979207 kJ/mol
# Density = 2.239036 g / cm^3
# Si number density = 22.441439 Si / 1000 Ang^3
#
#
#
# Elastic Constant Matrix: (Units=GPa)
#
#
# Indices 1 2 3 4 5 6 
#
# 1 113.8912 20.0563 33.6768 -0.0001 0.0000 0.0000
# 2 20.0563 41.9047 -0.2255 -0.0002 0.0000 0.0000
# 3 33.6768 -0.2255 90.3415 -0.0002 0.0000 0.0001
# 4 -0.0001 -0.0002 -0.0002 -38.5688 0.0000 0.0001
# 5 0.0000 0.0000 0.0000 0.0000 24.1011 0.0000
# 6 0.0000 0.0000 0.0001 0.0001 0.0000 27.3535
#
#
#
# Elastic Compliance Matrix: (Units=1/GPa)
#
#
# Indices 1 2 3 4 5 6 
#
# 1 0.010910 -0.005244 -0.004080 0.000000 0.000000 0.000000
# 2 -0.005244 0.026384 0.002021 0.000000 0.000000 0.000000
# 3 -0.004080 0.002021 0.012595 0.000000 0.000000 0.000000
# 4 0.000000 0.000000 0.000000 -0.025928 0.000000 0.000000
# 5 0.000000 0.000000 0.000000 0.000000 0.041492 0.000000
# 6 0.000000 0.000000 0.000000 0.000000 0.000000 0.036558
#
#
# Mechanical properties :
#
#
# Convention : Reuss Voigt Hill
#
# Bulk Modulus (GPa) = 28.34223 39.23918 33.79070
# Shear Modulus (GPa) = 38.94694 15.41914 27.18304
#
# Velocity S-wave (km/s) = 4.17044 2.62407 3.48413
# Velocity P-wave (km/s) = 5.98723 5.16760 5.59245
#
# Compressibility (1/GPa) = 0.03528304
#
# Stress axis : x y z
#
# Youngs Moduli (GPa) = 91.65739 37.90133 79.39594
#
# Poissons Ratio (x) = 0.19875 0.32394
# Poissons Ratio (y) = 0.48063 -0.16043
# Poissons Ratio (z) = 0.37397 -0.07658
#
# Static dielectric constant tensor:
#      x y z
#    x 2.058610 0.000000 0.000000 
#    y 0.000000 1.955900 0.000000 
#    z 0.000000 0.000000 1.939610 
# 
# From -- ./inp_files/21506.got.cif
#   From: 2010.05.17/outbox.cif.g08.bks.cpg/sg73_11_cif.got.tgz:21506.got - 2010.06.03 17:35:07.
