data_PCOD9530227
_publ_section_title
;
Structure prediction by ZEFSAII (Michael W. Deem and Ramdas Pophale) SiO2 
 PCOD9530227
Probable space group: I B C A 
;
_chemical_formula_sum "Si O2"
_cell_formula_units_Z 80
_cell_length_a 16.102793
_cell_length_b 24.996736
_cell_length_c 9.882732
_cell_angle_alpha 90.000000
_cell_angle_beta 90.000000
_cell_angle_gamma 90.000000
_cell_volume 3977.970260
_symmetry_space_group_name_H-M "I B C A "
_symmetry_group_IT_number 73
_symmetry_cell_setting 'orthorhombic'
loop_
_space_group_symop_operation_xyz
x,y,z
-x,1/2-y,z
x,-y,1/2-z
1/2-x,y,-z
-x,-y,-z
x,1/2+y,-z
-x,y,1/2+z
1/2+x,-y,z
1/2+x,1/2+y,1/2+z
1/2-x,-y,1/2+z
1/2+x,1/2-y,-z
-x,1/2+y,1/2-z
1/2-x,1/2-y,1/2-z
1/2+x,y,1/2-z
1/2-x,1/2+y,z
x,1/2-y,1/2+z
loop_
_atom_site_type_symbol
_atom_site_label
_atom_site_fract_x
_atom_site_fract_y
_atom_site_fract_z
Si Si1 0.707996 0.636055 0.193486
Si Si2 0.657581 0.205923 0.553883
Si Si3 0.870348 0.826009 0.583944
Si Si4 0.032465 0.877753 0.475751
Si Si5 0.571398 0.562608 0.258468
O O1 0.672176 0.668065 0.318992
O O2 0.806889 0.642920 0.182890
O O3 0.663683 0.578591 0.203614
O O4 0.671492 0.665245 0.062590
O O5 0.750000 0.216641 0.500000
O O6 0.622973 0.262645 0.603967
O O7 0.598088 0.171031 0.455658
O O8 0.959419 0.851414 0.565277
O O9 0.067525 0.920821 0.583122
O O10 0.991883 0.904609 0.341994
O O11 0.554680 0.500000 0.250000
#
# Coordination Sequence:
#
# PCOD9530227 Si02
#       5
#    16  16  16  16  16
#     4   9  20  35  55  82 112 153 190 238 288 351
#     4  11  21  33  56  86 124 153 187 237 292 356
#     4  10  19  36  57  83 117 157 187 231 297 361
#     4  10  23  36  60  88 116 152 200 241 294 359
#     4  10  21  41  61  81 115 151 198 253 295 338
#
# _framework density 20.110757
#
# number of rings (size 3 to 8) (size 9 to 14) (size 15 to 20)
#    0.000    2.000    2.000    1.800    2.800    0.000 
#    0.000    7.000   35.200    0.000    0.000    0.000 
#    0.000    0.000    0.000    0.000    0.000    0.000 
#
# Total GULP energy -222834.773273 kJ/mol
# GULP energy per Si atom -5570.869332 kJ/mol
# Density = 2.006498 g / cm^3
# Si number density = 20.110757 Si / 1000 Ang^3
#
#
#
# Elastic Constant Matrix: (Units=GPa)
#
#
# Indices 1 2 3 4 5 6 
#
# 1 76.5858 35.7347 3.8939 0.0000 0.0000 0.0000
# 2 35.7347 81.4042 2.6571 0.0000 0.0000 0.0000
# 3 3.8939 2.6571 49.9821 -0.0004 0.0002 -0.0002
# 4 0.0000 0.0000 -0.0004 21.1382 0.0001 -0.0001
# 5 0.0000 0.0000 0.0002 0.0001 24.5391 0.0000
# 6 0.0000 0.0000 -0.0002 -0.0001 0.0000 21.6529
#
#
#
# Elastic Compliance Matrix: (Units=1/GPa)
#
#
# Indices 1 2 3 4 5 6 
#
# 1 0.016461 -0.007197 -0.000900 0.000000 0.000000 0.000000
# 2 -0.007197 0.015452 -0.000261 0.000000 0.000000 0.000000
# 3 -0.000900 -0.000261 0.020091 0.000000 0.000000 0.000000
# 4 0.000000 0.000000 0.000000 0.047308 0.000000 0.000000
# 5 0.000000 0.000000 0.000000 0.000000 0.040751 0.000000
# 6 0.000000 0.000000 0.000000 0.000000 0.000000 0.046183
#
#
# Mechanical properties :
#
#
# Convention : Reuss Voigt Hill
#
# Bulk Modulus (GPa) = 28.33692 32.50483 30.42087
# Shear Modulus (GPa) = 23.28572 24.51181 23.89876
#
# Velocity S-wave (km/s) = 3.40645 3.49498 3.45100
# Velocity P-wave (km/s) = 5.43993 5.69952 5.57124
#
# Compressibility (1/GPa) = 0.03528965
#
# Stress axis : x y z
#
# Youngs Moduli (GPa) = 60.75001 64.71636 49.77318
#
# Poissons Ratio (x) = 0.46574 0.04479
# Poissons Ratio (y) = 0.43719 0.01298
# Poissons Ratio (z) = 0.05466 0.01688
#
# Static dielectric constant tensor:
#      x y z
#    x 1.784460 0.000000 0.000000 
#    y 0.000000 1.780020 0.000000 
#    z 0.000000 0.000000 1.746040 
# 
# From -- ./inp_files/10814.got.cif
#   From: 2010.05.17/outbox.cif.g08.bks.cpg/sg73_6_cif.got.tgz:10814.got - 2010.06.03 17:35:07.
