data_PCOD9530586
_publ_section_title
;
Structure prediction by ZEFSAII (Michael W. Deem and Ramdas Pophale) SiO2 
 PCOD9530586
Probable space group: I B C A 
;
_chemical_formula_sum "Si O2"
_cell_formula_units_Z 64
_cell_length_a 16.399128
_cell_length_b 9.827824
_cell_length_c 20.012889
_cell_angle_alpha 90.000000
_cell_angle_beta 90.000000
_cell_angle_gamma 90.000000
_cell_volume 3225.432166
_symmetry_space_group_name_H-M "I B C A "
_symmetry_group_IT_number 73
_symmetry_cell_setting 'orthorhombic'
loop_
_space_group_symop_operation_xyz
x,y,z
-x,1/2-y,z
x,-y,1/2-z
1/2-x,y,-z
-x,-y,-z
x,1/2+y,-z
-x,y,1/2+z
1/2+x,-y,z
1/2+x,1/2+y,1/2+z
1/2-x,-y,1/2+z
1/2+x,1/2-y,-z
-x,1/2+y,1/2-z
1/2-x,1/2-y,1/2-z
1/2+x,y,1/2-z
1/2-x,1/2+y,z
x,1/2-y,1/2+z
loop_
_atom_site_type_symbol
_atom_site_label
_atom_site_fract_x
_atom_site_fract_y
_atom_site_fract_z
Si Si1 0.061423 0.378562 0.634469
Si Si2 0.061413 0.624034 0.010918
Si Si3 0.159216 0.213404 0.729025
Si Si4 0.904733 0.046927 0.348222
O O1 0.103901 0.372335 0.561710
O O2 0.121972 0.345203 0.693624
O O3 0.000000 0.250000 0.632182
O O4 0.000156 0.502742 0.648656
O O5 0.114211 0.595244 0.076548
O O6 0.000000 0.750000 0.021564
O O7 0.000000 0.500000 0.000000
O O8 0.250000 0.250000 0.750000
O O9 0.146531 0.084695 0.677928
O O10 0.110464 0.163750 0.794323
#
# Coordination Sequence:
#
# PCOD9530586 Si02
#       4
#    16  16  16  16
#     4   8  16  34  59  83 110 144 187 239 292 351
#     4   9  17  33  59  90 116 143 191 251 297 347
#     4  10  20  36  54  81 120 153 188 242 297 350
#     4   9  19  35  56  82 110 149 197 238 289 360
#
# _framework density 19.842302
#
# number of rings (size 3 to 8) (size 9 to 14) (size 15 to 20)
#    0.000    3.000    0.000    1.500    0.000    5.000 
#    0.000   26.250    0.000   12.000    0.000    0.000 
#    0.000    0.000    0.000    0.000    0.000    0.000 
#
# Total GULP energy -178169.450212 kJ/mol
# GULP energy per Si atom -5567.795319 kJ/mol
# Density = 1.979714 g / cm^3
# Si number density = 19.842302 Si / 1000 Ang^3
#
#
#
# Elastic Constant Matrix: (Units=GPa)
#
#
# Indices 1 2 3 4 5 6 
#
# 1 65.8694 21.0931 79.2641 0.0000 0.0000 0.0000
# 2 21.0931 64.2228 43.4859 0.0000 0.0000 0.0000
# 3 79.2641 43.4859 182.3326 0.0000 0.0000 0.0000
# 4 0.0000 0.0000 0.0000 29.2469 0.0000 0.0000
# 5 0.0000 0.0000 0.0000 0.0000 -5.0943 0.0000
# 6 0.0000 0.0000 0.0000 0.0000 0.0000 19.0610
#
#
#
# Elastic Compliance Matrix: (Units=1/GPa)
#
#
# Indices 1 2 3 4 5 6 
#
# 1 0.031926 -0.001298 -0.013569 0.000000 0.000000 0.000000
# 2 -0.001298 0.018622 -0.003877 0.000000 0.000000 0.000000
# 3 -0.013569 -0.003877 0.012308 0.000000 0.000000 0.000000
# 4 0.000000 0.000000 0.000000 0.034192 0.000000 0.000000
# 5 0.000000 0.000000 0.000000 0.000000 -0.196297 0.000000
# 6 0.000000 0.000000 0.000000 0.000000 0.000000 0.052463
#
#
# Mechanical properties :
#
#
# Convention : Reuss Voigt Hill
#
# Bulk Modulus (GPa) = 39.42019 66.67898 53.04959
# Shear Modulus (GPa) = -5941.29983 19.88149 -2960.70917
#
# Velocity S-wave (km/s) = -54.77919 3.16883 -38.66987
# Velocity P-wave (km/s) = 63.09598 6.86047 44.35108
#
# Compressibility (1/GPa) = 0.02536771
#
# Stress axis : x y z
#
# Youngs Moduli (GPa) = 31.32256 53.69898 81.24713
#
# Poissons Ratio (x) = 0.06968 1.10248
# Poissons Ratio (y) = 0.04065 0.31502
# Poissons Ratio (z) = 0.42503 0.20821
#
# Static dielectric constant tensor:
#      x y z
#    x 1.675030 0.000000 0.000000 
#    y 0.000000 1.734380 0.000000 
#    z 0.000000 0.000000 1.821730 
# 
# From -- ./inp_files/12514.got.cif
#   From: 2010.05.17/outbox.cif.g08.bks.cpg/sg73_7_cif.got.tgz:12514.got - 2010.06.03 17:35:07.
