data_PCOD9530191
_publ_section_title
;
Structure prediction by ZEFSAII (Michael W. Deem and Ramdas Pophale) SiO2 
 PCOD9530191
Probable space group: I B C A 
;
_chemical_formula_sum "Si O2"
_cell_formula_units_Z 128
_cell_length_a 24.430714
_cell_length_b 23.707890
_cell_length_c 12.005222
_cell_angle_alpha 90.000000
_cell_angle_beta 90.000000
_cell_angle_gamma 90.000000
_cell_volume 6953.432748
_symmetry_space_group_name_H-M "I B C A "
_symmetry_group_IT_number 73
_symmetry_cell_setting 'orthorhombic'
loop_
_space_group_symop_operation_xyz
x,y,z
-x,1/2-y,z
x,-y,1/2-z
1/2-x,y,-z
-x,-y,-z
x,1/2+y,-z
-x,y,1/2+z
1/2+x,-y,z
1/2+x,1/2+y,1/2+z
1/2-x,-y,1/2+z
1/2+x,1/2-y,-z
-x,1/2+y,1/2-z
1/2-x,1/2-y,1/2-z
1/2+x,y,1/2-z
1/2-x,1/2+y,z
x,1/2-y,1/2+z
loop_
_atom_site_type_symbol
_atom_site_label
_atom_site_fract_x
_atom_site_fract_y
_atom_site_fract_z
Si Si1 0.647734 0.877275 0.118614
Si Si2 0.429260 0.196861 0.276684
Si Si3 0.193754 0.086578 0.563444
Si Si4 0.449848 0.170699 0.740882
Si Si5 0.614675 0.672435 0.977579
Si Si6 0.310773 0.461089 0.552328
Si Si7 0.658873 0.792162 0.913691
Si Si8 0.232522 0.634063 0.211601
O O1 0.592808 0.866978 0.188817
O O2 0.702670 0.875575 0.194979
O O3 0.651090 0.933976 0.043602
O O4 0.653620 0.826824 0.028161
O O5 0.485716 0.163120 0.259011
O O6 0.439561 0.264175 0.275447
O O7 0.406003 0.182538 0.397485
O O8 0.387725 0.187942 0.174158
O O9 0.250000 0.078537 0.500000
O O10 0.150996 0.116880 0.483662
O O11 0.210021 0.127956 0.664488
O O12 0.174087 0.023393 0.593659
O O13 0.433803 0.166469 0.611326
O O14 0.649892 0.726474 0.937827
O O15 0.250000 0.463337 0.500000
O O16 0.301411 0.415144 0.648091
O O17 0.715055 0.808958 0.852110
#
# Coordination Sequence:
#
# PCOD9530191 Si02
#       8
#    16  16  16  16  16  16  16  16
#     4  10  19  36  58  87 115 151 197 240 292 351
#     4  10  21  37  56  81 112 154 194 249 285 343
#     4  11  21  35  54  84 120 154 189 234 289 350
#     4  10  22  35  58  82 113 152 197 243 292 337
#     4  11  22  37  53  86 116 148 195 234 292 350
#     4   8  18  34  57  83 112 151 194 236 285 342
#     4  10  20  36  56  83 115 154 190 236 293 354
#     4  10  19  35  58  84 118 152 192 236 291 353
#
# _framework density 18.408173999999999
#
# number of rings (size 3 to 8) (size 9 to 14) (size 15 to 20)
#    0.000    2.000    2.500    2.250    1.750    2.000 
#    0.000    4.375    0.000    0.750    6.500    0.000 
#    0.000    0.000    0.000    0.000    0.000    0.000 
#
# Total GULP energy -356745.357201 kJ/mol
# GULP energy per Si atom -5574.146206 kJ/mol
# Density = 1.836628 g / cm^3
# Si number density = 18.408174 Si / 1000 Ang^3
#
#
#
# Elastic Constant Matrix: (Units=GPa)
#
#
# Indices 1 2 3 4 5 6 
#
# 1 78.7810 24.9539 22.2909 0.0000 0.0000 0.0000
# 2 24.9539 54.9297 12.6165 0.0000 0.0000 0.0000
# 3 22.2909 12.6165 63.3083 0.0000 0.0000 0.0000
# 4 0.0000 0.0000 0.0000 11.5837 0.0000 0.0000
# 5 0.0000 0.0000 0.0000 0.0000 21.4302 0.0000
# 6 0.0000 0.0000 0.0000 0.0000 0.0000 -2.0621
#
#
#
# Elastic Compliance Matrix: (Units=1/GPa)
#
#
# Indices 1 2 3 4 5 6 
#
# 1 0.015897 -0.006221 -0.004358 0.000000 0.000000 0.000000
# 2 -0.006221 0.021513 -0.002097 0.000000 0.000000 0.000000
# 3 -0.004358 -0.002097 0.017748 0.000000 0.000000 0.000000
# 4 0.000000 0.000000 0.000000 0.086328 0.000000 0.000000
# 5 0.000000 0.000000 0.000000 0.000000 0.046663 0.000000
# 6 0.000000 0.000000 0.000000 0.000000 0.000000 -0.484943
#
#
# Mechanical properties :
#
#
# Convention : Reuss Voigt Hill
#
# Bulk Modulus (GPa) = 33.54921 35.19352 34.37136
# Shear Modulus (GPa) = -19.11990 15.33420 -1.89285
#
# Velocity S-wave (km/s) = -3.22633 2.88932 -1.01513
# Velocity P-wave (km/s) = 2.09424 5.50371 4.16393
#
# Compressibility (1/GPa) = 0.02980696
#
# Stress axis : x y z
#
# Youngs Moduli (GPa) = 62.90563 46.48401 56.34477
#
# Poissons Ratio (x) = 0.28917 0.24552
# Poissons Ratio (y) = 0.39133 0.11815
# Poissons Ratio (z) = 0.27411 0.09747
#
# Static dielectric constant tensor:
#      x y z
#    x 1.639000 0.000000 0.000000 
#    y 0.000000 1.659340 0.000000 
#    z 0.000000 0.000000 1.644930 
# 
# From -- ./inp_files/13927.got.cif
#   From: 2010.05.17/outbox.cif.g08.bks.cpg/sg73_7_cif.got.tgz:13927.got - 2010.06.03 17:35:07.
