data_PCOD9530043
_publ_section_title
;
Structure prediction by ZEFSAII (Michael W. Deem and Ramdas Pophale) SiO2 
 PCOD9530043
Probable space group: I B C A 
;
_chemical_formula_sum "Si O2"
_cell_formula_units_Z 72
_cell_length_a 12.797387
_cell_length_b 13.982253
_cell_length_c 16.146268
_cell_angle_alpha 90.000000
_cell_angle_beta 90.000000
_cell_angle_gamma 90.000000
_cell_volume 2889.153500
_symmetry_space_group_name_H-M "I B C A "
_symmetry_group_IT_number 73
_symmetry_cell_setting 'orthorhombic'
loop_
_space_group_symop_operation_xyz
x,y,z
-x,1/2-y,z
x,-y,1/2-z
1/2-x,y,-z
-x,-y,-z
x,1/2+y,-z
-x,y,1/2+z
1/2+x,-y,z
1/2+x,1/2+y,1/2+z
1/2-x,-y,1/2+z
1/2+x,1/2-y,-z
-x,1/2+y,1/2-z
1/2-x,1/2-y,1/2-z
1/2+x,y,1/2-z
1/2-x,1/2+y,z
x,1/2-y,1/2+z
loop_
_atom_site_type_symbol
_atom_site_label
_atom_site_fract_x
_atom_site_fract_y
_atom_site_fract_z
Si Si1 0.700281 0.500000 0.250000
Si Si2 0.750000 0.164486 0.500000
Si Si3 0.403615 0.068688 0.674541
Si Si4 0.000000 0.250000 0.255885
Si Si5 0.105369 0.801297 0.906613
Si Si6 0.907799 0.977976 0.084426
O O1 0.633016 0.547761 0.322130
O O2 0.780247 0.560430 0.191052
O O3 0.702005 0.234559 0.430585
O O4 0.843473 0.095648 0.470733
O O5 0.438105 0.175679 0.689760
O O6 0.466364 0.032344 0.594433
O O7 0.439583 0.000000 0.750000
O O8 0.079562 0.299985 0.191227
O O9 0.000000 0.750000 0.942688
O O10 0.114894 0.910805 0.933060
#
# Coordination Sequence:
#
# PCOD9530043 Si02
#       6
#     8   8  16   8  16  16
#     4  10  20  40  70 100 126 170 220 282 340 394
#     4  12  28  42  66 104 132 190 232 268 342 426
#     4  10  20  39  65 101 128 171 217 279 346 382
#     4  10  18  40  68  92 132 172 216 282 334 400
#     4  10  23  46  66  93 140 180 223 283 345 398
#     4  12  23  45  70  98 140 176 229 283 342 408
#
# _framework density 24.920794000000001
#
# number of rings (size 3 to 8) (size 9 to 14) (size 15 to 20)
#    1.333    0.000    3.333    2.000    3.111    2.667 
#    6.000    4.444    0.000    0.000    0.000    0.000 
#    0.000    0.000    0.000    0.000    0.000    0.000 
#
# Total GULP energy -200992.869848 kJ/mol
# GULP energy per Si atom -5583.135274 kJ/mol
# Density = 2.486407 g / cm^3
# Si number density = 24.920794 Si / 1000 Ang^3
#
#
#
# Elastic Constant Matrix: (Units=GPa)
#
#
# Indices 1 2 3 4 5 6 
#
# 1 105.4440 34.8818 32.3774 0.0000 0.0000 0.0000
# 2 34.8818 140.0109 46.6659 0.0000 0.0000 0.0000
# 3 32.3774 46.6659 47.7653 0.0000 0.0000 0.0000
# 4 0.0000 0.0000 0.0000 16.5104 0.0000 0.0000
# 5 0.0000 0.0000 0.0000 0.0000 74.4399 0.0000
# 6 0.0000 0.0000 0.0000 0.0000 0.0000 297.1256
#
#
#
# Elastic Compliance Matrix: (Units=1/GPa)
#
#
# Indices 1 2 3 4 5 6 
#
# 1 0.011993 -0.000413 -0.007726 0.000000 0.000000 0.000000
# 2 -0.000413 0.010605 -0.010081 0.000000 0.000000 0.000000
# 3 -0.007726 -0.010081 0.036022 0.000000 0.000000 0.000000
# 4 0.000000 0.000000 0.000000 0.060568 0.000000 0.000000
# 5 0.000000 0.000000 0.000000 0.000000 0.013434 0.000000
# 6 0.000000 0.000000 0.000000 0.000000 0.000000 0.003366
#
#
# Mechanical properties :
#
#
# Convention : Reuss Voigt Hill
#
# Bulk Modulus (GPa) = 45.08600 57.89672 51.49136
# Shear Modulus (GPa) = 27.80558 89.56819 58.68689
#
# Velocity S-wave (km/s) = 3.34392 6.00160 4.85803
# Velocity P-wave (km/s) = 5.74805 8.44442 7.22317
#
# Compressibility (1/GPa) = 0.02217984
#
# Stress axis : x y z
#
# Youngs Moduli (GPa) = 83.38529 94.29264 27.76081
#
# Poissons Ratio (x) = 0.03892 0.21448
# Poissons Ratio (y) = 0.03442 0.27987
# Poissons Ratio (z) = 0.64422 0.95060
#
# Static dielectric constant tensor:
#      x y z
#    x 2.106600 0.000000 0.000000 
#    y 0.000000 1.927900 0.000000 
#    z 0.000000 0.000000 1.973240 
# 
# From -- ./inp_files/21840.got.cif
#   From: 2010.05.17/outbox.cif.g08.bks.cpg/sg73_11_cif.got.tgz:21840.got - 2010.06.03 17:35:07.
