data_PCOD9530264
_publ_section_title
;
Structure prediction by ZEFSAII (Michael W. Deem and Ramdas Pophale) SiO2 
 PCOD9530264
Probable space group: I B C A 
;
_chemical_formula_sum "Si O2"
_cell_formula_units_Z 120
_cell_length_a 15.512982
_cell_length_b 15.685354
_cell_length_c 18.990825
_cell_angle_alpha 90.000000
_cell_angle_beta 90.000000
_cell_angle_gamma 90.000000
_cell_volume 4620.973149
_symmetry_space_group_name_H-M "I B C A "
_symmetry_group_IT_number 73
_symmetry_cell_setting 'orthorhombic'
loop_
_space_group_symop_operation_xyz
x,y,z
-x,1/2-y,z
x,-y,1/2-z
1/2-x,y,-z
-x,-y,-z
x,1/2+y,-z
-x,y,1/2+z
1/2+x,-y,z
1/2+x,1/2+y,1/2+z
1/2-x,-y,1/2+z
1/2+x,1/2-y,-z
-x,1/2+y,1/2-z
1/2-x,1/2-y,1/2-z
1/2+x,y,1/2-z
1/2-x,1/2+y,z
x,1/2-y,1/2+z
loop_
_atom_site_type_symbol
_atom_site_label
_atom_site_fract_x
_atom_site_fract_y
_atom_site_fract_z
Si Si1 0.061339 0.677777 0.785329
Si Si2 0.287764 0.582067 0.215143
Si Si3 0.866528 0.794903 0.571168
Si Si4 0.250000 0.559534 0.000000
Si Si5 0.442897 0.450029 0.863096
Si Si6 0.643819 0.630083 0.369647
Si Si7 0.160202 0.290430 0.093618
Si Si8 0.107492 0.012714 0.412173
O O1 0.140699 0.636223 0.744354
O O2 0.110187 0.723163 0.854030
O O3 0.000000 0.750000 0.755412
O O4 0.996671 0.599951 0.803375
O O5 0.246808 0.500000 0.250000
O O6 0.210656 0.642851 0.193557
O O7 0.342296 0.535173 0.152197
O O8 0.906560 0.713523 0.609655
O O9 0.763986 0.791554 0.591611
O O10 0.871315 0.779399 0.486846
O O11 0.903678 0.886460 0.591902
O O12 0.208172 0.612115 0.063617
O O13 0.327937 0.501608 0.024427
O O14 0.407649 0.544525 0.852167
O O15 0.368959 0.384662 0.883283
O O16 0.517830 0.463714 0.921080
#
# Coordination Sequence:
#
# PCOD9530264 Si02
#       8
#    16  16  16   8  16  16  16  16
#     4   9  19  39  65  90 121 154 219 268 313 385
#     4  10  21  42  69  88 117 165 220 270 320 386
#     4  11  21  33  58  86 127 164 205 257 307 380
#     4  10  20  36  58  84 118 170 210 258 306 380
#     4  10  22  37  56  87 129 168 205 254 320 388
#     4  11  22  36  58  88 125 164 210 254 324 391
#     4  10  19  37  58  89 118 166 215 253 308 377
#     4  10  22  39  58  90 128 165 211 263 319 389
#
# _framework density 25.968556
#
# number of rings (size 3 to 8) (size 9 to 14) (size 15 to 20)
#    0.000    1.867    1.333    4.000    3.733    2.667 
#    4.800    3.333    5.867    0.000    0.000    0.000 
#    0.000    0.000    0.000    0.000    0.000    0.000 
#
# Total GULP energy -335494.289241 kJ/mol
# GULP energy per Si atom -5591.571487 kJ/mol
# Density = 2.590945 g / cm^3
# Si number density = 25.968556 Si / 1000 Ang^3
#
#
#
# Elastic Constant Matrix: (Units=GPa)
#
#
# Indices 1 2 3 4 5 6 
#
# 1 77.8800 28.5377 9.7817 0.0000 0.0000 0.0000
# 2 28.5377 172.6829 1.1492 0.0000 0.0000 0.0000
# 3 9.7817 1.1492 46.8807 0.0000 0.0000 0.0000
# 4 0.0000 0.0000 0.0000 36.3923 0.0000 0.0000
# 5 0.0000 0.0000 0.0000 0.0000 14.7484 0.0000
# 6 0.0000 0.0000 0.0000 0.0000 0.0000 50.9519
#
#
#
# Elastic Compliance Matrix: (Units=1/GPa)
#
#
# Indices 1 2 3 4 5 6 
#
# 1 0.014045 -0.002302 -0.002874 0.000000 0.000000 0.000000
# 2 -0.002302 0.006169 0.000329 0.000000 0.000000 0.000000
# 3 -0.002874 0.000329 0.021922 0.000000 0.000000 0.000000
# 4 0.000000 0.000000 0.000000 0.027478 0.000000 0.000000
# 5 0.000000 0.000000 0.000000 0.000000 0.067804 0.000000
# 6 0.000000 0.000000 0.000000 0.000000 0.000000 0.019626
#
#
# Mechanical properties :
#
#
# Convention : Reuss Voigt Hill
#
# Bulk Modulus (GPa) = 30.82372 41.82010 36.32191
# Shear Modulus (GPa) = 28.16065 37.61685 32.88875
#
# Velocity S-wave (km/s) = 3.29662 3.81012 3.56263
# Velocity P-wave (km/s) = 5.13669 5.95777 5.56241
#
# Compressibility (1/GPa) = 0.03244255
#
# Stress axis : x y z
#
# Youngs Moduli (GPa) = 71.20107 162.09586 45.61554
#
# Poissons Ratio (x) = 0.37313 0.13110
# Poissons Ratio (y) = 0.16390 -0.01501
# Poissons Ratio (z) = 0.20463 -0.05334
#
# Static dielectric constant tensor:
#      x y z
#    x 2.003390 0.000000 0.000000 
#    y 0.000000 2.022490 0.000000 
#    z 0.000000 0.000000 2.173860 
# 
# From -- ./inp_files/29898.got.cif
#   From: 2010.05.17/outbox.cif.g08.bks.cpg/sg73_15_cif.got.tgz:29898.got - 2010.06.03 17:35:07.
