data_PCOD9530700
_publ_section_title
;
Structure prediction by ZEFSAII (Michael W. Deem and Ramdas Pophale) SiO2 
 PCOD9530700
Probable space group: I B C A 
;
_chemical_formula_sum "Si O2"
_cell_formula_units_Z 88
_cell_length_a 5.473697
_cell_length_b 23.213429
_cell_length_c 32.119086
_cell_angle_alpha 90.000000
_cell_angle_beta 90.000000
_cell_angle_gamma 90.000000
_cell_volume 4081.156311
_symmetry_space_group_name_H-M "I B C A "
_symmetry_group_IT_number 73
_symmetry_cell_setting 'orthorhombic'
loop_
_space_group_symop_operation_xyz
x,y,z
-x,1/2-y,z
x,-y,1/2-z
1/2-x,y,-z
-x,-y,-z
x,1/2+y,-z
-x,y,1/2+z
1/2+x,-y,z
1/2+x,1/2+y,1/2+z
1/2-x,-y,1/2+z
1/2+x,1/2-y,-z
-x,1/2+y,1/2-z
1/2-x,1/2-y,1/2-z
1/2+x,y,1/2-z
1/2-x,1/2+y,z
x,1/2-y,1/2+z
loop_
_atom_site_type_symbol
_atom_site_label
_atom_site_fract_x
_atom_site_fract_y
_atom_site_fract_z
Si Si1 0.000000 0.250000 0.090034
Si Si2 0.634954 0.165969 0.138708
Si Si3 0.001253 0.567488 0.525094
Si Si4 0.296984 0.815567 0.765545
Si Si5 0.621954 0.810075 0.942081
Si Si6 0.417978 0.468201 0.119160
O O1 0.839909 0.208170 0.119302
O O2 0.904945 0.297798 0.056766
O O3 0.618188 0.181421 0.186838
O O4 0.412175 0.181494 0.108027
O O5 0.653765 0.096730 0.133567
O O6 0.750000 0.553865 0.500000
O O7 0.973496 0.634513 0.536306
O O8 0.250000 0.561597 0.500000
O O9 0.042750 0.535460 0.569027
O O10 0.250000 0.750000 0.750000
O O11 0.524831 0.841807 0.739803
O O12 0.500000 0.750000 0.953592
O O13 0.687964 0.491435 0.132262
#
# Coordination Sequence:
#
# PCOD9530700 Si02
#       6
#     8  16  16  16  16  16
#     4  10  20  36  68  92 128 172 214 280 324 398
#     4  10  23  39  66  96 136 172 222 272 331 398
#     4  11  25  41  65  91 130 166 220 288 345 394
#     4  10  22  35  59  97 135 167 201 255 324 391
#     4   9  22  36  59  91 127 179 218 264 331 413
#     4  11  26  45  70  95 125 175 233 276 330 392
#
# _framework density 21.562515999999999
#
# number of rings (size 3 to 8) (size 9 to 14) (size 15 to 20)
#    0.000    1.818    0.000    2.182   22.909    2.909 
#    0.000    0.000    0.000    3.273    0.000    0.000 
#    0.000    0.000    0.000    0.000    0.000    0.000 
#
# Total GULP energy -244972.903981 kJ/mol
# GULP energy per Si atom -5567.566000 kJ/mol
# Density = 2.151344 g / cm^3
# Si number density = 21.562516 Si / 1000 Ang^3
#
#
#
# Elastic Constant Matrix: (Units=GPa)
#
#
# Indices 1 2 3 4 5 6 
#
# 1 122.4433 37.2134 26.1452 0.0000 0.0000 0.0000
# 2 37.2134 140.0155 24.4952 0.0000 0.0000 0.0000
# 3 26.1452 24.4952 81.9478 0.0000 0.0000 0.0000
# 4 0.0000 0.0000 0.0000 24.3581 0.0000 0.0000
# 5 0.0000 0.0000 0.0000 0.0000 26.5308 0.0000
# 6 0.0000 0.0000 0.0000 0.0000 0.0000 34.0682
#
#
#
# Elastic Compliance Matrix: (Units=1/GPa)
#
#
# Indices 1 2 3 4 5 6 
#
# 1 0.009295 -0.002059 -0.002350 0.000000 0.000000 0.000000
# 2 -0.002059 0.007992 -0.001732 0.000000 0.000000 0.000000
# 3 -0.002350 -0.001732 0.013470 0.000000 0.000000 0.000000
# 4 0.000000 0.000000 0.000000 0.041054 0.000000 0.000000
# 5 0.000000 0.000000 0.000000 0.000000 0.037692 0.000000
# 6 0.000000 0.000000 0.000000 0.000000 0.000000 0.029353
#
#
# Mechanical properties :
#
#
# Convention : Reuss Voigt Hill
#
# Bulk Modulus (GPa) = 54.12704 57.79048 55.95876
# Shear Modulus (GPa) = 31.78698 34.09494 32.94096
#
# Velocity S-wave (km/s) = 3.84367 3.98076 3.91282
# Velocity P-wave (km/s) = 6.69741 6.92735 6.81335
#
# Compressibility (1/GPa) = 0.01847505
#
# Stress axis : x y z
#
# Youngs Moduli (GPa) = 107.58854 125.11911 74.23714
#
# Poissons Ratio (x) = 0.25765 0.17445
# Poissons Ratio (y) = 0.22155 0.12858
# Poissons Ratio (z) = 0.25282 0.21671
#
# Static dielectric constant tensor:
#      x y z
#    x 2.110520 0.000000 0.000000 
#    y 0.000000 1.843210 0.000000 
#    z 0.000000 0.000000 1.822260 
# 
# From -- ./inp_files/33267.got.cif
#   From: 2010.05.17/outbox.cif.g08.bks.cpg/sg73_17_cif.got.tgz:33267.got - 2010.06.03 17:35:07.
