data_PCOD9530082
_publ_section_title
;
Structure prediction by ZEFSAII (Michael W. Deem and Ramdas Pophale) SiO2 
 PCOD9530082
Probable space group: I B C A 
;
_chemical_formula_sum "Si O2"
_cell_formula_units_Z 128
_cell_length_a 22.404274
_cell_length_b 16.321696
_cell_length_c 18.116391
_cell_angle_alpha 90.000000
_cell_angle_beta 90.000000
_cell_angle_gamma 90.000000
_cell_volume 6624.724854
_symmetry_space_group_name_H-M "I B C A "
_symmetry_group_IT_number 73
_symmetry_cell_setting 'orthorhombic'
loop_
_space_group_symop_operation_xyz
x,y,z
-x,1/2-y,z
x,-y,1/2-z
1/2-x,y,-z
-x,-y,-z
x,1/2+y,-z
-x,y,1/2+z
1/2+x,-y,z
1/2+x,1/2+y,1/2+z
1/2-x,-y,1/2+z
1/2+x,1/2-y,-z
-x,1/2+y,1/2-z
1/2-x,1/2-y,1/2-z
1/2+x,y,1/2-z
1/2-x,1/2+y,z
x,1/2-y,1/2+z
loop_
_atom_site_type_symbol
_atom_site_label
_atom_site_fract_x
_atom_site_fract_y
_atom_site_fract_z
Si Si1 0.040056 0.168927 0.364150
Si Si2 0.321553 0.769883 0.696594
Si Si3 0.357590 0.020918 0.164283
Si Si4 0.490812 0.507995 0.660545
Si Si5 0.195854 0.692520 0.151982
Si Si6 0.711509 0.882738 0.602218
Si Si7 0.833947 0.324953 0.447644
Si Si8 0.452851 0.321689 0.315288
O O1 0.100983 0.169531 0.411582
O O2 0.047316 0.172870 0.274707
O O3 0.000000 0.250000 0.383041
O O4 0.013095 0.077388 0.374225
O O5 0.322554 0.758639 0.784975
O O6 0.265172 0.824328 0.670961
O O7 0.306406 0.678519 0.667913
O O8 0.384829 0.798818 0.666357
O O9 0.421451 0.986418 0.139835
O O10 0.348730 0.117223 0.156955
O O11 0.350269 0.000000 0.250000
O O12 0.308109 0.973832 0.118689
O O13 0.491736 0.500000 0.750000
O O14 0.526620 0.592328 0.648679
O O15 0.189538 0.734310 0.072769
O O16 0.782220 0.879684 0.590041
O O17 0.675011 0.847006 0.532600
O O18 0.500000 0.250000 0.334633
#
# Coordination Sequence:
#
# PCOD9530082 Si02
#       8
#    16  16  16  16  16  16  16  16
#     4  10  19  34  57  80 111 155 194 232 290 353
#     4  10  19  35  56  88 112 143 196 240 290 338
#     4  11  20  35  60  88 116 145 199 248 295 342
#     4   9  20  32  50  84 115 146 189 243 293 344
#     4  10  20  34  60  86 112 148 192 246 287 347
#     4  10  22  38  58  83 116 155 186 246 299 343
#     4  10  21  40  56  79 119 156 190 230 296 362
#     4  10  19  31  54  83 118 150 185 242 296 343
#
# _framework density 19.321556999999999
#
# number of rings (size 3 to 8) (size 9 to 14) (size 15 to 20)
#    0.000    2.000    2.500    1.500    3.500    1.000 
#    0.000   10.000    0.000    0.000    0.000    0.000 
#    0.000    0.000    0.000    0.000    0.000    0.000 
#
# Total GULP energy -356549.111511 kJ/mol
# GULP energy per Si atom -5571.079867 kJ/mol
# Density = 1.927758 g / cm^3
# Si number density = 19.321557 Si / 1000 Ang^3
#
#
#
# Elastic Constant Matrix: (Units=GPa)
#
#
# Indices 1 2 3 4 5 6 
#
# 1 134.5151 45.3761 10.5657 0.0000 0.0000 0.0000
# 2 45.3761 75.7088 13.8631 0.0000 0.0000 0.0000
# 3 10.5657 13.8631 40.6957 0.0000 0.0000 0.0000
# 4 0.0000 0.0000 0.0000 13.9277 0.0000 0.0000
# 5 0.0000 0.0000 0.0000 0.0000 7.5268 0.0000
# 6 0.0000 0.0000 0.0000 0.0000 0.0000 20.2900
#
#
#
# Elastic Compliance Matrix: (Units=1/GPa)
#
#
# Indices 1 2 3 4 5 6 
#
# 1 0.009330 -0.005491 -0.000552 0.000000 0.000000 0.000000
# 2 -0.005491 0.017319 -0.004474 0.000000 0.000000 0.000000
# 3 -0.000552 -0.004474 0.026240 0.000000 0.000000 0.000000
# 4 0.000000 0.000000 0.000000 0.071799 0.000000 0.000000
# 5 0.000000 0.000000 0.000000 0.000000 0.132859 0.000000
# 6 0.000000 0.000000 0.000000 0.000000 0.000000 0.049285
#
#
# Mechanical properties :
#
#
# Convention : Reuss Voigt Hill
#
# Bulk Modulus (GPa) = 31.39218 43.39216 37.39217
# Shear Modulus (GPa) = 14.77176 20.42321 17.59749
#
# Velocity S-wave (km/s) = 2.76800 3.25471 3.02117
# Velocity P-wave (km/s) = 5.14765 6.05234 5.61823
#
# Compressibility (1/GPa) = 0.03185507
#
# Stress axis : x y z
#
# Youngs Moduli (GPa) = 107.18538 57.74140 38.10977
#
# Poissons Ratio (x) = 0.31704 0.02103
# Poissons Ratio (y) = 0.58852 0.17051
# Poissons Ratio (z) = 0.05915 0.25834
#
# Static dielectric constant tensor:
#      x y z
#    x 1.705200 0.000000 0.000000 
#    y 0.000000 1.685140 0.000000 
#    z 0.000000 0.000000 1.688830 
# 
# From -- ./inp_files/27047.got.cif
#   From: 2010.05.17/outbox.cif.g08.bks.cpg/sg73_14_cif.got.tgz:27047.got - 2010.06.03 17:35:07.
