data_PCOD9530533
_publ_section_title
;
Structure prediction by ZEFSAII (Michael W. Deem and Ramdas Pophale) SiO2 
 PCOD9530533
Probable space group: I B C A 
;
_chemical_formula_sum "Si O2"
_cell_formula_units_Z 96
_cell_length_a 23.653973
_cell_length_b 8.399583
_cell_length_c 27.208225
_cell_angle_alpha 90.000000
_cell_angle_beta 90.000000
_cell_angle_gamma 90.000000
_cell_volume 5405.825630
_symmetry_space_group_name_H-M "I B C A "
_symmetry_group_IT_number 73
_symmetry_cell_setting 'orthorhombic'
loop_
_space_group_symop_operation_xyz
x,y,z
-x,1/2-y,z
x,-y,1/2-z
1/2-x,y,-z
-x,-y,-z
x,1/2+y,-z
-x,y,1/2+z
1/2+x,-y,z
1/2+x,1/2+y,1/2+z
1/2-x,-y,1/2+z
1/2+x,1/2-y,-z
-x,1/2+y,1/2-z
1/2-x,1/2-y,1/2-z
1/2+x,y,1/2-z
1/2-x,1/2+y,z
x,1/2-y,1/2+z
loop_
_atom_site_type_symbol
_atom_site_label
_atom_site_fract_x
_atom_site_fract_y
_atom_site_fract_z
Si Si1 0.801507 0.064289 0.694747
Si Si2 0.510254 0.937370 0.445809
Si Si3 0.175483 0.441254 0.195903
Si Si4 0.428901 0.922378 0.356493
Si Si5 0.601951 0.448323 0.628148
Si Si6 0.522594 0.576660 0.703554
O O1 0.813928 0.252456 0.695433
O O2 0.814938 0.000000 0.750000
O O3 0.735124 0.029360 0.687463
O O4 0.835985 0.978896 0.650279
O O5 0.500000 0.750000 0.448007
O O6 0.463342 0.985569 0.404424
O O7 0.574039 0.970826 0.425794
O O8 0.500000 0.000000 0.500000
O O9 0.155553 0.500000 0.250000
O O10 0.129263 0.490147 0.155710
O O11 0.416772 0.733516 0.359541
O O12 0.471360 0.962177 0.312090
O O13 0.566324 0.574845 0.659666
O O14 0.500000 0.750000 0.713389
O O15 0.552188 0.500000 0.750000
#
# Coordination Sequence:
#
# PCOD9530533 Si02
#       6
#    16  16  16  16  16  16
#     4  11  21  34  52  76 106 143 178 213 250 298
#     4   9  20  36  57  79 103 131 165 211 264 314
#     4  11  21  34  52  76 106 143 178 213 250 298
#     4  10  20  35  51  73 102 134 169 210 255 305
#     4  10  20  35  51  73 102 134 169 210 255 305
#     4  11  20  30  45  69  99 133 167 205 250 302
#
# _framework density 17.758620000000001
#
# number of rings (size 3 to 8) (size 9 to 14) (size 15 to 20)
#    0.000    1.667    0.000    8.500    0.000    4.000 
#    0.000    0.000    0.000    1.000    0.000    7.000 
#    0.000    0.000    0.000    0.000    0.000    0.000 
#
# Total GULP energy -267509.143355 kJ/mol
# GULP energy per Si atom -5573.107153 kJ/mol
# Density = 1.771820 g / cm^3
# Si number density = 17.758620 Si / 1000 Ang^3
#
#
#
# Elastic Constant Matrix: (Units=GPa)
#
#
# Indices 1 2 3 4 5 6 
#
# 1 99.0837 13.5410 43.1569 0.0000 0.0000 0.0000
# 2 13.5410 71.8587 20.2465 0.0000 0.0000 0.0000
# 3 43.1569 20.2465 101.2921 0.0000 0.0000 0.0000
# 4 0.0000 0.0000 0.0000 26.6464 0.0000 0.0000
# 5 0.0000 0.0000 0.0000 0.0000 20.1529 0.0000
# 6 0.0000 0.0000 0.0000 0.0000 0.0000 23.3410
#
#
#
# Elastic Compliance Matrix: (Units=1/GPa)
#
#
# Indices 1 2 3 4 5 6 
#
# 1 0.012447 -0.000902 -0.005123 0.000000 0.000000 0.000000
# 2 -0.000902 0.014812 -0.002576 0.000000 0.000000 0.000000
# 3 -0.005123 -0.002576 0.012570 0.000000 0.000000 0.000000
# 4 0.000000 0.000000 0.000000 0.037528 0.000000 0.000000
# 5 0.000000 0.000000 0.000000 0.000000 0.049621 0.000000
# 6 0.000000 0.000000 0.000000 0.000000 0.000000 0.042843
#
#
# Mechanical properties :
#
#
# Convention : Reuss Voigt Hill
#
# Bulk Modulus (GPa) = 44.19589 47.34704 45.77146
# Shear Modulus (GPa) = 25.69818 27.04741 26.37279
#
# Velocity S-wave (km/s) = 3.80818 3.90687 3.85784
# Velocity P-wave (km/s) = 6.65412 6.86082 6.75826
#
# Compressibility (1/GPa) = 0.02262654
#
# Stress axis : x y z
#
# Youngs Moduli (GPa) = 80.33992 67.51245 79.55384
#
# Poissons Ratio (x) = 0.06090 0.40755
# Poissons Ratio (y) = 0.07248 0.20496
# Poissons Ratio (z) = 0.41158 0.17393
#
# Static dielectric constant tensor:
#      x y z
#    x 1.653060 0.000000 0.000000 
#    y 0.000000 1.618120 0.000000 
#    z 0.000000 0.000000 -7.505870 
# 
# From -- ./inp_files/7188.got.cif
#   From: 2010.05.17/outbox.cif.g08.bks.cpg/sg73_4_cif.got.tgz:7188.got - 2010.06.03 17:35:07.
