data_PCOD9530463
_publ_section_title
;
Structure prediction by ZEFSAII (Michael W. Deem and Ramdas Pophale) SiO2 
 PCOD9530463
Probable space group: I B C A 
;
_chemical_formula_sum "Si O2"
_cell_formula_units_Z 96
_cell_length_a 17.030593
_cell_length_b 24.097802
_cell_length_c 11.504764
_cell_angle_alpha 90.000000
_cell_angle_beta 90.000000
_cell_angle_gamma 90.000000
_cell_volume 4721.553513
_symmetry_space_group_name_H-M "I B C A "
_symmetry_group_IT_number 73
_symmetry_cell_setting 'orthorhombic'
loop_
_space_group_symop_operation_xyz
x,y,z
-x,1/2-y,z
x,-y,1/2-z
1/2-x,y,-z
-x,-y,-z
x,1/2+y,-z
-x,y,1/2+z
1/2+x,-y,z
1/2+x,1/2+y,1/2+z
1/2-x,-y,1/2+z
1/2+x,1/2-y,-z
-x,1/2+y,1/2-z
1/2-x,1/2-y,1/2-z
1/2+x,y,1/2-z
1/2-x,1/2+y,z
x,1/2-y,1/2+z
loop_
_atom_site_type_symbol
_atom_site_label
_atom_site_fract_x
_atom_site_fract_y
_atom_site_fract_z
Si Si1 0.000000 0.750000 0.141102
Si Si2 0.698425 0.069299 0.386565
Si Si3 0.113091 0.841796 0.041042
Si Si4 0.639628 0.796143 0.708448
Si Si5 0.801154 0.323275 0.223845
Si Si6 0.654108 0.538278 0.001406
Si Si7 0.820029 0.500000 0.750000
O O1 0.956342 0.701779 0.068955
O O2 0.938973 0.783587 0.221556
O O3 0.750000 0.082740 0.500000
O O4 0.659713 0.124504 0.338372
O O5 0.645936 0.016691 0.422399
O O6 0.760957 0.048296 0.291558
O O7 0.176955 0.825833 0.139614
O O8 0.133369 0.831101 0.907623
O O9 0.107679 0.908744 0.045970
O O10 0.707364 0.823122 0.787420
O O11 0.669694 0.734750 0.674455
O O12 0.635832 0.521258 0.134873
O O13 0.750000 0.549849 0.000000
#
# Coordination Sequence:
#
# PCOD9530463 Si02
#       7
#     8  16  16  16  16  16   8
#     4  10  24  38  52  80 118 160 198 236 290 350
#     4   9  17  28  47  83 120 145 174 228 290 337
#     4  11  20  36  59  83 109 150 195 238 291 353
#     4  10  21  36  54  82 117 152 193 240 293 347
#     4  10  20  33  56  88 116 144 190 249 298 343
#     4   9  17  29  53  86 118 146 182 233 294 347
#     4   8  14  26  42  74 114 146 174 212 278 334
#
# _framework density 20.332291999999999
#
# number of rings (size 3 to 8) (size 9 to 14) (size 15 to 20)
#    0.000    2.667    0.000    5.000    0.000    4.000 
#    0.000    0.000    0.000    0.000    0.000   95.667 
#    0.000    0.000    0.000    0.000    0.000    0.000 
#
# Total GULP energy -267491.101041 kJ/mol
# GULP energy per Si atom -5572.731272 kJ/mol
# Density = 2.028601 g / cm^3
# Si number density = 20.332292 Si / 1000 Ang^3
#
#
#
# Elastic Constant Matrix: (Units=GPa)
#
#
# Indices 1 2 3 4 5 6 
#
# 1 41.6574 13.1614 2.4016 0.0000 0.0000 0.0000
# 2 13.1614 143.4946 27.9857 0.0000 0.0000 0.0000
# 3 2.4016 27.9857 31.6186 0.0000 0.0000 0.0000
# 4 0.0000 0.0000 0.0000 34.5208 0.0000 0.0000
# 5 0.0000 0.0000 0.0000 0.0000 2.5929 0.0000
# 6 0.0000 0.0000 0.0000 0.0000 0.0000 16.3404
#
#
#
# Elastic Compliance Matrix: (Units=1/GPa)
#
#
# Indices 1 2 3 4 5 6 
#
# 1 0.024722 -0.002298 0.000156 0.000000 0.000000 0.000000
# 2 -0.002298 0.008636 -0.007470 0.000000 0.000000 0.000000
# 3 0.000156 -0.007470 0.038226 0.000000 0.000000 0.000000
# 4 0.000000 0.000000 0.000000 0.028968 0.000000 0.000000
# 5 0.000000 0.000000 0.000000 0.000000 0.385663 0.000000
# 6 0.000000 0.000000 0.000000 0.000000 0.000000 0.061198
#
#
# Mechanical properties :
#
#
# Convention : Reuss Voigt Hill
#
# Bulk Modulus (GPa) = 19.09765 33.76309 26.43037
# Shear Modulus (GPa) = 8.56030 22.23894 15.39962
#
# Velocity S-wave (km/s) = 2.05410 3.31081 2.75507
# Velocity P-wave (km/s) = 3.87801 5.59080 4.81123
#
# Compressibility (1/GPa) = 0.05236247
#
# Stress axis : x y z
#
# Youngs Moduli (GPa) = 40.44914 115.78799 26.15990
#
# Poissons Ratio (x) = 0.26608 -0.00409
# Poissons Ratio (y) = 0.09295 0.19540
# Poissons Ratio (z) = -0.00632 0.86489
#
# Static dielectric constant tensor:
#      x y z
#    x 1.739870 0.000000 0.000000 
#    y 0.000000 1.757700 0.000000 
#    z 0.000000 0.000000 1.747680 
# 
# From -- ./inp_files/12062.got.cif
#   From: 2010.05.17/outbox.cif.g08.bks.cpg/sg73_7_cif.got.tgz:12062.got - 2010.06.03 17:35:07.
