data_PCOD9530878
_publ_section_title
;
Structure prediction by ZEFSAII (Michael W. Deem and Ramdas Pophale) SiO2 
 PCOD9530878
Probable space group: I B C A 
;
_chemical_formula_sum "Si O2"
_cell_formula_units_Z 96
_cell_length_a 15.941647
_cell_length_b 14.496914
_cell_length_c 20.694752
_cell_angle_alpha 90.000000
_cell_angle_beta 90.000000
_cell_angle_gamma 90.000000
_cell_volume 4782.654154
_symmetry_space_group_name_H-M "I B C A "
_symmetry_group_IT_number 73
_symmetry_cell_setting 'orthorhombic'
loop_
_space_group_symop_operation_xyz
x,y,z
-x,1/2-y,z
x,-y,1/2-z
1/2-x,y,-z
-x,-y,-z
x,1/2+y,-z
-x,y,1/2+z
1/2+x,-y,z
1/2+x,1/2+y,1/2+z
1/2-x,-y,1/2+z
1/2+x,1/2-y,-z
-x,1/2+y,1/2-z
1/2-x,1/2-y,1/2-z
1/2+x,y,1/2-z
1/2-x,1/2+y,z
x,1/2-y,1/2+z
loop_
_atom_site_type_symbol
_atom_site_label
_atom_site_fract_x
_atom_site_fract_y
_atom_site_fract_z
Si Si1 0.445080 0.511731 0.330403
Si Si2 0.337617 0.859453 0.360165
Si Si3 0.500000 0.750000 0.052266
Si Si4 0.908724 0.205267 0.773961
Si Si5 0.517724 0.586902 0.455530
Si Si6 0.396482 0.500000 0.750000
Si Si7 0.148400 0.324797 0.639758
O O1 0.412982 0.594113 0.283706
O O2 0.461573 0.573127 0.393028
O O3 0.534001 0.469408 0.304314
O O4 0.387718 0.427781 0.350827
O O5 0.375954 0.763260 0.334495
O O6 0.391817 0.897382 0.420739
O O7 0.345317 0.927325 0.295471
O O8 0.243395 0.838526 0.381521
O O9 0.582313 0.770252 0.095367
O O10 0.508710 0.666854 0.003002
O O11 0.853041 0.221409 0.710622
O O12 0.000000 0.250000 0.760821
O O13 0.500000 0.500000 0.500000
#
# Coordination Sequence:
#
# PCOD9530878 Si02
#       7
#    16  16   8  16  16   8  16
#     4  11  21  42  68  93 132 177 228 266 349 424
#     4  11  26  41  67 103 143 166 229 293 343 397
#     4  12  26  44  74  88 136 182 236 274 332 414
#     4  12  20  41  69  99 137 177 218 274 355 427
#     4  11  23  45  69  91 125 187 236 270 332 406
#     4  10  20  38  70  94 130 178 206 274 352 410
#     4  12  25  42  66 105 133 174 223 291 339 408
#
# _framework density 20.072537000000001
#
# number of rings (size 3 to 8) (size 9 to 14) (size 15 to 20)
#    0.000    0.667    7.500    1.500    2.333    0.667 
#    3.000    0.000    0.000    0.000    0.000    0.000 
#    0.000    0.000    0.000    0.000    0.000    0.000 
#
# Total GULP energy -267262.627504 kJ/mol
# GULP energy per Si atom -5567.971406 kJ/mol
# Density = 2.002685 g / cm^3
# Si number density = 20.072537 Si / 1000 Ang^3
#
#
#
# Elastic Constant Matrix: (Units=GPa)
#
#
# Indices 1 2 3 4 5 6 
#
# 1 94.5376 60.2946 48.2420 0.0000 0.0000 0.0000
# 2 60.2946 105.0117 36.2318 0.0000 0.0000 0.0000
# 3 48.2420 36.2318 114.2139 0.0000 0.0000 0.0000
# 4 0.0000 0.0000 0.0000 38.2196 0.0000 0.0000
# 5 0.0000 0.0000 0.0000 0.0000 13.9224 0.0000
# 6 0.0000 0.0000 0.0000 0.0000 0.0000 20.0655
#
#
#
# Elastic Compliance Matrix: (Units=1/GPa)
#
#
# Indices 1 2 3 4 5 6 
#
# 1 0.019042 -0.009161 -0.005137 0.000000 0.000000 0.000000
# 2 -0.009161 0.015100 -0.000921 0.000000 0.000000 0.000000
# 3 -0.005137 -0.000921 0.011217 0.000000 0.000000 0.000000
# 4 0.000000 0.000000 0.000000 0.026165 0.000000 0.000000
# 5 0.000000 0.000000 0.000000 0.000000 0.071827 0.000000
# 6 0.000000 0.000000 0.000000 0.000000 0.000000 0.049837
#
#
# Mechanical properties :
#
#
# Convention : Reuss Voigt Hill
#
# Bulk Modulus (GPa) = 67.01364 67.03335 67.02350
# Shear Modulus (GPa) = 21.87236 25.70781 23.79008
#
# Velocity S-wave (km/s) = 3.30459 3.58263 3.44642
# Velocity P-wave (km/s) = 6.92955 7.11208 7.02141
#
# Compressibility (1/GPa) = 0.01492233
#
# Stress axis : x y z
#
# Youngs Moduli (GPa) = 52.51613 66.22353 89.14774
#
# Poissons Ratio (x) = 0.60667 0.45794
# Poissons Ratio (y) = 0.48109 0.08209
# Poissons Ratio (z) = 0.26977 0.06098
#
# Static dielectric constant tensor:
#      x y z
#    x 1.706940 0.000000 0.000000 
#    y 0.000000 1.495560 0.000000 
#    z 0.000000 0.000000 1.754370 
# 
# From -- ./inp_files/26036.got.cif
#   From: 2010.05.17/outbox.cif.g08.bks.cpg/sg73_14_cif.got.tgz:26036.got - 2010.06.03 17:35:07.
