data_PCOD9530632
_publ_section_title
;
Structure prediction by ZEFSAII (Michael W. Deem and Ramdas Pophale) SiO2 
 PCOD9530632
Probable space group: I B C A 
;
_chemical_formula_sum "Si O2"
_cell_formula_units_Z 112
_cell_length_a 18.250890
_cell_length_b 25.417253
_cell_length_c 11.148872
_cell_angle_alpha 90.000000
_cell_angle_beta 90.000000
_cell_angle_gamma 90.000000
_cell_volume 5171.822233
_symmetry_space_group_name_H-M "I B C A "
_symmetry_group_IT_number 73
_symmetry_cell_setting 'orthorhombic'
loop_
_space_group_symop_operation_xyz
x,y,z
-x,1/2-y,z
x,-y,1/2-z
1/2-x,y,-z
-x,-y,-z
x,1/2+y,-z
-x,y,1/2+z
1/2+x,-y,z
1/2+x,1/2+y,1/2+z
1/2-x,-y,1/2+z
1/2+x,1/2-y,-z
-x,1/2+y,1/2-z
1/2-x,1/2-y,1/2-z
1/2+x,y,1/2-z
1/2-x,1/2+y,z
x,1/2-y,1/2+z
loop_
_atom_site_type_symbol
_atom_site_label
_atom_site_fract_x
_atom_site_fract_y
_atom_site_fract_z
Si Si1 0.589662 0.760126 0.024191
Si Si2 0.562375 0.035182 0.562507
Si Si3 0.356052 0.065520 0.437538
Si Si4 0.418743 0.275275 0.726736
Si Si5 0.534305 0.886396 0.734802
Si Si6 0.883899 0.624363 0.381230
Si Si7 0.707401 0.560811 0.800238
O O1 0.500000 0.750000 0.017165
O O2 0.615544 0.728949 0.141510
O O3 0.616364 0.819109 0.055827
O O4 0.616557 0.748201 0.889586
O O5 0.535146 0.062770 0.682332
O O6 0.591945 0.079646 0.474405
O O7 0.500000 0.000000 0.500000
O O8 0.626815 0.995120 0.590478
O O9 0.423064 0.100259 0.388265
O O10 0.285558 0.076887 0.356086
O O11 0.343631 0.067141 0.580561
O O12 0.500000 0.250000 0.738322
O O13 0.428067 0.336964 0.701978
O O14 0.451877 0.870527 0.709423
O O15 0.817111 0.600538 0.304827
O O16 0.704698 0.500000 0.750000
#
# Coordination Sequence:
#
# PCOD9530632 Si02
#       7
#    16  16  16  16  16  16  16
#     4  10  20  37  57  91 128 166 209 273 336 398
#     4  12  23  37  59  94 133 166 211 272 323 385
#     4  11  25  42  62  89 135 181 217 264 327 396
#     4  10  20  36  59  89 130 168 211 267 342 408
#     4  12  23  37  62  97 128 169 216 271 335 393
#     4  12  23  36  63  95 127 164 221 273 324 399
#     4  11  24  43  62  89 130 182 224 262 320 403
#
# _framework density 21.655809999999999
#
# number of rings (size 3 to 8) (size 9 to 14) (size 15 to 20)
#    0.000    0.857    7.143    2.143    0.000    1.143 
#    0.000    0.000    0.000    0.857    0.000    0.000 
#    0.000    0.000    0.000    0.000    0.000    0.000 
#
# Total GULP energy -312439.786109 kJ/mol
# GULP energy per Si atom -5579.281895 kJ/mol
# Density = 2.160652 g / cm^3
# Si number density = 21.655810 Si / 1000 Ang^3
#
#
#
# Elastic Constant Matrix: (Units=GPa)
#
#
# Indices 1 2 3 4 5 6 
#
# 1 30.1621 -1.0854 -1.2941 0.0000 0.0000 0.0000
# 2 -1.0854 74.5457 -4.1411 0.0000 0.0000 0.0000
# 3 -1.2941 -4.1411 96.4081 0.0000 0.0000 0.0000
# 4 0.0000 0.0000 0.0000 -1.2903 0.0000 0.0000
# 5 0.0000 0.0000 0.0000 0.0000 -78.8748 0.0000
# 6 0.0000 0.0000 0.0000 0.0000 0.0000 12.8309
#
#
#
# Elastic Compliance Matrix: (Units=1/GPa)
#
#
# Indices 1 2 3 4 5 6 
#
# 1 0.033193 0.000509 0.000467 0.000000 0.000000 0.000000
# 2 0.000509 0.013454 0.000585 0.000000 0.000000 0.000000
# 3 0.000467 0.000585 0.010404 0.000000 0.000000 0.000000
# 4 0.000000 0.000000 0.000000 -0.774987 0.000000 0.000000
# 5 0.000000 0.000000 0.000000 0.000000 -0.012678 0.000000
# 6 0.000000 0.000000 0.000000 0.000000 0.000000 0.077937
#
#
# Mechanical properties :
#
#
# Convention : Reuss Voigt Hill
#
# Bulk Modulus (GPa) = 16.61849 20.89718 18.75783
# Shear Modulus (GPa) = -7.86482 0.37559 -3.74461
#
# Velocity S-wave (km/s) = -1.90778 0.41691 -1.31640
# Velocity P-wave (km/s) = 1.68456 3.14681 2.52390
#
# Compressibility (1/GPa) = 0.06017394
#
# Stress axis : x y z
#
# Youngs Moduli (GPa) = 30.12722 74.32460 96.11725
#
# Poissons Ratio (x) = -0.03785 -0.04493
# Poissons Ratio (y) = -0.01534 -0.05621
# Poissons Ratio (z) = -0.01408 -0.04346
#
# Static dielectric constant tensor:
#      x y z
#    x 1.813080 0.000000 0.000000 
#    y 0.000000 1.883850 0.000000 
#    z 0.000000 0.000000 1.853590 
# 
# From -- ./inp_files/13038.got.cif
#   From: 2010.05.17/outbox.cif.g08.bks.cpg/sg73_7_cif.got.tgz:13038.got - 2010.06.03 17:35:07.
