data_PCOD9530626
_publ_section_title
;
Structure prediction by ZEFSAII (Michael W. Deem and Ramdas Pophale) SiO2 
 PCOD9530626
Probable space group: I B C A 
;
_chemical_formula_sum "Si O2"
_cell_formula_units_Z 56
_cell_length_a 9.023654
_cell_length_b 19.662295
_cell_length_c 14.569004
_cell_angle_alpha 90.000000
_cell_angle_beta 90.000000
_cell_angle_gamma 90.000000
_cell_volume 2584.916417
_symmetry_space_group_name_H-M "I B C A "
_symmetry_group_IT_number 73
_symmetry_cell_setting 'orthorhombic'
loop_
_space_group_symop_operation_xyz
x,y,z
-x,1/2-y,z
x,-y,1/2-z
1/2-x,y,-z
-x,-y,-z
x,1/2+y,-z
-x,y,1/2+z
1/2+x,-y,z
1/2+x,1/2+y,1/2+z
1/2-x,-y,1/2+z
1/2+x,1/2-y,-z
-x,1/2+y,1/2-z
1/2-x,1/2-y,1/2-z
1/2+x,y,1/2-z
1/2-x,1/2+y,z
x,1/2-y,1/2+z
loop_
_atom_site_type_symbol
_atom_site_label
_atom_site_fract_x
_atom_site_fract_y
_atom_site_fract_z
Si Si1 0.500000 0.750000 0.764982
Si Si2 0.410081 0.526973 0.647428
Si Si3 0.746076 0.843121 0.294143
Si Si4 0.712112 0.403760 0.906027
O O1 0.614159 0.792945 0.703613
O O2 0.401761 0.803482 0.822428
O O3 0.451979 0.500000 0.750000
O O4 0.287337 0.586360 0.658536
O O5 0.552488 0.559978 0.600575
O O6 0.334839 0.536628 0.900873
O O7 0.725175 0.860125 0.186169
O O8 0.750000 0.365586 0.000000
#
# Coordination Sequence:
#
# PCOD9530626 Si02
#       4
#     8  16  16  16
#     4  10  20  36  62  84 104 154 200 236 262 328
#     4  10  20  36  59  85 112 151 192 236 279 348
#     4  10  20  37  61  84 111 146 202 230 275 338
#     4  11  22  36  56  87 119 144 180 240 301 336
#
# _framework density 21.664144
#
# number of rings (size 3 to 8) (size 9 to 14) (size 15 to 20)
#    0.000    1.714    2.857    3.429    4.000    0.000 
#    0.000    1.429    0.000    0.000    0.000    0.000 
#    0.000    0.000    0.000    0.000    0.000    0.000 
#
# Total GULP energy -156419.031358 kJ/mol
# GULP energy per Si atom -5586.393977 kJ/mol
# Density = 2.161484 g / cm^3
# Si number density = 21.664144 Si / 1000 Ang^3
#
#
#
# Elastic Constant Matrix: (Units=GPa)
#
#
# Indices 1 2 3 4 5 6 
#
# 1 105.7203 18.2759 20.4907 0.0000 0.0000 0.0000
# 2 18.2759 76.2019 7.8884 0.0000 0.0000 0.0000
# 3 20.4907 7.8884 56.6232 0.0000 0.0000 0.0000
# 4 0.0000 0.0000 0.0000 1.6934 0.0000 0.0000
# 5 0.0000 0.0000 0.0000 0.0000 -1.2250 0.0000
# 6 0.0000 0.0000 0.0000 0.0000 0.0000 43.1307
#
#
#
# Elastic Compliance Matrix: (Units=1/GPa)
#
#
# Indices 1 2 3 4 5 6 
#
# 1 0.010511 -0.002158 -0.003503 0.000000 0.000000 0.000000
# 2 -0.002158 0.013758 -0.001136 0.000000 0.000000 0.000000
# 3 -0.003503 -0.001136 0.019086 0.000000 0.000000 0.000000
# 4 0.000000 0.000000 0.000000 0.590515 0.000003 0.000000
# 5 0.000000 0.000000 0.000000 0.000003 -0.816316 0.000000
# 6 0.000000 0.000000 0.000000 0.000000 0.000000 0.023185
#
#
# Mechanical properties :
#
#
# Convention : Reuss Voigt Hill
#
# Bulk Modulus (GPa) = 33.60017 36.87282 35.23649
# Shear Modulus (GPa) = -36.83363 21.51252 -7.66055
#
# Velocity S-wave (km/s) = -4.12784 3.15461 -1.88248
# Velocity P-wave (km/s) = 2.67870 5.50690 3.40224
#
# Compressibility (1/GPa) = 0.02976176
#
# Stress axis : x y z
#
# Youngs Moduli (GPa) = 95.13859 72.68379 52.39307
#
# Poissons Ratio (x) = 0.15687 0.18353
# Poissons Ratio (y) = 0.20534 0.05950
# Poissons Ratio (z) = 0.33327 0.08255
#
# Static dielectric constant tensor:
#      x y z
#    x 1.807850 0.000000 0.000000 
#    y 0.000000 1.796760 0.000000 
#    z 0.000000 0.000000 1.830830 
# 
# From -- ./inp_files/4593.got.cif
#   From: 2010.05.17/outbox.cif.g08.bks.cpg/sg73_3_cif.got.tgz:4593.got - 2010.06.03 17:35:07.
