data_PCOD9530810
_publ_section_title
;
Structure prediction by ZEFSAII (Michael W. Deem and Ramdas Pophale) SiO2 
 PCOD9530810
Probable space group: I B C A 
;
_chemical_formula_sum "Si O2"
_cell_formula_units_Z 64
_cell_length_a 11.287882
_cell_length_b 23.476775
_cell_length_c 10.009560
_cell_angle_alpha 90.000000
_cell_angle_beta 90.000000
_cell_angle_gamma 90.000000
_cell_volume 2652.564089
_symmetry_space_group_name_H-M "I B C A "
_symmetry_group_IT_number 73
_symmetry_cell_setting 'orthorhombic'
loop_
_space_group_symop_operation_xyz
x,y,z
-x,1/2-y,z
x,-y,1/2-z
1/2-x,y,-z
-x,-y,-z
x,1/2+y,-z
-x,y,1/2+z
1/2+x,-y,z
1/2+x,1/2+y,1/2+z
1/2-x,-y,1/2+z
1/2+x,1/2-y,-z
-x,1/2+y,1/2-z
1/2-x,1/2-y,1/2-z
1/2+x,y,1/2-z
1/2-x,1/2+y,z
x,1/2-y,1/2+z
loop_
_atom_site_type_symbol
_atom_site_label
_atom_site_fract_x
_atom_site_fract_y
_atom_site_fract_z
Si Si1 0.145503 0.078337 0.649285
Si Si2 0.617563 0.311748 0.494495
Si Si3 0.000000 0.750000 0.242636
Si Si4 0.750000 0.471738 0.000000
Si Si5 0.611073 0.067640 0.280000
O O1 0.118425 0.120560 0.527239
O O2 0.174730 0.015201 0.593891
O O3 0.270527 0.095444 0.716705
O O4 0.026101 0.082813 0.736499
O O5 0.750000 0.289248 0.500000
O O6 0.569714 0.287712 0.352531
O O7 0.559925 0.292221 0.633742
O O8 0.650530 0.432339 0.934403
O O9 0.615367 0.000000 0.250000
#
# Coordination Sequence:
#
# PCOD9530810 Si02
#       5
#    16  16   8   8  16
#     4  11  23  39  67  93 137 178 230 284 336 414
#     4  11  24  46  71 102 136 174 233 284 362 420
#     4  10  26  46  74  98 134 176 222 300 360 422
#     4  10  20  38  60  94 132 182 230 282 334 396
#     4  10  22  38  60  94 133 181 223 275 333 395
#
# _framework density 24.127597999999999
#
# number of rings (size 3 to 8) (size 9 to 14) (size 15 to 20)
#    0.000    1.500    1.250    3.750    3.500    4.000 
#    0.000    0.000    0.000    0.000    0.000    0.000 
#    0.000    0.000    0.000    0.000    0.000    0.000 
#
# Total GULP energy -178171.604697 kJ/mol
# GULP energy per Si atom -5567.862647 kJ/mol
# Density = 2.407268 g / cm^3
# Si number density = 24.127598 Si / 1000 Ang^3
#
#
#
# Elastic Constant Matrix: (Units=GPa)
#
#
# Indices 1 2 3 4 5 6 
#
# 1 213.5017 37.1774 87.4719 0.0000 0.0000 0.0000
# 2 37.1774 35.5193 20.3600 -0.0002 0.0000 0.0000
# 3 87.4719 20.3600 155.7300 -0.0001 -0.0002 -0.0001
# 4 0.0000 -0.0002 -0.0001 -1.6922 -0.0001 0.0000
# 5 0.0000 0.0000 -0.0002 -0.0001 37.4674 0.0000
# 6 0.0000 0.0000 -0.0001 0.0000 0.0000 23.9614
#
#
#
# Elastic Compliance Matrix: (Units=1/GPa)
#
#
# Indices 1 2 3 4 5 6 
#
# 1 0.006935 -0.005433 -0.003185 0.000001 0.000000 0.000000
# 2 -0.005433 0.034691 -0.001484 -0.000004 0.000000 0.000000
# 3 -0.003185 -0.001484 0.008404 0.000000 0.000000 0.000000
# 4 0.000001 -0.000004 0.000000 -0.590946 -0.000001 0.000000
# 5 0.000000 0.000000 0.000000 -0.000001 0.026690 0.000000
# 6 0.000000 0.000000 0.000000 0.000000 0.000000 0.041734
#
#
# Mechanical properties :
#
#
# Convention : Reuss Voigt Hill
#
# Bulk Modulus (GPa) = 33.52712 77.19663 55.36187
# Shear Modulus (GPa) = -11.30334 29.26342 8.98004
#
# Velocity S-wave (km/s) = -2.16679 3.48639 1.93131
# Velocity P-wave (km/s) = 2.76874 6.94775 5.28853
#
# Compressibility (1/GPa) = 0.02982660
#
# Stress axis : x y z
#
# Youngs Moduli (GPa) = 144.20316 28.82612 118.98722
#
# Poissons Ratio (x) = 0.15661 0.37896
# Poissons Ratio (y) = 0.78343 0.17656
# Poissons Ratio (z) = 0.45926 0.04277
#
# Static dielectric constant tensor:
#      x y z
#    x 1.929700 0.000000 0.000000 
#    y 0.000000 1.972880 0.000000 
#    z 0.000000 0.000000 2.142450 
# 
# From -- ./inp_files/9604.got.cif
#   From: 2010.05.17/outbox.cif.g08.bks.cpg/sg73_5_cif.got.tgz:9604.got - 2010.06.03 17:35:07.
