data_PCOD9530521
_publ_section_title
;
Structure prediction by ZEFSAII (Michael W. Deem and Ramdas Pophale) SiO2 
 PCOD9530521
Probable space group: I B C A 
;
_chemical_formula_sum "Si O2"
_cell_formula_units_Z 80
_cell_length_a 17.549183
_cell_length_b 8.138790
_cell_length_c 23.667928
_cell_angle_alpha 90.000000
_cell_angle_beta 90.000000
_cell_angle_gamma 90.000000
_cell_volume 3380.469213
_symmetry_space_group_name_H-M "I B C A "
_symmetry_group_IT_number 73
_symmetry_cell_setting 'orthorhombic'
loop_
_space_group_symop_operation_xyz
x,y,z
-x,1/2-y,z
x,-y,1/2-z
1/2-x,y,-z
-x,-y,-z
x,1/2+y,-z
-x,y,1/2+z
1/2+x,-y,z
1/2+x,1/2+y,1/2+z
1/2-x,-y,1/2+z
1/2+x,1/2-y,-z
-x,1/2+y,1/2-z
1/2-x,1/2-y,1/2-z
1/2+x,y,1/2-z
1/2-x,1/2+y,z
x,1/2-y,1/2+z
loop_
_atom_site_type_symbol
_atom_site_label
_atom_site_fract_x
_atom_site_fract_y
_atom_site_fract_z
Si Si1 0.861330 0.468643 0.590875
Si Si2 0.829915 0.317205 0.225613
Si Si3 0.682939 0.477251 0.619318
Si Si4 0.160099 0.328853 0.513296
Si Si5 0.085029 0.310063 0.321605
O O1 0.773672 0.458580 0.612075
O O2 0.876047 0.313691 0.550933
O O3 0.872783 0.618458 0.546499
O O4 0.906706 0.517059 0.646659
O O5 0.841271 0.500000 0.250000
O O6 0.750000 0.250000 0.250000
O O7 0.830122 0.362009 0.159437
O O8 0.890939 0.201453 0.256073
O O9 0.656300 0.516328 0.556076
O O10 0.642469 0.320169 0.647261
O O11 0.250000 0.293259 0.500000
O O12 0.000000 0.250000 0.328025
#
# Coordination Sequence:
#
# PCOD9530521 Si02
#       5
#    16  16  16  16  16
#     4  11  20  37  64  93 127 168 217 264 317 379
#     4  10  21  38  63  92 124 164 212 258 311 383
#     4  10  20  38  63  90 125 168 216 258 313 381
#     4  10  20  34  61  97 124 160 216 272 309 367
#     4  11  24  42  63  94 134 169 207 267 327 380
#
# _framework density 23.665355000000002
#
# number of rings (size 3 to 8) (size 9 to 14) (size 15 to 20)
#    0.000    1.600    2.000    5.400    2.800    0.000 
#    0.000   14.000    0.000    0.000    0.000    0.000 
#    0.000    0.000    0.000    0.000    0.000    0.000 
#
# Total GULP energy -223415.747215 kJ/mol
# GULP energy per Si atom -5585.393680 kJ/mol
# Density = 2.361149 g / cm^3
# Si number density = 23.665355 Si / 1000 Ang^3
#
#
#
# Elastic Constant Matrix: (Units=GPa)
#
#
# Indices 1 2 3 4 5 6 
#
# 1 51.8279 -3.4532 9.7340 0.0000 0.0000 0.0000
# 2 -3.4532 82.8639 34.3803 0.0000 0.0000 0.0000
# 3 9.7340 34.3803 146.2014 0.0000 0.0000 0.0000
# 4 0.0000 0.0000 0.0000 60.4083 0.0000 0.0000
# 5 0.0000 0.0000 0.0000 0.0000 7.9437 0.0000
# 6 0.0000 0.0000 0.0000 0.0000 0.0000 11.9504
#
#
#
# Elastic Compliance Matrix: (Units=1/GPa)
#
#
# Indices 1 2 3 4 5 6 
#
# 1 0.019709 0.001513 -0.001668 0.000000 0.000000 0.000000
# 2 0.001513 0.013489 -0.003273 0.000000 0.000000 0.000000
# 3 -0.001668 -0.003273 0.007721 0.000000 0.000000 0.000000
# 4 0.000000 0.000000 0.000000 0.016554 0.000000 0.000000
# 5 0.000000 0.000000 0.000000 0.000000 0.125887 0.000000
# 6 0.000000 0.000000 0.000000 0.000000 0.000000 0.083679
#
#
# Mechanical properties :
#
#
# Convention : Reuss Voigt Hill
#
# Bulk Modulus (GPa) = 29.35708 40.24615 34.80161
# Shear Modulus (GPa) = 17.52865 32.07594 24.80230
#
# Velocity S-wave (km/s) = 2.72451 3.68557 3.24086
# Velocity P-wave (km/s) = 4.72539 5.92912 5.36115
#
# Compressibility (1/GPa) = 0.03406334
#
# Stress axis : x y z
#
# Youngs Moduli (GPa) = 50.73887 74.13487 129.52433
#
# Poissons Ratio (x) = -0.11220 0.21606
# Poissons Ratio (y) = -0.07679 0.42390
# Poissons Ratio (z) = 0.08464 0.24263
#
# Static dielectric constant tensor:
#      x y z
#    x 1.806130 0.000000 0.000000 
#    y 0.000000 2.004000 0.000000 
#    z 0.000000 0.000000 1.928040 
# 
# From -- ./inp_files/32324.got.cif
#   From: 2010.05.17/outbox.cif.g08.bks.cpg/sg73_17_cif.got.tgz:32324.got - 2010.06.03 17:35:07.
