data_PCOD9530403
_publ_section_title
;
Structure prediction by ZEFSAII (Michael W. Deem and Ramdas Pophale) SiO2 
 PCOD9530403
Probable space group: I B C A 
;
_chemical_formula_sum "Si O2"
_cell_formula_units_Z 120
_cell_length_a 9.013400
_cell_length_b 23.669225
_cell_length_c 28.803740
_cell_angle_alpha 90.000000
_cell_angle_beta 90.000000
_cell_angle_gamma 90.000000
_cell_volume 6144.995440
_symmetry_space_group_name_H-M "I B C A "
_symmetry_group_IT_number 73
_symmetry_cell_setting 'orthorhombic'
loop_
_space_group_symop_operation_xyz
x,y,z
-x,1/2-y,z
x,-y,1/2-z
1/2-x,y,-z
-x,-y,-z
x,1/2+y,-z
-x,y,1/2+z
1/2+x,-y,z
1/2+x,1/2+y,1/2+z
1/2-x,-y,1/2+z
1/2+x,1/2-y,-z
-x,1/2+y,1/2-z
1/2-x,1/2-y,1/2-z
1/2+x,y,1/2-z
1/2-x,1/2+y,z
x,1/2-y,1/2+z
loop_
_atom_site_type_symbol
_atom_site_label
_atom_site_fract_x
_atom_site_fract_y
_atom_site_fract_z
Si Si1 0.700226 0.285556 0.308274
Si Si2 0.167676 0.775331 0.951432
Si Si3 0.086672 0.371335 0.117877
Si Si4 0.376025 0.472141 0.818908
Si Si5 0.872751 0.894832 0.184396
Si Si6 0.000000 0.250000 0.273020
Si Si7 0.221615 0.314344 0.623302
Si Si8 0.625823 0.076055 0.250536
O O1 0.648956 0.338601 0.337324
O O2 0.608572 0.284576 0.260957
O O3 0.663865 0.228665 0.337033
O O4 0.876826 0.282142 0.302576
O O5 0.157897 0.835817 0.924749
O O6 0.248514 0.728143 0.919283
O O7 0.000000 0.750000 0.955806
O O8 0.250000 0.780649 0.000000
O O9 0.117062 0.435563 0.133716
O O10 0.911659 0.358053 0.113357
O O11 0.367676 0.538738 0.829300
O O12 0.519812 0.457764 0.786848
O O13 0.240535 0.455144 0.784542
O O14 0.857575 0.850639 0.142968
O O15 0.727994 0.885937 0.216610
O O16 0.014448 0.891927 0.216945
#
# Coordination Sequence:
#
# PCOD9530403 Si02
#       8
#    16  16  16  16  16   8  16  16
#     4  10  20  34  45  73 105 140 183 216 262 314
#     4   9  20  43  67  86 105 132 169 218 285 361
#     4  10  20  36  57  78 107 141 176 222 278 326
#     4  11  20  33  50  76 112 153 197 232 262 301
#     4  11  20  33  50  76 112 153 197 232 262 301
#     4  10  20  30  48  70 108 144 178 216 266 318
#     4  10  20  36  57  78 107 141 176 222 278 326
#     4  10  21  33  49  73 110 161 205 229 253 296
#
# _framework density 19.528085000000001
#
# number of rings (size 3 to 8) (size 9 to 14) (size 15 to 20)
#    0.000    1.867    2.667    4.000    0.000    7.467 
#    7.200    0.000    0.000    0.800    0.000    3.733 
#    0.000    0.000    0.000    0.000    0.000    0.000 
#
# Total GULP energy -334958.676907 kJ/mol
# GULP energy per Si atom -5582.644615 kJ/mol
# Density = 1.948364 g / cm^3
# Si number density = 19.528085 Si / 1000 Ang^3
#
#
#
# Elastic Constant Matrix: (Units=GPa)
#
#
# Indices 1 2 3 4 5 6 
#
# 1 92.0027 16.4301 25.5459 0.0000 0.0000 0.0000
# 2 16.4301 115.3801 50.0722 0.0000 0.0000 0.0000
# 3 25.5459 50.0722 90.6073 0.0000 0.0000 0.0000
# 4 0.0000 0.0000 0.0000 14.8469 0.0000 0.0000
# 5 0.0000 0.0000 0.0000 0.0000 16.0212 0.0000
# 6 0.0000 0.0000 0.0000 0.0000 0.0000 26.9631
#
#
#
# Elastic Compliance Matrix: (Units=1/GPa)
#
#
# Indices 1 2 3 4 5 6 
#
# 1 0.011801 -0.000311 -0.003155 0.000000 0.000000 0.000000
# 2 -0.000311 0.011410 -0.006218 0.000000 0.000000 0.000000
# 3 -0.003155 -0.006218 0.015362 0.000000 0.000000 0.000000
# 4 0.000000 0.000000 0.000000 0.067354 0.000000 0.000000
# 5 0.000000 0.000000 0.000000 0.000000 0.062417 0.000000
# 6 0.000000 0.000000 0.000000 0.000000 0.000000 0.037088
#
#
# Mechanical properties :
#
#
# Convention : Reuss Voigt Hill
#
# Bulk Modulus (GPa) = 52.07007 53.56517 52.81762
# Shear Modulus (GPa) = 21.62616 25.29570 23.46093
#
# Velocity S-wave (km/s) = 3.33143 3.60300 3.46987
# Velocity P-wave (km/s) = 6.44360 6.69314 6.56956
#
# Compressibility (1/GPa) = 0.01920489
#
# Stress axis : x y z
#
# Youngs Moduli (GPa) = 84.73932 87.64572 65.09485
#
# Poissons Ratio (x) = 0.02727 0.20539
# Poissons Ratio (y) = 0.02637 0.40473
# Poissons Ratio (z) = 0.26737 0.54494
#
# Static dielectric constant tensor:
#      x y z
#    x 1.736670 0.000000 0.000000 
#    y 0.000000 1.801710 0.000000 
#    z 0.000000 0.000000 1.674710 
# 
# From -- ./inp_files/33681.got.cif
#   From: 2010.05.17/outbox.cif.g08.bks.cpg/sg73_17_cif.got.tgz:33681.got - 2010.06.03 17:35:07.
