data_PCOD9530860
_publ_section_title
;
Structure prediction by ZEFSAII (Michael W. Deem and Ramdas Pophale) SiO2 
 PCOD9530860
Probable space group: I B C A 
;
_chemical_formula_sum "Si O2"
_cell_formula_units_Z 88
_cell_length_a 16.577053
_cell_length_b 18.205120
_cell_length_c 13.829914
_cell_angle_alpha 90.000000
_cell_angle_beta 90.000000
_cell_angle_gamma 90.000000
_cell_volume 4173.691563
_symmetry_space_group_name_H-M "I B C A "
_symmetry_group_IT_number 73
_symmetry_cell_setting 'orthorhombic'
loop_
_space_group_symop_operation_xyz
x,y,z
-x,1/2-y,z
x,-y,1/2-z
1/2-x,y,-z
-x,-y,-z
x,1/2+y,-z
-x,y,1/2+z
1/2+x,-y,z
1/2+x,1/2+y,1/2+z
1/2-x,-y,1/2+z
1/2+x,1/2-y,-z
-x,1/2+y,1/2-z
1/2-x,1/2-y,1/2-z
1/2+x,y,1/2-z
1/2-x,1/2+y,z
x,1/2-y,1/2+z
loop_
_atom_site_type_symbol
_atom_site_label
_atom_site_fract_x
_atom_site_fract_y
_atom_site_fract_z
Si Si1 0.250000 0.517044 0.000000
Si Si2 0.723161 0.690694 0.826525
Si Si3 0.639439 0.391834 0.414969
Si Si4 0.054008 0.185320 0.419863
Si Si5 0.497066 0.838570 0.213251
Si Si6 0.845454 0.927761 0.813419
O O1 0.186891 0.465331 0.058547
O O2 0.299252 0.557771 0.085668
O O3 0.750000 0.750000 0.750000
O O4 0.792365 0.670771 0.902172
O O5 0.638980 0.712941 0.875400
O O6 0.708202 0.617776 0.762989
O O7 0.580053 0.374200 0.503205
O O8 0.582601 0.379749 0.322781
O O9 0.005802 0.154428 0.328628
O O10 0.000000 0.250000 0.463163
O O11 0.500000 0.750000 0.194234
O O12 0.575247 0.878470 0.169031
O O13 0.867330 0.000000 0.750000
#
# Coordination Sequence:
#
# PCOD9530860 Si02
#       6
#     8  16  16  16  16  16
#     4  12  24  44  68 102 138 194 236 284 364 434
#     4  11  22  42  70 100 140 186 236 298 357 421
#     4  12  21  43  69  99 142 187 240 288 362 426
#     4  10  20  38  65  99 136 179 230 295 355 411
#     4  10  23  44  67  99 140 183 239 304 359 418
#     4  11  23  48  68  99 146 184 234 303 353 435
#
# _framework density 21.084451999999999
#
# number of rings (size 3 to 8) (size 9 to 14) (size 15 to 20)
#    0.000    1.091    3.636    4.909    0.000    0.727 
#   16.364    0.000    0.000    0.000    0.000    0.000 
#    0.000    0.000    0.000    0.000    0.000    0.000 
#
# Total GULP energy -245644.871748 kJ/mol
# GULP energy per Si atom -5582.837994 kJ/mol
# Density = 2.103646 g / cm^3
# Si number density = 21.084452 Si / 1000 Ang^3
#
#
#
# Elastic Constant Matrix: (Units=GPa)
#
#
# Indices 1 2 3 4 5 6 
#
# 1 94.9335 33.7121 50.5076 0.0000 0.0000 0.0000
# 2 33.7121 91.8944 25.1193 0.0000 0.0000 0.0000
# 3 50.5076 25.1193 79.5219 0.0000 0.0000 0.0000
# 4 0.0000 0.0000 0.0000 21.6279 0.0000 0.0000
# 5 0.0000 0.0000 0.0000 0.0000 40.4435 0.0000
# 6 0.0000 0.0000 0.0000 0.0000 0.0000 42.1258
#
#
#
# Elastic Compliance Matrix: (Units=1/GPa)
#
#
# Indices 1 2 3 4 5 6 
#
# 1 0.016921 -0.003579 -0.009617 0.000000 0.000000 0.000000
# 2 -0.003579 0.012667 -0.001728 0.000000 0.000000 0.000000
# 3 -0.009617 -0.001728 0.019229 0.000000 0.000000 0.000000
# 4 0.000000 0.000000 0.000000 0.046237 0.000000 0.000000
# 5 0.000000 0.000000 0.000000 0.000000 0.024726 0.000000
# 6 0.000000 0.000000 0.000000 0.000000 0.000000 0.023738
#
#
# Mechanical properties :
#
#
# Convention : Reuss Voigt Hill
#
# Bulk Modulus (GPa) = 52.71562 53.89197 53.30380
# Shear Modulus (GPa) = 27.82581 31.30683 29.56632
#
# Velocity S-wave (km/s) = 3.63675 3.85753 3.74877
# Velocity P-wave (km/s) = 6.53384 6.74213 6.63880
#
# Compressibility (1/GPa) = 0.01896971
#
# Stress axis : x y z
#
# Youngs Moduli (GPa) = 59.09822 78.94269 52.00467
#
# Poissons Ratio (x) = 0.28252 0.50011
# Poissons Ratio (y) = 0.21150 0.08988
# Poissons Ratio (z) = 0.56833 0.13644
#
# Static dielectric constant tensor:
#      x y z
#    x 1.788110 0.000000 0.000000 
#    y 0.000000 1.714260 0.000000 
#    z 0.000000 0.000000 1.807830 
# 
# From -- ./inp_files/17931.got.cif
#   From: 2010.05.17/outbox.cif.g08.bks.cpg/sg73_9_cif.got.tgz:17931.got - 2010.06.03 17:35:07.
