data_PCOD9530083
_publ_section_title
;
Structure prediction by ZEFSAII (Michael W. Deem and Ramdas Pophale) SiO2 
 PCOD9530083
Probable space group: I B C A 
;
_chemical_formula_sum "Si O2"
_cell_formula_units_Z 96
_cell_length_a 9.763732
_cell_length_b 20.261412
_cell_length_c 23.849315
_cell_angle_alpha 90.000000
_cell_angle_beta 90.000000
_cell_angle_gamma 90.000000
_cell_volume 4718.038360
_symmetry_space_group_name_H-M "I B C A "
_symmetry_group_IT_number 73
_symmetry_cell_setting 'orthorhombic'
loop_
_space_group_symop_operation_xyz
x,y,z
-x,1/2-y,z
x,-y,1/2-z
1/2-x,y,-z
-x,-y,-z
x,1/2+y,-z
-x,y,1/2+z
1/2+x,-y,z
1/2+x,1/2+y,1/2+z
1/2-x,-y,1/2+z
1/2+x,1/2-y,-z
-x,1/2+y,1/2-z
1/2-x,1/2-y,1/2-z
1/2+x,y,1/2-z
1/2-x,1/2+y,z
x,1/2-y,1/2+z
loop_
_atom_site_type_symbol
_atom_site_label
_atom_site_fract_x
_atom_site_fract_y
_atom_site_fract_z
Si Si1 0.864769 0.498526 0.821998
Si Si2 0.375948 0.701700 0.243374
Si Si3 0.892924 0.094947 0.526183
Si Si4 0.367475 0.062694 0.546390
Si Si5 0.385664 0.594171 0.145254
Si Si6 0.377610 0.585851 0.320318
O O1 0.754737 0.450751 0.854306
O O2 0.754156 0.548097 0.793579
O O3 0.976219 0.549423 0.848870
O O4 0.980776 0.448201 0.799204
O O5 0.500000 0.750000 0.231917
O O6 0.250000 0.750000 0.250000
O O7 0.369808 0.645694 0.195420
O O8 0.386506 0.660140 0.300527
O O9 0.750000 0.112211 0.500000
O O10 0.906401 0.129330 0.585798
O O11 0.005660 0.102126 0.478951
O O12 0.893166 0.016246 0.541736
O O13 0.250000 0.075103 0.500000
O O14 0.354515 0.079345 0.612316
#
# Coordination Sequence:
#
# PCOD9530083 Si02
#       6
#    16  16  16  16  16  16
#     4  10  20  35  60  96 120 152 182 247 322 356
#     4  12  28  47  64  81 114 172 218 258 288 342
#     4  10  19  31  55  90 132 154 180 228 304 384
#     4  10  19  31  55  90 132 154 180 228 304 384
#     4  11  22  39  61  92 126 157 199 245 306 366
#     4  11  22  39  61  92 126 157 199 245 306 366
#
# _framework density 20.347439000000001
#
# number of rings (size 3 to 8) (size 9 to 14) (size 15 to 20)
#    0.000    1.333    3.333    4.000    4.667    4.000 
#    0.000    0.000    0.000    6.000    0.000    0.000 
#    0.000    0.000    0.000    0.000    0.000    0.000 
#
# Total GULP energy -267286.077898 kJ/mol
# GULP energy per Si atom -5568.459956 kJ/mol
# Density = 2.030113 g / cm^3
# Si number density = 20.347439 Si / 1000 Ang^3
#
#
#
# Elastic Constant Matrix: (Units=GPa)
#
#
# Indices 1 2 3 4 5 6 
#
# 1 163.0442 33.0681 29.3586 0.0000 0.0000 0.0000
# 2 33.0681 68.9878 40.3002 0.0000 0.0000 0.0000
# 3 29.3586 40.3002 132.8820 0.0000 0.0000 0.0000
# 4 0.0000 0.0000 0.0000 11.7395 0.0000 0.0000
# 5 0.0000 0.0000 0.0000 0.0000 16.0818 0.0000
# 6 0.0000 0.0000 0.0000 0.0000 0.0000 29.9960
#
#
#
# Elastic Compliance Matrix: (Units=1/GPa)
#
#
# Indices 1 2 3 4 5 6 
#
# 1 0.006837 -0.002910 -0.000628 0.000000 0.000000 0.000000
# 2 -0.002910 0.018855 -0.005075 0.000000 0.000000 0.000000
# 3 -0.000628 -0.005075 0.009203 0.000000 0.000000 0.000000
# 4 0.000000 0.000000 0.000000 0.085183 0.000000 0.000000
# 5 0.000000 0.000000 0.000000 0.000000 0.062182 0.000000
# 6 0.000000 0.000000 0.000000 0.000000 0.000000 0.033338
#
#
# Mechanical properties :
#
#
# Convention : Reuss Voigt Hill
#
# Bulk Modulus (GPa) = 56.59865 63.37419 59.98642
# Shear Modulus (GPa) = 20.94554 29.04259 24.99407
#
# Velocity S-wave (km/s) = 3.21190 3.78211 3.50861
# Velocity P-wave (km/s) = 6.45225 7.09127 6.77929
#
# Compressibility (1/GPa) = 0.01766827
#
# Stress axis : x y z
#
# Youngs Moduli (GPa) = 146.27137 53.03592 108.65506
#
# Poissons Ratio (x) = 0.15435 0.06822
# Poissons Ratio (y) = 0.42569 0.55146
# Poissons Ratio (z) = 0.09184 0.26918
#
# Static dielectric constant tensor:
#      x y z
#    x 1.723990 0.000000 0.000000 
#    y 0.000000 1.714710 0.000000 
#    z 0.000000 0.000000 1.779180 
# 
# From -- ./inp_files/31186.got.cif
#   From: 2010.05.17/outbox.cif.g08.bks.cpg/sg73_16_cif.got.tgz:31186.got - 2010.06.03 17:35:07.
