data_PCOD9530717
_publ_section_title
;
Structure prediction by ZEFSAII (Michael W. Deem and Ramdas Pophale) SiO2 
 PCOD9530717
Probable space group: I B C A 
;
_chemical_formula_sum "Si O2"
_cell_formula_units_Z 120
_cell_length_a 22.825911
_cell_length_b 29.048973
_cell_length_c 8.643289
_cell_angle_alpha 90.000000
_cell_angle_beta 90.000000
_cell_angle_gamma 90.000000
_cell_volume 5731.099348
_symmetry_space_group_name_H-M "I B C A "
_symmetry_group_IT_number 73
_symmetry_cell_setting 'orthorhombic'
loop_
_space_group_symop_operation_xyz
x,y,z
-x,1/2-y,z
x,-y,1/2-z
1/2-x,y,-z
-x,-y,-z
x,1/2+y,-z
-x,y,1/2+z
1/2+x,-y,z
1/2+x,1/2+y,1/2+z
1/2-x,-y,1/2+z
1/2+x,1/2-y,-z
-x,1/2+y,1/2-z
1/2-x,1/2-y,1/2-z
1/2+x,y,1/2-z
1/2-x,1/2+y,z
x,1/2-y,1/2+z
loop_
_atom_site_type_symbol
_atom_site_label
_atom_site_fract_x
_atom_site_fract_y
_atom_site_fract_z
Si Si1 0.954977 0.291112 0.077157
Si Si2 0.045246 0.333539 0.251138
Si Si3 0.315705 0.009787 0.064528
Si Si4 0.646097 0.686674 0.015950
Si Si5 0.318481 0.588427 0.523462
Si Si6 0.146424 0.393799 0.375216
Si Si7 0.750000 0.171788 0.500000
Si Si8 0.672086 0.264783 0.795778
O O1 0.889655 0.279505 0.126509
O O2 0.000000 0.250000 0.113824
O O3 0.980295 0.334047 0.178034
O O4 0.956211 0.298203 0.893579
O O5 0.083614 0.321267 0.098386
O O6 0.081677 0.374030 0.337853
O O7 0.341899 0.962912 0.989380
O O8 0.311919 0.000000 0.250000
O O9 0.351487 0.056749 0.041663
O O10 0.250000 0.017407 0.000000
O O11 0.662087 0.636508 0.948635
O O12 0.679873 0.711135 0.158881
O O13 0.659698 0.722749 0.880995
O O14 0.250000 0.584141 0.500000
O O15 0.329448 0.598062 0.703054
O O16 0.193920 0.359773 0.453065
O O17 0.776490 0.205165 0.631187
#
# Coordination Sequence:
#
# PCOD9530717 Si02
#       8
#    16  16  16  16  16  16   8  16
#     4  12  23  39  63  88 122 159 227 273 313 374
#     4  11  23  40  63  92 122 165 215 283 323 377
#     4   9  17  33  59  89 122 167 214 259 320 382
#     4  11  24  40  57  88 127 163 215 257 322 378
#     4   9  19  35  57  85 124 169 215 253 313 386
#     4  10  20  37  59  92 128 167 207 264 327 388
#     4  12  24  38  60  90 142 172 212 250 330 410
#     4  12  26  40  61  91 128 179 207 261 325 388
#
# _framework density 20.938393000000001
#
# number of rings (size 3 to 8) (size 9 to 14) (size 15 to 20)
#    0.000    1.333    3.333    2.800    2.800    0.533 
#    0.000    0.000    0.000    0.000    0.000   33.600 
#    0.000    0.000    0.000    0.000    0.000    0.000 
#
# Total GULP energy -334211.589611 kJ/mol
# GULP energy per Si atom -5570.193160 kJ/mol
# Density = 2.089074 g / cm^3
# Si number density = 20.938393 Si / 1000 Ang^3
#
#
#
# Elastic Constant Matrix: (Units=GPa)
#
#
# Indices 1 2 3 4 5 6 
#
# 1 84.4516 37.2550 25.6831 0.0000 0.0000 0.0000
# 2 37.2550 127.1357 6.4068 0.0000 0.0000 0.0000
# 3 25.6831 6.4068 49.0700 0.0000 0.0000 0.0000
# 4 0.0000 0.0000 0.0000 15.7902 0.0000 0.0000
# 5 0.0000 0.0000 0.0000 0.0000 29.6233 0.0000
# 6 0.0000 0.0000 0.0000 0.0000 0.0000 34.7013
#
#
#
# Elastic Compliance Matrix: (Units=1/GPa)
#
#
# Indices 1 2 3 4 5 6 
#
# 1 0.016153 -0.004336 -0.007888 0.000000 0.000000 0.000000
# 2 -0.004336 0.009082 0.001084 0.000000 0.000000 0.000000
# 3 -0.007888 0.001084 0.024366 0.000000 0.000000 0.000000
# 4 0.000000 0.000000 0.000000 0.063331 0.000000 0.000000
# 5 0.000000 0.000000 0.000000 0.000000 0.033757 0.000000
# 6 0.000000 0.000000 0.000000 0.000000 0.000000 0.028817
#
#
# Mechanical properties :
#
#
# Convention : Reuss Voigt Hill
#
# Bulk Modulus (GPa) = 36.60354 44.37192 40.48773
# Shear Modulus (GPa) = 24.16708 28.77711 26.47210
#
# Velocity S-wave (km/s) = 3.40104 3.71127 3.55954
# Velocity P-wave (km/s) = 5.73953 6.29304 6.02265
#
# Compressibility (1/GPa) = 0.02731976
#
# Stress axis : x y z
#
# Youngs Moduli (GPa) = 61.90910 110.11364 41.04035
#
# Poissons Ratio (x) = 0.47743 0.32373
# Poissons Ratio (y) = 0.26842 -0.04447
# Poissons Ratio (z) = 0.48835 -0.11932
#
# Static dielectric constant tensor:
#      x y z
#    x 1.787960 0.000000 0.000000 
#    y 0.000000 1.932610 0.000000 
#    z 0.000000 0.000000 1.783110 
# 
# From -- ./inp_files/7483.got.cif
#   From: 2010.05.17/outbox.cif.g08.bks.cpg/sg73_4_cif.got.tgz:7483.got - 2010.06.03 17:35:07.
