data_PCOD9530923
_publ_section_title
;
Structure prediction by ZEFSAII (Michael W. Deem and Ramdas Pophale) SiO2 
 PCOD9530923
Probable space group: I B C A 
;
_chemical_formula_sum "Si O2"
_cell_formula_units_Z 104
_cell_length_a 9.148833
_cell_length_b 26.538639
_cell_length_c 20.870655
_cell_angle_alpha 90.000000
_cell_angle_beta 90.000000
_cell_angle_gamma 90.000000
_cell_volume 5067.344449
_symmetry_space_group_name_H-M "I B C A "
_symmetry_group_IT_number 73
_symmetry_cell_setting 'orthorhombic'
loop_
_space_group_symop_operation_xyz
x,y,z
-x,1/2-y,z
x,-y,1/2-z
1/2-x,y,-z
-x,-y,-z
x,1/2+y,-z
-x,y,1/2+z
1/2+x,-y,z
1/2+x,1/2+y,1/2+z
1/2-x,-y,1/2+z
1/2+x,1/2-y,-z
-x,1/2+y,1/2-z
1/2-x,1/2-y,1/2-z
1/2+x,y,1/2-z
1/2-x,1/2+y,z
x,1/2-y,1/2+z
loop_
_atom_site_type_symbol
_atom_site_label
_atom_site_fract_x
_atom_site_fract_y
_atom_site_fract_z
Si Si1 0.250000 0.369484 0.500000
Si Si2 0.874864 0.488162 0.450069
Si Si3 0.415787 0.416004 0.382113
Si Si4 0.996979 0.692552 0.064413
Si Si5 0.843622 0.362958 0.247614
Si Si6 0.743276 0.614805 0.891699
Si Si7 0.591840 0.299492 0.209979
O O1 0.305108 0.398687 0.437629
O O2 0.106072 0.338676 0.479612
O O3 0.750000 0.502068 0.500000
O O4 0.910632 0.523723 0.389708
O O5 0.838180 0.432253 0.425305
O O6 0.000000 0.500000 0.500000
O O7 0.350435 0.397827 0.314593
O O8 0.580133 0.393825 0.396461
O O9 0.074246 0.696392 0.133921
O O10 0.000000 0.750000 0.039777
O O11 0.840061 0.664433 0.077839
O O12 0.788469 0.383950 0.315506
O O13 0.755098 0.311312 0.231524
O O14 0.008971 0.346793 0.259982
O O15 0.500000 0.250000 0.228345
#
# Coordination Sequence:
#
# PCOD9530923 Si02
#       7
#     8  16  16  16  16  16  16
#     4  12  24  40  68  96 132 182 234 284 340 420
#     4  12  25  44  70 102 133 178 235 275 343 421
#     4  12  25  44  69  99 135 182 227 293 351 418
#     4  10  24  43  66  98 140 180 228 283 346 411
#     4  11  22  42  66 102 134 178 230 287 353 413
#     4  11  26  46  69  99 141 178 223 293 349 416
#     4  10  20  39  66  95 135 179 230 281 341 412
#
# _framework density 20.523569999999999
#
# number of rings (size 3 to 8) (size 9 to 14) (size 15 to 20)
#    0.000    0.923    5.385    1.385    0.000    1.846 
#    0.000    2.308    0.000    0.000    0.000    0.000 
#    0.000    0.000    0.000    0.000    0.000    0.000 
#
# Total GULP energy -289538.847135 kJ/mol
# GULP energy per Si atom -5568.054753 kJ/mol
# Density = 2.047686 g / cm^3
# Si number density = 20.523570 Si / 1000 Ang^3
#
#
#
# Elastic Constant Matrix: (Units=GPa)
#
#
# Indices 1 2 3 4 5 6 
#
# 1 74.3377 18.7130 -1.0299 0.0000 0.0000 0.0000
# 2 18.7130 89.4613 34.9322 0.0000 0.0000 0.0000
# 3 -1.0299 34.9322 85.6416 0.0001 0.0000 0.0000
# 4 0.0000 0.0000 0.0001 13.6298 0.0000 0.0000
# 5 0.0000 0.0000 0.0000 0.0000 29.3562 0.0000
# 6 0.0000 0.0000 0.0000 0.0000 0.0000 21.0893
#
#
#
# Elastic Compliance Matrix: (Units=1/GPa)
#
#
# Indices 1 2 3 4 5 6 
#
# 1 0.014397 -0.003662 0.001667 0.000000 0.000000 0.000000
# 2 -0.003662 0.014227 -0.005847 0.000000 0.000000 0.000000
# 3 0.001667 -0.005847 0.014082 0.000000 0.000000 0.000000
# 4 0.000000 0.000000 0.000000 0.073368 0.000000 0.000000
# 5 0.000000 0.000000 0.000000 0.000000 0.034064 0.000000
# 6 0.000000 0.000000 0.000000 0.000000 0.000000 0.047417
#
#
# Mechanical properties :
#
#
# Convention : Reuss Voigt Hill
#
# Bulk Modulus (GPa) = 37.00850 39.40791 38.20820
# Shear Modulus (GPa) = 22.49733 25.93674 24.21704
#
# Velocity S-wave (km/s) = 3.31444 3.55879 3.43878
# Velocity P-wave (km/s) = 5.72002 6.01079 5.86721
#
# Compressibility (1/GPa) = 0.02702082
#
# Stress axis : x y z
#
# Youngs Moduli (GPa) = 69.45808 70.28759 71.01463
#
# Poissons Ratio (x) = 0.25742 -0.11838
# Poissons Ratio (y) = 0.25439 0.41523
# Poissons Ratio (z) = -0.11579 0.41098
#
# Static dielectric constant tensor:
#      x y z
#    x 1.722300 0.000000 0.000000 
#    y 0.000000 1.793870 0.000000 
#    z 0.000000 0.000000 1.571200 
# 
# From -- ./inp_files/24975.got.cif
#   From: 2010.05.17/outbox.cif.g08.bks.cpg/sg73_13_cif.got.tgz:24975.got - 2010.06.03 17:35:07.
