data_PCOD9530912
_publ_section_title
;
Structure prediction by ZEFSAII (Michael W. Deem and Ramdas Pophale) SiO2 
 PCOD9530912
Probable space group: I B C A 
;
_chemical_formula_sum "Si O2"
_cell_formula_units_Z 120
_cell_length_a 20.325974
_cell_length_b 22.730729
_cell_length_c 12.235556
_cell_angle_alpha 90.000000
_cell_angle_beta 90.000000
_cell_angle_gamma 90.000000
_cell_volume 5653.123054
_symmetry_space_group_name_H-M "I B C A "
_symmetry_group_IT_number 73
_symmetry_cell_setting 'orthorhombic'
loop_
_space_group_symop_operation_xyz
x,y,z
-x,1/2-y,z
x,-y,1/2-z
1/2-x,y,-z
-x,-y,-z
x,1/2+y,-z
-x,y,1/2+z
1/2+x,-y,z
1/2+x,1/2+y,1/2+z
1/2-x,-y,1/2+z
1/2+x,1/2-y,-z
-x,1/2+y,1/2-z
1/2-x,1/2-y,1/2-z
1/2+x,y,1/2-z
1/2-x,1/2+y,z
x,1/2-y,1/2+z
loop_
_atom_site_type_symbol
_atom_site_label
_atom_site_fract_x
_atom_site_fract_y
_atom_site_fract_z
Si Si1 0.547509 0.010243 0.130070
Si Si2 0.254102 0.678991 0.872291
Si Si3 0.000000 0.750000 0.010964
Si Si4 0.464515 0.646741 0.345042
Si Si5 0.399306 0.994970 0.402713
Si Si6 0.062685 0.690998 0.320540
Si Si7 0.656536 0.091943 0.763906
Si Si8 0.150317 0.779693 0.203877
O O1 0.533607 0.079672 0.119327
O O2 0.575683 0.000000 0.250000
O O3 0.473758 0.982377 0.125358
O O4 0.594613 0.989246 0.032700
O O5 0.284450 0.626558 0.796370
O O6 0.299550 0.737963 0.861783
O O7 0.186960 0.697638 0.812225
O O8 0.250000 0.662813 0.000000
O O9 0.993453 0.809974 0.077986
O O10 0.056278 0.770037 0.927804
O O11 0.496656 0.659754 0.225511
O O12 0.388429 0.666906 0.351115
O O13 0.343923 0.038559 0.352047
O O14 0.385820 0.935149 0.336600
O O15 0.116874 0.641369 0.328802
O O16 0.090542 0.736642 0.233120
#
# Coordination Sequence:
#
# PCOD9530912 Si02
#       8
#    16  16   8  16  16  16  16  16
#     4  11  22  38  61  99 137 171 219 261 340 415
#     4  10  24  41  66  88 116 179 230 278 323 394
#     4  12  22  32  58  98 136 170 198 244 342 420
#     4  12  22  37  58  97 135 167 203 265 332 407
#     4  10  20  39  64  95 126 172 211 279 332 397
#     4  11  20  36  57  95 131 163 197 254 326 414
#     4  10  20  41  66  89 127 166 228 272 334 387
#     4  10  22  41  56  89 131 159 215 270 321 391
#
# _framework density 21.227204
#
# number of rings (size 3 to 8) (size 9 to 14) (size 15 to 20)
#    0.000    1.333    5.333    0.800    1.867    2.133 
#    2.400    0.000    8.800    0.000    0.000    0.000 
#    0.000    0.000    0.000    0.000    0.000    0.000 
#
# Total GULP energy -334100.380207 kJ/mol
# GULP energy per Si atom -5568.339670 kJ/mol
# Density = 2.117889 g / cm^3
# Si number density = 21.227204 Si / 1000 Ang^3
#
#
#
# Elastic Constant Matrix: (Units=GPa)
#
#
# Indices 1 2 3 4 5 6 
#
# 1 54.0536 10.3019 24.8605 0.0000 0.0000 0.0000
# 2 10.3019 71.0321 13.2930 0.0000 0.0000 0.0000
# 3 24.8605 13.2930 114.8148 0.0000 0.0000 0.0000
# 4 0.0000 0.0000 0.0000 26.6543 0.0000 0.0000
# 5 0.0000 0.0000 0.0000 0.0000 10.9890 0.0000
# 6 0.0000 0.0000 0.0000 0.0000 0.0000 20.3051
#
#
#
# Elastic Compliance Matrix: (Units=1/GPa)
#
#
# Indices 1 2 3 4 5 6 
#
# 1 0.020887 -0.002231 -0.004264 0.000000 0.000000 0.000000
# 2 -0.002231 0.014628 -0.001211 0.000000 0.000000 0.000000
# 3 -0.004264 -0.001211 0.009773 0.000000 0.000000 0.000000
# 4 0.000000 0.000000 0.000000 0.037517 0.000000 0.000000
# 5 0.000000 0.000000 0.000000 0.000000 0.091000 0.000000
# 6 0.000000 0.000000 0.000000 0.000000 0.000000 0.049249
#
#
# Mechanical properties :
#
#
# Convention : Reuss Voigt Hill
#
# Bulk Modulus (GPa) = 33.47150 37.42350 35.44750
# Shear Modulus (GPa) = 20.12683 24.35269 22.23976
#
# Velocity S-wave (km/s) = 3.08256 3.39077 3.24033
# Velocity P-wave (km/s) = 5.33592 5.74439 5.54392
#
# Compressibility (1/GPa) = 0.02987616
#
# Stress axis : x y z
#
# Youngs Moduli (GPa) = 47.87763 68.36078 102.32131
#
# Poissons Ratio (x) = 0.15253 0.43632
# Poissons Ratio (y) = 0.10683 0.12386
# Poissons Ratio (z) = 0.20416 0.08275
#
# Static dielectric constant tensor:
#      x y z
#    x 1.812090 0.000000 0.000000 
#    y 0.000000 1.917720 0.000000 
#    z 0.000000 0.000000 1.863330 
# 
# From -- ./inp_files/13109.got.cif
#   From: 2010.05.17/outbox.cif.g08.bks.cpg/sg73_7_cif.got.tgz:13109.got - 2010.06.03 17:35:07.
