data_PCOD9530547
_publ_section_title
;
Structure prediction by ZEFSAII (Michael W. Deem and Ramdas Pophale) SiO2 
 PCOD9530547
Probable space group: I B C A 
;
_chemical_formula_sum "Si O2"
_cell_formula_units_Z 104
_cell_length_a 9.318403
_cell_length_b 26.688374
_cell_length_c 21.384078
_cell_angle_alpha 90.000000
_cell_angle_beta 90.000000
_cell_angle_gamma 90.000000
_cell_volume 5318.071031
_symmetry_space_group_name_H-M "I B C A "
_symmetry_group_IT_number 73
_symmetry_cell_setting 'orthorhombic'
loop_
_space_group_symop_operation_xyz
x,y,z
-x,1/2-y,z
x,-y,1/2-z
1/2-x,y,-z
-x,-y,-z
x,1/2+y,-z
-x,y,1/2+z
1/2+x,-y,z
1/2+x,1/2+y,1/2+z
1/2-x,-y,1/2+z
1/2+x,1/2-y,-z
-x,1/2+y,1/2-z
1/2-x,1/2-y,1/2-z
1/2+x,y,1/2-z
1/2-x,1/2+y,z
x,1/2-y,1/2+z
loop_
_atom_site_type_symbol
_atom_site_label
_atom_site_fract_x
_atom_site_fract_y
_atom_site_fract_z
Si Si1 0.777809 0.434066 0.809791
Si Si2 0.250000 0.040329 0.000000
Si Si3 0.751366 0.690399 0.240227
Si Si4 0.937917 0.097545 0.584130
Si Si5 0.098157 0.101900 0.309783
Si Si6 0.790328 0.031667 0.118489
Si Si7 0.525737 0.309052 0.842238
O O1 0.695135 0.414086 0.870513
O O2 0.681120 0.421443 0.750057
O O3 0.801945 0.492701 0.824193
O O4 0.931046 0.407920 0.803608
O O5 0.116189 0.076674 0.017482
O O6 0.271613 0.002662 0.057705
O O7 0.750000 0.750000 0.250000
O O8 0.856456 0.660380 0.192490
O O9 0.596820 0.677955 0.209710
O O10 0.823455 0.678670 0.307595
O O11 0.067072 0.063683 0.609422
O O12 0.981671 0.154933 0.597598
O O13 0.161698 0.070358 0.367742
O O14 0.500000 0.250000 0.855806
#
# Coordination Sequence:
#
# PCOD9530547 Si02
#       7
#    16   8  16  16  16  16  16
#     4  11  23  34  54  87 122 160 190 234 294 361
#     4  10  24  40  62  86 108 156 208 256 300 350
#     4  10  20  35  56  87 120 153 189 231 291 359
#     4  11  21  40  61  83 116 155 200 249 298 352
#     4  12  21  36  56  86 125 156 195 235 295 363
#     4  11  23  40  59  83 117 156 201 248 297 357
#     4  10  20  36  60  89 118 157 192 238 300 364
#
# _framework density 19.555962000000001
#
# number of rings (size 3 to 8) (size 9 to 14) (size 15 to 20)
#    0.000    1.231    3.077    4.615    0.000    2.462 
#    0.000    0.000    0.000    0.923    8.000    0.000 
#    0.000    0.000    0.000    0.000    0.000    0.000 
#
# Total GULP energy -289623.101510 kJ/mol
# GULP energy per Si atom -5569.675029 kJ/mol
# Density = 1.951145 g / cm^3
# Si number density = 19.555962 Si / 1000 Ang^3
#
#
#
# Elastic Constant Matrix: (Units=GPa)
#
#
# Indices 1 2 3 4 5 6 
#
# 1 93.7061 18.8354 22.6952 0.0000 0.0000 0.0000
# 2 18.8354 127.5294 33.6946 0.0000 0.0000 0.0000
# 3 22.6952 33.6946 67.8825 0.0000 0.0000 0.0000
# 4 0.0000 0.0000 0.0000 3.7897 0.0000 0.0000
# 5 0.0000 0.0000 0.0000 0.0000 24.8463 0.0000
# 6 0.0000 0.0000 0.0000 0.0000 0.0000 33.0574
#
#
#
# Elastic Compliance Matrix: (Units=1/GPa)
#
#
# Indices 1 2 3 4 5 6 
#
# 1 0.011682 -0.000798 -0.003510 0.000000 0.000000 0.000000
# 2 -0.000798 0.009079 -0.004240 0.000000 0.000000 0.000000
# 3 -0.003510 -0.004240 0.018009 0.000000 0.000000 0.000000
# 4 0.000000 0.000000 0.000000 0.263875 0.000000 0.000000
# 5 0.000000 0.000000 0.000000 0.000000 0.040247 0.000000
# 6 0.000000 0.000000 0.000000 0.000000 0.000000 0.030250
#
#
# Mechanical properties :
#
#
# Convention : Reuss Voigt Hill
#
# Bulk Modulus (GPa) = 46.13469 48.84093 47.48781
# Shear Modulus (GPa) = 12.57976 26.59819 19.58898
#
# Velocity S-wave (km/s) = 2.53903 3.69196 3.16838
# Velocity P-wave (km/s) = 5.67784 6.57292 6.14171
#
# Compressibility (1/GPa) = 0.02167567
#
# Stress axis : x y z
#
# Youngs Moduli (GPa) = 85.60123 110.13910 55.52717
#
# Poissons Ratio (x) = 0.08790 0.19487
# Poissons Ratio (y) = 0.06832 0.23543
# Poissons Ratio (z) = 0.30042 0.46698
#
# Static dielectric constant tensor:
#      x y z
#    x 1.736260 0.000000 0.000000 
#    y 0.000000 1.784330 0.000000 
#    z 0.000000 0.000000 1.727130 
# 
# From -- ./inp_files/24951.got.cif
#   From: 2010.05.17/outbox.cif.g08.bks.cpg/sg73_13_cif.got.tgz:24951.got - 2010.06.03 17:35:07.
