data_PCOD9530160
_publ_section_title
;
Structure prediction by ZEFSAII (Michael W. Deem and Ramdas Pophale) SiO2 
 PCOD9530160
Probable space group: I B C A 
;
_chemical_formula_sum "Si O2"
_cell_formula_units_Z 96
_cell_length_a 17.786674
_cell_length_b 10.403310
_cell_length_c 26.212906
_cell_angle_alpha 90.000000
_cell_angle_beta 90.000000
_cell_angle_gamma 90.000000
_cell_volume 4850.443557
_symmetry_space_group_name_H-M "I B C A "
_symmetry_group_IT_number 73
_symmetry_cell_setting 'orthorhombic'
loop_
_space_group_symop_operation_xyz
x,y,z
-x,1/2-y,z
x,-y,1/2-z
1/2-x,y,-z
-x,-y,-z
x,1/2+y,-z
-x,y,1/2+z
1/2+x,-y,z
1/2+x,1/2+y,1/2+z
1/2-x,-y,1/2+z
1/2+x,1/2-y,-z
-x,1/2+y,1/2-z
1/2-x,1/2-y,1/2-z
1/2+x,y,1/2-z
1/2-x,1/2+y,z
x,1/2-y,1/2+z
loop_
_atom_site_type_symbol
_atom_site_label
_atom_site_fract_x
_atom_site_fract_y
_atom_site_fract_z
Si Si1 0.334041 0.938781 0.701137
Si Si2 0.543758 0.615188 0.613576
Si Si3 0.388739 0.462593 0.894600
Si Si4 0.862643 0.735924 0.469999
Si Si5 0.200819 0.790232 0.576508
Si Si6 0.273921 0.667508 0.672906
O O1 0.390786 0.922279 0.653099
O O2 0.293113 0.798944 0.703040
O O3 0.377205 0.000000 0.750000
O O4 0.269447 0.047042 0.696088
O O5 0.500000 0.750000 0.627030
O O6 0.476571 0.512872 0.612551
O O7 0.577695 0.642153 0.557191
O O8 0.378172 0.373809 0.944539
O O9 0.336719 0.584469 0.900653
O O10 0.353587 0.381183 0.848522
O O11 0.853843 0.751014 0.530363
O O12 0.782132 0.686880 0.449089
O O13 0.221834 0.700001 0.623620
#
# Coordination Sequence:
#
# PCOD9530160 Si02
#       6
#    16  16  16  16  16  16
#     4  12  24  42  67  95 117 163 213 266 319 379
#     4  10  19  40  61  83 127 171 201 247 320 382
#     4  10  19  36  61  81 125 167 200 248 321 365
#     4   9  19  32  55  88 116 165 208 242 301 375
#     4  10  19  34  59  91 120 159 208 255 298 368
#     4  11  21  42  66  91 122 157 208 271 316 367
#
# _framework density 19.792003999999999
#
# number of rings (size 3 to 8) (size 9 to 14) (size 15 to 20)
#    0.000    1.667    6.667    0.500    0.000    7.333 
#    0.000    6.667    0.000    0.000    0.000    0.000 
#    0.000    0.000    0.000    0.000    0.000    0.000 
#
# Total GULP energy -267231.709800 kJ/mol
# GULP energy per Si atom -5567.327287 kJ/mol
# Density = 1.974696 g / cm^3
# Si number density = 19.792004 Si / 1000 Ang^3
#
#
#
# Elastic Constant Matrix: (Units=GPa)
#
#
# Indices 1 2 3 4 5 6 
#
# 1 84.8139 35.3769 22.8701 0.0000 0.0000 0.0000
# 2 35.3769 43.0639 3.4122 0.0000 0.0000 0.0000
# 3 22.8701 3.4122 56.1286 0.0000 0.0000 0.0000
# 4 0.0000 0.0000 0.0000 -2.0755 0.0000 0.0000
# 5 0.0000 0.0000 0.0000 0.0000 30.9010 0.0000
# 6 0.0000 0.0000 0.0000 0.0000 0.0000 4.3930
#
#
#
# Elastic Compliance Matrix: (Units=1/GPa)
#
#
# Indices 1 2 3 4 5 6 
#
# 1 0.020600 -0.016337 -0.007401 0.000000 0.000000 0.000000
# 2 -0.016337 0.036289 0.004451 0.000000 0.000000 0.000000
# 3 -0.007401 0.004451 0.020561 0.000000 0.000000 0.000000
# 4 0.000000 0.000000 0.000000 -0.481806 0.000000 0.000000
# 5 0.000000 0.000000 0.000000 0.000000 0.032361 0.000000
# 6 0.000000 0.000000 0.000000 0.000000 0.000000 0.227633
#
#
# Mechanical properties :
#
#
# Convention : Reuss Voigt Hill
#
# Bulk Modulus (GPa) = 25.72219 34.14720 29.93470
# Shear Modulus (GPa) = -53.86321 14.80018 -19.53152
#
# Velocity S-wave (km/s) = -5.22242 2.73753 -3.14481
# Velocity P-wave (km/s) = 4.83120 5.22328 1.40394
#
# Compressibility (1/GPa) = 0.03887693
#
# Stress axis : x y z
#
# Youngs Moduli (GPa) = 48.54274 27.55626 48.63538
#
# Poissons Ratio (x) = 0.45018 0.35993
# Poissons Ratio (y) = 0.79303 -0.21645
# Poissons Ratio (z) = 0.35925 -0.12264
#
# Static dielectric constant tensor:
#      x y z
#    x 1.637140 0.000000 0.000000 
#    y 0.000000 1.717250 0.000000 
#    z 0.000000 0.000000 1.864640 
# 
# From -- ./inp_files/31180.got.cif
#   From: 2010.05.17/outbox.cif.g08.bks.cpg/sg73_16_cif.got.tgz:31180.got - 2010.06.03 17:35:07.
