data_PCOD9530711
_publ_section_title
;
Structure prediction by ZEFSAII (Michael W. Deem and Ramdas Pophale) SiO2 
 PCOD9530711
Probable space group: I B C A 
;
_chemical_formula_sum "Si O2"
_cell_formula_units_Z 96
_cell_length_a 28.565981
_cell_length_b 17.229778
_cell_length_c 9.943198
_cell_angle_alpha 90.000000
_cell_angle_beta 90.000000
_cell_angle_gamma 90.000000
_cell_volume 4893.897988
_symmetry_space_group_name_H-M "I B C A "
_symmetry_group_IT_number 73
_symmetry_cell_setting 'orthorhombic'
loop_
_space_group_symop_operation_xyz
x,y,z
-x,1/2-y,z
x,-y,1/2-z
1/2-x,y,-z
-x,-y,-z
x,1/2+y,-z
-x,y,1/2+z
1/2+x,-y,z
1/2+x,1/2+y,1/2+z
1/2-x,-y,1/2+z
1/2+x,1/2-y,-z
-x,1/2+y,1/2-z
1/2-x,1/2-y,1/2-z
1/2+x,y,1/2-z
1/2-x,1/2+y,z
x,1/2-y,1/2+z
loop_
_atom_site_type_symbol
_atom_site_label
_atom_site_fract_x
_atom_site_fract_y
_atom_site_fract_z
Si Si1 0.125313 0.045053 0.609197
Si Si2 0.306857 0.846182 0.219828
Si Si3 0.525762 0.587137 0.194748
Si Si4 0.219071 0.827299 0.364315
Si Si5 0.867351 0.120180 0.488315
Si Si6 0.469059 0.827312 0.476682
O O1 0.168714 0.104095 0.601965
O O2 0.076903 0.090523 0.625599
O O3 0.133098 0.000000 0.750000
O O4 0.119395 0.971069 0.513567
O O5 0.254683 0.871159 0.264551
O O6 0.298139 0.756595 0.185793
O O7 0.341313 0.855273 0.348634
O O8 0.519885 0.500000 0.250000
O O9 0.524559 0.642595 0.324335
O O10 0.488769 0.611027 0.083457
O O11 0.250000 0.815773 0.500000
O O12 0.171881 0.871015 0.399540
O O13 0.913205 0.173617 0.501691
O O14 0.500000 0.750000 0.495632
#
# Coordination Sequence:
#
# PCOD9530711 Si02
#       6
#    16  16  16  16  16  16
#     4   9  17  35  60  80 110 162 201 239 309 384
#     4   9  17  35  60  82 113 155 199 244 315 384
#     4  11  22  42  63  87 125 170 216 261 324 390
#     4   9  19  33  57  89 116 150 197 255 308 372
#     4  10  20  37  58  85 119 161 202 255 316 379
#     4  12  25  38  62  97 127 166 220 274 321 383
#
# _framework density 19.616264000000001
#
# number of rings (size 3 to 8) (size 9 to 14) (size 15 to 20)
#    0.000    2.000    5.000    1.000    2.333    1.333 
#    0.000    5.833    0.000    7.000    0.000    0.000 
#    0.000    0.000    0.000    0.000    0.000    0.000 
#
# Total GULP energy -267351.042647 kJ/mol
# GULP energy per Si atom -5569.813388 kJ/mol
# Density = 1.957162 g / cm^3
# Si number density = 19.616264 Si / 1000 Ang^3
#
#
#
# Elastic Constant Matrix: (Units=GPa)
#
#
# Indices 1 2 3 4 5 6 
#
# 1 149.0400 54.1490 35.2669 0.0000 0.0000 0.0000
# 2 54.1490 49.2917 4.3088 0.0000 0.0000 0.0000
# 3 35.2669 4.3088 29.3006 0.0000 0.0000 0.0000
# 4 0.0000 0.0000 0.0000 11.2576 0.0000 0.0000
# 5 0.0000 0.0000 0.0000 0.0000 18.1411 0.0000
# 6 0.0000 0.0000 0.0000 0.0000 0.0000 24.2206
#
#
#
# Elastic Compliance Matrix: (Units=1/GPa)
#
#
# Indices 1 2 3 4 5 6 
#
# 1 0.017445 -0.017555 -0.018416 0.000000 0.000000 0.000000
# 2 -0.017555 0.038216 0.015509 0.000000 0.000000 0.000000
# 3 -0.018416 0.015509 0.054014 0.000000 0.000000 0.000000
# 4 0.000000 0.000000 0.000000 0.088829 0.000000 0.000000
# 5 0.000000 0.000000 0.000000 0.000000 0.055123 0.000000
# 6 0.000000 0.000000 0.000000 0.000000 0.000000 0.041287
#
#
# Mechanical properties :
#
#
# Convention : Reuss Voigt Hill
#
# Bulk Modulus (GPa) = 14.54481 46.12019 30.33250
# Shear Modulus (GPa) = 13.93707 19.65104 16.79405
#
# Velocity S-wave (km/s) = 2.66839 3.16851 2.92914
# Velocity P-wave (km/s) = 4.11394 6.07850 5.19002
#
# Compressibility (1/GPa) = 0.06875305
#
# Stress axis : x y z
#
# Youngs Moduli (GPa) = 57.32209 26.16694 18.51359
#
# Poissons Ratio (x) = 0.45935 0.34095
# Poissons Ratio (y) = 1.00627 -0.28713
# Poissons Ratio (z) = 1.05565 -0.40583
#
# Static dielectric constant tensor:
#      x y z
#    x 1.732040 0.000000 0.000000 
#    y 0.000000 1.719410 0.000000 
#    z 0.000000 0.000000 1.726170 
# 
# From -- ./inp_files/14284.got.cif
#   From: 2010.05.17/outbox.cif.g08.bks.cpg/sg73_8_cif.got.tgz:14284.got - 2010.06.03 17:35:07.
