data_PCOD9530346
_publ_section_title
;
Structure prediction by ZEFSAII (Michael W. Deem and Ramdas Pophale) SiO2 
 PCOD9530346
Probable space group: I B C A 
;
_chemical_formula_sum "Si O2"
_cell_formula_units_Z 64
_cell_length_a 17.107035
_cell_length_b 10.167853
_cell_length_c 14.922705
_cell_angle_alpha 90.000000
_cell_angle_beta 90.000000
_cell_angle_gamma 90.000000
_cell_volume 2595.682424
_symmetry_space_group_name_H-M "I B C A "
_symmetry_group_IT_number 73
_symmetry_cell_setting 'orthorhombic'
loop_
_space_group_symop_operation_xyz
x,y,z
-x,1/2-y,z
x,-y,1/2-z
1/2-x,y,-z
-x,-y,-z
x,1/2+y,-z
-x,y,1/2+z
1/2+x,-y,z
1/2+x,1/2+y,1/2+z
1/2-x,-y,1/2+z
1/2+x,1/2-y,-z
-x,1/2+y,1/2-z
1/2-x,1/2-y,1/2-z
1/2+x,y,1/2-z
1/2-x,1/2+y,z
x,1/2-y,1/2+z
loop_
_atom_site_type_symbol
_atom_site_label
_atom_site_fract_x
_atom_site_fract_y
_atom_site_fract_z
Si Si1 0.000322 0.049558 0.848767
Si Si2 0.072459 0.652108 0.983962
Si Si3 0.210913 0.128904 0.128223
Si Si4 0.835038 0.161520 0.834265
O O1 0.929416 0.156459 0.843732
O O2 0.024080 0.000000 0.750000
O O3 0.953194 0.936624 0.900168
O O4 0.067659 0.077246 0.921322
O O5 0.156879 0.694114 0.948654
O O6 0.000000 0.750000 0.989622
O O7 0.177168 0.152656 0.227783
O O8 0.291732 0.208045 0.132889
O O9 0.205745 0.968922 0.121137
#
# Coordination Sequence:
#
# PCOD9530346 Si02
#       4
#    16  16  16  16
#     4  10  19  39  64  96 135 183 228 295 359 430
#     4  10  21  37  62  96 136 175 235 292 358 432
#     4   9  17  34  63  99 137 174 228 298 355 425
#     4   9  16  34  64  99 133 175 233 291 357 421
#
# _framework density 24.656327999999998
#
# number of rings (size 3 to 8) (size 9 to 14) (size 15 to 20)
#    0.000    2.500    5.000    0.000    0.000    1.000 
#    0.000    6.250    5.500    9.000    0.000   14.000 
#    0.000    0.000    0.000    0.000    0.000    0.000 
#
# Total GULP energy -178397.616254 kJ/mol
# GULP energy per Si atom -5574.925508 kJ/mol
# Density = 2.460021 g / cm^3
# Si number density = 24.656328 Si / 1000 Ang^3
#
#
#
# Elastic Constant Matrix: (Units=GPa)
#
#
# Indices 1 2 3 4 5 6 
#
# 1 94.4983 31.8856 49.2633 0.0000 0.0000 0.0000
# 2 31.8856 39.6753 24.7091 0.0000 0.0000 0.0000
# 3 49.2633 24.7091 169.0262 0.0000 0.0000 0.0000
# 4 0.0000 0.0000 0.0000 23.6574 0.0000 0.0000
# 5 0.0000 0.0000 0.0000 0.0000 43.8419 0.0000
# 6 0.0000 0.0000 0.0000 0.0000 0.0000 2.6417
#
#
#
# Elastic Compliance Matrix: (Units=1/GPa)
#
#
# Indices 1 2 3 4 5 6 
#
# 1 0.015812 -0.010822 -0.003026 0.000000 0.000000 0.000000
# 2 -0.010822 0.035137 -0.001982 0.000000 0.000000 0.000000
# 3 -0.003026 -0.001982 0.007088 0.000000 0.000000 0.000000
# 4 0.000000 0.000000 0.000000 0.042270 0.000000 0.000000
# 5 0.000000 0.000000 0.000000 0.000000 0.022809 0.000000
# 6 0.000000 0.000000 0.000000 0.000000 0.000000 0.378549
#
#
# Mechanical properties :
#
#
# Convention : Reuss Voigt Hill
#
# Bulk Modulus (GPa) = 37.91556 57.21289 47.56422
# Shear Modulus (GPa) = 9.22309 27.18431 18.20370
#
# Velocity S-wave (km/s) = 1.93618 3.32404 2.72011
# Velocity P-wave (km/s) = 4.51767 6.16334 5.40353
#
# Compressibility (1/GPa) = 0.02637440
#
# Stress axis : x y z
#
# Youngs Moduli (GPa) = 63.24496 28.46027 141.08305
#
# Poissons Ratio (x) = 0.30801 0.42695
# Poissons Ratio (y) = 0.68447 0.27966
# Poissons Ratio (z) = 0.19139 0.05641
#
# Static dielectric constant tensor:
#      x y z
#    x 1.985470 0.000000 0.000000 
#    y 0.000000 2.097790 0.000000 
#    z 0.000000 0.000000 2.010270 
# 
# From -- ./inp_files/17644.got.cif
#   From: 2010.05.17/outbox.cif.g08.bks.cpg/sg73_9_cif.got.tgz:17644.got - 2010.06.03 17:35:07.
