data_PCOD9530267
_publ_section_title
;
Structure prediction by ZEFSAII (Michael W. Deem and Ramdas Pophale) SiO2 
 PCOD9530267
Probable space group: I B C A 
;
_chemical_formula_sum "Si O2"
_cell_formula_units_Z 112
_cell_length_a 26.886240
_cell_length_b 30.734106
_cell_length_c 5.319652
_cell_angle_alpha 90.000000
_cell_angle_beta 90.000000
_cell_angle_gamma 90.000000
_cell_volume 4395.759046
_symmetry_space_group_name_H-M "I B C A "
_symmetry_group_IT_number 73
_symmetry_cell_setting 'orthorhombic'
loop_
_space_group_symop_operation_xyz
x,y,z
-x,1/2-y,z
x,-y,1/2-z
1/2-x,y,-z
-x,-y,-z
x,1/2+y,-z
-x,y,1/2+z
1/2+x,-y,z
1/2+x,1/2+y,1/2+z
1/2-x,-y,1/2+z
1/2+x,1/2-y,-z
-x,1/2+y,1/2-z
1/2-x,1/2-y,1/2-z
1/2+x,y,1/2-z
1/2-x,1/2+y,z
x,1/2-y,1/2+z
loop_
_atom_site_type_symbol
_atom_site_label
_atom_site_fract_x
_atom_site_fract_y
_atom_site_fract_z
Si Si1 0.085725 0.973366 0.007791
Si Si2 0.982822 0.809145 0.776677
Si Si3 0.693040 0.769139 0.729187
Si Si4 0.396203 0.860370 0.713022
Si Si5 0.306237 0.046088 0.395469
Si Si6 0.555843 0.610895 0.219641
Si Si7 0.195088 0.134643 0.900671
O O1 0.143157 0.957301 0.064137
O O2 0.090606 0.000000 0.750000
O O3 0.048907 0.934765 0.921098
O O4 0.068718 0.000000 0.250000
O O5 0.985363 0.790122 0.501046
O O6 0.926733 0.816971 0.857749
O O7 0.009131 0.857257 0.742480
O O8 0.750000 0.750000 0.750000
O O9 0.669237 0.750119 0.480046
O O10 0.692340 0.821296 0.737435
O O11 0.408489 0.867320 0.005787
O O12 0.339581 0.858408 0.642187
O O13 0.418707 0.893086 0.495398
O O14 0.250000 0.052047 0.500000
O O15 0.316455 0.088918 0.230825
O O16 0.303381 0.000000 0.250000
O O17 0.250000 0.131116 0.000000
#
# Coordination Sequence:
#
# PCOD9530267 Si02
#       7
#    16  16  16  16  16  16  16
#     4  11  23  38  58  79 116 162 210 267 319 363
#     4   8  16  32  57  79 115 149 189 259 310 363
#     4  10  22  44  64  91 127 164 200 261 322 371
#     4  10  21  36  57  92 116 153 205 256 302 379
#     4  11  25  40  56  87 124 175 221 268 303 363
#     4  10  19  37  59  83 114 156 201 267 311 362
#     4  12  25  38  67  96 126 175 213 257 315 382
#
# _framework density 25.479105000000001
#
# number of rings (size 3 to 8) (size 9 to 14) (size 15 to 20)
#    0.000    1.714    2.857    1.714    6.000    1.143 
#    0.000    0.000    0.000   24.000    0.000    0.000 
#    0.000   30.857    0.000    0.000    0.000    0.000 
#
# Total GULP energy -312593.580157 kJ/mol
# GULP energy per Si atom -5582.028217 kJ/mol
# Density = 2.542111 g / cm^3
# Si number density = 25.479105 Si / 1000 Ang^3
#
#
#
# Elastic Constant Matrix: (Units=GPa)
#
#
# Indices 1 2 3 4 5 6 
#
# 1 71.5004 6.2767 -9.2164 0.0000 0.0000 0.0000
# 2 6.2767 131.7998 10.2805 0.0000 0.0000 0.0000
# 3 -9.2164 10.2805 129.3042 0.0000 0.0000 0.0000
# 4 0.0000 0.0000 0.0000 127.9168 0.0000 0.0000
# 5 0.0000 0.0000 0.0000 0.0000 29.3711 0.0000
# 6 0.0000 0.0000 0.0000 0.0000 0.0000 -49.8764
#
#
#
# Elastic Compliance Matrix: (Units=1/GPa)
#
#
# Indices 1 2 3 4 5 6 
#
# 1 0.014191 -0.000759 0.001072 0.000000 0.000000 0.000000
# 2 -0.000759 0.007675 -0.000664 0.000000 0.000000 0.000000
# 3 0.001072 -0.000664 0.007863 0.000000 0.000000 0.000000
# 4 0.000000 0.000000 0.000000 0.007818 0.000000 0.000000
# 5 0.000000 0.000000 0.000000 0.000000 0.034047 0.000000
# 6 0.000000 0.000000 0.000000 0.000000 0.000000 -0.020050
#
#
# Mechanical properties :
#
#
# Convention : Reuss Voigt Hill
#
# Bulk Modulus (GPa) = 34.45292 38.58732 36.52012
# Shear Modulus (GPa) = 80.74564 43.16656 61.95610
#
# Velocity S-wave (km/s) = 5.63558 4.12052 4.93652
# Velocity P-wave (km/s) = 7.47648 6.14946 6.84520
#
# Compressibility (1/GPa) = 0.02902511
#
# Stress axis : x y z
#
# Youngs Moduli (GPa) = 70.46834 130.28893 127.17920
#
# Poissons Ratio (x) = 0.09894 -0.13632
# Poissons Ratio (y) = 0.05351 0.08449
# Poissons Ratio (z) = -0.07553 0.08656
#
# Static dielectric constant tensor:
#      x y z
#    x 1.974410 0.000000 0.000000 
#    y 0.000000 2.104720 0.000000 
#    z 0.000000 0.000000 2.057620 
# 
# From -- ./inp_files/3258.got.cif
#   From: 2010.05.17/outbox.cif.g08.bks.cpg/sg73_2_cif.got.tgz:3258.got - 2010.06.03 17:35:07.
