data_PCOD9530108
_publ_section_title
;
Structure prediction by ZEFSAII (Michael W. Deem and Ramdas Pophale) SiO2 
 PCOD9530108
Probable space group: I B C A 
;
_chemical_formula_sum "Si O2"
_cell_formula_units_Z 80
_cell_length_a 22.366779
_cell_length_b 21.011269
_cell_length_c 8.022942
_cell_angle_alpha 90.000000
_cell_angle_beta 90.000000
_cell_angle_gamma 90.000000
_cell_volume 3770.416976
_symmetry_space_group_name_H-M "I B C A "
_symmetry_group_IT_number 73
_symmetry_cell_setting 'orthorhombic'
loop_
_space_group_symop_operation_xyz
x,y,z
-x,1/2-y,z
x,-y,1/2-z
1/2-x,y,-z
-x,-y,-z
x,1/2+y,-z
-x,y,1/2+z
1/2+x,-y,z
1/2+x,1/2+y,1/2+z
1/2-x,-y,1/2+z
1/2+x,1/2-y,-z
-x,1/2+y,1/2-z
1/2-x,1/2-y,1/2-z
1/2+x,y,1/2-z
1/2-x,1/2+y,z
x,1/2-y,1/2+z
loop_
_atom_site_type_symbol
_atom_site_label
_atom_site_fract_x
_atom_site_fract_y
_atom_site_fract_z
Si Si1 0.306278 0.367395 0.888441
Si Si2 0.000000 0.750000 0.766313
Si Si3 0.817180 0.044517 0.583382
Si Si4 0.829253 0.500000 0.750000
Si Si5 0.318171 0.313977 0.522618
Si Si6 0.589958 0.198406 0.009038
O O1 0.295694 0.437559 0.817802
O O2 0.320290 0.329268 0.719725
O O3 0.365811 0.360798 0.998537
O O4 0.250000 0.349067 0.000000
O O5 0.950689 0.789828 0.667763
O O6 0.960146 0.700432 0.867774
O O7 0.750000 0.039103 0.500000
O O8 0.825934 0.121583 0.588974
O O9 0.823643 0.000000 0.750000
O O10 0.858564 0.022755 0.425132
O O11 0.250000 0.292099 0.500000
O O12 0.366145 0.259555 0.487976
#
# Coordination Sequence:
#
# PCOD9530108 Si02
#       6
#    16   8  16   8  16  16
#     4  11  24  39  65  95 138 174 212 272 335 413
#     4  10  24  40  66  90 122 170 228 274 322 396
#     4  10  19  33  53  83 126 170 208 249 310 397
#     4  10  22  36  56  92 130 176 214 248 330 404
#     4  10  23  37  58  96 133 163 213 269 334 415
#     4  11  22  43  64  93 123 170 217 278 334 387
#
# _framework density 21.217813
#
# number of rings (size 3 to 8) (size 9 to 14) (size 15 to 20)
#    0.000    1.600    3.000    1.200    8.400    2.400 
#    0.000    0.000    0.000    1.200   10.400    0.000 
#    0.000    0.000    0.000    0.000    0.000    0.000 
#
# Total GULP energy -222717.684078 kJ/mol
# GULP energy per Si atom -5567.942102 kJ/mol
# Density = 2.116952 g / cm^3
# Si number density = 21.217813 Si / 1000 Ang^3
#
#
#
# Elastic Constant Matrix: (Units=GPa)
#
#
# Indices 1 2 3 4 5 6 
#
# 1 99.0610 23.5180 26.3485 0.0000 0.0000 0.0000
# 2 23.5180 109.8696 35.2007 0.0000 0.0000 0.0000
# 3 26.3485 35.2007 98.1811 0.0000 0.0000 0.0000
# 4 0.0000 0.0000 0.0000 79.3377 0.0000 0.0000
# 5 0.0000 0.0000 0.0000 0.0000 43.2478 0.0000
# 6 0.0000 0.0000 0.0000 0.0000 0.0000 -1.3174
#
#
#
# Elastic Compliance Matrix: (Units=1/GPa)
#
#
# Indices 1 2 3 4 5 6 
#
# 1 0.011117 -0.001609 -0.002407 0.000000 0.000000 0.000000
# 2 -0.001609 0.010516 -0.003338 0.000000 0.000000 0.000000
# 3 -0.002407 -0.003338 0.012028 0.000000 0.000000 0.000000
# 4 0.000000 0.000000 0.000000 0.012604 0.000000 0.000000
# 5 0.000000 0.000000 0.000000 0.000000 0.023123 0.000000
# 6 0.000000 0.000000 0.000000 0.000000 0.000000 -0.759084
#
#
# Mechanical properties :
#
#
# Convention : Reuss Voigt Hill
#
# Bulk Modulus (GPa) = 52.76171 53.02735 52.89453
# Shear Modulus (GPa) = -7.47751 39.05658 15.78953
#
# Velocity S-wave (km/s) = -1.87931 4.29504 2.73090
# Velocity P-wave (km/s) = 4.49573 7.04576 5.90992
#
# Compressibility (1/GPa) = 0.01895314
#
# Stress axis : x y z
#
# Youngs Moduli (GPa) = 89.95388 95.09674 83.13888
#
# Poissons Ratio (x) = 0.15297 0.20009
# Poissons Ratio (y) = 0.14469 0.27756
# Poissons Ratio (z) = 0.21649 0.31748
#
# Static dielectric constant tensor:
#      x y z
#    x 1.733760 0.000000 0.000000 
#    y 0.000000 1.805680 0.000000 
#    z 0.000000 0.000000 1.983650 
# 
# From -- ./inp_files/7137.got.cif
#   From: 2010.05.17/outbox.cif.g08.bks.cpg/sg73_4_cif.got.tgz:7137.got - 2010.06.03 17:35:07.
