data_PCOD9530478
_publ_section_title
;
Structure prediction by ZEFSAII (Michael W. Deem and Ramdas Pophale) SiO2 
 PCOD9530478
Probable space group: I B C A 
;
_chemical_formula_sum "Si O2"
_cell_formula_units_Z 120
_cell_length_a 25.538426
_cell_length_b 8.745922
_cell_length_c 29.235307
_cell_angle_alpha 90.000000
_cell_angle_beta 90.000000
_cell_angle_gamma 90.000000
_cell_volume 6529.912857
_symmetry_space_group_name_H-M "I B C A "
_symmetry_group_IT_number 73
_symmetry_cell_setting 'orthorhombic'
loop_
_space_group_symop_operation_xyz
x,y,z
-x,1/2-y,z
x,-y,1/2-z
1/2-x,y,-z
-x,-y,-z
x,1/2+y,-z
-x,y,1/2+z
1/2+x,-y,z
1/2+x,1/2+y,1/2+z
1/2-x,-y,1/2+z
1/2+x,1/2-y,-z
-x,1/2+y,1/2-z
1/2-x,1/2-y,1/2-z
1/2+x,y,1/2-z
1/2-x,1/2+y,z
x,1/2-y,1/2+z
loop_
_atom_site_type_symbol
_atom_site_label
_atom_site_fract_x
_atom_site_fract_y
_atom_site_fract_z
Si Si1 0.557258 0.291756 0.323558
Si Si2 0.294874 0.493016 0.054922
Si Si3 0.092999 0.493570 0.099197
Si Si4 0.885815 0.347477 0.393599
Si Si5 0.415220 0.035126 0.698786
Si Si6 0.011289 0.429742 0.949872
Si Si7 0.685943 0.648020 0.043573
Si Si8 0.000000 0.250000 0.765572
O O1 0.500000 0.250000 0.343866
O O2 0.587421 0.422564 0.350203
O O3 0.543510 0.315510 0.269800
O O4 0.585693 0.129293 0.325122
O O5 0.332638 0.430750 0.093593
O O6 0.301317 0.673064 0.047075
O O7 0.234902 0.447163 0.063734
O O8 0.314143 0.405300 0.009077
O O9 0.112564 0.667735 0.095027
O O10 0.033725 0.495916 0.080989
O O11 0.132036 0.392124 0.068724
O O12 0.891452 0.355197 0.338863
O O13 0.932797 0.430508 0.422957
O O14 0.472604 0.113528 0.706884
O O15 0.394920 0.000000 0.750000
O O16 0.000000 0.250000 0.954217
O O17 0.000000 0.500000 0.000000
#
# Coordination Sequence:
#
# PCOD9530478 Si02
#       8
#    16  16  16  16  16  16  16   8
#     4   9  19  32  50  78 110 145 190 231 288 337
#     4  11  22  40  60  89 115 154 194 247 289 344
#     4  11  22  36  55  84 116 156 193 238 291 349
#     4  11  23  36  58  81 119 153 197 236 294 346
#     4  10  20  34  53  80 111 150 195 238 292 335
#     4  10  23  36  51  76 114 156 190 227 280 346
#     4  11  22  38  63  84 119 147 198 240 292 342
#     4   8  20  32  56  76 114 148 198 238 292 338
#
# _framework density 18.376968000000002
#
# number of rings (size 3 to 8) (size 9 to 14) (size 15 to 20)
#    0.400    1.333    0.000    5.600    4.667    4.800 
#    0.000    0.000    0.000    0.000    0.000   14.933 
#    0.000    0.000    0.000    0.000    0.000    0.000 
#
# Total GULP energy -334214.164789 kJ/mol
# GULP energy per Si atom -5570.236080 kJ/mol
# Density = 1.833514 g / cm^3
# Si number density = 18.376968 Si / 1000 Ang^3
#
#
#
# Elastic Constant Matrix: (Units=GPa)
#
#
# Indices 1 2 3 4 5 6 
#
# 1 36.6663 12.1782 3.6270 0.0000 0.0000 0.0000
# 2 12.1782 92.3679 11.6431 0.0000 0.0000 0.0000
# 3 3.6270 11.6431 44.9289 0.0000 0.0000 0.0000
# 4 0.0000 0.0000 0.0000 20.8751 0.0000 0.0000
# 5 0.0000 0.0000 0.0000 0.0000 -21.9045 0.0000
# 6 0.0000 0.0000 0.0000 0.0000 0.0000 27.3858
#
#
#
# Elastic Compliance Matrix: (Units=1/GPa)
#
#
# Indices 1 2 3 4 5 6 
#
# 1 0.028604 -0.003598 -0.001377 0.000000 0.000000 0.000000
# 2 -0.003598 0.011644 -0.002727 0.000000 0.000000 0.000000
# 3 -0.001377 -0.002727 0.023075 0.000000 0.000000 0.000000
# 4 0.000000 0.000000 0.000000 0.047904 0.000000 0.000000
# 5 0.000000 0.000000 0.000000 0.000000 -0.045653 0.000000
# 6 0.000000 0.000000 0.000000 0.000000 0.000000 0.036515
#
#
# Mechanical properties :
#
#
# Convention : Reuss Voigt Hill
#
# Bulk Modulus (GPa) = 20.86794 25.42885 23.14839
# Shear Modulus (GPa) = 37.46240 15.03894 26.25067
#
# Velocity S-wave (km/s) = 4.51993 2.86380 3.78359
# Velocity P-wave (km/s) = 6.21449 4.98021 5.63127
#
# Compressibility (1/GPa) = 0.04792039
#
# Stress axis : x y z
#
# Youngs Moduli (GPa) = 34.95994 85.87839 43.33648
#
# Poissons Ratio (x) = 0.30897 0.05967
# Poissons Ratio (y) = 0.12578 0.11818
# Poissons Ratio (z) = 0.04813 0.23420
#
# Static dielectric constant tensor:
#      x y z
#    x 1.640970 0.000000 0.000000 
#    y 0.000000 1.659970 0.000000 
#    z 0.000000 0.000000 1.692940 
# 
# From -- ./inp_files/34810.got.cif
#   From: 2010.05.17/outbox.cif.g08.bks.cpg/sg73_18_cif.got.tgz:34810.got - 2010.06.03 17:35:07.
