data_PCOD9530495
_publ_section_title
;
Structure prediction by ZEFSAII (Michael W. Deem and Ramdas Pophale) SiO2 
 PCOD9530495
Probable space group: I B C A 
;
_chemical_formula_sum "Si O2"
_cell_formula_units_Z 88
_cell_length_a 33.159949
_cell_length_b 4.798129
_cell_length_c 19.831729
_cell_angle_alpha 90.000000
_cell_angle_beta 90.000000
_cell_angle_gamma 90.000000
_cell_volume 3155.341381
_symmetry_space_group_name_H-M "I B C A "
_symmetry_group_IT_number 73
_symmetry_cell_setting 'orthorhombic'
loop_
_space_group_symop_operation_xyz
x,y,z
-x,1/2-y,z
x,-y,1/2-z
1/2-x,y,-z
-x,-y,-z
x,1/2+y,-z
-x,y,1/2+z
1/2+x,-y,z
1/2+x,1/2+y,1/2+z
1/2-x,-y,1/2+z
1/2+x,1/2-y,-z
-x,1/2+y,1/2-z
1/2-x,1/2-y,1/2-z
1/2+x,y,1/2-z
1/2-x,1/2+y,z
x,1/2-y,1/2+z
loop_
_atom_site_type_symbol
_atom_site_label
_atom_site_fract_x
_atom_site_fract_y
_atom_site_fract_z
Si Si1 0.250000 0.750000 0.250000
Si Si2 0.060843 0.376502 0.540561
Si Si3 0.140452 0.798312 0.392282
Si Si4 0.884301 0.189146 0.310659
Si Si5 0.473068 0.986148 0.164393
Si Si6 0.773164 0.905636 0.395079
O O1 0.285178 0.500000 0.250000
O O2 0.230078 0.537375 0.311838
O O3 0.048921 0.686816 0.522647
O O4 0.108950 0.385328 0.551079
O O5 0.043112 0.219926 0.605151
O O6 0.130607 0.478951 0.375554
O O7 0.187304 0.769902 0.408425
O O8 0.128128 0.996931 0.328703
O O9 0.932421 0.139282 0.308720
O O10 0.867231 0.000000 0.250000
O O11 0.500000 0.250000 0.145728
O O12 0.500000 0.750000 0.204653
O O13 0.735892 0.713884 0.418616
#
# Coordination Sequence:
#
# PCOD9530495 Si02
#       6
#     8  16  16  16  16  16
#     4   8  16  28  44  74 108 140 182 224 280 344
#     4  11  23  41  65  91 121 162 208 259 326 380
#     4  11  23  41  62  89 126 163 209 262 306 375
#     4  11  24  40  61  89 124 171 210 242 302 376
#     4  11  23  40  62  92 127 158 204 263 312 374
#     4  10  20  34  56  84 118 156 197 249 308 356
#
# _framework density 27.889216999999999
#
# number of rings (size 3 to 8) (size 9 to 14) (size 15 to 20)
#    0.000    1.455    0.000    7.091    0.000    9.455 
#    0.000    0.000    0.000    3.273    0.000    0.000 
#    0.000    0.000    0.000    0.000    0.000    0.000 
#
# Total GULP energy -245224.452600 kJ/mol
# GULP energy per Si atom -5573.283014 kJ/mol
# Density = 2.782574 g / cm^3
# Si number density = 27.889217 Si / 1000 Ang^3
#
#
#
# Elastic Constant Matrix: (Units=GPa)
#
#
# Indices 1 2 3 4 5 6 
#
# 1 168.8247 46.9247 10.2716 0.0000 0.0000 0.0000
# 2 46.9247 235.2134 12.5188 0.0000 0.0000 0.0000
# 3 10.2716 12.5188 65.3979 0.0000 0.0000 0.0000
# 4 0.0000 0.0000 0.0000 23.4169 0.0000 0.0000
# 5 0.0000 0.0000 0.0000 0.0000 17.9150 0.0000
# 6 0.0000 0.0000 0.0000 0.0000 0.0000 37.4595
#
#
#
# Elastic Compliance Matrix: (Units=1/GPa)
#
#
# Indices 1 2 3 4 5 6 
#
# 1 0.006308 -0.001218 -0.000758 0.000000 0.000000 0.000000
# 2 -0.001218 0.004530 -0.000676 0.000000 0.000000 0.000000
# 3 -0.000758 -0.000676 0.015539 0.000000 0.000000 0.000000
# 4 0.000000 0.000000 0.000000 0.042704 0.000000 0.000000
# 5 0.000000 0.000000 0.000000 0.000000 0.055819 0.000000
# 6 0.000000 0.000000 0.000000 0.000000 0.000000 0.026696
#
#
# Mechanical properties :
#
#
# Convention : Reuss Voigt Hill
#
# Bulk Modulus (GPa) = 47.45049 67.65178 57.55113
# Shear Modulus (GPa) = 30.50180 42.40634 36.45407
#
# Velocity S-wave (km/s) = 3.31067 3.90363 3.61931
# Velocity P-wave (km/s) = 5.62716 6.68040 6.17627
#
# Compressibility (1/GPa) = 0.02107460
#
# Stress axis : x y z
#
# Youngs Moduli (GPa) = 158.52962 220.72896 64.35263
#
# Poissons Ratio (x) = 0.26887 0.04875
# Poissons Ratio (y) = 0.19311 0.04350
# Poissons Ratio (z) = 0.12010 0.14919
#
# Static dielectric constant tensor:
#      x y z
#    x 2.362870 0.000000 0.000000 
#    y 0.000000 8.834580 0.000000 
#    z 0.000000 0.000000 0.195640 
# 
# From -- ./inp_files/33037.got.cif
#   From: 2010.05.17/outbox.cif.g08.bks.cpg/sg73_17_cif.got.tgz:33037.got - 2010.06.03 17:35:07.
