data_PCOD9530277
_publ_section_title
;
Structure prediction by ZEFSAII (Michael W. Deem and Ramdas Pophale) SiO2 
 PCOD9530277
Probable space group: I B C A 
;
_chemical_formula_sum "Si O2"
_cell_formula_units_Z 120
_cell_length_a 19.518637
_cell_length_b 25.757678
_cell_length_c 11.947416
_cell_angle_alpha 90.000000
_cell_angle_beta 90.000000
_cell_angle_gamma 90.000000
_cell_volume 6006.620345
_symmetry_space_group_name_H-M "I B C A "
_symmetry_group_IT_number 73
_symmetry_cell_setting 'orthorhombic'
loop_
_space_group_symop_operation_xyz
x,y,z
-x,1/2-y,z
x,-y,1/2-z
1/2-x,y,-z
-x,-y,-z
x,1/2+y,-z
-x,y,1/2+z
1/2+x,-y,z
1/2+x,1/2+y,1/2+z
1/2-x,-y,1/2+z
1/2+x,1/2-y,-z
-x,1/2+y,1/2-z
1/2-x,1/2-y,1/2-z
1/2+x,y,1/2-z
1/2-x,1/2+y,z
x,1/2-y,1/2+z
loop_
_atom_site_type_symbol
_atom_site_label
_atom_site_fract_x
_atom_site_fract_y
_atom_site_fract_z
Si Si1 0.568515 0.505818 0.623248
Si Si2 0.118322 0.615755 0.881516
Si Si3 0.582546 0.549556 0.085851
Si Si4 0.602413 0.314203 0.102444
Si Si5 0.523534 0.151352 0.816464
Si Si6 0.733476 0.134894 0.630464
Si Si7 0.500000 0.250000 0.975961
Si Si8 0.217470 0.984985 0.628267
O O1 0.587093 0.500000 0.750000
O O2 0.612200 0.555629 0.582917
O O3 0.584097 0.456254 0.548193
O O4 0.487607 0.519003 0.616679
O O5 0.189247 0.631438 0.822336
O O6 0.052159 0.627226 0.807364
O O7 0.107022 0.648300 0.994857
O O8 0.571824 0.607320 0.129564
O O9 0.649286 0.520106 0.128603
O O10 0.551116 0.334218 0.195952
O O11 0.678063 0.320748 0.157966
O O12 0.566529 0.263075 0.052133
O O13 0.517650 0.201343 0.896472
O O14 0.750000 0.142904 0.500000
O O15 0.703858 0.076762 0.640724
O O16 0.250000 0.991963 0.500000
O O17 0.252802 0.000000 0.750000
#
# Coordination Sequence:
#
# PCOD9530277 Si02
#       8
#    16  16  16  16  16  16   8  16
#     4  10  20  33  52  84 123 156 193 238 283 336
#     4   9  20  35  56  87 115 151 199 232 272 340
#     4  10  21  34  53  81 114 154 197 238 287 350
#     4  10  19  37  62  83 110 146 186 240 299 351
#     4  10  21  37  60  84 110 145 190 245 301 348
#     4   9  18  34  59  85 113 154 197 231 276 343
#     4  10  22  38  60  86 106 132 188 244 300 362
#     4  11  22  36  55  82 121 165 203 238 285 347
#
# _framework density 19.977957
#
# number of rings (size 3 to 8) (size 9 to 14) (size 15 to 20)
#    0.000    2.133    0.000    4.000    0.000   12.800 
#    0.000    0.000    0.000   25.600    0.000    0.000 
#    0.000    0.000    0.000    0.000    0.000    0.000 
#
# Total GULP energy -334093.072782 kJ/mol
# GULP energy per Si atom -5568.217880 kJ/mol
# Density = 1.993249 g / cm^3
# Si number density = 19.977957 Si / 1000 Ang^3
#
#
#
# Elastic Constant Matrix: (Units=GPa)
#
#
# Indices 1 2 3 4 5 6 
#
# 1 133.6274 38.0607 22.5668 0.0000 0.0000 0.0000
# 2 38.0607 73.9607 12.3990 0.0000 0.0000 0.0000
# 3 22.5668 12.3990 74.2103 0.0000 0.0000 0.0000
# 4 0.0000 0.0000 0.0000 11.8140 0.0000 0.0000
# 5 0.0000 0.0000 0.0000 0.0000 15.7911 0.0000
# 6 0.0000 0.0000 0.0000 0.0000 0.0000 22.9707
#
#
#
# Elastic Compliance Matrix: (Units=1/GPa)
#
#
# Indices 1 2 3 4 5 6 
#
# 1 0.009057 -0.004320 -0.002032 0.000000 0.000000 0.000000
# 2 -0.004320 0.015971 -0.001355 0.000000 0.000000 0.000000
# 3 -0.002032 -0.001355 0.014320 0.000000 0.000000 0.000000
# 4 0.000000 0.000000 0.000000 0.084646 0.000000 0.000000
# 5 0.000000 0.000000 0.000000 0.000000 0.063327 0.000000
# 6 0.000000 0.000000 0.000000 0.000000 0.000000 0.043534
#
#
# Mechanical properties :
#
#
# Convention : Reuss Voigt Hill
#
# Bulk Modulus (GPa) = 41.78293 47.53907 44.66100
# Shear Modulus (GPa) = 19.66596 24.03328 21.84962
#
# Velocity S-wave (km/s) = 3.14089 3.47218 3.31068
# Velocity P-wave (km/s) = 5.84068 6.31839 6.08423
#
# Compressibility (1/GPa) = 0.02393322
#
# Stress axis : x y z
#
# Youngs Moduli (GPa) = 110.40900 62.61354 69.83435
#
# Poissons Ratio (x) = 0.27050 0.14193
# Poissons Ratio (y) = 0.47699 0.09460
# Poissons Ratio (z) = 0.22440 0.08482
#
# Static dielectric constant tensor:
#      x y z
#    x 1.823390 0.000000 0.000000 
#    y 0.000000 1.698150 0.000000 
#    z 0.000000 0.000000 1.746140 
# 
# From -- ./inp_files/13192.got.cif
#   From: 2010.05.17/outbox.cif.g08.bks.cpg/sg73_7_cif.got.tgz:13192.got - 2010.06.03 17:35:07.
