data_PCOD9530290
_publ_section_title
;
Structure prediction by ZEFSAII (Michael W. Deem and Ramdas Pophale) SiO2 
 PCOD9530290
Probable space group: I B C A 
;
_chemical_formula_sum "Si O2"
_cell_formula_units_Z 120
_cell_length_a 25.209869
_cell_length_b 18.757652
_cell_length_c 14.592804
_cell_angle_alpha 90.000000
_cell_angle_beta 90.000000
_cell_angle_gamma 90.000000
_cell_volume 6900.615235
_symmetry_space_group_name_H-M "I B C A "
_symmetry_group_IT_number 73
_symmetry_cell_setting 'orthorhombic'
loop_
_space_group_symop_operation_xyz
x,y,z
-x,1/2-y,z
x,-y,1/2-z
1/2-x,y,-z
-x,-y,-z
x,1/2+y,-z
-x,y,1/2+z
1/2+x,-y,z
1/2+x,1/2+y,1/2+z
1/2-x,-y,1/2+z
1/2+x,1/2-y,-z
-x,1/2+y,1/2-z
1/2-x,1/2-y,1/2-z
1/2+x,y,1/2-z
1/2-x,1/2+y,z
x,1/2-y,1/2+z
loop_
_atom_site_type_symbol
_atom_site_label
_atom_site_fract_x
_atom_site_fract_y
_atom_site_fract_z
Si Si1 0.407619 0.826716 0.990550
Si Si2 0.906511 0.326326 0.902448
Si Si3 0.215511 0.674680 0.090768
Si Si4 0.893714 0.132246 0.196900
Si Si5 0.999395 0.566346 0.068457
Si Si6 0.709863 0.339716 0.584532
Si Si7 0.966562 0.500000 0.750000
Si Si8 0.726319 0.416025 0.265961
O O1 0.419840 0.748869 0.949094
O O2 0.451011 0.882467 0.956266
O O3 0.349695 0.847852 0.951983
O O4 0.405564 0.828550 0.101364
O O5 0.845839 0.344457 0.927706
O O6 0.906757 0.324795 0.790779
O O7 0.946921 0.386756 0.935127
O O8 0.215555 0.757991 0.119383
O O9 0.236294 0.625000 0.171181
O O10 0.250000 0.667904 0.000000
O O11 0.831544 0.111381 0.200110
O O12 0.928652 0.060137 0.204842
O O13 0.998666 0.536153 0.171440
O O14 0.000000 0.500000 0.000000
O O15 0.750000 0.347399 0.500000
O O16 0.728989 0.393517 0.662001
O O17 0.723803 0.500000 0.250000
#
# Coordination Sequence:
#
# PCOD9530290 Si02
#       8
#    16  16  16  16  16  16   8  16
#     4  11  21  40  62  89 116 155 201 249 296 350
#     4   9  22  40  61  91 113 150 209 239 287 356
#     4   9  20  39  60  85 117 157 194 241 288 347
#     4  10  19  37  66  82 116 159 200 239 283 358
#     4  11  22  40  62  85 119 157 195 248 297 357
#     4  10  20  37  59  85 117 152 193 242 293 344
#     4  10  20  40  58  86 114 156 200 236 296 360
#     4  11  21  35  57  89 119 156 196 237 288 357
#
# _framework density 17.389754
#
# number of rings (size 3 to 8) (size 9 to 14) (size 15 to 20)
#    0.000    1.867    3.333    0.800    0.000    0.533 
#    6.000    1.333    0.000    0.000    0.000    0.000 
#    0.000    0.000    0.000    0.000    0.000    0.000 
#
# Total GULP energy -334834.961075 kJ/mol
# GULP energy per Si atom -5580.582685 kJ/mol
# Density = 1.735017 g / cm^3
# Si number density = 17.389754 Si / 1000 Ang^3
#
#
#
# Elastic Constant Matrix: (Units=GPa)
#
#
# Indices 1 2 3 4 5 6 
#
# 1 75.9453 49.0535 53.4799 0.0000 0.0000 0.0000
# 2 49.0535 103.7533 78.5620 0.0000 0.0000 0.0000
# 3 53.4799 78.5620 117.4895 0.0000 0.0000 0.0000
# 4 0.0000 0.0000 0.0000 27.2386 0.0000 0.0000
# 5 0.0000 0.0000 0.0000 0.0000 29.2213 0.0000
# 6 0.0000 0.0000 0.0000 0.0000 0.0000 114.7288
#
#
#
# Elastic Compliance Matrix: (Units=1/GPa)
#
#
# Indices 1 2 3 4 5 6 
#
# 1 0.020768 -0.005390 -0.005849 0.000000 0.000000 0.000000
# 2 -0.005390 0.020922 -0.011537 0.000000 0.000000 0.000000
# 3 -0.005849 -0.011537 0.018888 0.000000 0.000000 0.000000
# 4 0.000000 0.000000 0.000000 0.036713 0.000000 0.000000
# 5 0.000000 0.000000 0.000000 0.000000 0.034222 0.000000
# 6 0.000000 0.000000 0.000000 0.000000 0.000000 0.008716
#
#
# Mechanical properties :
#
#
# Convention : Reuss Voigt Hill
#
# Bulk Modulus (GPa) = 66.54865 73.26433 69.90649
# Shear Modulus (GPa) = 26.20711 41.97726 34.09219
#
# Velocity S-wave (km/s) = 3.88628 4.91848 4.43253
# Velocity P-wave (km/s) = 7.64784 8.63004 8.15374
#
# Compressibility (1/GPa) = 0.01502660
#
# Stress axis : x y z
#
# Youngs Moduli (GPa) = 48.15211 47.79666 52.94322
#
# Poissons Ratio (x) = 0.25761 0.30968
# Poissons Ratio (y) = 0.25952 0.61079
# Poissons Ratio (z) = 0.28165 0.55141
#
# Static dielectric constant tensor:
#      x y z
#    x 1.576770 0.000000 0.000000 
#    y 0.000000 1.581380 0.000000 
#    z 0.000000 0.000000 1.582950 
# 
# From -- ./inp_files/19532.got.cif
#   From: 2010.05.17/outbox.cif.g08.bks.cpg/sg73_10_cif.got.tgz:19532.got - 2010.06.03 17:35:07.
